0
                    3D
 Structure written by MMmdl.
172180  0  0  1  0            999 V2000
  -30.6437  -14.4701   20.5857 C   0  0  0  0  0  0
  -30.4408  -12.2996   19.4455 C   0  0  0  0  0  0
  -29.5175  -12.4945   18.2254 C   0  0  0  0  0  0
  -28.0327  -12.3624   18.6228 C   0  0  0  0  0  0
  -27.6712  -13.1899   19.8839 C   0  0  2  0  0  0
  -28.6971  -12.9336   21.0070 C   0  0  0  0  0  0
  -25.2575  -13.8060   20.5603 C   0  0  0  0  0  0
  -24.1819  -13.0350   20.9176 C   0  0  0  0  0  0
  -24.6411  -11.6856   20.8768 C   0  0  0  0  0  0
  -23.9076  -10.4252   21.0461 C   0  0  0  0  0  0
  -24.3648   -9.4170   21.9216 C   0  0  0  0  0  0
  -23.6310   -8.2221   22.0761 C   0  0  0  0  0  0
  -22.4269   -8.0296   21.3566 C   0  0  0  0  0  0
  -21.9945   -9.0272   20.4639 C   0  0  0  0  0  0
  -22.7284  -10.2148   20.3067 C   0  0  0  0  0  0
  -21.6860   -6.0773   22.5292 C   0  0  0  0  0  0
  -21.4027   -6.5667   23.8223 C   0  0  0  0  0  0
  -21.3623   -5.6809   24.9176 C   0  0  0  0  0  0
  -21.6043   -4.3065   24.7228 C   0  0  0  0  0  0
  -21.8793   -3.8184   23.4322 C   0  0  0  0  0  0
  -21.9188   -4.7011   22.3407 C   0  0  0  0  0  0
  -22.7841  -13.5200   21.1814 C   0  0  0  0  0  0
  -22.1644   -4.2193   21.0977 F   0  0  0  0  0  0
  -21.5616   -3.4530   25.7728 F   0  0  0  0  0  0
  -30.0420  -13.2574   20.4813 N   0  0  0  0  0  0
  -26.3046  -12.9258   20.3341 N   0  0  0  0  0  0
  -25.9327  -11.6439   20.5736 N   0  0  0  0  0  0
  -22.0466  -12.8246   22.0385 N   0  0  0  0  0  0
  -25.3967  -15.1757   20.3871 N   0  0  0  0  0  0
  -31.7414  -14.7435   20.0692 O   0  0  0  0  0  0
  -21.6598   -6.8910   21.4247 O   0  0  0  0  0  0
  -22.3549  -14.5457   20.6586 O   0  0  0  0  0  0
  -24.6075  -31.8739   23.2159 C   0  0  0  0  0  0
  -25.9018  -32.4848   23.8396 C   0  0  1  0  0  0
  -27.2152  -27.5158   20.0535 C   0  0  0  0  0  0
  -25.5935  -33.8689   24.2335 N   0  0  0  0  0  0
  -23.3903  -30.4979   21.5630 C   0  0  2  0  0  0
  -24.8310  -28.9833   20.1010 C   0  0  0  0  0  0
  -22.7424  -29.4566   22.5086 C   0  0  0  0  0  0
  -18.0392  -28.1364   22.8573 C   0  0  0  0  0  0
  -24.1478  -36.7326   23.2637 C   0  0  0  0  0  0
  -25.9163  -30.8593   21.3540 C   0  0  0  0  0  0
  -25.9880  -29.5071   20.6881 C   0  0  0  0  0  0
  -27.1944  -28.7880   20.6594 C   0  0  0  0  0  0
  -26.0496  -26.9769   19.4755 C   0  0  0  0  0  0
  -24.8524  -27.7148   19.4874 C   0  0  0  0  0  0
  -23.5895  -29.8467   20.1692 C   0  0  0  0  0  0
  -25.4148  -36.3141   24.0302 C   0  0  1  0  0  0
  -20.5975  -28.3589   23.1813 C   0  0  2  0  0  0
  -20.6362  -26.9183   22.6501 C   0  0  0  0  0  0
  -19.6349  -26.7434   21.5096 C   0  0  0  0  0  0
  -18.2257  -26.8153   22.1255 C   0  0  0  0  0  0
  -19.1621  -28.8805   23.3187 C   0  0  0  0  0  0
  -18.9554  -30.1457   23.9126 C   0  0  0  0  0  0
  -17.6582  -30.6632   24.0748 C   0  0  0  0  0  0
  -25.9136  -34.9497   23.5119 C   0  0  0  0  0  0
  -16.5507  -29.9026   23.6555 C   0  0  0  0  0  0
  -16.7364  -28.6457   23.0479 C   0  0  0  0  0  0
  -26.4512  -31.6651   25.0707 C   0  0  0  0  0  0
  -25.3803  -31.3701   26.1438 C   0  0  0  0  0  0
  -27.0267  -30.3053   24.6087 C   0  0  0  0  0  0
  -27.6108  -32.4379   25.7457 C   0  0  0  0  0  0
  -27.5581  -37.1835   24.8468 C   0  0  0  0  0  0
  -21.4134  -29.2656   22.3706 N   0  0  0  0  0  0
  -26.4323  -37.3807   23.9381 N   0  0  0  0  0  0
  -24.6564  -31.0872   22.1031 N   0  0  0  0  0  0
  -23.4249  -28.8323   23.3211 O   0  0  0  0  0  0
  -28.3488  -26.7669   20.1049 O   0  0  0  0  0  0
  -26.5601  -34.8981   22.4649 O   0  0  0  0  0  0
  -23.5318  -32.1477   23.7640 O   0  0  0  0  0  0
  -28.3849  -19.5818   22.6322 C   0  0  0  0  0  0
  -27.7960  -19.6125   21.3875 C   0  0  0  0  0  0
  -27.6907  -21.6509   22.2799 C   0  0  0  0  0  0
  -29.9542  -24.1676   23.1962 C   0  0  0  0  0  0
  -25.5315  -22.5059   20.1577 C   0  0  0  0  0  0
  -26.5019  -20.7233   18.7122 C   0  0  0  0  0  0
  -27.6893  -18.5400   20.3492 C   0  0  0  0  0  0
  -27.7373  -23.1359   22.4432 C   0  0  0  0  0  0
  -28.1243  -17.1106   20.7144 C   0  0  0  0  0  0
  -29.0343  -24.6615   20.8748 C   0  0  0  0  0  0
  -29.6257  -16.7751   20.5882 C   0  0  0  0  0  0
  -28.3465  -25.9569   21.2619 C   0  0  0  0  0  0
  -29.1289  -23.6363   22.0153 C   0  0  1  0  0  0
  -26.7789  -21.5975   19.9571 C   0  0  0  0  0  0
  -27.3376  -20.9202   21.1985 N   0  0  0  0  0  0
  -28.3183  -20.8441   23.1350 N   0  3  0  0  0  0
  -29.8452  -15.4166   21.1019 N   0  0  0  0  0  0
  -31.4889  -12.4178   19.1786 H   0  0  0  0  0  0
  -30.3508  -11.2890   19.8400 H   0  0  0  0  0  0
  -29.7708  -11.7691   17.4500 H   0  0  0  0  0  0
  -29.6862  -13.4780   17.7891 H   0  0  0  0  0  0
  -27.8369  -11.3066   18.8105 H   0  0  0  0  0  0
  -27.3908  -12.6360   17.7830 H   0  0  0  0  0  0
  -27.7207  -14.2347   19.5939 H   0  0  0  0  0  0
  -28.6670  -11.8836   21.3063 H   0  0  0  0  0  0
  -28.4369  -13.4899   21.9104 H   0  0  0  0  0  0
  -25.2818   -9.5622   22.4739 H   0  0  0  0  0  0
  -24.0006   -7.4604   22.7490 H   0  0  0  0  0  0
  -21.0864   -8.8834   19.8936 H   0  0  0  0  0  0
  -22.3803  -10.9698   19.6155 H   0  0  0  0  0  0
  -21.2032   -7.6164   23.9765 H   0  0  0  0  0  0
  -21.1461   -6.0509   25.9083 H   0  0  0  0  0  0
  -22.0610   -2.7636   23.2812 H   0  0  0  0  0  0
  -22.4126  -12.0024   22.4901 H   0  0  0  0  0  0
  -21.1073  -13.1254   22.2480 H   0  0  0  0  0  0
  -24.5691  -15.7628   20.3968 H   0  0  0  0  0  0
  -26.1762  -15.6021   19.9047 H   0  0  0  0  0  0
  -26.7092  -32.5523   23.1170 H   0  0  0  0  0  0
  -25.0019  -33.9845   25.0427 H   0  0  0  0  0  0
  -22.6793  -31.3173   21.4336 H   0  0  0  0  0  0
  -23.3714  -35.9671   23.3337 H   0  0  0  0  0  0
  -24.3558  -36.8910   22.2035 H   0  0  0  0  0  0
  -23.7221  -37.6563   23.6637 H   0  0  0  0  0  0
  -26.0376  -31.6324   20.5965 H   0  0  0  0  0  0
  -26.8105  -30.9012   21.9737 H   0  0  0  0  0  0
  -28.0982  -29.1884   21.0974 H   0  0  0  0  0  0
  -26.0543  -25.9862   19.0342 H   0  0  0  0  0  0
  -23.9686  -27.3067   19.0240 H   0  0  0  0  0  0
  -22.7085  -29.2774   19.8645 H   0  0  0  0  0  0
  -23.7075  -30.6316   19.4178 H   0  0  0  0  0  0
  -25.1317  -36.2036   25.0771 H   0  0  0  0  0  0
  -21.0047  -28.3285   24.1991 H   0  0  0  0  0  0
  -20.3047  -26.2657   23.4554 H   0  0  0  0  0  0
  -21.6481  -26.5835   22.4189 H   0  0  0  0  0  0
  -19.8075  -25.8112   20.9681 H   0  0  0  0  0  0
  -19.7791  -27.5461   20.7875 H   0  0  0  0  0  0
  -17.4766  -26.7066   21.3485 H   0  0  0  0  0  0
  -18.0792  -26.0062   22.8376 H   0  0  0  0  0  0
  -19.8128  -30.7084   24.2447 H   0  0  0  0  0  0
  -17.5081  -31.6309   24.5386 H   0  0  0  0  0  0
  -15.5571  -30.2905   23.7927 H   0  0  0  0  0  0
  -15.8735  -28.0864   22.7182 H   0  0  0  0  0  0
  -24.5997  -30.7060   25.7682 H   0  0  0  0  0  0
  -24.8981  -32.2822   26.4970 H   0  0  0  0  0  0
  -25.8200  -30.8759   27.0114 H   0  0  0  0  0  0
  -26.2696  -29.6838   24.1282 H   0  0  0  0  0  0
  -27.4050  -29.7326   25.4568 H   0  0  0  0  0  0
  -27.8568  -30.4207   23.9123 H   0  0  0  0  0  0
  -27.2724  -33.3672   26.2076 H   0  0  0  0  0  0
  -28.3904  -32.7018   25.0278 H   0  0  0  0  0  0
  -28.0812  -31.8480   26.5342 H   0  0  0  0  0  0
  -28.2671  -38.0064   24.7517 H   0  0  0  0  0  0
  -28.1005  -36.2625   24.6312 H   0  0  0  0  0  0
  -27.2297  -37.1498   25.8866 H   0  0  0  0  0  0
  -20.9242  -29.7769   21.6470 H   0  0  0  0  0  0
  -26.0217  -38.2903   24.1320 H   0  0  0  0  0  0
  -28.8763  -18.7965   23.1867 H   0  0  0  0  0  0
  -29.3913  -24.8853   23.7876 H   0  0  0  0  0  0
  -30.8464  -24.6820   22.8453 H   0  0  0  0  0  0
  -30.2650  -23.3672   23.8692 H   0  0  0  0  0  0
  -24.7551  -22.2880   19.4251 H   0  0  0  0  0  0
  -25.7949  -23.5494   19.9610 H   0  0  0  0  0  0
  -25.0459  -22.4403   21.1341 H   0  0  0  0  0  0
  -26.1285  -21.3491   17.9004 H   0  0  0  0  0  0
  -25.7376  -19.9695   18.8773 H   0  0  0  0  0  0
  -27.3931  -20.2526   18.3091 H   0  0  0  0  0  0
  -26.6276  -18.4873   20.1023 H   0  0  0  0  0  0
  -28.2686  -18.8538   19.4797 H   0  0  0  0  0  0
  -27.5095  -23.4075   23.4740 H   0  0  0  0  0  0
  -26.9465  -23.5831   21.8500 H   0  0  0  0  0  0
  -27.6319  -16.4845   19.9743 H   0  0  0  0  0  0
  -27.7238  -16.8020   21.6883 H   0  0  0  0  0  0
  -28.4929  -24.2432   20.0267 H   0  0  0  0  0  0
  -30.0320  -24.9125   20.5238 H   0  0  0  0  0  0
  -30.2093  -17.5059   21.1424 H   0  0  0  0  0  0
  -29.9378  -16.8413   19.5374 H   0  0  0  0  0  0
  -28.8845  -26.4577   22.0585 H   0  0  0  0  0  0
  -27.3339  -25.7598   21.6365 H   0  0  0  0  0  0
  -29.6854  -22.7804   21.6196 H   0  0  0  0  0  0
  -27.5873  -22.2474   19.6258 H   0  0  0  0  0  0
  -28.7711  -21.1615   23.9832 H   0  0  0  0  0  0
  -29.0729  -15.0544   21.6417 H   0  0  0  0  0  0
  1 25  1  0  0  0
  1 30  2  0  0  0
  1 87  1  0  0  0
  2  3  1  0  0  0
  2 25  1  0  0  0
  2 88  1  0  0  0
  2 89  1  0  0  0
  3  4  1  0  0  0
  3 90  1  0  0  0
  3 91  1  0  0  0
  4  5  1  0  0  0
  4 92  1  0  0  0
  4 93  1  0  0  0
  5  6  1  0  0  0
  5 26  1  0  0  0
  5 94  1  0  0  0
  6 25  1  0  0  0
  6 95  1  0  0  0
  6 96  1  0  0  0
  7  8  2  0  0  0
  7 26  1  0  0  0
  7 29  1  0  0  0
  8  9  1  0  0  0
  8 22  1  0  0  0
  9 10  1  0  0  0
  9 27  2  0  0  0
 10 11  2  0  0  0
 10 15  1  0  0  0
 11 12  1  0  0  0
 11 97  1  0  0  0
 12 13  2  0  0  0
 12 98  1  0  0  0
 13 14  1  0  0  0
 13 31  1  0  0  0
 14 15  2  0  0  0
 14 99  1  0  0  0
 15100  1  0  0  0
 16 17  2  0  0  0
 16 21  1  0  0  0
 16 31  1  0  0  0
 17 18  1  0  0  0
 17101  1  0  0  0
 18 19  2  0  0  0
 18102  1  0  0  0
 19 20  1  0  0  0
 19 24  1  0  0  0
 20 21  2  0  0  0
 20103  1  0  0  0
 21 23  1  0  0  0
 22 28  1  0  0  0
 22 32  2  0  0  0
 26 27  1  0  0  0
 28104  1  0  0  0
 28105  1  0  0  0
 29106  1  0  0  0
 29107  1  0  0  0
 33 34  1  0  0  0
 33 66  1  0  0  0
 33 70  2  0  0  0
 34 36  1  0  0  0
 34 59  1  0  0  0
 34108  1  0  0  0
 35 44  2  0  0  0
 35 45  1  0  0  0
 35 68  1  0  0  0
 36 56  1  0  0  0
 36109  1  0  0  0
 37 39  1  0  0  0
 37 47  1  0  0  0
 37 66  1  0  0  0
 37110  1  0  0  0
 38 43  2  0  0  0
 38 46  1  0  0  0
 38 47  1  0  0  0
 39 64  1  0  0  0
 39 67  2  0  0  0
 40 52  1  0  0  0
 40 53  2  0  0  0
 40 58  1  0  0  0
 41111  1  0  0  0
 41112  1  0  0  0
 41113  1  0  0  0
 41 48  1  0  0  0
 42 43  1  0  0  0
 42 66  1  0  0  0
 42114  1  0  0  0
 42115  1  0  0  0
 43 44  1  0  0  0
 44116  1  0  0  0
 45 46  2  0  0  0
 45117  1  0  0  0
 46118  1  0  0  0
 47119  1  0  0  0
 47120  1  0  0  0
 48 56  1  0  0  0
 48 65  1  0  0  0
 48121  1  0  0  0
 49 50  1  0  0  0
 49 53  1  0  0  0
 49 64  1  0  0  0
 49122  1  0  0  0
 50 51  1  0  0  0
 50123  1  0  0  0
 50124  1  0  0  0
 51 52  1  0  0  0
 51125  1  0  0  0
 51126  1  0  0  0
 52127  1  0  0  0
 52128  1  0  0  0
 53 54  1  0  0  0
 54 55  2  0  0  0
 54129  1  0  0  0
 55 57  1  0  0  0
 55130  1  0  0  0
 56 69  2  0  0  0
 57 58  2  0  0  0
 57131  1  0  0  0
 58132  1  0  0  0
 59 60  1  0  0  0
 59 61  1  0  0  0
 59 62  1  0  0  0
 60133  1  0  0  0
 60134  1  0  0  0
 60135  1  0  0  0
 61136  1  0  0  0
 61137  1  0  0  0
 61138  1  0  0  0
 62139  1  0  0  0
 62140  1  0  0  0
 62141  1  0  0  0
 63 65  1  0  0  0
 63142  1  0  0  0
 63143  1  0  0  0
 63144  1  0  0  0
 64145  1  0  0  0
 65146  1  0  0  0
 68 82  1  0  0  0
 71 72  2  0  0  0
 71 86  1  0  0  0
 71147  1  0  0  0
 72 77  1  0  0  0
 72 85  1  0  0  0
 73 78  1  0  0  0
 73 85  1  0  0  0
 73 86  2  0  0  0
 74148  1  0  0  0
 74149  1  0  0  0
 74150  1  0  0  0
 74 83  1  0  0  0
 75151  1  0  0  0
 75152  1  0  0  0
 75153  1  0  0  0
 75 84  1  0  0  0
 76 84  1  0  0  0
 76154  1  0  0  0
 76155  1  0  0  0
 76156  1  0  0  0
 77 79  1  0  0  0
 77157  1  0  0  0
 77158  1  0  0  0
 78 83  1  0  0  0
 78159  1  0  0  0
 78160  1  0  0  0
 79 81  1  0  0  0
 79161  1  0  0  0
 79162  1  0  0  0
 80 82  1  0  0  0
 80 83  1  0  0  0
 80163  1  0  0  0
 80164  1  0  0  0
 81 87  1  0  0  0
 81165  1  0  0  0
 81166  1  0  0  0
 82167  1  0  0  0
 82168  1  0  0  0
 83169  1  0  0  0
 84 85  1  0  0  0
 84170  1  0  0  0
 86171  1  0  0  0
 87172  1  0  0  0
M  CHG  1  86   1
M  ISO  4   1 100  68 101  82 101  87 100
M  END
> <chiral flag>
0

> <version>
0

> <s_m_source_file>
/data/baiqing/PycharmProjects/Reinvent-master-3.2/result/LINK_invent/BTK/process_docking_weight1_custom_sum_contain_oxygen_bond_distance_aromatic_linkinvent_7_9_3/rearranged_h_0090.sdf

> <i_m_source_file_index>
1

> <r_mmod_Potential_Energy-OPLS-2005>
58.7602577209473

> <r_mmod_Stretch_Energy-OPLS-2005>
40.6582641601562

> <r_mmod_Bend_Energy-OPLS-2005>
126.022796630859

> <r_mmod_Torsional_Energy-OPLS-2005>
312.9541015625

> <r_mmod_Improper_Torsional_Energy-OPLS-2005>
12.2604885101318

> <r_mmod_Van_der_Waal_Energy-OPLS-2005>
151.146743774414

> <r_mmod_Electrostatic_Energy-OPLS-2005>
-187.825180053711

> <r_mmod_Solvation_Energy-OPLS-2005>
-415.491241455078

> <b_mmod_Minimization_Converged-OPLS-2005>
0

> <r_mmod_RMS_Derivative-OPLS-2005>
15.1571264266968

$$$$
1
                    3D
 Structure written by MMmdl.
168176  0  0  1  0            999 V2000
  -30.6581  -14.5619   20.5365 C   0  0  0  0  0  0
  -30.4297  -12.3528   19.4324 C   0  0  0  0  0  0
  -29.4992  -12.5031   18.2100 C   0  0  0  0  0  0
  -28.0217  -12.3518   18.6233 C   0  0  0  0  0  0
  -27.6563  -13.2111   19.8636 C   0  0  2  0  0  0
  -28.6997  -13.0308   20.9886 C   0  0  0  0  0  0
  -25.2569  -13.8167   20.5671 C   0  0  0  0  0  0
  -24.1828  -13.0436   20.9175 C   0  0  0  0  0  0
  -24.6392  -11.6905   20.8717 C   0  0  0  0  0  0
  -23.9061  -10.4288   21.0394 C   0  0  0  0  0  0
  -24.3616   -9.4208   21.9176 C   0  0  0  0  0  0
  -23.6297   -8.2238   22.0748 C   0  0  0  0  0  0
  -22.4274   -8.0272   21.3544 C   0  0  0  0  0  0
  -21.9908   -9.0241   20.4641 C   0  0  0  0  0  0
  -22.7233  -10.2123   20.3049 C   0  0  0  0  0  0
  -21.6862   -6.0734   22.5284 C   0  0  0  0  0  0
  -21.4016   -6.5641   23.8217 C   0  0  0  0  0  0
  -21.3655   -5.6792   24.9178 C   0  0  0  0  0  0
  -21.6048   -4.3055   24.7234 C   0  0  0  0  0  0
  -21.8819   -3.8147   23.4355 C   0  0  0  0  0  0
  -21.9196   -4.6960   22.3410 C   0  0  0  0  0  0
  -22.7850  -13.5217   21.1859 C   0  0  0  0  0  0
  -22.1659   -4.2147   21.0985 F   0  0  0  0  0  0
  -21.5628   -3.4535   25.7743 F   0  0  0  0  0  0
  -30.0221  -13.3580   20.4293 N   0  0  0  0  0  0
  -26.2997  -12.9343   20.3308 N   0  0  0  0  0  0
  -25.9321  -11.6502   20.5737 N   0  0  0  0  0  0
  -22.0503  -12.8192   22.0414 N   0  0  0  0  0  0
  -25.4302  -15.1890   20.4080 N   0  0  0  0  0  0
  -31.8036  -14.7446   20.1159 O   0  0  0  0  0  0
  -21.6647   -6.8866   21.4240 O   0  0  0  0  0  0
  -22.3522  -14.5527   20.6720 O   0  0  0  0  0  0
  -24.6205  -31.8677   23.2046 C   0  0  0  0  0  0
  -25.9071  -32.4827   23.8377 C   0  0  1  0  0  0
  -27.2230  -27.3724   20.1085 C   0  0  0  0  0  0
  -25.5912  -33.8627   24.2299 N   0  0  0  0  0  0
  -23.4114  -30.4888   21.5516 C   0  0  2  0  0  0
  -24.8555  -28.9506   20.1155 C   0  0  0  0  0  0
  -22.7468  -29.4638   22.5006 C   0  0  0  0  0  0
  -18.0286  -28.1385   22.8494 C   0  0  0  0  0  0
  -24.1492  -36.7302   23.2639 C   0  0  0  0  0  0
  -25.9481  -30.8115   21.3687 C   0  0  0  0  0  0
  -26.0228  -29.4425   20.7151 C   0  0  0  0  0  0
  -27.2104  -28.6624   20.7057 C   0  0  0  0  0  0
  -26.0381  -26.9221   19.4845 C   0  0  0  0  0  0
  -24.8624  -27.6924   19.4954 C   0  0  0  0  0  0
  -23.6219  -29.8253   20.1662 C   0  0  0  0  0  0
  -25.4117  -36.3116   24.0340 C   0  0  1  0  0  0
  -20.5886  -28.3679   23.1324 C   0  0  2  0  0  0
  -20.6792  -26.9416   22.5428 C   0  0  0  0  0  0
  -19.5744  -26.6385   21.5253 C   0  0  0  0  0  0
  -18.1918  -26.7927   22.1650 C   0  0  0  0  0  0
  -19.1538  -28.8853   23.2893 C   0  0  0  0  0  0
  -18.9470  -30.1467   23.8889 C   0  0  0  0  0  0
  -17.6469  -30.6588   24.0575 C   0  0  0  0  0  0
  -25.9053  -34.9488   23.5119 C   0  0  0  0  0  0
  -16.5361  -29.9093   23.6332 C   0  0  0  0  0  0
  -16.7276  -28.6524   23.0327 C   0  0  0  0  0  0
  -26.4454  -31.6611   25.0723 C   0  0  0  0  0  0
  -25.3689  -31.3746   26.1456 C   0  0  0  0  0  0
  -27.0292  -30.3056   24.6103 C   0  0  0  0  0  0
  -27.6028  -32.4345   25.7473 C   0  0  0  0  0  0
  -27.5581  -37.1809   24.8470 C   0  0  0  0  0  0
  -21.4193  -29.3028   22.3739 N   0  0  0  0  0  0
  -26.4300  -37.3805   23.9410 N   0  0  0  0  0  0
  -24.6795  -31.0710   22.0993 N   0  0  0  0  0  0
  -23.4234  -28.8191   23.3063 O   0  0  0  0  0  0
  -28.3592  -26.5705   20.1216 O   0  0  0  0  0  0
  -26.5623  -34.8953   22.4680 O   0  0  0  0  0  0
  -23.5377  -32.1462   23.7382 O   0  0  0  0  0  0
  -28.0908  -20.0450   19.9772 C   0  0  0  0  0  0
  -29.3531  -19.4335   20.2363 C   0  0  0  0  0  0
  -30.0984  -20.5024   20.7045 C   0  0  0  0  0  0
  -33.0203  -22.4530   20.3836 C   0  0  0  0  0  0
  -33.8489  -20.1086   20.2313 C   0  0  0  0  0  0
  -32.0887  -20.9078   18.6499 C   0  0  0  0  0  0
  -29.6719  -17.9444   19.9452 C   0  0  0  0  0  0
  -31.5341  -20.5285   21.1532 C   0  0  0  0  0  0
  -29.4190  -24.2528   20.3348 C   0  0  0  0  0  0
  -29.5024  -23.0015   21.2857 C   0  0  0  0  0  0
  -30.2128  -17.0438   21.1075 C   0  0  0  0  0  0
  -28.1629  -25.1687   20.4895 C   0  0  0  0  0  0
  -32.5960  -20.9967   20.1055 C   0  0  0  0  0  0
  -28.0463  -21.3396   20.2667 N   0  0  0  0  0  0
  -29.2787  -21.6468   20.7196 N   0  0  0  0  0  0
  -29.8961  -15.5906   20.9812 N   0  0  0  0  0  0
  -31.4725  -12.4664   19.1303 H   0  0  0  0  0  0
  -30.3452  -11.3505   19.8550 H   0  0  0  0  0  0
  -29.7531  -11.7634   17.4492 H   0  0  0  0  0  0
  -29.6482  -13.4809   17.7497 H   0  0  0  0  0  0
  -27.8444  -11.2966   18.8367 H   0  0  0  0  0  0
  -27.3698  -12.6044   17.7863 H   0  0  0  0  0  0
  -27.6858  -14.2527   19.5416 H   0  0  0  0  0  0
  -28.6959  -12.0007   21.3472 H   0  0  0  0  0  0
  -28.4523  -13.6461   21.8546 H   0  0  0  0  0  0
  -25.2765   -9.5693   22.4737 H   0  0  0  0  0  0
  -24.0024   -7.4629   22.7458 H   0  0  0  0  0  0
  -21.0846   -8.8755   19.8934 H   0  0  0  0  0  0
  -22.3695  -10.9659   19.6148 H   0  0  0  0  0  0
  -21.2002   -7.6148   23.9723 H   0  0  0  0  0  0
  -21.1478   -6.0518   25.9082 H   0  0  0  0  0  0
  -22.0602   -2.7610   23.2863 H   0  0  0  0  0  0
  -22.4140  -11.9857   22.4796 H   0  0  0  0  0  0
  -21.1112  -13.1186   22.2626 H   0  0  0  0  0  0
  -24.6660  -15.8461   20.5205 H   0  0  0  0  0  0
  -26.2819  -15.6266   20.0806 H   0  0  0  0  0  0
  -26.7157  -32.5528   23.1161 H   0  0  0  0  0  0
  -25.0101  -33.9794   25.0468 H   0  0  0  0  0  0
  -22.7028  -31.3078   21.4137 H   0  0  0  0  0  0
  -23.3772  -35.9617   23.3317 H   0  0  0  0  0  0
  -24.3574  -36.8900   22.2049 H   0  0  0  0  0  0
  -23.7233  -37.6504   23.6645 H   0  0  0  0  0  0
  -26.0676  -31.5721   20.5956 H   0  0  0  0  0  0
  -26.8330  -30.8679   21.9912 H   0  0  0  0  0  0
  -28.1093  -29.0293   21.1814 H   0  0  0  0  0  0
  -25.9999  -25.9711   18.9747 H   0  0  0  0  0  0
  -23.9684  -27.3098   19.0217 H   0  0  0  0  0  0
  -23.7435  -30.6050   19.4141 H   0  0  0  0  0  0
  -22.7403  -29.2568   19.8619 H   0  0  0  0  0  0
  -25.1294  -36.1991   25.0838 H   0  0  0  0  0  0
  -20.9960  -28.3248   24.1453 H   0  0  0  0  0  0
  -20.5762  -26.2280   23.3619 H   0  0  0  0  0  0
  -21.6656  -26.7498   22.1175 H   0  0  0  0  0  0
  -19.6914  -25.6309   21.1245 H   0  0  0  0  0  0
  -19.6666  -27.3244   20.6824 H   0  0  0  0  0  0
  -17.4205  -26.6712   21.4026 H   0  0  0  0  0  0
  -18.0277  -26.0055   22.9029 H   0  0  0  0  0  0
  -19.7951  -30.7290   24.2231 H   0  0  0  0  0  0
  -17.5027  -31.6258   24.5203 H   0  0  0  0  0  0
  -15.5357  -30.2995   23.7659 H   0  0  0  0  0  0
  -15.8678  -28.0868   22.6995 H   0  0  0  0  0  0
  -24.5856  -30.7106   25.7791 H   0  0  0  0  0  0
  -24.8880  -32.2917   26.4878 H   0  0  0  0  0  0
  -25.7996  -30.8924   27.0241 H   0  0  0  0  0  0
  -26.2850  -29.6833   24.1116 H   0  0  0  0  0  0
  -27.4057  -29.7280   25.4552 H   0  0  0  0  0  0
  -27.8682  -30.4400   23.9266 H   0  0  0  0  0  0
  -27.2646  -33.3661   26.2030 H   0  0  0  0  0  0
  -28.3810  -32.6902   25.0269 H   0  0  0  0  0  0
  -28.0715  -31.8485   26.5388 H   0  0  0  0  0  0
  -28.2623  -38.0086   24.7530 H   0  0  0  0  0  0
  -28.1057  -36.2628   24.6291 H   0  0  0  0  0  0
  -27.2292  -37.1457   25.8871 H   0  0  0  0  0  0
  -20.9382  -29.8760   21.6955 H   0  0  0  0  0  0
  -26.0191  -38.2888   24.1414 H   0  0  0  0  0  0
  -27.2005  -19.5747   19.5842 H   0  0  0  0  0  0
  -33.8143  -22.7737   19.7070 H   0  0  0  0  0  0
  -33.3937  -22.5787   21.4006 H   0  0  0  0  0  0
  -32.1938  -23.1488   20.2498 H   0  0  0  0  0  0
  -34.6189  -20.3957   19.5141 H   0  0  0  0  0  0
  -33.6142  -19.0576   20.0552 H   0  0  0  0  0  0
  -34.2922  -20.1858   21.2246 H   0  0  0  0  0  0
  -32.8666  -21.1984   17.9424 H   0  0  0  0  0  0
  -31.2371  -21.5658   18.4721 H   0  0  0  0  0  0
  -31.7861  -19.8914   18.3957 H   0  0  0  0  0  0
  -30.3739  -17.8721   19.1132 H   0  0  0  0  0  0
  -28.7666  -17.4689   19.5651 H   0  0  0  0  0  0
  -31.7777  -19.5129   21.4632 H   0  0  0  0  0  0
  -31.6282  -21.0961   22.0794 H   0  0  0  0  0  0
  -29.5546  -23.9573   19.2936 H   0  0  0  0  0  0
  -30.2809  -24.8776   20.5686 H   0  0  0  0  0  0
  -28.8104  -23.1277   22.1191 H   0  0  0  0  0  0
  -30.4827  -23.0068   21.7578 H   0  0  0  0  0  0
  -29.7551  -17.3730   22.0397 H   0  0  0  0  0  0
  -31.2874  -17.1922   21.2277 H   0  0  0  0  0  0
  -27.3636  -24.6908   19.9258 H   0  0  0  0  0  0
  -27.8388  -25.1562   21.5309 H   0  0  0  0  0  0
  -28.9779  -15.3156   21.2983 H   0  0  0  0  0  0
  1 25  1  0  0  0
  1 30  2  0  0  0
  1 86  1  0  0  0
  2  3  1  0  0  0
  2 25  1  0  0  0
  2 87  1  0  0  0
  2 88  1  0  0  0
  3  4  1  0  0  0
  3 89  1  0  0  0
  3 90  1  0  0  0
  4  5  1  0  0  0
  4 91  1  0  0  0
  4 92  1  0  0  0
  5  6  1  0  0  0
  5 26  1  0  0  0
  5 93  1  0  0  0
  6 25  1  0  0  0
  6 94  1  0  0  0
  6 95  1  0  0  0
  7  8  2  0  0  0
  7 26  1  0  0  0
  7 29  1  0  0  0
  8  9  1  0  0  0
  8 22  1  0  0  0
  9 10  1  0  0  0
  9 27  2  0  0  0
 10 11  2  0  0  0
 10 15  1  0  0  0
 11 12  1  0  0  0
 11 96  1  0  0  0
 12 13  2  0  0  0
 12 97  1  0  0  0
 13 14  1  0  0  0
 13 31  1  0  0  0
 14 15  2  0  0  0
 14 98  1  0  0  0
 15 99  1  0  0  0
 16 17  2  0  0  0
 16 21  1  0  0  0
 16 31  1  0  0  0
 17 18  1  0  0  0
 17100  1  0  0  0
 18 19  2  0  0  0
 18101  1  0  0  0
 19 20  1  0  0  0
 19 24  1  0  0  0
 20 21  2  0  0  0
 20102  1  0  0  0
 21 23  1  0  0  0
 22 28  1  0  0  0
 22 32  2  0  0  0
 26 27  1  0  0  0
 28103  1  0  0  0
 28104  1  0  0  0
 29105  1  0  0  0
 29106  1  0  0  0
 33 34  1  0  0  0
 33 66  1  0  0  0
 33 70  2  0  0  0
 34 36  1  0  0  0
 34 59  1  0  0  0
 34107  1  0  0  0
 35 44  2  0  0  0
 35 45  1  0  0  0
 35 68  1  0  0  0
 36 56  1  0  0  0
 36108  1  0  0  0
 37 39  1  0  0  0
 37 47  1  0  0  0
 37 66  1  0  0  0
 37109  1  0  0  0
 38 43  2  0  0  0
 38 46  1  0  0  0
 38 47  1  0  0  0
 39 64  1  0  0  0
 39 67  2  0  0  0
 40 52  1  0  0  0
 40 53  2  0  0  0
 40 58  1  0  0  0
 41110  1  0  0  0
 41111  1  0  0  0
 41112  1  0  0  0
 41 48  1  0  0  0
 42 43  1  0  0  0
 42 66  1  0  0  0
 42113  1  0  0  0
 42114  1  0  0  0
 43 44  1  0  0  0
 44115  1  0  0  0
 45 46  2  0  0  0
 45116  1  0  0  0
 46117  1  0  0  0
 47118  1  0  0  0
 47119  1  0  0  0
 48 56  1  0  0  0
 48 65  1  0  0  0
 48120  1  0  0  0
 49 50  1  0  0  0
 49 53  1  0  0  0
 49 64  1  0  0  0
 49121  1  0  0  0
 50 51  1  0  0  0
 50122  1  0  0  0
 50123  1  0  0  0
 51 52  1  0  0  0
 51124  1  0  0  0
 51125  1  0  0  0
 52126  1  0  0  0
 52127  1  0  0  0
 53 54  1  0  0  0
 54 55  2  0  0  0
 54128  1  0  0  0
 55 57  1  0  0  0
 55129  1  0  0  0
 56 69  2  0  0  0
 57 58  2  0  0  0
 57130  1  0  0  0
 58131  1  0  0  0
 59 60  1  0  0  0
 59 61  1  0  0  0
 59 62  1  0  0  0
 60132  1  0  0  0
 60133  1  0  0  0
 60134  1  0  0  0
 61135  1  0  0  0
 61136  1  0  0  0
 61137  1  0  0  0
 62138  1  0  0  0
 62139  1  0  0  0
 62140  1  0  0  0
 63 65  1  0  0  0
 63141  1  0  0  0
 63142  1  0  0  0
 63143  1  0  0  0
 64144  1  0  0  0
 65145  1  0  0  0
 68 82  1  0  0  0
 71 72  1  0  0  0
 71 84  2  0  0  0
 71146  1  0  0  0
 72 73  2  0  0  0
 72 77  1  0  0  0
 73 78  1  0  0  0
 73 85  1  0  0  0
 74147  1  0  0  0
 74148  1  0  0  0
 74149  1  0  0  0
 74 83  1  0  0  0
 75 83  1  0  0  0
 75150  1  0  0  0
 75151  1  0  0  0
 75152  1  0  0  0
 76 83  1  0  0  0
 76153  1  0  0  0
 76154  1  0  0  0
 76155  1  0  0  0
 77 81  1  0  0  0
 77156  1  0  0  0
 77157  1  0  0  0
 78 83  1  0  0  0
 78158  1  0  0  0
 78159  1  0  0  0
 79 80  1  0  0  0
 79 82  1  0  0  0
 79160  1  0  0  0
 79161  1  0  0  0
 80 85  1  0  0  0
 80162  1  0  0  0
 80163  1  0  0  0
 81 86  1  0  0  0
 81164  1  0  0  0
 81165  1  0  0  0
 82166  1  0  0  0
 82167  1  0  0  0
 84 85  1  0  0  0
 86168  1  0  0  0
M  ISO  4   1 100  68 101  82 101  86 100
M  END
> <chiral flag>
0

> <version>
0

> <s_m_source_file>
/data/baiqing/PycharmProjects/Reinvent-master-3.2/result/LINK_invent/BTK/process_docking_weight1_custom_sum_contain_oxygen_bond_distance_aromatic_linkinvent_7_9_3/rearranged_h_0090.sdf

> <i_m_source_file_index>
2

> <r_mmod_Potential_Energy-OPLS-2005>
-39.0094871520996

> <r_mmod_Stretch_Energy-OPLS-2005>
54.7804679870605

> <r_mmod_Bend_Energy-OPLS-2005>
126.799194335938

> <r_mmod_Torsional_Energy-OPLS-2005>
239.942916870117

> <r_mmod_Improper_Torsional_Energy-OPLS-2005>
4.20464658737183

> <r_mmod_Van_der_Waal_Energy-OPLS-2005>
119.292663574219

> <r_mmod_Electrostatic_Energy-OPLS-2005>
-396.306854248047

> <r_mmod_Solvation_Energy-OPLS-2005>
-215.058059692383

> <b_mmod_Minimization_Converged-OPLS-2005>
0

> <r_mmod_RMS_Derivative-OPLS-2005>
2.1250205039978

$$$$
2
                    3D
 Structure written by MMmdl.
174182  0  0  1  0            999 V2000
  -30.7239  -14.3757   20.7241 C   0  0  0  0  0  0
  -30.4282  -12.3011   19.4024 C   0  0  0  0  0  0
  -29.4904  -12.5359   18.1990 C   0  0  0  0  0  0
  -28.0126  -12.3768   18.6099 C   0  0  0  0  0  0
  -27.6659  -13.1979   19.8803 C   0  0  2  0  0  0
  -28.6962  -12.9087   20.9955 C   0  0  0  0  0  0
  -25.2587  -13.8167   20.5636 C   0  0  0  0  0  0
  -24.1817  -13.0435   20.9118 C   0  0  0  0  0  0
  -24.6350  -11.6909   20.8661 C   0  0  0  0  0  0
  -23.9005  -10.4306   21.0376 C   0  0  0  0  0  0
  -24.3564   -9.4244   21.9166 C   0  0  0  0  0  0
  -23.6266   -8.2267   22.0746 C   0  0  0  0  0  0
  -22.4263   -8.0272   21.3510 C   0  0  0  0  0  0
  -21.9874   -9.0238   20.4621 C   0  0  0  0  0  0
  -22.7183  -10.2135   20.3015 C   0  0  0  0  0  0
  -21.6852   -6.0725   22.5280 C   0  0  0  0  0  0
  -21.3999   -6.5627   23.8208 C   0  0  0  0  0  0
  -21.3650   -5.6779   24.9173 C   0  0  0  0  0  0
  -21.6045   -4.3031   24.7228 C   0  0  0  0  0  0
  -21.8809   -3.8119   23.4354 C   0  0  0  0  0  0
  -21.9174   -4.6945   22.3409 C   0  0  0  0  0  0
  -22.7858  -13.5229   21.1835 C   0  0  0  0  0  0
  -22.1664   -4.2133   21.0991 F   0  0  0  0  0  0
  -21.5632   -3.4518   25.7755 F   0  0  0  0  0  0
  -30.0483  -13.2202   20.4871 N   0  0  0  0  0  0
  -26.3012  -12.9291   20.3337 N   0  0  0  0  0  0
  -25.9272  -11.6461   20.5680 N   0  0  0  0  0  0
  -22.0513  -12.8226   22.0415 N   0  0  0  0  0  0
  -25.4322  -15.1880   20.4096 N   0  0  0  0  0  0
  -31.7084  -14.7366   20.0704 O   0  0  0  0  0  0
  -21.6618   -6.8874   21.4236 O   0  0  0  0  0  0
  -22.3540  -14.5549   20.6737 O   0  0  0  0  0  0
  -24.6122  -31.8750   23.2124 C   0  0  0  0  0  0
  -25.9004  -32.4901   23.8455 C   0  0  1  0  0  0
  -27.2542  -27.4604   20.1319 C   0  0  0  0  0  0
  -25.5908  -33.8691   24.2419 N   0  0  0  0  0  0
  -23.4017  -30.4966   21.5459 C   0  0  2  0  0  0
  -24.8611  -28.9699   20.1126 C   0  0  0  0  0  0
  -22.7414  -29.4711   22.4972 C   0  0  0  0  0  0
  -18.0262  -28.1392   22.8531 C   0  0  0  0  0  0
  -24.1463  -36.7312   23.2639 C   0  0  0  0  0  0
  -25.9239  -30.8566   21.3549 C   0  0  0  0  0  0
  -26.0108  -29.4850   20.7229 C   0  0  0  0  0  0
  -27.2069  -28.7335   20.7436 C   0  0  0  0  0  0
  -26.0992  -26.9698   19.4884 C   0  0  0  0  0  0
  -24.9014  -27.7087   19.4919 C   0  0  0  0  0  0
  -23.6127  -29.8218   20.1630 C   0  0  0  0  0  0
  -25.4083  -36.3178   24.0382 C   0  0  1  0  0  0
  -20.5843  -28.3675   23.1342 C   0  0  2  0  0  0
  -20.6774  -26.9411   22.5437 C   0  0  0  0  0  0
  -19.5726  -26.6379   21.5279 C   0  0  0  0  0  0
  -18.1891  -26.7939   22.1652 C   0  0  0  0  0  0
  -19.1513  -28.8844   23.2941 C   0  0  0  0  0  0
  -18.9443  -30.1443   23.8961 C   0  0  0  0  0  0
  -17.6453  -30.6613   24.0543 C   0  0  0  0  0  0
  -25.9010  -34.9537   23.5188 C   0  0  0  0  0  0
  -16.5337  -29.9106   23.6337 C   0  0  0  0  0  0
  -16.7256  -28.6502   23.0405 C   0  0  0  0  0  0
  -26.4431  -31.6678   25.0771 C   0  0  0  0  0  0
  -25.3696  -31.3738   26.1515 C   0  0  0  0  0  0
  -27.0281  -30.3170   24.6061 C   0  0  0  0  0  0
  -27.6009  -32.4412   25.7550 C   0  0  0  0  0  0
  -27.5563  -37.1810   24.8478 C   0  0  0  0  0  0
  -21.4139  -29.3062   22.3749 N   0  0  0  0  0  0
  -26.4280  -37.3856   23.9446 N   0  0  0  0  0  0
  -24.6638  -31.0912   22.0981 N   0  0  0  0  0  0
  -23.4206  -28.8234   23.2985 O   0  0  0  0  0  0
  -28.3768  -26.6616   20.1159 O   0  0  0  0  0  0
  -26.5522  -34.8972   22.4708 O   0  0  0  0  0  0
  -23.5307  -32.1442   23.7532 O   0  0  0  0  0  0
  -30.8273  -19.7286   23.0723 C   0  0  0  0  0  0
  -30.7950  -20.9295   22.4079 C   0  0  0  0  0  0
  -31.1736  -20.5859   21.0770 C   0  0  0  0  0  0
  -30.3393  -21.0894   18.7541 C   0  0  0  0  0  0
  -32.7560  -21.6409   19.4238 C   0  0  0  0  0  0
  -27.2552  -24.4174   21.9805 C   0  0  0  0  0  0
  -28.7320  -24.7422   23.9611 C   0  0  0  0  0  0
  -30.4474  -22.3169   22.9117 C   0  0  0  0  0  0
  -29.0727  -22.7798   22.3748 C   0  0  0  0  0  0
  -29.6491  -25.1732   21.6094 C   0  0  0  0  0  0
  -31.3549  -17.3104   22.3351 C   0  0  0  0  0  0
  -30.1248  -16.5726   21.7647 C   0  0  0  0  0  0
  -29.1950  -26.6241   21.2945 C   0  0  0  0  0  0
  -31.2976  -21.5049   19.8835 C   0  0  0  0  0  0
  -28.7027  -24.2910   22.4858 C   0  0  0  0  0  0
  -31.4307  -19.2896   20.9461 N   0  0  0  0  0  0
  -31.2064  -18.7559   22.1638 N   0  0  0  0  0  0
  -30.2123  -15.1093   21.7247 N   0  0  0  0  0  0
  -31.4700  -12.4303   19.0995 H   0  0  0  0  0  0
  -30.3422  -11.2694   19.7482 H   0  0  0  0  0  0
  -29.7306  -11.8408   17.3923 H   0  0  0  0  0  0
  -29.6503  -13.5359   17.7943 H   0  0  0  0  0  0
  -27.8248  -11.3159   18.7879 H   0  0  0  0  0  0
  -27.3566  -12.6595   17.7852 H   0  0  0  0  0  0
  -27.7287  -14.2539   19.6158 H   0  0  0  0  0  0
  -28.6580  -11.8522   21.2620 H   0  0  0  0  0  0
  -28.4194  -13.4346   21.9092 H   0  0  0  0  0  0
  -25.2713   -9.5767   22.4712 H   0  0  0  0  0  0
  -23.9979   -7.4672   22.7474 H   0  0  0  0  0  0
  -21.0776   -8.8715   19.8949 H   0  0  0  0  0  0
  -22.3584  -10.9640   19.6105 H   0  0  0  0  0  0
  -21.1995   -7.6129   23.9702 H   0  0  0  0  0  0
  -21.1482   -6.0519   25.9079 H   0  0  0  0  0  0
  -22.0582   -2.7572   23.2855 H   0  0  0  0  0  0
  -22.4094  -11.9878   22.4806 H   0  0  0  0  0  0
  -21.1131  -13.1283   22.2630 H   0  0  0  0  0  0
  -24.6680  -15.8500   20.5018 H   0  0  0  0  0  0
  -26.3017  -15.6223   20.1285 H   0  0  0  0  0  0
  -26.7087  -32.5677   23.1265 H   0  0  0  0  0  0
  -25.0246  -33.9862   25.0685 H   0  0  0  0  0  0
  -22.6893  -31.3113   21.3981 H   0  0  0  0  0  0
  -23.3789  -35.9573   23.3325 H   0  0  0  0  0  0
  -24.3537  -36.8892   22.2042 H   0  0  0  0  0  0
  -23.7143  -37.6502   23.6606 H   0  0  0  0  0  0
  -25.9995  -31.6030   20.5624 H   0  0  0  0  0  0
  -26.8233  -30.9453   21.9514 H   0  0  0  0  0  0
  -28.0880  -29.1335   21.2257 H   0  0  0  0  0  0
  -26.1242  -26.0020   19.0071 H   0  0  0  0  0  0
  -24.0206  -27.3094   19.0154 H   0  0  0  0  0  0
  -23.6959  -30.5888   19.3918 H   0  0  0  0  0  0
  -22.7452  -29.2195   19.8845 H   0  0  0  0  0  0
  -25.1227  -36.2084   25.0877 H   0  0  0  0  0  0
  -20.9924  -28.3233   24.1465 H   0  0  0  0  0  0
  -20.5798  -26.2266   23.3615 H   0  0  0  0  0  0
  -21.6614  -26.7536   22.1122 H   0  0  0  0  0  0
  -19.6894  -25.6308   21.1277 H   0  0  0  0  0  0
  -19.6666  -27.3209   20.6822 H   0  0  0  0  0  0
  -17.4189  -26.6804   21.4011 H   0  0  0  0  0  0
  -18.0190  -26.0061   22.9008 H   0  0  0  0  0  0
  -19.7917  -30.7236   24.2383 H   0  0  0  0  0  0
  -17.5003  -31.6308   24.5106 H   0  0  0  0  0  0
  -15.5335  -30.3008   23.7658 H   0  0  0  0  0  0
  -15.8654  -28.0813   22.7150 H   0  0  0  0  0  0
  -24.5861  -30.7114   25.7841 H   0  0  0  0  0  0
  -24.8867  -32.2856   26.5029 H   0  0  0  0  0  0
  -25.8009  -30.8866   27.0261 H   0  0  0  0  0  0
  -26.2811  -29.6978   24.1084 H   0  0  0  0  0  0
  -27.4095  -29.7375   25.4475 H   0  0  0  0  0  0
  -27.8607  -30.4601   23.9173 H   0  0  0  0  0  0
  -27.2638  -33.3726   26.2112 H   0  0  0  0  0  0
  -28.3822  -32.6981   25.0392 H   0  0  0  0  0  0
  -28.0664  -31.8570   26.5494 H   0  0  0  0  0  0
  -28.2599  -38.0093   24.7556 H   0  0  0  0  0  0
  -28.1054  -36.2637   24.6277 H   0  0  0  0  0  0
  -27.2269  -37.1414   25.8875 H   0  0  0  0  0  0
  -20.9302  -29.8821   21.6989 H   0  0  0  0  0  0
  -26.0214  -38.2960   24.1439 H   0  0  0  0  0  0
  -30.6080  -19.4821   24.1030 H   0  0  0  0  0  0
  -29.3108  -21.0475   19.1183 H   0  0  0  0  0  0
  -30.5921  -20.1020   18.3672 H   0  0  0  0  0  0
  -30.3686  -21.7988   17.9259 H   0  0  0  0  0  0
  -33.3655  -22.0698   20.2204 H   0  0  0  0  0  0
  -32.8397  -22.2956   18.5559 H   0  0  0  0  0  0
  -33.1805  -20.6727   19.1639 H   0  0  0  0  0  0
  -26.5920  -23.7160   22.4904 H   0  0  0  0  0  0
  -27.1910  -24.2174   20.9114 H   0  0  0  0  0  0
  -26.8527  -25.4136   22.1606 H   0  0  0  0  0  0
  -28.0729  -24.1259   24.5729 H   0  0  0  0  0  0
  -28.3941  -25.7726   24.0830 H   0  0  0  0  0  0
  -29.7302  -24.6779   24.3932 H   0  0  0  0  0  0
  -31.2231  -23.0206   22.6104 H   0  0  0  0  0  0
  -30.4470  -22.3504   24.0021 H   0  0  0  0  0  0
  -28.3088  -22.1739   22.8666 H   0  0  0  0  0  0
  -28.9999  -22.5055   21.3222 H   0  0  0  0  0  0
  -30.6189  -25.2295   22.1045 H   0  0  0  0  0  0
  -29.8471  -24.6806   20.6582 H   0  0  0  0  0  0
  -32.2692  -16.9930   21.8294 H   0  0  0  0  0  0
  -31.4918  -17.0950   23.3939 H   0  0  0  0  0  0
  -29.2498  -16.8269   22.3660 H   0  0  0  0  0  0
  -29.8959  -16.9317   20.7615 H   0  0  0  0  0  0
  -30.0817  -27.2243   21.0829 H   0  0  0  0  0  0
  -28.7182  -27.0625   22.1735 H   0  0  0  0  0  0
  -30.9992  -22.5082   20.1847 H   0  0  0  0  0  0
  -29.5250  -14.6229   22.2819 H   0  0  0  0  0  0
  1 25  1  0  0  0
  1 30  2  0  0  0
  1 88  1  0  0  0
  2  3  1  0  0  0
  2 25  1  0  0  0
  2 89  1  0  0  0
  2 90  1  0  0  0
  3  4  1  0  0  0
  3 91  1  0  0  0
  3 92  1  0  0  0
  4  5  1  0  0  0
  4 93  1  0  0  0
  4 94  1  0  0  0
  5  6  1  0  0  0
  5 26  1  0  0  0
  5 95  1  0  0  0
  6 25  1  0  0  0
  6 96  1  0  0  0
  6 97  1  0  0  0
  7  8  2  0  0  0
  7 26  1  0  0  0
  7 29  1  0  0  0
  8  9  1  0  0  0
  8 22  1  0  0  0
  9 10  1  0  0  0
  9 27  2  0  0  0
 10 11  2  0  0  0
 10 15  1  0  0  0
 11 12  1  0  0  0
 11 98  1  0  0  0
 12 13  2  0  0  0
 12 99  1  0  0  0
 13 14  1  0  0  0
 13 31  1  0  0  0
 14 15  2  0  0  0
 14100  1  0  0  0
 15101  1  0  0  0
 16 17  2  0  0  0
 16 21  1  0  0  0
 16 31  1  0  0  0
 17 18  1  0  0  0
 17102  1  0  0  0
 18 19  2  0  0  0
 18103  1  0  0  0
 19 20  1  0  0  0
 19 24  1  0  0  0
 20 21  2  0  0  0
 20104  1  0  0  0
 21 23  1  0  0  0
 22 28  1  0  0  0
 22 32  2  0  0  0
 26 27  1  0  0  0
 28105  1  0  0  0
 28106  1  0  0  0
 29107  1  0  0  0
 29108  1  0  0  0
 33 34  1  0  0  0
 33 66  1  0  0  0
 33 70  2  0  0  0
 34 36  1  0  0  0
 34 59  1  0  0  0
 34109  1  0  0  0
 35 44  2  0  0  0
 35 45  1  0  0  0
 35 68  1  0  0  0
 36 56  1  0  0  0
 36110  1  0  0  0
 37 39  1  0  0  0
 37 47  1  0  0  0
 37 66  1  0  0  0
 37111  1  0  0  0
 38 43  2  0  0  0
 38 46  1  0  0  0
 38 47  1  0  0  0
 39 64  1  0  0  0
 39 67  2  0  0  0
 40 52  1  0  0  0
 40 53  2  0  0  0
 40 58  1  0  0  0
 41112  1  0  0  0
 41113  1  0  0  0
 41114  1  0  0  0
 41 48  1  0  0  0
 42 43  1  0  0  0
 42 66  1  0  0  0
 42115  1  0  0  0
 42116  1  0  0  0
 43 44  1  0  0  0
 44117  1  0  0  0
 45 46  2  0  0  0
 45118  1  0  0  0
 46119  1  0  0  0
 47120  1  0  0  0
 47121  1  0  0  0
 48 56  1  0  0  0
 48 65  1  0  0  0
 48122  1  0  0  0
 49 50  1  0  0  0
 49 53  1  0  0  0
 49 64  1  0  0  0
 49123  1  0  0  0
 50 51  1  0  0  0
 50124  1  0  0  0
 50125  1  0  0  0
 51 52  1  0  0  0
 51126  1  0  0  0
 51127  1  0  0  0
 52128  1  0  0  0
 52129  1  0  0  0
 53 54  1  0  0  0
 54 55  2  0  0  0
 54130  1  0  0  0
 55 57  1  0  0  0
 55131  1  0  0  0
 56 69  2  0  0  0
 57 58  2  0  0  0
 57132  1  0  0  0
 58133  1  0  0  0
 59 60  1  0  0  0
 59 61  1  0  0  0
 59 62  1  0  0  0
 60134  1  0  0  0
 60135  1  0  0  0
 60136  1  0  0  0
 61137  1  0  0  0
 61138  1  0  0  0
 61139  1  0  0  0
 62140  1  0  0  0
 62141  1  0  0  0
 62142  1  0  0  0
 63 65  1  0  0  0
 63143  1  0  0  0
 63144  1  0  0  0
 63145  1  0  0  0
 64146  1  0  0  0
 65147  1  0  0  0
 68 83  1  0  0  0
 71 72  2  0  0  0
 71 87  1  0  0  0
 71148  1  0  0  0
 72 73  1  0  0  0
 72 78  1  0  0  0
 73 84  1  0  0  0
 73 86  2  0  0  0
 74149  1  0  0  0
 74150  1  0  0  0
 74151  1  0  0  0
 74 84  1  0  0  0
 75 84  1  0  0  0
 75152  1  0  0  0
 75153  1  0  0  0
 75154  1  0  0  0
 76155  1  0  0  0
 76156  1  0  0  0
 76157  1  0  0  0
 76 85  1  0  0  0
 77 85  1  0  0  0
 77158  1  0  0  0
 77159  1  0  0  0
 77160  1  0  0  0
 78 79  1  0  0  0
 78161  1  0  0  0
 78162  1  0  0  0
 79 85  1  0  0  0
 79163  1  0  0  0
 79164  1  0  0  0
 80 83  1  0  0  0
 80 85  1  0  0  0
 80165  1  0  0  0
 80166  1  0  0  0
 81 82  1  0  0  0
 81 87  1  0  0  0
 81167  1  0  0  0
 81168  1  0  0  0
 82 88  1  0  0  0
 82169  1  0  0  0
 82170  1  0  0  0
 83171  1  0  0  0
 83172  1  0  0  0
 84173  1  0  0  0
 86 87  1  0  0  0
 88174  1  0  0  0
M  ISO  4   1 100  68 101  83 101  88 100
M  END
> <chiral flag>
0

> <version>
0

> <s_m_source_file>
/data/baiqing/PycharmProjects/Reinvent-master-3.2/result/LINK_invent/BTK/process_docking_weight1_custom_sum_contain_oxygen_bond_distance_aromatic_linkinvent_7_9_3/rearranged_h_0090.sdf

> <i_m_source_file_index>
3

> <r_mmod_Potential_Energy-OPLS-2005>
-100.904739379883

> <r_mmod_Stretch_Energy-OPLS-2005>
36.7921714782715

> <r_mmod_Bend_Energy-OPLS-2005>
108.96378326416

> <r_mmod_Torsional_Energy-OPLS-2005>
231.67333984375

> <r_mmod_Improper_Torsional_Energy-OPLS-2005>
3.45784068107605

> <r_mmod_Van_der_Waal_Energy-OPLS-2005>
118.536575317383

> <r_mmod_Electrostatic_Energy-OPLS-2005>
-394.252624511719

> <r_mmod_Solvation_Energy-OPLS-2005>
-215.98127746582

> <b_mmod_Minimization_Converged-OPLS-2005>
0

> <r_mmod_RMS_Derivative-OPLS-2005>
4.53018712997437

$$$$
3
                    3D
 Structure written by MMmdl.
175183  0  0  1  0            999 V2000
  -30.7064  -14.5342   20.5341 C   0  0  0  0  0  0
  -30.4094  -12.3324   19.4627 C   0  0  0  0  0  0
  -29.4987  -12.4903   18.2292 C   0  0  0  0  0  0
  -28.0225  -12.3339   18.6351 C   0  0  0  0  0  0
  -27.6526  -13.2099   19.8639 C   0  0  2  0  0  0
  -28.6917  -13.0738   21.0014 C   0  0  0  0  0  0
  -25.2571  -13.8124   20.5642 C   0  0  0  0  0  0
  -24.1861  -13.0407   20.9129 C   0  0  0  0  0  0
  -24.6435  -11.6865   20.8688 C   0  0  0  0  0  0
  -23.9080  -10.4278   21.0375 C   0  0  0  0  0  0
  -24.3639   -9.4193   21.9181 C   0  0  0  0  0  0
  -23.6302   -8.2245   22.0783 C   0  0  0  0  0  0
  -22.4278   -8.0294   21.3583 C   0  0  0  0  0  0
  -21.9915   -9.0241   20.4678 C   0  0  0  0  0  0
  -22.7232  -10.2117   20.3042 C   0  0  0  0  0  0
  -21.6858   -6.0729   22.5282 C   0  0  0  0  0  0
  -21.4024   -6.5634   23.8204 C   0  0  0  0  0  0
  -21.3639   -5.6802   24.9180 C   0  0  0  0  0  0
  -21.6025   -4.3056   24.7232 C   0  0  0  0  0  0
  -21.8805   -3.8139   23.4360 C   0  0  0  0  0  0
  -21.9186   -4.6957   22.3410 C   0  0  0  0  0  0
  -22.7874  -13.5198   21.1750 C   0  0  0  0  0  0
  -22.1646   -4.2137   21.0995 F   0  0  0  0  0  0
  -21.5627   -3.4542   25.7747 F   0  0  0  0  0  0
  -30.0143  -13.3659   20.4387 N   0  0  0  0  0  0
  -26.3020  -12.9316   20.3331 N   0  0  0  0  0  0
  -25.9370  -11.6474   20.5781 N   0  0  0  0  0  0
  -22.0513  -12.8264   22.0335 N   0  0  0  0  0  0
  -25.4208  -15.1863   20.4053 N   0  0  0  0  0  0
  -31.8706  -14.6255   20.1371 O   0  0  0  0  0  0
  -21.6645   -6.8873   21.4256 O   0  0  0  0  0  0
  -22.3577  -14.5499   20.6539 O   0  0  0  0  0  0
  -24.6186  -31.8670   23.2061 C   0  0  0  0  0  0
  -25.9053  -32.4826   23.8394 C   0  0  1  0  0  0
  -27.2168  -27.3718   20.1401 C   0  0  0  0  0  0
  -25.5875  -33.8621   24.2319 N   0  0  0  0  0  0
  -23.4114  -30.4892   21.5454 C   0  0  2  0  0  0
  -24.8623  -28.9588   20.1075 C   0  0  0  0  0  0
  -22.7455  -29.4628   22.4907 C   0  0  0  0  0  0
  -18.0294  -28.1378   22.8507 C   0  0  0  0  0  0
  -24.1483  -36.7308   23.2635 C   0  0  0  0  0  0
  -25.9474  -30.8165   21.3711 C   0  0  0  0  0  0
  -26.0230  -29.4456   20.7239 C   0  0  0  0  0  0
  -27.2026  -28.6553   20.7493 C   0  0  0  0  0  0
  -26.0541  -26.9391   19.4739 C   0  0  0  0  0  0
  -24.8763  -27.7072   19.4726 C   0  0  0  0  0  0
  -23.6258  -29.8287   20.1576 C   0  0  0  0  0  0
  -25.4110  -36.3100   24.0327 C   0  0  1  0  0  0
  -20.5888  -28.3649   23.1314 C   0  0  2  0  0  0
  -20.6767  -26.9370   22.5429 C   0  0  0  0  0  0
  -19.5742  -26.6373   21.5238 C   0  0  0  0  0  0
  -18.1913  -26.7924   22.1629 C   0  0  0  0  0  0
  -19.1542  -28.8841   23.2909 C   0  0  0  0  0  0
  -18.9460  -30.1460   23.8904 C   0  0  0  0  0  0
  -17.6449  -30.6572   24.0578 C   0  0  0  0  0  0
  -25.9038  -34.9480   23.5119 C   0  0  0  0  0  0
  -16.5345  -29.9076   23.6327 C   0  0  0  0  0  0
  -16.7278  -28.6511   23.0327 C   0  0  0  0  0  0
  -26.4465  -31.6604   25.0730 C   0  0  0  0  0  0
  -25.3719  -31.3709   26.1462 C   0  0  0  0  0  0
  -27.0270  -30.3036   24.6110 C   0  0  0  0  0  0
  -27.6052  -32.4308   25.7481 C   0  0  0  0  0  0
  -27.5572  -37.1817   24.8464 C   0  0  0  0  0  0
  -21.4156  -29.3032   22.3715 N   0  0  0  0  0  0
  -26.4283  -37.3798   23.9405 N   0  0  0  0  0  0
  -24.6783  -31.0743   22.0975 N   0  0  0  0  0  0
  -23.4236  -28.8163   23.2933 O   0  0  0  0  0  0
  -28.2955  -26.5024   20.2100 O   0  0  0  0  0  0
  -26.5605  -34.8921   22.4682 O   0  0  0  0  0  0
  -23.5361  -32.1406   23.7436 O   0  0  0  0  0  0
  -31.5466  -21.5824   19.9832 C   0  0  0  0  0  0
  -32.4442  -20.6504   19.5455 C   0  0  0  0  0  0
  -30.6618  -19.5790   20.4036 C   0  0  0  0  0  0
  -34.6933  -19.6330   19.0734 C   0  0  0  0  0  0
  -34.4250  -22.1248   19.2052 C   0  0  0  0  0  0
  -33.3820  -20.8571   17.3039 C   0  0  0  0  0  0
  -26.8905  -23.7791   20.2113 C   0  0  0  0  0  0
  -27.4873  -23.5585   22.6014 C   0  0  0  0  0  0
  -29.8453  -18.3572   20.8427 C   0  0  0  0  0  0
  -29.2750  -23.2049   20.8573 C   0  0  0  0  0  0
  -29.1862  -21.6189   20.8838 C   0  0  0  0  0  0
  -30.6398  -17.0088   20.6227 C   0  0  0  0  0  0
  -28.2777  -25.6134   21.3714 C   0  0  0  0  0  0
  -33.7385  -20.8089   18.7967 C   0  0  0  0  0  0
  -28.0048  -24.0484   21.2307 C   0  0  0  0  0  0
  -30.4307  -20.9235   20.4495 N   0  0  0  0  0  0
  -31.8606  -19.4461   19.8133 N   0  3  0  0  0  0
  -30.0303  -15.6671   20.8706 N   0  0  0  0  0  0
  -31.4601  -12.3999   19.1722 H   0  0  0  0  0  0
  -30.2856  -11.3409   19.9010 H   0  0  0  0  0  0
  -29.7625  -11.7595   17.4636 H   0  0  0  0  0  0
  -29.6522  -13.4742   17.7824 H   0  0  0  0  0  0
  -27.8549  -11.2791   18.8639 H   0  0  0  0  0  0
  -27.3693  -12.5617   17.7926 H   0  0  0  0  0  0
  -27.6682  -14.2425   19.5207 H   0  0  0  0  0  0
  -28.6881  -12.0629   21.4080 H   0  0  0  0  0  0
  -28.4505  -13.7344   21.8372 H   0  0  0  0  0  0
  -25.2761   -9.5654   22.4804 H   0  0  0  0  0  0
  -23.9941   -7.4641   22.7549 H   0  0  0  0  0  0
  -21.0804   -8.8714   19.9062 H   0  0  0  0  0  0
  -22.3599  -10.9647   19.6169 H   0  0  0  0  0  0
  -21.2025   -7.6146   23.9683 H   0  0  0  0  0  0
  -21.1486   -6.0564   25.9072 H   0  0  0  0  0  0
  -22.0611   -2.7613   23.2854 H   0  0  0  0  0  0
  -22.4105  -11.9913   22.4729 H   0  0  0  0  0  0
  -21.1177  -13.1402   22.2566 H   0  0  0  0  0  0
  -24.6330  -15.8180   20.5056 H   0  0  0  0  0  0
  -26.2603  -15.6487   20.0829 H   0  0  0  0  0  0
  -26.7120  -32.5552   23.1164 H   0  0  0  0  0  0
  -25.0062  -33.9805   25.0482 H   0  0  0  0  0  0
  -22.7027  -31.3072   21.4046 H   0  0  0  0  0  0
  -23.3738  -35.9648   23.3332 H   0  0  0  0  0  0
  -24.3585  -36.8895   22.2040 H   0  0  0  0  0  0
  -23.7222  -37.6515   23.6642 H   0  0  0  0  0  0
  -26.0651  -31.5743   20.5958 H   0  0  0  0  0  0
  -26.8338  -30.8730   21.9890 H   0  0  0  0  0  0
  -28.0836  -29.0105   21.2660 H   0  0  0  0  0  0
  -26.0369  -25.9862   18.9705 H   0  0  0  0  0  0
  -23.9937  -27.3252   18.9781 H   0  0  0  0  0  0
  -23.7447  -30.6080   19.4036 H   0  0  0  0  0  0
  -22.7495  -29.2499   19.8526 H   0  0  0  0  0  0
  -25.1292  -36.1962   25.0817 H   0  0  0  0  0  0
  -21.0014  -28.3208   24.1419 H   0  0  0  0  0  0
  -20.5671  -26.2228   23.3607 H   0  0  0  0  0  0
  -21.6627  -26.7391   22.1215 H   0  0  0  0  0  0
  -19.6874  -25.6305   21.1215 H   0  0  0  0  0  0
  -19.6683  -27.3232   20.6822 H   0  0  0  0  0  0
  -17.4182  -26.6710   21.4019 H   0  0  0  0  0  0
  -18.0286  -26.0066   22.9023 H   0  0  0  0  0  0
  -19.7931  -30.7302   24.2221 H   0  0  0  0  0  0
  -17.4992  -31.6243   24.5186 H   0  0  0  0  0  0
  -15.5343  -30.2962   23.7658 H   0  0  0  0  0  0
  -15.8680  -28.0856   22.6979 H   0  0  0  0  0  0
  -24.5945  -30.6987   25.7819 H   0  0  0  0  0  0
  -24.8838  -32.2842   26.4861 H   0  0  0  0  0  0
  -25.8071  -30.8938   27.0244 H   0  0  0  0  0  0
  -26.2804  -29.6842   24.1116 H   0  0  0  0  0  0
  -27.3959  -29.7239   25.4578 H   0  0  0  0  0  0
  -27.8690  -30.4354   23.9312 H   0  0  0  0  0  0
  -27.2703  -33.3628   26.2046 H   0  0  0  0  0  0
  -28.3865  -32.6818   25.0298 H   0  0  0  0  0  0
  -28.0699  -31.8409   26.5384 H   0  0  0  0  0  0
  -28.2608  -38.0105   24.7515 H   0  0  0  0  0  0
  -28.1043  -36.2628   24.6286 H   0  0  0  0  0  0
  -27.2303  -37.1473   25.8877 H   0  0  0  0  0  0
  -20.9275  -29.8776   21.6988 H   0  0  0  0  0  0
  -26.0164  -38.2870   24.1420 H   0  0  0  0  0  0
  -31.6216  -22.6566   19.9333 H   0  0  0  0  0  0
  -34.9143  -19.5289   20.1347 H   0  0  0  0  0  0
  -35.6480  -19.7795   18.5658 H   0  0  0  0  0  0
  -34.2820  -18.6878   18.7213 H   0  0  0  0  0  0
  -34.6387  -22.1422   20.2738 H   0  0  0  0  0  0
  -33.8034  -22.9887   18.9738 H   0  0  0  0  0  0
  -35.3723  -22.2698   18.6855 H   0  0  0  0  0  0
  -32.8678  -19.9457   16.9972 H   0  0  0  0  0  0
  -34.2681  -20.9629   16.6795 H   0  0  0  0  0  0
  -32.7170  -21.6939   17.0864 H   0  0  0  0  0  0
  -26.6563  -22.7197   20.1341 H   0  0  0  0  0  0
  -27.1771  -24.1239   19.2185 H   0  0  0  0  0  0
  -25.9688  -24.2881   20.4914 H   0  0  0  0  0  0
  -27.2707  -22.4911   22.6085 H   0  0  0  0  0  0
  -26.5520  -24.0531   22.8678 H   0  0  0  0  0  0
  -28.2029  -23.7618   23.3989 H   0  0  0  0  0  0
  -28.9115  -18.3860   20.2844 H   0  0  0  0  0  0
  -29.6072  -18.5032   21.8967 H   0  0  0  0  0  0
  -29.5825  -23.5215   19.8590 H   0  0  0  0  0  0
  -30.0804  -23.5086   21.5300 H   0  0  0  0  0  0
  -28.3983  -21.2658   20.2168 H   0  0  0  0  0  0
  -28.9439  -21.2537   21.8808 H   0  0  0  0  0  0
  -30.9569  -16.9880   19.5785 H   0  0  0  0  0  0
  -31.5512  -17.0687   21.2204 H   0  0  0  0  0  0
  -29.2219  -25.7489   21.9030 H   0  0  0  0  0  0
  -27.5310  -26.0022   22.0682 H   0  0  0  0  0  0
  -32.2867  -18.5559   19.5831 H   0  0  0  0  0  0
  -29.0640  -15.5944   21.1524 H   0  0  0  0  0  0
  1 25  1  0  0  0
  1 30  2  0  0  0
  1 88  1  0  0  0
  2  3  1  0  0  0
  2 25  1  0  0  0
  2 89  1  0  0  0
  2 90  1  0  0  0
  3  4  1  0  0  0
  3 91  1  0  0  0
  3 92  1  0  0  0
  4  5  1  0  0  0
  4 93  1  0  0  0
  4 94  1  0  0  0
  5  6  1  0  0  0
  5 26  1  0  0  0
  5 95  1  0  0  0
  6 25  1  0  0  0
  6 96  1  0  0  0
  6 97  1  0  0  0
  7  8  2  0  0  0
  7 26  1  0  0  0
  7 29  1  0  0  0
  8  9  1  0  0  0
  8 22  1  0  0  0
  9 10  1  0  0  0
  9 27  2  0  0  0
 10 11  2  0  0  0
 10 15  1  0  0  0
 11 12  1  0  0  0
 11 98  1  0  0  0
 12 13  2  0  0  0
 12 99  1  0  0  0
 13 14  1  0  0  0
 13 31  1  0  0  0
 14 15  2  0  0  0
 14100  1  0  0  0
 15101  1  0  0  0
 16 17  2  0  0  0
 16 21  1  0  0  0
 16 31  1  0  0  0
 17 18  1  0  0  0
 17102  1  0  0  0
 18 19  2  0  0  0
 18103  1  0  0  0
 19 20  1  0  0  0
 19 24  1  0  0  0
 20 21  2  0  0  0
 20104  1  0  0  0
 21 23  1  0  0  0
 22 28  1  0  0  0
 22 32  2  0  0  0
 26 27  1  0  0  0
 28105  1  0  0  0
 28106  1  0  0  0
 29107  1  0  0  0
 29108  1  0  0  0
 33 34  1  0  0  0
 33 66  1  0  0  0
 33 70  2  0  0  0
 34 36  1  0  0  0
 34 59  1  0  0  0
 34109  1  0  0  0
 35 44  2  0  0  0
 35 45  1  0  0  0
 35 68  1  0  0  0
 36 56  1  0  0  0
 36110  1  0  0  0
 37 39  1  0  0  0
 37 47  1  0  0  0
 37 66  1  0  0  0
 37111  1  0  0  0
 38 43  2  0  0  0
 38 46  1  0  0  0
 38 47  1  0  0  0
 39 64  1  0  0  0
 39 67  2  0  0  0
 40 52  1  0  0  0
 40 53  2  0  0  0
 40 58  1  0  0  0
 41112  1  0  0  0
 41113  1  0  0  0
 41114  1  0  0  0
 41 48  1  0  0  0
 42 43  1  0  0  0
 42 66  1  0  0  0
 42115  1  0  0  0
 42116  1  0  0  0
 43 44  1  0  0  0
 44117  1  0  0  0
 45 46  2  0  0  0
 45118  1  0  0  0
 46119  1  0  0  0
 47120  1  0  0  0
 47121  1  0  0  0
 48 56  1  0  0  0
 48 65  1  0  0  0
 48122  1  0  0  0
 49 50  1  0  0  0
 49 53  1  0  0  0
 49 64  1  0  0  0
 49123  1  0  0  0
 50 51  1  0  0  0
 50124  1  0  0  0
 50125  1  0  0  0
 51 52  1  0  0  0
 51126  1  0  0  0
 51127  1  0  0  0
 52128  1  0  0  0
 52129  1  0  0  0
 53 54  1  0  0  0
 54 55  2  0  0  0
 54130  1  0  0  0
 55 57  1  0  0  0
 55131  1  0  0  0
 56 69  2  0  0  0
 57 58  2  0  0  0
 57132  1  0  0  0
 58133  1  0  0  0
 59 60  1  0  0  0
 59 61  1  0  0  0
 59 62  1  0  0  0
 60134  1  0  0  0
 60135  1  0  0  0
 60136  1  0  0  0
 61137  1  0  0  0
 61138  1  0  0  0
 61139  1  0  0  0
 62140  1  0  0  0
 62141  1  0  0  0
 62142  1  0  0  0
 63 65  1  0  0  0
 63143  1  0  0  0
 63144  1  0  0  0
 63145  1  0  0  0
 64146  1  0  0  0
 65147  1  0  0  0
 68 83  1  0  0  0
 71 72  2  0  0  0
 71 86  1  0  0  0
 71148  1  0  0  0
 72 84  1  0  0  0
 72 87  1  0  0  0
 73 79  1  0  0  0
 73 86  1  0  0  0
 73 87  2  0  0  0
 74149  1  0  0  0
 74150  1  0  0  0
 74151  1  0  0  0
 74 84  1  0  0  0
 75 84  1  0  0  0
 75152  1  0  0  0
 75153  1  0  0  0
 75154  1  0  0  0
 76 84  1  0  0  0
 76155  1  0  0  0
 76156  1  0  0  0
 76157  1  0  0  0
 77158  1  0  0  0
 77159  1  0  0  0
 77160  1  0  0  0
 77 85  1  0  0  0
 78 85  1  0  0  0
 78161  1  0  0  0
 78162  1  0  0  0
 78163  1  0  0  0
 79 82  1  0  0  0
 79164  1  0  0  0
 79165  1  0  0  0
 80 81  1  0  0  0
 80 85  1  0  0  0
 80166  1  0  0  0
 80167  1  0  0  0
 81 86  1  0  0  0
 81168  1  0  0  0
 81169  1  0  0  0
 82 88  1  0  0  0
 82170  1  0  0  0
 82171  1  0  0  0
 83 85  1  0  0  0
 83172  1  0  0  0
 83173  1  0  0  0
 87174  1  0  0  0
 88175  1  0  0  0
M  CHG  1  87   1
M  ISO  4   1 100  68 101  83 101  88 100
M  END
> <chiral flag>
0

> <version>
0

> <s_m_source_file>
/data/baiqing/PycharmProjects/Reinvent-master-3.2/result/LINK_invent/BTK/process_docking_weight1_custom_sum_contain_oxygen_bond_distance_aromatic_linkinvent_7_9_3/rearranged_h_0090.sdf

> <i_m_source_file_index>
4

> <r_mmod_Potential_Energy-OPLS-2005>
-19.8172359466553

> <r_mmod_Stretch_Energy-OPLS-2005>
60.1479568481445

> <r_mmod_Bend_Energy-OPLS-2005>
143.907440185547

> <r_mmod_Torsional_Energy-OPLS-2005>
269.68115234375

> <r_mmod_Improper_Torsional_Energy-OPLS-2005>
5.42616510391235

> <r_mmod_Van_der_Waal_Energy-OPLS-2005>
139.197372436523

> <r_mmod_Electrostatic_Energy-OPLS-2005>
-281.658386230469

> <r_mmod_Solvation_Energy-OPLS-2005>
-390.342346191406

> <b_mmod_Minimization_Converged-OPLS-2005>
0

> <r_mmod_RMS_Derivative-OPLS-2005>
5.03593873977661

$$$$
4
                    3D
 Structure written by MMmdl.
152159  0  0  1  0            999 V2000
  -30.4776  -15.1888   20.3777 C   0  0  0  0  0  0
  -30.4269  -12.7480   19.5234 C   0  0  0  0  0  0
  -29.5214  -12.5628   18.2790 C   0  0  0  0  0  0
  -28.0655  -12.3105   18.6991 C   0  0  0  0  0  0
  -27.6145  -13.2747   19.8257 C   0  0  2  0  0  0
  -28.6515  -13.4225   20.9626 C   0  0  0  0  0  0
  -25.2394  -13.8269   20.5725 C   0  0  0  0  0  0
  -24.1750  -13.0456   20.9258 C   0  0  0  0  0  0
  -24.6412  -11.6952   20.8750 C   0  0  0  0  0  0
  -23.9106  -10.4300   21.0365 C   0  0  0  0  0  0
  -24.3660   -9.4205   21.9143 C   0  0  0  0  0  0
  -23.6335   -8.2230   22.0714 C   0  0  0  0  0  0
  -22.4311   -8.0250   21.3504 C   0  0  0  0  0  0
  -21.9941   -9.0222   20.4605 C   0  0  0  0  0  0
  -22.7259  -10.2120   20.3010 C   0  0  0  0  0  0
  -21.6883   -6.0723   22.5278 C   0  0  0  0  0  0
  -21.4023   -6.5632   23.8214 C   0  0  0  0  0  0
  -21.3653   -5.6780   24.9168 C   0  0  0  0  0  0
  -21.6049   -4.3043   24.7231 C   0  0  0  0  0  0
  -21.8825   -3.8136   23.4356 C   0  0  0  0  0  0
  -21.9209   -4.6941   22.3413 C   0  0  0  0  0  0
  -22.7760  -13.5183   21.1906 C   0  0  0  0  0  0
  -22.1675   -4.2125   21.0982 F   0  0  0  0  0  0
  -21.5615   -3.4525   25.7747 F   0  0  0  0  0  0
  -29.9039  -13.8920   20.3551 N   0  0  0  0  0  0
  -26.2835  -12.9549   20.3226 N   0  0  0  0  0  0
  -25.9356  -11.6656   20.5730 N   0  0  0  0  0  0
  -22.0470  -12.8126   22.0470 N   0  0  0  0  0  0
  -25.4049  -15.1994   20.4155 N   0  0  0  0  0  0
  -31.6767  -15.2095   20.0811 O   0  0  0  0  0  0
  -21.6661   -6.8847   21.4230 O   0  0  0  0  0  0
  -22.3407  -14.5466   20.6738 O   0  0  0  0  0  0
  -24.6582  -31.8290   23.1718 C   0  0  0  0  0  0
  -25.9285  -32.4636   23.8160 C   0  0  1  0  0  0
  -27.2312  -26.9823   20.1815 C   0  0  0  0  0  0
  -25.5964  -33.8434   24.2065 N   0  0  0  0  0  0
  -23.4720  -30.4396   21.5198 C   0  0  2  0  0  0
  -24.9298  -28.8389   20.1060 C   0  0  0  0  0  0
  -22.7666  -29.4459   22.4809 C   0  0  0  0  0  0
  -18.0299  -28.1447   22.8454 C   0  0  0  0  0  0
  -24.1474  -36.7222   23.2643 C   0  0  0  0  0  0
  -26.0359  -30.6600   21.3912 C   0  0  0  0  0  0
  -26.1098  -29.2514   20.7409 C   0  0  0  0  0  0
  -27.2535  -28.3416   20.7561 C   0  0  0  0  0  0
  -26.0303  -26.7195   19.4848 C   0  0  0  0  0  0
  -24.9166  -27.5957   19.4554 C   0  0  0  0  0  0
  -23.7081  -29.7543   20.1439 C   0  0  0  0  0  0
  -25.4130  -36.2990   24.0288 C   0  0  1  0  0  0
  -20.5932  -28.3770   23.1206 C   0  0  2  0  0  0
  -20.6770  -26.9459   22.5403 C   0  0  0  0  0  0
  -19.5750  -26.6391   21.5217 C   0  0  0  0  0  0
  -18.1934  -26.7965   22.1623 C   0  0  0  0  0  0
  -19.1563  -28.8932   23.2790 C   0  0  0  0  0  0
  -18.9479  -30.1529   23.8828 C   0  0  0  0  0  0
  -17.6472  -30.6619   24.0570 C   0  0  0  0  0  0
  -25.9100  -34.9391   23.4997 C   0  0  0  0  0  0
  -16.5364  -29.9118   23.6360 C   0  0  0  0  0  0
  -16.7274  -28.6545   23.0354 C   0  0  0  0  0  0
  -26.4532  -31.6571   25.0678 C   0  0  0  0  0  0
  -25.3653  -31.3853   26.1342 C   0  0  0  0  0  0
  -27.0406  -30.2932   24.6396 C   0  0  0  0  0  0
  -27.6024  -32.4399   25.7481 C   0  0  0  0  0  0
  -27.5565  -37.1770   24.8464 C   0  0  0  0  0  0
  -21.4345  -29.3042   22.3557 N   0  0  0  0  0  0
  -26.4261  -37.3739   23.9426 N   0  0  0  0  0  0
  -24.7426  -31.0031   22.0811 N   0  0  0  0  0  0
  -23.4235  -28.8020   23.3022 O   0  0  0  0  0  0
  -28.2451  -25.9061   20.3019 O   0  0  0  0  0  0
  -26.5705  -34.8929   22.4595 O   0  0  0  0  0  0
  -23.5668  -32.1193   23.6879 O   0  0  0  0  0  0
  -28.0824  -22.6687   21.9634 C   0  0  0  0  0  0
  -30.3036  -23.1628   20.8860 C   0  0  0  0  0  0
  -29.2833  -19.5739   20.7304 C   0  0  0  0  0  0
  -28.9093  -21.1564   19.9874 C   0  0  0  0  0  0
  -29.8419  -18.0229   20.0474 C   0  0  0  0  0  0
  -28.1278  -24.3173   19.9297 C   0  0  0  0  0  0
  -28.8238  -22.8219   20.6254 C   0  0  0  0  0  0
  -29.7189  -16.4429   20.5309 N   0  0  0  0  0  0
  -31.4510  -12.9240   19.1922 H   0  0  0  0  0  0
  -30.4626  -11.8245   20.1055 H   0  0  0  0  0  0
  -29.8798  -11.7339   17.6670 H   0  0  0  0  0  0
  -29.5715  -13.4514   17.6491 H   0  0  0  0  0  0
  -28.0006  -11.2806   19.0492 H   0  0  0  0  0  0
  -27.3997  -12.3814   17.8366 H   0  0  0  0  0  0
  -27.5394  -14.2499   19.3451 H   0  0  0  0  0  0
  -28.7941  -12.4928   21.5119 H   0  0  0  0  0  0
  -28.3047  -14.1626   21.6859 H   0  0  0  0  0  0
  -25.2818   -9.5707   22.4704 H   0  0  0  0  0  0
  -24.0063   -7.4645   22.7459 H   0  0  0  0  0  0
  -21.0854   -8.8728   19.8952 H   0  0  0  0  0  0
  -22.3686  -10.9633   19.6109 H   0  0  0  0  0  0
  -21.2001   -7.6146   23.9710 H   0  0  0  0  0  0
  -21.1463   -6.0506   25.9074 H   0  0  0  0  0  0
  -22.0610   -2.7594   23.2871 H   0  0  0  0  0  0
  -22.4211  -11.9825   22.4835 H   0  0  0  0  0  0
  -21.1051  -13.1002   22.2682 H   0  0  0  0  0  0
  -24.6302  -15.8474   20.5073 H   0  0  0  0  0  0
  -26.2420  -15.6330   20.0485 H   0  0  0  0  0  0
  -26.7380  -32.5199   23.0908 H   0  0  0  0  0  0
  -25.0067  -33.9510   25.0179 H   0  0  0  0  0  0
  -22.7816  -31.2685   21.3512 H   0  0  0  0  0  0
  -23.3755  -35.9527   23.3272 H   0  0  0  0  0  0
  -24.3527  -36.8906   22.2055 H   0  0  0  0  0  0
  -23.7210  -37.6392   23.6723 H   0  0  0  0  0  0
  -26.2109  -31.4081   20.6154 H   0  0  0  0  0  0
  -26.8944  -30.7177   22.0467 H   0  0  0  0  0  0
  -28.1442  -28.6555   21.2828 H   0  0  0  0  0  0
  -25.9202  -25.7721   18.9806 H   0  0  0  0  0  0
  -24.0247  -27.2806   18.9312 H   0  0  0  0  0  0
  -23.8594  -30.5207   19.3829 H   0  0  0  0  0  0
  -22.8189  -29.2022   19.8271 H   0  0  0  0  0  0
  -25.1336  -36.1756   25.0772 H   0  0  0  0  0  0
  -21.0002  -28.3357   24.1340 H   0  0  0  0  0  0
  -20.5680  -26.2389   23.3635 H   0  0  0  0  0  0
  -21.6633  -26.7465   22.1207 H   0  0  0  0  0  0
  -19.6923  -25.6285   21.1287 H   0  0  0  0  0  0
  -19.6691  -27.3168   20.6724 H   0  0  0  0  0  0
  -17.4206  -26.6701   21.4016 H   0  0  0  0  0  0
  -18.0331  -26.0117   22.9036 H   0  0  0  0  0  0
  -19.7952  -30.7359   24.2150 H   0  0  0  0  0  0
  -17.5029  -31.6291   24.5191 H   0  0  0  0  0  0
  -15.5361  -30.3009   23.7732 H   0  0  0  0  0  0
  -15.8665  -28.0863   22.7108 H   0  0  0  0  0  0
  -24.5766  -30.7305   25.7615 H   0  0  0  0  0  0
  -24.8927  -32.3079   26.4707 H   0  0  0  0  0  0
  -25.7827  -30.8989   27.0164 H   0  0  0  0  0  0
  -26.3039  -29.6647   24.1367 H   0  0  0  0  0  0
  -27.3890  -29.7281   25.5053 H   0  0  0  0  0  0
  -27.9016  -30.4106   23.9817 H   0  0  0  0  0  0
  -27.2553  -33.3731   26.1944 H   0  0  0  0  0  0
  -28.3865  -32.6935   25.0329 H   0  0  0  0  0  0
  -28.0661  -31.8614   26.5482 H   0  0  0  0  0  0
  -28.2581  -38.0071   24.7532 H   0  0  0  0  0  0
  -28.1055  -36.2607   24.6253 H   0  0  0  0  0  0
  -27.2284  -37.1378   25.8863 H   0  0  0  0  0  0
  -20.9631  -29.8725   21.6665 H   0  0  0  0  0  0
  -26.0104  -38.2791   24.1433 H   0  0  0  0  0  0
  -28.5762  -21.9573   22.6257 H   0  0  0  0  0  0
  -27.0676  -22.3079   21.7944 H   0  0  0  0  0  0
  -27.9991  -23.6171   22.4976 H   0  0  0  0  0  0
  -30.8452  -22.3279   21.3331 H   0  0  0  0  0  0
  -30.4182  -24.0156   21.5556 H   0  0  0  0  0  0
  -30.8122  -23.4106   19.9522 H   0  0  0  0  0  0
  -28.4049  -19.3408   21.3321 H   0  0  0  0  0  0
  -30.0343  -19.8032   21.4879 H   0  0  0  0  0  0
  -27.9342  -20.9991   19.5261 H   0  0  0  0  0  0
  -29.5783  -21.2172   19.1283 H   0  0  0  0  0  0
  -30.9038  -18.1699   19.8330 H   0  0  0  0  0  0
  -29.3927  -17.9977   19.0546 H   0  0  0  0  0  0
  -27.0583  -24.1128   19.8766 H   0  0  0  0  0  0
  -28.4374  -24.3031   18.8839 H   0  0  0  0  0  0
  -28.7893  -16.2311   20.8616 H   0  0  0  0  0  0
  1 25  1  0  0  0
  1 30  2  0  0  0
  1 78  1  0  0  0
  2  3  1  0  0  0
  2 25  1  0  0  0
  2 79  1  0  0  0
  2 80  1  0  0  0
  3  4  1  0  0  0
  3 81  1  0  0  0
  3 82  1  0  0  0
  4  5  1  0  0  0
  4 83  1  0  0  0
  4 84  1  0  0  0
  5  6  1  0  0  0
  5 26  1  0  0  0
  5 85  1  0  0  0
  6 25  1  0  0  0
  6 86  1  0  0  0
  6 87  1  0  0  0
  7  8  2  0  0  0
  7 26  1  0  0  0
  7 29  1  0  0  0
  8  9  1  0  0  0
  8 22  1  0  0  0
  9 10  1  0  0  0
  9 27  2  0  0  0
 10 11  2  0  0  0
 10 15  1  0  0  0
 11 12  1  0  0  0
 11 88  1  0  0  0
 12 13  2  0  0  0
 12 89  1  0  0  0
 13 14  1  0  0  0
 13 31  1  0  0  0
 14 15  2  0  0  0
 14 90  1  0  0  0
 15 91  1  0  0  0
 16 17  2  0  0  0
 16 21  1  0  0  0
 16 31  1  0  0  0
 17 18  1  0  0  0
 17 92  1  0  0  0
 18 19  2  0  0  0
 18 93  1  0  0  0
 19 20  1  0  0  0
 19 24  1  0  0  0
 20 21  2  0  0  0
 20 94  1  0  0  0
 21 23  1  0  0  0
 22 28  1  0  0  0
 22 32  2  0  0  0
 26 27  1  0  0  0
 28 95  1  0  0  0
 28 96  1  0  0  0
 29 97  1  0  0  0
 29 98  1  0  0  0
 33 34  1  0  0  0
 33 66  1  0  0  0
 33 70  2  0  0  0
 34 36  1  0  0  0
 34 59  1  0  0  0
 34 99  1  0  0  0
 35 44  2  0  0  0
 35 45  1  0  0  0
 35 68  1  0  0  0
 36 56  1  0  0  0
 36100  1  0  0  0
 37 39  1  0  0  0
 37 47  1  0  0  0
 37 66  1  0  0  0
 37101  1  0  0  0
 38 43  2  0  0  0
 38 46  1  0  0  0
 38 47  1  0  0  0
 39 64  1  0  0  0
 39 67  2  0  0  0
 40 52  1  0  0  0
 40 53  2  0  0  0
 40 58  1  0  0  0
 41102  1  0  0  0
 41103  1  0  0  0
 41104  1  0  0  0
 41 48  1  0  0  0
 42 43  1  0  0  0
 42 66  1  0  0  0
 42105  1  0  0  0
 42106  1  0  0  0
 43 44  1  0  0  0
 44107  1  0  0  0
 45 46  2  0  0  0
 45108  1  0  0  0
 46109  1  0  0  0
 47110  1  0  0  0
 47111  1  0  0  0
 48 56  1  0  0  0
 48 65  1  0  0  0
 48112  1  0  0  0
 49 50  1  0  0  0
 49 53  1  0  0  0
 49 64  1  0  0  0
 49113  1  0  0  0
 50 51  1  0  0  0
 50114  1  0  0  0
 50115  1  0  0  0
 51 52  1  0  0  0
 51116  1  0  0  0
 51117  1  0  0  0
 52118  1  0  0  0
 52119  1  0  0  0
 53 54  1  0  0  0
 54 55  2  0  0  0
 54120  1  0  0  0
 55 57  1  0  0  0
 55121  1  0  0  0
 56 69  2  0  0  0
 57 58  2  0  0  0
 57122  1  0  0  0
 58123  1  0  0  0
 59 60  1  0  0  0
 59 61  1  0  0  0
 59 62  1  0  0  0
 60124  1  0  0  0
 60125  1  0  0  0
 60126  1  0  0  0
 61127  1  0  0  0
 61128  1  0  0  0
 61129  1  0  0  0
 62130  1  0  0  0
 62131  1  0  0  0
 62132  1  0  0  0
 63 65  1  0  0  0
 63133  1  0  0  0
 63134  1  0  0  0
 63135  1  0  0  0
 64136  1  0  0  0
 65137  1  0  0  0
 68 76  1  0  0  0
 71138  1  0  0  0
 71139  1  0  0  0
 71140  1  0  0  0
 71 77  1  0  0  0
 72 77  1  0  0  0
 72141  1  0  0  0
 72142  1  0  0  0
 72143  1  0  0  0
 73 74  1  0  0  0
 73 75  1  0  0  0
 73144  1  0  0  0
 73145  1  0  0  0
 74 77  1  0  0  0
 74146  1  0  0  0
 74147  1  0  0  0
 75 78  1  0  0  0
 75148  1  0  0  0
 75149  1  0  0  0
 76 77  1  0  0  0
 76150  1  0  0  0
 76151  1  0  0  0
 78152  1  0  0  0
M  ISO  4   1 100  68 101  76 101  78 100
M  END
> <chiral flag>
0

> <version>
0

> <s_m_source_file>
/data/baiqing/PycharmProjects/Reinvent-master-3.2/result/LINK_invent/BTK/process_docking_weight1_custom_sum_contain_oxygen_bond_distance_aromatic_linkinvent_7_9_3/rearranged_h_0090.sdf

> <i_m_source_file_index>
5

> <r_mmod_Potential_Energy-OPLS-2005>
1142.48095703125

> <r_mmod_Stretch_Energy-OPLS-2005>
567.353332519531

> <r_mmod_Bend_Energy-OPLS-2005>
420.740112304688

> <r_mmod_Torsional_Energy-OPLS-2005>
230.022003173828

> <r_mmod_Improper_Torsional_Energy-OPLS-2005>
4.80356025695801

> <r_mmod_Van_der_Waal_Energy-OPLS-2005>
107.20140838623

> <r_mmod_Electrostatic_Energy-OPLS-2005>
-364.297058105469

> <r_mmod_Solvation_Energy-OPLS-2005>
-205.182189941406

> <b_mmod_Minimization_Converged-OPLS-2005>
0

> <r_mmod_RMS_Derivative-OPLS-2005>
4.71393442153931

$$$$
5
                    3D
 Structure written by MMmdl.
163171  0  0  1  0            999 V2000
  -30.6451  -14.5539   20.5235 C   0  0  0  0  0  0
  -30.4311  -12.3408   19.4418 C   0  0  0  0  0  0
  -29.5028  -12.4981   18.2173 C   0  0  0  0  0  0
  -28.0219  -12.3566   18.6247 C   0  0  0  0  0  0
  -27.6575  -13.2088   19.8702 C   0  0  2  0  0  0
  -28.6992  -13.0201   20.9962 C   0  0  0  0  0  0
  -25.2583  -13.8158   20.5691 C   0  0  0  0  0  0
  -24.1838  -13.0443   20.9196 C   0  0  0  0  0  0
  -24.6387  -11.6910   20.8742 C   0  0  0  0  0  0
  -23.9045  -10.4298   21.0406 C   0  0  0  0  0  0
  -24.3602   -9.4212   21.9184 C   0  0  0  0  0  0
  -23.6290   -8.2244   22.0751 C   0  0  0  0  0  0
  -22.4273   -8.0277   21.3542 C   0  0  0  0  0  0
  -21.9898   -9.0243   20.4643 C   0  0  0  0  0  0
  -22.7220  -10.2130   20.3055 C   0  0  0  0  0  0
  -21.6849   -6.0734   22.5279 C   0  0  0  0  0  0
  -21.4013   -6.5634   23.8215 C   0  0  0  0  0  0
  -21.3658   -5.6786   24.9173 C   0  0  0  0  0  0
  -21.6045   -4.3050   24.7222 C   0  0  0  0  0  0
  -21.8823   -3.8145   23.4342 C   0  0  0  0  0  0
  -21.9196   -4.6963   22.3399 C   0  0  0  0  0  0
  -22.7865  -13.5254   21.1842 C   0  0  0  0  0  0
  -22.1669   -4.2153   21.0979 F   0  0  0  0  0  0
  -21.5621   -3.4526   25.7730 F   0  0  0  0  0  0
  -30.0226  -13.3435   20.4407 N   0  0  0  0  0  0
  -26.3006  -12.9322   20.3339 N   0  0  0  0  0  0
  -25.9310  -11.6489   20.5767 N   0  0  0  0  0  0
  -22.0486  -12.8267   22.0393 N   0  0  0  0  0  0
  -25.4308  -15.1869   20.4087 N   0  0  0  0  0  0
  -31.7951  -14.7362   20.1124 O   0  0  0  0  0  0
  -21.6641   -6.8872   21.4245 O   0  0  0  0  0  0
  -22.3565  -14.5557   20.6666 O   0  0  0  0  0  0
  -24.6197  -31.8632   23.2038 C   0  0  0  0  0  0
  -25.9058  -32.4802   23.8369 C   0  0  1  0  0  0
  -27.2328  -27.3796   20.1216 C   0  0  0  0  0  0
  -25.5894  -33.8607   24.2290 N   0  0  0  0  0  0
  -23.4110  -30.4834   21.5459 C   0  0  2  0  0  0
  -24.8567  -28.9305   20.1255 C   0  0  0  0  0  0
  -22.7428  -29.4641   22.4973 C   0  0  0  0  0  0
  -18.0265  -28.1382   22.8484 C   0  0  0  0  0  0
  -24.1473  -36.7319   23.2642 C   0  0  0  0  0  0
  -25.9432  -30.8119   21.3627 C   0  0  0  0  0  0
  -26.0196  -29.4370   20.7215 C   0  0  0  0  0  0
  -27.2122  -28.6698   20.7139 C   0  0  0  0  0  0
  -26.0536  -26.8941   19.5228 C   0  0  0  0  0  0
  -24.8691  -27.6584   19.5244 C   0  0  0  0  0  0
  -23.6239  -29.8081   20.1647 C   0  0  0  0  0  0
  -25.4100  -36.3106   24.0329 C   0  0  1  0  0  0
  -20.5859  -28.3674   23.1301 C   0  0  2  0  0  0
  -20.6761  -26.9405   22.5418 C   0  0  0  0  0  0
  -19.5747  -26.6379   21.5207 C   0  0  0  0  0  0
  -18.1921  -26.7925   22.1610 C   0  0  0  0  0  0
  -19.1520  -28.8845   23.2883 C   0  0  0  0  0  0
  -18.9456  -30.1454   23.8894 C   0  0  0  0  0  0
  -17.6462  -30.6588   24.0570 C   0  0  0  0  0  0
  -25.9036  -34.9474   23.5112 C   0  0  0  0  0  0
  -16.5346  -29.9093   23.6341 C   0  0  0  0  0  0
  -16.7255  -28.6509   23.0355 C   0  0  0  0  0  0
  -26.4471  -31.6601   25.0724 C   0  0  0  0  0  0
  -25.3736  -31.3757   26.1482 C   0  0  0  0  0  0
  -27.0316  -30.3044   24.6134 C   0  0  0  0  0  0
  -27.6024  -32.4344   25.7500 C   0  0  0  0  0  0
  -27.5568  -37.1817   24.8460 C   0  0  0  0  0  0
  -21.4145  -29.3037   22.3708 N   0  0  0  0  0  0
  -26.4278  -37.3802   23.9412 N   0  0  0  0  0  0
  -24.6767  -31.0690   22.0964 N   0  0  0  0  0  0
  -23.4170  -28.8182   23.3036 O   0  0  0  0  0  0
  -28.3925  -26.6257   20.0503 O   0  0  0  0  0  0
  -26.5603  -34.8934   22.4676 O   0  0  0  0  0  0
  -23.5369  -32.1396   23.7410 O   0  0  0  0  0  0
  -26.4234  -21.1314   23.1785 C   0  0  0  0  0  0
  -26.9930  -19.9773   22.5918 C   0  0  0  0  0  0
  -27.0615  -22.2323   22.7103 C   0  0  0  0  0  0
  -28.0153  -20.3953   21.7573 C   0  0  0  0  0  0
  -26.4970  -18.5890   22.9339 C   0  0  0  0  0  0
  -26.8396  -23.6416   23.1520 C   0  0  0  0  0  0
  -29.0267  -19.5316   20.9736 C   0  0  0  0  0  0
  -28.9970  -17.9739   21.2402 C   0  0  0  0  0  0
  -28.1782  -24.0465   20.3273 C   0  0  0  0  0  0
  -28.8591  -22.7757   21.0000 C   0  0  0  0  0  0
  -30.1030  -17.0452   20.6338 C   0  0  0  0  0  0
  -28.5228  -25.4684   20.9175 C   0  0  0  0  0  0
  -27.9917  -21.8255   21.7533 N   0  0  0  0  0  0
  -29.8523  -15.5968   20.8765 N   0  0  0  0  0  0
  -31.4749  -12.4542   19.1436 H   0  0  0  0  0  0
  -30.3495  -11.3371   19.8612 H   0  0  0  0  0  0
  -29.7526  -11.7559   17.4572 H   0  0  0  0  0  0
  -29.6633  -13.4741   17.7570 H   0  0  0  0  0  0
  -27.8377  -11.3018   18.8307 H   0  0  0  0  0  0
  -27.3727  -12.6174   17.7878 H   0  0  0  0  0  0
  -27.6906  -14.2518   19.5549 H   0  0  0  0  0  0
  -28.6897  -11.9899   21.3543 H   0  0  0  0  0  0
  -28.4576  -13.6337   21.8649 H   0  0  0  0  0  0
  -25.2741   -9.5700   22.4759 H   0  0  0  0  0  0
  -24.0001   -7.4638   22.7466 H   0  0  0  0  0  0
  -21.0825   -8.8749   19.8949 H   0  0  0  0  0  0
  -22.3663  -10.9662   19.6161 H   0  0  0  0  0  0
  -21.2006   -7.6142   23.9720 H   0  0  0  0  0  0
  -21.1478   -6.0512   25.9078 H   0  0  0  0  0  0
  -22.0604   -2.7611   23.2835 H   0  0  0  0  0  0
  -22.4084  -11.9931   22.4804 H   0  0  0  0  0  0
  -21.1093  -13.1297   22.2546 H   0  0  0  0  0  0
  -24.6597  -15.8376   20.5087 H   0  0  0  0  0  0
  -26.2686  -15.6199   20.0424 H   0  0  0  0  0  0
  -26.7131  -32.5488   23.1130 H   0  0  0  0  0  0
  -25.0063  -33.9768   25.0446 H   0  0  0  0  0  0
  -22.7030  -31.3012   21.3993 H   0  0  0  0  0  0
  -23.3724  -35.9665   23.3311 H   0  0  0  0  0  0
  -24.3574  -36.8936   22.2060 H   0  0  0  0  0  0
  -23.7241  -37.6527   23.6662 H   0  0  0  0  0  0
  -26.0550  -31.5661   20.5825 H   0  0  0  0  0  0
  -26.8338  -30.8765   21.9768 H   0  0  0  0  0  0
  -28.1123  -29.0611   21.1669 H   0  0  0  0  0  0
  -26.0534  -25.9238   19.0453 H   0  0  0  0  0  0
  -23.9753  -27.2612   19.0623 H   0  0  0  0  0  0
  -23.7465  -30.5805   19.4047 H   0  0  0  0  0  0
  -22.7440  -29.2360   19.8615 H   0  0  0  0  0  0
  -25.1283  -36.1967   25.0825 H   0  0  0  0  0  0
  -20.9950  -28.3251   24.1417 H   0  0  0  0  0  0
  -20.5671  -26.2286   23.3616 H   0  0  0  0  0  0
  -21.6638  -26.7448   22.1212 H   0  0  0  0  0  0
  -19.6922  -25.6289   21.1237 H   0  0  0  0  0  0
  -19.6696  -27.3195   20.6744 H   0  0  0  0  0  0
  -17.4200  -26.6671   21.3999 H   0  0  0  0  0  0
  -18.0311  -26.0068   22.9009 H   0  0  0  0  0  0
  -19.7943  -30.7267   24.2244 H   0  0  0  0  0  0
  -17.5030  -31.6266   24.5181 H   0  0  0  0  0  0
  -15.5357  -30.3010   23.7669 H   0  0  0  0  0  0
  -15.8643  -28.0840   22.7068 H   0  0  0  0  0  0
  -24.5864  -30.7144   25.7846 H   0  0  0  0  0  0
  -24.8978  -32.2945   26.4924 H   0  0  0  0  0  0
  -25.8080  -30.8932   27.0246 H   0  0  0  0  0  0
  -26.2879  -29.6807   24.1165 H   0  0  0  0  0  0
  -27.4051  -29.7288   25.4610 H   0  0  0  0  0  0
  -27.8722  -30.4353   23.9320 H   0  0  0  0  0  0
  -27.2595  -33.3621   26.2095 H   0  0  0  0  0  0
  -28.3830  -32.6950   25.0342 H   0  0  0  0  0  0
  -28.0702  -31.8476   26.5415 H   0  0  0  0  0  0
  -28.2599  -38.0101   24.7505 H   0  0  0  0  0  0
  -28.1039  -36.2638   24.6269 H   0  0  0  0  0  0
  -27.2297  -37.1462   25.8866 H   0  0  0  0  0  0
  -20.9302  -29.8760   21.6930 H   0  0  0  0  0  0
  -26.0152  -38.2874   24.1420 H   0  0  0  0  0  0
  -25.6275  -21.1525   23.9112 H   0  0  0  0  0  0
  -25.5994  -18.6515   23.5500 H   0  0  0  0  0  0
  -27.2311  -18.0278   23.5113 H   0  0  0  0  0  0
  -26.2264  -18.0267   22.0416 H   0  0  0  0  0  0
  -26.2513  -23.6681   24.0699 H   0  0  0  0  0  0
  -26.2873  -24.2152   22.4082 H   0  0  0  0  0  0
  -27.7847  -24.1344   23.3770 H   0  0  0  0  0  0
  -30.0314  -19.8935   21.1920 H   0  0  0  0  0  0
  -28.8809  -19.6996   19.9066 H   0  0  0  0  0  0
  -28.0370  -17.5944   20.8934 H   0  0  0  0  0  0
  -29.0396  -17.8180   22.3168 H   0  0  0  0  0  0
  -27.0989  -23.9135   20.2592 H   0  0  0  0  0  0
  -28.5133  -24.0609   19.2901 H   0  0  0  0  0  0
  -29.6577  -23.0949   21.6699 H   0  0  0  0  0  0
  -29.3576  -22.2075   20.2138 H   0  0  0  0  0  0
  -31.0776  -17.3183   21.0408 H   0  0  0  0  0  0
  -30.1616  -17.2020   19.5552 H   0  0  0  0  0  0
  -29.5715  -25.4576   21.2144 H   0  0  0  0  0  0
  -27.9729  -25.6672   21.8342 H   0  0  0  0  0  0
  -28.9298  -15.3444   21.1982 H   0  0  0  0  0  0
  1 25  1  0  0  0
  1 30  2  0  0  0
  1 84  1  0  0  0
  2  3  1  0  0  0
  2 25  1  0  0  0
  2 85  1  0  0  0
  2 86  1  0  0  0
  3  4  1  0  0  0
  3 87  1  0  0  0
  3 88  1  0  0  0
  4  5  1  0  0  0
  4 89  1  0  0  0
  4 90  1  0  0  0
  5  6  1  0  0  0
  5 26  1  0  0  0
  5 91  1  0  0  0
  6 25  1  0  0  0
  6 92  1  0  0  0
  6 93  1  0  0  0
  7  8  2  0  0  0
  7 26  1  0  0  0
  7 29  1  0  0  0
  8  9  1  0  0  0
  8 22  1  0  0  0
  9 10  1  0  0  0
  9 27  2  0  0  0
 10 11  2  0  0  0
 10 15  1  0  0  0
 11 12  1  0  0  0
 11 94  1  0  0  0
 12 13  2  0  0  0
 12 95  1  0  0  0
 13 14  1  0  0  0
 13 31  1  0  0  0
 14 15  2  0  0  0
 14 96  1  0  0  0
 15 97  1  0  0  0
 16 17  2  0  0  0
 16 21  1  0  0  0
 16 31  1  0  0  0
 17 18  1  0  0  0
 17 98  1  0  0  0
 18 19  2  0  0  0
 18 99  1  0  0  0
 19 20  1  0  0  0
 19 24  1  0  0  0
 20 21  2  0  0  0
 20100  1  0  0  0
 21 23  1  0  0  0
 22 28  1  0  0  0
 22 32  2  0  0  0
 26 27  1  0  0  0
 28101  1  0  0  0
 28102  1  0  0  0
 29103  1  0  0  0
 29104  1  0  0  0
 33 34  1  0  0  0
 33 66  1  0  0  0
 33 70  2  0  0  0
 34 36  1  0  0  0
 34 59  1  0  0  0
 34105  1  0  0  0
 35 44  2  0  0  0
 35 45  1  0  0  0
 35 68  1  0  0  0
 36 56  1  0  0  0
 36106  1  0  0  0
 37 39  1  0  0  0
 37 47  1  0  0  0
 37 66  1  0  0  0
 37107  1  0  0  0
 38 43  2  0  0  0
 38 46  1  0  0  0
 38 47  1  0  0  0
 39 64  1  0  0  0
 39 67  2  0  0  0
 40 52  1  0  0  0
 40 53  2  0  0  0
 40 58  1  0  0  0
 41108  1  0  0  0
 41109  1  0  0  0
 41110  1  0  0  0
 41 48  1  0  0  0
 42 43  1  0  0  0
 42 66  1  0  0  0
 42111  1  0  0  0
 42112  1  0  0  0
 43 44  1  0  0  0
 44113  1  0  0  0
 45 46  2  0  0  0
 45114  1  0  0  0
 46115  1  0  0  0
 47116  1  0  0  0
 47117  1  0  0  0
 48 56  1  0  0  0
 48 65  1  0  0  0
 48118  1  0  0  0
 49 50  1  0  0  0
 49 53  1  0  0  0
 49 64  1  0  0  0
 49119  1  0  0  0
 50 51  1  0  0  0
 50120  1  0  0  0
 50121  1  0  0  0
 51 52  1  0  0  0
 51122  1  0  0  0
 51123  1  0  0  0
 52124  1  0  0  0
 52125  1  0  0  0
 53 54  1  0  0  0
 54 55  2  0  0  0
 54126  1  0  0  0
 55 57  1  0  0  0
 55127  1  0  0  0
 56 69  2  0  0  0
 57 58  2  0  0  0
 57128  1  0  0  0
 58129  1  0  0  0
 59 60  1  0  0  0
 59 61  1  0  0  0
 59 62  1  0  0  0
 60130  1  0  0  0
 60131  1  0  0  0
 60132  1  0  0  0
 61133  1  0  0  0
 61134  1  0  0  0
 61135  1  0  0  0
 62136  1  0  0  0
 62137  1  0  0  0
 62138  1  0  0  0
 63 65  1  0  0  0
 63139  1  0  0  0
 63140  1  0  0  0
 63141  1  0  0  0
 64142  1  0  0  0
 65143  1  0  0  0
 68 82  1  0  0  0
 71 72  1  0  0  0
 71 73  2  0  0  0
 71144  1  0  0  0
 72 74  2  0  0  0
 72 75  1  0  0  0
 73 76  1  0  0  0
 73 83  1  0  0  0
 74 77  1  0  0  0
 74 83  1  0  0  0
 75145  1  0  0  0
 75146  1  0  0  0
 75147  1  0  0  0
 76148  1  0  0  0
 76149  1  0  0  0
 76150  1  0  0  0
 77 78  1  0  0  0
 77151  1  0  0  0
 77152  1  0  0  0
 78 81  1  0  0  0
 78153  1  0  0  0
 78154  1  0  0  0
 79 80  1  0  0  0
 79 82  1  0  0  0
 79155  1  0  0  0
 79156  1  0  0  0
 80 83  1  0  0  0
 80157  1  0  0  0
 80158  1  0  0  0
 81 84  1  0  0  0
 81159  1  0  0  0
 81160  1  0  0  0
 82161  1  0  0  0
 82162  1  0  0  0
 84163  1  0  0  0
M  ISO  4   1 100  68 101  82 101  84 100
M  END
> <chiral flag>
0

> <version>
0

> <s_m_source_file>
/data/baiqing/PycharmProjects/Reinvent-master-3.2/result/LINK_invent/BTK/process_docking_weight1_custom_sum_contain_oxygen_bond_distance_aromatic_linkinvent_7_9_3/rearranged_h_0090.sdf

> <i_m_source_file_index>
6

> <r_mmod_Potential_Energy-OPLS-2005>
-31.8595504760742

> <r_mmod_Stretch_Energy-OPLS-2005>
61.6746597290039

> <r_mmod_Bend_Energy-OPLS-2005>
127.724044799805

> <r_mmod_Torsional_Energy-OPLS-2005>
250.670776367188

> <r_mmod_Improper_Torsional_Energy-OPLS-2005>
6.04890155792236

> <r_mmod_Van_der_Waal_Energy-OPLS-2005>
120.725204467773

> <r_mmod_Electrostatic_Energy-OPLS-2005>
-411.404998779297

> <r_mmod_Solvation_Energy-OPLS-2005>
-210.786819458008

> <b_mmod_Minimization_Converged-OPLS-2005>
0

> <r_mmod_RMS_Derivative-OPLS-2005>
1.88665378093719

$$$$
6
                    3D
 Structure written by MMmdl.
160168  0  0  1  0            999 V2000
  -30.6322  -14.7845   20.4434 C   0  0  0  0  0  0
  -30.4298  -12.4854   19.4752 C   0  0  0  0  0  0
  -29.5024  -12.5114   18.2414 C   0  0  0  0  0  0
  -28.0265  -12.3538   18.6543 C   0  0  0  0  0  0
  -27.6375  -13.2467   19.8586 C   0  0  2  0  0  0
  -28.6895  -13.2138   20.9910 C   0  0  0  0  0  0
  -25.2413  -13.8021   20.5773 C   0  0  0  0  0  0
  -24.1750  -13.0287   20.9285 C   0  0  0  0  0  0
  -24.6424  -11.6796   20.8818 C   0  0  0  0  0  0
  -23.9095  -10.4184   21.0430 C   0  0  0  0  0  0
  -24.3616   -9.4118   21.9211 C   0  0  0  0  0  0
  -23.6286   -8.2159   22.0759 C   0  0  0  0  0  0
  -22.4271   -8.0227   21.3525 C   0  0  0  0  0  0
  -21.9911   -9.0214   20.4636 C   0  0  0  0  0  0
  -22.7266  -10.2089   20.3072 C   0  0  0  0  0  0
  -21.6827   -6.0702   22.5263 C   0  0  0  0  0  0
  -21.3991   -6.5601   23.8206 C   0  0  0  0  0  0
  -21.3682   -5.6775   24.9162 C   0  0  0  0  0  0
  -21.6065   -4.3035   24.7233 C   0  0  0  0  0  0
  -21.8832   -3.8118   23.4347 C   0  0  0  0  0  0
  -21.9195   -4.6919   22.3403 C   0  0  0  0  0  0
  -22.7766  -13.5093   21.1901 C   0  0  0  0  0  0
  -22.1668   -4.2105   21.0982 F   0  0  0  0  0  0
  -21.5648   -3.4532   25.7745 F   0  0  0  0  0  0
  -29.9901  -13.5590   20.4013 N   0  0  0  0  0  0
  -26.2928  -12.9372   20.3427 N   0  0  0  0  0  0
  -25.9380  -11.6490   20.5861 N   0  0  0  0  0  0
  -22.0418  -12.8115   22.0472 N   0  0  0  0  0  0
  -25.3945  -15.1650   20.4028 N   0  0  0  0  0  0
  -31.8086  -14.8670   20.0907 O   0  0  0  0  0  0
  -21.6607   -6.8833   21.4228 O   0  0  0  0  0  0
  -22.3483  -14.5408   20.6729 O   0  0  0  0  0  0
  -24.6268  -31.8512   23.1981 C   0  0  0  0  0  0
  -25.9098  -32.4734   23.8326 C   0  0  1  0  0  0
  -27.2486  -27.2562   20.1730 C   0  0  0  0  0  0
  -25.5921  -33.8539   24.2244 N   0  0  0  0  0  0
  -23.4302  -30.4675   21.5396 C   0  0  2  0  0  0
  -24.8907  -28.9144   20.1138 C   0  0  0  0  0  0
  -22.7508  -29.4514   22.4899 C   0  0  0  0  0  0
  -18.0309  -28.1399   22.8605 C   0  0  0  0  0  0
  -24.1503  -36.7298   23.2639 C   0  0  0  0  0  0
  -25.9737  -30.7649   21.3840 C   0  0  0  0  0  0
  -26.0539  -29.3862   20.7324 C   0  0  0  0  0  0
  -27.2273  -28.5685   20.7525 C   0  0  0  0  0  0
  -26.0661  -26.8529   19.5073 C   0  0  0  0  0  0
  -24.9026  -27.6548   19.4915 C   0  0  0  0  0  0
  -23.6590  -29.8006   20.1551 C   0  0  0  0  0  0
  -25.4132  -36.3054   24.0312 C   0  0  1  0  0  0
  -20.5893  -28.3696   23.1358 C   0  0  2  0  0  0
  -20.6779  -26.9354   22.5618 C   0  0  0  0  0  0
  -19.5740  -26.6251   21.5474 C   0  0  0  0  0  0
  -18.1953  -26.7860   22.1930 C   0  0  0  0  0  0
  -19.1556  -28.8889   23.2947 C   0  0  0  0  0  0
  -18.9484  -30.1506   23.8970 C   0  0  0  0  0  0
  -17.6487  -30.6630   24.0610 C   0  0  0  0  0  0
  -25.9055  -34.9431   23.5070 C   0  0  0  0  0  0
  -16.5374  -29.9133   23.6382 C   0  0  0  0  0  0
  -16.7310  -28.6523   23.0453 C   0  0  0  0  0  0
  -26.4477  -31.6575   25.0723 C   0  0  0  0  0  0
  -25.3703  -31.3749   26.1443 C   0  0  0  0  0  0
  -27.0345  -30.2986   24.6250 C   0  0  0  0  0  0
  -27.6013  -32.4331   25.7512 C   0  0  0  0  0  0
  -27.5581  -37.1810   24.8458 C   0  0  0  0  0  0
  -21.4203  -29.3000   22.3698 N   0  0  0  0  0  0
  -26.4311  -37.3749   23.9374 N   0  0  0  0  0  0
  -24.6951  -31.0452   22.0982 N   0  0  0  0  0  0
  -23.4221  -28.8057   23.2989 O   0  0  0  0  0  0
  -28.3776  -26.4040   20.2936 O   0  0  0  0  0  0
  -26.5607  -34.8905   22.4627 O   0  0  0  0  0  0
  -23.5424  -32.1337   23.7254 O   0  0  0  0  0  0
  -26.6669  -20.0889   19.7952 C   0  0  0  0  0  0
  -27.3470  -21.3222   19.8666 C   0  0  0  0  0  0
  -27.4926  -19.1315   20.2936 C   0  0  0  0  0  0
  -28.5848  -21.1243   20.4152 C   0  0  0  0  0  0
  -27.1419  -17.7072   20.5413 C   0  0  0  0  0  0
  -31.1317  -19.4788   21.4362 C   0  0  0  0  0  0
  -29.5014  -22.3579   20.6936 C   0  0  0  0  0  0
  -28.8903  -23.8306   21.0518 C   0  0  0  0  0  0
  -30.1806  -17.3810   20.1866 C   0  0  0  0  0  0
  -28.3931  -24.9288   19.9717 C   0  0  0  0  0  0
  -29.8449  -18.7163   21.0829 C   0  0  2  0  0  0
  -28.7479  -19.6752   20.5824 N   0  0  0  0  0  0
  -29.8852  -15.9380   20.6516 N   0  0  0  0  0  0
  -31.4616  -12.6226   19.1476 H   0  0  0  0  0  0
  -30.3936  -11.5135   19.9755 H   0  0  0  0  0  0
  -29.7764  -11.7179   17.5458 H   0  0  0  0  0  0
  -29.6337  -13.4511   17.7039 H   0  0  0  0  0  0
  -27.8613  -11.3050   18.9009 H   0  0  0  0  0  0
  -27.3742  -12.5719   17.8082 H   0  0  0  0  0  0
  -27.6144  -14.2688   19.4807 H   0  0  0  0  0  0
  -28.7241  -12.2316   21.4652 H   0  0  0  0  0  0
  -28.4231  -13.9230   21.7766 H   0  0  0  0  0  0
  -25.2773   -9.5558   22.4787 H   0  0  0  0  0  0
  -23.9979   -7.4524   22.7466 H   0  0  0  0  0  0
  -21.0854   -8.8763   19.8922 H   0  0  0  0  0  0
  -22.3779  -10.9635   19.6167 H   0  0  0  0  0  0
  -21.1964   -7.6108   23.9690 H   0  0  0  0  0  0
  -21.1500   -6.0495   25.9074 H   0  0  0  0  0  0
  -22.0606   -2.7569   23.2870 H   0  0  0  0  0  0
  -22.4044  -11.9814   22.4892 H   0  0  0  0  0  0
  -21.1015  -13.1127   22.2630 H   0  0  0  0  0  0
  -24.6136  -15.8083   20.4639 H   0  0  0  0  0  0
  -26.2335  -15.5857   20.0315 H   0  0  0  0  0  0
  -26.7175  -32.5397   23.1085 H   0  0  0  0  0  0
  -25.0145  -33.9708   25.0440 H   0  0  0  0  0  0
  -22.7234  -31.2856   21.3878 H   0  0  0  0  0  0
  -23.3736  -35.9655   23.3301 H   0  0  0  0  0  0
  -24.3623  -36.8918   22.2058 H   0  0  0  0  0  0
  -23.7291  -37.6515   23.6675 H   0  0  0  0  0  0
  -26.1084  -31.5263   20.6140 H   0  0  0  0  0  0
  -26.8480  -30.8180   22.0211 H   0  0  0  0  0  0
  -28.1114  -28.9224   21.2635 H   0  0  0  0  0  0
  -25.9974  -25.9021   19.0058 H   0  0  0  0  0  0
  -24.0176  -27.2799   18.9965 H   0  0  0  0  0  0
  -23.8005  -30.5785   19.4028 H   0  0  0  0  0  0
  -22.7775  -29.2407   19.8360 H   0  0  0  0  0  0
  -25.1314  -36.1910   25.0807 H   0  0  0  0  0  0
  -20.9926  -28.3339   24.1487 H   0  0  0  0  0  0
  -20.5735  -26.2341   23.3932 H   0  0  0  0  0  0
  -21.6577  -26.7317   22.1330 H   0  0  0  0  0  0
  -19.6899  -25.6156   21.1491 H   0  0  0  0  0  0
  -19.6607  -27.3056   20.7013 H   0  0  0  0  0  0
  -17.4221  -26.6417   21.4357 H   0  0  0  0  0  0
  -18.0406  -26.0162   22.9498 H   0  0  0  0  0  0
  -19.7928  -30.7347   24.2392 H   0  0  0  0  0  0
  -17.5034  -31.6265   24.5328 H   0  0  0  0  0  0
  -15.5376  -30.3033   23.7724 H   0  0  0  0  0  0
  -15.8715  -28.0748   22.7311 H   0  0  0  0  0  0
  -24.5876  -30.7092   25.7779 H   0  0  0  0  0  0
  -24.8918  -32.2944   26.4833 H   0  0  0  0  0  0
  -25.8026  -30.8959   27.0238 H   0  0  0  0  0  0
  -26.2967  -29.6714   24.1236 H   0  0  0  0  0  0
  -27.3957  -29.7261   25.4800 H   0  0  0  0  0  0
  -27.8858  -30.4225   23.9551 H   0  0  0  0  0  0
  -27.2581  -33.3620   26.2078 H   0  0  0  0  0  0
  -28.3844  -32.6899   25.0367 H   0  0  0  0  0  0
  -28.0654  -31.8470   26.5453 H   0  0  0  0  0  0
  -28.2570  -38.0124   24.7467 H   0  0  0  0  0  0
  -28.1095  -36.2644   24.6323 H   0  0  0  0  0  0
  -27.2297  -37.1502   25.8861 H   0  0  0  0  0  0
  -20.9329  -29.8703   21.6928 H   0  0  0  0  0  0
  -26.0172  -38.2815   24.1361 H   0  0  0  0  0  0
  -25.6503  -19.9201   19.4597 H   0  0  0  0  0  0
  -26.9454  -22.2820   19.5688 H   0  0  0  0  0  0
  -26.0618  -17.6168   20.5946 H   0  0  0  0  0  0
  -27.5309  -17.3369   21.4908 H   0  0  0  0  0  0
  -27.4838  -17.0667   19.7298 H   0  0  0  0  0  0
  -31.5492  -20.0105   20.5815 H   0  0  0  0  0  0
  -31.8977  -18.8062   21.8278 H   0  0  0  0  0  0
  -30.9405  -20.2038   22.2260 H   0  0  0  0  0  0
  -30.1962  -22.4800   19.8657 H   0  0  0  0  0  0
  -30.1344  -22.0977   21.5381 H   0  0  0  0  0  0
  -29.7153  -24.3283   21.5605 H   0  0  0  0  0  0
  -28.1298  -23.7111   21.8250 H   0  0  0  0  0  0
  -29.6683  -17.4914   19.2307 H   0  0  0  0  0  0
  -31.2282  -17.4307   19.8921 H   0  0  0  0  0  0
  -27.4297  -24.5846   19.6142 H   0  0  0  0  0  0
  -29.0678  -24.8354   19.1208 H   0  0  0  0  0  0
  -29.4941  -18.3391   22.0432 H   0  0  0  0  0  0
  -28.9279  -15.7662   20.9179 H   0  0  0  0  0  0
  1 25  1  0  0  0
  1 30  2  0  0  0
  1 83  1  0  0  0
  2  3  1  0  0  0
  2 25  1  0  0  0
  2 84  1  0  0  0
  2 85  1  0  0  0
  3  4  1  0  0  0
  3 86  1  0  0  0
  3 87  1  0  0  0
  4  5  1  0  0  0
  4 88  1  0  0  0
  4 89  1  0  0  0
  5  6  1  0  0  0
  5 26  1  0  0  0
  5 90  1  0  0  0
  6 25  1  0  0  0
  6 91  1  0  0  0
  6 92  1  0  0  0
  7  8  2  0  0  0
  7 26  1  0  0  0
  7 29  1  0  0  0
  8  9  1  0  0  0
  8 22  1  0  0  0
  9 10  1  0  0  0
  9 27  2  0  0  0
 10 11  2  0  0  0
 10 15  1  0  0  0
 11 12  1  0  0  0
 11 93  1  0  0  0
 12 13  2  0  0  0
 12 94  1  0  0  0
 13 14  1  0  0  0
 13 31  1  0  0  0
 14 15  2  0  0  0
 14 95  1  0  0  0
 15 96  1  0  0  0
 16 17  2  0  0  0
 16 21  1  0  0  0
 16 31  1  0  0  0
 17 18  1  0  0  0
 17 97  1  0  0  0
 18 19  2  0  0  0
 18 98  1  0  0  0
 19 20  1  0  0  0
 19 24  1  0  0  0
 20 21  2  0  0  0
 20 99  1  0  0  0
 21 23  1  0  0  0
 22 28  1  0  0  0
 22 32  2  0  0  0
 26 27  1  0  0  0
 28100  1  0  0  0
 28101  1  0  0  0
 29102  1  0  0  0
 29103  1  0  0  0
 33 34  1  0  0  0
 33 66  1  0  0  0
 33 70  2  0  0  0
 34 36  1  0  0  0
 34 59  1  0  0  0
 34104  1  0  0  0
 35 44  2  0  0  0
 35 45  1  0  0  0
 35 68  1  0  0  0
 36 56  1  0  0  0
 36105  1  0  0  0
 37 39  1  0  0  0
 37 47  1  0  0  0
 37 66  1  0  0  0
 37106  1  0  0  0
 38 43  2  0  0  0
 38 46  1  0  0  0
 38 47  1  0  0  0
 39 64  1  0  0  0
 39 67  2  0  0  0
 40 52  1  0  0  0
 40 53  2  0  0  0
 40 58  1  0  0  0
 41107  1  0  0  0
 41108  1  0  0  0
 41109  1  0  0  0
 41 48  1  0  0  0
 42 43  1  0  0  0
 42 66  1  0  0  0
 42110  1  0  0  0
 42111  1  0  0  0
 43 44  1  0  0  0
 44112  1  0  0  0
 45 46  2  0  0  0
 45113  1  0  0  0
 46114  1  0  0  0
 47115  1  0  0  0
 47116  1  0  0  0
 48 56  1  0  0  0
 48 65  1  0  0  0
 48117  1  0  0  0
 49 50  1  0  0  0
 49 53  1  0  0  0
 49 64  1  0  0  0
 49118  1  0  0  0
 50 51  1  0  0  0
 50119  1  0  0  0
 50120  1  0  0  0
 51 52  1  0  0  0
 51121  1  0  0  0
 51122  1  0  0  0
 52123  1  0  0  0
 52124  1  0  0  0
 53 54  1  0  0  0
 54 55  2  0  0  0
 54125  1  0  0  0
 55 57  1  0  0  0
 55126  1  0  0  0
 56 69  2  0  0  0
 57 58  2  0  0  0
 57127  1  0  0  0
 58128  1  0  0  0
 59 60  1  0  0  0
 59 61  1  0  0  0
 59 62  1  0  0  0
 60129  1  0  0  0
 60130  1  0  0  0
 60131  1  0  0  0
 61132  1  0  0  0
 61133  1  0  0  0
 61134  1  0  0  0
 62135  1  0  0  0
 62136  1  0  0  0
 62137  1  0  0  0
 63 65  1  0  0  0
 63138  1  0  0  0
 63139  1  0  0  0
 63140  1  0  0  0
 64141  1  0  0  0
 65142  1  0  0  0
 68 80  1  0  0  0
 71 72  1  0  0  0
 71 73  2  0  0  0
 71143  1  0  0  0
 72 74  2  0  0  0
 72144  1  0  0  0
 73 75  1  0  0  0
 73 82  1  0  0  0
 74 77  1  0  0  0
 74 82  1  0  0  0
 75145  1  0  0  0
 75146  1  0  0  0
 75147  1  0  0  0
 76148  1  0  0  0
 76149  1  0  0  0
 76150  1  0  0  0
 76 81  1  0  0  0
 77 78  1  0  0  0
 77151  1  0  0  0
 77152  1  0  0  0
 78 80  1  0  0  0
 78153  1  0  0  0
 78154  1  0  0  0
 79 81  1  0  0  0
 79 83  1  0  0  0
 79155  1  0  0  0
 79156  1  0  0  0
 80157  1  0  0  0
 80158  1  0  0  0
 81 82  1  0  0  0
 81159  1  0  0  0
 83160  1  0  0  0
M  ISO  4   1 100  68 101  80 101  83 100
M  END
> <chiral flag>
0

> <version>
0

> <s_m_source_file>
/data/baiqing/PycharmProjects/Reinvent-master-3.2/result/LINK_invent/BTK/process_docking_weight1_custom_sum_contain_oxygen_bond_distance_aromatic_linkinvent_7_9_3/rearranged_h_0090.sdf

> <i_m_source_file_index>
7

> <r_mmod_Potential_Energy-OPLS-2005>
234.34651184082

> <r_mmod_Stretch_Energy-OPLS-2005>
147.440414428711

> <r_mmod_Bend_Energy-OPLS-2005>
226.966400146484

> <r_mmod_Torsional_Energy-OPLS-2005>
256.425689697266

> <r_mmod_Improper_Torsional_Energy-OPLS-2005>
6.94753217697144

> <r_mmod_Van_der_Waal_Energy-OPLS-2005>
123.483497619629

> <r_mmod_Electrostatic_Energy-OPLS-2005>
-415.005523681641

> <r_mmod_Solvation_Energy-OPLS-2005>
-210.555068969727

> <b_mmod_Minimization_Converged-OPLS-2005>
0

> <r_mmod_RMS_Derivative-OPLS-2005>
5.85012483596802

$$$$
7
                    3D
 Structure written by MMmdl.
172180  0  0  1  0            999 V2000
  -30.7477  -14.3583   20.6620 C   0  0  0  0  0  0
  -30.4299  -12.2819   19.3815 C   0  0  0  0  0  0
  -29.4898  -12.5470   18.1904 C   0  0  0  0  0  0
  -28.0098  -12.4098   18.5978 C   0  0  0  0  0  0
  -27.6756  -13.1986   19.8929 C   0  0  2  0  0  0
  -28.7191  -12.8911   20.9929 C   0  0  0  0  0  0
  -25.2619  -13.8141   20.5716 C   0  0  0  0  0  0
  -24.1858  -13.0436   20.9205 C   0  0  0  0  0  0
  -24.6400  -11.6899   20.8758 C   0  0  0  0  0  0
  -23.9046  -10.4296   21.0427 C   0  0  0  0  0  0
  -24.3605   -9.4196   21.9199 C   0  0  0  0  0  0
  -23.6291   -8.2229   22.0759 C   0  0  0  0  0  0
  -22.4264   -8.0265   21.3562 C   0  0  0  0  0  0
  -21.9901   -9.0216   20.4657 C   0  0  0  0  0  0
  -22.7225  -10.2098   20.3083 C   0  0  0  0  0  0
  -21.6845   -6.0747   22.5312 C   0  0  0  0  0  0
  -21.4009   -6.5645   23.8244 C   0  0  0  0  0  0
  -21.3663   -5.6788   24.9198 C   0  0  0  0  0  0
  -21.6037   -4.3050   24.7230 C   0  0  0  0  0  0
  -21.8828   -3.8156   23.4356 C   0  0  0  0  0  0
  -21.9195   -4.6980   22.3418 C   0  0  0  0  0  0
  -22.7885  -13.5249   21.1871 C   0  0  0  0  0  0
  -22.1682   -4.2182   21.0989 F   0  0  0  0  0  0
  -21.5605   -3.4531   25.7744 F   0  0  0  0  0  0
  -30.0655  -13.2003   20.4664 N   0  0  0  0  0  0
  -26.3087  -12.9310   20.3453 N   0  0  0  0  0  0
  -25.9327  -11.6471   20.5761 N   0  0  0  0  0  0
  -22.0484  -12.8276   22.0412 N   0  0  0  0  0  0
  -25.4331  -15.1861   20.4079 N   0  0  0  0  0  0
  -31.7517  -14.6842   20.0244 O   0  0  0  0  0  0
  -21.6612   -6.8874   21.4274 O   0  0  0  0  0  0
  -22.3597  -14.5559   20.6696 O   0  0  0  0  0  0
  -24.6102  -31.8706   23.2135 C   0  0  0  0  0  0
  -25.9019  -32.4848   23.8414 C   0  0  1  0  0  0
  -27.2463  -27.4690   20.1057 C   0  0  0  0  0  0
  -25.5918  -33.8647   24.2366 N   0  0  0  0  0  0
  -23.3984  -30.4929   21.5496 C   0  0  2  0  0  0
  -24.8508  -28.9602   20.1190 C   0  0  0  0  0  0
  -22.7384  -29.4670   22.4987 C   0  0  0  0  0  0
  -18.0272  -28.1393   22.8495 C   0  0  0  0  0  0
  -24.1476  -36.7302   23.2635 C   0  0  0  0  0  0
  -25.9225  -30.8462   21.3632 C   0  0  0  0  0  0
  -26.0045  -29.4785   20.7224 C   0  0  0  0  0  0
  -27.2048  -28.7369   20.7205 C   0  0  0  0  0  0
  -26.0850  -26.9656   19.4845 C   0  0  0  0  0  0
  -24.8835  -27.6989   19.4996 C   0  0  0  0  0  0
  -23.6105  -29.8226   20.1643 C   0  0  0  0  0  0
  -25.4097  -36.3127   24.0349 C   0  0  1  0  0  0
  -20.5856  -28.3677   23.1320 C   0  0  2  0  0  0
  -20.6766  -26.9423   22.5413 C   0  0  0  0  0  0
  -19.5753  -26.6405   21.5207 C   0  0  0  0  0  0
  -18.1926  -26.7940   22.1618 C   0  0  0  0  0  0
  -19.1516  -28.8850   23.2907 C   0  0  0  0  0  0
  -18.9450  -30.1454   23.8921 C   0  0  0  0  0  0
  -17.6452  -30.6595   24.0580 C   0  0  0  0  0  0
  -25.9022  -34.9492   23.5140 C   0  0  0  0  0  0
  -16.5342  -29.9106   23.6325 C   0  0  0  0  0  0
  -16.7258  -28.6528   23.0342 C   0  0  0  0  0  0
  -26.4480  -31.6600   25.0699 C   0  0  0  0  0  0
  -25.3789  -31.3712   26.1484 C   0  0  0  0  0  0
  -27.0304  -30.3059   24.6041 C   0  0  0  0  0  0
  -27.6066  -32.4311   25.7457 C   0  0  0  0  0  0
  -27.5587  -37.1808   24.8471 C   0  0  0  0  0  0
  -21.4119  -29.3046   22.3723 N   0  0  0  0  0  0
  -26.4291  -37.3803   23.9421 N   0  0  0  0  0  0
  -24.6605  -31.0831   22.1021 N   0  0  0  0  0  0
  -23.4157  -28.8218   23.3029 O   0  0  0  0  0  0
  -28.4330  -26.7804   20.0324 O   0  0  0  0  0  0
  -26.5551  -34.8924   22.4678 O   0  0  0  0  0  0
  -23.5307  -32.1452   23.7555 O   0  0  0  0  0  0
  -28.5697  -19.7087   20.4532 C   0  0  0  0  0  0
  -27.7329  -20.6230   21.1482 C   0  0  0  0  0  0
  -28.5960  -18.5288   21.1404 C   0  0  0  0  0  0
  -27.3487  -20.0100   22.3095 C   0  0  0  0  0  0
  -26.4815  -20.5684   23.3982 C   0  0  0  0  0  0
  -25.8183  -16.0145   24.1656 C   0  0  0  0  0  0
  -28.3694  -17.9058   24.6088 C   0  0  0  0  0  0
  -27.3011  -21.9809   20.6540 C   0  0  0  0  0  0
  -29.1805  -17.2091   20.7204 C   0  0  0  0  0  0
  -26.0904  -17.3807   23.5246 C   0  0  0  0  0  0
  -28.2406  -23.1220   21.0631 C   0  0  0  0  0  0
  -27.7566  -24.4587   20.4817 C   0  0  0  0  0  0
  -30.3016  -16.6180   21.6087 C   0  0  0  0  0  0
  -28.5925  -25.6730   20.9172 C   0  0  0  0  0  0
  -27.5901  -17.6505   23.3042 C   0  0  1  0  0  0
  -27.8379  -18.6982   22.3004 N   0  0  0  0  0  0
  -30.2090  -15.1597   21.5822 N   0  0  0  0  0  0
  -31.4717  -12.3935   19.0736 H   0  0  0  0  0  0
  -30.3326  -11.2494   19.7219 H   0  0  0  0  0  0
  -29.7221  -11.8669   17.3697 H   0  0  0  0  0  0
  -29.6627  -13.5540   17.8085 H   0  0  0  0  0  0
  -27.7957  -11.3506   18.7408 H   0  0  0  0  0  0
  -27.3701  -12.7430   17.7786 H   0  0  0  0  0  0
  -27.7473  -14.2607   19.6588 H   0  0  0  0  0  0
  -28.6763  -11.8308   21.2526 H   0  0  0  0  0  0
  -28.4726  -13.4189   21.9128 H   0  0  0  0  0  0
  -25.2770   -9.5640   22.4725 H   0  0  0  0  0  0
  -24.0032   -7.4617   22.7452 H   0  0  0  0  0  0
  -21.0849   -8.8714   19.8932 H   0  0  0  0  0  0
  -22.3731  -10.9606   19.6154 H   0  0  0  0  0  0
  -21.2025   -7.6146   23.9766 H   0  0  0  0  0  0
  -21.1474   -6.0513   25.9098 H   0  0  0  0  0  0
  -22.0607   -2.7629   23.2852 H   0  0  0  0  0  0
  -22.4071  -11.9980   22.4900 H   0  0  0  0  0  0
  -21.1056  -13.1254   22.2461 H   0  0  0  0  0  0
  -24.6675  -15.8409   20.5260 H   0  0  0  0  0  0
  -26.2939  -15.6294   20.1162 H   0  0  0  0  0  0
  -26.7089  -32.5603   23.1189 H   0  0  0  0  0  0
  -25.0215  -33.9815   25.0617 H   0  0  0  0  0  0
  -22.6874  -31.3077   21.4076 H   0  0  0  0  0  0
  -23.3750  -35.9626   23.3318 H   0  0  0  0  0  0
  -24.3580  -36.8885   22.2051 H   0  0  0  0  0  0
  -23.7205  -37.6509   23.6608 H   0  0  0  0  0  0
  -26.0230  -31.6042   20.5855 H   0  0  0  0  0  0
  -26.8142  -30.9119   21.9738 H   0  0  0  0  0  0
  -28.0984  -29.1425   21.1754 H   0  0  0  0  0  0
  -26.1099  -26.0186   18.9676 H   0  0  0  0  0  0
  -24.0041  -27.2942   19.0173 H   0  0  0  0  0  0
  -23.7256  -30.5930   19.4013 H   0  0  0  0  0  0
  -22.7367  -29.2392   19.8666 H   0  0  0  0  0  0
  -25.1273  -36.2010   25.0846 H   0  0  0  0  0  0
  -20.9960  -28.3256   24.1436 H   0  0  0  0  0  0
  -20.5685  -26.2290   23.3603 H   0  0  0  0  0  0
  -21.6643  -26.7486   22.1210 H   0  0  0  0  0  0
  -19.6905  -25.6319   21.1244 H   0  0  0  0  0  0
  -19.6688  -27.3210   20.6740 H   0  0  0  0  0  0
  -17.4202  -26.6689   21.4018 H   0  0  0  0  0  0
  -18.0324  -26.0078   22.9016 H   0  0  0  0  0  0
  -19.7926  -30.7264   24.2304 H   0  0  0  0  0  0
  -17.5013  -31.6282   24.5184 H   0  0  0  0  0  0
  -15.5352  -30.3028   23.7629 H   0  0  0  0  0  0
  -15.8656  -28.0862   22.7035 H   0  0  0  0  0  0
  -24.5923  -30.7095   25.7845 H   0  0  0  0  0  0
  -24.9033  -32.2882   26.4982 H   0  0  0  0  0  0
  -25.8193  -30.8855   27.0205 H   0  0  0  0  0  0
  -26.2833  -29.6822   24.1135 H   0  0  0  0  0  0
  -27.4140  -29.7301   25.4471 H   0  0  0  0  0  0
  -27.8627  -30.4401   23.9131 H   0  0  0  0  0  0
  -27.2695  -33.3590   26.2107 H   0  0  0  0  0  0
  -28.3850  -32.6929   25.0268 H   0  0  0  0  0  0
  -28.0770  -31.8395   26.5332 H   0  0  0  0  0  0
  -28.2616  -38.0094   24.7532 H   0  0  0  0  0  0
  -28.1071  -36.2636   24.6282 H   0  0  0  0  0  0
  -27.2312  -37.1461   25.8872 H   0  0  0  0  0  0
  -20.9266  -29.8791   21.6979 H   0  0  0  0  0  0
  -26.0192  -38.2879   24.1440 H   0  0  0  0  0  0
  -29.0385  -19.8798   19.4931 H   0  0  0  0  0  0
  -26.4537  -21.6565   23.3676 H   0  0  0  0  0  0
  -26.8418  -20.2988   24.3854 H   0  0  0  0  0  0
  -25.4524  -20.2252   23.2975 H   0  0  0  0  0  0
  -24.7513  -15.8849   24.3507 H   0  0  0  0  0  0
  -26.3324  -15.9225   25.1220 H   0  0  0  0  0  0
  -26.1431  -15.1970   23.5196 H   0  0  0  0  0  0
  -28.4693  -16.9847   25.1833 H   0  0  0  0  0  0
  -27.8808  -18.6309   25.2555 H   0  0  0  0  0  0
  -29.3764  -18.2691   24.4058 H   0  0  0  0  0  0
  -26.2929  -22.1849   21.0173 H   0  0  0  0  0  0
  -27.2228  -21.9313   19.5669 H   0  0  0  0  0  0
  -29.5501  -17.2889   19.6967 H   0  0  0  0  0  0
  -28.3516  -16.5042   20.6495 H   0  0  0  0  0  0
  -25.6546  -18.1532   24.1540 H   0  0  0  0  0  0
  -25.5672  -17.4297   22.5682 H   0  0  0  0  0  0
  -29.2463  -22.9116   20.6979 H   0  0  0  0  0  0
  -28.3070  -23.1829   22.1489 H   0  0  0  0  0  0
  -26.7166  -24.6203   20.7665 H   0  0  0  0  0  0
  -27.7766  -24.3877   19.3936 H   0  0  0  0  0  0
  -31.2862  -16.9727   21.2954 H   0  0  0  0  0  0
  -30.1939  -16.9233   22.6469 H   0  0  0  0  0  0
  -29.6503  -25.4062   20.8964 H   0  0  0  0  0  0
  -28.3667  -25.9589   21.9456 H   0  0  0  0  0  0
  -27.9746  -16.7164   22.9060 H   0  0  0  0  0  0
  -29.4744  -14.7432   22.1345 H   0  0  0  0  0  0
  1 25  1  0  0  0
  1 30  2  0  0  0
  1 87  1  0  0  0
  2  3  1  0  0  0
  2 25  1  0  0  0
  2 88  1  0  0  0
  2 89  1  0  0  0
  3  4  1  0  0  0
  3 90  1  0  0  0
  3 91  1  0  0  0
  4  5  1  0  0  0
  4 92  1  0  0  0
  4 93  1  0  0  0
  5  6  1  0  0  0
  5 26  1  0  0  0
  5 94  1  0  0  0
  6 25  1  0  0  0
  6 95  1  0  0  0
  6 96  1  0  0  0
  7  8  2  0  0  0
  7 26  1  0  0  0
  7 29  1  0  0  0
  8  9  1  0  0  0
  8 22  1  0  0  0
  9 10  1  0  0  0
  9 27  2  0  0  0
 10 11  2  0  0  0
 10 15  1  0  0  0
 11 12  1  0  0  0
 11 97  1  0  0  0
 12 13  2  0  0  0
 12 98  1  0  0  0
 13 14  1  0  0  0
 13 31  1  0  0  0
 14 15  2  0  0  0
 14 99  1  0  0  0
 15100  1  0  0  0
 16 17  2  0  0  0
 16 21  1  0  0  0
 16 31  1  0  0  0
 17 18  1  0  0  0
 17101  1  0  0  0
 18 19  2  0  0  0
 18102  1  0  0  0
 19 20  1  0  0  0
 19 24  1  0  0  0
 20 21  2  0  0  0
 20103  1  0  0  0
 21 23  1  0  0  0
 22 28  1  0  0  0
 22 32  2  0  0  0
 26 27  1  0  0  0
 28104  1  0  0  0
 28105  1  0  0  0
 29106  1  0  0  0
 29107  1  0  0  0
 33 34  1  0  0  0
 33 66  1  0  0  0
 33 70  2  0  0  0
 34 36  1  0  0  0
 34 59  1  0  0  0
 34108  1  0  0  0
 35 44  2  0  0  0
 35 45  1  0  0  0
 35 68  1  0  0  0
 36 56  1  0  0  0
 36109  1  0  0  0
 37 39  1  0  0  0
 37 47  1  0  0  0
 37 66  1  0  0  0
 37110  1  0  0  0
 38 43  2  0  0  0
 38 46  1  0  0  0
 38 47  1  0  0  0
 39 64  1  0  0  0
 39 67  2  0  0  0
 40 52  1  0  0  0
 40 53  2  0  0  0
 40 58  1  0  0  0
 41111  1  0  0  0
 41112  1  0  0  0
 41113  1  0  0  0
 41 48  1  0  0  0
 42 43  1  0  0  0
 42 66  1  0  0  0
 42114  1  0  0  0
 42115  1  0  0  0
 43 44  1  0  0  0
 44116  1  0  0  0
 45 46  2  0  0  0
 45117  1  0  0  0
 46118  1  0  0  0
 47119  1  0  0  0
 47120  1  0  0  0
 48 56  1  0  0  0
 48 65  1  0  0  0
 48121  1  0  0  0
 49 50  1  0  0  0
 49 53  1  0  0  0
 49 64  1  0  0  0
 49122  1  0  0  0
 50 51  1  0  0  0
 50123  1  0  0  0
 50124  1  0  0  0
 51 52  1  0  0  0
 51125  1  0  0  0
 51126  1  0  0  0
 52127  1  0  0  0
 52128  1  0  0  0
 53 54  1  0  0  0
 54 55  2  0  0  0
 54129  1  0  0  0
 55 57  1  0  0  0
 55130  1  0  0  0
 56 69  2  0  0  0
 57 58  2  0  0  0
 57131  1  0  0  0
 58132  1  0  0  0
 59 60  1  0  0  0
 59 61  1  0  0  0
 59 62  1  0  0  0
 60133  1  0  0  0
 60134  1  0  0  0
 60135  1  0  0  0
 61136  1  0  0  0
 61137  1  0  0  0
 61138  1  0  0  0
 62139  1  0  0  0
 62140  1  0  0  0
 62141  1  0  0  0
 63 65  1  0  0  0
 63142  1  0  0  0
 63143  1  0  0  0
 63144  1  0  0  0
 64145  1  0  0  0
 65146  1  0  0  0
 68 84  1  0  0  0
 71 72  1  0  0  0
 71 73  2  0  0  0
 71147  1  0  0  0
 72 74  2  0  0  0
 72 78  1  0  0  0
 73 79  1  0  0  0
 73 86  1  0  0  0
 74 75  1  0  0  0
 74 86  1  0  0  0
 75148  1  0  0  0
 75149  1  0  0  0
 75150  1  0  0  0
 76 80  1  0  0  0
 76151  1  0  0  0
 76152  1  0  0  0
 76153  1  0  0  0
 77154  1  0  0  0
 77155  1  0  0  0
 77156  1  0  0  0
 77 85  1  0  0  0
 78 81  1  0  0  0
 78157  1  0  0  0
 78158  1  0  0  0
 79 83  1  0  0  0
 79159  1  0  0  0
 79160  1  0  0  0
 80 85  1  0  0  0
 80161  1  0  0  0
 80162  1  0  0  0
 81 82  1  0  0  0
 81163  1  0  0  0
 81164  1  0  0  0
 82 84  1  0  0  0
 82165  1  0  0  0
 82166  1  0  0  0
 83 87  1  0  0  0
 83167  1  0  0  0
 83168  1  0  0  0
 84169  1  0  0  0
 84170  1  0  0  0
 85 86  1  0  0  0
 85171  1  0  0  0
 87172  1  0  0  0
M  ISO  4   1 100  68 101  84 101  87 100
M  END
> <chiral flag>
0

> <version>
0

> <s_m_source_file>
/data/baiqing/PycharmProjects/Reinvent-master-3.2/result/LINK_invent/BTK/process_docking_weight1_custom_sum_contain_oxygen_bond_distance_aromatic_linkinvent_7_9_3/rearranged_h_0090.sdf

> <i_m_source_file_index>
8

> <r_mmod_Potential_Energy-OPLS-2005>
-88.3979873657227

> <r_mmod_Stretch_Energy-OPLS-2005>
32.9381217956543

> <r_mmod_Bend_Energy-OPLS-2005>
99.5642547607422

> <r_mmod_Torsional_Energy-OPLS-2005>
267.567352294922

> <r_mmod_Improper_Torsional_Energy-OPLS-2005>
3.84432435035706

> <r_mmod_Van_der_Waal_Energy-OPLS-2005>
119.844261169434

> <r_mmod_Electrostatic_Energy-OPLS-2005>
-418.669738769531

> <r_mmod_Solvation_Energy-OPLS-2005>
-200.443496704102

> <b_mmod_Minimization_Converged-OPLS-2005>
0

> <r_mmod_RMS_Derivative-OPLS-2005>
3.50723123550415

$$$$
8
                    3D
 Structure written by MMmdl.
167175  0  0  1  0            999 V2000
  -31.2284  -14.7096   21.1255 C   0  0  0  0  0  0
  -30.9030  -13.7298   18.8746 C   0  0  0  0  0  0
  -29.5045  -13.6637   17.4893 C   0  0  0  0  0  0
  -27.6474  -13.4744   18.0760 C   0  0  0  0  0  0
  -27.3097  -13.4350   19.9848 C   0  0  2  0  0  0
  -28.7739  -13.4028   21.2693 C   0  0  0  0  0  0
  -24.9966  -13.8628   20.6823 C   0  0  0  0  0  0
  -23.9917  -13.0276   20.9871 C   0  0  0  0  0  0
  -24.5099  -11.7002   20.9356 C   0  0  0  0  0  0
  -23.8446  -10.4154   21.0644 C   0  0  0  0  0  0
  -24.3294   -9.4110   21.9281 C   0  0  0  0  0  0
  -23.6165   -8.2044   22.0707 C   0  0  0  0  0  0
  -22.4158   -8.0047   21.3485 C   0  0  0  0  0  0
  -21.9677   -8.9950   20.4586 C   0  0  0  0  0  0
  -22.6801  -10.1914   20.3114 C   0  0  0  0  0  0
  -21.6801   -6.0612   22.5287 C   0  0  0  0  0  0
  -21.3969   -6.5568   23.8201 C   0  0  0  0  0  0
  -21.3652   -5.6758   24.9190 C   0  0  0  0  0  0
  -21.6061   -4.3020   24.7270 C   0  0  0  0  0  0
  -21.8828   -3.8068   23.4408 C   0  0  0  0  0  0
  -21.9177   -4.6854   22.3441 C   0  0  0  0  0  0
  -22.6040  -13.4787   21.2257 C   0  0  0  0  0  0
  -22.1657   -4.2039   21.1021 F   0  0  0  0  0  0
  -21.5647   -3.4527   25.7798 F   0  0  0  0  0  0
  -30.4399  -13.7432   20.6384 N   0  0  0  0  0  0
  -26.0594  -13.0173   20.4480 N   0  0  0  0  0  0
  -25.7934  -11.7209   20.6803 N   0  0  0  0  0  0
  -21.8940  -12.7738   22.0892 N   0  0  0  0  0  0
  -25.0558  -15.2631   20.5733 N   0  0  0  0  0  0
  -32.3717  -14.7854   20.6935 O   0  0  0  0  0  0
  -21.6564   -6.8655   21.4203 O   0  0  0  0  0  0
  -22.1766  -14.5052   20.6983 O   0  0  0  0  0  0
  -24.6960  -31.7878   23.1431 C   0  0  0  0  0  0
  -25.9500  -32.4392   23.8004 C   0  0  1  0  0  0
  -27.1673  -26.6252   20.0902 C   0  0  0  0  0  0
  -25.6039  -33.8229   24.1881 N   0  0  0  0  0  0
  -23.5186  -30.3962   21.5027 C   0  0  2  0  0  0
  -24.9528  -28.7277   20.0966 C   0  0  0  0  0  0
  -22.7799  -29.4282   22.4674 C   0  0  0  0  0  0
  -18.0348  -28.1441   22.8438 C   0  0  0  0  0  0
  -24.1500  -36.7120   23.2652 C   0  0  0  0  0  0
  -26.1049  -30.4820   21.4169 C   0  0  0  0  0  0
  -26.1533  -29.0463   20.7413 C   0  0  0  0  0  0
  -27.2459  -28.0173   20.7147 C   0  0  0  0  0  0
  -25.9350  -26.5393   19.4087 C   0  0  0  0  0  0
  -24.8839  -27.5013   19.4170 C   0  0  0  0  0  0
  -23.7647  -29.7002   20.1351 C   0  0  0  0  0  0
  -25.4151  -36.2837   24.0266 C   0  0  1  0  0  0
  -20.5987  -28.3799   23.1116 C   0  0  2  0  0  0
  -20.6805  -26.9452   22.5395 C   0  0  0  0  0  0
  -19.5783  -26.6378   21.5206 C   0  0  0  0  0  0
  -18.1969  -26.7966   22.1611 C   0  0  0  0  0  0
  -19.1618  -28.8943   23.2760 C   0  0  0  0  0  0
  -18.9523  -30.1524   23.8812 C   0  0  0  0  0  0
  -17.6510  -30.6610   24.0558 C   0  0  0  0  0  0
  -25.9143  -34.9241   23.4909 C   0  0  0  0  0  0
  -16.5399  -29.9094   23.6355 C   0  0  0  0  0  0
  -16.7328  -28.6528   23.0351 C   0  0  0  0  0  0
  -26.4636  -31.6475   25.0676 C   0  0  0  0  0  0
  -25.3672  -31.3846   26.1272 C   0  0  0  0  0  0
  -27.0582  -30.2793   24.6670 C   0  0  0  0  0  0
  -27.6067  -32.4354   25.7513 C   0  0  0  0  0  0
  -27.5561  -37.1714   24.8463 C   0  0  0  0  0  0
  -21.4441  -29.3032   22.3428 N   0  0  0  0  0  0
  -26.4260  -37.3616   23.9409 N   0  0  0  0  0  0
  -24.7996  -30.9235   22.0727 N   0  0  0  0  0  0
  -23.4210  -28.7870   23.3032 O   0  0  0  0  0  0
  -28.0668  -25.3401   20.0953 O   0  0  0  0  0  0
  -26.5792  -34.8845   22.4534 O   0  0  0  0  0  0
  -23.5962  -32.1017   23.6334 O   0  0  0  0  0  0
  -29.4988  -17.8465   20.7276 C   0  0  0  0  0  0
  -28.8506  -18.1082   19.4742 C   0  0  0  0  0  0
  -28.8156  -16.6180   18.7056 C   0  0  0  0  0  0
  -28.9431  -15.0665   19.3592 C   0  0  0  0  0  0
  -29.5842  -16.4796   21.0936 C   0  0  0  0  0  0
  -27.7012  -16.2763   16.2983 C   0  0  0  0  0  0
  -30.1768  -17.0627   16.5728 C   0  0  0  0  0  0
  -28.1196  -11.0319   19.2169 C   0  0  0  0  0  0
  -30.2591  -11.2482   20.0857 C   0  0  0  0  0  0
  -28.4641  -19.9304   19.1073 C   0  0  0  0  0  0
  -28.4929  -21.7561   19.8841 C   0  0  0  0  0  0
  -27.8786  -23.6234   19.5940 C   0  0  0  0  0  0
  -28.7706  -16.9310   17.1919 C   0  0  0  0  0  0
  -29.1946  -12.2486   19.2924 C   0  0  0  0  0  0
  -28.6364  -15.7628   20.5123 N   0  0  0  0  0  0
  -30.6737  -15.8082   21.7076 N   0  0  0  0  0  0
  -31.4210  -14.6516   18.6000 H   0  0  0  0  0  0
  -31.6831  -13.0001   18.6588 H   0  0  0  0  0  0
  -29.7324  -12.8914   16.7500 H   0  0  0  0  0  0
  -29.6306  -14.5123   16.8436 H   0  0  0  0  0  0
  -27.1500  -12.7110   17.4824 H   0  0  0  0  0  0
  -27.0601  -14.3205   17.7369 H   0  0  0  0  0  0
  -26.9630  -14.4175   19.9261 H   0  0  0  0  0  0
  -28.7296  -12.4588   21.8042 H   0  0  0  0  0  0
  -28.5446  -14.0395   22.1275 H   0  0  0  0  0  0
  -25.2356   -9.5761   22.4946 H   0  0  0  0  0  0
  -23.9951   -7.4433   22.7375 H   0  0  0  0  0  0
  -21.0637   -8.8376   19.8872 H   0  0  0  0  0  0
  -22.3142  -10.9493   19.6329 H   0  0  0  0  0  0
  -21.1919   -7.6075   23.9673 H   0  0  0  0  0  0
  -21.1484   -6.0498   25.9094 H   0  0  0  0  0  0
  -22.0612   -2.7525   23.2948 H   0  0  0  0  0  0
  -22.2805  -11.9546   22.5337 H   0  0  0  0  0  0
  -20.9489  -13.0526   22.3122 H   0  0  0  0  0  0
  -24.2555  -15.8654   20.7336 H   0  0  0  0  0  0
  -25.9091  -15.7698   20.3541 H   0  0  0  0  0  0
  -26.7589  -32.4809   23.0714 H   0  0  0  0  0  0
  -25.0089  -33.9243   24.9967 H   0  0  0  0  0  0
  -22.8502  -31.2389   21.3146 H   0  0  0  0  0  0
  -23.3776  -35.9433   23.3240 H   0  0  0  0  0  0
  -24.3565  -36.8866   22.2082 H   0  0  0  0  0  0
  -23.7251  -37.6272   23.6788 H   0  0  0  0  0  0
  -26.3286  -31.2103   20.6366 H   0  0  0  0  0  0
  -26.9499  -30.5329   22.0912 H   0  0  0  0  0  0
  -28.1527  -28.2513   21.2543 H   0  0  0  0  0  0
  -25.7347  -25.6193   18.8764 H   0  0  0  0  0  0
  -23.9729  -27.2508   18.8904 H   0  0  0  0  0  0
  -23.9544  -30.4633   19.3798 H   0  0  0  0  0  0
  -22.8616  -29.1859   19.8023 H   0  0  0  0  0  0
  -25.1367  -36.1572   25.0754 H   0  0  0  0  0  0
  -21.0076  -28.3431   24.1238 H   0  0  0  0  0  0
  -20.5650  -26.2433   23.3667 H   0  0  0  0  0  0
  -21.6670  -26.7372   22.1229 H   0  0  0  0  0  0
  -19.6939  -25.6265   21.1293 H   0  0  0  0  0  0
  -19.6734  -27.3139   20.6696 H   0  0  0  0  0  0
  -17.4238  -26.6700   21.4020 H   0  0  0  0  0  0
  -18.0366  -26.0138   22.9037 H   0  0  0  0  0  0
  -19.8000  -30.7367   24.2140 H   0  0  0  0  0  0
  -17.5061  -31.6278   24.5191 H   0  0  0  0  0  0
  -15.5398  -30.2969   23.7730 H   0  0  0  0  0  0
  -15.8732  -28.0830   22.7087 H   0  0  0  0  0  0
  -24.5897  -30.7141   25.7589 H   0  0  0  0  0  0
  -24.8825  -32.3088   26.4428 H   0  0  0  0  0  0
  -25.7831  -30.9204   27.0224 H   0  0  0  0  0  0
  -26.3310  -29.6366   24.1700 H   0  0  0  0  0  0
  -27.3988  -29.7295   25.5457 H   0  0  0  0  0  0
  -27.9305  -30.3880   24.0223 H   0  0  0  0  0  0
  -27.2600  -33.3741   26.1847 H   0  0  0  0  0  0
  -28.4025  -32.6774   25.0454 H   0  0  0  0  0  0
  -28.0574  -31.8644   26.5642 H   0  0  0  0  0  0
  -28.2521  -38.0057   24.7510 H   0  0  0  0  0  0
  -28.1111  -36.2580   24.6282 H   0  0  0  0  0  0
  -27.2280  -37.1331   25.8863 H   0  0  0  0  0  0
  -20.9756  -29.8724   21.6517 H   0  0  0  0  0  0
  -26.0071  -38.2652   24.1433 H   0  0  0  0  0  0
  -30.0044  -18.6345   21.2684 H   0  0  0  0  0  0
  -26.7223  -16.2968   16.7778 H   0  0  0  0  0  0
  -27.9139  -15.2612   15.9803 H   0  0  0  0  0  0
  -27.6001  -16.8414   15.3708 H   0  0  0  0  0  0
  -30.1201  -17.2606   15.5015 H   0  0  0  0  0  0
  -30.8160  -16.1940   16.7153 H   0  0  0  0  0  0
  -30.7104  -17.8997   17.0239 H   0  0  0  0  0  0
  -27.1701  -11.1591   18.7117 H   0  0  0  0  0  0
  -27.9055  -10.6404   20.2102 H   0  0  0  0  0  0
  -28.4968  -10.1645   18.6695 H   0  0  0  0  0  0
  -31.3094  -11.5282   20.0615 H   0  0  0  0  0  0
  -30.3135  -10.2369   19.6772 H   0  0  0  0  0  0
  -30.0397  -11.0759   21.1368 H   0  0  0  0  0  0
  -27.4349  -19.8438   18.7625 H   0  0  0  0  0  0
  -29.0245  -20.0715   18.1830 H   0  0  0  0  0  0
  -29.5602  -21.8982   20.0530 H   0  0  0  0  0  0
  -28.1074  -21.5656   20.8850 H   0  0  0  0  0  0
  -26.7962  -23.5149   19.6580 H   0  0  0  0  0  0
  -28.0523  -23.7363   18.5230 H   0  0  0  0  0  0
  -28.4078  -17.9590   17.1511 H   0  0  0  0  0  0
  -29.6653  -11.7652   18.4262 H   0  0  0  0  0  0
  -31.3549  -16.4269   22.1172 H   0  0  0  0  0  0
  1 25  1  0  0  0
  1 30  2  0  0  0
  1 86  1  0  0  0
  2  3  1  0  0  0
  2 25  1  0  0  0
  2 87  1  0  0  0
  2 88  1  0  0  0
  3  4  1  0  0  0
  3 89  1  0  0  0
  3 90  1  0  0  0
  4  5  1  0  0  0
  4 91  1  0  0  0
  4 92  1  0  0  0
  5  6  1  0  0  0
  5 26  1  0  0  0
  5 93  1  0  0  0
  6 25  1  0  0  0
  6 94  1  0  0  0
  6 95  1  0  0  0
  7  8  2  0  0  0
  7 26  1  0  0  0
  7 29  1  0  0  0
  8  9  1  0  0  0
  8 22  1  0  0  0
  9 10  1  0  0  0
  9 27  2  0  0  0
 10 11  2  0  0  0
 10 15  1  0  0  0
 11 12  1  0  0  0
 11 96  1  0  0  0
 12 13  2  0  0  0
 12 97  1  0  0  0
 13 14  1  0  0  0
 13 31  1  0  0  0
 14 15  2  0  0  0
 14 98  1  0  0  0
 15 99  1  0  0  0
 16 17  2  0  0  0
 16 21  1  0  0  0
 16 31  1  0  0  0
 17 18  1  0  0  0
 17100  1  0  0  0
 18 19  2  0  0  0
 18101  1  0  0  0
 19 20  1  0  0  0
 19 24  1  0  0  0
 20 21  2  0  0  0
 20102  1  0  0  0
 21 23  1  0  0  0
 22 28  1  0  0  0
 22 32  2  0  0  0
 26 27  1  0  0  0
 28103  1  0  0  0
 28104  1  0  0  0
 29105  1  0  0  0
 29106  1  0  0  0
 33 34  1  0  0  0
 33 66  1  0  0  0
 33 70  2  0  0  0
 34 36  1  0  0  0
 34 59  1  0  0  0
 34107  1  0  0  0
 35 44  2  0  0  0
 35 45  1  0  0  0
 35 68  1  0  0  0
 36 56  1  0  0  0
 36108  1  0  0  0
 37 39  1  0  0  0
 37 47  1  0  0  0
 37 66  1  0  0  0
 37109  1  0  0  0
 38 43  2  0  0  0
 38 46  1  0  0  0
 38 47  1  0  0  0
 39 64  1  0  0  0
 39 67  2  0  0  0
 40 52  1  0  0  0
 40 53  2  0  0  0
 40 58  1  0  0  0
 41110  1  0  0  0
 41111  1  0  0  0
 41112  1  0  0  0
 41 48  1  0  0  0
 42 43  1  0  0  0
 42 66  1  0  0  0
 42113  1  0  0  0
 42114  1  0  0  0
 43 44  1  0  0  0
 44115  1  0  0  0
 45 46  2  0  0  0
 45116  1  0  0  0
 46117  1  0  0  0
 47118  1  0  0  0
 47119  1  0  0  0
 48 56  1  0  0  0
 48 65  1  0  0  0
 48120  1  0  0  0
 49 50  1  0  0  0
 49 53  1  0  0  0
 49 64  1  0  0  0
 49121  1  0  0  0
 50 51  1  0  0  0
 50122  1  0  0  0
 50123  1  0  0  0
 51 52  1  0  0  0
 51124  1  0  0  0
 51125  1  0  0  0
 52126  1  0  0  0
 52127  1  0  0  0
 53 54  1  0  0  0
 54 55  2  0  0  0
 54128  1  0  0  0
 55 57  1  0  0  0
 55129  1  0  0  0
 56 69  2  0  0  0
 57 58  2  0  0  0
 57130  1  0  0  0
 58131  1  0  0  0
 59 60  1  0  0  0
 59 61  1  0  0  0
 59 62  1  0  0  0
 60132  1  0  0  0
 60133  1  0  0  0
 60134  1  0  0  0
 61135  1  0  0  0
 61136  1  0  0  0
 61137  1  0  0  0
 62138  1  0  0  0
 62139  1  0  0  0
 62140  1  0  0  0
 63 65  1  0  0  0
 63141  1  0  0  0
 63142  1  0  0  0
 63143  1  0  0  0
 64144  1  0  0  0
 65145  1  0  0  0
 68 82  1  0  0  0
 71 72  2  0  0  0
 71 75  1  0  0  0
 71146  1  0  0  0
 72 73  1  0  0  0
 72 80  1  0  0  0
 73 74  2  0  0  0
 73 83  1  0  0  0
 74 84  1  0  0  0
 74 85  1  0  0  0
 75 85  2  0  0  0
 75 86  1  0  0  0
 76147  1  0  0  0
 76148  1  0  0  0
 76149  1  0  0  0
 76 83  1  0  0  0
 77 83  1  0  0  0
 77150  1  0  0  0
 77151  1  0  0  0
 77152  1  0  0  0
 78153  1  0  0  0
 78154  1  0  0  0
 78155  1  0  0  0
 78 84  1  0  0  0
 79 84  1  0  0  0
 79156  1  0  0  0
 79157  1  0  0  0
 79158  1  0  0  0
 80 81  1  0  0  0
 80159  1  0  0  0
 80160  1  0  0  0
 81 82  1  0  0  0
 81161  1  0  0  0
 81162  1  0  0  0
 82163  1  0  0  0
 82164  1  0  0  0
 83165  1  0  0  0
 84166  1  0  0  0
 86167  1  0  0  0
M  ISO  4   1 100  68 101  82 101  86 100
M  END
> <chiral flag>
0

> <version>
0

> <s_m_source_file>
/data/baiqing/PycharmProjects/Reinvent-master-3.2/result/LINK_invent/BTK/process_docking_weight1_custom_sum_contain_oxygen_bond_distance_aromatic_linkinvent_7_9_3/rearranged_h_0090.sdf

> <i_m_source_file_index>
9

> <r_mmod_Potential_Energy-OPLS-2005>
9171.0986328125

> <r_mmod_Stretch_Energy-OPLS-2005>
4913.3076171875

> <r_mmod_Bend_Energy-OPLS-2005>
1249.34094238281

> <r_mmod_Torsional_Energy-OPLS-2005>
457.276184082031

> <r_mmod_Improper_Torsional_Energy-OPLS-2005>
23.5654602050781

> <r_mmod_Van_der_Waal_Energy-OPLS-2005>
1975.8359375

> <r_mmod_Electrostatic_Energy-OPLS-2005>
-577.071044921875

> <r_mmod_Solvation_Energy-OPLS-2005>
-192.10481262207

> <b_mmod_Minimization_Converged-OPLS-2005>
0

> <r_mmod_RMS_Derivative-OPLS-2005>
2.9631712436676

$$$$
9
                    3D
 Structure written by MMmdl.
167175  0  0  1  0            999 V2000
  -30.6916  -14.4815   20.5222 C   0  0  0  0  0  0
  -30.3925  -12.2992   19.4377 C   0  0  0  0  0  0
  -29.4788  -12.4839   18.2100 C   0  0  0  0  0  0
  -27.9960  -12.3582   18.6167 C   0  0  0  0  0  0
  -27.6413  -13.2151   19.8631 C   0  0  2  0  0  0
  -28.6765  -13.0329   20.9912 C   0  0  0  0  0  0
  -25.2456  -13.8194   20.5684 C   0  0  0  0  0  0
  -24.1741  -13.0465   20.9134 C   0  0  0  0  0  0
  -24.6279  -11.6929   20.8699 C   0  0  0  0  0  0
  -23.9005  -10.4306   21.0386 C   0  0  0  0  0  0
  -24.3585   -9.4249   21.9181 C   0  0  0  0  0  0
  -23.6285   -8.2268   22.0750 C   0  0  0  0  0  0
  -22.4275   -8.0288   21.3527 C   0  0  0  0  0  0
  -21.9888   -9.0251   20.4633 C   0  0  0  0  0  0
  -22.7180  -10.2143   20.3045 C   0  0  0  0  0  0
  -21.6862   -6.0745   22.5284 C   0  0  0  0  0  0
  -21.4020   -6.5639   23.8229 C   0  0  0  0  0  0
  -21.3665   -5.6777   24.9174 C   0  0  0  0  0  0
  -21.6024   -4.3050   24.7207 C   0  0  0  0  0  0
  -21.8833   -3.8149   23.4337 C   0  0  0  0  0  0
  -21.9184   -4.6962   22.3393 C   0  0  0  0  0  0
  -22.7770  -13.5253   21.1843 C   0  0  0  0  0  0
  -22.1653   -4.2138   21.0974 F   0  0  0  0  0  0
  -21.5611   -3.4553   25.7726 F   0  0  0  0  0  0
  -30.0090  -13.3129   20.4339 N   0  0  0  0  0  0
  -26.2879  -12.9367   20.3325 N   0  0  0  0  0  0
  -25.9208  -11.6521   20.5751 N   0  0  0  0  0  0
  -22.0457  -12.8233   22.0415 N   0  0  0  0  0  0
  -25.4229  -15.1919   20.4031 N   0  0  0  0  0  0
  -31.8570  -14.5954   20.1253 O   0  0  0  0  0  0
  -21.6634   -6.8899   21.4250 O   0  0  0  0  0  0
  -22.3457  -14.5572   20.6723 O   0  0  0  0  0  0
  -24.6264  -31.8681   23.2157 C   0  0  0  0  0  0
  -25.9144  -32.4800   23.8475 C   0  0  1  0  0  0
  -27.1738  -27.3632   20.0556 C   0  0  0  0  0  0
  -25.5994  -33.8594   24.2415 N   0  0  0  0  0  0
  -23.4125  -30.5062   21.5650 C   0  0  2  0  0  0
  -24.8408  -28.9921   20.1098 C   0  0  0  0  0  0
  -22.7483  -29.4717   22.4994 C   0  0  0  0  0  0
  -18.0256  -28.1457   22.8506 C   0  0  0  0  0  0
  -24.1500  -36.7294   23.2640 C   0  0  0  0  0  0
  -25.9576  -30.8099   21.3850 C   0  0  0  0  0  0
  -26.0201  -29.4481   20.7085 C   0  0  0  0  0  0
  -27.1958  -28.6450   20.6821 C   0  0  0  0  0  0
  -25.9646  -26.9783   19.4237 C   0  0  0  0  0  0
  -24.8084  -27.7554   19.4716 C   0  0  0  0  0  0
  -23.6154  -29.8708   20.1712 C   0  0  0  0  0  0
  -25.4115  -36.3066   24.0346 C   0  0  1  0  0  0
  -20.5883  -28.3740   23.1381 C   0  0  2  0  0  0
  -20.6728  -26.9431   22.5502 C   0  0  0  0  0  0
  -19.5785  -26.6456   21.5248 C   0  0  0  0  0  0
  -18.1866  -26.8005   22.1530 C   0  0  0  0  0  0
  -19.1536  -28.8918   23.2931 C   0  0  0  0  0  0
  -18.9490  -30.1525   23.8956 C   0  0  0  0  0  0
  -17.6476  -30.6654   24.0608 C   0  0  0  0  0  0
  -25.9029  -34.9427   23.5146 C   0  0  0  0  0  0
  -16.5375  -29.9206   23.6334 C   0  0  0  0  0  0
  -16.7271  -28.6588   23.0355 C   0  0  0  0  0  0
  -26.4504  -31.6551   25.0826 C   0  0  0  0  0  0
  -25.3769  -31.3686   26.1601 C   0  0  0  0  0  0
  -27.0346  -30.2981   24.6235 C   0  0  0  0  0  0
  -27.6068  -32.4267   25.7617 C   0  0  0  0  0  0
  -27.5575  -37.1831   24.8475 C   0  0  0  0  0  0
  -21.4189  -29.3133   22.3812 N   0  0  0  0  0  0
  -26.4288  -37.3771   23.9395 N   0  0  0  0  0  0
  -24.6835  -31.0764   22.1092 N   0  0  0  0  0  0
  -23.4264  -28.8173   23.2971 O   0  0  0  0  0  0
  -28.2660  -26.4841   20.0768 O   0  0  0  0  0  0
  -26.5560  -34.8894   22.4690 O   0  0  0  0  0  0
  -23.5446  -32.1494   23.7519 O   0  0  0  0  0  0
  -28.2467  -20.4597   21.2777 C   0  0  0  0  0  0
  -29.6720  -19.1499   19.8552 C   0  0  0  0  0  0
  -28.9097  -20.3161   20.0466 C   0  0  0  0  0  0
  -28.3642  -19.4392   22.2433 C   0  0  0  0  0  0
  -29.6751  -18.1423   20.8372 C   0  0  0  0  0  0
  -25.7746  -21.1969   23.6336 C   0  0  0  0  0  0
  -27.9755  -20.5815   17.7740 C   0  0  0  0  0  0
  -27.8334  -19.6034   23.6586 C   0  0  0  0  0  0
  -30.5697  -16.9208   20.6602 C   0  0  0  0  0  0
  -27.2478  -20.9877   24.0237 C   0  0  0  0  0  0
  -28.8555  -23.8890   19.7444 C   0  0  0  0  0  0
  -28.0556  -22.6590   19.1979 C   0  0  0  0  0  0
  -27.9469  -25.1359   19.6043 C   0  0  0  0  0  0
  -28.7665  -21.3063   18.8854 C   0  0  1  0  0  0
  -29.0206  -18.2772   22.0089 N   0  0  0  0  0  0
  -29.9957  -15.5819   20.8665 N   0  0  0  0  0  0
  -31.4431  -12.3732   19.1517 H   0  0  0  0  0  0
  -30.2697  -11.2986   19.8539 H   0  0  0  0  0  0
  -29.7117  -11.7355   17.4522 H   0  0  0  0  0  0
  -29.6637  -13.4576   17.7513 H   0  0  0  0  0  0
  -27.7871  -11.3071   18.8246 H   0  0  0  0  0  0
  -27.3555  -12.6442   17.7785 H   0  0  0  0  0  0
  -27.6758  -14.2556   19.5409 H   0  0  0  0  0  0
  -28.6332  -12.0101   21.3652 H   0  0  0  0  0  0
  -28.4352  -13.6678   21.8448 H   0  0  0  0  0  0
  -25.2762   -9.5730   22.4734 H   0  0  0  0  0  0
  -23.9996   -7.4667   22.7478 H   0  0  0  0  0  0
  -21.0827   -8.8744   19.8951 H   0  0  0  0  0  0
  -22.3651  -10.9654   19.6126 H   0  0  0  0  0  0
  -21.2045   -7.6166   23.9713 H   0  0  0  0  0  0
  -21.1462   -6.0525   25.9063 H   0  0  0  0  0  0
  -22.0608   -2.7617   23.2834 H   0  0  0  0  0  0
  -22.4071  -11.9870   22.4758 H   0  0  0  0  0  0
  -21.1079  -13.1248   22.2670 H   0  0  0  0  0  0
  -24.6691  -15.8612   20.5097 H   0  0  0  0  0  0
  -26.2813  -15.6181   20.0796 H   0  0  0  0  0  0
  -26.7221  -32.5486   23.1245 H   0  0  0  0  0  0
  -25.0165  -33.9723   25.0578 H   0  0  0  0  0  0
  -22.7073  -31.3280   21.4415 H   0  0  0  0  0  0
  -23.3713  -35.9668   23.3293 H   0  0  0  0  0  0
  -24.3628  -36.8900   22.2052 H   0  0  0  0  0  0
  -23.7289  -37.6528   23.6646 H   0  0  0  0  0  0
  -26.1076  -31.5851   20.6340 H   0  0  0  0  0  0
  -26.8373  -30.8402   22.0159 H   0  0  0  0  0  0
  -28.1017  -28.9924   21.1579 H   0  0  0  0  0  0
  -25.8352  -26.0613   18.8707 H   0  0  0  0  0  0
  -23.9019  -27.4029   19.0011 H   0  0  0  0  0  0
  -23.7416  -30.6607   19.4289 H   0  0  0  0  0  0
  -22.7329  -29.3069   19.8636 H   0  0  0  0  0  0
  -25.1283  -36.1923   25.0834 H   0  0  0  0  0  0
  -20.9873  -28.3315   24.1526 H   0  0  0  0  0  0
  -21.6561  -26.7367   22.1270 H   0  0  0  0  0  0
  -20.5443  -26.2357   23.3704 H   0  0  0  0  0  0
  -19.7165  -25.6423   21.1221 H   0  0  0  0  0  0
  -19.6738  -27.3356   20.6875 H   0  0  0  0  0  0
  -17.4270  -26.6837   21.3783 H   0  0  0  0  0  0
  -18.0014  -25.9985   22.8763 H   0  0  0  0  0  0
  -19.7890  -30.7402   24.2396 H   0  0  0  0  0  0
  -17.5071  -31.6334   24.5265 H   0  0  0  0  0  0
  -15.5377  -30.3222   23.7579 H   0  0  0  0  0  0
  -15.8684  -28.0956   22.6937 H   0  0  0  0  0  0
  -24.5976  -30.6950   25.8037 H   0  0  0  0  0  0
  -24.8911  -32.2822   26.5025 H   0  0  0  0  0  0
  -25.8158  -30.8953   27.0384 H   0  0  0  0  0  0
  -26.2925  -29.6783   24.1196 H   0  0  0  0  0  0
  -27.3997  -29.7199   25.4726 H   0  0  0  0  0  0
  -27.8797  -30.4306   23.9487 H   0  0  0  0  0  0
  -27.2674  -33.3571   26.2185 H   0  0  0  0  0  0
  -28.3896  -32.6810   25.0458 H   0  0  0  0  0  0
  -28.0701  -31.8387   26.5562 H   0  0  0  0  0  0
  -28.2614  -38.0108   24.7495 H   0  0  0  0  0  0
  -28.1045  -36.2650   24.6299 H   0  0  0  0  0  0
  -27.2305  -37.1476   25.8884 H   0  0  0  0  0  0
  -20.9300  -29.8974   21.7152 H   0  0  0  0  0  0
  -26.0147  -38.2846   24.1342 H   0  0  0  0  0  0
  -27.6809  -21.3575   21.4801 H   0  0  0  0  0  0
  -30.2412  -19.0251   18.9446 H   0  0  0  0  0  0
  -25.6350  -21.1833   22.5500 H   0  0  0  0  0  0
  -25.4389  -22.1723   23.9943 H   0  0  0  0  0  0
  -25.1374  -20.4330   24.0826 H   0  0  0  0  0  0
  -26.9634  -20.3468   18.0991 H   0  0  0  0  0  0
  -28.4593  -19.6534   17.4768 H   0  0  0  0  0  0
  -27.8738  -21.1762   16.8702 H   0  0  0  0  0  0
  -27.1016  -18.8209   23.8384 H   0  0  0  0  0  0
  -28.6827  -19.4122   24.3218 H   0  0  0  0  0  0
  -30.9743  -16.9428   19.6497 H   0  0  0  0  0  0
  -31.4178  -17.0710   21.3260 H   0  0  0  0  0  0
  -27.3089  -21.0793   25.1081 H   0  0  0  0  0  0
  -27.8731  -21.8000   23.6532 H   0  0  0  0  0  0
  -29.1299  -23.7087   20.7794 H   0  0  0  0  0  0
  -29.7736  -24.0522   19.1802 H   0  0  0  0  0  0
  -27.6582  -22.9910   18.2407 H   0  0  0  0  0  0
  -27.1471  -22.4890   19.7737 H   0  0  0  0  0  0
  -27.0263  -24.8143   20.0993 H   0  0  0  0  0  0
  -27.7408  -25.2244   18.5363 H   0  0  0  0  0  0
  -29.7640  -21.5121   18.4975 H   0  0  0  0  0  0
  -29.0276  -15.5120   21.1368 H   0  0  0  0  0  0
  1 25  1  0  0  0
  1 30  2  0  0  0
  1 86  1  0  0  0
  2  3  1  0  0  0
  2 25  1  0  0  0
  2 87  1  0  0  0
  2 88  1  0  0  0
  3  4  1  0  0  0
  3 89  1  0  0  0
  3 90  1  0  0  0
  4  5  1  0  0  0
  4 91  1  0  0  0
  4 92  1  0  0  0
  5  6  1  0  0  0
  5 26  1  0  0  0
  5 93  1  0  0  0
  6 25  1  0  0  0
  6 94  1  0  0  0
  6 95  1  0  0  0
  7  8  2  0  0  0
  7 26  1  0  0  0
  7 29  1  0  0  0
  8  9  1  0  0  0
  8 22  1  0  0  0
  9 10  1  0  0  0
  9 27  2  0  0  0
 10 11  2  0  0  0
 10 15  1  0  0  0
 11 12  1  0  0  0
 11 96  1  0  0  0
 12 13  2  0  0  0
 12 97  1  0  0  0
 13 14  1  0  0  0
 13 31  1  0  0  0
 14 15  2  0  0  0
 14 98  1  0  0  0
 15 99  1  0  0  0
 16 17  2  0  0  0
 16 21  1  0  0  0
 16 31  1  0  0  0
 17 18  1  0  0  0
 17100  1  0  0  0
 18 19  2  0  0  0
 18101  1  0  0  0
 19 20  1  0  0  0
 19 24  1  0  0  0
 20 21  2  0  0  0
 20102  1  0  0  0
 21 23  1  0  0  0
 22 28  1  0  0  0
 22 32  2  0  0  0
 26 27  1  0  0  0
 28103  1  0  0  0
 28104  1  0  0  0
 29105  1  0  0  0
 29106  1  0  0  0
 33 34  1  0  0  0
 33 66  1  0  0  0
 33 70  2  0  0  0
 34 36  1  0  0  0
 34 59  1  0  0  0
 34107  1  0  0  0
 35 44  2  0  0  0
 35 45  1  0  0  0
 35 68  1  0  0  0
 36 56  1  0  0  0
 36108  1  0  0  0
 37 39  1  0  0  0
 37 47  1  0  0  0
 37 66  1  0  0  0
 37109  1  0  0  0
 38 43  2  0  0  0
 38 46  1  0  0  0
 38 47  1  0  0  0
 39 64  1  0  0  0
 39 67  2  0  0  0
 40 52  1  0  0  0
 40 53  2  0  0  0
 40 58  1  0  0  0
 41110  1  0  0  0
 41111  1  0  0  0
 41112  1  0  0  0
 41 48  1  0  0  0
 42 43  1  0  0  0
 42 66  1  0  0  0
 42113  1  0  0  0
 42114  1  0  0  0
 43 44  1  0  0  0
 44115  1  0  0  0
 45 46  2  0  0  0
 45116  1  0  0  0
 46117  1  0  0  0
 47118  1  0  0  0
 47119  1  0  0  0
 48 56  1  0  0  0
 48 65  1  0  0  0
 48120  1  0  0  0
 49 50  1  0  0  0
 49 53  1  0  0  0
 49 64  1  0  0  0
 49121  1  0  0  0
 50 51  1  0  0  0
 50122  1  0  0  0
 50123  1  0  0  0
 51 52  1  0  0  0
 51124  1  0  0  0
 51125  1  0  0  0
 52126  1  0  0  0
 52127  1  0  0  0
 53 54  1  0  0  0
 54 55  2  0  0  0
 54128  1  0  0  0
 55 57  1  0  0  0
 55129  1  0  0  0
 56 69  2  0  0  0
 57 58  2  0  0  0
 57130  1  0  0  0
 58131  1  0  0  0
 59 60  1  0  0  0
 59 61  1  0  0  0
 59 62  1  0  0  0
 60132  1  0  0  0
 60133  1  0  0  0
 60134  1  0  0  0
 61135  1  0  0  0
 61136  1  0  0  0
 61137  1  0  0  0
 62138  1  0  0  0
 62139  1  0  0  0
 62140  1  0  0  0
 63 65  1  0  0  0
 63141  1  0  0  0
 63142  1  0  0  0
 63143  1  0  0  0
 64144  1  0  0  0
 65145  1  0  0  0
 68 83  1  0  0  0
 71 73  2  0  0  0
 71 74  1  0  0  0
 71146  1  0  0  0
 72 73  1  0  0  0
 72 75  2  0  0  0
 72147  1  0  0  0
 73 84  1  0  0  0
 74 78  1  0  0  0
 74 85  2  0  0  0
 75 79  1  0  0  0
 75 85  1  0  0  0
 76 80  1  0  0  0
 76148  1  0  0  0
 76149  1  0  0  0
 76150  1  0  0  0
 77151  1  0  0  0
 77152  1  0  0  0
 77153  1  0  0  0
 77 84  1  0  0  0
 78 80  1  0  0  0
 78154  1  0  0  0
 78155  1  0  0  0
 79 86  1  0  0  0
 79156  1  0  0  0
 79157  1  0  0  0
 80158  1  0  0  0
 80159  1  0  0  0
 81 82  1  0  0  0
 81 83  1  0  0  0
 81160  1  0  0  0
 81161  1  0  0  0
 82 84  1  0  0  0
 82162  1  0  0  0
 82163  1  0  0  0
 83164  1  0  0  0
 83165  1  0  0  0
 84166  1  0  0  0
 86167  1  0  0  0
M  ISO  4   1 100  68 101  83 101  86 100
M  END
> <chiral flag>
0

> <version>
0

> <s_m_source_file>
/data/baiqing/PycharmProjects/Reinvent-master-3.2/result/LINK_invent/BTK/process_docking_weight1_custom_sum_contain_oxygen_bond_distance_aromatic_linkinvent_7_9_3/rearranged_h_0090.sdf

> <i_m_source_file_index>
10

> <r_mmod_Potential_Energy-OPLS-2005>
-229.919799804688

> <r_mmod_Stretch_Energy-OPLS-2005>
45.1897888183594

> <r_mmod_Bend_Energy-OPLS-2005>
141.73503112793

> <r_mmod_Torsional_Energy-OPLS-2005>
212.755630493164

> <r_mmod_Improper_Torsional_Energy-OPLS-2005>
5.58121490478516

> <r_mmod_Van_der_Waal_Energy-OPLS-2005>
184.665344238281

> <r_mmod_Electrostatic_Energy-OPLS-2005>
-648.906799316406

> <r_mmod_Solvation_Energy-OPLS-2005>
-204.632568359375

> <b_mmod_Minimization_Converged-OPLS-2005>
0

> <r_mmod_RMS_Derivative-OPLS-2005>
9.59963226318359

$$$$
10
                    3D
 Structure written by MMmdl.
168176  0  0  1  0            999 V2000
  -30.7288  -14.4214   20.6218 C   0  0  0  0  0  0
  -30.4324  -12.3125   19.3865 C   0  0  0  0  0  0
  -29.4865  -12.5379   18.1918 C   0  0  0  0  0  0
  -28.0125  -12.3831   18.6110 C   0  0  0  0  0  0
  -27.6722  -13.1978   19.8878 C   0  0  2  0  0  0
  -28.7214  -12.9450   20.9954 C   0  0  0  0  0  0
  -25.2662  -13.8160   20.5669 C   0  0  0  0  0  0
  -24.1884  -13.0471   20.9144 C   0  0  0  0  0  0
  -24.6412  -11.6915   20.8730 C   0  0  0  0  0  0
  -23.9065  -10.4320   21.0387 C   0  0  0  0  0  0
  -24.3627   -9.4244   21.9170 C   0  0  0  0  0  0
  -23.6297   -8.2288   22.0760 C   0  0  0  0  0  0
  -22.4272   -8.0312   21.3564 C   0  0  0  0  0  0
  -21.9917   -9.0273   20.4650 C   0  0  0  0  0  0
  -22.7247  -10.2154   20.3036 C   0  0  0  0  0  0
  -21.6871   -6.0723   22.5264 C   0  0  0  0  0  0
  -21.4038   -6.5621   23.8205 C   0  0  0  0  0  0
  -21.3680   -5.6770   24.9168 C   0  0  0  0  0  0
  -21.6056   -4.3029   24.7206 C   0  0  0  0  0  0
  -21.8828   -3.8128   23.4323 C   0  0  0  0  0  0
  -21.9201   -4.6952   22.3380 C   0  0  0  0  0  0
  -22.7915  -13.5285   21.1786 C   0  0  0  0  0  0
  -22.1658   -4.2133   21.0956 F   0  0  0  0  0  0
  -21.5643   -3.4518   25.7722 F   0  0  0  0  0  0
  -30.0476  -13.2579   20.4431 N   0  0  0  0  0  0
  -26.3097  -12.9304   20.3450 N   0  0  0  0  0  0
  -25.9348  -11.6474   20.5823 N   0  0  0  0  0  0
  -22.0510  -12.8316   22.0338 N   0  0  0  0  0  0
  -25.4477  -15.1880   20.4023 N   0  0  0  0  0  0
  -31.8250  -14.6140   20.0847 O   0  0  0  0  0  0
  -21.6657   -6.8887   21.4238 O   0  0  0  0  0  0
  -22.3608  -14.5556   20.6576 O   0  0  0  0  0  0
  -24.6093  -31.8712   23.2118 C   0  0  0  0  0  0
  -25.8997  -32.4830   23.8396 C   0  0  1  0  0  0
  -27.2352  -27.4474   20.1161 C   0  0  0  0  0  0
  -25.5861  -33.8641   24.2291 N   0  0  0  0  0  0
  -23.3965  -30.4899   21.5525 C   0  0  2  0  0  0
  -24.8461  -28.9558   20.1234 C   0  0  0  0  0  0
  -22.7386  -29.4661   22.5051 C   0  0  0  0  0  0
  -18.0251  -28.1410   22.8497 C   0  0  0  0  0  0
  -24.1491  -36.7299   23.2651 C   0  0  0  0  0  0
  -25.9237  -30.8348   21.3737 C   0  0  0  0  0  0
  -26.0017  -29.4686   20.7272 C   0  0  0  0  0  0
  -27.1967  -28.7152   20.7322 C   0  0  0  0  0  0
  -26.0675  -26.9516   19.4954 C   0  0  0  0  0  0
  -24.8726  -27.6910   19.5089 C   0  0  0  0  0  0
  -23.6026  -29.8133   20.1707 C   0  0  0  0  0  0
  -25.4123  -36.3114   24.0325 C   0  0  1  0  0  0
  -20.5848  -28.3692   23.1349 C   0  0  2  0  0  0
  -20.6765  -26.9435   22.5442 C   0  0  0  0  0  0
  -19.5737  -26.6419   21.5240 C   0  0  0  0  0  0
  -18.1907  -26.7956   22.1643 C   0  0  0  0  0  0
  -19.1508  -28.8872   23.2921 C   0  0  0  0  0  0
  -18.9440  -30.1477   23.8930 C   0  0  0  0  0  0
  -17.6450  -30.6629   24.0588 C   0  0  0  0  0  0
  -25.9042  -34.9488   23.5102 C   0  0  0  0  0  0
  -16.5337  -29.9143   23.6325 C   0  0  0  0  0  0
  -16.7244  -28.6563   23.0333 C   0  0  0  0  0  0
  -26.4439  -31.6632   25.0736 C   0  0  0  0  0  0
  -25.3686  -31.3745   26.1473 C   0  0  0  0  0  0
  -27.0314  -30.3086   24.6145 C   0  0  0  0  0  0
  -27.6009  -32.4393   25.7452 C   0  0  0  0  0  0
  -27.5588  -37.1779   24.8475 C   0  0  0  0  0  0
  -21.4117  -29.3040   22.3765 N   0  0  0  0  0  0
  -26.4325  -37.3794   23.9392 N   0  0  0  0  0  0
  -24.6598  -31.0812   22.1032 N   0  0  0  0  0  0
  -23.4150  -28.8244   23.3128 O   0  0  0  0  0  0
  -28.4080  -26.7334   20.0897 O   0  0  0  0  0  0
  -26.5636  -34.8934   22.4685 O   0  0  0  0  0  0
  -23.5283  -32.1487   23.7513 O   0  0  0  0  0  0
  -29.8007  -17.6209   19.9782 C   0  0  0  0  0  0
  -32.0637  -18.8559   20.9213 C   0  0  0  0  0  0
  -30.5585  -16.9486   20.9635 C   0  0  0  0  0  0
  -31.7310  -17.5922   21.4418 C   0  0  0  0  0  0
  -30.2453  -18.8609   19.4923 C   0  0  0  0  0  0
  -32.6944  -16.9580   22.4359 C   0  0  0  0  0  0
  -27.6406  -23.8848   16.7687 C   0  0  0  0  0  0
  -30.0980  -15.5693   21.4422 C   0  0  0  0  0  0
  -29.5425  -19.5611   18.3453 C   0  0  0  0  0  0
  -28.8672  -20.8785   18.7624 C   0  0  0  0  0  0
  -28.0212  -24.2907   20.1540 C   0  0  0  0  0  0
  -28.8232  -21.8762   17.5900 C   0  0  0  0  0  0
  -28.8674  -24.0048   18.9018 C   0  0  0  0  0  0
  -28.4441  -25.5618   20.9120 C   0  0  0  0  0  0
  -31.3492  -19.4750   19.9638 N   0  0  0  0  0  0
  -28.1254  -23.1340   17.9497 N   0  3  1  0  0  0
  -31.4690  -12.4345   19.0647 H   0  0  0  0  0  0
  -30.3578  -11.2884   19.7534 H   0  0  0  0  0  0
  -29.7251  -11.8443   17.3848 H   0  0  0  0  0  0
  -29.6438  -13.5407   17.7919 H   0  0  0  0  0  0
  -27.8247  -11.3231   18.7857 H   0  0  0  0  0  0
  -27.3590  -12.6870   17.7911 H   0  0  0  0  0  0
  -27.7301  -14.2527   19.6181 H   0  0  0  0  0  0
  -28.7037  -11.9001   21.3083 H   0  0  0  0  0  0
  -28.4937  -13.5171   21.8958 H   0  0  0  0  0  0
  -25.2773   -9.5733   22.4750 H   0  0  0  0  0  0
  -24.0014   -7.4683   22.7470 H   0  0  0  0  0  0
  -21.0878   -8.8789   19.8917 H   0  0  0  0  0  0
  -22.3717  -10.9695   19.6143 H   0  0  0  0  0  0
  -21.2033   -7.6128   23.9716 H   0  0  0  0  0  0
  -21.1508   -6.0485   25.9077 H   0  0  0  0  0  0
  -22.0586   -2.7582   23.2822 H   0  0  0  0  0  0
  -22.4078  -12.0018   22.4812 H   0  0  0  0  0  0
  -21.1127  -13.1393   22.2463 H   0  0  0  0  0  0
  -24.6943  -15.8592   20.5039 H   0  0  0  0  0  0
  -26.3142  -15.6114   20.0978 H   0  0  0  0  0  0
  -26.7044  -32.5564   23.1146 H   0  0  0  0  0  0
  -24.9972  -33.9828   25.0397 H   0  0  0  0  0  0
  -22.6838  -31.3051   21.4092 H   0  0  0  0  0  0
  -23.3768  -35.9619   23.3365 H   0  0  0  0  0  0
  -24.3580  -36.8888   22.2057 H   0  0  0  0  0  0
  -23.7217  -37.6504   23.6656 H   0  0  0  0  0  0
  -26.0451  -31.5966   20.6046 H   0  0  0  0  0  0
  -26.8074  -30.8852   21.9984 H   0  0  0  0  0  0
  -28.0833  -29.0978   21.2195 H   0  0  0  0  0  0
  -26.0737  -26.0094   18.9755 H   0  0  0  0  0  0
  -23.9851  -27.2956   19.0336 H   0  0  0  0  0  0
  -23.6936  -30.5766   19.3978 H   0  0  0  0  0  0
  -22.7329  -29.2183   19.8894 H   0  0  0  0  0  0
  -25.1299  -36.2000   25.0817 H   0  0  0  0  0  0
  -20.9892  -28.3251   24.1496 H   0  0  0  0  0  0
  -20.5734  -26.2285   23.3614 H   0  0  0  0  0  0
  -21.6620  -26.7539   22.1189 H   0  0  0  0  0  0
  -19.6916  -25.6341   21.1245 H   0  0  0  0  0  0
  -19.6685  -27.3254   20.6781 H   0  0  0  0  0  0
  -17.4172  -26.6695   21.4046 H   0  0  0  0  0  0
  -18.0330  -26.0112   22.9051 H   0  0  0  0  0  0
  -19.7930  -30.7278   24.2307 H   0  0  0  0  0  0
  -17.5022  -31.6294   24.5209 H   0  0  0  0  0  0
  -15.5354  -30.3064   23.7661 H   0  0  0  0  0  0
  -15.8627  -28.0918   22.7006 H   0  0  0  0  0  0
  -24.5800  -30.7184   25.7758 H   0  0  0  0  0  0
  -24.8961  -32.2938   26.4963 H   0  0  0  0  0  0
  -25.8008  -30.8825   27.0191 H   0  0  0  0  0  0
  -26.2896  -29.6798   24.1205 H   0  0  0  0  0  0
  -27.4112  -29.7372   25.4627 H   0  0  0  0  0  0
  -27.8705  -30.4449   23.9307 H   0  0  0  0  0  0
  -27.2602  -33.3663   26.2060 H   0  0  0  0  0  0
  -28.3734  -32.6999   25.0205 H   0  0  0  0  0  0
  -28.0759  -31.8521   26.5317 H   0  0  0  0  0  0
  -28.2608  -38.0069   24.7517 H   0  0  0  0  0  0
  -28.1057  -36.2595   24.6305 H   0  0  0  0  0  0
  -27.2299  -37.1442   25.8876 H   0  0  0  0  0  0
  -20.9313  -29.8692   21.6900 H   0  0  0  0  0  0
  -26.0218  -38.2881   24.1377 H   0  0  0  0  0  0
  -28.9111  -17.1692   19.5621 H   0  0  0  0  0  0
  -32.9571  -19.3684   21.2505 H   0  0  0  0  0  0
  -32.7791  -17.5654   23.3383 H   0  0  0  0  0  0
  -33.6899  -16.9071   21.9895 H   0  0  0  0  0  0
  -32.4246  -15.9440   22.7312 H   0  0  0  0  0  0
  -26.9764  -23.2764   16.1549 H   0  0  0  0  0  0
  -28.4638  -24.2293   16.1411 H   0  0  0  0  0  0
  -27.0739  -24.7581   17.0870 H   0  0  0  0  0  0
  -29.0137  -15.5562   21.3326 H   0  0  0  0  0  0
  -30.3000  -15.4268   22.5031 H   0  0  0  0  0  0
  -28.8244  -18.8939   17.8647 H   0  0  0  0  0  0
  -30.3020  -19.7574   17.5886 H   0  0  0  0  0  0
  -29.4275  -21.3295   19.5822 H   0  0  0  0  0  0
  -27.8689  -20.6756   19.1561 H   0  0  0  0  0  0
  -28.0906  -23.4400   20.8344 H   0  0  0  0  0  0
  -26.9670  -24.3552   19.8959 H   0  0  0  0  0  0
  -28.3023  -21.3904   16.7627 H   0  0  0  0  0  0
  -29.8273  -22.1013   17.2233 H   0  0  0  0  0  0
  -29.8161  -23.5580   19.1972 H   0  0  0  0  0  0
  -29.1424  -24.9404   18.4124 H   0  0  0  0  0  0
  -29.4609  -25.4413   21.2851 H   0  0  0  0  0  0
  -27.8191  -25.6865   21.7985 H   0  0  0  0  0  0
  -27.2866  -22.8365   18.4225 H   0  0  0  0  0  0
  1 25  1  0  0  0
  1 30  2  0  0  0
  1 78  1  0  0  0
  2  3  1  0  0  0
  2 25  1  0  0  0
  2 87  1  0  0  0
  2 88  1  0  0  0
  3  4  1  0  0  0
  3 89  1  0  0  0
  3 90  1  0  0  0
  4  5  1  0  0  0
  4 91  1  0  0  0
  4 92  1  0  0  0
  5  6  1  0  0  0
  5 26  1  0  0  0
  5 93  1  0  0  0
  6 25  1  0  0  0
  6 94  1  0  0  0
  6 95  1  0  0  0
  7  8  2  0  0  0
  7 26  1  0  0  0
  7 29  1  0  0  0
  8  9  1  0  0  0
  8 22  1  0  0  0
  9 10  1  0  0  0
  9 27  2  0  0  0
 10 11  2  0  0  0
 10 15  1  0  0  0
 11 12  1  0  0  0
 11 96  1  0  0  0
 12 13  2  0  0  0
 12 97  1  0  0  0
 13 14  1  0  0  0
 13 31  1  0  0  0
 14 15  2  0  0  0
 14 98  1  0  0  0
 15 99  1  0  0  0
 16 17  2  0  0  0
 16 21  1  0  0  0
 16 31  1  0  0  0
 17 18  1  0  0  0
 17100  1  0  0  0
 18 19  2  0  0  0
 18101  1  0  0  0
 19 20  1  0  0  0
 19 24  1  0  0  0
 20 21  2  0  0  0
 20102  1  0  0  0
 21 23  1  0  0  0
 22 28  1  0  0  0
 22 32  2  0  0  0
 26 27  1  0  0  0
 28103  1  0  0  0
 28104  1  0  0  0
 29105  1  0  0  0
 29106  1  0  0  0
 33 34  1  0  0  0
 33 66  1  0  0  0
 33 70  2  0  0  0
 34 36  1  0  0  0
 34 59  1  0  0  0
 34107  1  0  0  0
 35 44  2  0  0  0
 35 45  1  0  0  0
 35 68  1  0  0  0
 36 56  1  0  0  0
 36108  1  0  0  0
 37 39  1  0  0  0
 37 47  1  0  0  0
 37 66  1  0  0  0
 37109  1  0  0  0
 38 43  2  0  0  0
 38 46  1  0  0  0
 38 47  1  0  0  0
 39 64  1  0  0  0
 39 67  2  0  0  0
 40 52  1  0  0  0
 40 53  2  0  0  0
 40 58  1  0  0  0
 41110  1  0  0  0
 41111  1  0  0  0
 41112  1  0  0  0
 41 48  1  0  0  0
 42 43  1  0  0  0
 42 66  1  0  0  0
 42113  1  0  0  0
 42114  1  0  0  0
 43 44  1  0  0  0
 44115  1  0  0  0
 45 46  2  0  0  0
 45116  1  0  0  0
 46117  1  0  0  0
 47118  1  0  0  0
 47119  1  0  0  0
 48 56  1  0  0  0
 48 65  1  0  0  0
 48120  1  0  0  0
 49 50  1  0  0  0
 49 53  1  0  0  0
 49 64  1  0  0  0
 49121  1  0  0  0
 50 51  1  0  0  0
 50122  1  0  0  0
 50123  1  0  0  0
 51 52  1  0  0  0
 51124  1  0  0  0
 51125  1  0  0  0
 52126  1  0  0  0
 52127  1  0  0  0
 53 54  1  0  0  0
 54 55  2  0  0  0
 54128  1  0  0  0
 55 57  1  0  0  0
 55129  1  0  0  0
 56 69  2  0  0  0
 57 58  2  0  0  0
 57130  1  0  0  0
 58131  1  0  0  0
 59 60  1  0  0  0
 59 61  1  0  0  0
 59 62  1  0  0  0
 60132  1  0  0  0
 60133  1  0  0  0
 60134  1  0  0  0
 61135  1  0  0  0
 61136  1  0  0  0
 61137  1  0  0  0
 62138  1  0  0  0
 62139  1  0  0  0
 62140  1  0  0  0
 63 65  1  0  0  0
 63141  1  0  0  0
 63142  1  0  0  0
 63143  1  0  0  0
 64144  1  0  0  0
 65145  1  0  0  0
 68 84  1  0  0  0
 71 73  2  0  0  0
 71 75  1  0  0  0
 71146  1  0  0  0
 72 74  2  0  0  0
 72 85  1  0  0  0
 72147  1  0  0  0
 73 74  1  0  0  0
 73 78  1  0  0  0
 74 76  1  0  0  0
 75 79  1  0  0  0
 75 85  2  0  0  0
 76148  1  0  0  0
 76149  1  0  0  0
 76150  1  0  0  0
 77151  1  0  0  0
 77152  1  0  0  0
 77153  1  0  0  0
 77 86  1  0  0  0
 78154  1  0  0  0
 78155  1  0  0  0
 79 80  1  0  0  0
 79156  1  0  0  0
 79157  1  0  0  0
 80 82  1  0  0  0
 80158  1  0  0  0
 80159  1  0  0  0
 81 83  1  0  0  0
 81 84  1  0  0  0
 81160  1  0  0  0
 81161  1  0  0  0
 82 86  1  0  0  0
 82162  1  0  0  0
 82163  1  0  0  0
 83 86  1  0  0  0
 83164  1  0  0  0
 83165  1  0  0  0
 84166  1  0  0  0
 84167  1  0  0  0
 86168  1  0  0  0
M  CHG  1  86   1
M  ISO  4   1 100  68 101  78 100  84 101
M  END
> <chiral flag>
0

> <version>
0

> <s_m_source_file>
/data/baiqing/PycharmProjects/Reinvent-master-3.2/result/LINK_invent/BTK/process_docking_weight1_custom_sum_contain_oxygen_bond_distance_aromatic_linkinvent_7_9_3/rearranged_h_0090.sdf

> <i_m_source_file_index>
11

> <r_mmod_Potential_Energy-OPLS-2005>
-254.554916381836

> <r_mmod_Stretch_Energy-OPLS-2005>
33.4803848266602

> <r_mmod_Bend_Energy-OPLS-2005>
92.5514602661133

> <r_mmod_Torsional_Energy-OPLS-2005>
206.878387451172

> <r_mmod_Improper_Torsional_Energy-OPLS-2005>
2.37394309043884

> <r_mmod_Van_der_Waal_Energy-OPLS-2005>
155.167175292969

> <r_mmod_Electrostatic_Energy-OPLS-2005>
-317.078430175781

> <r_mmod_Solvation_Energy-OPLS-2005>
-437.009521484375

> <b_mmod_Minimization_Converged-OPLS-2005>
0

> <r_mmod_RMS_Derivative-OPLS-2005>
4.37936401367188

$$$$
11
                    3D
 Structure written by MMmdl.
172180  0  0  1  0            999 V2000
  -30.6897  -14.5421   20.5743 C   0  0  0  0  0  0
  -30.4243  -12.3515   19.4407 C   0  0  0  0  0  0
  -29.5006  -12.5174   18.2150 C   0  0  0  0  0  0
  -28.0219  -12.3675   18.6207 C   0  0  0  0  0  0
  -27.6567  -13.2151   19.8684 C   0  0  2  0  0  0
  -28.6944  -13.0245   20.9943 C   0  0  0  0  0  0
  -25.2563  -13.8182   20.5679 C   0  0  0  0  0  0
  -24.1818  -13.0447   20.9167 C   0  0  0  0  0  0
  -24.6379  -11.6916   20.8710 C   0  0  0  0  0  0
  -23.9052  -10.4300   21.0392 C   0  0  0  0  0  0
  -24.3606   -9.4217   21.9174 C   0  0  0  0  0  0
  -23.6282   -8.2252   22.0753 C   0  0  0  0  0  0
  -22.4263   -8.0285   21.3546 C   0  0  0  0  0  0
  -21.9895   -9.0258   20.4651 C   0  0  0  0  0  0
  -22.7221  -10.2138   20.3049 C   0  0  0  0  0  0
  -21.6852   -6.0732   22.5279 C   0  0  0  0  0  0
  -21.4016   -6.5636   23.8212 C   0  0  0  0  0  0
  -21.3658   -5.6787   24.9171 C   0  0  0  0  0  0
  -21.6042   -4.3050   24.7221 C   0  0  0  0  0  0
  -21.8816   -3.8142   23.4343 C   0  0  0  0  0  0
  -21.9191   -4.6960   22.3401 C   0  0  0  0  0  0
  -22.7841  -13.5241   21.1843 C   0  0  0  0  0  0
  -22.1661   -4.2146   21.0980 F   0  0  0  0  0  0
  -21.5623   -3.4533   25.7734 F   0  0  0  0  0  0
  -30.0215  -13.3524   20.4482 N   0  0  0  0  0  0
  -26.2994  -12.9362   20.3313 N   0  0  0  0  0  0
  -25.9305  -11.6514   20.5714 N   0  0  0  0  0  0
  -22.0479  -12.8245   22.0410 N   0  0  0  0  0  0
  -25.4282  -15.1910   20.4140 N   0  0  0  0  0  0
  -31.7974  -14.7124   20.0544 O   0  0  0  0  0  0
  -21.6630   -6.8879   21.4244 O   0  0  0  0  0  0
  -22.3523  -14.5545   20.6689 O   0  0  0  0  0  0
  -24.6184  -31.8648   23.2055 C   0  0  0  0  0  0
  -25.9057  -32.4806   23.8363 C   0  0  1  0  0  0
  -27.2378  -27.3835   20.0998 C   0  0  0  0  0  0
  -25.5903  -33.8607   24.2295 N   0  0  0  0  0  0
  -23.4069  -30.4861   21.5482 C   0  0  2  0  0  0
  -24.8534  -28.9422   20.1159 C   0  0  0  0  0  0
  -22.7419  -29.4644   22.4985 C   0  0  0  0  0  0
  -18.0271  -28.1373   22.8506 C   0  0  0  0  0  0
  -24.1480  -36.7302   23.2638 C   0  0  0  0  0  0
  -25.9399  -30.8154   21.3634 C   0  0  0  0  0  0
  -26.0160  -29.4442   20.7121 C   0  0  0  0  0  0
  -27.2064  -28.6734   20.6961 C   0  0  0  0  0  0
  -26.0463  -26.9035   19.5079 C   0  0  0  0  0  0
  -24.8671  -27.6743   19.5108 C   0  0  0  0  0  0
  -23.6159  -29.8132   20.1652 C   0  0  0  0  0  0
  -25.4107  -36.3102   24.0331 C   0  0  1  0  0  0
  -20.5865  -28.3666   23.1320 C   0  0  2  0  0  0
  -20.6755  -26.9399   22.5424 C   0  0  0  0  0  0
  -19.5735  -26.6382   21.5219 C   0  0  0  0  0  0
  -18.1915  -26.7921   22.1635 C   0  0  0  0  0  0
  -19.1524  -28.8835   23.2908 C   0  0  0  0  0  0
  -18.9449  -30.1442   23.8916 C   0  0  0  0  0  0
  -17.6452  -30.6584   24.0568 C   0  0  0  0  0  0
  -25.9043  -34.9467   23.5118 C   0  0  0  0  0  0
  -16.5341  -29.9087   23.6328 C   0  0  0  0  0  0
  -16.7261  -28.6500   23.0358 C   0  0  0  0  0  0
  -26.4460  -31.6604   25.0712 C   0  0  0  0  0  0
  -25.3706  -31.3749   26.1456 C   0  0  0  0  0  0
  -27.0297  -30.3039   24.6117 C   0  0  0  0  0  0
  -27.6023  -32.4331   25.7481 C   0  0  0  0  0  0
  -27.5575  -37.1806   24.8465 C   0  0  0  0  0  0
  -21.4143  -29.3032   22.3725 N   0  0  0  0  0  0
  -26.4287  -37.3794   23.9413 N   0  0  0  0  0  0
  -24.6736  -31.0712   22.0970 N   0  0  0  0  0  0
  -23.4183  -28.8191   23.3042 O   0  0  0  0  0  0
  -28.4223  -26.6541   20.1196 O   0  0  0  0  0  0
  -26.5609  -34.8926   22.4680 O   0  0  0  0  0  0
  -23.5364  -32.1422   23.7422 O   0  0  0  0  0  0
  -30.9435  -22.6416   20.2276 C   0  0  0  0  0  0
  -31.3716  -20.4566   20.2064 C   0  0  0  0  0  0
  -31.9884  -21.6758   20.1778 C   0  0  0  0  0  0
  -29.7298  -22.0106   20.2676 C   0  0  0  0  0  0
  -33.6922  -23.5570   22.0594 C   0  0  0  0  0  0
  -33.9592  -21.6715   18.6331 C   0  0  0  0  0  0
  -29.8575  -15.7060   22.5354 C   0  0  0  0  0  0
  -28.3523  -22.6631   20.2731 C   0  0  0  0  0  0
  -33.9123  -23.3253   20.5571 C   0  0  0  0  0  0
  -28.2512  -24.1772   20.7051 C   0  0  0  0  0  0
  -29.4419  -18.2065   21.0890 C   0  0  0  0  0  0
  -29.0574  -19.4755   20.2308 C   0  0  0  0  0  0
  -29.8932  -16.9054   20.3151 C   0  0  0  0  0  0
  -28.5133  -25.2843   19.6321 C   0  0  0  0  0  0
  -33.4823  -21.9235   20.0710 C   0  0  1  0  0  0
  -29.9962  -20.6197   20.2676 N   0  0  0  0  0  0
  -29.9937  -15.6101   21.0767 N   0  0  0  0  0  0
  -31.4688  -12.4527   19.1420 H   0  0  0  0  0  0
  -30.3343  -11.3463   19.8551 H   0  0  0  0  0  0
  -29.7552  -11.7838   17.4486 H   0  0  0  0  0  0
  -29.6589  -13.4974   17.7626 H   0  0  0  0  0  0
  -27.8402  -11.3110   18.8230 H   0  0  0  0  0  0
  -27.3738  -12.6314   17.7839 H   0  0  0  0  0  0
  -27.6924  -14.2605   19.5609 H   0  0  0  0  0  0
  -28.6842  -11.9944   21.3520 H   0  0  0  0  0  0
  -28.4242  -13.6322   21.8555 H   0  0  0  0  0  0
  -25.2755   -9.5684   22.4736 H   0  0  0  0  0  0
  -23.9992   -7.4640   22.7469 H   0  0  0  0  0  0
  -21.0826   -8.8776   19.8957 H   0  0  0  0  0  0
  -22.3686  -10.9670   19.6150 H   0  0  0  0  0  0
  -21.2012   -7.6144   23.9714 H   0  0  0  0  0  0
  -21.1484   -6.0516   25.9075 H   0  0  0  0  0  0
  -22.0596   -2.7605   23.2840 H   0  0  0  0  0  0
  -22.4087  -11.9923   22.4832 H   0  0  0  0  0  0
  -21.1097  -13.1283   22.2602 H   0  0  0  0  0  0
  -24.6647  -15.8479   20.5336 H   0  0  0  0  0  0
  -26.2936  -15.6363   20.1355 H   0  0  0  0  0  0
  -26.7130  -32.5497   23.1121 H   0  0  0  0  0  0
  -25.0038  -33.9756   25.0428 H   0  0  0  0  0  0
  -22.6968  -31.3037   21.4068 H   0  0  0  0  0  0
  -23.3739  -35.9640   23.3316 H   0  0  0  0  0  0
  -24.3571  -36.8904   22.2052 H   0  0  0  0  0  0
  -23.7229  -37.6505   23.6651 H   0  0  0  0  0  0
  -26.0534  -31.5784   20.5917 H   0  0  0  0  0  0
  -26.8267  -30.8724   21.9826 H   0  0  0  0  0  0
  -28.1050  -29.0625   21.1540 H   0  0  0  0  0  0
  -25.9968  -25.9305   19.0454 H   0  0  0  0  0  0
  -23.9714  -27.2791   19.0510 H   0  0  0  0  0  0
  -23.7202  -30.5843   19.4015 H   0  0  0  0  0  0
  -22.7397  -29.2304   19.8744 H   0  0  0  0  0  0
  -25.1285  -36.1963   25.0825 H   0  0  0  0  0  0
  -20.9956  -28.3231   24.1441 H   0  0  0  0  0  0
  -20.5652  -26.2273   23.3609 H   0  0  0  0  0  0
  -21.6627  -26.7440   22.1219 H   0  0  0  0  0  0
  -19.6894  -25.6296   21.1238 H   0  0  0  0  0  0
  -19.6662  -27.3196   20.6752 H   0  0  0  0  0  0
  -17.4180  -26.6669   21.4038 H   0  0  0  0  0  0
  -18.0319  -26.0046   22.9016 H   0  0  0  0  0  0
  -19.7925  -30.7255   24.2283 H   0  0  0  0  0  0
  -17.5012  -31.6268   24.5162 H   0  0  0  0  0  0
  -15.5346  -30.3002   23.7636 H   0  0  0  0  0  0
  -15.8656  -28.0826   22.7073 H   0  0  0  0  0  0
  -24.5867  -30.7104   25.7803 H   0  0  0  0  0  0
  -24.8905  -32.2926   26.4872 H   0  0  0  0  0  0
  -25.8039  -30.8942   27.0237 H   0  0  0  0  0  0
  -26.2871  -29.6811   24.1117 H   0  0  0  0  0  0
  -27.3997  -29.7267   25.4600 H   0  0  0  0  0  0
  -27.8729  -30.4344   23.9328 H   0  0  0  0  0  0
  -27.2629  -33.3625   26.2069 H   0  0  0  0  0  0
  -28.3830  -32.6903   25.0310 H   0  0  0  0  0  0
  -28.0690  -31.8449   26.5391 H   0  0  0  0  0  0
  -28.2603  -38.0092   24.7512 H   0  0  0  0  0  0
  -28.1056  -36.2625   24.6293 H   0  0  0  0  0  0
  -27.2297  -37.1466   25.8867 H   0  0  0  0  0  0
  -20.9297  -29.8760   21.6946 H   0  0  0  0  0  0
  -26.0170  -38.2871   24.1413 H   0  0  0  0  0  0
  -31.0728  -23.7147   20.2138 H   0  0  0  0  0  0
  -31.8022  -19.4647   20.1657 H   0  0  0  0  0  0
  -33.9865  -24.5671   22.3443 H   0  0  0  0  0  0
  -34.2831  -22.8603   22.6548 H   0  0  0  0  0  0
  -32.6469  -23.4296   22.3391 H   0  0  0  0  0  0
  -33.7238  -20.6559   18.3139 H   0  0  0  0  0  0
  -35.0386  -21.7979   18.5432 H   0  0  0  0  0  0
  -33.4856  -22.3580   17.9310 H   0  0  0  0  0  0
  -30.5298  -16.4629   22.9409 H   0  0  0  0  0  0
  -30.1040  -14.7700   23.0415 H   0  0  0  0  0  0
  -28.8345  -15.9603   22.8128 H   0  0  0  0  0  0
  -27.7221  -22.0977   20.9598 H   0  0  0  0  0  0
  -27.8905  -22.5419   19.2932 H   0  0  0  0  0  0
  -34.9740  -23.4674   20.3497 H   0  0  0  0  0  0
  -33.3970  -24.0965   19.9833 H   0  0  0  0  0  0
  -28.8833  -24.3478   21.5770 H   0  0  0  0  0  0
  -27.2317  -24.3376   21.0561 H   0  0  0  0  0  0
  -28.5501  -17.9577   21.6643 H   0  0  0  0  0  0
  -30.1908  -18.4823   21.8317 H   0  0  0  0  0  0
  -28.0828  -19.8332   20.5616 H   0  0  0  0  0  0
  -28.9219  -19.1895   19.1871 H   0  0  0  0  0  0
  -30.8463  -17.1144   19.8268 H   0  0  0  0  0  0
  -29.1847  -16.7279   19.5039 H   0  0  0  0  0  0
  -27.9076  -25.1227   18.7425 H   0  0  0  0  0  0
  -29.5373  -25.1672   19.2799 H   0  0  0  0  0  0
  -33.9736  -21.1867   20.7096 H   0  0  0  0  0  0
  1 25  1  0  0  0
  1 30  2  0  0  0
  1 87  1  0  0  0
  2  3  1  0  0  0
  2 25  1  0  0  0
  2 88  1  0  0  0
  2 89  1  0  0  0
  3  4  1  0  0  0
  3 90  1  0  0  0
  3 91  1  0  0  0
  4  5  1  0  0  0
  4 92  1  0  0  0
  4 93  1  0  0  0
  5  6  1  0  0  0
  5 26  1  0  0  0
  5 94  1  0  0  0
  6 25  1  0  0  0
  6 95  1  0  0  0
  6 96  1  0  0  0
  7  8  2  0  0  0
  7 26  1  0  0  0
  7 29  1  0  0  0
  8  9  1  0  0  0
  8 22  1  0  0  0
  9 10  1  0  0  0
  9 27  2  0  0  0
 10 11  2  0  0  0
 10 15  1  0  0  0
 11 12  1  0  0  0
 11 97  1  0  0  0
 12 13  2  0  0  0
 12 98  1  0  0  0
 13 14  1  0  0  0
 13 31  1  0  0  0
 14 15  2  0  0  0
 14 99  1  0  0  0
 15100  1  0  0  0
 16 17  2  0  0  0
 16 21  1  0  0  0
 16 31  1  0  0  0
 17 18  1  0  0  0
 17101  1  0  0  0
 18 19  2  0  0  0
 18102  1  0  0  0
 19 20  1  0  0  0
 19 24  1  0  0  0
 20 21  2  0  0  0
 20103  1  0  0  0
 21 23  1  0  0  0
 22 28  1  0  0  0
 22 32  2  0  0  0
 26 27  1  0  0  0
 28104  1  0  0  0
 28105  1  0  0  0
 29106  1  0  0  0
 29107  1  0  0  0
 33 34  1  0  0  0
 33 66  1  0  0  0
 33 70  2  0  0  0
 34 36  1  0  0  0
 34 59  1  0  0  0
 34108  1  0  0  0
 35 44  2  0  0  0
 35 45  1  0  0  0
 35 68  1  0  0  0
 36 56  1  0  0  0
 36109  1  0  0  0
 37 39  1  0  0  0
 37 47  1  0  0  0
 37 66  1  0  0  0
 37110  1  0  0  0
 38 43  2  0  0  0
 38 46  1  0  0  0
 38 47  1  0  0  0
 39 64  1  0  0  0
 39 67  2  0  0  0
 40 52  1  0  0  0
 40 53  2  0  0  0
 40 58  1  0  0  0
 41111  1  0  0  0
 41112  1  0  0  0
 41113  1  0  0  0
 41 48  1  0  0  0
 42 43  1  0  0  0
 42 66  1  0  0  0
 42114  1  0  0  0
 42115  1  0  0  0
 43 44  1  0  0  0
 44116  1  0  0  0
 45 46  2  0  0  0
 45117  1  0  0  0
 46118  1  0  0  0
 47119  1  0  0  0
 47120  1  0  0  0
 48 56  1  0  0  0
 48 65  1  0  0  0
 48121  1  0  0  0
 49 50  1  0  0  0
 49 53  1  0  0  0
 49 64  1  0  0  0
 49122  1  0  0  0
 50 51  1  0  0  0
 50123  1  0  0  0
 50124  1  0  0  0
 51 52  1  0  0  0
 51125  1  0  0  0
 51126  1  0  0  0
 52127  1  0  0  0
 52128  1  0  0  0
 53 54  1  0  0  0
 54 55  2  0  0  0
 54129  1  0  0  0
 55 57  1  0  0  0
 55130  1  0  0  0
 56 69  2  0  0  0
 57 58  2  0  0  0
 57131  1  0  0  0
 58132  1  0  0  0
 59 60  1  0  0  0
 59 61  1  0  0  0
 59 62  1  0  0  0
 60133  1  0  0  0
 60134  1  0  0  0
 60135  1  0  0  0
 61136  1  0  0  0
 61137  1  0  0  0
 61138  1  0  0  0
 62139  1  0  0  0
 62140  1  0  0  0
 62141  1  0  0  0
 63 65  1  0  0  0
 63142  1  0  0  0
 63143  1  0  0  0
 63144  1  0  0  0
 64145  1  0  0  0
 65146  1  0  0  0
 68 84  1  0  0  0
 71 73  1  0  0  0
 71 74  2  0  0  0
 71147  1  0  0  0
 72 73  2  0  0  0
 72 86  1  0  0  0
 72148  1  0  0  0
 73 85  1  0  0  0
 74 78  1  0  0  0
 74 86  1  0  0  0
 75 79  1  0  0  0
 75149  1  0  0  0
 75150  1  0  0  0
 75151  1  0  0  0
 76152  1  0  0  0
 76153  1  0  0  0
 76154  1  0  0  0
 76 85  1  0  0  0
 77 87  1  0  0  0
 77155  1  0  0  0
 77156  1  0  0  0
 77157  1  0  0  0
 78 80  1  0  0  0
 78158  1  0  0  0
 78159  1  0  0  0
 79 85  1  0  0  0
 79160  1  0  0  0
 79161  1  0  0  0
 80 84  1  0  0  0
 80162  1  0  0  0
 80163  1  0  0  0
 81 82  1  0  0  0
 81 83  1  0  0  0
 81164  1  0  0  0
 81165  1  0  0  0
 82 86  1  0  0  0
 82166  1  0  0  0
 82167  1  0  0  0
 83 87  1  0  0  0
 83168  1  0  0  0
 83169  1  0  0  0
 84170  1  0  0  0
 84171  1  0  0  0
 85172  1  0  0  0
M  ISO  4   1 100  68 101  84 101  87 100
M  END
> <chiral flag>
0

> <version>
0

> <s_m_source_file>
/data/baiqing/PycharmProjects/Reinvent-master-3.2/result/LINK_invent/BTK/process_docking_weight1_custom_sum_contain_oxygen_bond_distance_aromatic_linkinvent_7_9_3/rearranged_h_0090.sdf

> <i_m_source_file_index>
12

> <r_mmod_Potential_Energy-OPLS-2005>
142.339538574219

> <r_mmod_Stretch_Energy-OPLS-2005>
60.1739959716797

> <r_mmod_Bend_Energy-OPLS-2005>
138.031814575195

> <r_mmod_Torsional_Energy-OPLS-2005>
302.426818847656

> <r_mmod_Improper_Torsional_Energy-OPLS-2005>
7.31349563598633

> <r_mmod_Van_der_Waal_Energy-OPLS-2005>
124.506057739258

> <r_mmod_Electrostatic_Energy-OPLS-2005>
-318.539276123047

> <r_mmod_Solvation_Energy-OPLS-2005>
-192.454177856445

> <b_mmod_Minimization_Converged-OPLS-2005>
0

> <r_mmod_RMS_Derivative-OPLS-2005>
1.4297708272934

$$$$
12
                    3D
 Structure written by MMmdl.
154162  0  0  1  0            999 V2000
  -30.6183  -14.6983   20.4821 C   0  0  0  0  0  0
  -30.4333  -12.4317   19.4563 C   0  0  0  0  0  0
  -29.5052  -12.5028   18.2240 C   0  0  0  0  0  0
  -28.0306  -12.3324   18.6395 C   0  0  0  0  0  0
  -27.6431  -13.2244   19.8494 C   0  0  2  0  0  0
  -28.6881  -13.1311   20.9812 C   0  0  0  0  0  0
  -25.2521  -13.8185   20.5691 C   0  0  0  0  0  0
  -24.1807  -13.0439   20.9214 C   0  0  0  0  0  0
  -24.6387  -11.6914   20.8752 C   0  0  0  0  0  0
  -23.9063  -10.4291   21.0411 C   0  0  0  0  0  0
  -24.3615   -9.4204   21.9186 C   0  0  0  0  0  0
  -23.6288   -8.2241   22.0757 C   0  0  0  0  0  0
  -22.4270   -8.0282   21.3544 C   0  0  0  0  0  0
  -21.9907   -9.0257   20.4647 C   0  0  0  0  0  0
  -22.7238  -10.2134   20.3056 C   0  0  0  0  0  0
  -21.6852   -6.0735   22.5278 C   0  0  0  0  0  0
  -21.4016   -6.5638   23.8212 C   0  0  0  0  0  0
  -21.3662   -5.6791   24.9173 C   0  0  0  0  0  0
  -21.6045   -4.3053   24.7222 C   0  0  0  0  0  0
  -21.8820   -3.8145   23.4343 C   0  0  0  0  0  0
  -21.9192   -4.6963   22.3399 C   0  0  0  0  0  0
  -22.7826  -13.5229   21.1863 C   0  0  0  0  0  0
  -22.1663   -4.2150   21.0978 F   0  0  0  0  0  0
  -21.5627   -3.4538   25.7735 F   0  0  0  0  0  0
  -29.9909  -13.4797   20.4000 N   0  0  0  0  0  0
  -26.2938  -12.9377   20.3265 N   0  0  0  0  0  0
  -25.9311  -11.6527   20.5742 N   0  0  0  0  0  0
  -22.0463  -12.8230   22.0420 N   0  0  0  0  0  0
  -25.4209  -15.1910   20.4103 N   0  0  0  0  0  0
  -31.8074  -14.8107   20.1721 O   0  0  0  0  0  0
  -21.6634   -6.8879   21.4239 O   0  0  0  0  0  0
  -22.3515  -14.5530   20.6700 O   0  0  0  0  0  0
  -24.6286  -31.8570   23.1984 C   0  0  0  0  0  0
  -25.9126  -32.4762   23.8327 C   0  0  1  0  0  0
  -27.2229  -27.2943   20.1322 C   0  0  0  0  0  0
  -25.5931  -33.8563   24.2262 N   0  0  0  0  0  0
  -23.4243  -30.4779   21.5414 C   0  0  2  0  0  0
  -24.8719  -28.9227   20.1139 C   0  0  0  0  0  0
  -22.7494  -29.4608   22.4927 C   0  0  0  0  0  0
  -18.0292  -28.1382   22.8477 C   0  0  0  0  0  0
  -24.1488  -36.7289   23.2640 C   0  0  0  0  0  0
  -25.9659  -30.7808   21.3709 C   0  0  0  0  0  0
  -26.0413  -29.4037   20.7178 C   0  0  0  0  0  0
  -27.2242  -28.6028   20.7113 C   0  0  0  0  0  0
  -26.0342  -26.8643   19.5091 C   0  0  0  0  0  0
  -24.8711  -27.6597   19.4983 C   0  0  0  0  0  0
  -23.6414  -29.8074   20.1585 C   0  0  0  0  0  0
  -25.4114  -36.3076   24.0329 C   0  0  1  0  0  0
  -20.5893  -28.3700   23.1286 C   0  0  2  0  0  0
  -20.6785  -26.9418   22.5421 C   0  0  0  0  0  0
  -19.5770  -26.6391   21.5212 C   0  0  0  0  0  0
  -18.1946  -26.7923   22.1619 C   0  0  0  0  0  0
  -19.1541  -28.8859   23.2868 C   0  0  0  0  0  0
  -18.9456  -30.1458   23.8885 C   0  0  0  0  0  0
  -17.6453  -30.6582   24.0550 C   0  0  0  0  0  0
  -25.9053  -34.9448   23.5098 C   0  0  0  0  0  0
  -16.5347  -29.9075   23.6319 C   0  0  0  0  0  0
  -16.7278  -28.6495   23.0338 C   0  0  0  0  0  0
  -26.4502  -31.6579   25.0707 C   0  0  0  0  0  0
  -25.3731  -31.3724   26.1431 C   0  0  0  0  0  0
  -27.0347  -30.3000   24.6170 C   0  0  0  0  0  0
  -27.6053  -32.4319   25.7485 C   0  0  0  0  0  0
  -27.5579  -37.1800   24.8466 C   0  0  0  0  0  0
  -21.4202  -29.3051   22.3684 N   0  0  0  0  0  0
  -26.4290  -37.3775   23.9410 N   0  0  0  0  0  0
  -24.6919  -31.0563   22.0939 N   0  0  0  0  0  0
  -23.4207  -28.8154   23.3021 O   0  0  0  0  0  0
  -28.3269  -26.4272   20.1328 O   0  0  0  0  0  0
  -26.5623  -34.8918   22.4664 O   0  0  0  0  0  0
  -23.5441  -32.1379   23.7297 O   0  0  0  0  0  0
  -29.4967  -19.7998   20.9521 C   0  0  0  0  0  0
  -28.3652  -20.5933   19.0019 C   0  0  0  0  0  0
  -28.8789  -20.9186   20.2756 C   0  0  0  0  0  0
  -29.5433  -18.4880   20.3447 C   0  0  0  0  0  0
  -27.4288  -22.2370   21.8568 C   0  0  0  0  0  0
  -30.2911  -17.2429   20.9755 C   0  0  0  0  0  0
  -28.5558  -23.6969   20.0364 C   0  0  0  0  0  0
  -28.1679  -25.0861   20.7652 C   0  0  0  0  0  0
  -28.6550  -22.3481   20.9337 C   0  0  2  0  0  0
  -28.4347  -19.3428   18.4633 N   0  0  0  0  0  0
  -29.0055  -18.3134   19.1126 N   0  0  0  0  0  0
  -29.8470  -15.8091   20.7411 N   0  0  0  0  0  0
  -31.4727  -12.5628   19.1502 H   0  0  0  0  0  0
  -30.3812  -11.4492   19.9284 H   0  0  0  0  0  0
  -29.7804  -11.7348   17.4993 H   0  0  0  0  0  0
  -29.6358  -13.4616   17.7196 H   0  0  0  0  0  0
  -27.8816  -11.2823   18.8931 H   0  0  0  0  0  0
  -27.3737  -12.5363   17.7931 H   0  0  0  0  0  0
  -27.6458  -14.2504   19.4812 H   0  0  0  0  0  0
  -28.7158  -12.1256   21.4038 H   0  0  0  0  0  0
  -28.4279  -13.7991   21.8039 H   0  0  0  0  0  0
  -25.2763   -9.5682   22.4755 H   0  0  0  0  0  0
  -23.9995   -7.4637   22.7483 H   0  0  0  0  0  0
  -21.0839   -8.8784   19.8955 H   0  0  0  0  0  0
  -22.3705  -10.9674   19.6164 H   0  0  0  0  0  0
  -21.2012   -7.6147   23.9719 H   0  0  0  0  0  0
  -21.1482   -6.0516   25.9077 H   0  0  0  0  0  0
  -22.0593   -2.7608   23.2839 H   0  0  0  0  0  0
  -22.4070  -11.9898   22.4821 H   0  0  0  0  0  0
  -21.1081  -13.1261   22.2617 H   0  0  0  0  0  0
  -24.6485  -15.8401   20.5150 H   0  0  0  0  0  0
  -26.2576  -15.6305   20.0481 H   0  0  0  0  0  0
  -26.7195  -32.5427   23.1076 H   0  0  0  0  0  0
  -25.0075  -33.9699   25.0406 H   0  0  0  0  0  0
  -22.7193  -31.2985   21.3946 H   0  0  0  0  0  0
  -23.3743  -35.9627   23.3299 H   0  0  0  0  0  0
  -24.3575  -36.8911   22.2052 H   0  0  0  0  0  0
  -23.7244  -37.6492   23.6663 H   0  0  0  0  0  0
  -26.0963  -31.5407   20.5988 H   0  0  0  0  0  0
  -26.8456  -30.8332   22.0005 H   0  0  0  0  0  0
  -28.1247  -28.9692   21.1838 H   0  0  0  0  0  0
  -26.0030  -25.8912   19.0388 H   0  0  0  0  0  0
  -23.9760  -27.2855   19.0211 H   0  0  0  0  0  0
  -23.7649  -30.5808   19.3997 H   0  0  0  0  0  0
  -22.7610  -29.2376   19.8563 H   0  0  0  0  0  0
  -25.1294  -36.1925   25.0822 H   0  0  0  0  0  0
  -20.9975  -28.3277   24.1412 H   0  0  0  0  0  0
  -20.5673  -26.2312   23.3629 H   0  0  0  0  0  0
  -21.6659  -26.7443   22.1230 H   0  0  0  0  0  0
  -19.6954  -25.6305   21.1236 H   0  0  0  0  0  0
  -19.6713  -27.3210   20.6749 H   0  0  0  0  0  0
  -17.4220  -26.6652   21.4021 H   0  0  0  0  0  0
  -18.0366  -26.0064   22.9019 H   0  0  0  0  0  0
  -19.7925  -30.7278   24.2253 H   0  0  0  0  0  0
  -17.5000  -31.6261   24.5147 H   0  0  0  0  0  0
  -15.5343  -30.2970   23.7634 H   0  0  0  0  0  0
  -15.8686  -28.0806   22.7046 H   0  0  0  0  0  0
  -24.5909  -30.7073   25.7759 H   0  0  0  0  0  0
  -24.8922  -32.2891   26.4851 H   0  0  0  0  0  0
  -25.8053  -30.8907   27.0210 H   0  0  0  0  0  0
  -26.2924  -29.6743   24.1199 H   0  0  0  0  0  0
  -27.4043  -29.7269   25.4682 H   0  0  0  0  0  0
  -27.8793  -30.4277   23.9395 H   0  0  0  0  0  0
  -27.2656  -33.3619   26.2058 H   0  0  0  0  0  0
  -28.3867  -32.6880   25.0319 H   0  0  0  0  0  0
  -28.0716  -31.8449   26.5407 H   0  0  0  0  0  0
  -28.2598  -38.0095   24.7507 H   0  0  0  0  0  0
  -28.1073  -36.2625   24.6300 H   0  0  0  0  0  0
  -27.2297  -37.1461   25.8870 H   0  0  0  0  0  0
  -20.9378  -29.8803   21.6920 H   0  0  0  0  0  0
  -26.0167  -38.2850   24.1403 H   0  0  0  0  0  0
  -29.9203  -19.9393   21.9361 H   0  0  0  0  0  0
  -27.8521  -21.3341   18.4072 H   0  0  0  0  0  0
  -27.5214  -21.3895   22.5367 H   0  0  0  0  0  0
  -26.5125  -22.0980   21.2817 H   0  0  0  0  0  0
  -27.3021  -23.1218   22.4794 H   0  0  0  0  0  0
  -30.2955  -17.3910   22.0551 H   0  0  0  0  0  0
  -31.3353  -17.3352   20.6750 H   0  0  0  0  0  0
  -29.5119  -23.8323   19.5305 H   0  0  0  0  0  0
  -27.8272  -23.5400   19.2415 H   0  0  0  0  0  0
  -28.7729  -25.1405   21.6705 H   0  0  0  0  0  0
  -27.1453  -24.9932   21.1325 H   0  0  0  0  0  0
  -29.5192  -22.4942   21.5836 H   0  0  0  0  0  0
  -28.8639  -15.6385   20.8812 H   0  0  0  0  0  0
  1 25  1  0  0  0
  1 30  2  0  0  0
  1 82  1  0  0  0
  2  3  1  0  0  0
  2 25  1  0  0  0
  2 83  1  0  0  0
  2 84  1  0  0  0
  3  4  1  0  0  0
  3 85  1  0  0  0
  3 86  1  0  0  0
  4  5  1  0  0  0
  4 87  1  0  0  0
  4 88  1  0  0  0
  5  6  1  0  0  0
  5 26  1  0  0  0
  5 89  1  0  0  0
  6 25  1  0  0  0
  6 90  1  0  0  0
  6 91  1  0  0  0
  7  8  2  0  0  0
  7 26  1  0  0  0
  7 29  1  0  0  0
  8  9  1  0  0  0
  8 22  1  0  0  0
  9 10  1  0  0  0
  9 27  2  0  0  0
 10 11  2  0  0  0
 10 15  1  0  0  0
 11 12  1  0  0  0
 11 92  1  0  0  0
 12 13  2  0  0  0
 12 93  1  0  0  0
 13 14  1  0  0  0
 13 31  1  0  0  0
 14 15  2  0  0  0
 14 94  1  0  0  0
 15 95  1  0  0  0
 16 17  2  0  0  0
 16 21  1  0  0  0
 16 31  1  0  0  0
 17 18  1  0  0  0
 17 96  1  0  0  0
 18 19  2  0  0  0
 18 97  1  0  0  0
 19 20  1  0  0  0
 19 24  1  0  0  0
 20 21  2  0  0  0
 20 98  1  0  0  0
 21 23  1  0  0  0
 22 28  1  0  0  0
 22 32  2  0  0  0
 26 27  1  0  0  0
 28 99  1  0  0  0
 28100  1  0  0  0
 29101  1  0  0  0
 29102  1  0  0  0
 33 34  1  0  0  0
 33 66  1  0  0  0
 33 70  2  0  0  0
 34 36  1  0  0  0
 34 59  1  0  0  0
 34103  1  0  0  0
 35 44  2  0  0  0
 35 45  1  0  0  0
 35 68  1  0  0  0
 36 56  1  0  0  0
 36104  1  0  0  0
 37 39  1  0  0  0
 37 47  1  0  0  0
 37 66  1  0  0  0
 37105  1  0  0  0
 38 43  2  0  0  0
 38 46  1  0  0  0
 38 47  1  0  0  0
 39 64  1  0  0  0
 39 67  2  0  0  0
 40 52  1  0  0  0
 40 53  2  0  0  0
 40 58  1  0  0  0
 41106  1  0  0  0
 41107  1  0  0  0
 41108  1  0  0  0
 41 48  1  0  0  0
 42 43  1  0  0  0
 42 66  1  0  0  0
 42109  1  0  0  0
 42110  1  0  0  0
 43 44  1  0  0  0
 44111  1  0  0  0
 45 46  2  0  0  0
 45112  1  0  0  0
 46113  1  0  0  0
 47114  1  0  0  0
 47115  1  0  0  0
 48 56  1  0  0  0
 48 65  1  0  0  0
 48116  1  0  0  0
 49 50  1  0  0  0
 49 53  1  0  0  0
 49 64  1  0  0  0
 49117  1  0  0  0
 50 51  1  0  0  0
 50118  1  0  0  0
 50119  1  0  0  0
 51 52  1  0  0  0
 51120  1  0  0  0
 51121  1  0  0  0
 52122  1  0  0  0
 52123  1  0  0  0
 53 54  1  0  0  0
 54 55  2  0  0  0
 54124  1  0  0  0
 55 57  1  0  0  0
 55125  1  0  0  0
 56 69  2  0  0  0
 57 58  2  0  0  0
 57126  1  0  0  0
 58127  1  0  0  0
 59 60  1  0  0  0
 59 61  1  0  0  0
 59 62  1  0  0  0
 60128  1  0  0  0
 60129  1  0  0  0
 60130  1  0  0  0
 61131  1  0  0  0
 61132  1  0  0  0
 61133  1  0  0  0
 62134  1  0  0  0
 62135  1  0  0  0
 62136  1  0  0  0
 63 65  1  0  0  0
 63137  1  0  0  0
 63138  1  0  0  0
 63139  1  0  0  0
 64140  1  0  0  0
 65141  1  0  0  0
 68 78  1  0  0  0
 71 73  2  0  0  0
 71 74  1  0  0  0
 71142  1  0  0  0
 72 73  1  0  0  0
 72 80  2  0  0  0
 72143  1  0  0  0
 73 79  1  0  0  0
 74 76  1  0  0  0
 74 81  2  0  0  0
 75144  1  0  0  0
 75145  1  0  0  0
 75146  1  0  0  0
 75 79  1  0  0  0
 76 82  1  0  0  0
 76147  1  0  0  0
 76148  1  0  0  0
 77 78  1  0  0  0
 77 79  1  0  0  0
 77149  1  0  0  0
 77150  1  0  0  0
 78151  1  0  0  0
 78152  1  0  0  0
 79153  1  0  0  0
 80 81  1  0  0  0
 82154  1  0  0  0
M  ISO  4   1 100  68 101  78 101  82 100
M  END
> <chiral flag>
0

> <version>
0

> <s_m_source_file>
/data/baiqing/PycharmProjects/Reinvent-master-3.2/result/LINK_invent/BTK/process_docking_weight1_custom_sum_contain_oxygen_bond_distance_aromatic_linkinvent_7_9_3/rearranged_h_0090.sdf

> <i_m_source_file_index>
13

> <r_mmod_Potential_Energy-OPLS-2005>
76.0622863769531

> <r_mmod_Stretch_Energy-OPLS-2005>
103.373680114746

> <r_mmod_Bend_Energy-OPLS-2005>
153.713180541992

> <r_mmod_Torsional_Energy-OPLS-2005>
226.136337280273

> <r_mmod_Improper_Torsional_Energy-OPLS-2005>
4.56783008575439

> <r_mmod_Van_der_Waal_Energy-OPLS-2005>
136.184234619141

> <r_mmod_Electrostatic_Energy-OPLS-2005>
-382.536315917969

> <r_mmod_Solvation_Energy-OPLS-2005>
-231.394653320312

> <b_mmod_Minimization_Converged-OPLS-2005>
0

> <r_mmod_RMS_Derivative-OPLS-2005>
0.832100212574005

$$$$
13
                    3D
 Structure written by MMmdl.
180188  0  0  1  0            999 V2000
  -30.7238  -14.4184   20.5939 C   0  0  0  0  0  0
  -30.4151  -12.2833   19.4061 C   0  0  0  0  0  0
  -29.4910  -12.5190   18.1958 C   0  0  0  0  0  0
  -28.0099  -12.3879   18.6028 C   0  0  0  0  0  0
  -27.6631  -13.2068   19.8749 C   0  0  2  0  0  0
  -28.7040  -12.9603   20.9911 C   0  0  0  0  0  0
  -25.2578  -13.8178   20.5670 C   0  0  0  0  0  0
  -24.1842  -13.0455   20.9186 C   0  0  0  0  0  0
  -24.6407  -11.6931   20.8739 C   0  0  0  0  0  0
  -23.9067  -10.4314   21.0404 C   0  0  0  0  0  0
  -24.3624   -9.4225   21.9180 C   0  0  0  0  0  0
  -23.6299   -8.2255   22.0731 C   0  0  0  0  0  0
  -22.4276   -8.0290   21.3531 C   0  0  0  0  0  0
  -21.9915   -9.0267   20.4634 C   0  0  0  0  0  0
  -22.7246  -10.2155   20.3043 C   0  0  0  0  0  0
  -21.6859   -6.0761   22.5299 C   0  0  0  0  0  0
  -21.4031   -6.5656   23.8232 C   0  0  0  0  0  0
  -21.3639   -5.6792   24.9184 C   0  0  0  0  0  0
  -21.6026   -4.3049   24.7215 C   0  0  0  0  0  0
  -21.8825   -3.8163   23.4339 C   0  0  0  0  0  0
  -21.9200   -4.6988   22.3403 C   0  0  0  0  0  0
  -22.7861  -13.5255   21.1866 C   0  0  0  0  0  0
  -22.1660   -4.2200   21.0974 F   0  0  0  0  0  0
  -21.5593   -3.4520   25.7714 F   0  0  0  0  0  0
  -30.0413  -13.2534   20.4459 N   0  0  0  0  0  0
  -26.3027  -12.9351   20.3341 N   0  0  0  0  0  0
  -25.9327  -11.6514   20.5728 N   0  0  0  0  0  0
  -22.0503  -12.8238   22.0415 N   0  0  0  0  0  0
  -25.4263  -15.1908   20.4074 N   0  0  0  0  0  0
  -31.8173  -14.6397   20.0670 O   0  0  0  0  0  0
  -21.6631   -6.8898   21.4249 O   0  0  0  0  0  0
  -22.3560  -14.5568   20.6717 O   0  0  0  0  0  0
  -24.6125  -31.8680   23.2105 C   0  0  0  0  0  0
  -25.9030  -32.4813   23.8396 C   0  0  1  0  0  0
  -27.2399  -27.4511   20.1063 C   0  0  0  0  0  0
  -25.5911  -33.8617   24.2345 N   0  0  0  0  0  0
  -23.4009  -30.4888   21.5499 C   0  0  2  0  0  0
  -24.8506  -28.9506   20.1202 C   0  0  0  0  0  0
  -22.7405  -29.4644   22.4997 C   0  0  0  0  0  0
  -18.0270  -28.1386   22.8476 C   0  0  0  0  0  0
  -24.1491  -36.7313   23.2638 C   0  0  0  0  0  0
  -25.9261  -30.8357   21.3617 C   0  0  0  0  0  0
  -26.0057  -29.4669   20.7220 C   0  0  0  0  0  0
  -27.2050  -28.7229   20.7182 C   0  0  0  0  0  0
  -26.0754  -26.9440   19.4959 C   0  0  0  0  0  0
  -24.8789  -27.6860   19.5044 C   0  0  0  0  0  0
  -23.6118  -29.8182   20.1651 C   0  0  0  0  0  0
  -25.4106  -36.3110   24.0345 C   0  0  1  0  0  0
  -20.5857  -28.3664   23.1326 C   0  0  2  0  0  0
  -20.6760  -26.9405   22.5416 C   0  0  0  0  0  0
  -19.5741  -26.6391   21.5208 C   0  0  0  0  0  0
  -18.1923  -26.7934   22.1623 C   0  0  0  0  0  0
  -19.1516  -28.8846   23.2893 C   0  0  0  0  0  0
  -18.9457  -30.1465   23.8887 C   0  0  0  0  0  0
  -17.6455  -30.6584   24.0577 C   0  0  0  0  0  0
  -25.9029  -34.9475   23.5135 C   0  0  0  0  0  0
  -16.5342  -29.9088   23.6336 C   0  0  0  0  0  0
  -16.7264  -28.6522   23.0314 C   0  0  0  0  0  0
  -26.4484  -31.6569   25.0699 C   0  0  0  0  0  0
  -25.3782  -31.3650   26.1465 C   0  0  0  0  0  0
  -27.0306  -30.3021   24.6030 C   0  0  0  0  0  0
  -27.6067  -32.4266   25.7469 C   0  0  0  0  0  0
  -27.5579  -37.1814   24.8473 C   0  0  0  0  0  0
  -21.4136  -29.3026   22.3738 N   0  0  0  0  0  0
  -26.4290  -37.3793   23.9417 N   0  0  0  0  0  0
  -24.6646  -31.0796   22.0994 N   0  0  0  0  0  0
  -23.4184  -28.8193   23.3040 O   0  0  0  0  0  0
  -28.4034  -26.7236   20.0531 O   0  0  0  0  0  0
  -26.5573  -34.8927   22.4686 O   0  0  0  0  0  0
  -23.5325  -32.1425   23.7517 O   0  0  0  0  0  0
  -30.6631  -23.2264   22.9138 C   0  0  0  0  0  0
  -31.5838  -22.1728   22.6497 C   0  0  0  0  0  0
  -29.5244  -22.8628   22.2413 C   0  0  0  0  0  0
  -30.9217  -24.4479   23.7544 C   0  0  0  0  0  0
  -33.9993  -22.7658   20.8269 C   0  0  0  0  0  0
  -28.5039  -17.5169   19.8711 C   0  0  0  0  0  0
  -31.9702  -19.0821   19.5390 C   0  0  0  0  0  0
  -33.0132  -22.0341   23.1089 C   0  0  0  0  0  0
  -28.1771  -23.5294   22.1907 C   0  0  0  0  0  0
  -33.9923  -22.9528   22.3514 C   0  0  0  0  0  0
  -27.9513  -24.5039   21.0167 C   0  0  0  0  0  0
  -28.9637  -20.8580   20.7122 C   0  0  0  0  0  0
  -30.4870  -16.7957   21.3013 C   0  0  0  0  0  0
  -29.7460  -20.1352   19.5875 C   0  0  0  0  0  0
  -28.6461  -25.8718   21.1757 C   0  0  0  0  0  0
  -30.0386  -17.6153   20.0544 C   0  0  2  0  0  0
  -31.0586  -21.2425   21.8730 N   0  0  0  0  0  0
  -29.8122  -21.6756   21.5796 N   0  0  0  0  0  0
  -30.0711  -15.3877   21.2475 N   0  0  0  0  0  0
  -30.5955  -19.0147   20.0992 N   0  3  1  0  0  0
  -31.4620  -12.3707   19.1081 H   0  0  0  0  0  0
  -30.2967  -11.2653   19.7800 H   0  0  0  0  0  0
  -29.7218  -11.8139   17.3973 H   0  0  0  0  0  0
  -29.6758  -13.5122   17.7848 H   0  0  0  0  0  0
  -27.8009  -11.3310   18.7712 H   0  0  0  0  0  0
  -27.3678  -12.6937   17.7751 H   0  0  0  0  0  0
  -27.7133  -14.2576   19.5937 H   0  0  0  0  0  0
  -28.6678  -11.9196   21.3146 H   0  0  0  0  0  0
  -28.4697  -13.5462   21.8797 H   0  0  0  0  0  0
  -25.2775   -9.5693   22.4758 H   0  0  0  0  0  0
  -24.0010   -7.4639   22.7439 H   0  0  0  0  0  0
  -21.0844   -8.8790   19.8953 H   0  0  0  0  0  0
  -22.3703  -10.9683   19.6135 H   0  0  0  0  0  0
  -21.2055   -7.6177   23.9766 H   0  0  0  0  0  0
  -21.1425   -6.0501   25.9088 H   0  0  0  0  0  0
  -22.0629   -2.7637   23.2807 H   0  0  0  0  0  0
  -22.4096  -11.9875   22.4785 H   0  0  0  0  0  0
  -21.1122  -13.1262   22.2606 H   0  0  0  0  0  0
  -24.6549  -15.8387   20.5264 H   0  0  0  0  0  0
  -26.2709  -15.6395   20.0778 H   0  0  0  0  0  0
  -26.7091  -32.5538   23.1151 H   0  0  0  0  0  0
  -25.0121  -33.9804   25.0529 H   0  0  0  0  0  0
  -22.6882  -31.3033   21.4102 H   0  0  0  0  0  0
  -23.3743  -35.9656   23.3312 H   0  0  0  0  0  0
  -24.3587  -36.8905   22.2048 H   0  0  0  0  0  0
  -23.7253  -37.6533   23.6624 H   0  0  0  0  0  0
  -26.0289  -31.5927   20.5832 H   0  0  0  0  0  0
  -26.8185  -30.9008   21.9725 H   0  0  0  0  0  0
  -28.0990  -29.1229   21.1768 H   0  0  0  0  0  0
  -26.0971  -25.9763   19.0138 H   0  0  0  0  0  0
  -23.9951  -27.2844   19.0284 H   0  0  0  0  0  0
  -23.7274  -30.5920   19.4053 H   0  0  0  0  0  0
  -22.7367  -29.2380   19.8651 H   0  0  0  0  0  0
  -25.1283  -36.1972   25.0835 H   0  0  0  0  0  0
  -20.9943  -28.3219   24.1450 H   0  0  0  0  0  0
  -20.5674  -26.2273   23.3599 H   0  0  0  0  0  0
  -21.6634  -26.7455   22.1206 H   0  0  0  0  0  0
  -19.6899  -25.6308   21.1228 H   0  0  0  0  0  0
  -19.6681  -27.3214   20.6749 H   0  0  0  0  0  0
  -17.4196  -26.6673   21.4021 H   0  0  0  0  0  0
  -18.0323  -26.0081   22.9028 H   0  0  0  0  0  0
  -19.7931  -30.7293   24.2221 H   0  0  0  0  0  0
  -17.5011  -31.6260   24.5197 H   0  0  0  0  0  0
  -15.5344  -30.2986   23.7680 H   0  0  0  0  0  0
  -15.8665  -28.0876   22.6968 H   0  0  0  0  0  0
  -24.5974  -30.6956   25.7822 H   0  0  0  0  0  0
  -24.8952  -32.2795   26.4915 H   0  0  0  0  0  0
  -25.8187  -30.8840   27.0210 H   0  0  0  0  0  0
  -26.2828  -29.6770   24.1129 H   0  0  0  0  0  0
  -27.4158  -29.7249   25.4447 H   0  0  0  0  0  0
  -27.8623  -30.4359   23.9110 H   0  0  0  0  0  0
  -27.2693  -33.3560   26.2061 H   0  0  0  0  0  0
  -28.3878  -32.6806   25.0294 H   0  0  0  0  0  0
  -28.0709  -31.8358   26.5376 H   0  0  0  0  0  0
  -28.2608  -38.0100   24.7512 H   0  0  0  0  0  0
  -28.1071  -36.2635   24.6306 H   0  0  0  0  0  0
  -27.2312  -37.1479   25.8884 H   0  0  0  0  0  0
  -20.9294  -29.8763   21.6975 H   0  0  0  0  0  0
  -26.0181  -38.2878   24.1394 H   0  0  0  0  0  0
  -31.5827  -25.1517   23.2457 H   0  0  0  0  0  0
  -31.4028  -24.1893   24.6983 H   0  0  0  0  0  0
  -30.0079  -24.9864   24.0052 H   0  0  0  0  0  0
  -33.0354  -23.0320   20.3894 H   0  0  0  0  0  0
  -34.2296  -21.7352   20.5545 H   0  0  0  0  0  0
  -34.7520  -23.4044   20.3645 H   0  0  0  0  0  0
  -28.1881  -16.4777   19.8258 H   0  0  0  0  0  0
  -28.1590  -17.9402   18.9294 H   0  0  0  0  0  0
  -27.9577  -17.9810   20.6908 H   0  0  0  0  0  0
  -32.4165  -20.0641   19.7059 H   0  0  0  0  0  0
  -31.9687  -18.8956   18.4645 H   0  0  0  0  0  0
  -32.6329  -18.3544   20.0070 H   0  0  0  0  0  0
  -33.3430  -20.9993   23.0016 H   0  0  0  0  0  0
  -33.0746  -22.2465   24.1763 H   0  0  0  0  0  0
  -27.9906  -24.0466   23.1314 H   0  0  0  0  0  0
  -27.4111  -22.7563   22.1503 H   0  0  0  0  0  0
  -33.7607  -23.9937   22.5798 H   0  0  0  0  0  0
  -34.9988  -22.7796   22.7341 H   0  0  0  0  0  0
  -26.8777  -24.6751   20.9398 H   0  0  0  0  0  0
  -28.2492  -24.0336   20.0803 H   0  0  0  0  0  0
  -28.4028  -20.1576   21.3297 H   0  0  0  0  0  0
  -28.2283  -21.5138   20.2466 H   0  0  0  0  0  0
  -30.0597  -17.2335   22.2032 H   0  0  0  0  0  0
  -31.5692  -16.8427   21.4330 H   0  0  0  0  0  0
  -30.3728  -20.8926   19.1172 H   0  0  0  0  0  0
  -29.0874  -19.8251   18.7808 H   0  0  0  0  0  0
  -29.7234  -25.7235   21.2484 H   0  0  0  0  0  0
  -28.3376  -26.3562   22.1051 H   0  0  0  0  0  0
  -30.4661  -17.1386   19.1695 H   0  0  0  0  0  0
  -29.1793  -15.1428   21.6526 H   0  0  0  0  0  0
  -30.7187  -19.2740   21.0720 H   0  0  0  0  0  0
  1 25  1  0  0  0
  1 30  2  0  0  0
  1 89  1  0  0  0
  2  3  1  0  0  0
  2 25  1  0  0  0
  2 91  1  0  0  0
  2 92  1  0  0  0
  3  4  1  0  0  0
  3 93  1  0  0  0
  3 94  1  0  0  0
  4  5  1  0  0  0
  4 95  1  0  0  0
  4 96  1  0  0  0
  5  6  1  0  0  0
  5 26  1  0  0  0
  5 97  1  0  0  0
  6 25  1  0  0  0
  6 98  1  0  0  0
  6 99  1  0  0  0
  7  8  2  0  0  0
  7 26  1  0  0  0
  7 29  1  0  0  0
  8  9  1  0  0  0
  8 22  1  0  0  0
  9 10  1  0  0  0
  9 27  2  0  0  0
 10 11  2  0  0  0
 10 15  1  0  0  0
 11 12  1  0  0  0
 11100  1  0  0  0
 12 13  2  0  0  0
 12101  1  0  0  0
 13 14  1  0  0  0
 13 31  1  0  0  0
 14 15  2  0  0  0
 14102  1  0  0  0
 15103  1  0  0  0
 16 17  2  0  0  0
 16 21  1  0  0  0
 16 31  1  0  0  0
 17 18  1  0  0  0
 17104  1  0  0  0
 18 19  2  0  0  0
 18105  1  0  0  0
 19 20  1  0  0  0
 19 24  1  0  0  0
 20 21  2  0  0  0
 20106  1  0  0  0
 21 23  1  0  0  0
 22 28  1  0  0  0
 22 32  2  0  0  0
 26 27  1  0  0  0
 28107  1  0  0  0
 28108  1  0  0  0
 29109  1  0  0  0
 29110  1  0  0  0
 33 34  1  0  0  0
 33 66  1  0  0  0
 33 70  2  0  0  0
 34 36  1  0  0  0
 34 59  1  0  0  0
 34111  1  0  0  0
 35 44  2  0  0  0
 35 45  1  0  0  0
 35 68  1  0  0  0
 36 56  1  0  0  0
 36112  1  0  0  0
 37 39  1  0  0  0
 37 47  1  0  0  0
 37 66  1  0  0  0
 37113  1  0  0  0
 38 43  2  0  0  0
 38 46  1  0  0  0
 38 47  1  0  0  0
 39 64  1  0  0  0
 39 67  2  0  0  0
 40 52  1  0  0  0
 40 53  2  0  0  0
 40 58  1  0  0  0
 41114  1  0  0  0
 41115  1  0  0  0
 41116  1  0  0  0
 41 48  1  0  0  0
 42 43  1  0  0  0
 42 66  1  0  0  0
 42117  1  0  0  0
 42118  1  0  0  0
 43 44  1  0  0  0
 44119  1  0  0  0
 45 46  2  0  0  0
 45120  1  0  0  0
 46121  1  0  0  0
 47122  1  0  0  0
 47123  1  0  0  0
 48 56  1  0  0  0
 48 65  1  0  0  0
 48124  1  0  0  0
 49 50  1  0  0  0
 49 53  1  0  0  0
 49 64  1  0  0  0
 49125  1  0  0  0
 50 51  1  0  0  0
 50126  1  0  0  0
 50127  1  0  0  0
 51 52  1  0  0  0
 51128  1  0  0  0
 51129  1  0  0  0
 52130  1  0  0  0
 52131  1  0  0  0
 53 54  1  0  0  0
 54 55  2  0  0  0
 54132  1  0  0  0
 55 57  1  0  0  0
 55133  1  0  0  0
 56 69  2  0  0  0
 57 58  2  0  0  0
 57134  1  0  0  0
 58135  1  0  0  0
 59 60  1  0  0  0
 59 61  1  0  0  0
 59 62  1  0  0  0
 60136  1  0  0  0
 60137  1  0  0  0
 60138  1  0  0  0
 61139  1  0  0  0
 61140  1  0  0  0
 61141  1  0  0  0
 62142  1  0  0  0
 62143  1  0  0  0
 62144  1  0  0  0
 63 65  1  0  0  0
 63145  1  0  0  0
 63146  1  0  0  0
 63147  1  0  0  0
 64148  1  0  0  0
 65149  1  0  0  0
 68 85  1  0  0  0
 71 72  1  0  0  0
 71 73  2  0  0  0
 71 74  1  0  0  0
 72 78  1  0  0  0
 72 87  2  0  0  0
 73 79  1  0  0  0
 73 88  1  0  0  0
 74150  1  0  0  0
 74151  1  0  0  0
 74152  1  0  0  0
 75 80  1  0  0  0
 75153  1  0  0  0
 75154  1  0  0  0
 75155  1  0  0  0
 76156  1  0  0  0
 76157  1  0  0  0
 76158  1  0  0  0
 76 86  1  0  0  0
 77159  1  0  0  0
 77160  1  0  0  0
 77161  1  0  0  0
 77 90  1  0  0  0
 78 80  1  0  0  0
 78162  1  0  0  0
 78163  1  0  0  0
 79 81  1  0  0  0
 79164  1  0  0  0
 79165  1  0  0  0
 80166  1  0  0  0
 80167  1  0  0  0
 81 85  1  0  0  0
 81168  1  0  0  0
 81169  1  0  0  0
 82 84  1  0  0  0
 82 88  1  0  0  0
 82170  1  0  0  0
 82171  1  0  0  0
 83 86  1  0  0  0
 83 89  1  0  0  0
 83172  1  0  0  0
 83173  1  0  0  0
 84 90  1  0  0  0
 84174  1  0  0  0
 84175  1  0  0  0
 85176  1  0  0  0
 85177  1  0  0  0
 86 90  1  0  0  0
 86178  1  0  0  0
 87 88  1  0  0  0
 89179  1  0  0  0
 90180  1  0  0  0
M  CHG  1  90   1
M  ISO  4   1 100  68 101  85 101  89 100
M  END
> <chiral flag>
0

> <version>
0

> <s_m_source_file>
/data/baiqing/PycharmProjects/Reinvent-master-3.2/result/LINK_invent/BTK/process_docking_weight1_custom_sum_contain_oxygen_bond_distance_aromatic_linkinvent_7_9_3/rearranged_h_0090.sdf

> <i_m_source_file_index>
14

> <r_mmod_Potential_Energy-OPLS-2005>
-284.546600341797

> <r_mmod_Stretch_Energy-OPLS-2005>
36.9270172119141

> <r_mmod_Bend_Energy-OPLS-2005>
104.730369567871

> <r_mmod_Torsional_Energy-OPLS-2005>
256.143768310547

> <r_mmod_Improper_Torsional_Energy-OPLS-2005>
3.26993107795715

> <r_mmod_Van_der_Waal_Energy-OPLS-2005>
122.824821472168

> <r_mmod_Electrostatic_Energy-OPLS-2005>
-413.834686279297

> <r_mmod_Solvation_Energy-OPLS-2005>
-402.565551757812

> <b_mmod_Minimization_Converged-OPLS-2005>
0

> <r_mmod_RMS_Derivative-OPLS-2005>
2.23273062705994

$$$$
14
                    3D
 Structure written by MMmdl.
169177  0  0  1  0            999 V2000
  -30.6684  -14.6101   20.5048 C   0  0  0  0  0  0
  -30.4307  -12.3603   19.4649 C   0  0  0  0  0  0
  -29.5218  -12.5021   18.2242 C   0  0  0  0  0  0
  -28.0430  -12.3480   18.6374 C   0  0  0  0  0  0
  -27.6599  -13.2286   19.8636 C   0  0  2  0  0  0
  -28.7072  -13.0985   20.9947 C   0  0  0  0  0  0
  -25.2632  -13.8196   20.5685 C   0  0  0  0  0  0
  -24.1868  -13.0416   20.9207 C   0  0  0  0  0  0
  -24.6459  -11.6913   20.8749 C   0  0  0  0  0  0
  -23.9110  -10.4263   21.0428 C   0  0  0  0  0  0
  -24.3634   -9.4164   21.9209 C   0  0  0  0  0  0
  -23.6278   -8.2214   22.0785 C   0  0  0  0  0  0
  -22.4256   -8.0284   21.3570 C   0  0  0  0  0  0
  -21.9907   -9.0265   20.4667 C   0  0  0  0  0  0
  -22.7280  -10.2134   20.3076 C   0  0  0  0  0  0
  -21.6839   -6.0709   22.5286 C   0  0  0  0  0  0
  -21.4000   -6.5620   23.8215 C   0  0  0  0  0  0
  -21.3673   -5.6792   24.9193 C   0  0  0  0  0  0
  -21.6069   -4.3055   24.7252 C   0  0  0  0  0  0
  -21.8807   -3.8126   23.4374 C   0  0  0  0  0  0
  -21.9165   -4.6935   22.3414 C   0  0  0  0  0  0
  -22.7921  -13.5265   21.1841 C   0  0  0  0  0  0
  -22.1636   -4.2112   21.0995 F   0  0  0  0  0  0
  -21.5649   -3.4533   25.7771 F   0  0  0  0  0  0
  -30.0185  -13.4099   20.4144 N   0  0  0  0  0  0
  -26.3061  -12.9380   20.3342 N   0  0  0  0  0  0
  -25.9407  -11.6514   20.5779 N   0  0  0  0  0  0
  -22.0500  -12.8256   22.0405 N   0  0  0  0  0  0
  -25.4369  -15.1876   20.4161 N   0  0  0  0  0  0
  -31.8501  -14.7204   20.1681 O   0  0  0  0  0  0
  -21.6637   -6.8860   21.4252 O   0  0  0  0  0  0
  -22.3627  -14.5547   20.6702 O   0  0  0  0  0  0
  -24.6196  -31.8733   23.2171 C   0  0  0  0  0  0
  -25.9071  -32.4831   23.8425 C   0  0  1  0  0  0
  -27.1824  -27.3835   20.1112 C   0  0  0  0  0  0
  -25.5943  -33.8632   24.2387 N   0  0  0  0  0  0
  -23.4013  -30.5150   21.5524 C   0  0  2  0  0  0
  -24.8374  -28.9831   20.0966 C   0  0  0  0  0  0
  -22.7368  -29.4852   22.4947 C   0  0  0  0  0  0
  -18.0355  -28.1333   22.8684 C   0  0  0  0  0  0
  -24.1488  -36.7281   23.2640 C   0  0  0  0  0  0
  -25.9387  -30.8286   21.3707 C   0  0  0  0  0  0
  -26.0018  -29.4610   20.7090 C   0  0  0  0  0  0
  -27.1779  -28.6680   20.7166 C   0  0  0  0  0  0
  -26.0096  -26.9467   19.4593 C   0  0  0  0  0  0
  -24.8421  -27.7308   19.4607 C   0  0  0  0  0  0
  -23.5971  -29.8494   20.1606 C   0  0  0  0  0  0
  -25.4130  -36.3131   24.0362 C   0  0  1  0  0  0
  -20.5947  -28.3876   23.1511 C   0  0  2  0  0  0
  -20.7051  -26.9731   22.5441 C   0  0  0  0  0  0
  -19.6001  -26.6626   21.5274 C   0  0  0  0  0  0
  -18.2152  -26.8075   22.1546 C   0  0  0  0  0  0
  -19.1541  -28.8878   23.3149 C   0  0  0  0  0  0
  -18.9318  -30.1551   23.8954 C   0  0  0  0  0  0
  -17.6221  -30.6636   24.0419 C   0  0  0  0  0  0
  -25.9043  -34.9478   23.5140 C   0  0  0  0  0  0
  -16.5227  -29.8911   23.6222 C   0  0  0  0  0  0
  -16.7276  -28.6283   23.0372 C   0  0  0  0  0  0
  -26.4469  -31.6612   25.0775 C   0  0  0  0  0  0
  -25.3758  -31.3697   26.1551 C   0  0  0  0  0  0
  -27.0299  -30.3058   24.6201 C   0  0  0  0  0  0
  -27.6042  -32.4319   25.7532 C   0  0  0  0  0  0
  -27.5592  -37.1809   24.8471 C   0  0  0  0  0  0
  -21.4069  -29.3463   22.3973 N   0  0  0  0  0  0
  -26.4323  -37.3835   23.9389 N   0  0  0  0  0  0
  -24.6734  -31.0855   22.1006 N   0  0  0  0  0  0
  -23.4167  -28.8178   23.2789 O   0  0  0  0  0  0
  -28.2826  -26.5394   20.1659 O   0  0  0  0  0  0
  -26.5571  -34.8904   22.4692 O   0  0  0  0  0  0
  -23.5369  -32.1532   23.7513 O   0  0  0  0  0  0
  -29.8455  -20.7819   19.5200 C   0  0  0  0  0  0
  -30.0561  -19.4945   20.0687 C   0  0  0  0  0  0
  -28.7349  -21.3476   20.0834 C   0  0  0  0  0  0
  -29.1309  -19.2480   21.0440 C   0  0  0  0  0  0
  -28.2084  -22.9427   18.1243 C   0  0  0  0  0  0
  -29.0914  -18.3193   23.4486 C   0  0  0  0  0  0
  -25.9850  -19.5197   21.6723 C   0  0  0  0  0  0
  -26.4342  -21.9431   22.0581 C   0  0  0  0  0  0
  -28.8774  -24.0121   20.3003 C   0  0  0  0  0  0
  -30.1672  -16.7963   21.7062 C   0  0  0  0  0  0
  -27.9928  -25.2264   20.7539 C   0  0  0  0  0  0
  -28.1730  -22.7360   19.6633 C   0  0  2  0  0  0
  -29.0726  -17.9599   21.9409 C   0  0  1  0  0  0
  -27.0908  -20.5527   21.9724 C   0  0  0  0  0  0
  -28.2651  -20.4049   21.0627 N   0  0  0  0  0  0
  -29.8995  -15.7263   20.6929 N   0  0  0  0  0  0
  -31.4825  -12.4279   19.1863 H   0  0  0  0  0  0
  -30.3183  -11.3695   19.9096 H   0  0  0  0  0  0
  -29.7780  -11.7490   17.4799 H   0  0  0  0  0  0
  -29.6828  -13.4760   17.7549 H   0  0  0  0  0  0
  -27.8772  -11.2895   18.8604 H   0  0  0  0  0  0
  -27.3884  -12.5760   17.8002 H   0  0  0  0  0  0
  -27.6694  -14.2652   19.5252 H   0  0  0  0  0  0
  -28.7134  -12.0834   21.3951 H   0  0  0  0  0  0
  -28.4826  -13.7713   21.8254 H   0  0  0  0  0  0
  -25.2759   -9.5610   22.4818 H   0  0  0  0  0  0
  -23.9947   -7.4597   22.7533 H   0  0  0  0  0  0
  -21.0806   -8.8832   19.8976 H   0  0  0  0  0  0
  -22.3755  -10.9693   19.6200 H   0  0  0  0  0  0
  -21.2006   -7.6119   23.9703 H   0  0  0  0  0  0
  -21.1520   -6.0529   25.9091 H   0  0  0  0  0  0
  -22.0574   -2.7570   23.2904 H   0  0  0  0  0  0
  -22.4043  -11.9895   22.4741 H   0  0  0  0  0  0
  -21.1168  -13.1413   22.2609 H   0  0  0  0  0  0
  -24.6875  -15.8599   20.5454 H   0  0  0  0  0  0
  -26.3169  -15.6130   20.1437 H   0  0  0  0  0  0
  -26.7120  -32.5581   23.1134 H   0  0  0  0  0  0
  -25.0138  -33.9832   25.0555 H   0  0  0  0  0  0
  -22.6929  -31.3400   21.4235 H   0  0  0  0  0  0
  -23.3778  -35.9573   23.3335 H   0  0  0  0  0  0
  -24.3573  -36.8861   22.2036 H   0  0  0  0  0  0
  -23.7185  -37.6481   23.6618 H   0  0  0  0  0  0
  -26.0779  -31.6150   20.6234 H   0  0  0  0  0  0
  -26.8177  -30.8598   22.0031 H   0  0  0  0  0  0
  -28.0710  -29.0163   21.2163 H   0  0  0  0  0  0
  -25.9847  -25.9970   18.9451 H   0  0  0  0  0  0
  -23.9464  -27.3710   18.9707 H   0  0  0  0  0  0
  -23.6400  -30.6121   19.3812 H   0  0  0  0  0  0
  -22.7247  -29.2355   19.9243 H   0  0  0  0  0  0
  -25.1296  -36.2023   25.0875 H   0  0  0  0  0  0
  -21.0233  -28.3343   24.1581 H   0  0  0  0  0  0
  -21.6866  -26.8270   22.1007 H   0  0  0  0  0  0
  -20.6489  -26.2319   23.3416 H   0  0  0  0  0  0
  -19.7025  -27.3719   20.7077 H   0  0  0  0  0  0
  -19.7198  -25.6668   21.1077 H   0  0  0  0  0  0
  -17.4814  -26.7515   21.3467 H   0  0  0  0  0  0
  -18.0059  -25.9898   22.8492 H   0  0  0  0  0  0
  -19.7825  -30.7439   24.2122 H   0  0  0  0  0  0
  -17.4677  -31.6370   24.4846 H   0  0  0  0  0  0
  -15.5136  -30.2619   23.7369 H   0  0  0  0  0  0
  -15.8776  -28.0511   22.6990 H   0  0  0  0  0  0
  -24.5979  -30.6959   25.7940 H   0  0  0  0  0  0
  -24.8894  -32.2815   26.5025 H   0  0  0  0  0  0
  -25.8203  -30.8923   27.0298 H   0  0  0  0  0  0
  -26.2889  -29.6821   24.1220 H   0  0  0  0  0  0
  -27.3950  -29.7334   25.4732 H   0  0  0  0  0  0
  -27.8758  -30.4347   23.9460 H   0  0  0  0  0  0
  -27.2681  -33.3623   26.2107 H   0  0  0  0  0  0
  -28.3849  -32.6862   25.0354 H   0  0  0  0  0  0
  -28.0669  -31.8435   26.5456 H   0  0  0  0  0  0
  -28.2654  -38.0069   24.7532 H   0  0  0  0  0  0
  -28.1048  -36.2607   24.6315 H   0  0  0  0  0  0
  -27.2264  -37.1476   25.8863 H   0  0  0  0  0  0
  -20.9114  -29.9789   21.7818 H   0  0  0  0  0  0
  -26.0201  -38.2919   24.1406 H   0  0  0  0  0  0
  -30.4452  -21.2570   18.7535 H   0  0  0  0  0  0
  -30.8540  -18.8206   19.7893 H   0  0  0  0  0  0
  -27.6270  -22.1976   17.5702 H   0  0  0  0  0  0
  -29.2311  -22.9201   17.7485 H   0  0  0  0  0  0
  -27.8259  -23.9328   17.8482 H   0  0  0  0  0  0
  -28.0908  -18.5783   23.7872 H   0  0  0  0  0  0
  -29.7518  -19.1642   23.6733 H   0  0  0  0  0  0
  -29.3763  -17.4775   24.0820 H   0  0  0  0  0  0
  -25.0279  -19.8145   22.1189 H   0  0  0  0  0  0
  -26.2265  -18.5457   22.0783 H   0  0  0  0  0  0
  -25.8501  -19.3897   20.5935 H   0  0  0  0  0  0
  -25.7441  -22.1424   21.2309 H   0  0  0  0  0  0
  -27.1992  -22.7199   22.1189 H   0  0  0  0  0  0
  -25.8047  -22.0229   22.9418 H   0  0  0  0  0  0
  -29.4261  -23.6673   21.1771 H   0  0  0  0  0  0
  -29.6205  -24.4091   19.6117 H   0  0  0  0  0  0
  -31.1409  -17.2531   21.5163 H   0  0  0  0  0  0
  -30.3197  -16.2169   22.6298 H   0  0  0  0  0  0
  -28.1445  -25.3499   21.8259 H   0  0  0  0  0  0
  -26.9474  -24.9378   20.6906 H   0  0  0  0  0  0
  -27.1153  -22.7651   19.8874 H   0  0  0  0  0  0
  -28.1104  -17.4804   21.7616 H   0  0  0  0  0  0
  -27.4716  -20.4054   22.9807 H   0  0  0  0  0  0
  -29.7061  -16.1493   19.7932 H   0  0  0  0  0  0
  1 25  1  0  0  0
  1 30  2  0  0  0
  1 86  1  0  0  0
  2  3  1  0  0  0
  2 25  1  0  0  0
  2 87  1  0  0  0
  2 88  1  0  0  0
  3  4  1  0  0  0
  3 89  1  0  0  0
  3 90  1  0  0  0
  4  5  1  0  0  0
  4 91  1  0  0  0
  4 92  1  0  0  0
  5  6  1  0  0  0
  5 26  1  0  0  0
  5 93  1  0  0  0
  6 25  1  0  0  0
  6 94  1  0  0  0
  6 95  1  0  0  0
  7  8  2  0  0  0
  7 26  1  0  0  0
  7 29  1  0  0  0
  8  9  1  0  0  0
  8 22  1  0  0  0
  9 10  1  0  0  0
  9 27  2  0  0  0
 10 11  2  0  0  0
 10 15  1  0  0  0
 11 12  1  0  0  0
 11 96  1  0  0  0
 12 13  2  0  0  0
 12 97  1  0  0  0
 13 14  1  0  0  0
 13 31  1  0  0  0
 14 15  2  0  0  0
 14 98  1  0  0  0
 15 99  1  0  0  0
 16 17  2  0  0  0
 16 21  1  0  0  0
 16 31  1  0  0  0
 17 18  1  0  0  0
 17100  1  0  0  0
 18 19  2  0  0  0
 18101  1  0  0  0
 19 20  1  0  0  0
 19 24  1  0  0  0
 20 21  2  0  0  0
 20102  1  0  0  0
 21 23  1  0  0  0
 22 28  1  0  0  0
 22 32  2  0  0  0
 26 27  1  0  0  0
 28103  1  0  0  0
 28104  1  0  0  0
 29105  1  0  0  0
 29106  1  0  0  0
 33 34  1  0  0  0
 33 66  1  0  0  0
 33 70  2  0  0  0
 34 36  1  0  0  0
 34 59  1  0  0  0
 34107  1  0  0  0
 35 44  2  0  0  0
 35 45  1  0  0  0
 35 68  1  0  0  0
 36 56  1  0  0  0
 36108  1  0  0  0
 37 39  1  0  0  0
 37 47  1  0  0  0
 37 66  1  0  0  0
 37109  1  0  0  0
 38 43  2  0  0  0
 38 46  1  0  0  0
 38 47  1  0  0  0
 39 64  1  0  0  0
 39 67  2  0  0  0
 40 52  1  0  0  0
 40 53  2  0  0  0
 40 58  1  0  0  0
 41110  1  0  0  0
 41111  1  0  0  0
 41112  1  0  0  0
 41 48  1  0  0  0
 42 43  1  0  0  0
 42 66  1  0  0  0
 42113  1  0  0  0
 42114  1  0  0  0
 43 44  1  0  0  0
 44115  1  0  0  0
 45 46  2  0  0  0
 45116  1  0  0  0
 46117  1  0  0  0
 47118  1  0  0  0
 47119  1  0  0  0
 48 56  1  0  0  0
 48 65  1  0  0  0
 48120  1  0  0  0
 49 50  1  0  0  0
 49 53  1  0  0  0
 49 64  1  0  0  0
 49121  1  0  0  0
 50 51  1  0  0  0
 50122  1  0  0  0
 50123  1  0  0  0
 51 52  1  0  0  0
 51124  1  0  0  0
 51125  1  0  0  0
 52126  1  0  0  0
 52127  1  0  0  0
 53 54  1  0  0  0
 54 55  2  0  0  0
 54128  1  0  0  0
 55 57  1  0  0  0
 55129  1  0  0  0
 56 69  2  0  0  0
 57 58  2  0  0  0
 57130  1  0  0  0
 58131  1  0  0  0
 59 60  1  0  0  0
 59 61  1  0  0  0
 59 62  1  0  0  0
 60132  1  0  0  0
 60133  1  0  0  0
 60134  1  0  0  0
 61135  1  0  0  0
 61136  1  0  0  0
 61137  1  0  0  0
 62138  1  0  0  0
 62139  1  0  0  0
 62140  1  0  0  0
 63 65  1  0  0  0
 63141  1  0  0  0
 63142  1  0  0  0
 63143  1  0  0  0
 64144  1  0  0  0
 65145  1  0  0  0
 68 81  1  0  0  0
 71 72  1  0  0  0
 71 73  2  0  0  0
 71146  1  0  0  0
 72 74  2  0  0  0
 72147  1  0  0  0
 73 82  1  0  0  0
 73 85  1  0  0  0
 74 83  1  0  0  0
 74 85  1  0  0  0
 75148  1  0  0  0
 75149  1  0  0  0
 75150  1  0  0  0
 75 82  1  0  0  0
 76151  1  0  0  0
 76152  1  0  0  0
 76153  1  0  0  0
 76 83  1  0  0  0
 77154  1  0  0  0
 77155  1  0  0  0
 77156  1  0  0  0
 77 84  1  0  0  0
 78 84  1  0  0  0
 78157  1  0  0  0
 78158  1  0  0  0
 78159  1  0  0  0
 79 81  1  0  0  0
 79 82  1  0  0  0
 79160  1  0  0  0
 79161  1  0  0  0
 80 83  1  0  0  0
 80 86  1  0  0  0
 80162  1  0  0  0
 80163  1  0  0  0
 81164  1  0  0  0
 81165  1  0  0  0
 82166  1  0  0  0
 83167  1  0  0  0
 84 85  1  0  0  0
 84168  1  0  0  0
 86169  1  0  0  0
M  ISO  4   1 100  68 101  81 101  86 100
M  END
> <chiral flag>
0

> <version>
0

> <s_m_source_file>
/data/baiqing/PycharmProjects/Reinvent-master-3.2/result/LINK_invent/BTK/process_docking_weight1_custom_sum_contain_oxygen_bond_distance_aromatic_linkinvent_7_9_3/rearranged_h_0090.sdf

> <i_m_source_file_index>
15

> <r_mmod_Potential_Energy-OPLS-2005>
164.044708251953

> <r_mmod_Stretch_Energy-OPLS-2005>
90.3987197875977

> <r_mmod_Bend_Energy-OPLS-2005>
163.579406738281

> <r_mmod_Torsional_Energy-OPLS-2005>
371.015625

> <r_mmod_Improper_Torsional_Energy-OPLS-2005>
11.4017744064331

> <r_mmod_Van_der_Waal_Energy-OPLS-2005>
138.691375732422

> <r_mmod_Electrostatic_Energy-OPLS-2005>
-458.393218994141

> <r_mmod_Solvation_Energy-OPLS-2005>
-193.604446411133

> <b_mmod_Minimization_Converged-OPLS-2005>
0

> <r_mmod_RMS_Derivative-OPLS-2005>
13.6403913497925

$$$$
15
                    3D
 Structure written by MMmdl.
152160  0  0  1  0            999 V2000
  -30.7144  -14.5474   20.5091 C   0  0  0  0  0  0
  -30.4044  -12.3402   19.4503 C   0  0  0  0  0  0
  -29.4933  -12.4887   18.2161 C   0  0  0  0  0  0
  -28.0171  -12.3423   18.6280 C   0  0  0  0  0  0
  -27.6473  -13.2215   19.8547 C   0  0  2  0  0  0
  -28.6892  -13.1017   20.9892 C   0  0  0  0  0  0
  -25.2532  -13.8184   20.5676 C   0  0  0  0  0  0
  -24.1808  -13.0447   20.9182 C   0  0  0  0  0  0
  -24.6376  -11.6915   20.8735 C   0  0  0  0  0  0
  -23.9054  -10.4292   21.0392 C   0  0  0  0  0  0
  -24.3616   -9.4206   21.9168 C   0  0  0  0  0  0
  -23.6290   -8.2245   22.0759 C   0  0  0  0  0  0
  -22.4273   -8.0272   21.3550 C   0  0  0  0  0  0
  -21.9900   -9.0241   20.4652 C   0  0  0  0  0  0
  -22.7224  -10.2120   20.3044 C   0  0  0  0  0  0
  -21.6854   -6.0720   22.5273 C   0  0  0  0  0  0
  -21.4016   -6.5636   23.8202 C   0  0  0  0  0  0
  -21.3664   -5.6792   24.9168 C   0  0  0  0  0  0
  -21.6052   -4.3054   24.7223 C   0  0  0  0  0  0
  -21.8820   -3.8135   23.4346 C   0  0  0  0  0  0
  -21.9195   -4.6949   22.3398 C   0  0  0  0  0  0
  -22.7835  -13.5237   21.1850 C   0  0  0  0  0  0
  -22.1661   -4.2130   21.0977 F   0  0  0  0  0  0
  -21.5629   -3.4545   25.7740 F   0  0  0  0  0  0
  -30.0091  -13.3838   20.4132 N   0  0  0  0  0  0
  -26.2959  -12.9381   20.3290 N   0  0  0  0  0  0
  -25.9308  -11.6529   20.5763 N   0  0  0  0  0  0
  -22.0489  -12.8228   22.0407 N   0  0  0  0  0  0
  -25.4225  -15.1910   20.4104 N   0  0  0  0  0  0
  -31.8871  -14.6157   20.1372 O   0  0  0  0  0  0
  -21.6649   -6.8862   21.4234 O   0  0  0  0  0  0
  -22.3524  -14.5547   20.6695 O   0  0  0  0  0  0
  -24.6178  -31.8655   23.2061 C   0  0  0  0  0  0
  -25.9055  -32.4814   23.8375 C   0  0  1  0  0  0
  -27.2278  -27.3920   20.1168 C   0  0  0  0  0  0
  -25.5883  -33.8611   24.2312 N   0  0  0  0  0  0
  -23.4083  -30.4885   21.5470 C   0  0  2  0  0  0
  -24.8552  -28.9465   20.1144 C   0  0  0  0  0  0
  -22.7421  -29.4670   22.4975 C   0  0  0  0  0  0
  -18.0271  -28.1386   22.8476 C   0  0  0  0  0  0
  -24.1481  -36.7318   23.2641 C   0  0  0  0  0  0
  -25.9393  -30.8221   21.3602 C   0  0  0  0  0  0
  -26.0185  -29.4524   20.7087 C   0  0  0  0  0  0
  -27.2113  -28.6867   20.6965 C   0  0  0  0  0  0
  -26.0487  -26.9124   19.5082 C   0  0  0  0  0  0
  -24.8678  -27.6798   19.5060 C   0  0  0  0  0  0
  -23.6194  -29.8179   20.1630 C   0  0  0  0  0  0
  -25.4100  -36.3114   24.0344 C   0  0  1  0  0  0
  -20.5860  -28.3697   23.1309 C   0  0  2  0  0  0
  -20.6766  -26.9430   22.5423 C   0  0  0  0  0  0
  -19.5760  -26.6407   21.5204 C   0  0  0  0  0  0
  -18.1929  -26.7938   22.1599 C   0  0  0  0  0  0
  -19.1513  -28.8853   23.2888 C   0  0  0  0  0  0
  -18.9435  -30.1455   23.8900 C   0  0  0  0  0  0
  -17.6435  -30.6591   24.0551 C   0  0  0  0  0  0
  -25.9028  -34.9475   23.5132 C   0  0  0  0  0  0
  -16.5331  -29.9087   23.6314 C   0  0  0  0  0  0
  -16.7254  -28.6506   23.0330 C   0  0  0  0  0  0
  -26.4468  -31.6597   25.0713 C   0  0  0  0  0  0
  -25.3725  -31.3707   26.1458 C   0  0  0  0  0  0
  -27.0290  -30.3037   24.6089 C   0  0  0  0  0  0
  -27.6048  -32.4302   25.7475 C   0  0  0  0  0  0
  -27.5580  -37.1813   24.8469 C   0  0  0  0  0  0
  -21.4141  -29.3076   22.3723 N   0  0  0  0  0  0
  -26.4291  -37.3796   23.9414 N   0  0  0  0  0  0
  -24.6743  -31.0730   22.0968 N   0  0  0  0  0  0
  -23.4173  -28.8220   23.3039 O   0  0  0  0  0  0
  -28.3697  -26.6077   20.1433 O   0  0  0  0  0  0
  -26.5606  -34.8930   22.4704 O   0  0  0  0  0  0
  -23.5364  -32.1409   23.7443 O   0  0  0  0  0  0
  -30.4481  -19.5785   20.7110 C   0  0  0  0  0  0
  -29.9419  -18.3078   20.8346 C   0  0  0  0  0  0
  -30.7416  -17.0047   20.8623 C   0  0  0  0  0  0
  -28.3409  -22.6452   19.8986 C   0  0  0  0  0  0
  -28.6072  -24.1583   19.5594 C   0  0  0  0  0  0
  -29.3656  -21.9211   20.8277 C   0  0  0  0  0  0
  -28.2142  -25.2378   20.6116 C   0  0  0  0  0  0
  -28.5581  -18.4345   20.9830 N   0  0  0  0  0  0
  -28.2274  -19.7045   20.9691 N   0  0  0  0  0  0
  -29.3611  -20.4368   20.7920 N   0  0  0  0  0  0
  -30.0550  -15.6852   20.8468 N   0  0  0  0  0  0
  -31.4528  -12.4109   19.1563 H   0  0  0  0  0  0
  -30.2878  -11.3522   19.8985 H   0  0  0  0  0  0
  -29.7460  -11.7382   17.4665 H   0  0  0  0  0  0
  -29.6547  -13.4589   17.7434 H   0  0  0  0  0  0
  -27.8482  -11.2904   18.8625 H   0  0  0  0  0  0
  -27.3636  -12.5731   17.7851 H   0  0  0  0  0  0
  -27.6635  -14.2540   19.5047 H   0  0  0  0  0  0
  -28.6737  -12.1036   21.4305 H   0  0  0  0  0  0
  -28.4530  -13.7947   21.7981 H   0  0  0  0  0  0
  -25.2756   -9.5696   22.4741 H   0  0  0  0  0  0
  -23.9992   -7.4654   22.7501 H   0  0  0  0  0  0
  -21.0818   -8.8757   19.8975 H   0  0  0  0  0  0
  -22.3666  -10.9657   19.6156 H   0  0  0  0  0  0
  -21.2010   -7.6143   23.9694 H   0  0  0  0  0  0
  -21.1489   -6.0530   25.9070 H   0  0  0  0  0  0
  -22.0593   -2.7597   23.2857 H   0  0  0  0  0  0
  -22.4119  -11.9893   22.4789 H   0  0  0  0  0  0
  -21.1107  -13.1248   22.2620 H   0  0  0  0  0  0
  -24.6596  -15.8463   20.5394 H   0  0  0  0  0  0
  -26.2790  -15.6390   20.1101 H   0  0  0  0  0  0
  -26.7128  -32.5516   23.1141 H   0  0  0  0  0  0
  -24.9994  -33.9766   25.0430 H   0  0  0  0  0  0
  -22.6994  -31.3066   21.4045 H   0  0  0  0  0  0
  -23.3739  -35.9657   23.3311 H   0  0  0  0  0  0
  -24.3582  -36.8921   22.2057 H   0  0  0  0  0  0
  -23.7235  -37.6526   23.6643 H   0  0  0  0  0  0
  -26.0476  -31.5840   20.5873 H   0  0  0  0  0  0
  -26.8283  -30.8824   21.9760 H   0  0  0  0  0  0
  -28.1106  -29.0737   21.1548 H   0  0  0  0  0  0
  -26.0375  -25.9378   19.0404 H   0  0  0  0  0  0
  -23.9741  -27.2866   19.0418 H   0  0  0  0  0  0
  -23.7341  -30.5902   19.4022 H   0  0  0  0  0  0
  -22.7411  -29.2430   19.8638 H   0  0  0  0  0  0
  -25.1278  -36.1984   25.0839 H   0  0  0  0  0  0
  -20.9939  -28.3272   24.1436 H   0  0  0  0  0  0
  -20.5669  -26.2305   23.3614 H   0  0  0  0  0  0
  -21.6642  -26.7482   22.1228 H   0  0  0  0  0  0
  -19.6937  -25.6328   21.1215 H   0  0  0  0  0  0
  -19.6701  -27.3231   20.6748 H   0  0  0  0  0  0
  -17.4215  -26.6686   21.3982 H   0  0  0  0  0  0
  -18.0319  -26.0071   22.8981 H   0  0  0  0  0  0
  -19.7909  -30.7273   24.2268 H   0  0  0  0  0  0
  -17.4986  -31.6277   24.5140 H   0  0  0  0  0  0
  -15.5327  -30.2993   23.7624 H   0  0  0  0  0  0
  -15.8652  -28.0836   22.7025 H   0  0  0  0  0  0
  -24.5913  -30.7034   25.7799 H   0  0  0  0  0  0
  -24.8892  -32.2856   26.4892 H   0  0  0  0  0  0
  -25.8078  -30.8895   27.0223 H   0  0  0  0  0  0
  -26.2835  -29.6817   24.1115 H   0  0  0  0  0  0
  -27.4027  -29.7262   25.4555 H   0  0  0  0  0  0
  -27.8687  -30.4361   23.9261 H   0  0  0  0  0  0
  -27.2686  -33.3600   26.2073 H   0  0  0  0  0  0
  -28.3847  -32.6853   25.0288 H   0  0  0  0  0  0
  -28.0715  -31.8395   26.5367 H   0  0  0  0  0  0
  -28.2611  -38.0096   24.7505 H   0  0  0  0  0  0
  -28.1059  -36.2629   24.6300 H   0  0  0  0  0  0
  -27.2304  -37.1478   25.8874 H   0  0  0  0  0  0
  -20.9304  -29.8808   21.6952 H   0  0  0  0  0  0
  -26.0186  -38.2882   24.1390 H   0  0  0  0  0  0
  -31.4659  -19.9345   20.6032 H   0  0  0  0  0  0
  -31.4284  -17.0455   20.0148 H   0  0  0  0  0  0
  -31.3857  -17.0140   21.7423 H   0  0  0  0  0  0
  -28.3422  -22.1056   18.9501 H   0  0  0  0  0  0
  -27.3320  -22.5265   20.2956 H   0  0  0  0  0  0
  -29.6557  -24.2857   19.2897 H   0  0  0  0  0  0
  -28.0481  -24.3896   18.6519 H   0  0  0  0  0  0
  -29.2149  -22.2364   21.8610 H   0  0  0  0  0  0
  -30.3725  -22.2456   20.5618 H   0  0  0  0  0  0
  -28.8593  -25.1193   21.4823 H   0  0  0  0  0  0
  -27.2040  -25.0514   20.9808 H   0  0  0  0  0  0
  -29.0729  -15.6544   21.0734 H   0  0  0  0  0  0
  1 25  1  0  0  0
  1 30  2  0  0  0
  1 81  1  0  0  0
  2  3  1  0  0  0
  2 25  1  0  0  0
  2 82  1  0  0  0
  2 83  1  0  0  0
  3  4  1  0  0  0
  3 84  1  0  0  0
  3 85  1  0  0  0
  4  5  1  0  0  0
  4 86  1  0  0  0
  4 87  1  0  0  0
  5  6  1  0  0  0
  5 26  1  0  0  0
  5 88  1  0  0  0
  6 25  1  0  0  0
  6 89  1  0  0  0
  6 90  1  0  0  0
  7  8  2  0  0  0
  7 26  1  0  0  0
  7 29  1  0  0  0
  8  9  1  0  0  0
  8 22  1  0  0  0
  9 10  1  0  0  0
  9 27  2  0  0  0
 10 11  2  0  0  0
 10 15  1  0  0  0
 11 12  1  0  0  0
 11 91  1  0  0  0
 12 13  2  0  0  0
 12 92  1  0  0  0
 13 14  1  0  0  0
 13 31  1  0  0  0
 14 15  2  0  0  0
 14 93  1  0  0  0
 15 94  1  0  0  0
 16 17  2  0  0  0
 16 21  1  0  0  0
 16 31  1  0  0  0
 17 18  1  0  0  0
 17 95  1  0  0  0
 18 19  2  0  0  0
 18 96  1  0  0  0
 19 20  1  0  0  0
 19 24  1  0  0  0
 20 21  2  0  0  0
 20 97  1  0  0  0
 21 23  1  0  0  0
 22 28  1  0  0  0
 22 32  2  0  0  0
 26 27  1  0  0  0
 28 98  1  0  0  0
 28 99  1  0  0  0
 29100  1  0  0  0
 29101  1  0  0  0
 33 34  1  0  0  0
 33 66  1  0  0  0
 33 70  2  0  0  0
 34 36  1  0  0  0
 34 59  1  0  0  0
 34102  1  0  0  0
 35 44  2  0  0  0
 35 45  1  0  0  0
 35 68  1  0  0  0
 36 56  1  0  0  0
 36103  1  0  0  0
 37 39  1  0  0  0
 37 47  1  0  0  0
 37 66  1  0  0  0
 37104  1  0  0  0
 38 43  2  0  0  0
 38 46  1  0  0  0
 38 47  1  0  0  0
 39 64  1  0  0  0
 39 67  2  0  0  0
 40 52  1  0  0  0
 40 53  2  0  0  0
 40 58  1  0  0  0
 41105  1  0  0  0
 41106  1  0  0  0
 41107  1  0  0  0
 41 48  1  0  0  0
 42 43  1  0  0  0
 42 66  1  0  0  0
 42108  1  0  0  0
 42109  1  0  0  0
 43 44  1  0  0  0
 44110  1  0  0  0
 45 46  2  0  0  0
 45111  1  0  0  0
 46112  1  0  0  0
 47113  1  0  0  0
 47114  1  0  0  0
 48 56  1  0  0  0
 48 65  1  0  0  0
 48115  1  0  0  0
 49 50  1  0  0  0
 49 53  1  0  0  0
 49 64  1  0  0  0
 49116  1  0  0  0
 50 51  1  0  0  0
 50117  1  0  0  0
 50118  1  0  0  0
 51 52  1  0  0  0
 51119  1  0  0  0
 51120  1  0  0  0
 52121  1  0  0  0
 52122  1  0  0  0
 53 54  1  0  0  0
 54 55  2  0  0  0
 54123  1  0  0  0
 55 57  1  0  0  0
 55124  1  0  0  0
 56 69  2  0  0  0
 57 58  2  0  0  0
 57125  1  0  0  0
 58126  1  0  0  0
 59 60  1  0  0  0
 59 61  1  0  0  0
 59 62  1  0  0  0
 60127  1  0  0  0
 60128  1  0  0  0
 60129  1  0  0  0
 61130  1  0  0  0
 61131  1  0  0  0
 61132  1  0  0  0
 62133  1  0  0  0
 62134  1  0  0  0
 62135  1  0  0  0
 63 65  1  0  0  0
 63136  1  0  0  0
 63137  1  0  0  0
 63138  1  0  0  0
 64139  1  0  0  0
 65140  1  0  0  0
 68 77  1  0  0  0
 71 72  2  0  0  0
 71 80  1  0  0  0
 71141  1  0  0  0
 72 73  1  0  0  0
 72 78  1  0  0  0
 73 81  1  0  0  0
 73142  1  0  0  0
 73143  1  0  0  0
 74 75  1  0  0  0
 74 76  1  0  0  0
 74144  1  0  0  0
 74145  1  0  0  0
 75 77  1  0  0  0
 75146  1  0  0  0
 75147  1  0  0  0
 76 80  1  0  0  0
 76148  1  0  0  0
 76149  1  0  0  0
 77150  1  0  0  0
 77151  1  0  0  0
 78 79  2  0  0  0
 79 80  1  0  0  0
 81152  1  0  0  0
M  ISO  4   1 100  68 101  77 101  81 100
M  END
> <chiral flag>
0

> <version>
0

> <s_m_source_file>
/data/baiqing/PycharmProjects/Reinvent-master-3.2/result/LINK_invent/BTK/process_docking_weight1_custom_sum_contain_oxygen_bond_distance_aromatic_linkinvent_7_9_3/rearranged_h_0090.sdf

> <i_m_source_file_index>
16

> <r_mmod_Potential_Energy-OPLS-2005>
-141.358261108398

> <r_mmod_Stretch_Energy-OPLS-2005>
46.505443572998

> <r_mmod_Bend_Energy-OPLS-2005>
116.943572998047

> <r_mmod_Torsional_Energy-OPLS-2005>
224.917083740234

> <r_mmod_Improper_Torsional_Energy-OPLS-2005>
4.05688333511353

> <r_mmod_Van_der_Waal_Energy-OPLS-2005>
124.516975402832

> <r_mmod_Electrostatic_Energy-OPLS-2005>
-470.176544189453

> <r_mmod_Solvation_Energy-OPLS-2005>
-216.419952392578

> <b_mmod_Minimization_Converged-OPLS-2005>
0

> <r_mmod_RMS_Derivative-OPLS-2005>
1.67415070533752

$$$$
16
                    3D
 Structure written by MMmdl.
161169  0  0  1  0            999 V2000
  -30.5491  -14.9364   20.4128 C   0  0  0  0  0  0
  -30.4358  -12.5773   19.5001 C   0  0  0  0  0  0
  -29.5182  -12.5268   18.2567 C   0  0  0  0  0  0
  -28.0517  -12.3132   18.6750 C   0  0  0  0  0  0
  -27.6291  -13.2473   19.8394 C   0  0  2  0  0  0
  -28.6711  -13.2768   20.9778 C   0  0  0  0  0  0
  -25.2455  -13.8217   20.5706 C   0  0  0  0  0  0
  -24.1773  -13.0440   20.9222 C   0  0  0  0  0  0
  -24.6391  -11.6926   20.8758 C   0  0  0  0  0  0
  -23.9081  -10.4296   21.0414 C   0  0  0  0  0  0
  -24.3631   -9.4210   21.9190 C   0  0  0  0  0  0
  -23.6304   -8.2247   22.0755 C   0  0  0  0  0  0
  -22.4285   -8.0286   21.3546 C   0  0  0  0  0  0
  -21.9925   -9.0260   20.4645 C   0  0  0  0  0  0
  -22.7254  -10.2141   20.3059 C   0  0  0  0  0  0
  -21.6858   -6.0741   22.5278 C   0  0  0  0  0  0
  -21.4014   -6.5643   23.8212 C   0  0  0  0  0  0
  -21.3660   -5.6796   24.9174 C   0  0  0  0  0  0
  -21.6046   -4.3057   24.7225 C   0  0  0  0  0  0
  -21.8822   -3.8149   23.4344 C   0  0  0  0  0  0
  -21.9191   -4.6967   22.3403 C   0  0  0  0  0  0
  -22.7794  -13.5208   21.1881 C   0  0  0  0  0  0
  -22.1662   -4.2152   21.0982 F   0  0  0  0  0  0
  -21.5629   -3.4541   25.7736 F   0  0  0  0  0  0
  -29.9482  -13.6804   20.3771 N   0  0  0  0  0  0
  -26.2879  -12.9451   20.3250 N   0  0  0  0  0  0
  -25.9324  -11.6582   20.5753 N   0  0  0  0  0  0
  -22.0452  -12.8188   22.0438 N   0  0  0  0  0  0
  -25.4111  -15.1946   20.4110 N   0  0  0  0  0  0
  -31.7529  -14.9926   20.1413 O   0  0  0  0  0  0
  -21.6644   -6.8886   21.4244 O   0  0  0  0  0  0
  -22.3473  -14.5515   20.6729 O   0  0  0  0  0  0
  -24.6435  -31.8436   23.1876 C   0  0  0  0  0  0
  -25.9208  -32.4691   23.8268 C   0  0  1  0  0  0
  -27.2183  -27.1370   20.1561 C   0  0  0  0  0  0
  -25.5956  -33.8496   24.2186 N   0  0  0  0  0  0
  -23.4472  -30.4619   21.5337 C   0  0  2  0  0  0
  -24.8962  -28.8828   20.1156 C   0  0  0  0  0  0
  -22.7568  -29.4542   22.4872 C   0  0  0  0  0  0
  -18.0301  -28.1391   22.8485 C   0  0  0  0  0  0
  -24.1493  -36.7255   23.2643 C   0  0  0  0  0  0
  -26.0021  -30.7183   21.3850 C   0  0  0  0  0  0
  -26.0748  -29.3275   20.7297 C   0  0  0  0  0  0
  -27.2402  -28.4727   20.7259 C   0  0  0  0  0  0
  -26.0138  -26.7865   19.5122 C   0  0  0  0  0  0
  -24.8779  -27.6259   19.4911 C   0  0  0  0  0  0
  -23.6742  -29.7874   20.1547 C   0  0  0  0  0  0
  -25.4123  -36.3029   24.0313 C   0  0  1  0  0  0
  -20.5917  -28.3719   23.1244 C   0  0  2  0  0  0
  -20.6789  -26.9423   22.5413 C   0  0  0  0  0  0
  -19.5765  -26.6382   21.5221 C   0  0  0  0  0  0
  -18.1940  -26.7934   22.1625 C   0  0  0  0  0  0
  -19.1556  -28.8874   23.2858 C   0  0  0  0  0  0
  -18.9473  -30.1468   23.8887 C   0  0  0  0  0  0
  -17.6470  -30.6594   24.0558 C   0  0  0  0  0  0
  -25.9072  -34.9404   23.5059 C   0  0  0  0  0  0
  -16.5364  -29.9085   23.6334 C   0  0  0  0  0  0
  -16.7287  -28.6499   23.0366 C   0  0  0  0  0  0
  -26.4533  -31.6562   25.0715 C   0  0  0  0  0  0
  -25.3709  -31.3743   26.1406 C   0  0  0  0  0  0
  -27.0402  -30.2956   24.6296 C   0  0  0  0  0  0
  -27.6060  -32.4336   25.7499 C   0  0  0  0  0  0
  -27.5577  -37.1779   24.8461 C   0  0  0  0  0  0
  -21.4260  -29.3043   22.3614 N   0  0  0  0  0  0
  -26.4288  -37.3741   23.9403 N   0  0  0  0  0  0
  -24.7176  -31.0290   22.0910 N   0  0  0  0  0  0
  -23.4208  -28.8093   23.3026 O   0  0  0  0  0  0
  -28.2860  -26.1709   20.1559 O   0  0  0  0  0  0
  -26.5666  -34.8908   22.4643 O   0  0  0  0  0  0
  -23.5556  -32.1317   23.7097 O   0  0  0  0  0  0
  -31.7089  -21.6905   20.9070 C   0  0  0  0  0  0
  -31.0636  -20.7842   20.0433 C   0  0  0  0  0  0
  -29.6722  -20.5921   20.2369 C   0  0  0  0  0  0
  -30.9373  -22.3165   21.9043 C   0  0  0  0  0  0
  -29.0077  -21.8428   20.7487 C   0  0  0  0  0  0
  -31.8960  -19.9740   19.0693 C   0  0  0  0  0  0
  -31.6248  -22.3151   24.3381 C   0  0  0  0  0  0
  -29.1810  -19.0094   20.3656 C   0  0  0  0  0  0
  -31.5910  -23.1029   23.0238 C   0  0  0  0  0  0
  -28.8135  -23.2786   19.9398 C   0  0  0  0  0  0
  -30.1970  -17.6463   20.3533 C   0  0  0  0  0  0
  -28.0786  -24.6763   20.5591 C   0  0  0  0  0  0
  -29.5843  -22.2753   21.8921 N   0  0  0  0  0  0
  -29.7853  -16.1303   20.5340 N   0  0  0  0  0  0
  -31.4709  -12.7264   19.1892 H   0  0  0  0  0  0
  -30.4211  -11.6260   20.0343 H   0  0  0  0  0  0
  -29.8357  -11.7329   17.5793 H   0  0  0  0  0  0
  -29.6059  -13.4603   17.6986 H   0  0  0  0  0  0
  -27.9469  -11.2715   18.9817 H   0  0  0  0  0  0
  -27.3887  -12.4462   17.8191 H   0  0  0  0  0  0
  -27.5934  -14.2491   19.4111 H   0  0  0  0  0  0
  -28.7527  -12.3039   21.4648 H   0  0  0  0  0  0
  -28.3737  -13.9862   21.7516 H   0  0  0  0  0  0
  -25.2778   -9.5683   22.4760 H   0  0  0  0  0  0
  -24.0009   -7.4640   22.7475 H   0  0  0  0  0  0
  -21.0854   -8.8786   19.8947 H   0  0  0  0  0  0
  -22.3715  -10.9686   19.6164 H   0  0  0  0  0  0
  -21.2014   -7.6152   23.9715 H   0  0  0  0  0  0
  -21.1477   -6.0527   25.9078 H   0  0  0  0  0  0
  -22.0599   -2.7609   23.2845 H   0  0  0  0  0  0
  -22.4089  -11.9853   22.4818 H   0  0  0  0  0  0
  -21.1066  -13.1197   22.2662 H   0  0  0  0  0  0
  -24.6381  -15.8429   20.5162 H   0  0  0  0  0  0
  -26.2508  -15.6365   20.0609 H   0  0  0  0  0  0
  -26.7270  -32.5303   23.0993 H   0  0  0  0  0  0
  -25.0049  -33.9595   25.0300 H   0  0  0  0  0  0
  -22.7495  -31.2870   21.3774 H   0  0  0  0  0  0
  -23.3763  -35.9581   23.3289 H   0  0  0  0  0  0
  -24.3574  -36.8908   22.2062 H   0  0  0  0  0  0
  -23.7246  -37.6438   23.6702 H   0  0  0  0  0  0
  -26.1545  -31.4726   20.6119 H   0  0  0  0  0  0
  -26.8727  -30.7708   22.0268 H   0  0  0  0  0  0
  -28.1458  -28.8134   21.2082 H   0  0  0  0  0  0
  -25.9381  -25.8247   19.0250 H   0  0  0  0  0  0
  -23.9779  -27.2806   19.0004 H   0  0  0  0  0  0
  -23.8111  -30.5601   19.3969 H   0  0  0  0  0  0
  -22.7890  -29.2284   19.8464 H   0  0  0  0  0  0
  -25.1312  -36.1854   25.0805 H   0  0  0  0  0  0
  -20.9999  -28.3317   24.1370 H   0  0  0  0  0  0
  -20.5691  -26.2330   23.3629 H   0  0  0  0  0  0
  -21.6654  -26.7435   22.1208 H   0  0  0  0  0  0
  -19.6923  -25.6286   21.1263 H   0  0  0  0  0  0
  -19.6707  -27.3185   20.6745 H   0  0  0  0  0  0
  -17.4216  -26.6694   21.4022 H   0  0  0  0  0  0
  -18.0321  -26.0075   22.9014 H   0  0  0  0  0  0
  -19.7947  -30.7278   24.2270 H   0  0  0  0  0  0
  -17.5025  -31.6277   24.5154 H   0  0  0  0  0  0
  -15.5361  -30.2984   23.7665 H   0  0  0  0  0  0
  -15.8686  -28.0809   22.7102 H   0  0  0  0  0  0
  -24.5912  -30.7068   25.7722 H   0  0  0  0  0  0
  -24.8868  -32.2917   26.4766 H   0  0  0  0  0  0
  -25.7991  -30.8965   27.0226 H   0  0  0  0  0  0
  -26.3022  -29.6669   24.1304 H   0  0  0  0  0  0
  -27.4008  -29.7270   25.4875 H   0  0  0  0  0  0
  -27.8933  -30.4184   23.9619 H   0  0  0  0  0  0
  -27.2654  -33.3656   26.2019 H   0  0  0  0  0  0
  -28.3902  -32.6862   25.0352 H   0  0  0  0  0  0
  -28.0700  -31.8501   26.5458 H   0  0  0  0  0  0
  -28.2580  -38.0089   24.7512 H   0  0  0  0  0  0
  -28.1086  -36.2615   24.6286 H   0  0  0  0  0  0
  -27.2292  -37.1425   25.8863 H   0  0  0  0  0  0
  -20.9475  -29.8742   21.6781 H   0  0  0  0  0  0
  -26.0155  -38.2806   24.1417 H   0  0  0  0  0  0
  -32.7853  -21.8032   20.8853 H   0  0  0  0  0  0
  -32.6246  -20.6171   18.5746 H   0  0  0  0  0  0
  -31.2733  -19.5358   18.2894 H   0  0  0  0  0  0
  -32.4472  -19.1845   19.5794 H   0  0  0  0  0  0
  -32.1176  -22.8857   25.1248 H   0  0  0  0  0  0
  -32.1667  -21.3772   24.2141 H   0  0  0  0  0  0
  -30.6156  -22.0770   24.6753 H   0  0  0  0  0  0
  -28.4378  -18.8641   19.5811 H   0  0  0  0  0  0
  -28.6127  -18.9657   21.2952 H   0  0  0  0  0  0
  -31.0542  -24.0422   23.1635 H   0  0  0  0  0  0
  -32.6057  -23.3751   22.7300 H   0  0  0  0  0  0
  -28.2947  -23.0304   19.0138 H   0  0  0  0  0  0
  -29.8095  -23.5745   19.6102 H   0  0  0  0  0  0
  -30.9773  -17.8227   21.0946 H   0  0  0  0  0  0
  -30.7092  -17.6388   19.3933 H   0  0  0  0  0  0
  -28.3653  -24.6954   21.6104 H   0  0  0  0  0  0
  -27.0079  -24.4765   20.5943 H   0  0  0  0  0  0
  -28.8056  -15.9763   20.7216 H   0  0  0  0  0  0
  1 25  1  0  0  0
  1 30  2  0  0  0
  1 84  1  0  0  0
  2  3  1  0  0  0
  2 25  1  0  0  0
  2 85  1  0  0  0
  2 86  1  0  0  0
  3  4  1  0  0  0
  3 87  1  0  0  0
  3 88  1  0  0  0
  4  5  1  0  0  0
  4 89  1  0  0  0
  4 90  1  0  0  0
  5  6  1  0  0  0
  5 26  1  0  0  0
  5 91  1  0  0  0
  6 25  1  0  0  0
  6 92  1  0  0  0
  6 93  1  0  0  0
  7  8  2  0  0  0
  7 26  1  0  0  0
  7 29  1  0  0  0
  8  9  1  0  0  0
  8 22  1  0  0  0
  9 10  1  0  0  0
  9 27  2  0  0  0
 10 11  2  0  0  0
 10 15  1  0  0  0
 11 12  1  0  0  0
 11 94  1  0  0  0
 12 13  2  0  0  0
 12 95  1  0  0  0
 13 14  1  0  0  0
 13 31  1  0  0  0
 14 15  2  0  0  0
 14 96  1  0  0  0
 15 97  1  0  0  0
 16 17  2  0  0  0
 16 21  1  0  0  0
 16 31  1  0  0  0
 17 18  1  0  0  0
 17 98  1  0  0  0
 18 19  2  0  0  0
 18 99  1  0  0  0
 19 20  1  0  0  0
 19 24  1  0  0  0
 20 21  2  0  0  0
 20100  1  0  0  0
 21 23  1  0  0  0
 22 28  1  0  0  0
 22 32  2  0  0  0
 26 27  1  0  0  0
 28101  1  0  0  0
 28102  1  0  0  0
 29103  1  0  0  0
 29104  1  0  0  0
 33 34  1  0  0  0
 33 66  1  0  0  0
 33 70  2  0  0  0
 34 36  1  0  0  0
 34 59  1  0  0  0
 34105  1  0  0  0
 35 44  2  0  0  0
 35 45  1  0  0  0
 35 68  1  0  0  0
 36 56  1  0  0  0
 36106  1  0  0  0
 37 39  1  0  0  0
 37 47  1  0  0  0
 37 66  1  0  0  0
 37107  1  0  0  0
 38 43  2  0  0  0
 38 46  1  0  0  0
 38 47  1  0  0  0
 39 64  1  0  0  0
 39 67  2  0  0  0
 40 52  1  0  0  0
 40 53  2  0  0  0
 40 58  1  0  0  0
 41108  1  0  0  0
 41109  1  0  0  0
 41110  1  0  0  0
 41 48  1  0  0  0
 42 43  1  0  0  0
 42 66  1  0  0  0
 42111  1  0  0  0
 42112  1  0  0  0
 43 44  1  0  0  0
 44113  1  0  0  0
 45 46  2  0  0  0
 45114  1  0  0  0
 46115  1  0  0  0
 47116  1  0  0  0
 47117  1  0  0  0
 48 56  1  0  0  0
 48 65  1  0  0  0
 48118  1  0  0  0
 49 50  1  0  0  0
 49 53  1  0  0  0
 49 64  1  0  0  0
 49119  1  0  0  0
 50 51  1  0  0  0
 50120  1  0  0  0
 50121  1  0  0  0
 51 52  1  0  0  0
 51122  1  0  0  0
 51123  1  0  0  0
 52124  1  0  0  0
 52125  1  0  0  0
 53 54  1  0  0  0
 54 55  2  0  0  0
 54126  1  0  0  0
 55 57  1  0  0  0
 55127  1  0  0  0
 56 69  2  0  0  0
 57 58  2  0  0  0
 57128  1  0  0  0
 58129  1  0  0  0
 59 60  1  0  0  0
 59 61  1  0  0  0
 59 62  1  0  0  0
 60130  1  0  0  0
 60131  1  0  0  0
 60132  1  0  0  0
 61133  1  0  0  0
 61134  1  0  0  0
 61135  1  0  0  0
 62136  1  0  0  0
 62137  1  0  0  0
 62138  1  0  0  0
 63 65  1  0  0  0
 63139  1  0  0  0
 63140  1  0  0  0
 63141  1  0  0  0
 64142  1  0  0  0
 65143  1  0  0  0
 68 82  1  0  0  0
 71 72  2  0  0  0
 71 74  1  0  0  0
 71144  1  0  0  0
 72 73  1  0  0  0
 72 76  1  0  0  0
 73 75  2  0  0  0
 73 78  1  0  0  0
 74 79  1  0  0  0
 74 83  2  0  0  0
 75 80  1  0  0  0
 75 83  1  0  0  0
 76145  1  0  0  0
 76146  1  0  0  0
 76147  1  0  0  0
 77 79  1  0  0  0
 77148  1  0  0  0
 77149  1  0  0  0
 77150  1  0  0  0
 78 81  1  0  0  0
 78151  1  0  0  0
 78152  1  0  0  0
 79153  1  0  0  0
 79154  1  0  0  0
 80 82  1  0  0  0
 80155  1  0  0  0
 80156  1  0  0  0
 81 84  1  0  0  0
 81157  1  0  0  0
 81158  1  0  0  0
 82159  1  0  0  0
 82160  1  0  0  0
 84161  1  0  0  0
M  ISO  4   1 100  68 101  82 101  84 100
M  END
> <chiral flag>
0

> <version>
0

> <s_m_source_file>
/data/baiqing/PycharmProjects/Reinvent-master-3.2/result/LINK_invent/BTK/process_docking_weight1_custom_sum_contain_oxygen_bond_distance_aromatic_linkinvent_7_9_3/rearranged_h_0090.sdf

> <i_m_source_file_index>
17

> <r_mmod_Potential_Energy-OPLS-2005>
535.295593261719

> <r_mmod_Stretch_Energy-OPLS-2005>
279.545227050781

> <r_mmod_Bend_Energy-OPLS-2005>
287.989624023438

> <r_mmod_Torsional_Energy-OPLS-2005>
398.544342041016

> <r_mmod_Improper_Torsional_Energy-OPLS-2005>
26.0645732879639

> <r_mmod_Van_der_Waal_Energy-OPLS-2005>
141.028656005859

> <r_mmod_Electrostatic_Energy-OPLS-2005>
-557.063293457031

> <r_mmod_Solvation_Energy-OPLS-2005>
-224.548629760742

> <b_mmod_Minimization_Converged-OPLS-2005>
0

> <r_mmod_RMS_Derivative-OPLS-2005>
1.00760591030121

$$$$
17
                    3D
 Structure written by MMmdl.
153161  0  0  1  0            999 V2000
  -30.6665  -14.5308   20.5536 C   0  0  0  0  0  0
  -30.4192  -12.3344   19.4320 C   0  0  0  0  0  0
  -29.4939  -12.5066   18.2080 C   0  0  0  0  0  0
  -28.0188  -12.3416   18.6242 C   0  0  0  0  0  0
  -27.6556  -13.1983   19.8670 C   0  0  2  0  0  0
  -28.6980  -13.0197   20.9936 C   0  0  0  0  0  0
  -25.2607  -13.8120   20.5673 C   0  0  0  0  0  0
  -24.1857  -13.0414   20.9155 C   0  0  0  0  0  0
  -24.6374  -11.6867   20.8688 C   0  0  0  0  0  0
  -23.9030  -10.4278   21.0381 C   0  0  0  0  0  0
  -24.3602   -9.4207   21.9166 C   0  0  0  0  0  0
  -23.6296   -8.2242   22.0735 C   0  0  0  0  0  0
  -22.4287   -8.0266   21.3523 C   0  0  0  0  0  0
  -21.9904   -9.0226   20.4627 C   0  0  0  0  0  0
  -22.7204  -10.2108   20.3034 C   0  0  0  0  0  0
  -21.6863   -6.0734   22.5262 C   0  0  0  0  0  0
  -21.4032   -6.5644   23.8195 C   0  0  0  0  0  0
  -21.3673   -5.6797   24.9170 C   0  0  0  0  0  0
  -21.6040   -4.3057   24.7223 C   0  0  0  0  0  0
  -21.8820   -3.8140   23.4352 C   0  0  0  0  0  0
  -21.9197   -4.6959   22.3394 C   0  0  0  0  0  0
  -22.7896  -13.5213   21.1852 C   0  0  0  0  0  0
  -22.1664   -4.2128   21.0982 F   0  0  0  0  0  0
  -21.5620   -3.4548   25.7751 F   0  0  0  0  0  0
  -30.0212  -13.3353   20.4352 N   0  0  0  0  0  0
  -26.2996  -12.9242   20.3317 N   0  0  0  0  0  0
  -25.9300  -11.6414   20.5737 N   0  0  0  0  0  0
  -22.0595  -12.8154   22.0423 N   0  0  0  0  0  0
  -25.4333  -15.1838   20.4131 N   0  0  0  0  0  0
  -31.8081  -14.7211   20.1294 O   0  0  0  0  0  0
  -21.6647   -6.8861   21.4232 O   0  0  0  0  0  0
  -22.3566  -14.5541   20.6753 O   0  0  0  0  0  0
  -24.6227  -31.8619   23.2062 C   0  0  0  0  0  0
  -25.9081  -32.4772   23.8373 C   0  0  1  0  0  0
  -27.2198  -27.3651   20.1160 C   0  0  0  0  0  0
  -25.5930  -33.8578   24.2311 N   0  0  0  0  0  0
  -23.4144  -30.4851   21.5490 C   0  0  2  0  0  0
  -24.8599  -28.9449   20.1127 C   0  0  0  0  0  0
  -22.7459  -29.4635   22.4966 C   0  0  0  0  0  0
  -18.0284  -28.1371   22.8453 C   0  0  0  0  0  0
  -24.1492  -36.7314   23.2631 C   0  0  0  0  0  0
  -25.9506  -30.8020   21.3733 C   0  0  0  0  0  0
  -26.0248  -29.4335   20.7192 C   0  0  0  0  0  0
  -27.2117  -28.6523   20.7176 C   0  0  0  0  0  0
  -26.0424  -26.9128   19.4871 C   0  0  0  0  0  0
  -24.8673  -27.6865   19.4896 C   0  0  0  0  0  0
  -23.6282  -29.8227   20.1618 C   0  0  0  0  0  0
  -25.4113  -36.3078   24.0320 C   0  0  1  0  0  0
  -20.5884  -28.3679   23.1304 C   0  0  2  0  0  0
  -20.6820  -26.9455   22.5311 C   0  0  0  0  0  0
  -19.5803  -26.6570   21.5082 C   0  0  0  0  0  0
  -18.1977  -26.7967   22.1512 C   0  0  0  0  0  0
  -19.1527  -28.8825   23.2893 C   0  0  0  0  0  0
  -18.9430  -30.1413   23.8957 C   0  0  0  0  0  0
  -17.6430  -30.6508   24.0647 C   0  0  0  0  0  0
  -25.9050  -34.9444   23.5116 C   0  0  0  0  0  0
  -16.5332  -29.9032   23.6341 C   0  0  0  0  0  0
  -16.7261  -28.6465   23.0329 C   0  0  0  0  0  0
  -26.4501  -31.6578   25.0730 C   0  0  0  0  0  0
  -25.3771  -31.3699   26.1483 C   0  0  0  0  0  0
  -27.0338  -30.2997   24.6165 C   0  0  0  0  0  0
  -27.6070  -32.4314   25.7487 C   0  0  0  0  0  0
  -27.5585  -37.1816   24.8464 C   0  0  0  0  0  0
  -21.4160  -29.3057   22.3721 N   0  0  0  0  0  0
  -26.4290  -37.3782   23.9399 N   0  0  0  0  0  0
  -24.6817  -31.0658   22.1005 N   0  0  0  0  0  0
  -23.4191  -28.8176   23.3045 O   0  0  0  0  0  0
  -28.3214  -26.5192   20.1591 O   0  0  0  0  0  0
  -26.5600  -34.8911   22.4668 O   0  0  0  0  0  0
  -23.5390  -32.1407   23.7400 O   0  0  0  0  0  0
  -27.8578  -20.6774   21.0797 C   0  0  0  0  0  0
  -29.6801  -20.5152   19.8921 C   0  0  0  0  0  0
  -28.7384  -21.4518   20.2672 C   0  0  0  0  0  0
  -28.5400  -22.9183   19.8198 C   0  0  0  0  0  0
  -29.0251  -24.0495   20.7836 C   0  0  0  0  0  0
  -29.7964  -17.9151   20.0147 C   0  0  0  0  0  0
  -30.2302  -16.9831   21.1949 C   0  0  0  0  0  0
  -28.0977  -25.3129   20.9515 C   0  0  0  0  0  0
  -28.1862  -19.3883   21.1332 N   0  0  0  0  0  0
  -29.2985  -19.2641   20.3747 N   0  0  0  0  0  0
  -29.9042  -15.5449   21.0204 N   0  0  0  0  0  0
  -31.4670  -12.4310   19.1431 H   0  0  0  0  0  0
  -30.3080  -11.3292   19.8431 H   0  0  0  0  0  0
  -29.7455  -11.7750   17.4395 H   0  0  0  0  0  0
  -29.6382  -13.4899   17.7554 H   0  0  0  0  0  0
  -27.8529  -11.2851   18.8363 H   0  0  0  0  0  0
  -27.3575  -12.5832   17.7904 H   0  0  0  0  0  0
  -27.6838  -14.2365   19.5372 H   0  0  0  0  0  0
  -28.6903  -11.9963   21.3702 H   0  0  0  0  0  0
  -28.4500  -13.6445   21.8518 H   0  0  0  0  0  0
  -25.2771   -9.5697   22.4721 H   0  0  0  0  0  0
  -24.0016   -7.4640   22.7449 H   0  0  0  0  0  0
  -21.0839   -8.8732   19.8934 H   0  0  0  0  0  0
  -22.3659  -10.9651   19.6129 H   0  0  0  0  0  0
  -21.2042   -7.6154   23.9690 H   0  0  0  0  0  0
  -21.1497   -6.0543   25.9058 H   0  0  0  0  0  0
  -22.0590   -2.7609   23.2858 H   0  0  0  0  0  0
  -22.4288  -11.9794   22.4719 H   0  0  0  0  0  0
  -21.1195  -13.1091   22.2695 H   0  0  0  0  0  0
  -24.6633  -15.8340   20.5162 H   0  0  0  0  0  0
  -26.2966  -15.6362   20.1394 H   0  0  0  0  0  0
  -26.7139  -32.5470   23.1121 H   0  0  0  0  0  0
  -25.0082  -33.9727   25.0451 H   0  0  0  0  0  0
  -22.7090  -31.3053   21.4085 H   0  0  0  0  0  0
  -23.3736  -35.9672   23.3307 H   0  0  0  0  0  0
  -24.3580  -36.8933   22.2050 H   0  0  0  0  0  0
  -23.7289  -37.6540   23.6642 H   0  0  0  0  0  0
  -26.0734  -31.5643   20.6022 H   0  0  0  0  0  0
  -26.8344  -30.8544   21.9974 H   0  0  0  0  0  0
  -28.1030  -29.0067   21.2148 H   0  0  0  0  0  0
  -26.0209  -25.9404   19.0135 H   0  0  0  0  0  0
  -23.9736  -27.3097   19.0120 H   0  0  0  0  0  0
  -23.7492  -30.6029   19.4092 H   0  0  0  0  0  0
  -22.7491  -29.2523   19.8533 H   0  0  0  0  0  0
  -25.1296  -36.1933   25.0814 H   0  0  0  0  0  0
  -20.9948  -28.3216   24.1429 H   0  0  0  0  0  0
  -20.5800  -26.2238   23.3419 H   0  0  0  0  0  0
  -21.6682  -26.7576   22.1039 H   0  0  0  0  0  0
  -19.7020  -25.6576   21.0884 H   0  0  0  0  0  0
  -19.6725  -27.3564   20.6755 H   0  0  0  0  0  0
  -17.4298  -26.6753   21.3857 H   0  0  0  0  0  0
  -18.0389  -26.0042   22.8833 H   0  0  0  0  0  0
  -19.7893  -30.7217   24.2401 H   0  0  0  0  0  0
  -17.4985  -31.6175   24.5291 H   0  0  0  0  0  0
  -15.5339  -30.2941   23.7673 H   0  0  0  0  0  0
  -15.8686  -28.0801   22.6948 H   0  0  0  0  0  0
  -24.5932  -30.7045   25.7844 H   0  0  0  0  0  0
  -24.8967  -32.2864   26.4921 H   0  0  0  0  0  0
  -25.8128  -30.8885   27.0252 H   0  0  0  0  0  0
  -26.2886  -29.6731   24.1241 H   0  0  0  0  0  0
  -27.4115  -29.7254   25.4647 H   0  0  0  0  0  0
  -27.8730  -30.4299   23.9320 H   0  0  0  0  0  0
  -27.2666  -33.3593   26.2094 H   0  0  0  0  0  0
  -28.3847  -32.6922   25.0295 H   0  0  0  0  0  0
  -28.0775  -31.8438   26.5385 H   0  0  0  0  0  0
  -28.2607  -38.0105   24.7478 H   0  0  0  0  0  0
  -28.1071  -36.2638   24.6310 H   0  0  0  0  0  0
  -27.2296  -37.1506   25.8865 H   0  0  0  0  0  0
  -20.9349  -29.8689   21.6855 H   0  0  0  0  0  0
  -26.0170  -38.2857   24.1385 H   0  0  0  0  0  0
  -26.9466  -20.9955   21.5697 H   0  0  0  0  0  0
  -30.5410  -20.6114   19.2440 H   0  0  0  0  0  0
  -27.4776  -23.0817   19.6327 H   0  0  0  0  0  0
  -29.0110  -23.0706   18.8489 H   0  0  0  0  0  0
  -30.0545  -24.3351   20.5667 H   0  0  0  0  0  0
  -29.0694  -23.5928   21.7716 H   0  0  0  0  0  0
  -29.0097  -17.4234   19.4406 H   0  0  0  0  0  0
  -30.6307  -18.0351   19.3245 H   0  0  0  0  0  0
  -29.7150  -17.3008   22.1003 H   0  0  0  0  0  0
  -31.2947  -17.1163   21.4019 H   0  0  0  0  0  0
  -28.2100  -25.6459   21.9843 H   0  0  0  0  0  0
  -27.0642  -24.9717   20.8935 H   0  0  0  0  0  0
  -28.9732  -15.2685   21.2945 H   0  0  0  0  0  0
  1 25  1  0  0  0
  1 30  2  0  0  0
  1 81  1  0  0  0
  2  3  1  0  0  0
  2 25  1  0  0  0
  2 82  1  0  0  0
  2 83  1  0  0  0
  3  4  1  0  0  0
  3 84  1  0  0  0
  3 85  1  0  0  0
  4  5  1  0  0  0
  4 86  1  0  0  0
  4 87  1  0  0  0
  5  6  1  0  0  0
  5 26  1  0  0  0
  5 88  1  0  0  0
  6 25  1  0  0  0
  6 89  1  0  0  0
  6 90  1  0  0  0
  7  8  2  0  0  0
  7 26  1  0  0  0
  7 29  1  0  0  0
  8  9  1  0  0  0
  8 22  1  0  0  0
  9 10  1  0  0  0
  9 27  2  0  0  0
 10 11  2  0  0  0
 10 15  1  0  0  0
 11 12  1  0  0  0
 11 91  1  0  0  0
 12 13  2  0  0  0
 12 92  1  0  0  0
 13 14  1  0  0  0
 13 31  1  0  0  0
 14 15  2  0  0  0
 14 93  1  0  0  0
 15 94  1  0  0  0
 16 17  2  0  0  0
 16 21  1  0  0  0
 16 31  1  0  0  0
 17 18  1  0  0  0
 17 95  1  0  0  0
 18 19  2  0  0  0
 18 96  1  0  0  0
 19 20  1  0  0  0
 19 24  1  0  0  0
 20 21  2  0  0  0
 20 97  1  0  0  0
 21 23  1  0  0  0
 22 28  1  0  0  0
 22 32  2  0  0  0
 26 27  1  0  0  0
 28 98  1  0  0  0
 28 99  1  0  0  0
 29100  1  0  0  0
 29101  1  0  0  0
 33 34  1  0  0  0
 33 66  1  0  0  0
 33 70  2  0  0  0
 34 36  1  0  0  0
 34 59  1  0  0  0
 34102  1  0  0  0
 35 44  2  0  0  0
 35 45  1  0  0  0
 35 68  1  0  0  0
 36 56  1  0  0  0
 36103  1  0  0  0
 37 39  1  0  0  0
 37 47  1  0  0  0
 37 66  1  0  0  0
 37104  1  0  0  0
 38 43  2  0  0  0
 38 46  1  0  0  0
 38 47  1  0  0  0
 39 64  1  0  0  0
 39 67  2  0  0  0
 40 52  1  0  0  0
 40 53  2  0  0  0
 40 58  1  0  0  0
 41105  1  0  0  0
 41106  1  0  0  0
 41107  1  0  0  0
 41 48  1  0  0  0
 42 43  1  0  0  0
 42 66  1  0  0  0
 42108  1  0  0  0
 42109  1  0  0  0
 43 44  1  0  0  0
 44110  1  0  0  0
 45 46  2  0  0  0
 45111  1  0  0  0
 46112  1  0  0  0
 47113  1  0  0  0
 47114  1  0  0  0
 48 56  1  0  0  0
 48 65  1  0  0  0
 48115  1  0  0  0
 49 50  1  0  0  0
 49 53  1  0  0  0
 49 64  1  0  0  0
 49116  1  0  0  0
 50 51  1  0  0  0
 50117  1  0  0  0
 50118  1  0  0  0
 51 52  1  0  0  0
 51119  1  0  0  0
 51120  1  0  0  0
 52121  1  0  0  0
 52122  1  0  0  0
 53 54  1  0  0  0
 54 55  2  0  0  0
 54123  1  0  0  0
 55 57  1  0  0  0
 55124  1  0  0  0
 56 69  2  0  0  0
 57 58  2  0  0  0
 57125  1  0  0  0
 58126  1  0  0  0
 59 60  1  0  0  0
 59 61  1  0  0  0
 59 62  1  0  0  0
 60127  1  0  0  0
 60128  1  0  0  0
 60129  1  0  0  0
 61130  1  0  0  0
 61131  1  0  0  0
 61132  1  0  0  0
 62133  1  0  0  0
 62134  1  0  0  0
 62135  1  0  0  0
 63 65  1  0  0  0
 63136  1  0  0  0
 63137  1  0  0  0
 63138  1  0  0  0
 64139  1  0  0  0
 65140  1  0  0  0
 68 78  1  0  0  0
 71 73  1  0  0  0
 71 79  2  0  0  0
 71141  1  0  0  0
 72 73  2  0  0  0
 72 80  1  0  0  0
 72142  1  0  0  0
 73 74  1  0  0  0
 74 75  1  0  0  0
 74143  1  0  0  0
 74144  1  0  0  0
 75 78  1  0  0  0
 75145  1  0  0  0
 75146  1  0  0  0
 76 77  1  0  0  0
 76 80  1  0  0  0
 76147  1  0  0  0
 76148  1  0  0  0
 77 81  1  0  0  0
 77149  1  0  0  0
 77150  1  0  0  0
 78151  1  0  0  0
 78152  1  0  0  0
 79 80  1  0  0  0
 81153  1  0  0  0
M  ISO  4   1 100  68 101  78 101  81 100
M  END
> <chiral flag>
0

> <version>
0

> <s_m_source_file>
/data/baiqing/PycharmProjects/Reinvent-master-3.2/result/LINK_invent/BTK/process_docking_weight1_custom_sum_contain_oxygen_bond_distance_aromatic_linkinvent_7_9_3/rearranged_h_0090.sdf

> <i_m_source_file_index>
18

> <r_mmod_Potential_Energy-OPLS-2005>
-17.2338619232178

> <r_mmod_Stretch_Energy-OPLS-2005>
48.4689788818359

> <r_mmod_Bend_Energy-OPLS-2005>
113.97444152832

> <r_mmod_Torsional_Energy-OPLS-2005>
249.992523193359

> <r_mmod_Improper_Torsional_Energy-OPLS-2005>
5.17620944976807

> <r_mmod_Van_der_Waal_Energy-OPLS-2005>
122.603530883789

> <r_mmod_Electrostatic_Energy-OPLS-2005>
-366.541381835938

> <r_mmod_Solvation_Energy-OPLS-2005>
-219.526916503906

> <b_mmod_Minimization_Converged-OPLS-2005>
0

> <r_mmod_RMS_Derivative-OPLS-2005>
4.86278963088989

$$$$
18
                    3D
 Structure written by MMmdl.
176184  0  0  1  0            999 V2000
  -30.6710  -14.5437   20.5303 C   0  0  0  0  0  0
  -30.4309  -12.3411   19.4315 C   0  0  0  0  0  0
  -29.4997  -12.4935   18.2105 C   0  0  0  0  0  0
  -28.0221  -12.3476   18.6275 C   0  0  0  0  0  0
  -27.6576  -13.2094   19.8664 C   0  0  2  0  0  0
  -28.7027  -13.0314   20.9904 C   0  0  0  0  0  0
  -25.2583  -13.8160   20.5689 C   0  0  0  0  0  0
  -24.1838  -13.0443   20.9185 C   0  0  0  0  0  0
  -24.6396  -11.6905   20.8745 C   0  0  0  0  0  0
  -23.9061  -10.4295   21.0407 C   0  0  0  0  0  0
  -24.3609   -9.4210   21.9189 C   0  0  0  0  0  0
  -23.6286   -8.2243   22.0756 C   0  0  0  0  0  0
  -22.4271   -8.0280   21.3541 C   0  0  0  0  0  0
  -21.9907   -9.0255   20.4643 C   0  0  0  0  0  0
  -22.7232  -10.2135   20.3055 C   0  0  0  0  0  0
  -21.6848   -6.0732   22.5278 C   0  0  0  0  0  0
  -21.4011   -6.5638   23.8212 C   0  0  0  0  0  0
  -21.3659   -5.6791   24.9174 C   0  0  0  0  0  0
  -21.6044   -4.3055   24.7225 C   0  0  0  0  0  0
  -21.8821   -3.8146   23.4348 C   0  0  0  0  0  0
  -21.9195   -4.6961   22.3401 C   0  0  0  0  0  0
  -22.7862  -13.5240   21.1854 C   0  0  0  0  0  0
  -22.1662   -4.2146   21.0978 F   0  0  0  0  0  0
  -21.5631   -3.4538   25.7739 F   0  0  0  0  0  0
  -30.0235  -13.3486   20.4253 N   0  0  0  0  0  0
  -26.3014  -12.9331   20.3339 N   0  0  0  0  0  0
  -25.9323  -11.6494   20.5766 N   0  0  0  0  0  0
  -22.0489  -12.8227   22.0393 N   0  0  0  0  0  0
  -25.4321  -15.1877   20.4094 N   0  0  0  0  0  0
  -31.8265  -14.7052   20.1303 O   0  0  0  0  0  0
  -21.6636   -6.8873   21.4239 O   0  0  0  0  0  0
  -22.3556  -14.5553   20.6705 O   0  0  0  0  0  0
  -24.6191  -31.8630   23.2041 C   0  0  0  0  0  0
  -25.9055  -32.4785   23.8364 C   0  0  1  0  0  0
  -27.2296  -27.3746   20.0981 C   0  0  0  0  0  0
  -25.5873  -33.8589   24.2272 N   0  0  0  0  0  0
  -23.4113  -30.4856   21.5482 C   0  0  2  0  0  0
  -24.8572  -28.9507   20.1091 C   0  0  0  0  0  0
  -22.7443  -29.4623   22.4967 C   0  0  0  0  0  0
  -18.0262  -28.1379   22.8487 C   0  0  0  0  0  0
  -24.1494  -36.7323   23.2637 C   0  0  0  0  0  0
  -25.9478  -30.8091   21.3686 C   0  0  0  0  0  0
  -26.0235  -29.4421   20.7095 C   0  0  0  0  0  0
  -27.2124  -28.6651   20.6953 C   0  0  0  0  0  0
  -26.0409  -26.9221   19.4778 C   0  0  0  0  0  0
  -24.8653  -27.6942   19.4851 C   0  0  0  0  0  0
  -23.6207  -29.8205   20.1631 C   0  0  0  0  0  0
  -25.4105  -36.3086   24.0324 C   0  0  1  0  0  0
  -20.5859  -28.3669   23.1301 C   0  0  2  0  0  0
  -20.6750  -26.9397   22.5415 C   0  0  0  0  0  0
  -19.5731  -26.6384   21.5208 C   0  0  0  0  0  0
  -18.1909  -26.7921   22.1620 C   0  0  0  0  0  0
  -19.1518  -28.8840   23.2890 C   0  0  0  0  0  0
  -18.9444  -30.1448   23.8895 C   0  0  0  0  0  0
  -17.6444  -30.6584   24.0563 C   0  0  0  0  0  0
  -25.9037  -34.9455   23.5104 C   0  0  0  0  0  0
  -16.5333  -29.9083   23.6332 C   0  0  0  0  0  0
  -16.7249  -28.6508   23.0338 C   0  0  0  0  0  0
  -26.4463  -31.6584   25.0721 C   0  0  0  0  0  0
  -25.3711  -31.3700   26.1459 C   0  0  0  0  0  0
  -27.0292  -30.3005   24.6145 C   0  0  0  0  0  0
  -27.6012  -32.4344   25.7482 C   0  0  0  0  0  0
  -27.5581  -37.1796   24.8447 C   0  0  0  0  0  0
  -21.4162  -29.3032   22.3712 N   0  0  0  0  0  0
  -26.4284  -37.3772   23.9398 N   0  0  0  0  0  0
  -24.6782  -31.0683   22.0970 N   0  0  0  0  0  0
  -23.4188  -28.8147   23.3018 O   0  0  0  0  0  0
  -28.3732  -26.5790   20.1407 O   0  0  0  0  0  0
  -26.5646  -34.8918   22.4695 O   0  0  0  0  0  0
  -23.5364  -32.1417   23.7383 O   0  0  0  0  0  0
  -29.6464  -22.6145   17.9889 C   0  0  0  0  0  0
  -30.0218  -21.9878   16.7902 C   0  0  0  0  0  0
  -29.5963  -21.9008   19.2039 C   0  0  0  0  0  0
  -30.3287  -20.6139   16.8454 C   0  0  0  0  0  0
  -29.9140  -20.5002   19.1557 C   0  0  0  0  0  0
  -30.7413  -19.8186   15.6195 C   0  0  0  0  0  0
  -30.5949  -26.5084   16.5717 C   0  0  0  0  0  0
  -29.3231  -25.8788   14.4807 C   0  0  0  0  0  0
  -30.0847  -22.7997   15.4920 C   0  0  0  0  0  0
  -29.2345  -22.6884   20.4852 C   0  0  0  0  0  0
  -30.0397  -19.5503   20.3736 C   0  0  0  0  0  0
  -29.4116  -24.2622   20.4704 C   0  0  0  0  0  0
  -30.8127  -24.1552   15.6350 C   0  0  0  0  0  0
  -29.6259  -18.0399   20.1581 C   0  0  0  0  0  0
  -30.3330  -17.0122   21.1053 C   0  0  0  0  0  0
  -28.1929  -25.1362   20.0184 C   0  0  0  0  0  0
  -29.8791  -25.3749   15.8215 C   0  0  0  0  0  0
  -30.2903  -19.9146   17.9956 N   0  0  0  0  0  0
  -29.9182  -15.5927   20.9425 N   0  0  0  0  0  0
  -31.4729  -12.4529   19.1269 H   0  0  0  0  0  0
  -30.3508  -11.3393   19.8565 H   0  0  0  0  0  0
  -29.7474  -11.7471   17.4549 H   0  0  0  0  0  0
  -29.6573  -13.4664   17.7431 H   0  0  0  0  0  0
  -27.8471  -11.2938   18.8495 H   0  0  0  0  0  0
  -27.3675  -12.5933   17.7907 H   0  0  0  0  0  0
  -27.6887  -14.2496   19.5425 H   0  0  0  0  0  0
  -28.6962  -12.0050   21.3602 H   0  0  0  0  0  0
  -28.4635  -13.6569   21.8515 H   0  0  0  0  0  0
  -25.2751   -9.5687   22.4768 H   0  0  0  0  0  0
  -23.9995   -7.4633   22.7476 H   0  0  0  0  0  0
  -21.0841   -8.8774   19.8944 H   0  0  0  0  0  0
  -22.3695  -10.9677   19.6164 H   0  0  0  0  0  0
  -21.1997   -7.6144   23.9711 H   0  0  0  0  0  0
  -21.1479   -6.0520   25.9074 H   0  0  0  0  0  0
  -22.0601   -2.7608   23.2849 H   0  0  0  0  0  0
  -22.4088  -11.9877   22.4776 H   0  0  0  0  0  0
  -21.1104  -13.1258   22.2580 H   0  0  0  0  0  0
  -24.6692  -15.8465   20.5185 H   0  0  0  0  0  0
  -26.2841  -15.6234   20.0803 H   0  0  0  0  0  0
  -26.7119  -32.5468   23.1115 H   0  0  0  0  0  0
  -24.9931  -33.9749   25.0351 H   0  0  0  0  0  0
  -22.7032  -31.3042   21.4063 H   0  0  0  0  0  0
  -23.3741  -35.9676   23.3287 H   0  0  0  0  0  0
  -24.3580  -36.8976   22.2056 H   0  0  0  0  0  0
  -23.7286  -37.6527   23.6691 H   0  0  0  0  0  0
  -26.0739  -31.5729   20.5999 H   0  0  0  0  0  0
  -26.8311  -30.8567   21.9943 H   0  0  0  0  0  0
  -28.1110  -29.0373   21.1687 H   0  0  0  0  0  0
  -25.9939  -25.9639   18.9828 H   0  0  0  0  0  0
  -23.9715  -27.3136   19.0085 H   0  0  0  0  0  0
  -23.7244  -30.5952   19.4030 H   0  0  0  0  0  0
  -22.7441  -29.2389   19.8698 H   0  0  0  0  0  0
  -25.1279  -36.1939   25.0820 H   0  0  0  0  0  0
  -20.9933  -28.3240   24.1429 H   0  0  0  0  0  0
  -20.5653  -26.2271   23.3608 H   0  0  0  0  0  0
  -21.6618  -26.7444   22.1202 H   0  0  0  0  0  0
  -19.6907  -25.6303   21.1226 H   0  0  0  0  0  0
  -19.6669  -27.3208   20.6753 H   0  0  0  0  0  0
  -17.4173  -26.6655   21.4029 H   0  0  0  0  0  0
  -18.0315  -26.0068   22.9023 H   0  0  0  0  0  0
  -19.7919  -30.7255   24.2266 H   0  0  0  0  0  0
  -17.4999  -31.6258   24.5168 H   0  0  0  0  0  0
  -15.5333  -30.2970   23.7677 H   0  0  0  0  0  0
  -15.8647  -28.0833   22.7038 H   0  0  0  0  0  0
  -24.5871  -30.7059   25.7794 H   0  0  0  0  0  0
  -24.8905  -32.2851   26.4931 H   0  0  0  0  0  0
  -25.8046  -30.8844   27.0212 H   0  0  0  0  0  0
  -26.2847  -29.6764   24.1178 H   0  0  0  0  0  0
  -27.3993  -29.7241   25.4635 H   0  0  0  0  0  0
  -27.8722  -30.4284   23.9347 H   0  0  0  0  0  0
  -27.2589  -33.3641   26.2048 H   0  0  0  0  0  0
  -28.3802  -32.6927   25.0294 H   0  0  0  0  0  0
  -28.0701  -31.8495   26.5405 H   0  0  0  0  0  0
  -28.2551  -38.0137   24.7510 H   0  0  0  0  0  0
  -28.1126  -36.2654   24.6239 H   0  0  0  0  0  0
  -27.2299  -37.1406   25.8852 H   0  0  0  0  0  0
  -20.9335  -29.8777   21.6943 H   0  0  0  0  0  0
  -26.0168  -38.2852   24.1399 H   0  0  0  0  0  0
  -29.4267  -23.6659   17.9721 H   0  0  0  0  0  0
  -30.0349  -19.9703   14.8023 H   0  0  0  0  0  0
  -30.7776  -18.7486   15.8272 H   0  0  0  0  0  0
  -31.7334  -20.1257   15.2865 H   0  0  0  0  0  0
  -29.9320  -27.3599   16.7255 H   0  0  0  0  0  0
  -31.4693  -26.8624   16.0248 H   0  0  0  0  0  0
  -30.9300  -26.1802   17.5572 H   0  0  0  0  0  0
  -28.6446  -26.7203   14.6288 H   0  0  0  0  0  0
  -28.7638  -25.1002   13.9620 H   0  0  0  0  0  0
  -30.1206  -26.2129   13.8157 H   0  0  0  0  0  0
  -29.0721  -22.9409   15.1137 H   0  0  0  0  0  0
  -30.6030  -22.2307   14.7209 H   0  0  0  0  0  0
  -29.8781  -22.2997   21.2749 H   0  0  0  0  0  0
  -28.2169  -22.4321   20.7807 H   0  0  0  0  0  0
  -29.4662  -19.9543   21.2078 H   0  0  0  0  0  0
  -31.0836  -19.5892   20.6870 H   0  0  0  0  0  0
  -30.3120  -24.5389   19.9203 H   0  0  0  0  0  0
  -29.6168  -24.5594   21.4991 H   0  0  0  0  0  0
  -31.4095  -24.3254   14.7374 H   0  0  0  0  0  0
  -31.5456  -24.0908   16.4406 H   0  0  0  0  0  0
  -29.8662  -17.7264   19.1429 H   0  0  0  0  0  0
  -28.5421  -17.9542   20.2369 H   0  0  0  0  0  0
  -30.1336  -17.2930   22.1403 H   0  0  0  0  0  0
  -31.4140  -17.0995   20.9797 H   0  0  0  0  0  0
  -27.3334  -24.8326   20.6192 H   0  0  0  0  0  0
  -27.9473  -24.9037   18.9829 H   0  0  0  0  0  0
  -29.0223  -25.0865   16.4291 H   0  0  0  0  0  0
  -28.9709  -15.3661   21.2078 H   0  0  0  0  0  0
  1 25  1  0  0  0
  1 30  2  0  0  0
  1 89  1  0  0  0
  2  3  1  0  0  0
  2 25  1  0  0  0
  2 90  1  0  0  0
  2 91  1  0  0  0
  3  4  1  0  0  0
  3 92  1  0  0  0
  3 93  1  0  0  0
  4  5  1  0  0  0
  4 94  1  0  0  0
  4 95  1  0  0  0
  5  6  1  0  0  0
  5 26  1  0  0  0
  5 96  1  0  0  0
  6 25  1  0  0  0
  6 97  1  0  0  0
  6 98  1  0  0  0
  7  8  2  0  0  0
  7 26  1  0  0  0
  7 29  1  0  0  0
  8  9  1  0  0  0
  8 22  1  0  0  0
  9 10  1  0  0  0
  9 27  2  0  0  0
 10 11  2  0  0  0
 10 15  1  0  0  0
 11 12  1  0  0  0
 11 99  1  0  0  0
 12 13  2  0  0  0
 12100  1  0  0  0
 13 14  1  0  0  0
 13 31  1  0  0  0
 14 15  2  0  0  0
 14101  1  0  0  0
 15102  1  0  0  0
 16 17  2  0  0  0
 16 21  1  0  0  0
 16 31  1  0  0  0
 17 18  1  0  0  0
 17103  1  0  0  0
 18 19  2  0  0  0
 18104  1  0  0  0
 19 20  1  0  0  0
 19 24  1  0  0  0
 20 21  2  0  0  0
 20105  1  0  0  0
 21 23  1  0  0  0
 22 28  1  0  0  0
 22 32  2  0  0  0
 26 27  1  0  0  0
 28106  1  0  0  0
 28107  1  0  0  0
 29108  1  0  0  0
 29109  1  0  0  0
 33 34  1  0  0  0
 33 66  1  0  0  0
 33 70  2  0  0  0
 34 36  1  0  0  0
 34 59  1  0  0  0
 34110  1  0  0  0
 35 44  2  0  0  0
 35 45  1  0  0  0
 35 68  1  0  0  0
 36 56  1  0  0  0
 36111  1  0  0  0
 37 39  1  0  0  0
 37 47  1  0  0  0
 37 66  1  0  0  0
 37112  1  0  0  0
 38 43  2  0  0  0
 38 46  1  0  0  0
 38 47  1  0  0  0
 39 64  1  0  0  0
 39 67  2  0  0  0
 40 52  1  0  0  0
 40 53  2  0  0  0
 40 58  1  0  0  0
 41113  1  0  0  0
 41114  1  0  0  0
 41115  1  0  0  0
 41 48  1  0  0  0
 42 43  1  0  0  0
 42 66  1  0  0  0
 42116  1  0  0  0
 42117  1  0  0  0
 43 44  1  0  0  0
 44118  1  0  0  0
 45 46  2  0  0  0
 45119  1  0  0  0
 46120  1  0  0  0
 47121  1  0  0  0
 47122  1  0  0  0
 48 56  1  0  0  0
 48 65  1  0  0  0
 48123  1  0  0  0
 49 50  1  0  0  0
 49 53  1  0  0  0
 49 64  1  0  0  0
 49124  1  0  0  0
 50 51  1  0  0  0
 50125  1  0  0  0
 50126  1  0  0  0
 51 52  1  0  0  0
 51127  1  0  0  0
 51128  1  0  0  0
 52129  1  0  0  0
 52130  1  0  0  0
 53 54  1  0  0  0
 54 55  2  0  0  0
 54131  1  0  0  0
 55 57  1  0  0  0
 55132  1  0  0  0
 56 69  2  0  0  0
 57 58  2  0  0  0
 57133  1  0  0  0
 58134  1  0  0  0
 59 60  1  0  0  0
 59 61  1  0  0  0
 59 62  1  0  0  0
 60135  1  0  0  0
 60136  1  0  0  0
 60137  1  0  0  0
 61138  1  0  0  0
 61139  1  0  0  0
 61140  1  0  0  0
 62141  1  0  0  0
 62142  1  0  0  0
 62143  1  0  0  0
 63 65  1  0  0  0
 63144  1  0  0  0
 63145  1  0  0  0
 63146  1  0  0  0
 64147  1  0  0  0
 65148  1  0  0  0
 68 86  1  0  0  0
 71 72  2  0  0  0
 71 73  1  0  0  0
 71149  1  0  0  0
 72 74  1  0  0  0
 72 79  1  0  0  0
 73 75  2  0  0  0
 73 80  1  0  0  0
 74 76  1  0  0  0
 74 88  2  0  0  0
 75 81  1  0  0  0
 75 88  1  0  0  0
 76150  1  0  0  0
 76151  1  0  0  0
 76152  1  0  0  0
 77153  1  0  0  0
 77154  1  0  0  0
 77155  1  0  0  0
 77 87  1  0  0  0
 78 87  1  0  0  0
 78156  1  0  0  0
 78157  1  0  0  0
 78158  1  0  0  0
 79 83  1  0  0  0
 79159  1  0  0  0
 79160  1  0  0  0
 80 82  1  0  0  0
 80161  1  0  0  0
 80162  1  0  0  0
 81 84  1  0  0  0
 81163  1  0  0  0
 81164  1  0  0  0
 82 86  1  0  0  0
 82165  1  0  0  0
 82166  1  0  0  0
 83 87  1  0  0  0
 83167  1  0  0  0
 83168  1  0  0  0
 84 85  1  0  0  0
 84169  1  0  0  0
 84170  1  0  0  0
 85 89  1  0  0  0
 85171  1  0  0  0
 85172  1  0  0  0
 86173  1  0  0  0
 86174  1  0  0  0
 87175  1  0  0  0
 89176  1  0  0  0
M  ISO  4   1 100  68 101  86 101  89 100
M  END
> <chiral flag>
0

> <version>
0

> <s_m_source_file>
/data/baiqing/PycharmProjects/Reinvent-master-3.2/result/LINK_invent/BTK/process_docking_weight1_custom_sum_contain_oxygen_bond_distance_aromatic_linkinvent_7_9_3/rearranged_h_0090.sdf

> <i_m_source_file_index>
19

> <r_mmod_Potential_Energy-OPLS-2005>
-165.637100219727

> <r_mmod_Stretch_Energy-OPLS-2005>
57.57666015625

> <r_mmod_Bend_Energy-OPLS-2005>
123.378593444824

> <r_mmod_Torsional_Energy-OPLS-2005>
219.932281494141

> <r_mmod_Improper_Torsional_Energy-OPLS-2005>
4.10282754898071

> <r_mmod_Van_der_Waal_Energy-OPLS-2005>
156.164260864258

> <r_mmod_Electrostatic_Energy-OPLS-2005>
-533.242492675781

> <r_mmod_Solvation_Energy-OPLS-2005>
-219.588973999023

> <b_mmod_Minimization_Converged-OPLS-2005>
0

> <r_mmod_RMS_Derivative-OPLS-2005>
1.48151183128357

$$$$
19
                    3D
 Structure written by MMmdl.
173181  0  0  1  0            999 V2000
  -30.7446  -14.4002   20.5810 C   0  0  0  0  0  0
  -30.3959  -12.2667   19.4137 C   0  0  0  0  0  0
  -29.4807  -12.4964   18.1974 C   0  0  0  0  0  0
  -28.0036  -12.3656   18.6079 C   0  0  0  0  0  0
  -27.6554  -13.2084   19.8660 C   0  0  2  0  0  0
  -28.6916  -12.9856   20.9895 C   0  0  0  0  0  0
  -25.2562  -13.8175   20.5630 C   0  0  0  0  0  0
  -24.1820  -13.0441   20.9166 C   0  0  0  0  0  0
  -24.6383  -11.6910   20.8722 C   0  0  0  0  0  0
  -23.9073  -10.4283   21.0402 C   0  0  0  0  0  0
  -24.3629   -9.4199   21.9173 C   0  0  0  0  0  0
  -23.6315   -8.2228   22.0737 C   0  0  0  0  0  0
  -22.4289   -8.0277   21.3546 C   0  0  0  0  0  0
  -21.9934   -9.0242   20.4640 C   0  0  0  0  0  0
  -22.7256  -10.2125   20.3047 C   0  0  0  0  0  0
  -21.6870   -6.0741   22.5289 C   0  0  0  0  0  0
  -21.4001   -6.5636   23.8218 C   0  0  0  0  0  0
  -21.3656   -5.6788   24.9176 C   0  0  0  0  0  0
  -21.6060   -4.3053   24.7232 C   0  0  0  0  0  0
  -21.8820   -3.8150   23.4346 C   0  0  0  0  0  0
  -21.9196   -4.6970   22.3406 C   0  0  0  0  0  0
  -22.7855  -13.5231   21.1879 C   0  0  0  0  0  0
  -22.1663   -4.2153   21.0991 F   0  0  0  0  0  0
  -21.5638   -3.4534   25.7739 F   0  0  0  0  0  0
  -30.0321  -13.2527   20.4413 N   0  0  0  0  0  0
  -26.2979  -12.9348   20.3301 N   0  0  0  0  0  0
  -25.9301  -11.6507   20.5716 N   0  0  0  0  0  0
  -22.0536  -12.8172   22.0439 N   0  0  0  0  0  0
  -25.4347  -15.1875   20.4031 N   0  0  0  0  0  0
  -31.8565  -14.5636   20.0722 O   0  0  0  0  0  0
  -21.6658   -6.8876   21.4242 O   0  0  0  0  0  0
  -22.3512  -14.5532   20.6756 O   0  0  0  0  0  0
  -24.6161  -31.8676   23.2121 C   0  0  0  0  0  0
  -25.9054  -32.4842   23.8413 C   0  0  1  0  0  0
  -27.2334  -27.4487   20.0925 C   0  0  0  0  0  0
  -25.5917  -33.8633   24.2337 N   0  0  0  0  0  0
  -23.4014  -30.4931   21.5544 C   0  0  2  0  0  0
  -24.8466  -28.9636   20.1195 C   0  0  0  0  0  0
  -22.7412  -29.4651   22.5018 C   0  0  0  0  0  0
  -18.0257  -28.1342   22.8493 C   0  0  0  0  0  0
  -24.1472  -36.7323   23.2640 C   0  0  0  0  0  0
  -25.9309  -30.8449   21.3578 C   0  0  0  0  0  0
  -26.0104  -29.4824   20.7000 C   0  0  0  0  0  0
  -27.2108  -28.7367   20.6705 C   0  0  0  0  0  0
  -26.0420  -26.9347   19.5278 C   0  0  0  0  0  0
  -24.8579  -27.6897   19.5304 C   0  0  0  0  0  0
  -23.6096  -29.8282   20.1688 C   0  0  0  0  0  0
  -25.4097  -36.3129   24.0338 C   0  0  1  0  0  0
  -20.5849  -28.3625   23.1330 C   0  0  2  0  0  0
  -20.6742  -26.9364   22.5405 C   0  0  0  0  0  0
  -19.5725  -26.6360   21.5196 C   0  0  0  0  0  0
  -18.1904  -26.7893   22.1606 C   0  0  0  0  0  0
  -19.1504  -28.8796   23.2912 C   0  0  0  0  0  0
  -18.9438  -30.1401   23.8917 C   0  0  0  0  0  0
  -17.6439  -30.6555   24.0550 C   0  0  0  0  0  0
  -25.9021  -34.9492   23.5118 C   0  0  0  0  0  0
  -16.5337  -29.9046   23.6318 C   0  0  0  0  0  0
  -16.7246  -28.6465   23.0350 C   0  0  0  0  0  0
  -26.4474  -31.6627   25.0734 C   0  0  0  0  0  0
  -25.3763  -31.3727   26.1498 C   0  0  0  0  0  0
  -27.0278  -30.3068   24.6104 C   0  0  0  0  0  0
  -27.6027  -32.4369   25.7511 C   0  0  0  0  0  0
  -27.5574  -37.1809   24.8467 C   0  0  0  0  0  0
  -21.4133  -29.3023   22.3770 N   0  0  0  0  0  0
  -26.4282  -37.3815   23.9416 N   0  0  0  0  0  0
  -24.6678  -31.0822   22.1004 N   0  0  0  0  0  0
  -23.4190  -28.8165   23.3025 O   0  0  0  0  0  0
  -28.4110  -26.7311   20.0913 O   0  0  0  0  0  0
  -26.5552  -34.8940   22.4667 O   0  0  0  0  0  0
  -23.5353  -32.1393   23.7547 O   0  0  0  0  0  0
  -28.1373  -21.3983   17.6243 C   0  0  0  0  0  0
  -28.5816  -21.2619   19.9990 C   0  0  0  0  0  0
  -28.0104  -21.9518   18.9115 C   0  0  0  0  0  0
  -28.8038  -20.1708   17.4814 C   0  0  0  0  0  0
  -29.2498  -20.0448   19.7589 C   0  0  0  0  0  0
  -28.9635  -19.5271   16.1237 C   0  0  0  0  0  0
  -26.8175  -19.2219   23.7091 C   0  0  0  0  0  0
  -31.5288  -19.4830   20.5924 C   0  0  0  0  0  0
  -27.2897  -23.2691   19.1180 C   0  0  0  0  0  0
  -28.2511  -18.6593   23.6142 C   0  0  0  0  0  0
  -28.2214  -24.4970   19.0227 C   0  0  0  0  0  0
  -28.5255  -17.7352   22.3800 C   0  0  0  0  0  0
  -30.6339  -16.7916   21.1564 C   0  0  0  0  0  0
  -28.3015  -25.3230   20.3243 C   0  0  0  0  0  0
  -30.0209  -19.3319   20.8738 C   0  0  2  0  0  0
  -29.5040  -17.8662   21.1562 C   0  0  2  0  0  0
  -29.3461  -19.5072   18.5217 N   0  0  0  0  0  0
  -30.1223  -15.4164   21.1902 N   0  0  0  0  0  0
  -31.4452  -12.3226   19.1173 H   0  0  0  0  0  0
  -30.2525  -11.2582   19.8053 H   0  0  0  0  0  0
  -29.7144  -11.7760   17.4118 H   0  0  0  0  0  0
  -29.6623  -13.4867   17.7748 H   0  0  0  0  0  0
  -27.8055  -11.3087   18.7931 H   0  0  0  0  0  0
  -27.3556  -12.6457   17.7760 H   0  0  0  0  0  0
  -27.7038  -14.2569   19.5739 H   0  0  0  0  0  0
  -28.6404  -11.9529   21.3344 H   0  0  0  0  0  0
  -28.4581  -13.5997   21.8618 H   0  0  0  0  0  0
  -25.2773   -9.5665   22.4741 H   0  0  0  0  0  0
  -24.0056   -7.4596   22.7413 H   0  0  0  0  0  0
  -21.0889   -8.8737   19.8918 H   0  0  0  0  0  0
  -22.3723  -10.9652   19.6138 H   0  0  0  0  0  0
  -21.1967   -7.6146   23.9720 H   0  0  0  0  0  0
  -21.1494   -6.0522   25.9086 H   0  0  0  0  0  0
  -22.0610   -2.7619   23.2855 H   0  0  0  0  0  0
  -22.4201  -11.9837   22.4789 H   0  0  0  0  0  0
  -21.1127  -13.1092   22.2636 H   0  0  0  0  0  0
  -24.6785  -15.8549   20.5150 H   0  0  0  0  0  0
  -26.3060  -15.6222   20.1229 H   0  0  0  0  0  0
  -26.7140  -32.5569   23.1195 H   0  0  0  0  0  0
  -25.0168  -33.9812   25.0549 H   0  0  0  0  0  0
  -22.6915  -31.3110   21.4178 H   0  0  0  0  0  0
  -23.3728  -35.9661   23.3299 H   0  0  0  0  0  0
  -24.3584  -36.8919   22.2058 H   0  0  0  0  0  0
  -23.7204  -37.6525   23.6639 H   0  0  0  0  0  0
  -26.0471  -31.6169   20.5947 H   0  0  0  0  0  0
  -26.8165  -30.8916   21.9796 H   0  0  0  0  0  0
  -28.1166  -29.1417   21.1014 H   0  0  0  0  0  0
  -26.0079  -25.9548   19.0786 H   0  0  0  0  0  0
  -23.9603  -27.2810   19.0886 H   0  0  0  0  0  0
  -23.7223  -30.6034   19.4111 H   0  0  0  0  0  0
  -22.7335  -29.2503   19.8694 H   0  0  0  0  0  0
  -25.1266  -36.2004   25.0827 H   0  0  0  0  0  0
  -20.9935  -28.3154   24.1455 H   0  0  0  0  0  0
  -20.5622  -26.2224   23.3577 H   0  0  0  0  0  0
  -21.6615  -26.7390   22.1211 H   0  0  0  0  0  0
  -19.6883  -25.6275   21.1208 H   0  0  0  0  0  0
  -19.6665  -27.3181   20.6737 H   0  0  0  0  0  0
  -17.4176  -26.6646   21.4010 H   0  0  0  0  0  0
  -18.0305  -26.0020   22.8984 H   0  0  0  0  0  0
  -19.7913  -30.7195   24.2322 H   0  0  0  0  0  0
  -17.4993  -31.6247   24.5120 H   0  0  0  0  0  0
  -15.5330  -30.2945   23.7629 H   0  0  0  0  0  0
  -15.8651  -28.0770   22.7068 H   0  0  0  0  0  0
  -24.5929  -30.7078   25.7839 H   0  0  0  0  0  0
  -24.8985  -32.2885   26.4995 H   0  0  0  0  0  0
  -25.8152  -30.8871   27.0223 H   0  0  0  0  0  0
  -26.2781  -29.6870   24.1174 H   0  0  0  0  0  0
  -27.4024  -29.7296   25.4564 H   0  0  0  0  0  0
  -27.8643  -30.4337   23.9227 H   0  0  0  0  0  0
  -27.2586  -33.3645   26.2105 H   0  0  0  0  0  0
  -28.3833  -32.6982   25.0356 H   0  0  0  0  0  0
  -28.0694  -31.8504   26.5436 H   0  0  0  0  0  0
  -28.2593  -38.0106   24.7534 H   0  0  0  0  0  0
  -28.1048  -36.2642   24.6241 H   0  0  0  0  0  0
  -27.2305  -37.1405   25.8871 H   0  0  0  0  0  0
  -20.9277  -29.8831   21.7082 H   0  0  0  0  0  0
  -26.0173  -38.2892   24.1421 H   0  0  0  0  0  0
  -27.7351  -21.9046   16.7568 H   0  0  0  0  0  0
  -28.5351  -21.6702   21.0000 H   0  0  0  0  0  0
  -29.1872  -20.2775   15.3644 H   0  0  0  0  0  0
  -28.0429  -19.0148   15.8421 H   0  0  0  0  0  0
  -29.7764  -18.7992   16.1303 H   0  0  0  0  0  0
  -26.6289  -19.6764   24.6837 H   0  0  0  0  0  0
  -26.0747  -18.4385   23.5639 H   0  0  0  0  0  0
  -26.6427  -19.9947   22.9598 H   0  0  0  0  0  0
  -31.7861  -20.5368   20.4840 H   0  0  0  0  0  0
  -31.8091  -18.9896   19.6612 H   0  0  0  0  0  0
  -32.1452  -19.0810   21.3952 H   0  0  0  0  0  0
  -26.7605  -23.2310   20.0710 H   0  0  0  0  0  0
  -26.5100  -23.3545   18.3617 H   0  0  0  0  0  0
  -28.4171  -18.0851   24.5316 H   0  0  0  0  0  0
  -28.9542  -19.4940   23.6809 H   0  0  0  0  0  0
  -27.8655  -25.1227   18.2037 H   0  0  0  0  0  0
  -29.2238  -24.1913   18.7191 H   0  0  0  0  0  0
  -29.4730  -17.6865   22.9150 H   0  0  0  0  0  0
  -27.9802  -18.5043   21.8332 H   0  0  0  0  0  0
  -31.2229  -16.9184   20.2455 H   0  0  0  0  0  0
  -31.3268  -16.9339   21.9879 H   0  0  0  0  0  0
  -29.1804  -25.0098   20.8881 H   0  0  0  0  0  0
  -27.4598  -25.1220   20.9898 H   0  0  0  0  0  0
  -29.8617  -19.9215   21.7723 H   0  0  0  0  0  0
  -28.9187  -17.5832   20.2781 H   0  0  0  0  0  0
  -29.2149  -15.2497   21.5994 H   0  0  0  0  0  0
  1 25  1  0  0  0
  1 30  2  0  0  0
  1 88  1  0  0  0
  2  3  1  0  0  0
  2 25  1  0  0  0
  2 89  1  0  0  0
  2 90  1  0  0  0
  3  4  1  0  0  0
  3 91  1  0  0  0
  3 92  1  0  0  0
  4  5  1  0  0  0
  4 93  1  0  0  0
  4 94  1  0  0  0
  5  6  1  0  0  0
  5 26  1  0  0  0
  5 95  1  0  0  0
  6 25  1  0  0  0
  6 96  1  0  0  0
  6 97  1  0  0  0
  7  8  2  0  0  0
  7 26  1  0  0  0
  7 29  1  0  0  0
  8  9  1  0  0  0
  8 22  1  0  0  0
  9 10  1  0  0  0
  9 27  2  0  0  0
 10 11  2  0  0  0
 10 15  1  0  0  0
 11 12  1  0  0  0
 11 98  1  0  0  0
 12 13  2  0  0  0
 12 99  1  0  0  0
 13 14  1  0  0  0
 13 31  1  0  0  0
 14 15  2  0  0  0
 14100  1  0  0  0
 15101  1  0  0  0
 16 17  2  0  0  0
 16 21  1  0  0  0
 16 31  1  0  0  0
 17 18  1  0  0  0
 17102  1  0  0  0
 18 19  2  0  0  0
 18103  1  0  0  0
 19 20  1  0  0  0
 19 24  1  0  0  0
 20 21  2  0  0  0
 20104  1  0  0  0
 21 23  1  0  0  0
 22 28  1  0  0  0
 22 32  2  0  0  0
 26 27  1  0  0  0
 28105  1  0  0  0
 28106  1  0  0  0
 29107  1  0  0  0
 29108  1  0  0  0
 33 34  1  0  0  0
 33 66  1  0  0  0
 33 70  2  0  0  0
 34 36  1  0  0  0
 34 59  1  0  0  0
 34109  1  0  0  0
 35 44  2  0  0  0
 35 45  1  0  0  0
 35 68  1  0  0  0
 36 56  1  0  0  0
 36110  1  0  0  0
 37 39  1  0  0  0
 37 47  1  0  0  0
 37 66  1  0  0  0
 37111  1  0  0  0
 38 43  2  0  0  0
 38 46  1  0  0  0
 38 47  1  0  0  0
 39 64  1  0  0  0
 39 67  2  0  0  0
 40 52  1  0  0  0
 40 53  2  0  0  0
 40 58  1  0  0  0
 41112  1  0  0  0
 41113  1  0  0  0
 41114  1  0  0  0
 41 48  1  0  0  0
 42 43  1  0  0  0
 42 66  1  0  0  0
 42115  1  0  0  0
 42116  1  0  0  0
 43 44  1  0  0  0
 44117  1  0  0  0
 45 46  2  0  0  0
 45118  1  0  0  0
 46119  1  0  0  0
 47120  1  0  0  0
 47121  1  0  0  0
 48 56  1  0  0  0
 48 65  1  0  0  0
 48122  1  0  0  0
 49 50  1  0  0  0
 49 53  1  0  0  0
 49 64  1  0  0  0
 49123  1  0  0  0
 50 51  1  0  0  0
 50124  1  0  0  0
 50125  1  0  0  0
 51 52  1  0  0  0
 51126  1  0  0  0
 51127  1  0  0  0
 52128  1  0  0  0
 52129  1  0  0  0
 53 54  1  0  0  0
 54 55  2  0  0  0
 54130  1  0  0  0
 55 57  1  0  0  0
 55131  1  0  0  0
 56 69  2  0  0  0
 57 58  2  0  0  0
 57132  1  0  0  0
 58133  1  0  0  0
 59 60  1  0  0  0
 59 61  1  0  0  0
 59 62  1  0  0  0
 60134  1  0  0  0
 60135  1  0  0  0
 60136  1  0  0  0
 61137  1  0  0  0
 61138  1  0  0  0
 61139  1  0  0  0
 62140  1  0  0  0
 62141  1  0  0  0
 62142  1  0  0  0
 63 65  1  0  0  0
 63143  1  0  0  0
 63144  1  0  0  0
 63145  1  0  0  0
 64146  1  0  0  0
 65147  1  0  0  0
 68 84  1  0  0  0
 71 73  2  0  0  0
 71 74  1  0  0  0
 71148  1  0  0  0
 72 73  1  0  0  0
 72 75  2  0  0  0
 72149  1  0  0  0
 73 79  1  0  0  0
 74 76  1  0  0  0
 74 87  2  0  0  0
 75 85  1  0  0  0
 75 87  1  0  0  0
 76150  1  0  0  0
 76151  1  0  0  0
 76152  1  0  0  0
 77 80  1  0  0  0
 77153  1  0  0  0
 77154  1  0  0  0
 77155  1  0  0  0
 78156  1  0  0  0
 78157  1  0  0  0
 78158  1  0  0  0
 78 85  1  0  0  0
 79 81  1  0  0  0
 79159  1  0  0  0
 79160  1  0  0  0
 80 82  1  0  0  0
 80161  1  0  0  0
 80162  1  0  0  0
 81 84  1  0  0  0
 81163  1  0  0  0
 81164  1  0  0  0
 82165  1  0  0  0
 82166  1  0  0  0
 82 86  1  0  0  0
 83 86  1  0  0  0
 83 88  1  0  0  0
 83167  1  0  0  0
 83168  1  0  0  0
 84169  1  0  0  0
 84170  1  0  0  0
 85 86  1  0  0  0
 85171  1  0  0  0
 86172  1  0  0  0
 88173  1  0  0  0
M  ISO  4   1 100  68 101  84 101  88 100
M  END
> <chiral flag>
0

> <version>
0

> <s_m_source_file>
/data/baiqing/PycharmProjects/Reinvent-master-3.2/result/LINK_invent/BTK/process_docking_weight1_custom_sum_contain_oxygen_bond_distance_aromatic_linkinvent_7_9_3/rearranged_h_0090.sdf

> <i_m_source_file_index>
20

> <r_mmod_Potential_Energy-OPLS-2005>
46.1468353271484

> <r_mmod_Stretch_Energy-OPLS-2005>
40.0768241882324

> <r_mmod_Bend_Energy-OPLS-2005>
329.961273193359

> <r_mmod_Torsional_Energy-OPLS-2005>
243.540802001953

> <r_mmod_Improper_Torsional_Energy-OPLS-2005>
3.36042523384094

> <r_mmod_Van_der_Waal_Energy-OPLS-2005>
186.405197143555

> <r_mmod_Electrostatic_Energy-OPLS-2005>
-563.770446777344

> <r_mmod_Solvation_Energy-OPLS-2005>
-204.441284179688

> <b_mmod_Minimization_Converged-OPLS-2005>
0

> <r_mmod_RMS_Derivative-OPLS-2005>
3.40273284912109

$$$$
20
                    3D
 Structure written by MMmdl.
177185  0  0  1  0            999 V2000
  -30.6443  -14.5864   20.5120 C   0  0  0  0  0  0
  -30.4274  -12.3627   19.4357 C   0  0  0  0  0  0
  -29.4954  -12.4910   18.2117 C   0  0  0  0  0  0
  -28.0194  -12.3374   18.6304 C   0  0  0  0  0  0
  -27.6501  -13.2104   19.8596 C   0  0  2  0  0  0
  -28.6953  -13.0573   20.9862 C   0  0  0  0  0  0
  -25.2547  -13.8161   20.5663 C   0  0  0  0  0  0
  -24.1818  -13.0437   20.9162 C   0  0  0  0  0  0
  -24.6375  -11.6901   20.8738 C   0  0  0  0  0  0
  -23.9052  -10.4289   21.0408 C   0  0  0  0  0  0
  -24.3607   -9.4203   21.9185 C   0  0  0  0  0  0
  -23.6282   -8.2241   22.0762 C   0  0  0  0  0  0
  -22.4268   -8.0272   21.3547 C   0  0  0  0  0  0
  -21.9899   -9.0246   20.4652 C   0  0  0  0  0  0
  -22.7224  -10.2126   20.3057 C   0  0  0  0  0  0
  -21.6852   -6.0723   22.5274 C   0  0  0  0  0  0
  -21.4011   -6.5633   23.8203 C   0  0  0  0  0  0
  -21.3659   -5.6790   24.9170 C   0  0  0  0  0  0
  -21.6050   -4.3053   24.7228 C   0  0  0  0  0  0
  -21.8819   -3.8139   23.4351 C   0  0  0  0  0  0
  -21.9191   -4.6950   22.3401 C   0  0  0  0  0  0
  -22.7841  -13.5227   21.1831 C   0  0  0  0  0  0
  -22.1660   -4.2132   21.0980 F   0  0  0  0  0  0
  -21.5631   -3.4540   25.7745 F   0  0  0  0  0  0
  -30.0088  -13.3823   20.4139 N   0  0  0  0  0  0
  -26.2968  -12.9335   20.3310 N   0  0  0  0  0  0
  -25.9301  -11.6494   20.5765 N   0  0  0  0  0  0
  -22.0497  -12.8227   22.0396 N   0  0  0  0  0  0
  -25.4268  -15.1886   20.4090 N   0  0  0  0  0  0
  -31.8158  -14.7357   20.1551 O   0  0  0  0  0  0
  -21.6636   -6.8865   21.4236 O   0  0  0  0  0  0
  -22.3516  -14.5531   20.6673 O   0  0  0  0  0  0
  -24.6192  -31.8594   23.2042 C   0  0  0  0  0  0
  -25.9049  -32.4783   23.8359 C   0  0  1  0  0  0
  -27.2438  -27.3671   20.0997 C   0  0  0  0  0  0
  -25.5878  -33.8584   24.2294 N   0  0  0  0  0  0
  -23.4108  -30.4840   21.5433 C   0  0  2  0  0  0
  -24.8620  -28.9399   20.1105 C   0  0  0  0  0  0
  -22.7414  -29.4618   22.4917 C   0  0  0  0  0  0
  -18.0272  -28.1346   22.8482 C   0  0  0  0  0  0
  -24.1494  -36.7309   23.2637 C   0  0  0  0  0  0
  -25.9461  -30.8040   21.3691 C   0  0  0  0  0  0
  -26.0235  -29.4319   20.7179 C   0  0  0  0  0  0
  -27.2099  -28.6502   20.7160 C   0  0  0  0  0  0
  -26.0552  -26.9046   19.4895 C   0  0  0  0  0  0
  -24.8762  -27.6764   19.4956 C   0  0  0  0  0  0
  -23.6245  -29.8125   20.1592 C   0  0  0  0  0  0
  -25.4111  -36.3094   24.0332 C   0  0  1  0  0  0
  -20.5869  -28.3641   23.1279 C   0  0  2  0  0  0
  -20.6762  -26.9363   22.5396 C   0  0  0  0  0  0
  -19.5752  -26.6351   21.5188 C   0  0  0  0  0  0
  -18.1926  -26.7897   22.1601 C   0  0  0  0  0  0
  -19.1523  -28.8807   23.2889 C   0  0  0  0  0  0
  -18.9451  -30.1410   23.8910 C   0  0  0  0  0  0
  -17.6456  -30.6563   24.0551 C   0  0  0  0  0  0
  -25.9022  -34.9447   23.5115 C   0  0  0  0  0  0
  -16.5346  -29.9061   23.6315 C   0  0  0  0  0  0
  -16.7259  -28.6466   23.0353 C   0  0  0  0  0  0
  -26.4465  -31.6591   25.0706 C   0  0  0  0  0  0
  -25.3721  -31.3695   26.1444 C   0  0  0  0  0  0
  -27.0320  -30.3039   24.6118 C   0  0  0  0  0  0
  -27.6039  -32.4324   25.7455 C   0  0  0  0  0  0
  -27.5587  -37.1804   24.8449 C   0  0  0  0  0  0
  -21.4133  -29.3020   22.3668 N   0  0  0  0  0  0
  -26.4293  -37.3784   23.9396 N   0  0  0  0  0  0
  -24.6773  -31.0651   22.0968 N   0  0  0  0  0  0
  -23.4158  -28.8140   23.2962 O   0  0  0  0  0  0
  -28.4070  -26.5964   20.1404 O   0  0  0  0  0  0
  -26.5597  -34.8894   22.4686 O   0  0  0  0  0  0
  -23.5368  -32.1360   23.7399 O   0  0  0  0  0  0
  -27.4579  -20.8796   21.2408 C   0  0  0  0  0  0
  -26.8737  -19.6379   21.6019 C   0  0  0  0  0  0
  -28.6443  -20.5704   20.6423 C   0  0  0  0  0  0
  -23.3843  -23.9667   18.4089 C   0  0  0  0  0  0
  -21.8619  -21.9638   18.4776 C   0  0  0  0  0  0
  -25.5114  -19.3959   22.2131 C   0  0  0  0  0  0
  -29.5902  -21.5651   19.9859 C   0  0  0  0  0  0
  -24.5429  -20.5838   22.0171 C   0  0  0  0  0  0
  -29.4607  -23.1074   20.3506 C   0  0  0  0  0  0
  -24.1021  -20.8026   20.5530 C   0  0  0  0  0  0
  -28.2756  -23.9757   19.7727 C   0  0  0  0  0  0
  -23.6625  -22.2489   20.2618 C   0  0  0  0  0  0
  -29.7702  -18.2085   20.1597 C   0  0  0  0  0  0
  -30.2970  -17.0638   21.1216 C   0  0  0  0  0  0
  -28.5940  -25.4421   19.2677 C   0  0  0  0  0  0
  -23.2737  -22.4827   18.7872 C   0  0  0  0  0  0
  -27.6717  -18.6216   21.3059 N   0  0  0  0  0  0
  -28.7697  -19.1598   20.7137 N   0  0  0  0  0  0
  -29.8708  -15.6530   20.8593 N   0  0  0  0  0  0
  -31.4692  -12.4788   19.1323 H   0  0  0  0  0  0
  -30.3529  -11.3666   19.8739 H   0  0  0  0  0  0
  -29.7502  -11.7378   17.4644 H   0  0  0  0  0  0
  -29.6436  -13.4599   17.7321 H   0  0  0  0  0  0
  -27.8538  -11.2849   18.8644 H   0  0  0  0  0  0
  -27.3618  -12.5683   17.7920 H   0  0  0  0  0  0
  -27.6713  -14.2463   19.5197 H   0  0  0  0  0  0
  -28.6984  -12.0374   21.3737 H   0  0  0  0  0  0
  -28.4509  -13.6973   21.8361 H   0  0  0  0  0  0
  -25.2754   -9.5677   22.4755 H   0  0  0  0  0  0
  -23.9988   -7.4632   22.7489 H   0  0  0  0  0  0
  -21.0826   -8.8759   19.8959 H   0  0  0  0  0  0
  -22.3679  -10.9660   19.6163 H   0  0  0  0  0  0
  -21.2003   -7.6139   23.9699 H   0  0  0  0  0  0
  -21.1483   -6.0525   25.9071 H   0  0  0  0  0  0
  -22.0603   -2.7599   23.2858 H   0  0  0  0  0  0
  -22.4119  -11.9874   22.4760 H   0  0  0  0  0  0
  -21.1122  -13.1254   22.2632 H   0  0  0  0  0  0
  -24.6642  -15.8452   20.5308 H   0  0  0  0  0  0
  -26.2873  -15.6370   20.1212 H   0  0  0  0  0  0
  -26.7095  -32.5464   23.1098 H   0  0  0  0  0  0
  -25.0032  -33.9728   25.0443 H   0  0  0  0  0  0
  -22.7035  -31.3035   21.4010 H   0  0  0  0  0  0
  -23.3749  -35.9649   23.3294 H   0  0  0  0  0  0
  -24.3588  -36.8933   22.2052 H   0  0  0  0  0  0
  -23.7254  -37.6509   23.6665 H   0  0  0  0  0  0
  -26.0653  -31.5667   20.5989 H   0  0  0  0  0  0
  -26.8306  -30.8620   21.9914 H   0  0  0  0  0  0
  -28.1022  -29.0227   21.2004 H   0  0  0  0  0  0
  -26.0166  -25.9343   19.0187 H   0  0  0  0  0  0
  -23.9849  -27.2902   19.0226 H   0  0  0  0  0  0
  -23.7250  -30.5821   19.3924 H   0  0  0  0  0  0
  -22.7497  -29.2280   19.8698 H   0  0  0  0  0  0
  -25.1313  -36.1964   25.0833 H   0  0  0  0  0  0
  -20.9992  -28.3233   24.1391 H   0  0  0  0  0  0
  -20.5631  -26.2250   23.3590 H   0  0  0  0  0  0
  -21.6638  -26.7366   22.1224 H   0  0  0  0  0  0
  -19.6903  -25.6260   21.1217 H   0  0  0  0  0  0
  -19.6715  -27.3151   20.6714 H   0  0  0  0  0  0
  -17.4198  -26.6625   21.3998 H   0  0  0  0  0  0
  -18.0333  -26.0026   22.8989 H   0  0  0  0  0  0
  -19.7933  -30.7203   24.2304 H   0  0  0  0  0  0
  -17.5019  -31.6256   24.5125 H   0  0  0  0  0  0
  -15.5350  -30.2977   23.7626 H   0  0  0  0  0  0
  -15.8654  -28.0789   22.7087 H   0  0  0  0  0  0
  -24.5893  -30.7055   25.7763 H   0  0  0  0  0  0
  -24.8901  -32.2845   26.4894 H   0  0  0  0  0  0
  -25.8054  -30.8843   27.0198 H   0  0  0  0  0  0
  -26.2881  -29.6771   24.1185 H   0  0  0  0  0  0
  -27.4103  -29.7311   25.4592 H   0  0  0  0  0  0
  -27.8709  -30.4362   23.9283 H   0  0  0  0  0  0
  -27.2678  -33.3626   26.2042 H   0  0  0  0  0  0
  -28.3836  -32.6878   25.0271 H   0  0  0  0  0  0
  -28.0727  -31.8442   26.5351 H   0  0  0  0  0  0
  -28.2597  -38.0114   24.7537 H   0  0  0  0  0  0
  -28.1107  -36.2648   24.6265 H   0  0  0  0  0  0
  -27.2290  -37.1438   25.8846 H   0  0  0  0  0  0
  -20.9247  -29.8788   21.6960 H   0  0  0  0  0  0
  -26.0185  -38.2856   24.1430 H   0  0  0  0  0  0
  -27.0364  -21.8668   21.3481 H   0  0  0  0  0  0
  -23.1409  -24.1240   17.3572 H   0  0  0  0  0  0
  -24.3992  -24.3321   18.5617 H   0  0  0  0  0  0
  -22.7099  -24.5843   19.0032 H   0  0  0  0  0  0
  -21.6203  -22.0875   17.4211 H   0  0  0  0  0  0
  -21.1107  -22.5089   19.0507 H   0  0  0  0  0  0
  -21.7582  -20.9044   18.7100 H   0  0  0  0  0  0
  -25.6249  -19.2084   23.2813 H   0  0  0  0  0  0
  -25.0637  -18.4906   21.8009 H   0  0  0  0  0  0
  -29.5276  -21.4469   18.9038 H   0  0  0  0  0  0
  -30.6076  -21.2651   20.2395 H   0  0  0  0  0  0
  -25.0142  -21.4849   22.4108 H   0  0  0  0  0  0
  -23.6561  -20.4289   22.6331 H   0  0  0  0  0  0
  -30.3838  -23.5632   19.9907 H   0  0  0  0  0  0
  -29.5074  -23.2318   21.4330 H   0  0  0  0  0  0
  -23.3038  -20.1009   20.3100 H   0  0  0  0  0  0
  -24.9250  -20.5634   19.8797 H   0  0  0  0  0  0
  -27.4376  -23.9979   20.4701 H   0  0  0  0  0  0
  -27.9020  -23.4309   18.9052 H   0  0  0  0  0  0
  -24.4977  -22.9053   20.5137 H   0  0  0  0  0  0
  -22.8409  -22.5377   20.9199 H   0  0  0  0  0  0
  -29.3538  -17.7721   19.2519 H   0  0  0  0  0  0
  -30.6224  -18.8009   19.8236 H   0  0  0  0  0  0
  -30.0256  -17.3067   22.1495 H   0  0  0  0  0  0
  -31.3878  -17.0980   21.1131 H   0  0  0  0  0  0
  -28.0586  -25.6161   18.3339 H   0  0  0  0  0  0
  -29.6364  -25.4711   18.9513 H   0  0  0  0  0  0
  -23.9816  -21.9399   18.1579 H   0  0  0  0  0  0
  -28.9009  -15.4459   21.0489 H   0  0  0  0  0  0
  1 25  1  0  0  0
  1 30  2  0  0  0
  1 89  1  0  0  0
  2  3  1  0  0  0
  2 25  1  0  0  0
  2 90  1  0  0  0
  2 91  1  0  0  0
  3  4  1  0  0  0
  3 92  1  0  0  0
  3 93  1  0  0  0
  4  5  1  0  0  0
  4 94  1  0  0  0
  4 95  1  0  0  0
  5  6  1  0  0  0
  5 26  1  0  0  0
  5 96  1  0  0  0
  6 25  1  0  0  0
  6 97  1  0  0  0
  6 98  1  0  0  0
  7  8  2  0  0  0
  7 26  1  0  0  0
  7 29  1  0  0  0
  8  9  1  0  0  0
  8 22  1  0  0  0
  9 10  1  0  0  0
  9 27  2  0  0  0
 10 11  2  0  0  0
 10 15  1  0  0  0
 11 12  1  0  0  0
 11 99  1  0  0  0
 12 13  2  0  0  0
 12100  1  0  0  0
 13 14  1  0  0  0
 13 31  1  0  0  0
 14 15  2  0  0  0
 14101  1  0  0  0
 15102  1  0  0  0
 16 17  2  0  0  0
 16 21  1  0  0  0
 16 31  1  0  0  0
 17 18  1  0  0  0
 17103  1  0  0  0
 18 19  2  0  0  0
 18104  1  0  0  0
 19 20  1  0  0  0
 19 24  1  0  0  0
 20 21  2  0  0  0
 20105  1  0  0  0
 21 23  1  0  0  0
 22 28  1  0  0  0
 22 32  2  0  0  0
 26 27  1  0  0  0
 28106  1  0  0  0
 28107  1  0  0  0
 29108  1  0  0  0
 29109  1  0  0  0
 33 34  1  0  0  0
 33 66  1  0  0  0
 33 70  2  0  0  0
 34 36  1  0  0  0
 34 59  1  0  0  0
 34110  1  0  0  0
 35 44  2  0  0  0
 35 45  1  0  0  0
 35 68  1  0  0  0
 36 56  1  0  0  0
 36111  1  0  0  0
 37 39  1  0  0  0
 37 47  1  0  0  0
 37 66  1  0  0  0
 37112  1  0  0  0
 38 43  2  0  0  0
 38 46  1  0  0  0
 38 47  1  0  0  0
 39 64  1  0  0  0
 39 67  2  0  0  0
 40 52  1  0  0  0
 40 53  2  0  0  0
 40 58  1  0  0  0
 41113  1  0  0  0
 41114  1  0  0  0
 41115  1  0  0  0
 41 48  1  0  0  0
 42 43  1  0  0  0
 42 66  1  0  0  0
 42116  1  0  0  0
 42117  1  0  0  0
 43 44  1  0  0  0
 44118  1  0  0  0
 45 46  2  0  0  0
 45119  1  0  0  0
 46120  1  0  0  0
 47121  1  0  0  0
 47122  1  0  0  0
 48 56  1  0  0  0
 48 65  1  0  0  0
 48123  1  0  0  0
 49 50  1  0  0  0
 49 53  1  0  0  0
 49 64  1  0  0  0
 49124  1  0  0  0
 50 51  1  0  0  0
 50125  1  0  0  0
 50126  1  0  0  0
 51 52  1  0  0  0
 51127  1  0  0  0
 51128  1  0  0  0
 52129  1  0  0  0
 52130  1  0  0  0
 53 54  1  0  0  0
 54 55  2  0  0  0
 54131  1  0  0  0
 55 57  1  0  0  0
 55132  1  0  0  0
 56 69  2  0  0  0
 57 58  2  0  0  0
 57133  1  0  0  0
 58134  1  0  0  0
 59 60  1  0  0  0
 59 61  1  0  0  0
 59 62  1  0  0  0
 60135  1  0  0  0
 60136  1  0  0  0
 60137  1  0  0  0
 61138  1  0  0  0
 61139  1  0  0  0
 61140  1  0  0  0
 62141  1  0  0  0
 62142  1  0  0  0
 62143  1  0  0  0
 63 65  1  0  0  0
 63144  1  0  0  0
 63145  1  0  0  0
 63146  1  0  0  0
 64147  1  0  0  0
 65148  1  0  0  0
 68 85  1  0  0  0
 71 72  1  0  0  0
 71 73  2  0  0  0
 71149  1  0  0  0
 72 76  1  0  0  0
 72 87  2  0  0  0
 73 77  1  0  0  0
 73 88  1  0  0  0
 74150  1  0  0  0
 74151  1  0  0  0
 74152  1  0  0  0
 74 86  1  0  0  0
 75 86  1  0  0  0
 75153  1  0  0  0
 75154  1  0  0  0
 75155  1  0  0  0
 76 78  1  0  0  0
 76156  1  0  0  0
 76157  1  0  0  0
 77 79  1  0  0  0
 77158  1  0  0  0
 77159  1  0  0  0
 78 80  1  0  0  0
 78160  1  0  0  0
 78161  1  0  0  0
 79 81  1  0  0  0
 79162  1  0  0  0
 79163  1  0  0  0
 80 82  1  0  0  0
 80164  1  0  0  0
 80165  1  0  0  0
 81 85  1  0  0  0
 81166  1  0  0  0
 81167  1  0  0  0
 82 86  1  0  0  0
 82168  1  0  0  0
 82169  1  0  0  0
 83 84  1  0  0  0
 83 88  1  0  0  0
 83170  1  0  0  0
 83171  1  0  0  0
 84 89  1  0  0  0
 84172  1  0  0  0
 84173  1  0  0  0
 85174  1  0  0  0
 85175  1  0  0  0
 86176  1  0  0  0
 87 88  1  0  0  0
 89177  1  0  0  0
M  ISO  4   1 100  68 101  85 101  89 100
M  END
> <chiral flag>
0

> <version>
0

> <s_m_source_file>
/data/baiqing/PycharmProjects/Reinvent-master-3.2/result/LINK_invent/BTK/process_docking_weight1_custom_sum_contain_oxygen_bond_distance_aromatic_linkinvent_7_9_3/rearranged_h_0090.sdf

> <i_m_source_file_index>
21

> <r_mmod_Potential_Energy-OPLS-2005>
-2.20837450027466

> <r_mmod_Stretch_Energy-OPLS-2005>
63.2989768981934

> <r_mmod_Bend_Energy-OPLS-2005>
147.664733886719

> <r_mmod_Torsional_Energy-OPLS-2005>
243.247283935547

> <r_mmod_Improper_Torsional_Energy-OPLS-2005>
4.1025710105896

> <r_mmod_Van_der_Waal_Energy-OPLS-2005>
108.738731384277

> <r_mmod_Electrostatic_Energy-OPLS-2005>
-398.997131347656

> <r_mmod_Solvation_Energy-OPLS-2005>
-202.098892211914

> <b_mmod_Minimization_Converged-OPLS-2005>
0

> <r_mmod_RMS_Derivative-OPLS-2005>
2.17178273200989

$$$$
21
                    3D
 Structure written by MMmdl.
181189  0  0  1  0            999 V2000
  -30.7256  -14.4408   20.5639 C   0  0  0  0  0  0
  -30.4173  -12.2827   19.4284 C   0  0  0  0  0  0
  -29.4959  -12.4962   18.2101 C   0  0  0  0  0  0
  -28.0156  -12.3680   18.6204 C   0  0  0  0  0  0
  -27.6650  -13.2075   19.8788 C   0  0  2  0  0  0
  -28.7067  -12.9889   21.0015 C   0  0  0  0  0  0
  -25.2602  -13.8163   20.5680 C   0  0  0  0  0  0
  -24.1848  -13.0436   20.9169 C   0  0  0  0  0  0
  -24.6402  -11.6904   20.8732 C   0  0  0  0  0  0
  -23.9065  -10.4290   21.0402 C   0  0  0  0  0  0
  -24.3611   -9.4208   21.9183 C   0  0  0  0  0  0
  -23.6282   -8.2247   22.0760 C   0  0  0  0  0  0
  -22.4274   -8.0283   21.3545 C   0  0  0  0  0  0
  -21.9908   -9.0255   20.4645 C   0  0  0  0  0  0
  -22.7234  -10.2131   20.3048 C   0  0  0  0  0  0
  -21.6850   -6.0733   22.5275 C   0  0  0  0  0  0
  -21.4014   -6.5636   23.8209 C   0  0  0  0  0  0
  -21.3661   -5.6789   24.9172 C   0  0  0  0  0  0
  -21.6043   -4.3053   24.7224 C   0  0  0  0  0  0
  -21.8820   -3.8144   23.4344 C   0  0  0  0  0  0
  -21.9192   -4.6960   22.3399 C   0  0  0  0  0  0
  -22.7868  -13.5238   21.1817 C   0  0  0  0  0  0
  -22.1659   -4.2145   21.0974 F   0  0  0  0  0  0
  -21.5632   -3.4536   25.7738 F   0  0  0  0  0  0
  -30.0415  -13.2718   20.4490 N   0  0  0  0  0  0
  -26.3048  -12.9338   20.3389 N   0  0  0  0  0  0
  -25.9333  -11.6493   20.5776 N   0  0  0  0  0  0
  -22.0503  -12.8237   22.0374 N   0  0  0  0  0  0
  -25.4323  -15.1881   20.4102 N   0  0  0  0  0  0
  -31.8508  -14.6103   20.0878 O   0  0  0  0  0  0
  -21.6636   -6.8880   21.4237 O   0  0  0  0  0  0
  -22.3561  -14.5553   20.6675 O   0  0  0  0  0  0
  -24.6176  -31.8714   23.2135 C   0  0  0  0  0  0
  -25.9070  -32.4851   23.8430 C   0  0  1  0  0  0
  -27.2166  -27.4238   20.0956 C   0  0  0  0  0  0
  -25.5923  -33.8643   24.2354 N   0  0  0  0  0  0
  -23.4040  -30.4984   21.5560 C   0  0  2  0  0  0
  -24.8481  -28.9824   20.1018 C   0  0  0  0  0  0
  -22.7432  -29.4670   22.4999 C   0  0  0  0  0  0
  -18.0266  -28.1373   22.8492 C   0  0  0  0  0  0
  -24.1493  -36.7308   23.2640 C   0  0  0  0  0  0
  -25.9378  -30.8325   21.3737 C   0  0  0  0  0  0
  -26.0120  -29.4715   20.7107 C   0  0  0  0  0  0
  -27.2006  -28.6995   20.7084 C   0  0  0  0  0  0
  -26.0433  -26.9871   19.4301 C   0  0  0  0  0  0
  -24.8602  -27.7405   19.4532 C   0  0  0  0  0  0
  -23.6092  -29.8460   20.1654 C   0  0  0  0  0  0
  -25.4124  -36.3129   24.0332 C   0  0  1  0  0  0
  -20.5858  -28.3666   23.1312 C   0  0  2  0  0  0
  -20.6770  -26.9399   22.5412 C   0  0  0  0  0  0
  -19.5745  -26.6373   21.5216 C   0  0  0  0  0  0
  -18.1918  -26.7922   22.1618 C   0  0  0  0  0  0
  -19.1516  -28.8835   23.2898 C   0  0  0  0  0  0
  -18.9451  -30.1441   23.8911 C   0  0  0  0  0  0
  -17.6459  -30.6595   24.0556 C   0  0  0  0  0  0
  -25.9039  -34.9491   23.5134 C   0  0  0  0  0  0
  -16.5348  -29.9085   23.6335 C   0  0  0  0  0  0
  -16.7251  -28.6494   23.0364 C   0  0  0  0  0  0
  -26.4488  -31.6625   25.0757 C   0  0  0  0  0  0
  -25.3724  -31.3704   26.1475 C   0  0  0  0  0  0
  -27.0353  -30.3083   24.6120 C   0  0  0  0  0  0
  -27.6058  -32.4354   25.7518 C   0  0  0  0  0  0
  -27.5590  -37.1805   24.8466 C   0  0  0  0  0  0
  -21.4154  -29.3037   22.3731 N   0  0  0  0  0  0
  -26.4304  -37.3799   23.9399 N   0  0  0  0  0  0
  -24.6714  -31.0809   22.1052 N   0  0  0  0  0  0
  -23.4213  -28.8209   23.3032 O   0  0  0  0  0  0
  -28.3311  -26.6004   20.1955 O   0  0  0  0  0  0
  -26.5601  -34.8939   22.4697 O   0  0  0  0  0  0
  -23.5366  -32.1480   23.7515 O   0  0  0  0  0  0
  -28.8462  -20.4775   21.9594 C   0  0  0  0  0  0
  -28.9773  -21.8774   22.2281 C   0  0  0  0  0  0
  -29.6830  -19.7636   22.7625 C   0  0  0  0  0  0
  -29.9800  -21.9766   23.1695 C   0  0  0  0  0  0
  -30.5677  -23.1802   23.8524 C   0  0  0  0  0  0
  -31.9540  -18.6323   29.3042 C   0  0  0  0  0  0
  -27.2326  -22.3580   20.4853 C   0  0  0  0  0  0
  -27.0945  -23.3914   22.7606 C   0  0  0  0  0  0
  -29.8265  -18.2692   22.9126 C   0  0  0  0  0  0
  -31.0379  -19.2962   28.2701 C   0  0  0  0  0  0
  -30.9079  -17.6432   22.0122 C   0  0  0  0  0  0
  -31.7175  -19.4861   26.9048 C   0  0  0  0  0  0
  -30.7808  -20.1448   25.8818 C   0  0  0  0  0  0
  -28.8630  -24.2370   21.1156 C   0  0  0  0  0  0
  -31.4208  -20.3384   24.4947 C   0  0  0  0  0  0
  -30.3497  -16.8905   20.7885 C   0  0  0  0  0  0
  -28.0091  -25.1884   20.2349 C   0  0  0  0  0  0
  -28.0720  -22.9768   21.6364 C   0  0  0  0  0  0
  -30.4116  -20.6871   23.4981 N   0  0  0  0  0  0
  -30.0262  -15.4786   21.0533 N   0  0  0  0  0  0
  -31.4649  -12.3590   19.1318 H   0  0  0  0  0  0
  -30.2970  -11.2744   19.8274 H   0  0  0  0  0  0
  -29.7301  -11.7702   17.4303 H   0  0  0  0  0  0
  -29.6762  -13.4809   17.7756 H   0  0  0  0  0  0
  -27.8189  -11.3128   18.8131 H   0  0  0  0  0  0
  -27.3684  -12.6489   17.7886 H   0  0  0  0  0  0
  -27.7110  -14.2551   19.5807 H   0  0  0  0  0  0
  -28.6731  -11.9571   21.3541 H   0  0  0  0  0  0
  -28.4787  -13.6022   21.8738 H   0  0  0  0  0  0
  -25.2756   -9.5683   22.4762 H   0  0  0  0  0  0
  -23.9985   -7.4646   22.7492 H   0  0  0  0  0  0
  -21.0841   -8.8770   19.8956 H   0  0  0  0  0  0
  -22.3695  -10.9667   19.6159 H   0  0  0  0  0  0
  -21.2007   -7.6150   23.9709 H   0  0  0  0  0  0
  -21.1482   -6.0524   25.9075 H   0  0  0  0  0  0
  -22.0601   -2.7607   23.2844 H   0  0  0  0  0  0
  -22.4103  -11.9885   22.4747 H   0  0  0  0  0  0
  -21.1125  -13.1278   22.2580 H   0  0  0  0  0  0
  -24.6663  -15.8441   20.5190 H   0  0  0  0  0  0
  -26.2881  -15.6279   20.0948 H   0  0  0  0  0  0
  -26.7159  -32.5569   23.1210 H   0  0  0  0  0  0
  -25.0092  -33.9800   25.0517 H   0  0  0  0  0  0
  -22.6911  -31.3151   21.4277 H   0  0  0  0  0  0
  -23.3764  -35.9636   23.3324 H   0  0  0  0  0  0
  -24.3562  -36.8899   22.2041 H   0  0  0  0  0  0
  -23.7239  -37.6511   23.6651 H   0  0  0  0  0  0
  -26.0582  -31.6039   20.6130 H   0  0  0  0  0  0
  -26.8220  -30.8761   21.9971 H   0  0  0  0  0  0
  -28.0888  -29.0582   21.2112 H   0  0  0  0  0  0
  -26.0089  -26.0438   18.9048 H   0  0  0  0  0  0
  -23.9730  -27.3645   18.9619 H   0  0  0  0  0  0
  -23.7054  -30.6294   19.4127 H   0  0  0  0  0  0
  -22.7332  -29.2640   19.8745 H   0  0  0  0  0  0
  -25.1295  -36.1995   25.0823 H   0  0  0  0  0  0
  -20.9939  -28.3251   24.1433 H   0  0  0  0  0  0
  -20.5727  -26.2267   23.3606 H   0  0  0  0  0  0
  -21.6634  -26.7488   22.1173 H   0  0  0  0  0  0
  -19.6915  -25.6281   21.1248 H   0  0  0  0  0  0
  -19.6683  -27.3188   20.6754 H   0  0  0  0  0  0
  -17.4190  -26.6674   21.4009 H   0  0  0  0  0  0
  -18.0291  -26.0066   22.9008 H   0  0  0  0  0  0
  -19.7937  -30.7228   24.2300 H   0  0  0  0  0  0
  -17.5026  -31.6279   24.5144 H   0  0  0  0  0  0
  -15.5349  -30.2999   23.7658 H   0  0  0  0  0  0
  -15.8645  -28.0821   22.7091 H   0  0  0  0  0  0
  -24.5908  -30.7061   25.7759 H   0  0  0  0  0  0
  -24.8897  -32.2843   26.4941 H   0  0  0  0  0  0
  -25.8035  -30.8834   27.0231 H   0  0  0  0  0  0
  -26.2917  -29.6806   24.1193 H   0  0  0  0  0  0
  -27.4168  -29.7336   25.4571 H   0  0  0  0  0  0
  -27.8732  -30.4422   23.9280 H   0  0  0  0  0  0
  -27.2691  -33.3667   26.2093 H   0  0  0  0  0  0
  -28.3868  -32.6890   25.0335 H   0  0  0  0  0  0
  -28.0751  -31.8489   26.5430 H   0  0  0  0  0  0
  -28.2602  -38.0111   24.7541 H   0  0  0  0  0  0
  -28.1093  -36.2631   24.6289 H   0  0  0  0  0  0
  -27.2283  -37.1432   25.8861 H   0  0  0  0  0  0
  -20.9331  -29.8756   21.6942 H   0  0  0  0  0  0
  -26.0211  -38.2883   24.1399 H   0  0  0  0  0  0
  -28.1528  -20.0078   21.2772 H   0  0  0  0  0  0
  -29.8545  -23.9964   23.9286 H   0  0  0  0  0  0
  -31.4392  -23.5470   23.3109 H   0  0  0  0  0  0
  -30.8787  -22.9634   24.8735 H   0  0  0  0  0  0
  -31.4478  -18.5377   30.2656 H   0  0  0  0  0  0
  -32.8598  -19.2186   29.4648 H   0  0  0  0  0  0
  -32.2514  -17.6323   28.9852 H   0  0  0  0  0  0
  -26.6300  -21.5162   20.8316 H   0  0  0  0  0  0
  -27.8717  -22.0011   19.6766 H   0  0  0  0  0  0
  -26.5136  -23.0485   20.0492 H   0  0  0  0  0  0
  -26.5528  -22.5263   23.1459 H   0  0  0  0  0  0
  -26.3429  -24.1082   22.4339 H   0  0  0  0  0  0
  -27.6152  -23.8390   23.6057 H   0  0  0  0  0  0
  -28.8660  -17.7911   22.7226 H   0  0  0  0  0  0
  -30.0434  -18.0210   23.9518 H   0  0  0  0  0  0
  -30.7093  -20.2641   28.6523 H   0  0  0  0  0  0
  -30.1364  -18.6926   28.1526 H   0  0  0  0  0  0
  -31.5319  -16.9660   22.5973 H   0  0  0  0  0  0
  -31.5840  -18.4320   21.6756 H   0  0  0  0  0  0
  -32.0447  -18.5176   26.5235 H   0  0  0  0  0  0
  -32.6173  -20.0934   27.0200 H   0  0  0  0  0  0
  -30.4418  -21.1092   26.2615 H   0  0  0  0  0  0
  -29.8835  -19.5324   25.7828 H   0  0  0  0  0  0
  -29.2574  -24.8027   21.9567 H   0  0  0  0  0  0
  -29.7285  -23.9189   20.5335 H   0  0  0  0  0  0
  -31.9250  -19.4252   24.1776 H   0  0  0  0  0  0
  -32.1977  -21.1020   24.5218 H   0  0  0  0  0  0
  -31.0760  -16.9659   19.9772 H   0  0  0  0  0  0
  -29.4590  -17.3929   20.4107 H   0  0  0  0  0  0
  -27.0050  -25.0883   20.6380 H   0  0  0  0  0  0
  -27.9733  -24.8071   19.2133 H   0  0  0  0  0  0
  -29.1105  -15.2707   21.4241 H   0  0  0  0  0  0
  1 25  1  0  0  0
  1 30  2  0  0  0
  1 90  1  0  0  0
  2  3  1  0  0  0
  2 25  1  0  0  0
  2 91  1  0  0  0
  2 92  1  0  0  0
  3  4  1  0  0  0
  3 93  1  0  0  0
  3 94  1  0  0  0
  4  5  1  0  0  0
  4 95  1  0  0  0
  4 96  1  0  0  0
  5  6  1  0  0  0
  5 26  1  0  0  0
  5 97  1  0  0  0
  6 25  1  0  0  0
  6 98  1  0  0  0
  6 99  1  0  0  0
  7  8  2  0  0  0
  7 26  1  0  0  0
  7 29  1  0  0  0
  8  9  1  0  0  0
  8 22  1  0  0  0
  9 10  1  0  0  0
  9 27  2  0  0  0
 10 11  2  0  0  0
 10 15  1  0  0  0
 11 12  1  0  0  0
 11100  1  0  0  0
 12 13  2  0  0  0
 12101  1  0  0  0
 13 14  1  0  0  0
 13 31  1  0  0  0
 14 15  2  0  0  0
 14102  1  0  0  0
 15103  1  0  0  0
 16 17  2  0  0  0
 16 21  1  0  0  0
 16 31  1  0  0  0
 17 18  1  0  0  0
 17104  1  0  0  0
 18 19  2  0  0  0
 18105  1  0  0  0
 19 20  1  0  0  0
 19 24  1  0  0  0
 20 21  2  0  0  0
 20106  1  0  0  0
 21 23  1  0  0  0
 22 28  1  0  0  0
 22 32  2  0  0  0
 26 27  1  0  0  0
 28107  1  0  0  0
 28108  1  0  0  0
 29109  1  0  0  0
 29110  1  0  0  0
 33 34  1  0  0  0
 33 66  1  0  0  0
 33 70  2  0  0  0
 34 36  1  0  0  0
 34 59  1  0  0  0
 34111  1  0  0  0
 35 44  2  0  0  0
 35 45  1  0  0  0
 35 68  1  0  0  0
 36 56  1  0  0  0
 36112  1  0  0  0
 37 39  1  0  0  0
 37 47  1  0  0  0
 37 66  1  0  0  0
 37113  1  0  0  0
 38 43  2  0  0  0
 38 46  1  0  0  0
 38 47  1  0  0  0
 39 64  1  0  0  0
 39 67  2  0  0  0
 40 52  1  0  0  0
 40 53  2  0  0  0
 40 58  1  0  0  0
 41114  1  0  0  0
 41115  1  0  0  0
 41116  1  0  0  0
 41 48  1  0  0  0
 42 43  1  0  0  0
 42 66  1  0  0  0
 42117  1  0  0  0
 42118  1  0  0  0
 43 44  1  0  0  0
 44119  1  0  0  0
 45 46  2  0  0  0
 45120  1  0  0  0
 46121  1  0  0  0
 47122  1  0  0  0
 47123  1  0  0  0
 48 56  1  0  0  0
 48 65  1  0  0  0
 48124  1  0  0  0
 49 50  1  0  0  0
 49 53  1  0  0  0
 49 64  1  0  0  0
 49125  1  0  0  0
 50 51  1  0  0  0
 50126  1  0  0  0
 50127  1  0  0  0
 51 52  1  0  0  0
 51128  1  0  0  0
 51129  1  0  0  0
 52130  1  0  0  0
 52131  1  0  0  0
 53 54  1  0  0  0
 54 55  2  0  0  0
 54132  1  0  0  0
 55 57  1  0  0  0
 55133  1  0  0  0
 56 69  2  0  0  0
 57 58  2  0  0  0
 57134  1  0  0  0
 58135  1  0  0  0
 59 60  1  0  0  0
 59 61  1  0  0  0
 59 62  1  0  0  0
 60136  1  0  0  0
 60137  1  0  0  0
 60138  1  0  0  0
 61139  1  0  0  0
 61140  1  0  0  0
 61141  1  0  0  0
 62142  1  0  0  0
 62143  1  0  0  0
 62144  1  0  0  0
 63 65  1  0  0  0
 63145  1  0  0  0
 63146  1  0  0  0
 63147  1  0  0  0
 64148  1  0  0  0
 65149  1  0  0  0
 68 87  1  0  0  0
 71 72  1  0  0  0
 71 73  2  0  0  0
 71150  1  0  0  0
 72 74  2  0  0  0
 72 88  1  0  0  0
 73 79  1  0  0  0
 73 89  1  0  0  0
 74 75  1  0  0  0
 74 89  1  0  0  0
 75151  1  0  0  0
 75152  1  0  0  0
 75153  1  0  0  0
 76 80  1  0  0  0
 76154  1  0  0  0
 76155  1  0  0  0
 76156  1  0  0  0
 77157  1  0  0  0
 77158  1  0  0  0
 77159  1  0  0  0
 77 88  1  0  0  0
 78 88  1  0  0  0
 78160  1  0  0  0
 78161  1  0  0  0
 78162  1  0  0  0
 79 81  1  0  0  0
 79163  1  0  0  0
 79164  1  0  0  0
 80 82  1  0  0  0
 80165  1  0  0  0
 80166  1  0  0  0
 81 86  1  0  0  0
 81167  1  0  0  0
 81168  1  0  0  0
 82 83  1  0  0  0
 82169  1  0  0  0
 82170  1  0  0  0
 83 85  1  0  0  0
 83171  1  0  0  0
 83172  1  0  0  0
 84 87  1  0  0  0
 84 88  1  0  0  0
 84173  1  0  0  0
 84174  1  0  0  0
 85 89  1  0  0  0
 85175  1  0  0  0
 85176  1  0  0  0
 86 90  1  0  0  0
 86177  1  0  0  0
 86178  1  0  0  0
 87179  1  0  0  0
 87180  1  0  0  0
 90181  1  0  0  0
M  ISO  4   1 100  68 101  87 101  90 100
M  END
> <chiral flag>
0

> <version>
0

> <s_m_source_file>
/data/baiqing/PycharmProjects/Reinvent-master-3.2/result/LINK_invent/BTK/process_docking_weight1_custom_sum_contain_oxygen_bond_distance_aromatic_linkinvent_7_9_3/rearranged_h_0090.sdf

> <i_m_source_file_index>
22

> <r_mmod_Potential_Energy-OPLS-2005>
-27.214714050293

> <r_mmod_Stretch_Energy-OPLS-2005>
42.4185943603516

> <r_mmod_Bend_Energy-OPLS-2005>
108.976356506348

> <r_mmod_Torsional_Energy-OPLS-2005>
257.736206054688

> <r_mmod_Improper_Torsional_Energy-OPLS-2005>
5.5574107170105

> <r_mmod_Van_der_Waal_Energy-OPLS-2005>
153.539413452148

> <r_mmod_Electrostatic_Energy-OPLS-2005>
-416.706176757812

> <r_mmod_Solvation_Energy-OPLS-2005>
-197.326217651367

> <b_mmod_Minimization_Converged-OPLS-2005>
0

> <r_mmod_RMS_Derivative-OPLS-2005>
2.08157467842102

$$$$
22
                    3D
 Structure written by MMmdl.
163171  0  0  1  0            999 V2000
  -30.6932  -14.4241   20.6442 C   0  0  0  0  0  0
  -30.4304  -12.3011   19.4094 C   0  0  0  0  0  0
  -29.4929  -12.5205   18.2030 C   0  0  0  0  0  0
  -28.0145  -12.3695   18.6151 C   0  0  0  0  0  0
  -27.6650  -13.1934   19.8824 C   0  0  2  0  0  0
  -28.7002  -12.9269   20.9983 C   0  0  0  0  0  0
  -25.2616  -13.8128   20.5694 C   0  0  0  0  0  0
  -24.1836  -13.0426   20.9182 C   0  0  0  0  0  0
  -24.6361  -11.6887   20.8707 C   0  0  0  0  0  0
  -23.9002  -10.4292   21.0393 C   0  0  0  0  0  0
  -24.3570   -9.4234   21.9182 C   0  0  0  0  0  0
  -23.6288   -8.2244   22.0742 C   0  0  0  0  0  0
  -22.4273   -8.0260   21.3530 C   0  0  0  0  0  0
  -21.9880   -9.0221   20.4630 C   0  0  0  0  0  0
  -22.7173  -10.2121   20.3053 C   0  0  0  0  0  0
  -21.6843   -6.0723   22.5288 C   0  0  0  0  0  0
  -21.4003   -6.5632   23.8222 C   0  0  0  0  0  0
  -21.3665   -5.6792   24.9188 C   0  0  0  0  0  0
  -21.6048   -4.3054   24.7243 C   0  0  0  0  0  0
  -21.8819   -3.8139   23.4367 C   0  0  0  0  0  0
  -21.9203   -4.6950   22.3418 C   0  0  0  0  0  0
  -22.7874  -13.5250   21.1871 C   0  0  0  0  0  0
  -22.1673   -4.2134   21.0995 F   0  0  0  0  0  0
  -21.5634   -3.4543   25.7761 F   0  0  0  0  0  0
  -30.0406  -13.2455   20.4682 N   0  0  0  0  0  0
  -26.3027  -12.9262   20.3378 N   0  0  0  0  0  0
  -25.9274  -11.6433   20.5722 N   0  0  0  0  0  0
  -22.0507  -12.8225   22.0410 N   0  0  0  0  0  0
  -25.4409  -15.1835   20.4088 N   0  0  0  0  0  0
  -31.7625  -14.7001   20.0913 O   0  0  0  0  0  0
  -21.6643   -6.8856   21.4243 O   0  0  0  0  0  0
  -22.3577  -14.5579   20.6759 O   0  0  0  0  0  0
  -24.6095  -31.8694   23.2134 C   0  0  0  0  0  0
  -25.9005  -32.4838   23.8419 C   0  0  1  0  0  0
  -27.2424  -27.4666   20.1024 C   0  0  0  0  0  0
  -25.5864  -33.8635   24.2339 N   0  0  0  0  0  0
  -23.3987  -30.4887   21.5551 C   0  0  2  0  0  0
  -24.8483  -28.9627   20.1148 C   0  0  0  0  0  0
  -22.7409  -29.4624   22.5036 C   0  0  0  0  0  0
  -18.0258  -28.1350   22.8473 C   0  0  0  0  0  0
  -24.1495  -36.7334   23.2629 C   0  0  0  0  0  0
  -25.9216  -30.8469   21.3606 C   0  0  0  0  0  0
  -26.0036  -29.4843   20.7081 C   0  0  0  0  0  0
  -27.2042  -28.7448   20.6945 C   0  0  0  0  0  0
  -26.0695  -26.9489   19.5039 C   0  0  0  0  0  0
  -24.8748  -27.6954   19.5056 C   0  0  0  0  0  0
  -23.6062  -29.8219   20.1682 C   0  0  0  0  0  0
  -25.4113  -36.3129   24.0326 C   0  0  1  0  0  0
  -20.5844  -28.3627   23.1334 C   0  0  2  0  0  0
  -20.6771  -26.9369   22.5424 C   0  0  0  0  0  0
  -19.5761  -26.6368   21.5210 C   0  0  0  0  0  0
  -18.1928  -26.7903   22.1594 C   0  0  0  0  0  0
  -19.1505  -28.8802   23.2901 C   0  0  0  0  0  0
  -18.9436  -30.1412   23.8906 C   0  0  0  0  0  0
  -17.6446  -30.6568   24.0535 C   0  0  0  0  0  0
  -25.9028  -34.9485   23.5137 C   0  0  0  0  0  0
  -16.5327  -29.9062   23.6315 C   0  0  0  0  0  0
  -16.7250  -28.6476   23.0329 C   0  0  0  0  0  0
  -26.4457  -31.6609   25.0719 C   0  0  0  0  0  0
  -25.3723  -31.3667   26.1457 C   0  0  0  0  0  0
  -27.0291  -30.3074   24.6047 C   0  0  0  0  0  0
  -27.6058  -32.4306   25.7457 C   0  0  0  0  0  0
  -27.5588  -37.1817   24.8445 C   0  0  0  0  0  0
  -21.4136  -29.2997   22.3771 N   0  0  0  0  0  0
  -26.4310  -37.3794   23.9379 N   0  0  0  0  0  0
  -24.6615  -31.0806   22.1032 N   0  0  0  0  0  0
  -23.4193  -28.8160   23.3056 O   0  0  0  0  0  0
  -28.4331  -26.7774   20.1248 O   0  0  0  0  0  0
  -26.5607  -34.8918   22.4707 O   0  0  0  0  0  0
  -23.5296  -32.1417   23.7556 O   0  0  0  0  0  0
  -30.5248  -20.0896   20.0752 C   0  0  0  0  0  0
  -29.8712  -18.8800   20.0774 C   0  0  0  0  0  0
  -28.3477  -20.5063   19.9201 C   0  0  0  0  0  0
  -27.0236  -21.1902   19.7969 C   0  0  0  0  0  0
  -31.2042  -17.1819   22.5242 C   0  0  0  0  0  0
  -30.3692  -17.4649   20.1054 C   0  0  0  0  0  0
  -29.6564  -23.3061   21.0897 C   0  0  0  0  0  0
  -29.6487  -24.8307   20.8673 C   0  0  0  0  0  0
  -29.7947  -22.5103   19.7799 C   0  0  0  0  0  0
  -28.3571  -25.3591   20.2164 C   0  0  0  0  0  0
  -30.1519  -16.7785   21.4783 C   0  0  1  0  0  0
  -29.5681  -21.0668   19.9398 N   0  0  0  0  0  0
  -28.5349  -19.1862   19.9980 N   0  3  0  0  0  0
  -30.0135  -15.3173   21.3836 N   0  0  0  0  0  0
  -31.4701  -12.4292   19.1054 H   0  0  0  0  0  0
  -30.3517  -11.2765   19.7757 H   0  0  0  0  0  0
  -29.7314  -11.8150   17.4054 H   0  0  0  0  0  0
  -29.6592  -13.5170   17.7897 H   0  0  0  0  0  0
  -27.8272  -11.3106   18.7995 H   0  0  0  0  0  0
  -27.3614  -12.6550   17.7891 H   0  0  0  0  0  0
  -27.7244  -14.2473   19.6078 H   0  0  0  0  0  0
  -28.6700  -11.8781   21.2976 H   0  0  0  0  0  0
  -28.4406  -13.4817   21.9009 H   0  0  0  0  0  0
  -25.2700   -9.5738   22.4767 H   0  0  0  0  0  0
  -24.0018   -7.4629   22.7443 H   0  0  0  0  0  0
  -21.0820   -8.8704   19.8921 H   0  0  0  0  0  0
  -22.3604  -10.9654   19.6166 H   0  0  0  0  0  0
  -21.1974   -7.6141   23.9715 H   0  0  0  0  0  0
  -21.1489   -6.0530   25.9094 H   0  0  0  0  0  0
  -22.0592   -2.7602   23.2878 H   0  0  0  0  0  0
  -22.4098  -11.9857   22.4771 H   0  0  0  0  0  0
  -21.1123  -13.1234   22.2607 H   0  0  0  0  0  0
  -24.6762  -15.8440   20.4919 H   0  0  0  0  0  0
  -26.2984  -15.6047   20.0740 H   0  0  0  0  0  0
  -26.7069  -32.5593   23.1185 H   0  0  0  0  0  0
  -24.9993  -33.9805   25.0470 H   0  0  0  0  0  0
  -22.6848  -31.3034   21.4195 H   0  0  0  0  0  0
  -23.3755  -35.9670   23.3308 H   0  0  0  0  0  0
  -24.3583  -36.8941   22.2039 H   0  0  0  0  0  0
  -23.7257  -37.6535   23.6660 H   0  0  0  0  0  0
  -26.0225  -31.6179   20.5958 H   0  0  0  0  0  0
  -26.8121  -30.9055   21.9760 H   0  0  0  0  0  0
  -28.1010  -29.1435   21.1498 H   0  0  0  0  0  0
  -26.0686  -25.9790   19.0270 H   0  0  0  0  0  0
  -23.9857  -27.2935   19.0391 H   0  0  0  0  0  0
  -23.7054  -30.5972   19.4069 H   0  0  0  0  0  0
  -22.7339  -29.2327   19.8782 H   0  0  0  0  0  0
  -25.1301  -36.2005   25.0817 H   0  0  0  0  0  0
  -20.9903  -28.3190   24.1461 H   0  0  0  0  0  0
  -20.5709  -26.2212   23.3595 H   0  0  0  0  0  0
  -21.6650  -26.7453   22.1194 H   0  0  0  0  0  0
  -19.6938  -25.6296   21.1209 H   0  0  0  0  0  0
  -19.6719  -27.3204   20.6773 H   0  0  0  0  0  0
  -17.4209  -26.6627   21.3984 H   0  0  0  0  0  0
  -18.0308  -26.0041   22.8986 H   0  0  0  0  0  0
  -19.7918  -30.7210   24.2293 H   0  0  0  0  0  0
  -17.5001  -31.6258   24.5138 H   0  0  0  0  0  0
  -15.5328  -30.2953   23.7677 H   0  0  0  0  0  0
  -15.8640  -28.0822   22.7023 H   0  0  0  0  0  0
  -24.5908  -30.7017   25.7750 H   0  0  0  0  0  0
  -24.8890  -32.2803   26.4940 H   0  0  0  0  0  0
  -25.8056  -30.8785   27.0200 H   0  0  0  0  0  0
  -26.2813  -29.6812   24.1158 H   0  0  0  0  0  0
  -27.4160  -29.7312   25.4464 H   0  0  0  0  0  0
  -27.8610  -30.4410   23.9117 H   0  0  0  0  0  0
  -27.2726  -33.3613   26.2064 H   0  0  0  0  0  0
  -28.3853  -32.6846   25.0257 H   0  0  0  0  0  0
  -28.0757  -31.8405   26.5339 H   0  0  0  0  0  0
  -28.2602  -38.0120   24.7534 H   0  0  0  0  0  0
  -28.1111  -36.2664   24.6271 H   0  0  0  0  0  0
  -27.2308  -37.1436   25.8845 H   0  0  0  0  0  0
  -20.9316  -29.8700   21.6966 H   0  0  0  0  0  0
  -26.0222  -38.2874   24.1403 H   0  0  0  0  0  0
  -31.5826  -20.3176   20.1200 H   0  0  0  0  0  0
  -26.9556  -21.9728   20.5528 H   0  0  0  0  0  0
  -26.2293  -20.4613   19.9541 H   0  0  0  0  0  0
  -26.9431  -21.6172   18.7978 H   0  0  0  0  0  0
  -31.2789  -18.2683   22.5991 H   0  0  0  0  0  0
  -32.1929  -16.7957   22.2751 H   0  0  0  0  0  0
  -30.9346  -16.8116   23.5144 H   0  0  0  0  0  0
  -31.4233  -17.4515   19.8250 H   0  0  0  0  0  0
  -29.8417  -16.9211   19.3203 H   0  0  0  0  0  0
  -28.7507  -23.0151   21.6229 H   0  0  0  0  0  0
  -30.4838  -23.0430   21.7498 H   0  0  0  0  0  0
  -30.5157  -25.1229   20.2740 H   0  0  0  0  0  0
  -29.7703  -25.3232   21.8329 H   0  0  0  0  0  0
  -30.7887  -22.6506   19.3556 H   0  0  0  0  0  0
  -29.0921  -22.8687   19.0277 H   0  0  0  0  0  0
  -27.5049  -25.0501   20.8241 H   0  0  0  0  0  0
  -28.2253  -24.9492   19.2160 H   0  0  0  0  0  0
  -29.1818  -17.1098   21.8527 H   0  0  0  0  0  0
  -27.7797  -18.5102   19.9751 H   0  0  0  0  0  0
  -29.1860  -14.9385   21.8218 H   0  0  0  0  0  0
  1 25  1  0  0  0
  1 30  2  0  0  0
  1 84  1  0  0  0
  2  3  1  0  0  0
  2 25  1  0  0  0
  2 85  1  0  0  0
  2 86  1  0  0  0
  3  4  1  0  0  0
  3 87  1  0  0  0
  3 88  1  0  0  0
  4  5  1  0  0  0
  4 89  1  0  0  0
  4 90  1  0  0  0
  5  6  1  0  0  0
  5 26  1  0  0  0
  5 91  1  0  0  0
  6 25  1  0  0  0
  6 92  1  0  0  0
  6 93  1  0  0  0
  7  8  2  0  0  0
  7 26  1  0  0  0
  7 29  1  0  0  0
  8  9  1  0  0  0
  8 22  1  0  0  0
  9 10  1  0  0  0
  9 27  2  0  0  0
 10 11  2  0  0  0
 10 15  1  0  0  0
 11 12  1  0  0  0
 11 94  1  0  0  0
 12 13  2  0  0  0
 12 95  1  0  0  0
 13 14  1  0  0  0
 13 31  1  0  0  0
 14 15  2  0  0  0
 14 96  1  0  0  0
 15 97  1  0  0  0
 16 17  2  0  0  0
 16 21  1  0  0  0
 16 31  1  0  0  0
 17 18  1  0  0  0
 17 98  1  0  0  0
 18 19  2  0  0  0
 18 99  1  0  0  0
 19 20  1  0  0  0
 19 24  1  0  0  0
 20 21  2  0  0  0
 20100  1  0  0  0
 21 23  1  0  0  0
 22 28  1  0  0  0
 22 32  2  0  0  0
 26 27  1  0  0  0
 28101  1  0  0  0
 28102  1  0  0  0
 29103  1  0  0  0
 29104  1  0  0  0
 33 34  1  0  0  0
 33 66  1  0  0  0
 33 70  2  0  0  0
 34 36  1  0  0  0
 34 59  1  0  0  0
 34105  1  0  0  0
 35 44  2  0  0  0
 35 45  1  0  0  0
 35 68  1  0  0  0
 36 56  1  0  0  0
 36106  1  0  0  0
 37 39  1  0  0  0
 37 47  1  0  0  0
 37 66  1  0  0  0
 37107  1  0  0  0
 38 43  2  0  0  0
 38 46  1  0  0  0
 38 47  1  0  0  0
 39 64  1  0  0  0
 39 67  2  0  0  0
 40 52  1  0  0  0
 40 53  2  0  0  0
 40 58  1  0  0  0
 41108  1  0  0  0
 41109  1  0  0  0
 41110  1  0  0  0
 41 48  1  0  0  0
 42 43  1  0  0  0
 42 66  1  0  0  0
 42111  1  0  0  0
 42112  1  0  0  0
 43 44  1  0  0  0
 44113  1  0  0  0
 45 46  2  0  0  0
 45114  1  0  0  0
 46115  1  0  0  0
 47116  1  0  0  0
 47117  1  0  0  0
 48 56  1  0  0  0
 48 65  1  0  0  0
 48118  1  0  0  0
 49 50  1  0  0  0
 49 53  1  0  0  0
 49 64  1  0  0  0
 49119  1  0  0  0
 50 51  1  0  0  0
 50120  1  0  0  0
 50121  1  0  0  0
 51 52  1  0  0  0
 51122  1  0  0  0
 51123  1  0  0  0
 52124  1  0  0  0
 52125  1  0  0  0
 53 54  1  0  0  0
 54 55  2  0  0  0
 54126  1  0  0  0
 55 57  1  0  0  0
 55127  1  0  0  0
 56 69  2  0  0  0
 57 58  2  0  0  0
 57128  1  0  0  0
 58129  1  0  0  0
 59 60  1  0  0  0
 59 61  1  0  0  0
 59 62  1  0  0  0
 60130  1  0  0  0
 60131  1  0  0  0
 60132  1  0  0  0
 61133  1  0  0  0
 61134  1  0  0  0
 61135  1  0  0  0
 62136  1  0  0  0
 62137  1  0  0  0
 62138  1  0  0  0
 63 65  1  0  0  0
 63139  1  0  0  0
 63140  1  0  0  0
 63141  1  0  0  0
 64142  1  0  0  0
 65143  1  0  0  0
 68 80  1  0  0  0
 71 72  2  0  0  0
 71 82  1  0  0  0
 71144  1  0  0  0
 72 76  1  0  0  0
 72 83  1  0  0  0
 73 74  1  0  0  0
 73 82  1  0  0  0
 73 83  2  0  0  0
 74145  1  0  0  0
 74146  1  0  0  0
 74147  1  0  0  0
 75148  1  0  0  0
 75149  1  0  0  0
 75150  1  0  0  0
 75 81  1  0  0  0
 76 81  1  0  0  0
 76151  1  0  0  0
 76152  1  0  0  0
 77 78  1  0  0  0
 77 79  1  0  0  0
 77153  1  0  0  0
 77154  1  0  0  0
 78 80  1  0  0  0
 78155  1  0  0  0
 78156  1  0  0  0
 79 82  1  0  0  0
 79157  1  0  0  0
 79158  1  0  0  0
 80159  1  0  0  0
 80160  1  0  0  0
 81 84  1  0  0  0
 81161  1  0  0  0
 83162  1  0  0  0
 84163  1  0  0  0
M  CHG  1  83   1
M  ISO  4   1 100  68 101  80 101  84 100
M  END
> <chiral flag>
0

> <version>
0

> <s_m_source_file>
/data/baiqing/PycharmProjects/Reinvent-master-3.2/result/LINK_invent/BTK/process_docking_weight1_custom_sum_contain_oxygen_bond_distance_aromatic_linkinvent_7_9_3/rearranged_h_0090.sdf

> <i_m_source_file_index>
23

> <r_mmod_Potential_Energy-OPLS-2005>
-117.173652648926

> <r_mmod_Stretch_Energy-OPLS-2005>
31.4461917877197

> <r_mmod_Bend_Energy-OPLS-2005>
95.1417388916016

> <r_mmod_Torsional_Energy-OPLS-2005>
219.162582397461

> <r_mmod_Improper_Torsional_Energy-OPLS-2005>
3.36322712898254

> <r_mmod_Van_der_Waal_Energy-OPLS-2005>
127.049873352051

> <r_mmod_Electrostatic_Energy-OPLS-2005>
-181.195190429688

> <r_mmod_Solvation_Energy-OPLS-2005>
-421.427062988281

> <b_mmod_Minimization_Converged-OPLS-2005>
0

> <r_mmod_RMS_Derivative-OPLS-2005>
2.75092673301697

$$$$
23
                    3D
 Structure written by MMmdl.
148156  0  0  1  0            999 V2000
  -30.5807  -14.8709   20.4382 C   0  0  0  0  0  0
  -30.4388  -12.5342   19.4973 C   0  0  0  0  0  0
  -29.5175  -12.5160   18.2553 C   0  0  0  0  0  0
  -28.0490  -12.3181   18.6736 C   0  0  0  0  0  0
  -27.6386  -13.2419   19.8504 C   0  0  2  0  0  0
  -28.6831  -13.2352   20.9890 C   0  0  0  0  0  0
  -25.2492  -13.8214   20.5716 C   0  0  0  0  0  0
  -24.1792  -13.0446   20.9225 C   0  0  0  0  0  0
  -24.6401  -11.6932   20.8766 C   0  0  0  0  0  0
  -23.9087  -10.4295   21.0418 C   0  0  0  0  0  0
  -24.3636   -9.4209   21.9194 C   0  0  0  0  0  0
  -23.6303   -8.2248   22.0762 C   0  0  0  0  0  0
  -22.4283   -8.0286   21.3551 C   0  0  0  0  0  0
  -21.9925   -9.0270   20.4660 C   0  0  0  0  0  0
  -22.7262  -10.2143   20.3069 C   0  0  0  0  0  0
  -21.6853   -6.0741   22.5279 C   0  0  0  0  0  0
  -21.4011   -6.5646   23.8215 C   0  0  0  0  0  0
  -21.3653   -5.6795   24.9177 C   0  0  0  0  0  0
  -21.6040   -4.3060   24.7225 C   0  0  0  0  0  0
  -21.8822   -3.8154   23.4349 C   0  0  0  0  0  0
  -21.9194   -4.6967   22.3405 C   0  0  0  0  0  0
  -22.7809  -13.5218   21.1879 C   0  0  0  0  0  0
  -22.1659   -4.2152   21.0980 F   0  0  0  0  0  0
  -21.5630   -3.4544   25.7743 F   0  0  0  0  0  0
  -29.9709  -13.6229   20.3993 N   0  0  0  0  0  0
  -26.2928  -12.9443   20.3311 N   0  0  0  0  0  0
  -25.9339  -11.6575   20.5788 N   0  0  0  0  0  0
  -22.0467  -12.8200   22.0440 N   0  0  0  0  0  0
  -25.4172  -15.1937   20.4104 N   0  0  0  0  0  0
  -31.7682  -14.9478   20.1119 O   0  0  0  0  0  0
  -21.6643   -6.8888   21.4244 O   0  0  0  0  0  0
  -22.3490  -14.5525   20.6731 O   0  0  0  0  0  0
  -24.6426  -31.8477   23.1943 C   0  0  0  0  0  0
  -25.9215  -32.4707   23.8318 C   0  0  1  0  0  0
  -27.2086  -27.1598   20.1443 C   0  0  0  0  0  0
  -25.5975  -33.8514   24.2217 N   0  0  0  0  0  0
  -23.4430  -30.4725   21.5396 C   0  0  2  0  0  0
  -24.8914  -28.9103   20.1110 C   0  0  0  0  0  0
  -22.7562  -29.4575   22.4876 C   0  0  0  0  0  0
  -18.0302  -28.1395   22.8477 C   0  0  0  0  0  0
  -24.1481  -36.7241   23.2644 C   0  0  0  0  0  0
  -26.0012  -30.7257   21.3961 C   0  0  0  0  0  0
  -26.0699  -29.3426   20.7339 C   0  0  0  0  0  0
  -27.2310  -28.4823   20.7385 C   0  0  0  0  0  0
  -26.0117  -26.8441   19.4588 C   0  0  0  0  0  0
  -24.8745  -27.6722   19.4592 C   0  0  0  0  0  0
  -23.6691  -29.8109   20.1564 C   0  0  0  0  0  0
  -25.4112  -36.3024   24.0320 C   0  0  1  0  0  0
  -20.5914  -28.3720   23.1234 C   0  0  2  0  0  0
  -20.6788  -26.9428   22.5398 C   0  0  0  0  0  0
  -19.5760  -26.6386   21.5220 C   0  0  0  0  0  0
  -18.1940  -26.7934   22.1627 C   0  0  0  0  0  0
  -19.1559  -28.8878   23.2845 C   0  0  0  0  0  0
  -18.9489  -30.1481   23.8859 C   0  0  0  0  0  0
  -17.6484  -30.6593   24.0572 C   0  0  0  0  0  0
  -25.9081  -34.9408   23.5073 C   0  0  0  0  0  0
  -16.5375  -29.9085   23.6347 C   0  0  0  0  0  0
  -16.7290  -28.6509   23.0359 C   0  0  0  0  0  0
  -26.4545  -31.6575   25.0758 C   0  0  0  0  0  0
  -25.3731  -31.3750   26.1461 C   0  0  0  0  0  0
  -27.0432  -30.2973   24.6353 C   0  0  0  0  0  0
  -27.6064  -32.4368   25.7523 C   0  0  0  0  0  0
  -27.5562  -37.1774   24.8471 C   0  0  0  0  0  0
  -21.4259  -29.3047   22.3613 N   0  0  0  0  0  0
  -26.4267  -37.3751   23.9423 N   0  0  0  0  0  0
  -24.7146  -31.0365   22.0967 N   0  0  0  0  0  0
  -23.4225  -28.8109   23.3004 O   0  0  0  0  0  0
  -28.2398  -26.1543   20.2013 O   0  0  0  0  0  0
  -26.5661  -34.8905   22.4646 O   0  0  0  0  0  0
  -23.5552  -32.1347   23.7183 O   0  0  0  0  0  0
  -29.5466  -21.3870   21.5481 C   0  0  0  0  0  0
  -28.3390  -22.2915   19.3478 C   0  0  0  0  0  0
  -29.2061  -20.3984   20.5572 C   0  0  0  0  0  0
  -28.6151  -23.2724   20.3667 C   0  0  0  0  0  0
  -29.1400  -18.7833   20.8583 C   0  0  0  0  0  0
  -27.7972  -24.6935   20.4677 C   0  0  0  0  0  0
  -30.1333  -17.5551   20.3387 C   0  0  0  0  0  0
  -28.6148  -20.9264   19.4333 N   0  0  0  0  0  0
  -29.2603  -22.7503   21.4665 N   0  0  0  0  0  0
  -29.8193  -16.0422   20.6292 N   0  0  0  0  0  0
  -31.4761  -12.6732   19.1868 H   0  0  0  0  0  0
  -30.4128  -11.5717   20.0113 H   0  0  0  0  0  0
  -29.8200  -11.7216   17.5719 H   0  0  0  0  0  0
  -29.6206  -13.4522   17.7047 H   0  0  0  0  0  0
  -27.9322  -11.2744   18.9685 H   0  0  0  0  0  0
  -27.3856  -12.4696   17.8211 H   0  0  0  0  0  0
  -27.6155  -14.2518   19.4396 H   0  0  0  0  0  0
  -28.7497  -12.2515   21.4554 H   0  0  0  0  0  0
  -28.3968  -13.9304   21.7796 H   0  0  0  0  0  0
  -25.2784   -9.5674   22.4772 H   0  0  0  0  0  0
  -24.0011   -7.4633   22.7475 H   0  0  0  0  0  0
  -21.0861   -8.8802   19.8962 H   0  0  0  0  0  0
  -22.3734  -10.9691   19.6180 H   0  0  0  0  0  0
  -21.1999   -7.6154   23.9717 H   0  0  0  0  0  0
  -21.1465   -6.0528   25.9077 H   0  0  0  0  0  0
  -22.0604   -2.7615   23.2852 H   0  0  0  0  0  0
  -22.4091  -11.9852   22.4807 H   0  0  0  0  0  0
  -21.1087  -13.1224   22.2668 H   0  0  0  0  0  0
  -24.6503  -15.8482   20.5188 H   0  0  0  0  0  0
  -26.2622  -15.6319   20.0678 H   0  0  0  0  0  0
  -26.7264  -32.5321   23.1035 H   0  0  0  0  0  0
  -25.0131  -33.9634   25.0372 H   0  0  0  0  0  0
  -22.7444  -31.2985   21.3895 H   0  0  0  0  0  0
  -23.3757  -35.9569   23.3305 H   0  0  0  0  0  0
  -24.3550  -36.8877   22.2057 H   0  0  0  0  0  0
  -23.7236  -37.6433   23.6687 H   0  0  0  0  0  0
  -26.1664  -31.4836   20.6291 H   0  0  0  0  0  0
  -26.8682  -30.7654   22.0431 H   0  0  0  0  0  0
  -28.1242  -28.8069   21.2544 H   0  0  0  0  0  0
  -25.9120  -25.9253   18.9041 H   0  0  0  0  0  0
  -23.9821  -27.3435   18.9444 H   0  0  0  0  0  0
  -23.8056  -30.5908   19.4065 H   0  0  0  0  0  0
  -22.7835  -29.2569   19.8414 H   0  0  0  0  0  0
  -25.1294  -36.1844   25.0812 H   0  0  0  0  0  0
  -21.0000  -28.3311   24.1361 H   0  0  0  0  0  0
  -20.5699  -26.2340   23.3621 H   0  0  0  0  0  0
  -21.6648  -26.7449   22.1178 H   0  0  0  0  0  0
  -19.6932  -25.6295   21.1256 H   0  0  0  0  0  0
  -19.6695  -27.3191   20.6748 H   0  0  0  0  0  0
  -17.4210  -26.6701   21.4022 H   0  0  0  0  0  0
  -18.0328  -26.0083   22.9021 H   0  0  0  0  0  0
  -19.7974  -30.7315   24.2193 H   0  0  0  0  0  0
  -17.5044  -31.6268   24.5187 H   0  0  0  0  0  0
  -15.5371  -30.2980   23.7692 H   0  0  0  0  0  0
  -15.8695  -28.0824   22.7072 H   0  0  0  0  0  0
  -24.5900  -30.7101   25.7794 H   0  0  0  0  0  0
  -24.8932  -32.2922   26.4881 H   0  0  0  0  0  0
  -25.8020  -30.8929   27.0254 H   0  0  0  0  0  0
  -26.3054  -29.6667   24.1372 H   0  0  0  0  0  0
  -27.4048  -29.7302   25.4945 H   0  0  0  0  0  0
  -27.8965  -30.4210   23.9676 H   0  0  0  0  0  0
  -27.2635  -33.3694   26.2016 H   0  0  0  0  0  0
  -28.3894  -32.6904   25.0362 H   0  0  0  0  0  0
  -28.0713  -31.8570   26.5504 H   0  0  0  0  0  0
  -28.2580  -38.0072   24.7521 H   0  0  0  0  0  0
  -28.1053  -36.2601   24.6284 H   0  0  0  0  0  0
  -27.2278  -37.1404   25.8875 H   0  0  0  0  0  0
  -20.9473  -29.8776   21.6801 H   0  0  0  0  0  0
  -26.0128  -38.2812   24.1462 H   0  0  0  0  0  0
  -29.9740  -21.0648   22.4866 H   0  0  0  0  0  0
  -27.7639  -22.5840   18.4809 H   0  0  0  0  0  0
  -28.1295  -18.4964   20.5669 H   0  0  0  0  0  0
  -29.1274  -18.7122   21.9463 H   0  0  0  0  0  0
  -27.4045  -24.7113   21.4848 H   0  0  0  0  0  0
  -26.9244  -24.4669   19.8651 H   0  0  0  0  0  0
  -31.1387  -17.7540   20.7143 H   0  0  0  0  0  0
  -30.2127  -17.6418   19.2541 H   0  0  0  0  0  0
  -28.8663  -15.8586   20.9065 H   0  0  0  0  0  0
  1 25  1  0  0  0
  1 30  2  0  0  0
  1 80  1  0  0  0
  2  3  1  0  0  0
  2 25  1  0  0  0
  2 81  1  0  0  0
  2 82  1  0  0  0
  3  4  1  0  0  0
  3 83  1  0  0  0
  3 84  1  0  0  0
  4  5  1  0  0  0
  4 85  1  0  0  0
  4 86  1  0  0  0
  5  6  1  0  0  0
  5 26  1  0  0  0
  5 87  1  0  0  0
  6 25  1  0  0  0
  6 88  1  0  0  0
  6 89  1  0  0  0
  7  8  2  0  0  0
  7 26  1  0  0  0
  7 29  1  0  0  0
  8  9  1  0  0  0
  8 22  1  0  0  0
  9 10  1  0  0  0
  9 27  2  0  0  0
 10 11  2  0  0  0
 10 15  1  0  0  0
 11 12  1  0  0  0
 11 90  1  0  0  0
 12 13  2  0  0  0
 12 91  1  0  0  0
 13 14  1  0  0  0
 13 31  1  0  0  0
 14 15  2  0  0  0
 14 92  1  0  0  0
 15 93  1  0  0  0
 16 17  2  0  0  0
 16 21  1  0  0  0
 16 31  1  0  0  0
 17 18  1  0  0  0
 17 94  1  0  0  0
 18 19  2  0  0  0
 18 95  1  0  0  0
 19 20  1  0  0  0
 19 24  1  0  0  0
 20 21  2  0  0  0
 20 96  1  0  0  0
 21 23  1  0  0  0
 22 28  1  0  0  0
 22 32  2  0  0  0
 26 27  1  0  0  0
 28 97  1  0  0  0
 28 98  1  0  0  0
 29 99  1  0  0  0
 29100  1  0  0  0
 33 34  1  0  0  0
 33 66  1  0  0  0
 33 70  2  0  0  0
 34 36  1  0  0  0
 34 59  1  0  0  0
 34101  1  0  0  0
 35 44  2  0  0  0
 35 45  1  0  0  0
 35 68  1  0  0  0
 36 56  1  0  0  0
 36102  1  0  0  0
 37 39  1  0  0  0
 37 47  1  0  0  0
 37 66  1  0  0  0
 37103  1  0  0  0
 38 43  2  0  0  0
 38 46  1  0  0  0
 38 47  1  0  0  0
 39 64  1  0  0  0
 39 67  2  0  0  0
 40 52  1  0  0  0
 40 53  2  0  0  0
 40 58  1  0  0  0
 41104  1  0  0  0
 41105  1  0  0  0
 41106  1  0  0  0
 41 48  1  0  0  0
 42 43  1  0  0  0
 42 66  1  0  0  0
 42107  1  0  0  0
 42108  1  0  0  0
 43 44  1  0  0  0
 44109  1  0  0  0
 45 46  2  0  0  0
 45110  1  0  0  0
 46111  1  0  0  0
 47112  1  0  0  0
 47113  1  0  0  0
 48 56  1  0  0  0
 48 65  1  0  0  0
 48114  1  0  0  0
 49 50  1  0  0  0
 49 53  1  0  0  0
 49 64  1  0  0  0
 49115  1  0  0  0
 50 51  1  0  0  0
 50116  1  0  0  0
 50117  1  0  0  0
 51 52  1  0  0  0
 51118  1  0  0  0
 51119  1  0  0  0
 52120  1  0  0  0
 52121  1  0  0  0
 53 54  1  0  0  0
 54 55  2  0  0  0
 54122  1  0  0  0
 55 57  1  0  0  0
 55123  1  0  0  0
 56 69  2  0  0  0
 57 58  2  0  0  0
 57124  1  0  0  0
 58125  1  0  0  0
 59 60  1  0  0  0
 59 61  1  0  0  0
 59 62  1  0  0  0
 60126  1  0  0  0
 60127  1  0  0  0
 60128  1  0  0  0
 61129  1  0  0  0
 61130  1  0  0  0
 61131  1  0  0  0
 62132  1  0  0  0
 62133  1  0  0  0
 62134  1  0  0  0
 63 65  1  0  0  0
 63135  1  0  0  0
 63136  1  0  0  0
 63137  1  0  0  0
 64138  1  0  0  0
 65139  1  0  0  0
 68 76  1  0  0  0
 71 73  2  0  0  0
 71 79  1  0  0  0
 71140  1  0  0  0
 72 74  1  0  0  0
 72 78  2  0  0  0
 72141  1  0  0  0
 73 75  1  0  0  0
 73 78  1  0  0  0
 74 76  1  0  0  0
 74 79  2  0  0  0
 75 77  1  0  0  0
 75142  1  0  0  0
 75143  1  0  0  0
 76144  1  0  0  0
 76145  1  0  0  0
 77 80  1  0  0  0
 77146  1  0  0  0
 77147  1  0  0  0
 80148  1  0  0  0
M  ISO  4   1 100  68 101  76 101  80 100
M  END
> <chiral flag>
0

> <version>
0

> <s_m_source_file>
/data/baiqing/PycharmProjects/Reinvent-master-3.2/result/LINK_invent/BTK/process_docking_weight1_custom_sum_contain_oxygen_bond_distance_aromatic_linkinvent_7_9_3/rearranged_h_0090.sdf

> <i_m_source_file_index>
24

> <r_mmod_Potential_Energy-OPLS-2005>
482.668548583984

> <r_mmod_Stretch_Energy-OPLS-2005>
209.769317626953

> <r_mmod_Bend_Energy-OPLS-2005>
240.799438476562

> <r_mmod_Torsional_Energy-OPLS-2005>
230.033432006836

> <r_mmod_Improper_Torsional_Energy-OPLS-2005>
11.2503480911255

> <r_mmod_Van_der_Waal_Energy-OPLS-2005>
141.88883972168

> <r_mmod_Electrostatic_Energy-OPLS-2005>
-273.370727539062

> <r_mmod_Solvation_Energy-OPLS-2005>
-236.491180419922

> <b_mmod_Minimization_Converged-OPLS-2005>
0

> <r_mmod_RMS_Derivative-OPLS-2005>
1.71200489997864

$$$$
24
                    3D
 Structure written by MMmdl.
179187  0  0  1  0            999 V2000
  -30.5565  -14.7586   20.5181 C   0  0  0  0  0  0
  -30.4433  -12.4750   19.4652 C   0  0  0  0  0  0
  -29.5202  -12.5135   18.2328 C   0  0  0  0  0  0
  -28.0449  -12.2976   18.6462 C   0  0  0  0  0  0
  -27.6353  -13.2097   19.8333 C   0  0  2  0  0  0
  -28.6716  -13.1283   20.9706 C   0  0  0  0  0  0
  -25.2554  -13.8163   20.5671 C   0  0  0  0  0  0
  -24.1828  -13.0411   20.9285 C   0  0  0  0  0  0
  -24.6452  -11.6898   20.8761 C   0  0  0  0  0  0
  -23.9087  -10.4306   21.0381 C   0  0  0  0  0  0
  -24.3622   -9.4193   21.9136 C   0  0  0  0  0  0
  -23.6304   -8.2226   22.0733 C   0  0  0  0  0  0
  -22.4272   -8.0291   21.3539 C   0  0  0  0  0  0
  -21.9917   -9.0260   20.4620 C   0  0  0  0  0  0
  -22.7262  -10.2145   20.3037 C   0  0  0  0  0  0
  -21.6840   -6.0788   22.5301 C   0  0  0  0  0  0
  -21.3962   -6.5650   23.8240 C   0  0  0  0  0  0
  -21.3691   -5.6789   24.9190 C   0  0  0  0  0  0
  -21.6062   -4.3054   24.7206 C   0  0  0  0  0  0
  -21.8813   -3.8179   23.4298 C   0  0  0  0  0  0
  -21.9169   -4.7015   22.3389 C   0  0  0  0  0  0
  -22.7861  -13.5178   21.1877 C   0  0  0  0  0  0
  -22.1635   -4.2228   21.0945 F   0  0  0  0  0  0
  -21.5656   -3.4514   25.7691 F   0  0  0  0  0  0
  -29.9654  -13.5182   20.3983 N   0  0  0  0  0  0
  -26.2888  -12.9289   20.3098 N   0  0  0  0  0  0
  -25.9338  -11.6478   20.5687 N   0  0  0  0  0  0
  -22.0475  -12.8238   22.0442 N   0  0  0  0  0  0
  -25.4263  -15.1887   20.4108 N   0  0  0  0  0  0
  -31.7554  -14.8876   20.2571 O   0  0  0  0  0  0
  -21.6624   -6.8902   21.4254 O   0  0  0  0  0  0
  -22.3551  -14.5501   20.6735 O   0  0  0  0  0  0
  -24.6274  -31.8532   23.1982 C   0  0  0  0  0  0
  -25.9106  -32.4772   23.8288 C   0  0  1  0  0  0
  -27.2348  -27.2721   20.1766 C   0  0  0  0  0  0
  -25.5893  -33.8547   24.2207 N   0  0  0  0  0  0
  -23.4260  -30.4756   21.5367 C   0  0  2  0  0  0
  -24.8779  -28.9052   20.1284 C   0  0  0  0  0  0
  -22.7488  -29.4624   22.4914 C   0  0  0  0  0  0
  -18.0302  -28.1399   22.8508 C   0  0  0  0  0  0
  -24.1473  -36.7276   23.2653 C   0  0  0  0  0  0
  -25.9667  -30.7778   21.3678 C   0  0  0  0  0  0
  -26.0485  -29.3920   20.7297 C   0  0  0  0  0  0
  -27.2308  -28.5890   20.7403 C   0  0  0  0  0  0
  -26.0418  -26.8345   19.5680 C   0  0  0  0  0  0
  -24.8772  -27.6263   19.5469 C   0  0  0  0  0  0
  -23.6479  -29.7908   20.1611 C   0  0  0  0  0  0
  -25.4108  -36.3085   24.0332 C   0  0  1  0  0  0
  -20.5899  -28.3718   23.1286 C   0  0  2  0  0  0
  -20.6792  -26.9445   22.5442 C   0  0  0  0  0  0
  -19.5765  -26.6401   21.5247 C   0  0  0  0  0  0
  -18.1938  -26.7946   22.1636 C   0  0  0  0  0  0
  -19.1558  -28.8881   23.2883 C   0  0  0  0  0  0
  -18.9479  -30.1485   23.8902 C   0  0  0  0  0  0
  -17.6479  -30.6623   24.0604 C   0  0  0  0  0  0
  -25.9043  -34.9461   23.5071 C   0  0  0  0  0  0
  -16.5372  -29.9126   23.6358 C   0  0  0  0  0  0
  -16.7282  -28.6534   23.0378 C   0  0  0  0  0  0
  -26.4482  -31.6606   25.0665 C   0  0  0  0  0  0
  -25.3698  -31.3787   26.1392 C   0  0  0  0  0  0
  -27.0333  -30.3028   24.6144 C   0  0  0  0  0  0
  -27.6037  -32.4341   25.7435 C   0  0  0  0  0  0
  -27.5582  -37.1780   24.8475 C   0  0  0  0  0  0
  -21.4210  -29.3046   22.3657 N   0  0  0  0  0  0
  -26.4286  -37.3789   23.9443 N   0  0  0  0  0  0
  -24.6921  -31.0535   22.0917 N   0  0  0  0  0  0
  -23.4199  -28.8222   23.3041 O   0  0  0  0  0  0
  -28.3455  -26.4066   20.1659 O   0  0  0  0  0  0
  -26.5646  -34.8977   22.4660 O   0  0  0  0  0  0
  -23.5438  -32.1312   23.7319 O   0  0  0  0  0  0
  -30.8253  -20.7901   19.7298 C   0  0  0  0  0  0
  -32.0587  -20.3309   19.2609 C   0  0  0  0  0  0
  -29.9450  -19.9529   20.4528 C   0  0  0  0  0  0
  -32.3908  -18.9995   19.4857 C   0  0  0  0  0  0
  -30.3476  -18.5190   20.5625 C   0  0  0  0  0  0
  -35.2989  -20.3921   22.4324 C   0  0  0  0  0  0
  -28.2042  -17.3112   24.9284 C   0  0  0  0  0  0
  -29.6500  -19.1956   24.0747 C   0  0  0  0  0  0
  -28.6976  -20.7922   20.9754 C   0  0  0  0  0  0
  -33.8155  -18.5107   19.3043 C   0  0  0  0  0  0
  -34.4678  -19.3415   21.6814 C   0  0  0  0  0  0
  -28.8037  -22.3972   21.3280 C   0  0  0  0  0  0
  -34.8285  -19.2854   20.1806 C   0  0  0  0  0  0
  -28.5497  -23.6519   20.3187 C   0  0  0  0  0  0
  -28.7179  -17.4665   22.4158 C   0  0  0  0  0  0
  -28.3018  -25.1308   20.9516 C   0  0  0  0  0  0
  -29.8478  -17.2323   21.3822 C   0  0  2  0  0  0
  -29.2266  -17.7333   23.8602 C   0  0  0  0  0  0
  -31.5382  -18.1330   20.0510 N   0  0  0  0  0  0
  -29.7096  -15.8307   20.7657 N   0  0  0  0  0  0
  -31.4833  -12.6302   19.1691 H   0  0  0  0  0  0
  -30.4043  -11.4861   19.9286 H   0  0  0  0  0  0
  -29.8305  -11.7586   17.5110 H   0  0  0  0  0  0
  -29.6196  -13.4807   17.7384 H   0  0  0  0  0  0
  -27.9340  -11.2493   18.9316 H   0  0  0  0  0  0
  -27.3897  -12.4446   17.7878 H   0  0  0  0  0  0
  -27.6320  -14.2275   19.4415 H   0  0  0  0  0  0
  -28.7303  -12.1144   21.3775 H   0  0  0  0  0  0
  -28.3957  -13.7725   21.8071 H   0  0  0  0  0  0
  -25.2747   -9.5704   22.4708 H   0  0  0  0  0  0
  -24.0085   -7.4602   22.7387 H   0  0  0  0  0  0
  -21.0895   -8.8767   19.8856 H   0  0  0  0  0  0
  -22.3706  -10.9703   19.6176 H   0  0  0  0  0  0
  -21.1913   -7.6131   23.9799 H   0  0  0  0  0  0
  -21.1526   -6.0465   25.9124 H   0  0  0  0  0  0
  -22.0569   -2.7656   23.2751 H   0  0  0  0  0  0
  -22.4072  -11.9934   22.4908 H   0  0  0  0  0  0
  -21.1096  -13.1281   22.2505 H   0  0  0  0  0  0
  -24.6506  -15.8299   20.5279 H   0  0  0  0  0  0
  -26.2547  -15.6435   20.0483 H   0  0  0  0  0  0
  -26.7184  -32.5445   23.1061 H   0  0  0  0  0  0
  -25.0019  -33.9620   25.0346 H   0  0  0  0  0  0
  -22.7222  -31.2943   21.3809 H   0  0  0  0  0  0
  -23.3762  -35.9582   23.3316 H   0  0  0  0  0  0
  -24.3565  -36.8898   22.2074 H   0  0  0  0  0  0
  -23.7197  -37.6469   23.6651 H   0  0  0  0  0  0
  -26.0811  -31.5298   20.5832 H   0  0  0  0  0  0
  -26.8553  -30.8519   21.9866 H   0  0  0  0  0  0
  -28.1240  -28.9588   21.2225 H   0  0  0  0  0  0
  -26.0102  -25.8455   19.1288 H   0  0  0  0  0  0
  -23.9771  -27.2191   19.1079 H   0  0  0  0  0  0
  -23.7819  -30.5526   19.3929 H   0  0  0  0  0  0
  -22.7686  -29.2163   19.8641 H   0  0  0  0  0  0
  -25.1299  -36.1921   25.0820 H   0  0  0  0  0  0
  -20.9986  -28.3304   24.1399 H   0  0  0  0  0  0
  -20.5709  -26.2316   23.3626 H   0  0  0  0  0  0
  -21.6643  -26.7463   22.1219 H   0  0  0  0  0  0
  -19.6928  -25.6304   21.1284 H   0  0  0  0  0  0
  -19.6735  -27.3212   20.6774 H   0  0  0  0  0  0
  -17.4214  -26.6740   21.4042 H   0  0  0  0  0  0
  -18.0331  -26.0095   22.9025 H   0  0  0  0  0  0
  -19.7959  -30.7335   24.2240 H   0  0  0  0  0  0
  -17.5034  -31.6299   24.5207 H   0  0  0  0  0  0
  -15.5369  -30.3044   23.7662 H   0  0  0  0  0  0
  -15.8667  -28.0873   22.7060 H   0  0  0  0  0  0
  -24.5810  -30.7234   25.7705 H   0  0  0  0  0  0
  -24.8974  -32.2991   26.4815 H   0  0  0  0  0  0
  -25.7962  -30.8915   27.0172 H   0  0  0  0  0  0
  -26.2919  -29.6782   24.1152 H   0  0  0  0  0  0
  -27.4051  -29.7291   25.4648 H   0  0  0  0  0  0
  -27.8776  -30.4358   23.9376 H   0  0  0  0  0  0
  -27.2641  -33.3643   26.2029 H   0  0  0  0  0  0
  -28.3838  -32.6911   25.0239 H   0  0  0  0  0  0
  -28.0744  -31.8458   26.5343 H   0  0  0  0  0  0
  -28.2601  -38.0077   24.7527 H   0  0  0  0  0  0
  -28.1061  -36.2595   24.6266 H   0  0  0  0  0  0
  -27.2293  -37.1431   25.8879 H   0  0  0  0  0  0
  -20.9376  -29.8702   21.6825 H   0  0  0  0  0  0
  -26.0167  -38.2862   24.1456 H   0  0  0  0  0  0
  -30.6076  -21.8342   19.5876 H   0  0  0  0  0  0
  -32.7615  -21.0206   18.8175 H   0  0  0  0  0  0
  -34.8582  -20.6158   23.4025 H   0  0  0  0  0  0
  -35.3338  -21.3357   21.8886 H   0  0  0  0  0  0
  -36.3226  -20.0623   22.6001 H   0  0  0  0  0  0
  -28.5500  -17.5783   25.9303 H   0  0  0  0  0  0
  -28.0648  -16.2276   24.9239 H   0  0  0  0  0  0
  -27.2316  -17.7830   24.7705 H   0  0  0  0  0  0
  -30.1429  -19.3100   25.0381 H   0  0  0  0  0  0
  -28.7989  -19.8729   24.0704 H   0  0  0  0  0  0
  -30.3556  -19.5376   23.3177 H   0  0  0  0  0  0
  -28.3650  -20.3189   21.8937 H   0  0  0  0  0  0
  -27.8700  -20.6453   20.2827 H   0  0  0  0  0  0
  -34.0786  -18.5832   18.2510 H   0  0  0  0  0  0
  -33.8732  -17.4545   19.5655 H   0  0  0  0  0  0
  -33.4163  -19.6048   21.8210 H   0  0  0  0  0  0
  -34.5958  -18.3533   22.1321 H   0  0  0  0  0  0
  -28.0236  -22.5491   22.0754 H   0  0  0  0  0  0
  -29.7250  -22.5851   21.8872 H   0  0  0  0  0  0
  -34.9183  -20.3037   19.7970 H   0  0  0  0  0  0
  -35.8153  -18.8387   20.0621 H   0  0  0  0  0  0
  -27.6985  -23.4313   19.6780 H   0  0  0  0  0  0
  -29.4105  -23.7159   19.6538 H   0  0  0  0  0  0
  -28.1230  -16.5536   22.4559 H   0  0  0  0  0  0
  -28.0140  -18.2193   22.0721 H   0  0  0  0  0  0
  -27.3757  -25.1116   21.5298 H   0  0  0  0  0  0
  -29.0826  -25.2663   21.6995 H   0  0  0  0  0  0
  -30.7266  -17.0392   22.0015 H   0  0  0  0  0  0
  -30.1013  -17.1043   24.0449 H   0  0  0  0  0  0
  -28.7443  -15.5467   20.7204 H   0  0  0  0  0  0
  1 25  1  0  0  0
  1 30  2  0  0  0
  1 90  1  0  0  0
  2  3  1  0  0  0
  2 25  1  0  0  0
  2 91  1  0  0  0
  2 92  1  0  0  0
  3  4  1  0  0  0
  3 93  1  0  0  0
  3 94  1  0  0  0
  4  5  1  0  0  0
  4 95  1  0  0  0
  4 96  1  0  0  0
  5  6  1  0  0  0
  5 26  1  0  0  0
  5 97  1  0  0  0
  6 25  1  0  0  0
  6 98  1  0  0  0
  6 99  1  0  0  0
  7  8  2  0  0  0
  7 26  1  0  0  0
  7 29  1  0  0  0
  8  9  1  0  0  0
  8 22  1  0  0  0
  9 10  1  0  0  0
  9 27  2  0  0  0
 10 11  2  0  0  0
 10 15  1  0  0  0
 11 12  1  0  0  0
 11100  1  0  0  0
 12 13  2  0  0  0
 12101  1  0  0  0
 13 14  1  0  0  0
 13 31  1  0  0  0
 14 15  2  0  0  0
 14102  1  0  0  0
 15103  1  0  0  0
 16 17  2  0  0  0
 16 21  1  0  0  0
 16 31  1  0  0  0
 17 18  1  0  0  0
 17104  1  0  0  0
 18 19  2  0  0  0
 18105  1  0  0  0
 19 20  1  0  0  0
 19 24  1  0  0  0
 20 21  2  0  0  0
 20106  1  0  0  0
 21 23  1  0  0  0
 22 28  1  0  0  0
 22 32  2  0  0  0
 26 27  1  0  0  0
 28107  1  0  0  0
 28108  1  0  0  0
 29109  1  0  0  0
 29110  1  0  0  0
 33 34  1  0  0  0
 33 66  1  0  0  0
 33 70  2  0  0  0
 34 36  1  0  0  0
 34 59  1  0  0  0
 34111  1  0  0  0
 35 44  2  0  0  0
 35 45  1  0  0  0
 35 68  1  0  0  0
 36 56  1  0  0  0
 36112  1  0  0  0
 37 39  1  0  0  0
 37 47  1  0  0  0
 37 66  1  0  0  0
 37113  1  0  0  0
 38 43  2  0  0  0
 38 46  1  0  0  0
 38 47  1  0  0  0
 39 64  1  0  0  0
 39 67  2  0  0  0
 40 52  1  0  0  0
 40 53  2  0  0  0
 40 58  1  0  0  0
 41114  1  0  0  0
 41115  1  0  0  0
 41116  1  0  0  0
 41 48  1  0  0  0
 42 43  1  0  0  0
 42 66  1  0  0  0
 42117  1  0  0  0
 42118  1  0  0  0
 43 44  1  0  0  0
 44119  1  0  0  0
 45 46  2  0  0  0
 45120  1  0  0  0
 46121  1  0  0  0
 47122  1  0  0  0
 47123  1  0  0  0
 48 56  1  0  0  0
 48 65  1  0  0  0
 48124  1  0  0  0
 49 50  1  0  0  0
 49 53  1  0  0  0
 49 64  1  0  0  0
 49125  1  0  0  0
 50 51  1  0  0  0
 50126  1  0  0  0
 50127  1  0  0  0
 51 52  1  0  0  0
 51128  1  0  0  0
 51129  1  0  0  0
 52130  1  0  0  0
 52131  1  0  0  0
 53 54  1  0  0  0
 54 55  2  0  0  0
 54132  1  0  0  0
 55 57  1  0  0  0
 55133  1  0  0  0
 56 69  2  0  0  0
 57 58  2  0  0  0
 57134  1  0  0  0
 58135  1  0  0  0
 59 60  1  0  0  0
 59 61  1  0  0  0
 59 62  1  0  0  0
 60136  1  0  0  0
 60137  1  0  0  0
 60138  1  0  0  0
 61139  1  0  0  0
 61140  1  0  0  0
 61141  1  0  0  0
 62142  1  0  0  0
 62143  1  0  0  0
 62144  1  0  0  0
 63 65  1  0  0  0
 63145  1  0  0  0
 63146  1  0  0  0
 63147  1  0  0  0
 64148  1  0  0  0
 65149  1  0  0  0
 68 86  1  0  0  0
 71 72  2  0  0  0
 71 73  1  0  0  0
 71150  1  0  0  0
 72 74  1  0  0  0
 72151  1  0  0  0
 73 75  2  0  0  0
 73 79  1  0  0  0
 74 80  1  0  0  0
 74 89  2  0  0  0
 75 87  1  0  0  0
 75 89  1  0  0  0
 76 81  1  0  0  0
 76152  1  0  0  0
 76153  1  0  0  0
 76154  1  0  0  0
 77155  1  0  0  0
 77156  1  0  0  0
 77157  1  0  0  0
 77 88  1  0  0  0
 78 88  1  0  0  0
 78158  1  0  0  0
 78159  1  0  0  0
 78160  1  0  0  0
 79 82  1  0  0  0
 79161  1  0  0  0
 79162  1  0  0  0
 80 83  1  0  0  0
 80163  1  0  0  0
 80164  1  0  0  0
 81 83  1  0  0  0
 81165  1  0  0  0
 81166  1  0  0  0
 82 84  1  0  0  0
 82167  1  0  0  0
 82168  1  0  0  0
 83169  1  0  0  0
 83170  1  0  0  0
 84 86  1  0  0  0
 84171  1  0  0  0
 84172  1  0  0  0
 85 88  1  0  0  0
 85173  1  0  0  0
 85174  1  0  0  0
 85 87  1  0  0  0
 86175  1  0  0  0
 86176  1  0  0  0
 87 90  1  0  0  0
 87177  1  0  0  0
 88178  1  0  0  0
 90179  1  0  0  0
M  ISO  4   1 100  68 101  86 101  90 100
M  END
> <chiral flag>
0

> <version>
0

> <s_m_source_file>
/data/baiqing/PycharmProjects/Reinvent-master-3.2/result/LINK_invent/BTK/process_docking_weight1_custom_sum_contain_oxygen_bond_distance_aromatic_linkinvent_7_9_3/rearranged_h_0090.sdf

> <i_m_source_file_index>
25

> <r_mmod_Potential_Energy-OPLS-2005>
124.085327148438

> <r_mmod_Stretch_Energy-OPLS-2005>
146.776092529297

> <r_mmod_Bend_Energy-OPLS-2005>
273.990600585938

> <r_mmod_Torsional_Energy-OPLS-2005>
269.054412841797

> <r_mmod_Improper_Torsional_Energy-OPLS-2005>
6.52385091781616

> <r_mmod_Van_der_Waal_Energy-OPLS-2005>
131.475952148438

> <r_mmod_Electrostatic_Energy-OPLS-2005>
-575.929443359375

> <r_mmod_Solvation_Energy-OPLS-2005>
-216.170425415039

> <b_mmod_Minimization_Converged-OPLS-2005>
0

> <r_mmod_RMS_Derivative-OPLS-2005>
7.77048778533936

$$$$
25
                    3D
 Structure written by MMmdl.
155163  0  0  1  0            999 V2000
  -30.5606  -14.9456   20.4688 C   0  0  0  0  0  0
  -30.4317  -12.5852   19.5288 C   0  0  0  0  0  0
  -29.5345  -12.5642   18.2702 C   0  0  0  0  0  0
  -28.0611  -12.3492   18.6587 C   0  0  0  0  0  0
  -27.6338  -13.2572   19.8421 C   0  0  2  0  0  0
  -28.6614  -13.2653   20.9895 C   0  0  0  0  0  0
  -25.2477  -13.8228   20.5681 C   0  0  0  0  0  0
  -24.1795  -13.0449   20.9166 C   0  0  0  0  0  0
  -24.6400  -11.6919   20.8653 C   0  0  0  0  0  0
  -23.9057  -10.4291   21.0307 C   0  0  0  0  0  0
  -24.3617   -9.4230   21.9107 C   0  0  0  0  0  0
  -23.6301   -8.2270   22.0728 C   0  0  0  0  0  0
  -22.4277   -8.0287   21.3546 C   0  0  0  0  0  0
  -21.9905   -9.0228   20.4624 C   0  0  0  0  0  0
  -22.7208  -10.2114   20.2987 C   0  0  0  0  0  0
  -21.6873   -6.0724   22.5277 C   0  0  0  0  0  0
  -21.4032   -6.5618   23.8216 C   0  0  0  0  0  0
  -21.3668   -5.6765   24.9174 C   0  0  0  0  0  0
  -21.6043   -4.3032   24.7219 C   0  0  0  0  0  0
  -21.8820   -3.8128   23.4341 C   0  0  0  0  0  0
  -21.9213   -4.6950   22.3398 C   0  0  0  0  0  0
  -22.7815  -13.5229   21.1837 C   0  0  0  0  0  0
  -22.1672   -4.2139   21.0969 F   0  0  0  0  0  0
  -21.5637   -3.4515   25.7723 F   0  0  0  0  0  0
  -29.9551  -13.6821   20.4304 N   0  0  0  0  0  0
  -26.2898  -12.9477   20.3190 N   0  0  0  0  0  0
  -25.9345  -11.6578   20.5621 N   0  0  0  0  0  0
  -22.0474  -12.8220   22.0392 N   0  0  0  0  0  0
  -25.4217  -15.1957   20.4200 N   0  0  0  0  0  0
  -31.7138  -14.9987   20.0239 O   0  0  0  0  0  0
  -21.6655   -6.8876   21.4245 O   0  0  0  0  0  0
  -22.3467  -14.5509   20.6648 O   0  0  0  0  0  0
  -24.6456  -31.8468   23.1856 C   0  0  0  0  0  0
  -25.9232  -32.4728   23.8251 C   0  0  1  0  0  0
  -27.2014  -27.1302   20.1607 C   0  0  0  0  0  0
  -25.6006  -33.8531   24.2213 N   0  0  0  0  0  0
  -23.4462  -30.4697   21.5293 C   0  0  2  0  0  0
  -24.8932  -28.8893   20.1082 C   0  0  0  0  0  0
  -22.7562  -29.4599   22.4817 C   0  0  0  0  0  0
  -18.0321  -28.1410   22.8464 C   0  0  0  0  0  0
  -24.1488  -36.7258   23.2626 C   0  0  0  0  0  0
  -26.0009  -30.7190   21.3788 C   0  0  0  0  0  0
  -26.0683  -29.3245   20.7339 C   0  0  0  0  0  0
  -27.2266  -28.4596   20.7414 C   0  0  0  0  0  0
  -26.0070  -26.7994   19.4881 C   0  0  0  0  0  0
  -24.8746  -27.6415   19.4679 C   0  0  0  0  0  0
  -23.6729  -29.7964   20.1484 C   0  0  0  0  0  0
  -25.4103  -36.3052   24.0324 C   0  0  1  0  0  0
  -20.5927  -28.3766   23.1202 C   0  0  2  0  0  0
  -20.6804  -26.9474   22.5381 C   0  0  0  0  0  0
  -19.5777  -26.6395   21.5195 C   0  0  0  0  0  0
  -18.1954  -26.7944   22.1605 C   0  0  0  0  0  0
  -19.1574  -28.8893   23.2839 C   0  0  0  0  0  0
  -18.9513  -30.1469   23.8896 C   0  0  0  0  0  0
  -17.6512  -30.6614   24.0572 C   0  0  0  0  0  0
  -25.9061  -34.9441   23.5068 C   0  0  0  0  0  0
  -16.5398  -29.9122   23.6327 C   0  0  0  0  0  0
  -16.7300  -28.6531   23.0356 C   0  0  0  0  0  0
  -26.4538  -31.6585   25.0701 C   0  0  0  0  0  0
  -25.3708  -31.3791   26.1401 C   0  0  0  0  0  0
  -27.0397  -30.2996   24.6227 C   0  0  0  0  0  0
  -27.6073  -32.4329   25.7491 C   0  0  0  0  0  0
  -27.5565  -37.1779   24.8465 C   0  0  0  0  0  0
  -21.4252  -29.3115   22.3579 N   0  0  0  0  0  0
  -26.4262  -37.3779   23.9427 N   0  0  0  0  0  0
  -24.7184  -31.0329   22.0877 N   0  0  0  0  0  0
  -23.4213  -28.8119   23.2944 O   0  0  0  0  0  0
  -28.2507  -26.1441   20.1871 O   0  0  0  0  0  0
  -26.5617  -34.8948   22.4629 O   0  0  0  0  0  0
  -23.5564  -32.1353   23.7070 O   0  0  0  0  0  0
  -28.9804  -18.7689   22.1192 C   0  0  0  0  0  0
  -29.9091  -16.3408   20.9820 C   0  0  0  0  0  0
  -29.3604  -18.8042   20.7652 C   0  0  0  0  0  0
  -29.5748  -16.5007   22.3646 C   0  0  0  0  0  0
  -29.8636  -15.4637   23.4449 C   0  0  0  0  0  0
  -28.4584  -23.2037   18.4276 C   0  0  0  0  0  0
  -29.2920  -20.2647   19.9882 C   0  0  0  0  0  0
  -28.6399  -21.7106   20.5985 C   0  0  0  0  0  0
  -27.9736  -24.6451   20.5176 C   0  0  0  0  0  0
  -28.7664  -23.2725   19.9324 C   0  0  1  0  0  0
  -29.0953  -17.6619   22.8924 N   0  0  0  0  0  0
  -29.8188  -17.5585   20.2180 N   0  0  0  0  0  0
  -31.4787  -12.7030   19.2443 H   0  0  0  0  0  0
  -30.3819  -11.6221   20.0381 H   0  0  0  0  0  0
  -29.8597  -11.7839   17.5814 H   0  0  0  0  0  0
  -29.6375  -13.5110   17.7395 H   0  0  0  0  0  0
  -27.9397  -11.3014   18.9326 H   0  0  0  0  0  0
  -27.4124  -12.5178   17.7973 H   0  0  0  0  0  0
  -27.6070  -14.2701   19.4403 H   0  0  0  0  0  0
  -28.7346  -12.2815   21.4557 H   0  0  0  0  0  0
  -28.3288  -13.9508   21.7669 H   0  0  0  0  0  0
  -25.2785   -9.5746   22.4631 H   0  0  0  0  0  0
  -24.0038   -7.4682   22.7453 H   0  0  0  0  0  0
  -21.0838   -8.8695   19.8928 H   0  0  0  0  0  0
  -22.3634  -10.9616   19.6063 H   0  0  0  0  0  0
  -21.2012   -7.6123   23.9723 H   0  0  0  0  0  0
  -21.1498   -6.0479   25.9071 H   0  0  0  0  0  0
  -22.0598   -2.7596   23.2825 H   0  0  0  0  0  0
  -22.4131  -11.9921   22.4816 H   0  0  0  0  0  0
  -21.1060  -13.1193   22.2519 H   0  0  0  0  0  0
  -24.6650  -15.8576   20.5482 H   0  0  0  0  0  0
  -26.2827  -15.6374   20.1241 H   0  0  0  0  0  0
  -26.7304  -32.5356   23.0971 H   0  0  0  0  0  0
  -25.0284  -33.9646   25.0455 H   0  0  0  0  0  0
  -22.7512  -31.2992   21.3718 H   0  0  0  0  0  0
  -23.3775  -35.9570   23.3267 H   0  0  0  0  0  0
  -24.3552  -36.8896   22.2039 H   0  0  0  0  0  0
  -23.7215  -37.6442   23.6663 H   0  0  0  0  0  0
  -26.1439  -31.4604   20.5904 H   0  0  0  0  0  0
  -26.8767  -30.7830   22.0144 H   0  0  0  0  0  0
  -28.1215  -28.7853   21.2519 H   0  0  0  0  0  0
  -25.9296  -25.8511   18.9761 H   0  0  0  0  0  0
  -23.9805  -27.3119   18.9565 H   0  0  0  0  0  0
  -23.8177  -30.5720   19.3947 H   0  0  0  0  0  0
  -22.7862  -29.2455   19.8301 H   0  0  0  0  0  0
  -25.1273  -36.1870   25.0811 H   0  0  0  0  0  0
  -21.0034  -28.3379   24.1315 H   0  0  0  0  0  0
  -20.5690  -26.2405   23.3614 H   0  0  0  0  0  0
  -21.6671  -26.7463   22.1195 H   0  0  0  0  0  0
  -19.6958  -25.6293   21.1266 H   0  0  0  0  0  0
  -19.6709  -27.3168   20.6696 H   0  0  0  0  0  0
  -17.4224  -26.6695   21.4013 H   0  0  0  0  0  0
  -18.0373  -26.0084   22.9005 H   0  0  0  0  0  0
  -19.7994  -30.7264   24.2284 H   0  0  0  0  0  0
  -17.5091  -31.6285   24.5186 H   0  0  0  0  0  0
  -15.5409  -30.3054   23.7635 H   0  0  0  0  0  0
  -15.8692  -28.0848   22.7086 H   0  0  0  0  0  0
  -24.5926  -30.7082   25.7734 H   0  0  0  0  0  0
  -24.8851  -32.2987   26.4696 H   0  0  0  0  0  0
  -25.7991  -30.9083   27.0258 H   0  0  0  0  0  0
  -26.3002  -29.6734   24.1225 H   0  0  0  0  0  0
  -27.4060  -29.7259   25.4737 H   0  0  0  0  0  0
  -27.8878  -30.4265   23.9491 H   0  0  0  0  0  0
  -27.2694  -33.3665   26.1979 H   0  0  0  0  0  0
  -28.3946  -32.6803   25.0368 H   0  0  0  0  0  0
  -28.0672  -31.8501   26.5487 H   0  0  0  0  0  0
  -28.2576  -38.0090   24.7540 H   0  0  0  0  0  0
  -28.1078  -36.2623   24.6251 H   0  0  0  0  0  0
  -27.2296  -37.1365   25.8876 H   0  0  0  0  0  0
  -20.9464  -29.8905   21.6820 H   0  0  0  0  0  0
  -26.0139  -38.2848   24.1474 H   0  0  0  0  0  0
  -28.6186  -19.6575   22.6167 H   0  0  0  0  0  0
  -30.1547  -14.4866   23.0719 H   0  0  0  0  0  0
  -28.9979  -15.3282   24.0955 H   0  0  0  0  0  0
  -30.6842  -15.8193   24.0717 H   0  0  0  0  0  0
  -29.0570  -22.4467   17.9220 H   0  0  0  0  0  0
  -28.6771  -24.1558   17.9391 H   0  0  0  0  0  0
  -27.4063  -22.9776   18.2499 H   0  0  0  0  0  0
  -28.7833  -20.0643   19.0444 H   0  0  0  0  0  0
  -30.3207  -20.4838   19.7002 H   0  0  0  0  0  0
  -29.0280  -21.8108   21.6128 H   0  0  0  0  0  0
  -27.5757  -21.5203   20.7433 H   0  0  0  0  0  0
  -28.0743  -24.6033   21.6021 H   0  0  0  0  0  0
  -26.9109  -24.4587   20.3614 H   0  0  0  0  0  0
  -29.8265  -23.5164   20.0065 H   0  0  0  0  0  0
  1 25  1  0  0  0
  1 30  2  0  0  0
  1 72  1  0  0  0
  2  3  1  0  0  0
  2 25  1  0  0  0
  2 83  1  0  0  0
  2 84  1  0  0  0
  3  4  1  0  0  0
  3 85  1  0  0  0
  3 86  1  0  0  0
  4  5  1  0  0  0
  4 87  1  0  0  0
  4 88  1  0  0  0
  5  6  1  0  0  0
  5 26  1  0  0  0
  5 89  1  0  0  0
  6 25  1  0  0  0
  6 90  1  0  0  0
  6 91  1  0  0  0
  7  8  2  0  0  0
  7 26  1  0  0  0
  7 29  1  0  0  0
  8  9  1  0  0  0
  8 22  1  0  0  0
  9 10  1  0  0  0
  9 27  2  0  0  0
 10 11  2  0  0  0
 10 15  1  0  0  0
 11 12  1  0  0  0
 11 92  1  0  0  0
 12 13  2  0  0  0
 12 93  1  0  0  0
 13 14  1  0  0  0
 13 31  1  0  0  0
 14 15  2  0  0  0
 14 94  1  0  0  0
 15 95  1  0  0  0
 16 17  2  0  0  0
 16 21  1  0  0  0
 16 31  1  0  0  0
 17 18  1  0  0  0
 17 96  1  0  0  0
 18 19  2  0  0  0
 18 97  1  0  0  0
 19 20  1  0  0  0
 19 24  1  0  0  0
 20 21  2  0  0  0
 20 98  1  0  0  0
 21 23  1  0  0  0
 22 28  1  0  0  0
 22 32  2  0  0  0
 26 27  1  0  0  0
 28 99  1  0  0  0
 28100  1  0  0  0
 29101  1  0  0  0
 29102  1  0  0  0
 33 34  1  0  0  0
 33 66  1  0  0  0
 33 70  2  0  0  0
 34 36  1  0  0  0
 34 59  1  0  0  0
 34103  1  0  0  0
 35 44  2  0  0  0
 35 45  1  0  0  0
 35 68  1  0  0  0
 36 56  1  0  0  0
 36104  1  0  0  0
 37 39  1  0  0  0
 37 47  1  0  0  0
 37 66  1  0  0  0
 37105  1  0  0  0
 38 43  2  0  0  0
 38 46  1  0  0  0
 38 47  1  0  0  0
 39 64  1  0  0  0
 39 67  2  0  0  0
 40 52  1  0  0  0
 40 53  2  0  0  0
 40 58  1  0  0  0
 41106  1  0  0  0
 41107  1  0  0  0
 41108  1  0  0  0
 41 48  1  0  0  0
 42 43  1  0  0  0
 42 66  1  0  0  0
 42109  1  0  0  0
 42110  1  0  0  0
 43 44  1  0  0  0
 44111  1  0  0  0
 45 46  2  0  0  0
 45112  1  0  0  0
 46113  1  0  0  0
 47114  1  0  0  0
 47115  1  0  0  0
 48 56  1  0  0  0
 48 65  1  0  0  0
 48116  1  0  0  0
 49 50  1  0  0  0
 49 53  1  0  0  0
 49 64  1  0  0  0
 49117  1  0  0  0
 50 51  1  0  0  0
 50118  1  0  0  0
 50119  1  0  0  0
 51 52  1  0  0  0
 51120  1  0  0  0
 51121  1  0  0  0
 52122  1  0  0  0
 52123  1  0  0  0
 53 54  1  0  0  0
 54 55  2  0  0  0
 54124  1  0  0  0
 55 57  1  0  0  0
 55125  1  0  0  0
 56 69  2  0  0  0
 57 58  2  0  0  0
 57126  1  0  0  0
 58127  1  0  0  0
 59 60  1  0  0  0
 59 61  1  0  0  0
 59 62  1  0  0  0
 60128  1  0  0  0
 60129  1  0  0  0
 60130  1  0  0  0
 61131  1  0  0  0
 61132  1  0  0  0
 61133  1  0  0  0
 62134  1  0  0  0
 62135  1  0  0  0
 62136  1  0  0  0
 63 65  1  0  0  0
 63137  1  0  0  0
 63138  1  0  0  0
 63139  1  0  0  0
 64140  1  0  0  0
 65141  1  0  0  0
 68 79  1  0  0  0
 71 73  2  0  0  0
 71 81  1  0  0  0
 71142  1  0  0  0
 72 74  1  0  0  0
 72 82  2  0  0  0
 73 77  1  0  0  0
 73 82  1  0  0  0
 74 75  1  0  0  0
 74 81  2  0  0  0
 75143  1  0  0  0
 75144  1  0  0  0
 75145  1  0  0  0
 76146  1  0  0  0
 76147  1  0  0  0
 76148  1  0  0  0
 76 80  1  0  0  0
 77 78  1  0  0  0
 77149  1  0  0  0
 77150  1  0  0  0
 78 80  1  0  0  0
 78151  1  0  0  0
 78152  1  0  0  0
 79 80  1  0  0  0
 79153  1  0  0  0
 79154  1  0  0  0
 80155  1  0  0  0
M  ISO  4   1 100  68 101  72 100  79 101
M  END
> <chiral flag>
0

> <version>
0

> <s_m_source_file>
/data/baiqing/PycharmProjects/Reinvent-master-3.2/result/LINK_invent/BTK/process_docking_weight1_custom_sum_contain_oxygen_bond_distance_aromatic_linkinvent_7_9_3/rearranged_h_0090.sdf

> <i_m_source_file_index>
26

> <r_mmod_Potential_Energy-OPLS-2005>
721.122253417969

> <r_mmod_Stretch_Energy-OPLS-2005>
290.486724853516

> <r_mmod_Bend_Energy-OPLS-2005>
265.541839599609

> <r_mmod_Torsional_Energy-OPLS-2005>
214.17887878418

> <r_mmod_Improper_Torsional_Energy-OPLS-2005>
3.30842638015747

> <r_mmod_Van_der_Waal_Energy-OPLS-2005>
128.52766418457

> <r_mmod_Electrostatic_Energy-OPLS-2005>
-167.32682800293

> <r_mmod_Solvation_Energy-OPLS-2005>
-201.68586730957

> <b_mmod_Minimization_Converged-OPLS-2005>
0

> <r_mmod_RMS_Derivative-OPLS-2005>
3.65597629547119

$$$$
26
                    3D
 Structure written by MMmdl.
169177  0  0  1  0            999 V2000
  -30.6491  -14.5558   20.5277 C   0  0  0  0  0  0
  -30.4361  -12.3434   19.4426 C   0  0  0  0  0  0
  -29.5072  -12.5120   18.2207 C   0  0  0  0  0  0
  -28.0280  -12.3611   18.6281 C   0  0  0  0  0  0
  -27.6621  -13.2093   19.8751 C   0  0  2  0  0  0
  -28.7062  -13.0151   21.0016 C   0  0  0  0  0  0
  -25.2603  -13.8152   20.5698 C   0  0  0  0  0  0
  -24.1863  -13.0433   20.9212 C   0  0  0  0  0  0
  -24.6419  -11.6905   20.8760 C   0  0  0  0  0  0
  -23.9076  -10.4292   21.0403 C   0  0  0  0  0  0
  -24.3624   -9.4208   21.9181 C   0  0  0  0  0  0
  -23.6300   -8.2244   22.0755 C   0  0  0  0  0  0
  -22.4281   -8.0286   21.3547 C   0  0  0  0  0  0
  -21.9918   -9.0259   20.4647 C   0  0  0  0  0  0
  -22.7246  -10.2137   20.3053 C   0  0  0  0  0  0
  -21.6847   -6.0746   22.5285 C   0  0  0  0  0  0
  -21.4007   -6.5644   23.8219 C   0  0  0  0  0  0
  -21.3664   -5.6793   24.9186 C   0  0  0  0  0  0
  -21.6047   -4.3058   24.7216 C   0  0  0  0  0  0
  -21.8822   -3.8154   23.4337 C   0  0  0  0  0  0
  -21.9190   -4.6979   22.3403 C   0  0  0  0  0  0
  -22.7883  -13.5243   21.1844 C   0  0  0  0  0  0
  -22.1659   -4.2167   21.0979 F   0  0  0  0  0  0
  -21.5630   -3.4541   25.7726 F   0  0  0  0  0  0
  -30.0337  -13.3388   20.4524 N   0  0  0  0  0  0
  -26.3039  -12.9323   20.3368 N   0  0  0  0  0  0
  -25.9346  -11.6486   20.5777 N   0  0  0  0  0  0
  -22.0501  -12.8259   22.0397 N   0  0  0  0  0  0
  -25.4313  -15.1870   20.4102 N   0  0  0  0  0  0
  -31.7751  -14.7601   20.0685 O   0  0  0  0  0  0
  -21.6642   -6.8890   21.4248 O   0  0  0  0  0  0
  -22.3591  -14.5555   20.6679 O   0  0  0  0  0  0
  -24.6192  -31.8632   23.2054 C   0  0  0  0  0  0
  -25.9047  -32.4807   23.8377 C   0  0  1  0  0  0
  -27.2290  -27.3910   20.1027 C   0  0  0  0  0  0
  -25.5867  -33.8605   24.2294 N   0  0  0  0  0  0
  -23.4106  -30.4884   21.5444 C   0  0  2  0  0  0
  -24.8604  -28.9527   20.1059 C   0  0  0  0  0  0
  -22.7446  -29.4639   22.4938 C   0  0  0  0  0  0
  -18.0284  -28.1388   22.8490 C   0  0  0  0  0  0
  -24.1475  -36.7324   23.2639 C   0  0  0  0  0  0
  -25.9458  -30.8162   21.3666 C   0  0  0  0  0  0
  -26.0240  -29.4492   20.7107 C   0  0  0  0  0  0
  -27.2151  -28.6765   20.7065 C   0  0  0  0  0  0
  -26.0566  -26.9348   19.4646 C   0  0  0  0  0  0
  -24.8722  -27.6974   19.4783 C   0  0  0  0  0  0
  -23.6218  -29.8228   20.1581 C   0  0  0  0  0  0
  -25.4100  -36.3111   24.0329 C   0  0  1  0  0  0
  -20.5883  -28.3675   23.1304 C   0  0  2  0  0  0
  -20.6782  -26.9406   22.5410 C   0  0  0  0  0  0
  -19.5754  -26.6383   21.5213 C   0  0  0  0  0  0
  -18.1932  -26.7933   22.1621 C   0  0  0  0  0  0
  -19.1537  -28.8852   23.2893 C   0  0  0  0  0  0
  -18.9456  -30.1467   23.8891 C   0  0  0  0  0  0
  -17.6453  -30.6587   24.0576 C   0  0  0  0  0  0
  -25.9019  -34.9473   23.5112 C   0  0  0  0  0  0
  -16.5346  -29.9081   23.6333 C   0  0  0  0  0  0
  -16.7272  -28.6507   23.0339 C   0  0  0  0  0  0
  -26.4459  -31.6592   25.0716 C   0  0  0  0  0  0
  -25.3716  -31.3707   26.1460 C   0  0  0  0  0  0
  -27.0304  -30.3028   24.6129 C   0  0  0  0  0  0
  -27.6039  -32.4315   25.7476 C   0  0  0  0  0  0
  -27.5574  -37.1819   24.8462 C   0  0  0  0  0  0
  -21.4165  -29.3031   22.3692 N   0  0  0  0  0  0
  -26.4288  -37.3796   23.9402 N   0  0  0  0  0  0
  -24.6765  -31.0706   22.0965 N   0  0  0  0  0  0
  -23.4204  -28.8164   23.2972 O   0  0  0  0  0  0
  -28.3312  -26.5477   20.1533 O   0  0  0  0  0  0
  -26.5626  -34.8943   22.4698 O   0  0  0  0  0  0
  -23.5373  -32.1395   23.7419 O   0  0  0  0  0  0
  -29.3964  -20.6815   20.9200 C   0  0  0  0  0  0
  -29.2336  -19.3568   21.3265 C   0  0  0  0  0  0
  -27.3132  -20.4716   21.6458 C   0  0  0  0  0  0
  -25.8921  -20.7276   22.0529 C   0  0  0  0  0  0
  -32.3985  -20.6031   22.7054 C   0  0  0  0  0  0
  -33.3984  -18.3754   23.3280 C   0  0  0  0  0  0
  -28.7006  -23.9518   20.5162 C   0  0  0  0  0  0
  -31.6268  -18.4520   21.5070 C   0  0  0  0  0  0
  -27.7855  -22.7995   21.0542 C   0  0  0  0  0  0
  -29.8334  -16.9796   20.4175 C   0  0  0  0  0  0
  -28.0944  -25.3447   20.9435 C   0  0  0  0  0  0
  -30.1205  -18.1084   21.4700 C   0  0  2  0  0  0
  -32.1328  -19.0911   22.8271 C   0  0  0  0  0  0
  -28.2087  -21.3586   21.1696 N   0  0  0  0  0  0
  -27.9268  -19.2896   21.7364 N   0  3  0  0  0  0
  -29.8495  -15.5765   20.9233 N   0  0  0  0  0  0
  -31.4787  -12.4569   19.1433 H   0  0  0  0  0  0
  -30.3520  -11.3350   19.8518 H   0  0  0  0  0  0
  -29.7599  -11.7804   17.4526 H   0  0  0  0  0  0
  -29.6698  -13.4937   17.7725 H   0  0  0  0  0  0
  -27.8501  -11.3052   18.8351 H   0  0  0  0  0  0
  -27.3775  -12.6187   17.7902 H   0  0  0  0  0  0
  -27.6948  -14.2523   19.5606 H   0  0  0  0  0  0
  -28.6978  -11.9832   21.3530 H   0  0  0  0  0  0
  -28.4644  -13.6238   21.8742 H   0  0  0  0  0  0
  -25.2754   -9.5688   22.4775 H   0  0  0  0  0  0
  -24.0006   -7.4634   22.7476 H   0  0  0  0  0  0
  -21.0841   -8.8766   19.8962 H   0  0  0  0  0  0
  -22.3678  -10.9682   19.6174 H   0  0  0  0  0  0
  -21.1991   -7.6147   23.9731 H   0  0  0  0  0  0
  -21.1488   -6.0520   25.9089 H   0  0  0  0  0  0
  -22.0598   -2.7617   23.2826 H   0  0  0  0  0  0
  -22.4069  -11.9897   22.4784 H   0  0  0  0  0  0
  -21.1129  -13.1319   22.2578 H   0  0  0  0  0  0
  -24.6521  -15.8305   20.4860 H   0  0  0  0  0  0
  -26.2623  -15.6192   20.0276 H   0  0  0  0  0  0
  -26.7126  -32.5481   23.1143 H   0  0  0  0  0  0
  -25.0002  -33.9770   25.0437 H   0  0  0  0  0  0
  -22.7005  -31.3055   21.4033 H   0  0  0  0  0  0
  -23.3736  -35.9657   23.3305 H   0  0  0  0  0  0
  -24.3583  -36.8932   22.2051 H   0  0  0  0  0  0
  -23.7220  -37.6527   23.6667 H   0  0  0  0  0  0
  -26.0715  -31.5816   20.5994 H   0  0  0  0  0  0
  -26.8298  -30.8666   21.9903 H   0  0  0  0  0  0
  -28.1080  -29.0444   21.1946 H   0  0  0  0  0  0
  -26.0483  -25.9716   18.9750 H   0  0  0  0  0  0
  -23.9816  -27.3142   18.9985 H   0  0  0  0  0  0
  -23.7296  -30.5988   19.3990 H   0  0  0  0  0  0
  -22.7458  -29.2427   19.8606 H   0  0  0  0  0  0
  -25.1284  -36.1981   25.0824 H   0  0  0  0  0  0
  -20.9999  -28.3242   24.1419 H   0  0  0  0  0  0
  -20.5694  -26.2280   23.3603 H   0  0  0  0  0  0
  -21.6649  -26.7449   22.1194 H   0  0  0  0  0  0
  -19.6914  -25.6292   21.1232 H   0  0  0  0  0  0
  -19.6691  -27.3219   20.6759 H   0  0  0  0  0  0
  -17.4208  -26.6691   21.4019 H   0  0  0  0  0  0
  -18.0329  -26.0081   22.9014 H   0  0  0  0  0  0
  -19.7926  -30.7306   24.2231 H   0  0  0  0  0  0
  -17.4995  -31.6265   24.5189 H   0  0  0  0  0  0
  -15.5346  -30.2972   23.7680 H   0  0  0  0  0  0
  -15.8672  -28.0837   22.7030 H   0  0  0  0  0  0
  -24.5888  -30.7058   25.7789 H   0  0  0  0  0  0
  -24.8921  -32.2864   26.4916 H   0  0  0  0  0  0
  -25.8045  -30.8858   27.0213 H   0  0  0  0  0  0
  -26.2858  -29.6779   24.1188 H   0  0  0  0  0  0
  -27.4063  -29.7274   25.4598 H   0  0  0  0  0  0
  -27.8694  -30.4343   23.9303 H   0  0  0  0  0  0
  -27.2667  -33.3612   26.2076 H   0  0  0  0  0  0
  -28.3836  -32.6865   25.0285 H   0  0  0  0  0  0
  -28.0736  -31.8426   26.5367 H   0  0  0  0  0  0
  -28.2613  -38.0104   24.7528 H   0  0  0  0  0  0
  -28.1048  -36.2640   24.6262 H   0  0  0  0  0  0
  -27.2307  -37.1434   25.8873 H   0  0  0  0  0  0
  -20.9326  -29.8734   21.6908 H   0  0  0  0  0  0
  -26.0172  -38.2873   24.1402 H   0  0  0  0  0  0
  -30.2645  -21.1914   20.5246 H   0  0  0  0  0  0
  -25.3428  -21.1303   21.2030 H   0  0  0  0  0  0
  -25.8804  -21.4397   22.8772 H   0  0  0  0  0  0
  -25.4354  -19.7908   22.3725 H   0  0  0  0  0  0
  -32.8795  -20.9945   23.6028 H   0  0  0  0  0  0
  -31.4754  -21.1658   22.5836 H   0  0  0  0  0  0
  -33.0521  -20.8340   21.8627 H   0  0  0  0  0  0
  -33.7362  -18.7788   24.2839 H   0  0  0  0  0  0
  -34.2187  -18.4671   22.6158 H   0  0  0  0  0  0
  -33.2145  -17.3112   23.4771 H   0  0  0  0  0  0
  -28.7625  -23.8831   19.4306 H   0  0  0  0  0  0
  -29.7176  -23.8563   20.8981 H   0  0  0  0  0  0
  -31.9028  -19.0533   20.6392 H   0  0  0  0  0  0
  -32.1641  -17.5146   21.3648 H   0  0  0  0  0  0
  -26.8816  -22.8033   20.4445 H   0  0  0  0  0  0
  -27.4704  -23.0848   22.0587 H   0  0  0  0  0  0
  -30.4902  -17.0911   19.5527 H   0  0  0  0  0  0
  -28.8281  -17.1267   20.0203 H   0  0  0  0  0  0
  -28.4415  -25.5667   21.9535 H   0  0  0  0  0  0
  -27.0218  -25.1947   21.0669 H   0  0  0  0  0  0
  -29.8668  -17.6791   22.4401 H   0  0  0  0  0  0
  -31.3755  -18.9532   23.6011 H   0  0  0  0  0  0
  -27.4834  -18.4605   22.1156 H   0  0  0  0  0  0
  -28.9887  -15.2713   21.3521 H   0  0  0  0  0  0
  1 25  1  0  0  0
  1 30  2  0  0  0
  1 86  1  0  0  0
  2  3  1  0  0  0
  2 25  1  0  0  0
  2 87  1  0  0  0
  2 88  1  0  0  0
  3  4  1  0  0  0
  3 89  1  0  0  0
  3 90  1  0  0  0
  4  5  1  0  0  0
  4 91  1  0  0  0
  4 92  1  0  0  0
  5  6  1  0  0  0
  5 26  1  0  0  0
  5 93  1  0  0  0
  6 25  1  0  0  0
  6 94  1  0  0  0
  6 95  1  0  0  0
  7  8  2  0  0  0
  7 26  1  0  0  0
  7 29  1  0  0  0
  8  9  1  0  0  0
  8 22  1  0  0  0
  9 10  1  0  0  0
  9 27  2  0  0  0
 10 11  2  0  0  0
 10 15  1  0  0  0
 11 12  1  0  0  0
 11 96  1  0  0  0
 12 13  2  0  0  0
 12 97  1  0  0  0
 13 14  1  0  0  0
 13 31  1  0  0  0
 14 15  2  0  0  0
 14 98  1  0  0  0
 15 99  1  0  0  0
 16 17  2  0  0  0
 16 21  1  0  0  0
 16 31  1  0  0  0
 17 18  1  0  0  0
 17100  1  0  0  0
 18 19  2  0  0  0
 18101  1  0  0  0
 19 20  1  0  0  0
 19 24  1  0  0  0
 20 21  2  0  0  0
 20102  1  0  0  0
 21 23  1  0  0  0
 22 28  1  0  0  0
 22 32  2  0  0  0
 26 27  1  0  0  0
 28103  1  0  0  0
 28104  1  0  0  0
 29105  1  0  0  0
 29106  1  0  0  0
 33 34  1  0  0  0
 33 66  1  0  0  0
 33 70  2  0  0  0
 34 36  1  0  0  0
 34 59  1  0  0  0
 34107  1  0  0  0
 35 44  2  0  0  0
 35 45  1  0  0  0
 35 68  1  0  0  0
 36 56  1  0  0  0
 36108  1  0  0  0
 37 39  1  0  0  0
 37 47  1  0  0  0
 37 66  1  0  0  0
 37109  1  0  0  0
 38 43  2  0  0  0
 38 46  1  0  0  0
 38 47  1  0  0  0
 39 64  1  0  0  0
 39 67  2  0  0  0
 40 52  1  0  0  0
 40 53  2  0  0  0
 40 58  1  0  0  0
 41110  1  0  0  0
 41111  1  0  0  0
 41112  1  0  0  0
 41 48  1  0  0  0
 42 43  1  0  0  0
 42 66  1  0  0  0
 42113  1  0  0  0
 42114  1  0  0  0
 43 44  1  0  0  0
 44115  1  0  0  0
 45 46  2  0  0  0
 45116  1  0  0  0
 46117  1  0  0  0
 47118  1  0  0  0
 47119  1  0  0  0
 48 56  1  0  0  0
 48 65  1  0  0  0
 48120  1  0  0  0
 49 50  1  0  0  0
 49 53  1  0  0  0
 49 64  1  0  0  0
 49121  1  0  0  0
 50 51  1  0  0  0
 50122  1  0  0  0
 50123  1  0  0  0
 51 52  1  0  0  0
 51124  1  0  0  0
 51125  1  0  0  0
 52126  1  0  0  0
 52127  1  0  0  0
 53 54  1  0  0  0
 54 55  2  0  0  0
 54128  1  0  0  0
 55 57  1  0  0  0
 55129  1  0  0  0
 56 69  2  0  0  0
 57 58  2  0  0  0
 57130  1  0  0  0
 58131  1  0  0  0
 59 60  1  0  0  0
 59 61  1  0  0  0
 59 62  1  0  0  0
 60132  1  0  0  0
 60133  1  0  0  0
 60134  1  0  0  0
 61135  1  0  0  0
 61136  1  0  0  0
 61137  1  0  0  0
 62138  1  0  0  0
 62139  1  0  0  0
 62140  1  0  0  0
 63 65  1  0  0  0
 63141  1  0  0  0
 63142  1  0  0  0
 63143  1  0  0  0
 64144  1  0  0  0
 65145  1  0  0  0
 68 81  1  0  0  0
 71 72  2  0  0  0
 71 84  1  0  0  0
 71146  1  0  0  0
 72 82  1  0  0  0
 72 85  1  0  0  0
 73 74  1  0  0  0
 73 84  1  0  0  0
 73 85  2  0  0  0
 74147  1  0  0  0
 74148  1  0  0  0
 74149  1  0  0  0
 75150  1  0  0  0
 75151  1  0  0  0
 75152  1  0  0  0
 75 83  1  0  0  0
 76 83  1  0  0  0
 76153  1  0  0  0
 76154  1  0  0  0
 76155  1  0  0  0
 77 79  1  0  0  0
 77 81  1  0  0  0
 77156  1  0  0  0
 77157  1  0  0  0
 78 83  1  0  0  0
 78158  1  0  0  0
 78159  1  0  0  0
 78 82  1  0  0  0
 79 84  1  0  0  0
 79160  1  0  0  0
 79161  1  0  0  0
 80 82  1  0  0  0
 80 86  1  0  0  0
 80162  1  0  0  0
 80163  1  0  0  0
 81164  1  0  0  0
 81165  1  0  0  0
 82166  1  0  0  0
 83167  1  0  0  0
 85168  1  0  0  0
 86169  1  0  0  0
M  CHG  1  85   1
M  ISO  4   1 100  68 101  81 101  86 100
M  END
> <chiral flag>
0

> <version>
0

> <s_m_source_file>
/data/baiqing/PycharmProjects/Reinvent-master-3.2/result/LINK_invent/BTK/process_docking_weight1_custom_sum_contain_oxygen_bond_distance_aromatic_linkinvent_7_9_3/rearranged_h_0090.sdf

> <i_m_source_file_index>
27

> <r_mmod_Potential_Energy-OPLS-2005>
-4.3191876411438

> <r_mmod_Stretch_Energy-OPLS-2005>
55.3168449401855

> <r_mmod_Bend_Energy-OPLS-2005>
138.117462158203

> <r_mmod_Torsional_Energy-OPLS-2005>
289.885284423828

> <r_mmod_Improper_Torsional_Energy-OPLS-2005>
7.4315299987793

> <r_mmod_Van_der_Waal_Energy-OPLS-2005>
123.628227233887

> <r_mmod_Electrostatic_Energy-OPLS-2005>
-222.608322143555

> <r_mmod_Solvation_Energy-OPLS-2005>
-423.198638916016

> <b_mmod_Minimization_Converged-OPLS-2005>
0

> <r_mmod_RMS_Derivative-OPLS-2005>
2.52868437767029

$$$$
27
                    3D
 Structure written by MMmdl.
172180  0  0  1  0            999 V2000
  -30.7625  -14.4037   20.6235 C   0  0  0  0  0  0
  -30.4140  -12.2917   19.4020 C   0  0  0  0  0  0
  -29.4846  -12.5096   18.1952 C   0  0  0  0  0  0
  -28.0096  -12.3647   18.6131 C   0  0  0  0  0  0
  -27.6621  -13.2025   19.8700 C   0  0  2  0  0  0
  -28.7046  -12.9827   20.9895 C   0  0  0  0  0  0
  -25.2580  -13.8091   20.5666 C   0  0  0  0  0  0
  -24.1825  -13.0382   20.9219 C   0  0  0  0  0  0
  -24.6384  -11.6870   20.8767 C   0  0  0  0  0  0
  -23.9033  -10.4263   21.0403 C   0  0  0  0  0  0
  -24.3583   -9.4186   21.9188 C   0  0  0  0  0  0
  -23.6249   -8.2230   22.0768 C   0  0  0  0  0  0
  -22.4238   -8.0261   21.3558 C   0  0  0  0  0  0
  -21.9868   -9.0240   20.4669 C   0  0  0  0  0  0
  -22.7195  -10.2114   20.3057 C   0  0  0  0  0  0
  -21.6841   -6.0703   22.5269 C   0  0  0  0  0  0
  -21.4019   -6.5609   23.8203 C   0  0  0  0  0  0
  -21.3659   -5.6763   24.9164 C   0  0  0  0  0  0
  -21.6059   -4.3028   24.7226 C   0  0  0  0  0  0
  -21.8818   -3.8121   23.4341 C   0  0  0  0  0  0
  -21.9192   -4.6930   22.3392 C   0  0  0  0  0  0
  -22.7861  -13.5221   21.1855 C   0  0  0  0  0  0
  -22.1647   -4.2112   21.0967 F   0  0  0  0  0  0
  -21.5659   -3.4515   25.7743 F   0  0  0  0  0  0
  -30.0415  -13.2649   20.4388 N   0  0  0  0  0  0
  -26.3021  -12.9273   20.3339 N   0  0  0  0  0  0
  -25.9300  -11.6441   20.5761 N   0  0  0  0  0  0
  -22.0420  -12.8277   22.0415 N   0  0  0  0  0  0
  -25.4205  -15.1768   20.3885 N   0  0  0  0  0  0
  -31.8498  -14.6178   20.0868 O   0  0  0  0  0  0
  -21.6622   -6.8843   21.4235 O   0  0  0  0  0  0
  -22.3608  -14.5506   20.6633 O   0  0  0  0  0  0
  -24.6123  -31.8715   23.2118 C   0  0  0  0  0  0
  -25.9037  -32.4836   23.8393 C   0  0  1  0  0  0
  -27.2360  -27.4399   20.0618 C   0  0  0  0  0  0
  -25.5919  -33.8644   24.2352 N   0  0  0  0  0  0
  -23.3997  -30.4975   21.5555 C   0  0  2  0  0  0
  -24.8390  -28.9613   20.1173 C   0  0  0  0  0  0
  -22.7392  -29.4697   22.5020 C   0  0  0  0  0  0
  -18.0307  -28.1331   22.8543 C   0  0  0  0  0  0
  -24.1485  -36.7317   23.2631 C   0  0  0  0  0  0
  -25.9288  -30.8297   21.3673 C   0  0  0  0  0  0
  -25.9998  -29.4618   20.7190 C   0  0  0  0  0  0
  -27.1902  -28.7019   20.6998 C   0  0  0  0  0  0
  -26.0493  -26.9556   19.4639 C   0  0  0  0  0  0
  -24.8573  -27.7035   19.4942 C   0  0  0  0  0  0
  -23.6029  -29.8332   20.1688 C   0  0  0  0  0  0
  -25.4109  -36.3131   24.0327 C   0  0  1  0  0  0
  -20.5879  -28.3650   23.1347 C   0  0  2  0  0  0
  -20.6790  -26.9405   22.5383 C   0  0  0  0  0  0
  -19.5749  -26.6445   21.5167 C   0  0  0  0  0  0
  -18.1966  -26.7864   22.1676 C   0  0  0  0  0  0
  -19.1545  -28.8800   23.2964 C   0  0  0  0  0  0
  -18.9473  -30.1421   23.8948 C   0  0  0  0  0  0
  -17.6470  -30.6575   24.0550 C   0  0  0  0  0  0
  -25.9046  -34.9492   23.5148 C   0  0  0  0  0  0
  -16.5369  -29.9063   23.6333 C   0  0  0  0  0  0
  -16.7294  -28.6463   23.0377 C   0  0  0  0  0  0
  -26.4469  -31.6595   25.0715 C   0  0  0  0  0  0
  -25.3748  -31.3692   26.1477 C   0  0  0  0  0  0
  -27.0303  -30.3044   24.6094 C   0  0  0  0  0  0
  -27.6056  -32.4304   25.7459 C   0  0  0  0  0  0
  -27.5585  -37.1806   24.8473 C   0  0  0  0  0  0
  -21.4118  -29.3067   22.3765 N   0  0  0  0  0  0
  -26.4307  -37.3808   23.9408 N   0  0  0  0  0  0
  -24.6651  -31.0816   22.1018 N   0  0  0  0  0  0
  -23.4170  -28.8201   23.3028 O   0  0  0  0  0  0
  -28.4447  -26.7655   20.0644 O   0  0  0  0  0  0
  -26.5613  -34.8930   22.4708 O   0  0  0  0  0  0
  -23.5314  -32.1473   23.7523 O   0  0  0  0  0  0
  -28.9663  -19.9878   20.3108 C   0  0  0  0  0  0
  -28.6721  -18.7864   20.9084 C   0  0  0  0  0  0
  -26.7686  -19.6803   20.1312 C   0  0  0  0  0  0
  -28.5447  -25.7909   17.7859 C   0  0  0  0  0  0
  -24.6379  -18.3521   19.9665 C   0  0  0  0  0  0
  -25.0566  -20.1299   18.3027 C   0  0  0  0  0  0
  -24.5345  -20.7147   20.7102 C   0  0  0  0  0  0
  -29.5389  -17.7350   21.5415 C   0  0  0  0  0  0
  -28.6505  -22.9460   19.4048 C   0  0  0  0  0  0
  -28.0184  -24.2944   19.8518 C   0  0  0  0  0  0
  -27.5966  -21.8297   19.1697 C   0  0  0  0  0  0
  -29.3359  -16.3474   20.8901 C   0  0  0  0  0  0
  -28.7093  -25.5709   19.3030 C   0  0  2  0  0  0
  -25.2840  -19.7431   19.7809 C   0  0  0  0  0  0
  -27.7803  -20.5459   19.8838 N   0  0  0  0  0  0
  -27.3112  -18.6721   20.8253 N   0  3  0  0  0  0
  -30.2382  -15.3274   21.4348 N   0  0  0  0  0  0
  -31.4566  -12.3805   19.0934 H   0  0  0  0  0  0
  -30.3050  -11.2783   19.7902 H   0  0  0  0  0  0
  -29.7185  -11.7948   17.4058 H   0  0  0  0  0  0
  -29.6580  -13.5005   17.7719 H   0  0  0  0  0  0
  -27.8249  -11.3090   18.8154 H   0  0  0  0  0  0
  -27.3523  -12.6329   17.7866 H   0  0  0  0  0  0
  -27.7089  -14.2493   19.5709 H   0  0  0  0  0  0
  -28.6699  -11.9533   21.3475 H   0  0  0  0  0  0
  -28.4634  -13.5944   21.8591 H   0  0  0  0  0  0
  -25.2717   -9.5660   22.4784 H   0  0  0  0  0  0
  -23.9950   -7.4611   22.7470 H   0  0  0  0  0  0
  -21.0814   -8.8734   19.8968 H   0  0  0  0  0  0
  -22.3635  -10.9652   19.6176 H   0  0  0  0  0  0
  -21.2007   -7.6118   23.9695 H   0  0  0  0  0  0
  -21.1483   -6.0492   25.9062 H   0  0  0  0  0  0
  -22.0600   -2.7579   23.2839 H   0  0  0  0  0  0
  -22.3946  -11.9955   22.4888 H   0  0  0  0  0  0
  -21.1047  -13.1394   22.2542 H   0  0  0  0  0  0
  -24.5543  -15.7022   20.3168 H   0  0  0  0  0  0
  -26.1103  -15.4759   19.7132 H   0  0  0  0  0  0
  -26.7115  -32.5586   23.1150 H   0  0  0  0  0  0
  -25.0086  -33.9816   25.0513 H   0  0  0  0  0  0
  -22.6846  -31.3126   21.4237 H   0  0  0  0  0  0
  -23.3755  -35.9648   23.3326 H   0  0  0  0  0  0
  -24.3571  -36.8906   22.2044 H   0  0  0  0  0  0
  -23.7211  -37.6516   23.6623 H   0  0  0  0  0  0
  -26.0450  -31.5951   20.5974 H   0  0  0  0  0  0
  -26.8159  -30.8802   21.9888 H   0  0  0  0  0  0
  -28.0866  -29.0885   21.1625 H   0  0  0  0  0  0
  -26.0106  -26.0145   18.9453 H   0  0  0  0  0  0
  -23.9624  -27.3144   19.0249 H   0  0  0  0  0  0
  -23.7121  -30.6139   19.4128 H   0  0  0  0  0  0
  -22.7220  -29.2588   19.8738 H   0  0  0  0  0  0
  -25.1266  -36.1998   25.0812 H   0  0  0  0  0  0
  -20.9999  -28.3192   24.1464 H   0  0  0  0  0  0
  -20.5682  -26.2271   23.3572 H   0  0  0  0  0  0
  -21.6662  -26.7439   22.1177 H   0  0  0  0  0  0
  -19.6959  -25.6421   21.1041 H   0  0  0  0  0  0
  -19.6553  -27.3398   20.6807 H   0  0  0  0  0  0
  -17.4164  -26.6532   21.4145 H   0  0  0  0  0  0
  -18.0517  -25.9989   22.9110 H   0  0  0  0  0  0
  -19.7931  -30.7226   24.2379 H   0  0  0  0  0  0
  -17.5022  -31.6275   24.5110 H   0  0  0  0  0  0
  -15.5364  -30.2927   23.7710 H   0  0  0  0  0  0
  -15.8718  -28.0762   22.7081 H   0  0  0  0  0  0
  -24.5888  -30.7084   25.7805 H   0  0  0  0  0  0
  -24.8996  -32.2869   26.4971 H   0  0  0  0  0  0
  -25.8111  -30.8807   27.0211 H   0  0  0  0  0  0
  -26.2856  -29.6787   24.1175 H   0  0  0  0  0  0
  -27.4113  -29.7259   25.4519 H   0  0  0  0  0  0
  -27.8664  -30.4357   23.9218 H   0  0  0  0  0  0
  -27.2680  -33.3576   26.2096 H   0  0  0  0  0  0
  -28.3819  -32.6916   25.0256 H   0  0  0  0  0  0
  -28.0796  -31.8417   26.5328 H   0  0  0  0  0  0
  -28.2611  -38.0094   24.7519 H   0  0  0  0  0  0
  -28.1062  -36.2627   24.6291 H   0  0  0  0  0  0
  -27.2322  -37.1457   25.8883 H   0  0  0  0  0  0
  -20.9274  -29.8817   21.7007 H   0  0  0  0  0  0
  -26.0205  -38.2889   24.1419 H   0  0  0  0  0  0
  -29.9257  -20.4642   20.1594 H   0  0  0  0  0  0
  -29.1031  -25.0512   17.2137 H   0  0  0  0  0  0
  -28.9122  -26.7732   17.4902 H   0  0  0  0  0  0
  -27.5122  -25.7133   17.4553 H   0  0  0  0  0  0
  -25.1126  -17.6148   19.3185 H   0  0  0  0  0  0
  -23.5784  -18.3601   19.7095 H   0  0  0  0  0  0
  -24.7051  -17.9972   20.9952 H   0  0  0  0  0  0
  -25.6653  -19.5132   17.6409 H   0  0  0  0  0  0
  -25.2805  -21.1717   18.0872 H   0  0  0  0  0  0
  -24.0174  -19.9865   18.0086 H   0  0  0  0  0  0
  -24.6643  -20.4328   21.7553 H   0  0  0  0  0  0
  -23.4642  -20.7079   20.4971 H   0  0  0  0  0  0
  -24.8666  -21.7442   20.6073 H   0  0  0  0  0  0
  -29.3154  -17.6913   22.6079 H   0  0  0  0  0  0
  -30.5793  -18.0509   21.4560 H   0  0  0  0  0  0
  -29.4144  -22.6587   20.1266 H   0  0  0  0  0  0
  -29.1952  -23.0811   18.4695 H   0  0  0  0  0  0
  -28.0277  -24.3204   20.9421 H   0  0  0  0  0  0
  -26.9670  -24.3110   19.5806 H   0  0  0  0  0  0
  -27.5409  -21.5973   18.1044 H   0  0  0  0  0  0
  -26.6219  -22.2098   19.4559 H   0  0  0  0  0  0
  -29.4818  -16.4383   19.8102 H   0  0  0  0  0  0
  -28.3086  -16.0176   21.0405 H   0  0  0  0  0  0
  -29.7802  -25.4274   19.4655 H   0  0  0  0  0  0
  -26.7645  -17.9039   21.2013 H   0  0  0  0  0  0
  -30.9700  -15.7622   21.9783 H   0  0  0  0  0  0
  1 25  1  0  0  0
  1 30  2  0  0  0
  1 87  1  0  0  0
  2  3  1  0  0  0
  2 25  1  0  0  0
  2 88  1  0  0  0
  2 89  1  0  0  0
  3  4  1  0  0  0
  3 90  1  0  0  0
  3 91  1  0  0  0
  4  5  1  0  0  0
  4 92  1  0  0  0
  4 93  1  0  0  0
  5  6  1  0  0  0
  5 26  1  0  0  0
  5 94  1  0  0  0
  6 25  1  0  0  0
  6 95  1  0  0  0
  6 96  1  0  0  0
  7  8  2  0  0  0
  7 26  1  0  0  0
  7 29  1  0  0  0
  8  9  1  0  0  0
  8 22  1  0  0  0
  9 10  1  0  0  0
  9 27  2  0  0  0
 10 11  2  0  0  0
 10 15  1  0  0  0
 11 12  1  0  0  0
 11 97  1  0  0  0
 12 13  2  0  0  0
 12 98  1  0  0  0
 13 14  1  0  0  0
 13 31  1  0  0  0
 14 15  2  0  0  0
 14 99  1  0  0  0
 15100  1  0  0  0
 16 17  2  0  0  0
 16 21  1  0  0  0
 16 31  1  0  0  0
 17 18  1  0  0  0
 17101  1  0  0  0
 18 19  2  0  0  0
 18102  1  0  0  0
 19 20  1  0  0  0
 19 24  1  0  0  0
 20 21  2  0  0  0
 20103  1  0  0  0
 21 23  1  0  0  0
 22 28  1  0  0  0
 22 32  2  0  0  0
 26 27  1  0  0  0
 28104  1  0  0  0
 28105  1  0  0  0
 29106  1  0  0  0
 29107  1  0  0  0
 33 34  1  0  0  0
 33 66  1  0  0  0
 33 70  2  0  0  0
 34 36  1  0  0  0
 34 59  1  0  0  0
 34108  1  0  0  0
 35 44  2  0  0  0
 35 45  1  0  0  0
 35 68  1  0  0  0
 36 56  1  0  0  0
 36109  1  0  0  0
 37 39  1  0  0  0
 37 47  1  0  0  0
 37 66  1  0  0  0
 37110  1  0  0  0
 38 43  2  0  0  0
 38 46  1  0  0  0
 38 47  1  0  0  0
 39 64  1  0  0  0
 39 67  2  0  0  0
 40 52  1  0  0  0
 40 53  2  0  0  0
 40 58  1  0  0  0
 41111  1  0  0  0
 41112  1  0  0  0
 41113  1  0  0  0
 41 48  1  0  0  0
 42 43  1  0  0  0
 42 66  1  0  0  0
 42114  1  0  0  0
 42115  1  0  0  0
 43 44  1  0  0  0
 44116  1  0  0  0
 45 46  2  0  0  0
 45117  1  0  0  0
 46118  1  0  0  0
 47119  1  0  0  0
 47120  1  0  0  0
 48 56  1  0  0  0
 48 65  1  0  0  0
 48121  1  0  0  0
 49 50  1  0  0  0
 49 53  1  0  0  0
 49 64  1  0  0  0
 49122  1  0  0  0
 50 51  1  0  0  0
 50123  1  0  0  0
 50124  1  0  0  0
 51 52  1  0  0  0
 51125  1  0  0  0
 51126  1  0  0  0
 52127  1  0  0  0
 52128  1  0  0  0
 53 54  1  0  0  0
 54 55  2  0  0  0
 54129  1  0  0  0
 55 57  1  0  0  0
 55130  1  0  0  0
 56 69  2  0  0  0
 57 58  2  0  0  0
 57131  1  0  0  0
 58132  1  0  0  0
 59 60  1  0  0  0
 59 61  1  0  0  0
 59 62  1  0  0  0
 60133  1  0  0  0
 60134  1  0  0  0
 60135  1  0  0  0
 61136  1  0  0  0
 61137  1  0  0  0
 61138  1  0  0  0
 62139  1  0  0  0
 62140  1  0  0  0
 62141  1  0  0  0
 63 65  1  0  0  0
 63142  1  0  0  0
 63143  1  0  0  0
 63144  1  0  0  0
 64145  1  0  0  0
 65146  1  0  0  0
 68 83  1  0  0  0
 71 72  2  0  0  0
 71 85  1  0  0  0
 71147  1  0  0  0
 72 78  1  0  0  0
 72 86  1  0  0  0
 73 84  1  0  0  0
 73 85  1  0  0  0
 73 86  2  0  0  0
 74148  1  0  0  0
 74149  1  0  0  0
 74150  1  0  0  0
 74 83  1  0  0  0
 75151  1  0  0  0
 75152  1  0  0  0
 75153  1  0  0  0
 75 84  1  0  0  0
 76 84  1  0  0  0
 76154  1  0  0  0
 76155  1  0  0  0
 76156  1  0  0  0
 77 84  1  0  0  0
 77157  1  0  0  0
 77158  1  0  0  0
 77159  1  0  0  0
 78 82  1  0  0  0
 78160  1  0  0  0
 78161  1  0  0  0
 79 80  1  0  0  0
 79 81  1  0  0  0
 79162  1  0  0  0
 79163  1  0  0  0
 80 83  1  0  0  0
 80164  1  0  0  0
 80165  1  0  0  0
 81 85  1  0  0  0
 81166  1  0  0  0
 81167  1  0  0  0
 82 87  1  0  0  0
 82168  1  0  0  0
 82169  1  0  0  0
 83170  1  0  0  0
 86171  1  0  0  0
 87172  1  0  0  0
M  CHG  1  86   1
M  ISO  4   1 100  68 101  83 101  87 100
M  END
> <chiral flag>
0

> <version>
0

> <s_m_source_file>
/data/baiqing/PycharmProjects/Reinvent-master-3.2/result/LINK_invent/BTK/process_docking_weight1_custom_sum_contain_oxygen_bond_distance_aromatic_linkinvent_7_9_3/rearranged_h_0090.sdf

> <i_m_source_file_index>
28

> <r_mmod_Potential_Energy-OPLS-2005>
1.0793342590332

> <r_mmod_Stretch_Energy-OPLS-2005>
38.0684356689453

> <r_mmod_Bend_Energy-OPLS-2005>
130.235702514648

> <r_mmod_Torsional_Energy-OPLS-2005>
308.454864501953

> <r_mmod_Improper_Torsional_Energy-OPLS-2005>
11.1371192932129

> <r_mmod_Van_der_Waal_Energy-OPLS-2005>
135.760513305664

> <r_mmod_Electrostatic_Energy-OPLS-2005>
-229.630569458008

> <r_mmod_Solvation_Energy-OPLS-2005>
-403.313018798828

> <b_mmod_Minimization_Converged-OPLS-2005>
0

> <r_mmod_RMS_Derivative-OPLS-2005>
4.00441789627075

$$$$
28
                    3D
 Structure written by MMmdl.
175183  0  0  1  0            999 V2000
  -30.7279  -14.4315   20.5213 C   0  0  0  0  0  0
  -30.4086  -12.2683   19.4180 C   0  0  0  0  0  0
  -29.4868  -12.4890   18.2017 C   0  0  0  0  0  0
  -28.0075  -12.3681   18.6159 C   0  0  0  0  0  0
  -27.6601  -13.2084   19.8745 C   0  0  2  0  0  0
  -28.7082  -13.0016   20.9952 C   0  0  0  0  0  0
  -25.2595  -13.8164   20.5715 C   0  0  0  0  0  0
  -24.1847  -13.0438   20.9209 C   0  0  0  0  0  0
  -24.6411  -11.6911   20.8757 C   0  0  0  0  0  0
  -23.9067  -10.4291   21.0392 C   0  0  0  0  0  0
  -24.3616   -9.4205   21.9169 C   0  0  0  0  0  0
  -23.6294   -8.2240   22.0747 C   0  0  0  0  0  0
  -22.4272   -8.0279   21.3536 C   0  0  0  0  0  0
  -21.9899   -9.0264   20.4652 C   0  0  0  0  0  0
  -22.7232  -10.2149   20.3065 C   0  0  0  0  0  0
  -21.6859   -6.0735   22.5279 C   0  0  0  0  0  0
  -21.4020   -6.5644   23.8209 C   0  0  0  0  0  0
  -21.3656   -5.6797   24.9174 C   0  0  0  0  0  0
  -21.6050   -4.3059   24.7234 C   0  0  0  0  0  0
  -21.8818   -3.8154   23.4351 C   0  0  0  0  0  0
  -21.9195   -4.6966   22.3406 C   0  0  0  0  0  0
  -22.7881  -13.5253   21.1852 C   0  0  0  0  0  0
  -22.1650   -4.2143   21.0980 F   0  0  0  0  0  0
  -21.5622   -3.4547   25.7740 F   0  0  0  0  0  0
  -30.0391  -13.2676   20.4283 N   0  0  0  0  0  0
  -26.3025  -12.9345   20.3396 N   0  0  0  0  0  0
  -25.9341  -11.6494   20.5793 N   0  0  0  0  0  0
  -22.0524  -12.8244   22.0402 N   0  0  0  0  0  0
  -25.4287  -15.1886   20.4094 N   0  0  0  0  0  0
  -31.9047  -14.5497   20.1744 O   0  0  0  0  0  0
  -21.6655   -6.8876   21.4233 O   0  0  0  0  0  0
  -22.3575  -14.5557   20.6691 O   0  0  0  0  0  0
  -24.6144  -31.8677   23.2104 C   0  0  0  0  0  0
  -25.9036  -32.4814   23.8394 C   0  0  1  0  0  0
  -27.2284  -27.4329   20.0959 C   0  0  0  0  0  0
  -25.5910  -33.8620   24.2330 N   0  0  0  0  0  0
  -23.4018  -30.4936   21.5513 C   0  0  2  0  0  0
  -24.8461  -28.9647   20.1129 C   0  0  0  0  0  0
  -22.7400  -29.4668   22.4992 C   0  0  0  0  0  0
  -18.0266  -28.1388   22.8485 C   0  0  0  0  0  0
  -24.1490  -36.7322   23.2640 C   0  0  0  0  0  0
  -25.9310  -30.8367   21.3603 C   0  0  0  0  0  0
  -26.0080  -29.4717   20.7074 C   0  0  0  0  0  0
  -27.2023  -28.7141   20.6951 C   0  0  0  0  0  0
  -26.0468  -26.9505   19.4832 C   0  0  0  0  0  0
  -24.8614  -27.7033   19.4971 C   0  0  0  0  0  0
  -23.6081  -29.8292   20.1655 C   0  0  0  0  0  0
  -25.4109  -36.3114   24.0342 C   0  0  1  0  0  0
  -20.5857  -28.3679   23.1331 C   0  0  2  0  0  0
  -20.6774  -26.9422   22.5423 C   0  0  0  0  0  0
  -19.5752  -26.6401   21.5221 C   0  0  0  0  0  0
  -18.1923  -26.7939   22.1613 C   0  0  0  0  0  0
  -19.1516  -28.8847   23.2903 C   0  0  0  0  0  0
  -18.9454  -30.1456   23.8923 C   0  0  0  0  0  0
  -17.6451  -30.6595   24.0572 C   0  0  0  0  0  0
  -25.9044  -34.9475   23.5125 C   0  0  0  0  0  0
  -16.5345  -29.9097   23.6327 C   0  0  0  0  0  0
  -16.7264  -28.6517   23.0347 C   0  0  0  0  0  0
  -26.4477  -31.6581   25.0712 C   0  0  0  0  0  0
  -25.3758  -31.3666   26.1472 C   0  0  0  0  0  0
  -27.0300  -30.3030   24.6053 C   0  0  0  0  0  0
  -27.6057  -32.4295   25.7462 C   0  0  0  0  0  0
  -27.5583  -37.1804   24.8465 C   0  0  0  0  0  0
  -21.4127  -29.3045   22.3731 N   0  0  0  0  0  0
  -26.4300  -37.3800   23.9414 N   0  0  0  0  0  0
  -24.6680  -31.0796   22.0997 N   0  0  0  0  0  0
  -23.4166  -28.8206   23.3046 O   0  0  0  0  0  0
  -28.3912  -26.6842   20.1381 O   0  0  0  0  0  0
  -26.5598  -34.8915   22.4679 O   0  0  0  0  0  0
  -23.5339  -32.1435   23.7495 O   0  0  0  0  0  0
  -29.1887  -19.2040   20.4065 C   0  0  0  0  0  0
  -29.4721  -17.9453   20.8846 C   0  0  0  0  0  0
  -27.9256  -18.8813   22.1968 C   0  0  0  0  0  0
  -30.5212  -17.0274   18.8321 C   0  0  0  0  0  0
  -23.1629  -17.6444   23.0958 C   0  0  0  0  0  0
  -24.5812  -17.9472   25.1620 C   0  0  0  0  0  0
  -26.8612  -18.9778   23.2494 C   0  0  0  0  0  0
  -25.6024  -18.1961   22.8256 C   0  0  0  0  0  0
  -29.2701  -22.9307   20.4028 C   0  0  0  0  0  0
  -28.3510  -22.2864   21.4712 C   0  0  0  0  0  0
  -29.4496  -24.4658   20.5438 C   0  0  0  0  0  0
  -27.5521  -21.0465   20.9948 C   0  0  0  0  0  0
  -28.2316  -25.2613   20.0310 C   0  0  0  0  0  0
  -30.3966  -16.8791   20.3655 C   0  0  2  0  0  0
  -24.3551  -18.3948   23.7096 C   0  0  0  0  0  0
  -28.2245  -19.7495   21.2117 N   0  0  0  0  0  0
  -28.7065  -17.8100   22.0137 N   0  3  0  0  0  0
  -29.9720  -15.5190   20.7279 N   0  0  0  0  0  0
  -31.4552  -12.3382   19.1184 H   0  0  0  0  0  0
  -30.2796  -11.2614   19.8197 H   0  0  0  0  0  0
  -29.7126  -11.7623   17.4205 H   0  0  0  0  0  0
  -29.6724  -13.4716   17.7654 H   0  0  0  0  0  0
  -27.8054  -11.3139   18.8075 H   0  0  0  0  0  0
  -27.3583  -12.6520   17.7883 H   0  0  0  0  0  0
  -27.6958  -14.2547   19.5705 H   0  0  0  0  0  0
  -28.6693  -11.9775   21.3695 H   0  0  0  0  0  0
  -28.4963  -13.6382   21.8556 H   0  0  0  0  0  0
  -25.2764   -9.5698   22.4733 H   0  0  0  0  0  0
  -24.0005   -7.4626   22.7460 H   0  0  0  0  0  0
  -21.0823   -8.8796   19.8962 H   0  0  0  0  0  0
  -22.3667  -10.9691   19.6189 H   0  0  0  0  0  0
  -21.2016   -7.6157   23.9705 H   0  0  0  0  0  0
  -21.1468   -6.0534   25.9074 H   0  0  0  0  0  0
  -22.0606   -2.7615   23.2859 H   0  0  0  0  0  0
  -22.4164  -11.9905   22.4774 H   0  0  0  0  0  0
  -21.1141  -13.1261   22.2585 H   0  0  0  0  0  0
  -24.6444  -15.8243   20.4990 H   0  0  0  0  0  0
  -26.2498  -15.6249   20.0129 H   0  0  0  0  0  0
  -26.7097  -32.5519   23.1147 H   0  0  0  0  0  0
  -25.0063  -33.9791   25.0474 H   0  0  0  0  0  0
  -22.6910  -31.3101   21.4115 H   0  0  0  0  0  0
  -23.3751  -35.9664   23.3309 H   0  0  0  0  0  0
  -24.3592  -36.8932   22.2060 H   0  0  0  0  0  0
  -23.7243  -37.6528   23.6641 H   0  0  0  0  0  0
  -26.0413  -31.6030   20.5924 H   0  0  0  0  0  0
  -26.8220  -30.8892   21.9756 H   0  0  0  0  0  0
  -28.0975  -29.1002   21.1617 H   0  0  0  0  0  0
  -26.0154  -25.9904   18.9890 H   0  0  0  0  0  0
  -23.9708  -27.3064   19.0310 H   0  0  0  0  0  0
  -23.7150  -30.6047   19.4062 H   0  0  0  0  0  0
  -22.7306  -29.2508   19.8704 H   0  0  0  0  0  0
  -25.1277  -36.1988   25.0844 H   0  0  0  0  0  0
  -20.9941  -28.3251   24.1460 H   0  0  0  0  0  0
  -20.5708  -26.2292   23.3612 H   0  0  0  0  0  0
  -21.6642  -26.7487   22.1203 H   0  0  0  0  0  0
  -19.6936  -25.6321   21.1245 H   0  0  0  0  0  0
  -19.6704  -27.3215   20.6764 H   0  0  0  0  0  0
  -17.4203  -26.6686   21.4009 H   0  0  0  0  0  0
  -18.0318  -26.0088   22.9020 H   0  0  0  0  0  0
  -19.7937  -30.7260   24.2301 H   0  0  0  0  0  0
  -17.5017  -31.6280   24.5165 H   0  0  0  0  0  0
  -15.5347  -30.3010   23.7658 H   0  0  0  0  0  0
  -15.8660  -28.0850   22.7060 H   0  0  0  0  0  0
  -24.5952  -30.6985   25.7806 H   0  0  0  0  0  0
  -24.8929  -32.2814   26.4923 H   0  0  0  0  0  0
  -25.8154  -30.8839   27.0213 H   0  0  0  0  0  0
  -26.2829  -29.6784   24.1148 H   0  0  0  0  0  0
  -27.4134  -29.7264   25.4474 H   0  0  0  0  0  0
  -27.8626  -30.4367   23.9150 H   0  0  0  0  0  0
  -27.2699  -33.3592   26.2066 H   0  0  0  0  0  0
  -28.3858  -32.6860   25.0280 H   0  0  0  0  0  0
  -28.0740  -31.8401   26.5360 H   0  0  0  0  0  0
  -28.2588  -38.0107   24.7524 H   0  0  0  0  0  0
  -28.1081  -36.2639   24.6268 H   0  0  0  0  0  0
  -27.2301  -37.1439   25.8865 H   0  0  0  0  0  0
  -20.9286  -29.8751   21.6935 H   0  0  0  0  0  0
  -26.0183  -38.2878   24.1412 H   0  0  0  0  0  0
  -29.5660  -19.7248   19.5380 H   0  0  0  0  0  0
  -30.9445  -17.9941   18.5619 H   0  0  0  0  0  0
  -29.5456  -16.9457   18.3513 H   0  0  0  0  0  0
  -31.1728  -16.2750   18.3890 H   0  0  0  0  0  0
  -22.2563  -17.7858   23.6850 H   0  0  0  0  0  0
  -23.3568  -16.5721   23.0364 H   0  0  0  0  0  0
  -22.9510  -17.9943   22.0841 H   0  0  0  0  0  0
  -23.6703  -18.0611   25.7513 H   0  0  0  0  0  0
  -25.3511  -18.5436   25.6532 H   0  0  0  0  0  0
  -24.8799  -16.8999   25.2171 H   0  0  0  0  0  0
  -26.6515  -20.0297   23.4400 H   0  0  0  0  0  0
  -27.2908  -18.5723   24.1654 H   0  0  0  0  0  0
  -25.8456  -17.1345   22.7630 H   0  0  0  0  0  0
  -25.3422  -18.4962   21.8092 H   0  0  0  0  0  0
  -28.8951  -22.7241   19.4000 H   0  0  0  0  0  0
  -30.2474  -22.4477   20.4498 H   0  0  0  0  0  0
  -27.6202  -23.0242   21.7984 H   0  0  0  0  0  0
  -28.9289  -22.0497   22.3662 H   0  0  0  0  0  0
  -30.3243  -24.7720   19.9685 H   0  0  0  0  0  0
  -29.6665  -24.7252   21.5813 H   0  0  0  0  0  0
  -27.3068  -21.1184   19.9348 H   0  0  0  0  0  0
  -26.5861  -21.0189   21.4969 H   0  0  0  0  0  0
  -27.3559  -24.9433   20.5999 H   0  0  0  0  0  0
  -28.0533  -25.0037   18.9863 H   0  0  0  0  0  0
  -31.3775  -17.0606   20.8094 H   0  0  0  0  0  0
  -24.1048  -19.4572   23.7224 H   0  0  0  0  0  0
  -28.7086  -16.9983   22.6213 H   0  0  0  0  0  0
  -28.9984  -15.3625   20.9310 H   0  0  0  0  0  0
  1 25  1  0  0  0
  1 30  2  0  0  0
  1 88  1  0  0  0
  2  3  1  0  0  0
  2 25  1  0  0  0
  2 89  1  0  0  0
  2 90  1  0  0  0
  3  4  1  0  0  0
  3 91  1  0  0  0
  3 92  1  0  0  0
  4  5  1  0  0  0
  4 93  1  0  0  0
  4 94  1  0  0  0
  5  6  1  0  0  0
  5 26  1  0  0  0
  5 95  1  0  0  0
  6 25  1  0  0  0
  6 96  1  0  0  0
  6 97  1  0  0  0
  7  8  2  0  0  0
  7 26  1  0  0  0
  7 29  1  0  0  0
  8  9  1  0  0  0
  8 22  1  0  0  0
  9 10  1  0  0  0
  9 27  2  0  0  0
 10 11  2  0  0  0
 10 15  1  0  0  0
 11 12  1  0  0  0
 11 98  1  0  0  0
 12 13  2  0  0  0
 12 99  1  0  0  0
 13 14  1  0  0  0
 13 31  1  0  0  0
 14 15  2  0  0  0
 14100  1  0  0  0
 15101  1  0  0  0
 16 17  2  0  0  0
 16 21  1  0  0  0
 16 31  1  0  0  0
 17 18  1  0  0  0
 17102  1  0  0  0
 18 19  2  0  0  0
 18103  1  0  0  0
 19 20  1  0  0  0
 19 24  1  0  0  0
 20 21  2  0  0  0
 20104  1  0  0  0
 21 23  1  0  0  0
 22 28  1  0  0  0
 22 32  2  0  0  0
 26 27  1  0  0  0
 28105  1  0  0  0
 28106  1  0  0  0
 29107  1  0  0  0
 29108  1  0  0  0
 33 34  1  0  0  0
 33 66  1  0  0  0
 33 70  2  0  0  0
 34 36  1  0  0  0
 34 59  1  0  0  0
 34109  1  0  0  0
 35 44  2  0  0  0
 35 45  1  0  0  0
 35 68  1  0  0  0
 36 56  1  0  0  0
 36110  1  0  0  0
 37 39  1  0  0  0
 37 47  1  0  0  0
 37 66  1  0  0  0
 37111  1  0  0  0
 38 43  2  0  0  0
 38 46  1  0  0  0
 38 47  1  0  0  0
 39 64  1  0  0  0
 39 67  2  0  0  0
 40 52  1  0  0  0
 40 53  2  0  0  0
 40 58  1  0  0  0
 41112  1  0  0  0
 41113  1  0  0  0
 41114  1  0  0  0
 41 48  1  0  0  0
 42 43  1  0  0  0
 42 66  1  0  0  0
 42115  1  0  0  0
 42116  1  0  0  0
 43 44  1  0  0  0
 44117  1  0  0  0
 45 46  2  0  0  0
 45118  1  0  0  0
 46119  1  0  0  0
 47120  1  0  0  0
 47121  1  0  0  0
 48 56  1  0  0  0
 48 65  1  0  0  0
 48122  1  0  0  0
 49 50  1  0  0  0
 49 53  1  0  0  0
 49 64  1  0  0  0
 49123  1  0  0  0
 50 51  1  0  0  0
 50124  1  0  0  0
 50125  1  0  0  0
 51 52  1  0  0  0
 51126  1  0  0  0
 51127  1  0  0  0
 52128  1  0  0  0
 52129  1  0  0  0
 53 54  1  0  0  0
 54 55  2  0  0  0
 54130  1  0  0  0
 55 57  1  0  0  0
 55131  1  0  0  0
 56 69  2  0  0  0
 57 58  2  0  0  0
 57132  1  0  0  0
 58133  1  0  0  0
 59 60  1  0  0  0
 59 61  1  0  0  0
 59 62  1  0  0  0
 60134  1  0  0  0
 60135  1  0  0  0
 60136  1  0  0  0
 61137  1  0  0  0
 61138  1  0  0  0
 61139  1  0  0  0
 62140  1  0  0  0
 62141  1  0  0  0
 62142  1  0  0  0
 63 65  1  0  0  0
 63143  1  0  0  0
 63144  1  0  0  0
 63145  1  0  0  0
 64146  1  0  0  0
 65147  1  0  0  0
 68 83  1  0  0  0
 71 72  2  0  0  0
 71 86  1  0  0  0
 71148  1  0  0  0
 72 84  1  0  0  0
 72 87  1  0  0  0
 73 77  1  0  0  0
 73 86  1  0  0  0
 73 87  2  0  0  0
 74149  1  0  0  0
 74150  1  0  0  0
 74151  1  0  0  0
 74 84  1  0  0  0
 75152  1  0  0  0
 75153  1  0  0  0
 75154  1  0  0  0
 75 85  1  0  0  0
 76 85  1  0  0  0
 76155  1  0  0  0
 76156  1  0  0  0
 76157  1  0  0  0
 77 78  1  0  0  0
 77158  1  0  0  0
 77159  1  0  0  0
 78 85  1  0  0  0
 78160  1  0  0  0
 78161  1  0  0  0
 79 80  1  0  0  0
 79 81  1  0  0  0
 79162  1  0  0  0
 79163  1  0  0  0
 80 82  1  0  0  0
 80164  1  0  0  0
 80165  1  0  0  0
 81 83  1  0  0  0
 81166  1  0  0  0
 81167  1  0  0  0
 82 86  1  0  0  0
 82168  1  0  0  0
 82169  1  0  0  0
 83170  1  0  0  0
 83171  1  0  0  0
 84 88  1  0  0  0
 84172  1  0  0  0
 85173  1  0  0  0
 87174  1  0  0  0
 88175  1  0  0  0
M  CHG  1  87   1
M  ISO  4   1 100  68 101  83 101  88 100
M  END
> <chiral flag>
0

> <version>
0

> <s_m_source_file>
/data/baiqing/PycharmProjects/Reinvent-master-3.2/result/LINK_invent/BTK/process_docking_weight1_custom_sum_contain_oxygen_bond_distance_aromatic_linkinvent_7_9_3/rearranged_h_0090.sdf

> <i_m_source_file_index>
29

> <r_mmod_Potential_Energy-OPLS-2005>
-165.968704223633

> <r_mmod_Stretch_Energy-OPLS-2005>
34.7177772521973

> <r_mmod_Bend_Energy-OPLS-2005>
95.9503326416016

> <r_mmod_Torsional_Energy-OPLS-2005>
243.278610229492

> <r_mmod_Improper_Torsional_Energy-OPLS-2005>
8.49099349975586

> <r_mmod_Van_der_Waal_Energy-OPLS-2005>
124.670349121094

> <r_mmod_Electrostatic_Energy-OPLS-2005>
-276.107482910156

> <r_mmod_Solvation_Energy-OPLS-2005>
-414.070861816406

> <b_mmod_Minimization_Converged-OPLS-2005>
0

> <r_mmod_RMS_Derivative-OPLS-2005>
2.59099435806274

$$$$
29
                    3D
 Structure written by MMmdl.
163171  0  0  1  0            999 V2000
  -30.5525  -14.7568   20.4648 C   0  0  0  0  0  0
  -30.4479  -12.4653   19.4484 C   0  0  0  0  0  0
  -29.5099  -12.5076   18.2196 C   0  0  0  0  0  0
  -28.0356  -12.3233   18.6399 C   0  0  0  0  0  0
  -27.6416  -13.2182   19.8453 C   0  0  2  0  0  0
  -28.6897  -13.1232   20.9731 C   0  0  0  0  0  0
  -25.2524  -13.8163   20.5674 C   0  0  0  0  0  0
  -24.1795  -13.0431   20.9197 C   0  0  0  0  0  0
  -24.6364  -11.6902   20.8737 C   0  0  0  0  0  0
  -23.9039  -10.4285   21.0404 C   0  0  0  0  0  0
  -24.3597   -9.4206   21.9191 C   0  0  0  0  0  0
  -23.6273   -8.2242   22.0757 C   0  0  0  0  0  0
  -22.4266   -8.0278   21.3536 C   0  0  0  0  0  0
  -21.9883   -9.0247   20.4646 C   0  0  0  0  0  0
  -22.7206  -10.2125   20.3058 C   0  0  0  0  0  0
  -21.6848   -6.0722   22.5275 C   0  0  0  0  0  0
  -21.4012   -6.5625   23.8204 C   0  0  0  0  0  0
  -21.3660   -5.6783   24.9170 C   0  0  0  0  0  0
  -21.6042   -4.3042   24.7221 C   0  0  0  0  0  0
  -21.8821   -3.8135   23.4341 C   0  0  0  0  0  0
  -21.9184   -4.6952   22.3400 C   0  0  0  0  0  0
  -22.7824  -13.5238   21.1841 C   0  0  0  0  0  0
  -22.1667   -4.2143   21.0978 F   0  0  0  0  0  0
  -21.5622   -3.4523   25.7727 F   0  0  0  0  0  0
  -29.9830  -13.5060   20.3906 N   0  0  0  0  0  0
  -26.2927  -12.9340   20.3228 N   0  0  0  0  0  0
  -25.9284  -11.6502   20.5720 N   0  0  0  0  0  0
  -22.0447  -12.8264   22.0406 N   0  0  0  0  0  0
  -25.4215  -15.1890   20.4088 N   0  0  0  0  0  0
  -31.7551  -14.9031   20.2357 O   0  0  0  0  0  0
  -21.6637   -6.8870   21.4237 O   0  0  0  0  0  0
  -22.3525  -14.5549   20.6672 O   0  0  0  0  0  0
  -24.6322  -31.8540   23.1960 C   0  0  0  0  0  0
  -25.9133  -32.4749   23.8325 C   0  0  1  0  0  0
  -27.2238  -27.2652   20.1420 C   0  0  0  0  0  0
  -25.5931  -33.8547   24.2255 N   0  0  0  0  0  0
  -23.4291  -30.4732   21.5400 C   0  0  2  0  0  0
  -24.8760  -28.9100   20.1198 C   0  0  0  0  0  0
  -22.7504  -29.4583   22.4912 C   0  0  0  0  0  0
  -18.0293  -28.1383   22.8482 C   0  0  0  0  0  0
  -24.1477  -36.7266   23.2648 C   0  0  0  0  0  0
  -25.9731  -30.7691   21.3730 C   0  0  0  0  0  0
  -26.0482  -29.3896   20.7190 C   0  0  0  0  0  0
  -27.2295  -28.5835   20.7081 C   0  0  0  0  0  0
  -26.0275  -26.8343   19.5360 C   0  0  0  0  0  0
  -24.8691  -27.6387   19.5197 C   0  0  0  0  0  0
  -23.6479  -29.7994   20.1596 C   0  0  0  0  0  0
  -25.4107  -36.3060   24.0332 C   0  0  1  0  0  0
  -20.5898  -28.3678   23.1261 C   0  0  2  0  0  0
  -20.6766  -26.9390   22.5408 C   0  0  0  0  0  0
  -19.5745  -26.6373   21.5202 C   0  0  0  0  0  0
  -18.1927  -26.7925   22.1614 C   0  0  0  0  0  0
  -19.1550  -28.8849   23.2865 C   0  0  0  0  0  0
  -18.9475  -30.1454   23.8875 C   0  0  0  0  0  0
  -17.6474  -30.6585   24.0552 C   0  0  0  0  0  0
  -25.9051  -34.9433   23.5092 C   0  0  0  0  0  0
  -16.5359  -29.9080   23.6341 C   0  0  0  0  0  0
  -16.7278  -28.6500   23.0354 C   0  0  0  0  0  0
  -26.4513  -31.6590   25.0729 C   0  0  0  0  0  0
  -25.3752  -31.3742   26.1464 C   0  0  0  0  0  0
  -27.0389  -30.3016   24.6236 C   0  0  0  0  0  0
  -27.6054  -32.4358   25.7500 C   0  0  0  0  0  0
  -27.5570  -37.1780   24.8471 C   0  0  0  0  0  0
  -21.4210  -29.3019   22.3640 N   0  0  0  0  0  0
  -26.4276  -37.3766   23.9422 N   0  0  0  0  0  0
  -24.6969  -31.0521   22.0920 N   0  0  0  0  0  0
  -23.4197  -28.8134   23.3018 O   0  0  0  0  0  0
  -28.3385  -26.4055   20.1130 O   0  0  0  0  0  0
  -26.5624  -34.8914   22.4662 O   0  0  0  0  0  0
  -23.5463  -32.1339   23.7263 O   0  0  0  0  0  0
  -31.0438  -20.6236   19.2363 C   0  0  0  0  0  0
  -30.0734  -19.8854   19.9517 C   0  0  0  0  0  0
  -32.1720  -19.9793   18.7070 C   0  0  0  0  0  0
  -30.3597  -18.4344   20.0667 C   0  0  0  0  0  0
  -33.3957  -20.4413   16.5187 C   0  0  0  0  0  0
  -29.3795  -23.8604   18.7372 C   0  0  0  0  0  0
  -28.8480  -20.7614   20.4542 C   0  0  0  0  0  0
  -33.2733  -20.7647   18.0148 C   0  0  0  0  0  0
  -29.6608  -17.3163   20.9327 C   0  0  0  0  0  0
  -29.0103  -22.3528   20.8298 C   0  0  0  0  0  0
  -28.2801  -25.0469   20.7498 C   0  0  0  0  0  0
  -28.4849  -23.6356   19.9627 C   0  0  1  0  0  0
  -32.3607  -18.6507   18.8271 N   0  0  0  0  0  0
  -31.4688  -17.9107   19.4848 N   0  0  0  0  0  0
  -29.6609  -15.8089   20.6083 N   0  0  0  0  0  0
  -31.4819  -12.6308   19.1398 H   0  0  0  0  0  0
  -30.4272  -11.4820   19.9217 H   0  0  0  0  0  0
  -29.7921  -11.7353   17.5028 H   0  0  0  0  0  0
  -29.6239  -13.4615   17.7018 H   0  0  0  0  0  0
  -27.8936  -11.2731   18.9004 H   0  0  0  0  0  0
  -27.3737  -12.5163   17.7951 H   0  0  0  0  0  0
  -27.6385  -14.2422   19.4721 H   0  0  0  0  0  0
  -28.7321  -12.1098   21.3742 H   0  0  0  0  0  0
  -28.4241  -13.7661   21.8141 H   0  0  0  0  0  0
  -25.2743   -9.5682   22.4763 H   0  0  0  0  0  0
  -23.9973   -7.4632   22.7475 H   0  0  0  0  0  0
  -21.0805   -8.8754   19.8965 H   0  0  0  0  0  0
  -22.3654  -10.9658   19.6170 H   0  0  0  0  0  0
  -21.2022   -7.6136   23.9706 H   0  0  0  0  0  0
  -21.1482   -6.0516   25.9070 H   0  0  0  0  0  0
  -22.0602   -2.7598   23.2838 H   0  0  0  0  0  0
  -22.4054  -11.9951   22.4852 H   0  0  0  0  0  0
  -21.1067  -13.1316   22.2575 H   0  0  0  0  0  0
  -24.6424  -15.8314   20.5035 H   0  0  0  0  0  0
  -26.2432  -15.6233   20.0101 H   0  0  0  0  0  0
  -26.7199  -32.5404   23.1062 H   0  0  0  0  0  0
  -25.0103  -33.9686   25.0418 H   0  0  0  0  0  0
  -22.7254  -31.2945   21.3911 H   0  0  0  0  0  0
  -23.3750  -35.9590   23.3311 H   0  0  0  0  0  0
  -24.3564  -36.8891   22.2064 H   0  0  0  0  0  0
  -23.7215  -37.6458   23.6672 H   0  0  0  0  0  0
  -26.1185  -31.5285   20.6032 H   0  0  0  0  0  0
  -26.8468  -30.8135   22.0115 H   0  0  0  0  0  0
  -28.1364  -28.9535   21.1667 H   0  0  0  0  0  0
  -25.9892  -25.8535   19.0810 H   0  0  0  0  0  0
  -23.9668  -27.2612   19.0577 H   0  0  0  0  0  0
  -23.7740  -30.5718   19.4005 H   0  0  0  0  0  0
  -22.7661  -29.2340   19.8548 H   0  0  0  0  0  0
  -25.1285  -36.1904   25.0825 H   0  0  0  0  0  0
  -20.9984  -28.3261   24.1382 H   0  0  0  0  0  0
  -20.5640  -26.2287   23.3613 H   0  0  0  0  0  0
  -21.6635  -26.7397   22.1210 H   0  0  0  0  0  0
  -19.6892  -25.6283   21.1232 H   0  0  0  0  0  0
  -19.6691  -27.3181   20.6733 H   0  0  0  0  0  0
  -17.4188  -26.6668   21.4023 H   0  0  0  0  0  0
  -18.0328  -26.0081   22.9026 H   0  0  0  0  0  0
  -19.7957  -30.7275   24.2219 H   0  0  0  0  0  0
  -17.5035  -31.6262   24.5158 H   0  0  0  0  0  0
  -15.5355  -30.2963   23.7698 H   0  0  0  0  0  0
  -15.8680  -28.0815   22.7070 H   0  0  0  0  0  0
  -24.5898  -30.7126   25.7797 H   0  0  0  0  0  0
  -24.8990  -32.2919   26.4930 H   0  0  0  0  0  0
  -25.8083  -30.8890   27.0221 H   0  0  0  0  0  0
  -26.2989  -29.6730   24.1273 H   0  0  0  0  0  0
  -27.4084  -29.7320   25.4773 H   0  0  0  0  0  0
  -27.8851  -30.4309   23.9486 H   0  0  0  0  0  0
  -27.2640  -33.3650   26.2074 H   0  0  0  0  0  0
  -28.3853  -32.6937   25.0325 H   0  0  0  0  0  0
  -28.0738  -31.8509   26.5425 H   0  0  0  0  0  0
  -28.2583  -38.0082   24.7515 H   0  0  0  0  0  0
  -28.1060  -36.2606   24.6284 H   0  0  0  0  0  0
  -27.2293  -37.1420   25.8877 H   0  0  0  0  0  0
  -20.9395  -29.8723   21.6829 H   0  0  0  0  0  0
  -26.0151  -38.2832   24.1449 H   0  0  0  0  0  0
  -30.9491  -21.6884   19.1058 H   0  0  0  0  0  0
  -34.1908  -21.0296   16.0584 H   0  0  0  0  0  0
  -32.4672  -20.6571   15.9894 H   0  0  0  0  0  0
  -33.6307  -19.3876   16.3656 H   0  0  0  0  0  0
  -29.4173  -22.9709   18.1091 H   0  0  0  0  0  0
  -30.3976  -24.1201   19.0288 H   0  0  0  0  0  0
  -28.9961  -24.6729   18.1189 H   0  0  0  0  0  0
  -28.4942  -20.2566   21.3534 H   0  0  0  0  0  0
  -28.0326  -20.6460   19.7381 H   0  0  0  0  0  0
  -34.2148  -20.5576   18.5241 H   0  0  0  0  0  0
  -33.0943  -21.8326   18.1439 H   0  0  0  0  0  0
  -28.6153  -17.6118   21.0212 H   0  0  0  0  0  0
  -30.0691  -17.4137   21.9391 H   0  0  0  0  0  0
  -30.0336  -22.5357   21.1577 H   0  0  0  0  0  0
  -28.4417  -22.4434   21.7562 H   0  0  0  0  0  0
  -29.0714  -25.0892   21.4980 H   0  0  0  0  0  0
  -27.3661  -24.9759   21.3412 H   0  0  0  0  0  0
  -27.4978  -23.3744   19.5776 H   0  0  0  0  0  0
  -28.7202  -15.4508   20.6192 H   0  0  0  0  0  0
  1 25  1  0  0  0
  1 30  2  0  0  0
  1 85  1  0  0  0
  2  3  1  0  0  0
  2 25  1  0  0  0
  2 86  1  0  0  0
  2 87  1  0  0  0
  3  4  1  0  0  0
  3 88  1  0  0  0
  3 89  1  0  0  0
  4  5  1  0  0  0
  4 90  1  0  0  0
  4 91  1  0  0  0
  5  6  1  0  0  0
  5 26  1  0  0  0
  5 92  1  0  0  0
  6 25  1  0  0  0
  6 93  1  0  0  0
  6 94  1  0  0  0
  7  8  2  0  0  0
  7 26  1  0  0  0
  7 29  1  0  0  0
  8  9  1  0  0  0
  8 22  1  0  0  0
  9 10  1  0  0  0
  9 27  2  0  0  0
 10 11  2  0  0  0
 10 15  1  0  0  0
 11 12  1  0  0  0
 11 95  1  0  0  0
 12 13  2  0  0  0
 12 96  1  0  0  0
 13 14  1  0  0  0
 13 31  1  0  0  0
 14 15  2  0  0  0
 14 97  1  0  0  0
 15 98  1  0  0  0
 16 17  2  0  0  0
 16 21  1  0  0  0
 16 31  1  0  0  0
 17 18  1  0  0  0
 17 99  1  0  0  0
 18 19  2  0  0  0
 18100  1  0  0  0
 19 20  1  0  0  0
 19 24  1  0  0  0
 20 21  2  0  0  0
 20101  1  0  0  0
 21 23  1  0  0  0
 22 28  1  0  0  0
 22 32  2  0  0  0
 26 27  1  0  0  0
 28102  1  0  0  0
 28103  1  0  0  0
 29104  1  0  0  0
 29105  1  0  0  0
 33 34  1  0  0  0
 33 66  1  0  0  0
 33 70  2  0  0  0
 34 36  1  0  0  0
 34 59  1  0  0  0
 34106  1  0  0  0
 35 44  2  0  0  0
 35 45  1  0  0  0
 35 68  1  0  0  0
 36 56  1  0  0  0
 36107  1  0  0  0
 37 39  1  0  0  0
 37 47  1  0  0  0
 37 66  1  0  0  0
 37108  1  0  0  0
 38 43  2  0  0  0
 38 46  1  0  0  0
 38 47  1  0  0  0
 39 64  1  0  0  0
 39 67  2  0  0  0
 40 52  1  0  0  0
 40 53  2  0  0  0
 40 58  1  0  0  0
 41109  1  0  0  0
 41110  1  0  0  0
 41111  1  0  0  0
 41 48  1  0  0  0
 42 43  1  0  0  0
 42 66  1  0  0  0
 42112  1  0  0  0
 42113  1  0  0  0
 43 44  1  0  0  0
 44114  1  0  0  0
 45 46  2  0  0  0
 45115  1  0  0  0
 46116  1  0  0  0
 47117  1  0  0  0
 47118  1  0  0  0
 48 56  1  0  0  0
 48 65  1  0  0  0
 48119  1  0  0  0
 49 50  1  0  0  0
 49 53  1  0  0  0
 49 64  1  0  0  0
 49120  1  0  0  0
 50 51  1  0  0  0
 50121  1  0  0  0
 50122  1  0  0  0
 51 52  1  0  0  0
 51123  1  0  0  0
 51124  1  0  0  0
 52125  1  0  0  0
 52126  1  0  0  0
 53 54  1  0  0  0
 54 55  2  0  0  0
 54127  1  0  0  0
 55 57  1  0  0  0
 55128  1  0  0  0
 56 69  2  0  0  0
 57 58  2  0  0  0
 57129  1  0  0  0
 58130  1  0  0  0
 59 60  1  0  0  0
 59 61  1  0  0  0
 59 62  1  0  0  0
 60131  1  0  0  0
 60132  1  0  0  0
 60133  1  0  0  0
 61134  1  0  0  0
 61135  1  0  0  0
 61136  1  0  0  0
 62137  1  0  0  0
 62138  1  0  0  0
 62139  1  0  0  0
 63 65  1  0  0  0
 63140  1  0  0  0
 63141  1  0  0  0
 63142  1  0  0  0
 64143  1  0  0  0
 65144  1  0  0  0
 68 81  1  0  0  0
 71 72  2  0  0  0
 71 73  1  0  0  0
 71145  1  0  0  0
 72 74  1  0  0  0
 72 77  1  0  0  0
 73 78  1  0  0  0
 73 83  2  0  0  0
 74 79  1  0  0  0
 74 84  2  0  0  0
 75 78  1  0  0  0
 75146  1  0  0  0
 75147  1  0  0  0
 75148  1  0  0  0
 76149  1  0  0  0
 76150  1  0  0  0
 76151  1  0  0  0
 76 82  1  0  0  0
 77 80  1  0  0  0
 77152  1  0  0  0
 77153  1  0  0  0
 78154  1  0  0  0
 78155  1  0  0  0
 79 85  1  0  0  0
 79156  1  0  0  0
 79157  1  0  0  0
 80 82  1  0  0  0
 80158  1  0  0  0
 80159  1  0  0  0
 81 82  1  0  0  0
 81160  1  0  0  0
 81161  1  0  0  0
 82162  1  0  0  0
 83 84  1  0  0  0
 85163  1  0  0  0
M  ISO  4   1 100  68 101  81 101  85 100
M  END
> <chiral flag>
0

> <version>
0

> <s_m_source_file>
/data/baiqing/PycharmProjects/Reinvent-master-3.2/result/LINK_invent/BTK/process_docking_weight1_custom_sum_contain_oxygen_bond_distance_aromatic_linkinvent_7_9_3/rearranged_h_0090.sdf

> <i_m_source_file_index>
30

> <r_mmod_Potential_Energy-OPLS-2005>
199.954864501953

> <r_mmod_Stretch_Energy-OPLS-2005>
137.569320678711

> <r_mmod_Bend_Energy-OPLS-2005>
236.514358520508

> <r_mmod_Torsional_Energy-OPLS-2005>
239.257904052734

> <r_mmod_Improper_Torsional_Energy-OPLS-2005>
5.40398645401001

> <r_mmod_Van_der_Waal_Energy-OPLS-2005>
129.183319091797

> <r_mmod_Electrostatic_Energy-OPLS-2005>
-379.784759521484

> <r_mmod_Solvation_Energy-OPLS-2005>
-255.017852783203

> <b_mmod_Minimization_Converged-OPLS-2005>
0

> <r_mmod_RMS_Derivative-OPLS-2005>
2.10325121879578

$$$$
30
                    3D
 Structure written by MMmdl.
169177  0  0  1  0            999 V2000
  -30.6670  -14.5335   20.5388 C   0  0  0  0  0  0
  -30.4233  -12.3318   19.4273 C   0  0  0  0  0  0
  -29.4899  -12.4859   18.2098 C   0  0  0  0  0  0
  -28.0232  -12.3140   18.6439 C   0  0  0  0  0  0
  -27.6593  -13.1981   19.8673 C   0  0  2  0  0  0
  -28.7010  -13.0428   20.9978 C   0  0  0  0  0  0
  -25.2653  -13.8156   20.5708 C   0  0  0  0  0  0
  -24.1907  -13.0420   20.9139 C   0  0  0  0  0  0
  -24.6440  -11.6897   20.8717 C   0  0  0  0  0  0
  -23.9111  -10.4264   21.0374 C   0  0  0  0  0  0
  -24.3642   -9.4184   21.9166 C   0  0  0  0  0  0
  -23.6317   -8.2226   22.0767 C   0  0  0  0  0  0
  -22.4308   -8.0272   21.3531 C   0  0  0  0  0  0
  -21.9922   -9.0258   20.4637 C   0  0  0  0  0  0
  -22.7279  -10.2131   20.3020 C   0  0  0  0  0  0
  -21.6875   -6.0723   22.5287 C   0  0  0  0  0  0
  -21.4004   -6.5614   23.8213 C   0  0  0  0  0  0
  -21.3653   -5.6769   24.9183 C   0  0  0  0  0  0
  -21.6090   -4.3036   24.7226 C   0  0  0  0  0  0
  -21.8838   -3.8136   23.4339 C   0  0  0  0  0  0
  -21.9193   -4.6953   22.3392 C   0  0  0  0  0  0
  -22.7920  -13.5206   21.1828 C   0  0  0  0  0  0
  -22.1695   -4.2147   21.0973 F   0  0  0  0  0  0
  -21.5643   -3.4508   25.7720 F   0  0  0  0  0  0
  -30.0163  -13.3461   20.4133 N   0  0  0  0  0  0
  -26.3055  -12.9293   20.3357 N   0  0  0  0  0  0
  -25.9374  -11.6462   20.5816 N   0  0  0  0  0  0
  -22.0583  -12.8153   22.0367 N   0  0  0  0  0  0
  -25.4310  -15.1919   20.4181 N   0  0  0  0  0  0
  -31.8540  -14.6837   20.2272 O   0  0  0  0  0  0
  -21.6678   -6.8886   21.4254 O   0  0  0  0  0  0
  -22.3554  -14.5456   20.6670 O   0  0  0  0  0  0
  -24.6181  -31.8655   23.1925 C   0  0  0  0  0  0
  -25.9014  -32.4832   23.8343 C   0  0  1  0  0  0
  -27.2428  -27.3782   20.1299 C   0  0  0  0  0  0
  -25.5842  -33.8624   24.2322 N   0  0  0  0  0  0
  -23.4115  -30.4855   21.5332 C   0  0  2  0  0  0
  -24.8685  -28.9341   20.1230 C   0  0  0  0  0  0
  -22.7355  -29.4776   22.4938 C   0  0  0  0  0  0
  -18.0235  -28.1486   22.8426 C   0  0  0  0  0  0
  -24.1486  -36.7308   23.2636 C   0  0  0  0  0  0
  -25.9486  -30.8227   21.3502 C   0  0  0  0  0  0
  -26.0334  -29.4478   20.7085 C   0  0  0  0  0  0
  -27.2305  -28.6856   20.6904 C   0  0  0  0  0  0
  -26.0651  -26.8940   19.5336 C   0  0  0  0  0  0
  -24.8794  -27.6546   19.5361 C   0  0  0  0  0  0
  -23.6237  -29.7867   20.1641 C   0  0  0  0  0  0
  -25.4110  -36.3151   24.0352 C   0  0  1  0  0  0
  -20.5789  -28.3946   23.1208 C   0  0  2  0  0  0
  -20.6708  -26.9670   22.5320 C   0  0  0  0  0  0
  -19.5736  -26.6528   21.5118 C   0  0  0  0  0  0
  -18.1964  -26.8003   22.1563 C   0  0  0  0  0  0
  -19.1417  -28.8977   23.2884 C   0  0  0  0  0  0
  -18.9234  -30.1515   23.9008 C   0  0  0  0  0  0
  -17.6234  -30.6644   24.0682 C   0  0  0  0  0  0
  -25.9048  -34.9510   23.5127 C   0  0  0  0  0  0
  -16.5183  -29.9135   23.6322 C   0  0  0  0  0  0
  -16.7219  -28.6587   23.0246 C   0  0  0  0  0  0
  -26.4446  -31.6643   25.0712 C   0  0  0  0  0  0
  -25.3690  -31.3706   26.1422 C   0  0  0  0  0  0
  -27.0245  -30.3098   24.6074 C   0  0  0  0  0  0
  -27.6039  -32.4345   25.7467 C   0  0  0  0  0  0
  -27.5606  -37.1799   24.8483 C   0  0  0  0  0  0
  -21.4039  -29.3420   22.3719 N   0  0  0  0  0  0
  -26.4330  -37.3830   23.9407 N   0  0  0  0  0  0
  -24.6779  -31.0704   22.0855 N   0  0  0  0  0  0
  -23.4039  -28.8200   23.2922 O   0  0  0  0  0  0
  -28.3718  -26.5786   20.1559 O   0  0  0  0  0  0
  -26.5664  -34.8971   22.4761 O   0  0  0  0  0  0
  -23.5333  -32.1386   23.7325 O   0  0  0  0  0  0
  -27.9345  -18.1533   21.9187 C   0  0  0  0  0  0
  -29.2044  -17.9402   21.4307 C   0  0  0  0  0  0
  -28.5113  -20.0087   20.8152 C   0  0  0  0  0  0
  -23.0421  -20.2156   21.9519 C   0  0  0  0  0  0
  -23.1289  -21.1127   19.5785 C   0  0  0  0  0  0
  -30.1638  -16.7559   21.5918 C   0  0  0  0  0  0
  -28.5289  -21.3705   20.1138 C   0  0  0  0  0  0
  -28.5688  -22.6810   20.9746 C   0  0  0  0  0  0
  -28.5414  -24.0121   20.1280 C   0  0  0  0  0  0
  -25.2491  -20.1125   20.6223 C   0  0  0  0  0  0
  -26.2144  -20.0434   21.8328 C   0  0  0  0  0  0
  -28.2766  -25.3384   20.9189 C   0  0  0  0  0  0
  -23.9213  -20.8788   20.8843 C   0  0  0  0  0  0
  -27.5240  -19.4170   21.5241 N   0  0  0  0  0  0
  -29.4966  -19.0917   20.7359 N   0  3  0  0  0  0
  -29.8770  -15.6146   20.6822 N   0  0  0  0  0  0
  -31.4664  -12.4364   19.1184 H   0  0  0  0  0  0
  -30.3273  -11.3253   19.8448 H   0  0  0  0  0  0
  -29.7409  -11.7491   17.4475 H   0  0  0  0  0  0
  -29.6391  -13.4688   17.7520 H   0  0  0  0  0  0
  -27.8839  -11.2651   18.9051 H   0  0  0  0  0  0
  -27.3469  -12.5134   17.8126 H   0  0  0  0  0  0
  -27.6821  -14.2337   19.5268 H   0  0  0  0  0  0
  -28.6931  -12.0312   21.4110 H   0  0  0  0  0  0
  -28.4706  -13.7070   21.8374 H   0  0  0  0  0  0
  -25.2759   -9.5688   22.4809 H   0  0  0  0  0  0
  -24.0016   -7.4590   22.7472 H   0  0  0  0  0  0
  -21.0843   -8.8794   19.8916 H   0  0  0  0  0  0
  -22.3723  -10.9711   19.6164 H   0  0  0  0  0  0
  -21.2024   -7.6137   23.9669 H   0  0  0  0  0  0
  -21.1446   -6.0530   25.9062 H   0  0  0  0  0  0
  -22.0613   -2.7598   23.2854 H   0  0  0  0  0  0
  -22.4177  -11.9806   22.4771 H   0  0  0  0  0  0
  -21.1197  -13.1171   22.2585 H   0  0  0  0  0  0
  -24.6410  -15.8264   20.4769 H   0  0  0  0  0  0
  -26.2881  -15.6456   20.1328 H   0  0  0  0  0  0
  -26.7153  -32.5591   23.1162 H   0  0  0  0  0  0
  -24.9856  -33.9804   25.0364 H   0  0  0  0  0  0
  -22.7066  -31.3018   21.3620 H   0  0  0  0  0  0
  -23.3789  -35.9616   23.3332 H   0  0  0  0  0  0
  -24.3531  -36.8872   22.2048 H   0  0  0  0  0  0
  -23.7206  -37.6496   23.6623 H   0  0  0  0  0  0
  -26.0658  -31.5793   20.5689 H   0  0  0  0  0  0
  -26.8330  -30.8914   21.9746 H   0  0  0  0  0  0
  -28.1373  -29.0702   21.1320 H   0  0  0  0  0  0
  -26.0580  -25.9159   19.0734 H   0  0  0  0  0  0
  -23.9789  -27.2510   19.0975 H   0  0  0  0  0  0
  -23.7098  -30.5301   19.3726 H   0  0  0  0  0  0
  -22.7649  -29.1613   19.9033 H   0  0  0  0  0  0
  -25.1279  -36.2055   25.0858 H   0  0  0  0  0  0
  -21.0018  -28.3528   24.1278 H   0  0  0  0  0  0
  -20.5523  -26.2507   23.3475 H   0  0  0  0  0  0
  -21.6601  -26.7882   22.1165 H   0  0  0  0  0  0
  -19.7025  -25.6421   21.1255 H   0  0  0  0  0  0
  -19.6612  -27.3243   20.6571 H   0  0  0  0  0  0
  -17.4202  -26.6528   21.4030 H   0  0  0  0  0  0
  -18.0630  -26.0113   22.8935 H   0  0  0  0  0  0
  -19.7640  -30.7315   24.2482 H   0  0  0  0  0  0
  -17.4774  -31.6326   24.5340 H   0  0  0  0  0  0
  -15.5126  -30.3007   23.7491 H   0  0  0  0  0  0
  -15.8740  -28.0859   22.6765 H   0  0  0  0  0  0
  -24.5940  -30.7008   25.7661 H   0  0  0  0  0  0
  -24.8810  -32.2850   26.4849 H   0  0  0  0  0  0
  -25.8029  -30.8863   27.0198 H   0  0  0  0  0  0
  -26.2778  -29.6921   24.1076 H   0  0  0  0  0  0
  -27.3931  -29.7284   25.4528 H   0  0  0  0  0  0
  -27.8680  -30.4352   23.9268 H   0  0  0  0  0  0
  -27.2720  -33.3671   26.2039 H   0  0  0  0  0  0
  -28.3868  -32.6867   25.0312 H   0  0  0  0  0  0
  -28.0729  -31.8489   26.5375 H   0  0  0  0  0  0
  -28.2651  -38.0077   24.7556 H   0  0  0  0  0  0
  -28.1077  -36.2597   24.6314 H   0  0  0  0  0  0
  -27.2301  -37.1502   25.8885 H   0  0  0  0  0  0
  -20.9230  -29.9583   21.7286 H   0  0  0  0  0  0
  -26.0233  -38.2929   24.1392 H   0  0  0  0  0  0
  -27.3170  -17.4971   22.5164 H   0  0  0  0  0  0
  -22.0472  -20.6674   22.0015 H   0  0  0  0  0  0
  -23.4775  -20.3130   22.9450 H   0  0  0  0  0  0
  -22.9051  -19.1556   21.7516 H   0  0  0  0  0  0
  -22.1918  -21.6390   19.7428 H   0  0  0  0  0  0
  -22.8703  -20.1713   19.0913 H   0  0  0  0  0  0
  -23.7075  -21.7106   18.8682 H   0  0  0  0  0  0
  -31.1965  -17.1039   21.4762 H   0  0  0  0  0  0
  -30.0931  -16.4335   22.6424 H   0  0  0  0  0  0
  -27.6785  -21.3959   19.4385 H   0  0  0  0  0  0
  -29.4068  -21.3401   19.4701 H   0  0  0  0  0  0
  -29.4742  -22.6632   21.5870 H   0  0  0  0  0  0
  -27.7282  -22.6766   21.6600 H   0  0  0  0  0  0
  -29.5084  -24.0806   19.6254 H   0  0  0  0  0  0
  -27.7907  -23.9349   19.3365 H   0  0  0  0  0  0
  -25.0498  -19.0977   20.2665 H   0  0  0  0  0  0
  -25.7309  -20.6124   19.7872 H   0  0  0  0  0  0
  -25.7430  -19.4588   22.6260 H   0  0  0  0  0  0
  -26.3966  -21.0295   22.2577 H   0  0  0  0  0  0
  -29.0164  -25.4056   21.7148 H   0  0  0  0  0  0
  -27.3183  -25.2700   21.4361 H   0  0  0  0  0  0
  -24.1738  -21.8635   21.2715 H   0  0  0  0  0  0
  -30.3546  -19.2405   20.2203 H   0  0  0  0  0  0
  -29.5395  -15.8997   19.7621 H   0  0  0  0  0  0
  1 25  1  0  0  0
  1 30  2  0  0  0
  1 86  1  0  0  0
  2  3  1  0  0  0
  2 25  1  0  0  0
  2 87  1  0  0  0
  2 88  1  0  0  0
  3  4  1  0  0  0
  3 89  1  0  0  0
  3 90  1  0  0  0
  4  5  1  0  0  0
  4 91  1  0  0  0
  4 92  1  0  0  0
  5  6  1  0  0  0
  5 26  1  0  0  0
  5 93  1  0  0  0
  6 25  1  0  0  0
  6 94  1  0  0  0
  6 95  1  0  0  0
  7  8  2  0  0  0
  7 26  1  0  0  0
  7 29  1  0  0  0
  8  9  1  0  0  0
  8 22  1  0  0  0
  9 10  1  0  0  0
  9 27  2  0  0  0
 10 11  2  0  0  0
 10 15  1  0  0  0
 11 12  1  0  0  0
 11 96  1  0  0  0
 12 13  2  0  0  0
 12 97  1  0  0  0
 13 14  1  0  0  0
 13 31  1  0  0  0
 14 15  2  0  0  0
 14 98  1  0  0  0
 15 99  1  0  0  0
 16 17  2  0  0  0
 16 21  1  0  0  0
 16 31  1  0  0  0
 17 18  1  0  0  0
 17100  1  0  0  0
 18 19  2  0  0  0
 18101  1  0  0  0
 19 20  1  0  0  0
 19 24  1  0  0  0
 20 21  2  0  0  0
 20102  1  0  0  0
 21 23  1  0  0  0
 22 28  1  0  0  0
 22 32  2  0  0  0
 26 27  1  0  0  0
 28103  1  0  0  0
 28104  1  0  0  0
 29105  1  0  0  0
 29106  1  0  0  0
 33 34  1  0  0  0
 33 66  1  0  0  0
 33 70  2  0  0  0
 34 36  1  0  0  0
 34 59  1  0  0  0
 34107  1  0  0  0
 35 44  2  0  0  0
 35 45  1  0  0  0
 35 68  1  0  0  0
 36 56  1  0  0  0
 36108  1  0  0  0
 37 39  1  0  0  0
 37 47  1  0  0  0
 37 66  1  0  0  0
 37109  1  0  0  0
 38 43  2  0  0  0
 38 46  1  0  0  0
 38 47  1  0  0  0
 39 64  1  0  0  0
 39 67  2  0  0  0
 40 52  1  0  0  0
 40 53  2  0  0  0
 40 58  1  0  0  0
 41110  1  0  0  0
 41111  1  0  0  0
 41112  1  0  0  0
 41 48  1  0  0  0
 42 43  1  0  0  0
 42 66  1  0  0  0
 42113  1  0  0  0
 42114  1  0  0  0
 43 44  1  0  0  0
 44115  1  0  0  0
 45 46  2  0  0  0
 45116  1  0  0  0
 46117  1  0  0  0
 47118  1  0  0  0
 47119  1  0  0  0
 48 56  1  0  0  0
 48 65  1  0  0  0
 48120  1  0  0  0
 49 50  1  0  0  0
 49 53  1  0  0  0
 49 64  1  0  0  0
 49121  1  0  0  0
 50 51  1  0  0  0
 50122  1  0  0  0
 50123  1  0  0  0
 51 52  1  0  0  0
 51124  1  0  0  0
 51125  1  0  0  0
 52126  1  0  0  0
 52127  1  0  0  0
 53 54  1  0  0  0
 54 55  2  0  0  0
 54128  1  0  0  0
 55 57  1  0  0  0
 55129  1  0  0  0
 56 69  2  0  0  0
 57 58  2  0  0  0
 57130  1  0  0  0
 58131  1  0  0  0
 59 60  1  0  0  0
 59 61  1  0  0  0
 59 62  1  0  0  0
 60132  1  0  0  0
 60133  1  0  0  0
 60134  1  0  0  0
 61135  1  0  0  0
 61136  1  0  0  0
 61137  1  0  0  0
 62138  1  0  0  0
 62139  1  0  0  0
 62140  1  0  0  0
 63 65  1  0  0  0
 63141  1  0  0  0
 63142  1  0  0  0
 63143  1  0  0  0
 64144  1  0  0  0
 65145  1  0  0  0
 68 82  1  0  0  0
 71 72  2  0  0  0
 71 84  1  0  0  0
 71146  1  0  0  0
 72 76  1  0  0  0
 72 85  1  0  0  0
 73 77  1  0  0  0
 73 84  1  0  0  0
 73 85  2  0  0  0
 74147  1  0  0  0
 74148  1  0  0  0
 74149  1  0  0  0
 74 83  1  0  0  0
 75 83  1  0  0  0
 75150  1  0  0  0
 75151  1  0  0  0
 75152  1  0  0  0
 76 86  1  0  0  0
 76153  1  0  0  0
 76154  1  0  0  0
 77 78  1  0  0  0
 77155  1  0  0  0
 77156  1  0  0  0
 78 79  1  0  0  0
 78157  1  0  0  0
 78158  1  0  0  0
 79 82  1  0  0  0
 79159  1  0  0  0
 79160  1  0  0  0
 80 81  1  0  0  0
 80 83  1  0  0  0
 80161  1  0  0  0
 80162  1  0  0  0
 81 84  1  0  0  0
 81163  1  0  0  0
 81164  1  0  0  0
 82165  1  0  0  0
 82166  1  0  0  0
 83167  1  0  0  0
 85168  1  0  0  0
 86169  1  0  0  0
M  CHG  1  85   1
M  ISO  4   1 100  68 101  82 101  86 100
M  END
> <chiral flag>
0

> <version>
0

> <s_m_source_file>
/data/baiqing/PycharmProjects/Reinvent-master-3.2/result/LINK_invent/BTK/process_docking_weight1_custom_sum_contain_oxygen_bond_distance_aromatic_linkinvent_7_9_3/rearranged_h_0090.sdf

> <i_m_source_file_index>
31

> <r_mmod_Potential_Energy-OPLS-2005>
-71.0425643920898

> <r_mmod_Stretch_Energy-OPLS-2005>
53.5979461669922

> <r_mmod_Bend_Energy-OPLS-2005>
112.807266235352

> <r_mmod_Torsional_Energy-OPLS-2005>
313.403350830078

> <r_mmod_Improper_Torsional_Energy-OPLS-2005>
12.5301885604858

> <r_mmod_Van_der_Waal_Energy-OPLS-2005>
107.642402648926

> <r_mmod_Electrostatic_Energy-OPLS-2005>
-278.324066162109

> <r_mmod_Solvation_Energy-OPLS-2005>
-421.612823486328

> <b_mmod_Minimization_Converged-OPLS-2005>
0

> <r_mmod_RMS_Derivative-OPLS-2005>
11.8388481140137

$$$$
31
                    3D
 Structure written by MMmdl.
172180  0  0  1  0            999 V2000
  -30.6070  -14.7633   20.3828 C   0  0  0  0  0  0
  -30.4274  -12.4492   19.4569 C   0  0  0  0  0  0
  -29.5019  -12.4790   18.2181 C   0  0  0  0  0  0
  -28.0262  -12.3254   18.6398 C   0  0  0  0  0  0
  -27.6380  -13.2360   19.8378 C   0  0  2  0  0  0
  -28.6916  -13.1834   20.9653 C   0  0  0  0  0  0
  -25.2543  -13.8156   20.5954 C   0  0  0  0  0  0
  -24.1798  -13.0387   20.9233 C   0  0  0  0  0  0
  -24.6393  -11.6880   20.8701 C   0  0  0  0  0  0
  -23.9076  -10.4266   21.0356 C   0  0  0  0  0  0
  -24.3638   -9.4199   21.9154 C   0  0  0  0  0  0
  -23.6309   -8.2227   22.0734 C   0  0  0  0  0  0
  -22.4290   -8.0266   21.3536 C   0  0  0  0  0  0
  -21.9928   -9.0222   20.4632 C   0  0  0  0  0  0
  -22.7241  -10.2095   20.3022 C   0  0  0  0  0  0
  -21.6858   -6.0746   22.5293 C   0  0  0  0  0  0
  -21.3996   -6.5649   23.8221 C   0  0  0  0  0  0
  -21.3657   -5.6803   24.9189 C   0  0  0  0  0  0
  -21.6039   -4.3064   24.7236 C   0  0  0  0  0  0
  -21.8824   -3.8155   23.4360 C   0  0  0  0  0  0
  -21.9197   -4.6978   22.3417 C   0  0  0  0  0  0
  -22.7836  -13.5185   21.1897 C   0  0  0  0  0  0
  -22.1687   -4.2166   21.0993 F   0  0  0  0  0  0
  -21.5622   -3.4539   25.7736 F   0  0  0  0  0  0
  -29.9869  -13.5306   20.3692 N   0  0  0  0  0  0
  -26.2947  -12.9407   20.3303 N   0  0  0  0  0  0
  -25.9320  -11.6534   20.5669 N   0  0  0  0  0  0
  -22.0489  -12.8141   22.0419 N   0  0  0  0  0  0
  -25.4242  -15.1895   20.4866 N   0  0  0  0  0  0
  -31.8042  -14.8468   20.0923 O   0  0  0  0  0  0
  -21.6653   -6.8885   21.4257 O   0  0  0  0  0  0
  -22.3535  -14.5500   20.6760 O   0  0  0  0  0  0
  -24.6231  -31.8510   23.1925 C   0  0  0  0  0  0
  -25.9090  -32.4710   23.8237 C   0  0  1  0  0  0
  -27.2221  -27.2702   20.1107 C   0  0  0  0  0  0
  -25.5984  -33.8528   24.2143 N   0  0  0  0  0  0
  -23.4154  -30.4704   21.5397 C   0  0  2  0  0  0
  -24.8619  -28.9134   20.1014 C   0  0  0  0  0  0
  -22.7480  -29.4515   22.4895 C   0  0  0  0  0  0
  -18.0297  -28.1280   22.8505 C   0  0  0  0  0  0
  -24.1545  -36.7232   23.2640 C   0  0  0  0  0  0
  -25.9614  -30.7617   21.3760 C   0  0  0  0  0  0
  -26.0296  -29.3881   20.7096 C   0  0  0  0  0  0
  -27.2048  -28.5782   20.6972 C   0  0  0  0  0  0
  -26.0278  -26.8477   19.4872 C   0  0  0  0  0  0
  -24.8686  -27.6544   19.4786 C   0  0  0  0  0  0
  -23.6270  -29.7945   20.1586 C   0  0  0  0  0  0
  -25.4172  -36.2999   24.0305 C   0  0  1  0  0  0
  -20.5913  -28.3583   23.1318 C   0  0  2  0  0  0
  -20.6832  -26.9315   22.5411 C   0  0  0  0  0  0
  -19.5807  -26.6262   21.5240 C   0  0  0  0  0  0
  -18.1957  -26.7840   22.1592 C   0  0  0  0  0  0
  -19.1569  -28.8744   23.2898 C   0  0  0  0  0  0
  -18.9513  -30.1394   23.8810 C   0  0  0  0  0  0
  -17.6521  -30.6527   24.0542 C   0  0  0  0  0  0
  -25.9086  -34.9386   23.4997 C   0  0  0  0  0  0
  -16.5390  -29.9020   23.6324 C   0  0  0  0  0  0
  -16.7315  -28.6443   23.0329 C   0  0  0  0  0  0
  -26.4482  -31.6611   25.0639 C   0  0  0  0  0  0
  -25.3724  -31.3851   26.1373 C   0  0  0  0  0  0
  -27.0369  -30.3041   24.6159 C   0  0  0  0  0  0
  -27.5955  -32.4449   25.7441 C   0  0  0  0  0  0
  -27.5602  -37.1764   24.8452 C   0  0  0  0  0  0
  -21.4185  -29.2962   22.3734 N   0  0  0  0  0  0
  -26.4300  -37.3727   23.9424 N   0  0  0  0  0  0
  -24.6844  -31.0487   22.0901 N   0  0  0  0  0  0
  -23.4239  -28.8040   23.2931 O   0  0  0  0  0  0
  -28.3582  -26.4438   20.1917 O   0  0  0  0  0  0
  -26.5622  -34.8895   22.4528 O   0  0  0  0  0  0
  -23.5407  -32.1317   23.7253 O   0  0  0  0  0  0
  -29.1436  -21.7752   18.0729 C   0  0  0  0  0  0
  -29.0831  -21.2949   19.4078 C   0  0  0  0  0  0
  -28.9557  -20.7514   17.2002 C   0  0  0  0  0  0
  -29.0608  -19.8674   19.3132 C   0  0  0  0  0  0
  -30.3464  -20.8348   15.0943 C   0  0  0  0  0  0
  -26.1542  -16.9008   17.5841 C   0  0  0  0  0  0
  -26.0150  -18.9425   16.0873 C   0  0  0  0  0  0
  -29.1407  -22.3834   20.5428 C   0  0  0  0  0  0
  -28.9358  -20.7906   15.6934 C   0  0  0  0  0  0
  -29.1460  -18.6062   20.2866 C   0  0  0  0  0  0
  -28.1999  -23.7191   20.5220 C   0  0  0  0  0  0
  -28.1992  -18.3661   17.4042 C   0  0  0  0  0  0
  -30.1803  -17.3518   20.0334 C   0  0  0  0  0  0
  -28.4737  -25.0499   19.6456 C   0  0  0  0  0  0
  -26.6437  -18.3439   17.3707 C   0  0  0  0  0  0
  -28.7298  -19.6140   17.9636 N   0  0  0  0  0  0
  -29.8271  -15.9126   20.4649 N   0  0  0  0  0  0
  -31.4685  -12.5554   19.1444 H   0  0  0  0  0  0
  -30.3627  -11.4804   19.9522 H   0  0  0  0  0  0
  -29.7726  -11.6723   17.5326 H   0  0  0  0  0  0
  -29.6391  -13.4084   17.6623 H   0  0  0  0  0  0
  -27.8798  -11.2811   18.9098 H   0  0  0  0  0  0
  -27.3681  -12.5138   17.7910 H   0  0  0  0  0  0
  -27.6197  -14.2543   19.4458 H   0  0  0  0  0  0
  -28.7328  -12.1894   21.4088 H   0  0  0  0  0  0
  -28.4360  -13.8738   21.7701 H   0  0  0  0  0  0
  -25.2780   -9.5693   22.4719 H   0  0  0  0  0  0
  -24.0044   -7.4625   22.7427 H   0  0  0  0  0  0
  -21.0865   -8.8700   19.8923 H   0  0  0  0  0  0
  -22.3682  -10.9629   19.6115 H   0  0  0  0  0  0
  -21.1971   -7.6148   23.9730 H   0  0  0  0  0  0
  -21.1482   -6.0530   25.9091 H   0  0  0  0  0  0
  -22.0601   -2.7614   23.2844 H   0  0  0  0  0  0
  -22.4174  -11.9853   22.4849 H   0  0  0  0  0  0
  -21.1048  -13.1070   22.2532 H   0  0  0  0  0  0
  -24.6552  -15.8351   20.6301 H   0  0  0  0  0  0
  -26.2958  -15.6521   20.2712 H   0  0  0  0  0  0
  -26.7073  -32.5289   23.0884 H   0  0  0  0  0  0
  -25.0375  -33.9706   25.0454 H   0  0  0  0  0  0
  -22.7078  -31.2908   21.3957 H   0  0  0  0  0  0
  -23.3844  -35.9534   23.3254 H   0  0  0  0  0  0
  -24.3618  -36.8848   22.2050 H   0  0  0  0  0  0
  -23.7259  -37.6401   23.6720 H   0  0  0  0  0  0
  -26.1257  -31.5364   20.6269 H   0  0  0  0  0  0
  -26.8271  -30.7774   22.0251 H   0  0  0  0  0  0
  -28.1062  -28.9423   21.1709 H   0  0  0  0  0  0
  -25.9681  -25.8780   19.0216 H   0  0  0  0  0  0
  -23.9677  -27.2839   19.0038 H   0  0  0  0  0  0
  -23.7213  -30.5640   19.3926 H   0  0  0  0  0  0
  -22.7530  -29.2088   19.8735 H   0  0  0  0  0  0
  -25.1365  -36.1755   25.0800 H   0  0  0  0  0  0
  -21.0042  -28.3100   24.1423 H   0  0  0  0  0  0
  -20.5723  -26.2171   23.3569 H   0  0  0  0  0  0
  -21.6694  -26.7274   22.1203 H   0  0  0  0  0  0
  -19.6976  -25.6167   21.1253 H   0  0  0  0  0  0
  -19.6802  -27.3083   20.6802 H   0  0  0  0  0  0
  -17.4283  -26.6679   21.3932 H   0  0  0  0  0  0
  -18.0273  -25.9919   22.8896 H   0  0  0  0  0  0
  -19.8005  -30.7270   24.2060 H   0  0  0  0  0  0
  -17.5077  -31.6189   24.5155 H   0  0  0  0  0  0
  -15.5394  -30.2898   23.7696 H   0  0  0  0  0  0
  -15.8713  -28.0760   22.7028 H   0  0  0  0  0  0
  -24.5867  -30.7215   25.7735 H   0  0  0  0  0  0
  -24.9004  -32.3108   26.4721 H   0  0  0  0  0  0
  -25.8007  -30.9075   27.0186 H   0  0  0  0  0  0
  -26.2951  -29.6761   24.1212 H   0  0  0  0  0  0
  -27.4115  -29.7299   25.4635 H   0  0  0  0  0  0
  -27.8793  -30.4318   23.9349 H   0  0  0  0  0  0
  -27.2453  -33.3760   26.1926 H   0  0  0  0  0  0
  -28.3830  -32.7006   25.0345 H   0  0  0  0  0  0
  -28.0606  -31.8686   26.5450 H   0  0  0  0  0  0
  -28.2523  -38.0155   24.7534 H   0  0  0  0  0  0
  -28.1159  -36.2648   24.6199 H   0  0  0  0  0  0
  -27.2279  -37.1218   25.8834 H   0  0  0  0  0  0
  -20.9302  -29.8764   21.7053 H   0  0  0  0  0  0
  -26.0134  -38.2747   24.1557 H   0  0  0  0  0  0
  -29.2756  -22.8074   17.7820 H   0  0  0  0  0  0
  -30.3223  -20.9606   14.0129 H   0  0  0  0  0  0
  -30.8804  -19.9081   15.3003 H   0  0  0  0  0  0
  -30.9286  -21.6591   15.5069 H   0  0  0  0  0  0
  -25.0668  -16.8362   17.6544 H   0  0  0  0  0  0
  -26.5532  -16.5014   18.5147 H   0  0  0  0  0  0
  -26.4875  -16.2411   16.7812 H   0  0  0  0  0  0
  -24.9268  -18.8702   16.1210 H   0  0  0  0  0  0
  -26.3417  -18.4088   15.1943 H   0  0  0  0  0  0
  -26.2489  -19.9981   15.9488 H   0  0  0  0  0  0
  -30.1782  -22.7135   20.6140 H   0  0  0  0  0  0
  -28.9522  -21.8544   21.4783 H   0  0  0  0  0  0
  -28.3696  -21.6626   15.3670 H   0  0  0  0  0  0
  -28.4114  -19.9419   15.2570 H   0  0  0  0  0  0
  -28.1421  -18.1895   20.3661 H   0  0  0  0  0  0
  -29.3492  -18.9893   21.2869 H   0  0  0  0  0  0
  -28.2284  -24.0742   21.5532 H   0  0  0  0  0  0
  -27.1593  -23.4121   20.3815 H   0  0  0  0  0  0
  -28.6294  -18.1744   16.4236 H   0  0  0  0  0  0
  -28.5431  -17.5324   18.0033 H   0  0  0  0  0  0
  -31.1371  -17.6101   20.4898 H   0  0  0  0  0  0
  -30.4247  -17.2931   18.9730 H   0  0  0  0  0  0
  -27.9414  -24.9815   18.6970 H   0  0  0  0  0  0
  -29.5189  -24.9892   19.3550 H   0  0  0  0  0  0
  -26.2715  -18.9392   18.2103 H   0  0  0  0  0  0
  -28.8647  -15.7485   20.7156 H   0  0  0  0  0  0
  1 25  1  0  0  0
  1 30  2  0  0  0
  1 87  1  0  0  0
  2  3  1  0  0  0
  2 25  1  0  0  0
  2 88  1  0  0  0
  2 89  1  0  0  0
  3  4  1  0  0  0
  3 90  1  0  0  0
  3 91  1  0  0  0
  4  5  1  0  0  0
  4 92  1  0  0  0
  4 93  1  0  0  0
  5  6  1  0  0  0
  5 26  1  0  0  0
  5 94  1  0  0  0
  6 25  1  0  0  0
  6 95  1  0  0  0
  6 96  1  0  0  0
  7  8  2  0  0  0
  7 26  1  0  0  0
  7 29  1  0  0  0
  8  9  1  0  0  0
  8 22  1  0  0  0
  9 10  1  0  0  0
  9 27  2  0  0  0
 10 11  2  0  0  0
 10 15  1  0  0  0
 11 12  1  0  0  0
 11 97  1  0  0  0
 12 13  2  0  0  0
 12 98  1  0  0  0
 13 14  1  0  0  0
 13 31  1  0  0  0
 14 15  2  0  0  0
 14 99  1  0  0  0
 15100  1  0  0  0
 16 17  2  0  0  0
 16 21  1  0  0  0
 16 31  1  0  0  0
 17 18  1  0  0  0
 17101  1  0  0  0
 18 19  2  0  0  0
 18102  1  0  0  0
 19 20  1  0  0  0
 19 24  1  0  0  0
 20 21  2  0  0  0
 20103  1  0  0  0
 21 23  1  0  0  0
 22 28  1  0  0  0
 22 32  2  0  0  0
 26 27  1  0  0  0
 28104  1  0  0  0
 28105  1  0  0  0
 29106  1  0  0  0
 29107  1  0  0  0
 33 34  1  0  0  0
 33 66  1  0  0  0
 33 70  2  0  0  0
 34 36  1  0  0  0
 34 59  1  0  0  0
 34108  1  0  0  0
 35 44  2  0  0  0
 35 45  1  0  0  0
 35 68  1  0  0  0
 36 56  1  0  0  0
 36109  1  0  0  0
 37 39  1  0  0  0
 37 47  1  0  0  0
 37 66  1  0  0  0
 37110  1  0  0  0
 38 43  2  0  0  0
 38 46  1  0  0  0
 38 47  1  0  0  0
 39 64  1  0  0  0
 39 67  2  0  0  0
 40 52  1  0  0  0
 40 53  2  0  0  0
 40 58  1  0  0  0
 41111  1  0  0  0
 41112  1  0  0  0
 41113  1  0  0  0
 41 48  1  0  0  0
 42 43  1  0  0  0
 42 66  1  0  0  0
 42114  1  0  0  0
 42115  1  0  0  0
 43 44  1  0  0  0
 44116  1  0  0  0
 45 46  2  0  0  0
 45117  1  0  0  0
 46118  1  0  0  0
 47119  1  0  0  0
 47120  1  0  0  0
 48 56  1  0  0  0
 48 65  1  0  0  0
 48121  1  0  0  0
 49 50  1  0  0  0
 49 53  1  0  0  0
 49 64  1  0  0  0
 49122  1  0  0  0
 50 51  1  0  0  0
 50123  1  0  0  0
 50124  1  0  0  0
 51 52  1  0  0  0
 51125  1  0  0  0
 51126  1  0  0  0
 52127  1  0  0  0
 52128  1  0  0  0
 53 54  1  0  0  0
 54 55  2  0  0  0
 54129  1  0  0  0
 55 57  1  0  0  0
 55130  1  0  0  0
 56 69  2  0  0  0
 57 58  2  0  0  0
 57131  1  0  0  0
 58132  1  0  0  0
 59 60  1  0  0  0
 59 61  1  0  0  0
 59 62  1  0  0  0
 60133  1  0  0  0
 60134  1  0  0  0
 60135  1  0  0  0
 61136  1  0  0  0
 61137  1  0  0  0
 61138  1  0  0  0
 62139  1  0  0  0
 62140  1  0  0  0
 62141  1  0  0  0
 63 65  1  0  0  0
 63142  1  0  0  0
 63143  1  0  0  0
 63144  1  0  0  0
 64145  1  0  0  0
 65146  1  0  0  0
 68 84  1  0  0  0
 71 72  1  0  0  0
 71 73  2  0  0  0
 71147  1  0  0  0
 72 74  2  0  0  0
 72 78  1  0  0  0
 73 79  1  0  0  0
 73 86  1  0  0  0
 74 80  1  0  0  0
 74 86  1  0  0  0
 75 79  1  0  0  0
 75148  1  0  0  0
 75149  1  0  0  0
 75150  1  0  0  0
 76151  1  0  0  0
 76152  1  0  0  0
 76153  1  0  0  0
 76 85  1  0  0  0
 77 85  1  0  0  0
 77154  1  0  0  0
 77155  1  0  0  0
 77156  1  0  0  0
 78 81  1  0  0  0
 78157  1  0  0  0
 78158  1  0  0  0
 79159  1  0  0  0
 79160  1  0  0  0
 80 83  1  0  0  0
 80161  1  0  0  0
 80162  1  0  0  0
 81 84  1  0  0  0
 81163  1  0  0  0
 81164  1  0  0  0
 82 85  1  0  0  0
 82 86  1  0  0  0
 82165  1  0  0  0
 82166  1  0  0  0
 83 87  1  0  0  0
 83167  1  0  0  0
 83168  1  0  0  0
 84169  1  0  0  0
 84170  1  0  0  0
 85171  1  0  0  0
 87172  1  0  0  0
M  ISO  4   1 100  68 101  84 101  87 100
M  END
> <chiral flag>
0

> <version>
0

> <s_m_source_file>
/data/baiqing/PycharmProjects/Reinvent-master-3.2/result/LINK_invent/BTK/process_docking_weight1_custom_sum_contain_oxygen_bond_distance_aromatic_linkinvent_7_9_3/rearranged_h_0090.sdf

> <i_m_source_file_index>
32

> <r_mmod_Potential_Energy-OPLS-2005>
219.783920288086

> <r_mmod_Stretch_Energy-OPLS-2005>
141.063461303711

> <r_mmod_Bend_Energy-OPLS-2005>
219.10905456543

> <r_mmod_Torsional_Energy-OPLS-2005>
266.995574951172

> <r_mmod_Improper_Torsional_Energy-OPLS-2005>
6.54232835769653

> <r_mmod_Van_der_Waal_Energy-OPLS-2005>
106.415512084961

> <r_mmod_Electrostatic_Energy-OPLS-2005>
-398.830352783203

> <r_mmod_Solvation_Energy-OPLS-2005>
-209.108322143555

> <b_mmod_Minimization_Converged-OPLS-2005>
0

> <r_mmod_RMS_Derivative-OPLS-2005>
6.54303646087646

$$$$
32
                    3D
 Structure written by MMmdl.
182190  0  0  1  0            999 V2000
  -30.8388  -14.2605   20.7655 C   0  0  0  0  0  0
  -30.4113  -12.2731   19.3775 C   0  0  0  0  0  0
  -29.4769  -12.5201   18.1835 C   0  0  0  0  0  0
  -28.0068  -12.3703   18.6091 C   0  0  0  0  0  0
  -27.6685  -13.1995   19.8729 C   0  0  2  0  0  0
  -28.7045  -12.9556   20.9933 C   0  0  0  0  0  0
  -25.2620  -13.8128   20.5639 C   0  0  0  0  0  0
  -24.1874  -13.0427   20.9166 C   0  0  0  0  0  0
  -24.6412  -11.6891   20.8721 C   0  0  0  0  0  0
  -23.9066  -10.4294   21.0397 C   0  0  0  0  0  0
  -24.3614   -9.4203   21.9183 C   0  0  0  0  0  0
  -23.6292   -8.2239   22.0751 C   0  0  0  0  0  0
  -22.4274   -8.0283   21.3542 C   0  0  0  0  0  0
  -21.9915   -9.0247   20.4631 C   0  0  0  0  0  0
  -22.7239  -10.2125   20.3043 C   0  0  0  0  0  0
  -21.6850   -6.0736   22.5281 C   0  0  0  0  0  0
  -21.4014   -6.5635   23.8213 C   0  0  0  0  0  0
  -21.3657   -5.6786   24.9171 C   0  0  0  0  0  0
  -21.6040   -4.3056   24.7222 C   0  0  0  0  0  0
  -21.8819   -3.8147   23.4347 C   0  0  0  0  0  0
  -21.9190   -4.6963   22.3405 C   0  0  0  0  0  0
  -22.7894  -13.5242   21.1833 C   0  0  0  0  0  0
  -22.1660   -4.2151   21.0985 F   0  0  0  0  0  0
  -21.5623   -3.4543   25.7733 F   0  0  0  0  0  0
  -30.0603  -13.1969   20.4622 N   0  0  0  0  0  0
  -26.3068  -12.9302   20.3344 N   0  0  0  0  0  0
  -25.9343  -11.6470   20.5751 N   0  0  0  0  0  0
  -22.0515  -12.8208   22.0358 N   0  0  0  0  0  0
  -25.4310  -15.1823   20.3962 N   0  0  0  0  0  0
  -31.7484  -14.6768   20.0400 O   0  0  0  0  0  0
  -21.6636   -6.8877   21.4241 O   0  0  0  0  0  0
  -22.3605  -14.5567   20.6703 O   0  0  0  0  0  0
  -24.6112  -31.8697   23.2102 C   0  0  0  0  0  0
  -25.9029  -32.4827   23.8373 C   0  0  1  0  0  0
  -27.2313  -27.4745   20.0963 C   0  0  0  0  0  0
  -25.5930  -33.8619   24.2310 N   0  0  0  0  0  0
  -23.3953  -30.4928   21.5509 C   0  0  2  0  0  0
  -24.8407  -28.9626   20.1132 C   0  0  0  0  0  0
  -22.7383  -29.4662   22.5007 C   0  0  0  0  0  0
  -18.0277  -28.1368   22.8479 C   0  0  0  0  0  0
  -24.1502  -36.7299   23.2628 C   0  0  0  0  0  0
  -25.9182  -30.8447   21.3625 C   0  0  0  0  0  0
  -25.9942  -29.4816   20.7160 C   0  0  0  0  0  0
  -27.1938  -28.7409   20.7136 C   0  0  0  0  0  0
  -26.0716  -26.9586   19.4867 C   0  0  0  0  0  0
  -24.8699  -27.6935   19.5032 C   0  0  0  0  0  0
  -23.6004  -29.8251   20.1640 C   0  0  0  0  0  0
  -25.4121  -36.3087   24.0327 C   0  0  1  0  0  0
  -20.5862  -28.3653   23.1324 C   0  0  2  0  0  0
  -20.6781  -26.9394   22.5410 C   0  0  0  0  0  0
  -19.5771  -26.6376   21.5194 C   0  0  0  0  0  0
  -18.1934  -26.7905   22.1601 C   0  0  0  0  0  0
  -19.1517  -28.8822   23.2891 C   0  0  0  0  0  0
  -18.9456  -30.1418   23.8927 C   0  0  0  0  0  0
  -17.6469  -30.6577   24.0559 C   0  0  0  0  0  0
  -25.9062  -34.9474   23.5112 C   0  0  0  0  0  0
  -16.5361  -29.9086   23.6316 C   0  0  0  0  0  0
  -16.7265  -28.6498   23.0349 C   0  0  0  0  0  0
  -26.4472  -31.6607   25.0689 C   0  0  0  0  0  0
  -25.3764  -31.3738   26.1455 C   0  0  0  0  0  0
  -27.0275  -30.3050   24.6018 C   0  0  0  0  0  0
  -27.5987  -32.4367   25.7501 C   0  0  0  0  0  0
  -27.5607  -37.1779   24.8436 C   0  0  0  0  0  0
  -21.4122  -29.3025   22.3732 N   0  0  0  0  0  0
  -26.4288  -37.3792   23.9434 N   0  0  0  0  0  0
  -24.6590  -31.0830   22.0999 N   0  0  0  0  0  0
  -23.4163  -28.8214   23.3041 O   0  0  0  0  0  0
  -28.3910  -26.7501   20.0560 O   0  0  0  0  0  0
  -26.5599  -34.8927   22.4653 O   0  0  0  0  0  0
  -23.5317  -32.1417   23.7543 O   0  0  0  0  0  0
  -31.9110  -17.7984   21.4361 C   0  0  0  0  0  0
  -31.1443  -17.1013   22.3853 C   0  0  0  0  0  0
  -30.0381  -17.7483   22.9850 C   0  0  0  0  0  0
  -29.7263  -19.0687   22.5605 C   0  0  0  0  0  0
  -30.5310  -19.6477   21.5417 C   0  0  0  0  0  0
  -29.2326  -17.0171   24.0585 C   0  0  0  0  0  0
  -24.6512  -20.9029   20.2927 C   0  0  0  0  0  0
  -24.8605  -18.5494   20.9469 C   0  0  0  0  0  0
  -28.5915  -19.8598   23.2230 C   0  0  0  0  0  0
  -31.5289  -15.6626   22.7092 C   0  0  0  0  0  0
  -30.2456  -21.0088   20.9316 C   0  0  0  0  0  0
  -27.1707  -19.4507   22.7845 C   0  0  0  0  0  0
  -30.9374  -22.1647   21.6687 C   0  0  0  0  0  0
  -30.5099  -23.5113   21.0735 C   0  0  0  0  0  0
  -30.7597  -24.7135   21.9966 C   0  0  0  0  0  0
  -30.2949  -26.0240   21.3434 C   0  0  0  0  0  0
  -26.6593  -20.1619   21.5156 C   0  0  0  0  0  0
  -28.7630  -26.1882   21.3081 C   0  0  0  0  0  0
  -31.6116  -19.0386   21.0208 N   0  0  0  0  0  0
  -30.6802  -14.6965   22.0201 N   0  0  0  0  0  0
  -25.2068  -19.9495   21.2809 N   0  3  0  0  0  0
  -31.4543  -12.3745   19.0724 H   0  0  0  0  0  0
  -30.3073  -11.2471   19.7355 H   0  0  0  0  0  0
  -29.7066  -11.8152   17.3829 H   0  0  0  0  0  0
  -29.6481  -13.5168   17.7741 H   0  0  0  0  0  0
  -27.8240  -11.3126   18.8008 H   0  0  0  0  0  0
  -27.3477  -12.6494   17.7867 H   0  0  0  0  0  0
  -27.7234  -14.2503   19.5889 H   0  0  0  0  0  0
  -28.6415  -11.9273   21.3533 H   0  0  0  0  0  0
  -28.4550  -13.5888   21.8455 H   0  0  0  0  0  0
  -25.2767   -9.5679   22.4753 H   0  0  0  0  0  0
  -23.9996   -7.4633   22.7482 H   0  0  0  0  0  0
  -21.0850   -8.8765   19.8938 H   0  0  0  0  0  0
  -22.3718  -10.9657   19.6142 H   0  0  0  0  0  0
  -21.2013   -7.6139   23.9714 H   0  0  0  0  0  0
  -21.1478   -6.0521   25.9070 H   0  0  0  0  0  0
  -22.0603   -2.7612   23.2850 H   0  0  0  0  0  0
  -22.4116  -11.9846   22.4711 H   0  0  0  0  0  0
  -21.1126  -13.1227   22.2544 H   0  0  0  0  0  0
  -24.6314  -15.8024   20.4092 H   0  0  0  0  0  0
  -26.2662  -15.5991   20.0053 H   0  0  0  0  0  0
  -26.7111  -32.5562   23.1157 H   0  0  0  0  0  0
  -25.0137  -33.9804   25.0489 H   0  0  0  0  0  0
  -22.6828  -31.3081   21.4123 H   0  0  0  0  0  0
  -23.3797  -35.9596   23.3218 H   0  0  0  0  0  0
  -24.3644  -36.8991   22.2059 H   0  0  0  0  0  0
  -23.7197  -37.6457   23.6702 H   0  0  0  0  0  0
  -26.0295  -31.6126   20.5943 H   0  0  0  0  0  0
  -26.8043  -30.8934   21.9819 H   0  0  0  0  0  0
  -28.0877  -29.1364   21.1761 H   0  0  0  0  0  0
  -26.0982  -25.9890   19.0090 H   0  0  0  0  0  0
  -23.9809  -27.2841   19.0407 H   0  0  0  0  0  0
  -23.6989  -30.5994   19.4020 H   0  0  0  0  0  0
  -22.7266  -29.2396   19.8727 H   0  0  0  0  0  0
  -25.1287  -36.1939   25.0816 H   0  0  0  0  0  0
  -20.9945  -28.3207   24.1446 H   0  0  0  0  0  0
  -20.5702  -26.2248   23.3598 H   0  0  0  0  0  0
  -21.6644  -26.7453   22.1185 H   0  0  0  0  0  0
  -19.6956  -25.6287   21.1219 H   0  0  0  0  0  0
  -19.6731  -27.3197   20.6731 H   0  0  0  0  0  0
  -17.4200  -26.6655   21.3988 H   0  0  0  0  0  0
  -18.0333  -26.0027   22.8984 H   0  0  0  0  0  0
  -19.7941  -30.7188   24.2337 H   0  0  0  0  0  0
  -17.5041  -31.6276   24.5131 H   0  0  0  0  0  0
  -15.5372  -30.3024   23.7616 H   0  0  0  0  0  0
  -15.8659  -28.0838   22.7079 H   0  0  0  0  0  0
  -24.5870  -30.7168   25.7785 H   0  0  0  0  0  0
  -24.9083  -32.2948   26.4948 H   0  0  0  0  0  0
  -25.8119  -30.8836   27.0173 H   0  0  0  0  0  0
  -26.2776  -29.6889   24.1039 H   0  0  0  0  0  0
  -27.4008  -29.7194   25.4426 H   0  0  0  0  0  0
  -27.8645  -30.4350   23.9151 H   0  0  0  0  0  0
  -27.2479  -33.3613   26.2099 H   0  0  0  0  0  0
  -28.3810  -32.7039   25.0387 H   0  0  0  0  0  0
  -28.0649  -31.8520   26.5440 H   0  0  0  0  0  0
  -28.2474  -38.0213   24.7658 H   0  0  0  0  0  0
  -28.1233  -36.2743   24.6033 H   0  0  0  0  0  0
  -27.2355  -37.1162   25.8835 H   0  0  0  0  0  0
  -20.9274  -29.8741   21.6966 H   0  0  0  0  0  0
  -26.0161  -38.2838   24.1552 H   0  0  0  0  0  0
  -32.7749  -17.3425   20.9746 H   0  0  0  0  0  0
  -29.8470  -16.8607   24.9441 H   0  0  0  0  0  0
  -28.9051  -16.0425   23.6986 H   0  0  0  0  0  0
  -28.3381  -17.5376   24.3871 H   0  0  0  0  0  0
  -23.5715  -20.7780   20.1957 H   0  0  0  0  0  0
  -25.0966  -20.7574   19.3081 H   0  0  0  0  0  0
  -24.8293  -21.9346   20.5978 H   0  0  0  0  0  0
  -23.7894  -18.4432   20.7677 H   0  0  0  0  0  0
  -25.1110  -17.8706   21.7609 H   0  0  0  0  0  0
  -25.3857  -18.2178   20.0514 H   0  0  0  0  0  0
  -28.7215  -20.9340   23.1022 H   0  0  0  0  0  0
  -28.6849  -19.7226   24.3011 H   0  0  0  0  0  0
  -31.4626  -15.4918   23.7837 H   0  0  0  0  0  0
  -32.5763  -15.4851   22.4546 H   0  0  0  0  0  0
  -29.1708  -21.1699   20.8897 H   0  0  0  0  0  0
  -30.5663  -21.0005   19.8870 H   0  0  0  0  0  0
  -26.4959  -19.7085   23.6025 H   0  0  0  0  0  0
  -27.1084  -18.3694   22.6713 H   0  0  0  0  0  0
  -32.0217  -22.0472   21.6122 H   0  0  0  0  0  0
  -30.6784  -22.1262   22.7273 H   0  0  0  0  0  0
  -29.4479  -23.4689   20.8270 H   0  0  0  0  0  0
  -31.0280  -23.6571   20.1254 H   0  0  0  0  0  0
  -31.8249  -24.7774   22.2224 H   0  0  0  0  0  0
  -30.2507  -24.5767   22.9526 H   0  0  0  0  0  0
  -30.6988  -26.0670   20.3307 H   0  0  0  0  0  0
  -30.7278  -26.8767   21.8669 H   0  0  0  0  0  0
  -27.2266  -19.8390   20.6407 H   0  0  0  0  0  0
  -26.8359  -21.2329   21.6223 H   0  0  0  0  0  0
  -28.4373  -26.7850   22.1622 H   0  0  0  0  0  0
  -28.2467  -25.2316   21.4025 H   0  0  0  0  0  0
  -29.9786  -14.2226   22.5693 H   0  0  0  0  0  0
  -24.7366  -20.1626   22.1484 H   0  0  0  0  0  0
  1 25  1  0  0  0
  1 30  2  0  0  0
  1 90  1  0  0  0
  2  3  1  0  0  0
  2 25  1  0  0  0
  2 92  1  0  0  0
  2 93  1  0  0  0
  3  4  1  0  0  0
  3 94  1  0  0  0
  3 95  1  0  0  0
  4  5  1  0  0  0
  4 96  1  0  0  0
  4 97  1  0  0  0
  5  6  1  0  0  0
  5 26  1  0  0  0
  5 98  1  0  0  0
  6 25  1  0  0  0
  6 99  1  0  0  0
  6100  1  0  0  0
  7  8  2  0  0  0
  7 26  1  0  0  0
  7 29  1  0  0  0
  8  9  1  0  0  0
  8 22  1  0  0  0
  9 10  1  0  0  0
  9 27  2  0  0  0
 10 11  2  0  0  0
 10 15  1  0  0  0
 11 12  1  0  0  0
 11101  1  0  0  0
 12 13  2  0  0  0
 12102  1  0  0  0
 13 14  1  0  0  0
 13 31  1  0  0  0
 14 15  2  0  0  0
 14103  1  0  0  0
 15104  1  0  0  0
 16 17  2  0  0  0
 16 21  1  0  0  0
 16 31  1  0  0  0
 17 18  1  0  0  0
 17105  1  0  0  0
 18 19  2  0  0  0
 18106  1  0  0  0
 19 20  1  0  0  0
 19 24  1  0  0  0
 20 21  2  0  0  0
 20107  1  0  0  0
 21 23  1  0  0  0
 22 28  1  0  0  0
 22 32  2  0  0  0
 26 27  1  0  0  0
 28108  1  0  0  0
 28109  1  0  0  0
 29110  1  0  0  0
 29111  1  0  0  0
 33 34  1  0  0  0
 33 66  1  0  0  0
 33 70  2  0  0  0
 34 36  1  0  0  0
 34 59  1  0  0  0
 34112  1  0  0  0
 35 44  2  0  0  0
 35 45  1  0  0  0
 35 68  1  0  0  0
 36 56  1  0  0  0
 36113  1  0  0  0
 37 39  1  0  0  0
 37 47  1  0  0  0
 37 66  1  0  0  0
 37114  1  0  0  0
 38 43  2  0  0  0
 38 46  1  0  0  0
 38 47  1  0  0  0
 39 64  1  0  0  0
 39 67  2  0  0  0
 40 52  1  0  0  0
 40 53  2  0  0  0
 40 58  1  0  0  0
 41115  1  0  0  0
 41116  1  0  0  0
 41117  1  0  0  0
 41 48  1  0  0  0
 42 43  1  0  0  0
 42 66  1  0  0  0
 42118  1  0  0  0
 42119  1  0  0  0
 43 44  1  0  0  0
 44120  1  0  0  0
 45 46  2  0  0  0
 45121  1  0  0  0
 46122  1  0  0  0
 47123  1  0  0  0
 47124  1  0  0  0
 48 56  1  0  0  0
 48 65  1  0  0  0
 48125  1  0  0  0
 49 50  1  0  0  0
 49 53  1  0  0  0
 49 64  1  0  0  0
 49126  1  0  0  0
 50 51  1  0  0  0
 50127  1  0  0  0
 50128  1  0  0  0
 51 52  1  0  0  0
 51129  1  0  0  0
 51130  1  0  0  0
 52131  1  0  0  0
 52132  1  0  0  0
 53 54  1  0  0  0
 54 55  2  0  0  0
 54133  1  0  0  0
 55 57  1  0  0  0
 55134  1  0  0  0
 56 69  2  0  0  0
 57 58  2  0  0  0
 57135  1  0  0  0
 58136  1  0  0  0
 59 60  1  0  0  0
 59 61  1  0  0  0
 59 62  1  0  0  0
 60137  1  0  0  0
 60138  1  0  0  0
 60139  1  0  0  0
 61140  1  0  0  0
 61141  1  0  0  0
 61142  1  0  0  0
 62143  1  0  0  0
 62144  1  0  0  0
 62145  1  0  0  0
 63 65  1  0  0  0
 63146  1  0  0  0
 63147  1  0  0  0
 63148  1  0  0  0
 64149  1  0  0  0
 65150  1  0  0  0
 68 88  1  0  0  0
 71 72  2  0  0  0
 71 89  1  0  0  0
 71151  1  0  0  0
 72 73  1  0  0  0
 72 80  1  0  0  0
 73 74  2  0  0  0
 73 76  1  0  0  0
 74 75  1  0  0  0
 74 79  1  0  0  0
 75 81  1  0  0  0
 75 89  2  0  0  0
 76152  1  0  0  0
 76153  1  0  0  0
 76154  1  0  0  0
 77155  1  0  0  0
 77156  1  0  0  0
 77157  1  0  0  0
 77 91  1  0  0  0
 78 91  1  0  0  0
 78158  1  0  0  0
 78159  1  0  0  0
 78160  1  0  0  0
 79 82  1  0  0  0
 79161  1  0  0  0
 79162  1  0  0  0
 80 90  1  0  0  0
 80163  1  0  0  0
 80164  1  0  0  0
 81 83  1  0  0  0
 81165  1  0  0  0
 81166  1  0  0  0
 82 87  1  0  0  0
 82167  1  0  0  0
 82168  1  0  0  0
 83 84  1  0  0  0
 83169  1  0  0  0
 83170  1  0  0  0
 84 85  1  0  0  0
 84171  1  0  0  0
 84172  1  0  0  0
 85 86  1  0  0  0
 85173  1  0  0  0
 85174  1  0  0  0
 86 88  1  0  0  0
 86175  1  0  0  0
 86176  1  0  0  0
 87 91  1  0  0  0
 87177  1  0  0  0
 87178  1  0  0  0
 88179  1  0  0  0
 88180  1  0  0  0
 90181  1  0  0  0
 91182  1  0  0  0
M  CHG  1  91   1
M  ISO  4   1 100  68 101  88 101  90 100
M  END
> <chiral flag>
0

> <version>
0

> <s_m_source_file>
/data/baiqing/PycharmProjects/Reinvent-master-3.2/result/LINK_invent/BTK/process_docking_weight1_custom_sum_contain_oxygen_bond_distance_aromatic_linkinvent_7_9_3/rearranged_h_0090.sdf

> <i_m_source_file_index>
33

> <r_mmod_Potential_Energy-OPLS-2005>
-284.616180419922

> <r_mmod_Stretch_Energy-OPLS-2005>
32.5313339233398

> <r_mmod_Bend_Energy-OPLS-2005>
91.0209350585938

> <r_mmod_Torsional_Energy-OPLS-2005>
243.982208251953

> <r_mmod_Improper_Torsional_Energy-OPLS-2005>
4.99857950210571

> <r_mmod_Van_der_Waal_Energy-OPLS-2005>
153.095092773438

> <r_mmod_Electrostatic_Energy-OPLS-2005>
-352.044464111328

> <r_mmod_Solvation_Energy-OPLS-2005>
-467.003692626953

> <b_mmod_Minimization_Converged-OPLS-2005>
0

> <r_mmod_RMS_Derivative-OPLS-2005>
2.97100138664246

$$$$
33
                    3D
 Structure written by MMmdl.
158166  0  0  1  0            999 V2000
  -30.6023  -14.7284   20.4514 C   0  0  0  0  0  0
  -30.4335  -12.4328   19.4852 C   0  0  0  0  0  0
  -29.5148  -12.4996   18.2452 C   0  0  0  0  0  0
  -28.0390  -12.3278   18.6534 C   0  0  0  0  0  0
  -27.6464  -13.2250   19.8582 C   0  0  2  0  0  0
  -28.6895  -13.1424   20.9959 C   0  0  0  0  0  0
  -25.2552  -13.8183   20.5754 C   0  0  0  0  0  0
  -24.1821  -13.0434   20.9212 C   0  0  0  0  0  0
  -24.6376  -11.6897   20.8709 C   0  0  0  0  0  0
  -23.9034  -10.4296   21.0375 C   0  0  0  0  0  0
  -24.3588   -9.4220   21.9163 C   0  0  0  0  0  0
  -23.6289   -8.2241   22.0733 C   0  0  0  0  0  0
  -22.4272   -8.0267   21.3532 C   0  0  0  0  0  0
  -21.9892   -9.0229   20.4628 C   0  0  0  0  0  0
  -22.7197  -10.2123   20.3038 C   0  0  0  0  0  0
  -21.6853   -6.0735   22.5286 C   0  0  0  0  0  0
  -21.4012   -6.5636   23.8223 C   0  0  0  0  0  0
  -21.3677   -5.6789   24.9185 C   0  0  0  0  0  0
  -21.6051   -4.3054   24.7216 C   0  0  0  0  0  0
  -21.8818   -3.8145   23.4336 C   0  0  0  0  0  0
  -21.9196   -4.6966   22.3397 C   0  0  0  0  0  0
  -22.7849  -13.5229   21.1901 C   0  0  0  0  0  0
  -22.1657   -4.2155   21.0967 F   0  0  0  0  0  0
  -21.5648   -3.4527   25.7721 F   0  0  0  0  0  0
  -29.9967  -13.4913   20.4241 N   0  0  0  0  0  0
  -26.2961  -12.9362   20.3307 N   0  0  0  0  0  0
  -25.9304  -11.6500   20.5704 N   0  0  0  0  0  0
  -22.0468  -12.8214   22.0435 N   0  0  0  0  0  0
  -25.4283  -15.1922   20.4311 N   0  0  0  0  0  0
  -31.7724  -14.8540   20.0771 O   0  0  0  0  0  0
  -21.6638   -6.8868   21.4242 O   0  0  0  0  0  0
  -22.3529  -14.5539   20.6767 O   0  0  0  0  0  0
  -24.6334  -31.8555   23.2016 C   0  0  0  0  0  0
  -25.9162  -32.4765   23.8346 C   0  0  1  0  0  0
  -27.2086  -27.2529   20.1093 C   0  0  0  0  0  0
  -25.5960  -33.8577   24.2271 N   0  0  0  0  0  0
  -23.4299  -30.4805   21.5465 C   0  0  2  0  0  0
  -24.8732  -28.9357   20.1054 C   0  0  0  0  0  0
  -22.7537  -29.4570   22.4921 C   0  0  0  0  0  0
  -18.0290  -28.1398   22.8488 C   0  0  0  0  0  0
  -24.1496  -36.7285   23.2635 C   0  0  0  0  0  0
  -25.9791  -30.7642   21.3856 C   0  0  0  0  0  0
  -26.0486  -29.3896   20.7192 C   0  0  0  0  0  0
  -27.2173  -28.5600   20.7103 C   0  0  0  0  0  0
  -26.0124  -26.8830   19.4511 C   0  0  0  0  0  0
  -24.8615  -27.6921   19.4609 C   0  0  0  0  0  0
  -23.6510  -29.8293   20.1575 C   0  0  0  0  0  0
  -25.4121  -36.3077   24.0319 C   0  0  1  0  0  0
  -20.5902  -28.3682   23.1300 C   0  0  2  0  0  0
  -20.6784  -26.9409   22.5418 C   0  0  0  0  0  0
  -19.5755  -26.6379   21.5232 C   0  0  0  0  0  0
  -18.1930  -26.7938   22.1630 C   0  0  0  0  0  0
  -19.1548  -28.8855   23.2884 C   0  0  0  0  0  0
  -18.9460  -30.1462   23.8900 C   0  0  0  0  0  0
  -17.6453  -30.6591   24.0568 C   0  0  0  0  0  0
  -25.9061  -34.9451   23.5086 C   0  0  0  0  0  0
  -16.5349  -29.9086   23.6334 C   0  0  0  0  0  0
  -16.7273  -28.6510   23.0346 C   0  0  0  0  0  0
  -26.4516  -31.6606   25.0750 C   0  0  0  0  0  0
  -25.3718  -31.3781   26.1463 C   0  0  0  0  0  0
  -27.0365  -30.3018   24.6257 C   0  0  0  0  0  0
  -27.6076  -32.4341   25.7515 C   0  0  0  0  0  0
  -27.5591  -37.1792   24.8458 C   0  0  0  0  0  0
  -21.4229  -29.3032   22.3692 N   0  0  0  0  0  0
  -26.4294  -37.3779   23.9418 N   0  0  0  0  0  0
  -24.7000  -31.0506   22.1009 N   0  0  0  0  0  0
  -23.4244  -28.8090   23.2999 O   0  0  0  0  0  0
  -28.2908  -26.3383   20.1822 O   0  0  0  0  0  0
  -26.5620  -34.8916   22.4651 O   0  0  0  0  0  0
  -23.5471  -32.1390   23.7294 O   0  0  0  0  0  0
  -29.3929  -20.9681   19.6644 C   0  0  0  0  0  0
  -29.2900  -22.3884   19.4846 C   0  0  0  0  0  0
  -29.9214  -21.1016   17.4305 C   0  0  0  0  0  0
  -31.5162  -21.3067   15.4752 C   0  0  0  0  0  0
  -29.1206  -19.9485   20.8139 C   0  0  0  0  0  0
  -29.0217  -23.6726   20.3634 C   0  0  0  0  0  0
  -30.3016  -20.5887   16.0782 C   0  0  0  0  0  0
  -29.9563  -18.5589   21.0203 C   0  0  0  0  0  0
  -29.8675  -17.2505   20.0772 C   0  0  0  0  0  0
  -28.0855  -24.8867   19.8157 C   0  0  0  0  0  0
  -29.7004  -20.3073   18.4710 N   0  0  0  0  0  0
  -29.8017  -15.8358   20.6702 N   0  0  0  0  0  0
  -29.7143  -22.7920   17.8269 S   0  0  0  0  0  0
  -31.4786  -12.5455   19.1939 H   0  0  0  0  0  0
  -30.3637  -11.4529   19.9602 H   0  0  0  0  0  0
  -29.7930  -11.7254   17.5283 H   0  0  0  0  0  0
  -29.6528  -13.4556   17.7394 H   0  0  0  0  0  0
  -27.8972  -11.2792   18.9179 H   0  0  0  0  0  0
  -27.3838  -12.5202   17.8036 H   0  0  0  0  0  0
  -27.6451  -14.2484   19.4831 H   0  0  0  0  0  0
  -28.7151  -12.1371   21.4180 H   0  0  0  0  0  0
  -28.4269  -13.8122   21.8172 H   0  0  0  0  0  0
  -25.2702   -9.5742   22.4764 H   0  0  0  0  0  0
  -24.0023   -7.4636   22.7434 H   0  0  0  0  0  0
  -21.0837   -8.8716   19.8918 H   0  0  0  0  0  0
  -22.3614  -10.9663   19.6164 H   0  0  0  0  0  0
  -21.1974   -7.6135   23.9729 H   0  0  0  0  0  0
  -21.1522   -6.0510   25.9103 H   0  0  0  0  0  0
  -22.0582   -2.7600   23.2820 H   0  0  0  0  0  0
  -22.4027  -11.9847   22.4813 H   0  0  0  0  0  0
  -21.1087  -13.1256   22.2605 H   0  0  0  0  0  0
  -24.6747  -15.8530   20.5899 H   0  0  0  0  0  0
  -26.2890  -15.6387   20.1437 H   0  0  0  0  0  0
  -26.7232  -32.5408   23.1086 H   0  0  0  0  0  0
  -25.0155  -33.9726   25.0444 H   0  0  0  0  0  0
  -22.7253  -31.3023   21.4070 H   0  0  0  0  0  0
  -23.3765  -35.9610   23.3276 H   0  0  0  0  0  0
  -24.3590  -36.8928   22.2054 H   0  0  0  0  0  0
  -23.7230  -37.6469   23.6670 H   0  0  0  0  0  0
  -26.1254  -31.5294   20.6222 H   0  0  0  0  0  0
  -26.8558  -30.8060   22.0209 H   0  0  0  0  0  0
  -28.1169  -28.9005   21.2038 H   0  0  0  0  0  0
  -25.9266  -25.9452   18.9239 H   0  0  0  0  0  0
  -23.9645  -27.3475   18.9631 H   0  0  0  0  0  0
  -23.7938  -30.6179   19.4178 H   0  0  0  0  0  0
  -22.7659  -29.2784   19.8320 H   0  0  0  0  0  0
  -25.1298  -36.1914   25.0802 H   0  0  0  0  0  0
  -20.9972  -28.3230   24.1433 H   0  0  0  0  0  0
  -20.5711  -26.2277   23.3601 H   0  0  0  0  0  0
  -21.6642  -26.7450   22.1193 H   0  0  0  0  0  0
  -19.6912  -25.6284   21.1264 H   0  0  0  0  0  0
  -19.6707  -27.3190   20.6764 H   0  0  0  0  0  0
  -17.4208  -26.6696   21.4025 H   0  0  0  0  0  0
  -18.0315  -26.0087   22.9028 H   0  0  0  0  0  0
  -19.7927  -30.7287   24.2276 H   0  0  0  0  0  0
  -17.4998  -31.6273   24.5164 H   0  0  0  0  0  0
  -15.5346  -30.2987   23.7656 H   0  0  0  0  0  0
  -15.8674  -28.0833   22.7059 H   0  0  0  0  0  0
  -24.5850  -30.7197   25.7764 H   0  0  0  0  0  0
  -24.8971  -32.2975   26.4903 H   0  0  0  0  0  0
  -25.7994  -30.8906   27.0234 H   0  0  0  0  0  0
  -26.2961  -29.6763   24.1259 H   0  0  0  0  0  0
  -27.4019  -29.7290   25.4790 H   0  0  0  0  0  0
  -27.8855  -30.4299   23.9538 H   0  0  0  0  0  0
  -27.2702  -33.3649   26.2089 H   0  0  0  0  0  0
  -28.3887  -32.6890   25.0339 H   0  0  0  0  0  0
  -28.0753  -31.8472   26.5431 H   0  0  0  0  0  0
  -28.2566  -38.0131   24.7549 H   0  0  0  0  0  0
  -28.1118  -36.2657   24.6212 H   0  0  0  0  0  0
  -27.2317  -37.1360   25.8861 H   0  0  0  0  0  0
  -20.9405  -29.8798   21.6941 H   0  0  0  0  0  0
  -26.0160  -38.2838   24.1452 H   0  0  0  0  0  0
  -31.7988  -20.8520   14.5263 H   0  0  0  0  0  0
  -32.3780  -21.2616   16.1421 H   0  0  0  0  0  0
  -31.2943  -22.3563   15.2816 H   0  0  0  0  0  0
  -28.0627  -19.6903   20.7915 H   0  0  0  0  0  0
  -29.2373  -20.5043   21.7452 H   0  0  0  0  0  0
  -29.9967  -24.1144   20.5692 H   0  0  0  0  0  0
  -28.6473  -23.3634   21.3389 H   0  0  0  0  0  0
  -29.4391  -20.6757   15.4176 H   0  0  0  0  0  0
  -30.5261  -19.5228   16.1562 H   0  0  0  0  0  0
  -29.6757  -18.2138   22.0160 H   0  0  0  0  0  0
  -31.0100  -18.8197   21.1214 H   0  0  0  0  0  0
  -30.6966  -17.2856   19.3672 H   0  0  0  0  0  0
  -28.9786  -17.3525   19.4528 H   0  0  0  0  0  0
  -27.0737  -24.5865   20.0903 H   0  0  0  0  0  0
  -28.0992  -24.8692   18.7265 H   0  0  0  0  0  0
  -28.8901  -15.5931   21.0293 H   0  0  0  0  0  0
  1 25  1  0  0  0
  1 30  2  0  0  0
  1 82  1  0  0  0
  2  3  1  0  0  0
  2 25  1  0  0  0
  2 84  1  0  0  0
  2 85  1  0  0  0
  3  4  1  0  0  0
  3 86  1  0  0  0
  3 87  1  0  0  0
  4  5  1  0  0  0
  4 88  1  0  0  0
  4 89  1  0  0  0
  5  6  1  0  0  0
  5 26  1  0  0  0
  5 90  1  0  0  0
  6 25  1  0  0  0
  6 91  1  0  0  0
  6 92  1  0  0  0
  7  8  2  0  0  0
  7 26  1  0  0  0
  7 29  1  0  0  0
  8  9  1  0  0  0
  8 22  1  0  0  0
  9 10  1  0  0  0
  9 27  2  0  0  0
 10 11  2  0  0  0
 10 15  1  0  0  0
 11 12  1  0  0  0
 11 93  1  0  0  0
 12 13  2  0  0  0
 12 94  1  0  0  0
 13 14  1  0  0  0
 13 31  1  0  0  0
 14 15  2  0  0  0
 14 95  1  0  0  0
 15 96  1  0  0  0
 16 17  2  0  0  0
 16 21  1  0  0  0
 16 31  1  0  0  0
 17 18  1  0  0  0
 17 97  1  0  0  0
 18 19  2  0  0  0
 18 98  1  0  0  0
 19 20  1  0  0  0
 19 24  1  0  0  0
 20 21  2  0  0  0
 20 99  1  0  0  0
 21 23  1  0  0  0
 22 28  1  0  0  0
 22 32  2  0  0  0
 26 27  1  0  0  0
 28100  1  0  0  0
 28101  1  0  0  0
 29102  1  0  0  0
 29103  1  0  0  0
 33 34  1  0  0  0
 33 66  1  0  0  0
 33 70  2  0  0  0
 34 36  1  0  0  0
 34 59  1  0  0  0
 34104  1  0  0  0
 35 44  2  0  0  0
 35 45  1  0  0  0
 35 68  1  0  0  0
 36 56  1  0  0  0
 36105  1  0  0  0
 37 39  1  0  0  0
 37 47  1  0  0  0
 37 66  1  0  0  0
 37106  1  0  0  0
 38 43  2  0  0  0
 38 46  1  0  0  0
 38 47  1  0  0  0
 39 64  1  0  0  0
 39 67  2  0  0  0
 40 52  1  0  0  0
 40 53  2  0  0  0
 40 58  1  0  0  0
 41107  1  0  0  0
 41108  1  0  0  0
 41109  1  0  0  0
 41 48  1  0  0  0
 42 43  1  0  0  0
 42 66  1  0  0  0
 42110  1  0  0  0
 42111  1  0  0  0
 43 44  1  0  0  0
 44112  1  0  0  0
 45 46  2  0  0  0
 45113  1  0  0  0
 46114  1  0  0  0
 47115  1  0  0  0
 47116  1  0  0  0
 48 56  1  0  0  0
 48 65  1  0  0  0
 48117  1  0  0  0
 49 50  1  0  0  0
 49 53  1  0  0  0
 49 64  1  0  0  0
 49118  1  0  0  0
 50 51  1  0  0  0
 50119  1  0  0  0
 50120  1  0  0  0
 51 52  1  0  0  0
 51121  1  0  0  0
 51122  1  0  0  0
 52123  1  0  0  0
 52124  1  0  0  0
 53 54  1  0  0  0
 54 55  2  0  0  0
 54125  1  0  0  0
 55 57  1  0  0  0
 55126  1  0  0  0
 56 69  2  0  0  0
 57 58  2  0  0  0
 57127  1  0  0  0
 58128  1  0  0  0
 59 60  1  0  0  0
 59 61  1  0  0  0
 59 62  1  0  0  0
 60129  1  0  0  0
 60130  1  0  0  0
 60131  1  0  0  0
 61132  1  0  0  0
 61133  1  0  0  0
 61134  1  0  0  0
 62135  1  0  0  0
 62136  1  0  0  0
 62137  1  0  0  0
 63 65  1  0  0  0
 63138  1  0  0  0
 63139  1  0  0  0
 63140  1  0  0  0
 64141  1  0  0  0
 65142  1  0  0  0
 68 80  1  0  0  0
 71 72  2  0  0  0
 71 75  1  0  0  0
 71 81  1  0  0  0
 72 76  1  0  0  0
 72 83  1  0  0  0
 73 77  1  0  0  0
 73 81  2  0  0  0
 73 83  1  0  0  0
 74 77  1  0  0  0
 74143  1  0  0  0
 74144  1  0  0  0
 74145  1  0  0  0
 75 78  1  0  0  0
 75146  1  0  0  0
 75147  1  0  0  0
 76 80  1  0  0  0
 76148  1  0  0  0
 76149  1  0  0  0
 77150  1  0  0  0
 77151  1  0  0  0
 78 79  1  0  0  0
 78152  1  0  0  0
 78153  1  0  0  0
 79 82  1  0  0  0
 79154  1  0  0  0
 79155  1  0  0  0
 80156  1  0  0  0
 80157  1  0  0  0
 82158  1  0  0  0
M  ISO  4   1 100  68 101  80 101  82 100
M  END
> <chiral flag>
0

> <version>
0

> <s_m_source_file>
/data/baiqing/PycharmProjects/Reinvent-master-3.2/result/LINK_invent/BTK/process_docking_weight1_custom_sum_contain_oxygen_bond_distance_aromatic_linkinvent_7_9_3/rearranged_h_0090.sdf

> <i_m_source_file_index>
34

> <r_mmod_Potential_Energy-OPLS-2005>
145.51301574707

> <r_mmod_Stretch_Energy-OPLS-2005>
130.771743774414

> <r_mmod_Bend_Energy-OPLS-2005>
206.801956176758

> <r_mmod_Torsional_Energy-OPLS-2005>
204.602569580078

> <r_mmod_Improper_Torsional_Energy-OPLS-2005>
7.01265001296997

> <r_mmod_Van_der_Waal_Energy-OPLS-2005>
116.951461791992

> <r_mmod_Electrostatic_Energy-OPLS-2005>
-389.19482421875

> <r_mmod_Solvation_Energy-OPLS-2005>
-217.257247924805

> <b_mmod_Minimization_Converged-OPLS-2005>
0

> <r_mmod_RMS_Derivative-OPLS-2005>
2.91010975837708

$$$$
34
                    3D
 Structure written by MMmdl.
166174  0  0  1  0            999 V2000
  -30.6161  -14.6325   20.4859 C   0  0  0  0  0  0
  -30.4312  -12.3840   19.4459 C   0  0  0  0  0  0
  -29.5002  -12.4965   18.2191 C   0  0  0  0  0  0
  -28.0232  -12.3345   18.6339 C   0  0  0  0  0  0
  -27.6469  -13.2113   19.8581 C   0  0  2  0  0  0
  -28.6929  -13.0731   20.9860 C   0  0  0  0  0  0
  -25.2539  -13.8159   20.5676 C   0  0  0  0  0  0
  -24.1816  -13.0426   20.9204 C   0  0  0  0  0  0
  -24.6369  -11.6889   20.8733 C   0  0  0  0  0  0
  -23.9045  -10.4270   21.0396 C   0  0  0  0  0  0
  -24.3600   -9.4193   21.9178 C   0  0  0  0  0  0
  -23.6275   -8.2231   22.0752 C   0  0  0  0  0  0
  -22.4265   -8.0263   21.3539 C   0  0  0  0  0  0
  -21.9900   -9.0231   20.4644 C   0  0  0  0  0  0
  -22.7216  -10.2113   20.3049 C   0  0  0  0  0  0
  -21.6850   -6.0722   22.5267 C   0  0  0  0  0  0
  -21.4008   -6.5626   23.8198 C   0  0  0  0  0  0
  -21.3667   -5.6783   24.9162 C   0  0  0  0  0  0
  -21.6048   -4.3045   24.7215 C   0  0  0  0  0  0
  -21.8822   -3.8133   23.4336 C   0  0  0  0  0  0
  -21.9188   -4.6949   22.3389 C   0  0  0  0  0  0
  -22.7840  -13.5213   21.1861 C   0  0  0  0  0  0
  -22.1656   -4.2134   21.0970 F   0  0  0  0  0  0
  -21.5642   -3.4530   25.7733 F   0  0  0  0  0  0
  -30.0033  -13.4108   20.4137 N   0  0  0  0  0  0
  -26.2951  -12.9323   20.3302 N   0  0  0  0  0  0
  -25.9296  -11.6486   20.5759 N   0  0  0  0  0  0
  -22.0492  -12.8190   22.0414 N   0  0  0  0  0  0
  -25.4252  -15.1872   20.4039 N   0  0  0  0  0  0
  -31.7922  -14.7874   20.1483 O   0  0  0  0  0  0
  -21.6634   -6.8861   21.4232 O   0  0  0  0  0  0
  -22.3518  -14.5515   20.6706 O   0  0  0  0  0  0
  -24.6257  -31.8598   23.2047 C   0  0  0  0  0  0
  -25.9106  -32.4782   23.8357 C   0  0  1  0  0  0
  -27.2226  -27.3273   20.1004 C   0  0  0  0  0  0
  -25.5929  -33.8586   24.2286 N   0  0  0  0  0  0
  -23.4186  -30.4865   21.5453 C   0  0  2  0  0  0
  -24.8621  -28.9436   20.1098 C   0  0  0  0  0  0
  -22.7470  -29.4647   22.4939 C   0  0  0  0  0  0
  -18.0296  -28.1399   22.8476 C   0  0  0  0  0  0
  -24.1483  -36.7302   23.2639 C   0  0  0  0  0  0
  -25.9591  -30.7923   21.3740 C   0  0  0  0  0  0
  -26.0299  -29.4193   20.7172 C   0  0  0  0  0  0
  -27.2094  -28.6196   20.7107 C   0  0  0  0  0  0
  -26.0355  -26.9139   19.4521 C   0  0  0  0  0  0
  -24.8651  -27.6953   19.4724 C   0  0  0  0  0  0
  -23.6298  -29.8215   20.1601 C   0  0  0  0  0  0
  -25.4104  -36.3098   24.0339 C   0  0  1  0  0  0
  -20.5891  -28.3707   23.1281 C   0  0  2  0  0  0
  -20.6786  -26.9432   22.5404 C   0  0  0  0  0  0
  -19.5762  -26.6401   21.5213 C   0  0  0  0  0  0
  -18.1941  -26.7942   22.1620 C   0  0  0  0  0  0
  -19.1543  -28.8867   23.2878 C   0  0  0  0  0  0
  -18.9472  -30.1466   23.8897 C   0  0  0  0  0  0
  -17.6473  -30.6592   24.0569 C   0  0  0  0  0  0
  -25.9052  -34.9461   23.5121 C   0  0  0  0  0  0
  -16.5364  -29.9094   23.6331 C   0  0  0  0  0  0
  -16.7285  -28.6519   23.0337 C   0  0  0  0  0  0
  -26.4480  -31.6593   25.0725 C   0  0  0  0  0  0
  -25.3719  -31.3726   26.1463 C   0  0  0  0  0  0
  -27.0310  -30.3020   24.6167 C   0  0  0  0  0  0
  -27.6043  -32.4324   25.7492 C   0  0  0  0  0  0
  -27.5587  -37.1791   24.8452 C   0  0  0  0  0  0
  -21.4190  -29.3065   22.3670 N   0  0  0  0  0  0
  -26.4278  -37.3799   23.9432 N   0  0  0  0  0  0
  -24.6868  -31.0624   22.0985 N   0  0  0  0  0  0
  -23.4185  -28.8169   23.3023 O   0  0  0  0  0  0
  -28.3527  -26.4957   20.1554 O   0  0  0  0  0  0
  -26.5622  -34.8929   22.4691 O   0  0  0  0  0  0
  -23.5422  -32.1396   23.7378 O   0  0  0  0  0  0
  -30.0494  -20.5034   19.7999 C   0  0  0  0  0  0
  -29.0271  -19.6926   20.3622 C   0  0  0  0  0  0
  -28.9945  -22.4962   20.4976 C   0  0  0  0  0  0
  -27.9430  -21.6848   21.0310 C   0  0  0  0  0  0
  -24.5430  -18.9099   24.8410 C   0  0  0  0  0  0
  -28.9516  -18.1280   20.2120 C   0  0  0  0  0  0
  -29.1071  -24.0549   20.7062 C   0  0  0  0  0  0
  -26.6808  -22.2904   21.6479 C   0  0  0  0  0  0
  -25.2790  -20.2482   24.7204 C   0  0  0  0  0  0
  -26.4014  -21.8992   23.1122 C   0  0  0  0  0  0
  -25.6349  -20.5751   23.2638 C   0  0  0  0  0  0
  -30.1056  -17.1805   20.7551 C   0  0  0  0  0  0
  -28.2395  -25.0515   19.8368 C   0  0  0  0  0  0
  -30.0362  -21.8729   19.8695 N   0  0  0  0  0  0
  -27.9674  -20.3157   20.9528 N   0  0  0  0  0  0
  -29.8004  -15.7020   20.7433 N   0  0  0  0  0  0
  -31.4735  -12.5054   19.1450 H   0  0  0  0  0  0
  -30.3603  -11.3914   19.8925 H   0  0  0  0  0  0
  -29.7641  -11.7437   17.4751 H   0  0  0  0  0  0
  -29.6363  -13.4657   17.7371 H   0  0  0  0  0  0
  -27.8607  -11.2820   18.8694 H   0  0  0  0  0  0
  -27.3681  -12.5597   17.7920 H   0  0  0  0  0  0
  -27.6614  -14.2438   19.5093 H   0  0  0  0  0  0
  -28.7048  -12.0531   21.3721 H   0  0  0  0  0  0
  -28.4446  -13.7123   21.8354 H   0  0  0  0  0  0
  -25.2751   -9.5675   22.4752 H   0  0  0  0  0  0
  -23.9993   -7.4621   22.7466 H   0  0  0  0  0  0
  -21.0847   -8.8726   19.8939 H   0  0  0  0  0  0
  -22.3668  -10.9645   19.6156 H   0  0  0  0  0  0
  -21.1990   -7.6131   23.9700 H   0  0  0  0  0  0
  -21.1500   -6.0512   25.9071 H   0  0  0  0  0  0
  -22.0599   -2.7597   23.2832 H   0  0  0  0  0  0
  -22.4121  -11.9835   22.4773 H   0  0  0  0  0  0
  -21.1107  -13.1201   22.2629 H   0  0  0  0  0  0
  -24.6575  -15.8409   20.5128 H   0  0  0  0  0  0
  -26.2550  -15.6157   20.0151 H   0  0  0  0  0  0
  -26.7170  -32.5423   23.1095 H   0  0  0  0  0  0
  -25.0045  -33.9734   25.0410 H   0  0  0  0  0  0
  -22.7154  -31.3096   21.4011 H   0  0  0  0  0  0
  -23.3770  -35.9605   23.3255 H   0  0  0  0  0  0
  -24.3591  -36.8976   22.2066 H   0  0  0  0  0  0
  -23.7203  -37.6483   23.6674 H   0  0  0  0  0  0
  -26.0925  -31.5533   20.6039 H   0  0  0  0  0  0
  -26.8413  -30.8385   22.0007 H   0  0  0  0  0  0
  -28.1033  -28.9771   21.2014 H   0  0  0  0  0  0
  -25.9760  -25.9798   18.9150 H   0  0  0  0  0  0
  -23.9706  -27.3347   18.9850 H   0  0  0  0  0  0
  -23.7480  -30.5958   19.4026 H   0  0  0  0  0  0
  -22.7502  -29.2502   19.8574 H   0  0  0  0  0  0
  -25.1276  -36.1947   25.0828 H   0  0  0  0  0  0
  -20.9983  -28.3272   24.1404 H   0  0  0  0  0  0
  -20.5720  -26.2309   23.3599 H   0  0  0  0  0  0
  -21.6650  -26.7480   22.1178 H   0  0  0  0  0  0
  -19.6934  -25.6322   21.1229 H   0  0  0  0  0  0
  -19.6700  -27.3219   20.6753 H   0  0  0  0  0  0
  -17.4214  -26.6700   21.4021 H   0  0  0  0  0  0
  -18.0338  -26.0092   22.9022 H   0  0  0  0  0  0
  -19.7951  -30.7279   24.2260 H   0  0  0  0  0  0
  -17.5035  -31.6269   24.5185 H   0  0  0  0  0  0
  -15.5367  -30.2996   23.7679 H   0  0  0  0  0  0
  -15.8681  -28.0849   22.7037 H   0  0  0  0  0  0
  -24.5882  -30.7088   25.7798 H   0  0  0  0  0  0
  -24.8924  -32.2892   26.4906 H   0  0  0  0  0  0
  -25.8059  -30.8886   27.0224 H   0  0  0  0  0  0
  -26.2862  -29.6792   24.1201 H   0  0  0  0  0  0
  -27.4034  -29.7263   25.4653 H   0  0  0  0  0  0
  -27.8724  -30.4337   23.9363 H   0  0  0  0  0  0
  -27.2656  -33.3638   26.2046 H   0  0  0  0  0  0
  -28.3856  -32.6873   25.0317 H   0  0  0  0  0  0
  -28.0692  -31.8458   26.5431 H   0  0  0  0  0  0
  -28.2553  -38.0138   24.7583 H   0  0  0  0  0  0
  -28.1133  -36.2681   24.6152 H   0  0  0  0  0  0
  -27.2318  -37.1296   25.8852 H   0  0  0  0  0  0
  -20.9370  -29.8777   21.6864 H   0  0  0  0  0  0
  -26.0162  -38.2867   24.1468 H   0  0  0  0  0  0
  -30.8721  -20.0507   19.2650 H   0  0  0  0  0  0
  -24.3444  -18.6624   25.8846 H   0  0  0  0  0  0
  -25.1336  -18.0990   24.4123 H   0  0  0  0  0  0
  -23.5859  -18.9382   24.3190 H   0  0  0  0  0  0
  -28.8205  -17.9264   19.1489 H   0  0  0  0  0  0
  -28.0175  -17.8105   20.6773 H   0  0  0  0  0  0
  -30.1555  -24.3263   20.5790 H   0  0  0  0  0  0
  -28.8982  -24.2535   21.7575 H   0  0  0  0  0  0
  -25.8252  -22.0548   21.0129 H   0  0  0  0  0  0
  -26.7518  -23.3731   21.6255 H   0  0  0  0  0  0
  -26.1869  -20.2146   25.3229 H   0  0  0  0  0  0
  -24.6602  -21.0427   25.1408 H   0  0  0  0  0  0
  -25.7815  -22.6839   23.5496 H   0  0  0  0  0  0
  -27.3265  -21.8957   23.6906 H   0  0  0  0  0  0
  -24.7208  -20.6165   22.6688 H   0  0  0  0  0  0
  -26.2267  -19.7568   22.8534 H   0  0  0  0  0  0
  -30.3220  -17.4516   21.7893 H   0  0  0  0  0  0
  -31.0198  -17.3725   20.1918 H   0  0  0  0  0  0
  -27.2180  -24.7012   19.9445 H   0  0  0  0  0  0
  -28.4976  -24.9200   18.7853 H   0  0  0  0  0  0
  -28.8453  -15.4529   20.9521 H   0  0  0  0  0  0
  1 25  1  0  0  0
  1 30  2  0  0  0
  1 86  1  0  0  0
  2  3  1  0  0  0
  2 25  1  0  0  0
  2 87  1  0  0  0
  2 88  1  0  0  0
  3  4  1  0  0  0
  3 89  1  0  0  0
  3 90  1  0  0  0
  4  5  1  0  0  0
  4 91  1  0  0  0
  4 92  1  0  0  0
  5  6  1  0  0  0
  5 26  1  0  0  0
  5 93  1  0  0  0
  6 25  1  0  0  0
  6 94  1  0  0  0
  6 95  1  0  0  0
  7  8  2  0  0  0
  7 26  1  0  0  0
  7 29  1  0  0  0
  8  9  1  0  0  0
  8 22  1  0  0  0
  9 10  1  0  0  0
  9 27  2  0  0  0
 10 11  2  0  0  0
 10 15  1  0  0  0
 11 12  1  0  0  0
 11 96  1  0  0  0
 12 13  2  0  0  0
 12 97  1  0  0  0
 13 14  1  0  0  0
 13 31  1  0  0  0
 14 15  2  0  0  0
 14 98  1  0  0  0
 15 99  1  0  0  0
 16 17  2  0  0  0
 16 21  1  0  0  0
 16 31  1  0  0  0
 17 18  1  0  0  0
 17100  1  0  0  0
 18 19  2  0  0  0
 18101  1  0  0  0
 19 20  1  0  0  0
 19 24  1  0  0  0
 20 21  2  0  0  0
 20102  1  0  0  0
 21 23  1  0  0  0
 22 28  1  0  0  0
 22 32  2  0  0  0
 26 27  1  0  0  0
 28103  1  0  0  0
 28104  1  0  0  0
 29105  1  0  0  0
 29106  1  0  0  0
 33 34  1  0  0  0
 33 66  1  0  0  0
 33 70  2  0  0  0
 34 36  1  0  0  0
 34 59  1  0  0  0
 34107  1  0  0  0
 35 44  2  0  0  0
 35 45  1  0  0  0
 35 68  1  0  0  0
 36 56  1  0  0  0
 36108  1  0  0  0
 37 39  1  0  0  0
 37 47  1  0  0  0
 37 66  1  0  0  0
 37109  1  0  0  0
 38 43  2  0  0  0
 38 46  1  0  0  0
 38 47  1  0  0  0
 39 64  1  0  0  0
 39 67  2  0  0  0
 40 52  1  0  0  0
 40 53  2  0  0  0
 40 58  1  0  0  0
 41110  1  0  0  0
 41111  1  0  0  0
 41112  1  0  0  0
 41 48  1  0  0  0
 42 43  1  0  0  0
 42 66  1  0  0  0
 42113  1  0  0  0
 42114  1  0  0  0
 43 44  1  0  0  0
 44115  1  0  0  0
 45 46  2  0  0  0
 45116  1  0  0  0
 46117  1  0  0  0
 47118  1  0  0  0
 47119  1  0  0  0
 48 56  1  0  0  0
 48 65  1  0  0  0
 48120  1  0  0  0
 49 50  1  0  0  0
 49 53  1  0  0  0
 49 64  1  0  0  0
 49121  1  0  0  0
 50 51  1  0  0  0
 50122  1  0  0  0
 50123  1  0  0  0
 51 52  1  0  0  0
 51124  1  0  0  0
 51125  1  0  0  0
 52126  1  0  0  0
 52127  1  0  0  0
 53 54  1  0  0  0
 54 55  2  0  0  0
 54128  1  0  0  0
 55 57  1  0  0  0
 55129  1  0  0  0
 56 69  2  0  0  0
 57 58  2  0  0  0
 57130  1  0  0  0
 58131  1  0  0  0
 59 60  1  0  0  0
 59 61  1  0  0  0
 59 62  1  0  0  0
 60132  1  0  0  0
 60133  1  0  0  0
 60134  1  0  0  0
 61135  1  0  0  0
 61136  1  0  0  0
 61137  1  0  0  0
 62138  1  0  0  0
 62139  1  0  0  0
 62140  1  0  0  0
 63 65  1  0  0  0
 63141  1  0  0  0
 63142  1  0  0  0
 63143  1  0  0  0
 64144  1  0  0  0
 65145  1  0  0  0
 68 83  1  0  0  0
 71 72  2  0  0  0
 71 84  1  0  0  0
 71146  1  0  0  0
 72 76  1  0  0  0
 72 85  1  0  0  0
 73 74  1  0  0  0
 73 77  1  0  0  0
 73 84  2  0  0  0
 74 78  1  0  0  0
 74 85  2  0  0  0
 75 79  1  0  0  0
 75147  1  0  0  0
 75148  1  0  0  0
 75149  1  0  0  0
 76 82  1  0  0  0
 76150  1  0  0  0
 76151  1  0  0  0
 77 83  1  0  0  0
 77152  1  0  0  0
 77153  1  0  0  0
 78 80  1  0  0  0
 78154  1  0  0  0
 78155  1  0  0  0
 79 81  1  0  0  0
 79156  1  0  0  0
 79157  1  0  0  0
 80 81  1  0  0  0
 80158  1  0  0  0
 80159  1  0  0  0
 81160  1  0  0  0
 81161  1  0  0  0
 82 86  1  0  0  0
 82162  1  0  0  0
 82163  1  0  0  0
 83164  1  0  0  0
 83165  1  0  0  0
 86166  1  0  0  0
M  ISO  4   1 100  68 101  83 101  86 100
M  END
> <chiral flag>
0

> <version>
0

> <s_m_source_file>
/data/baiqing/PycharmProjects/Reinvent-master-3.2/result/LINK_invent/BTK/process_docking_weight1_custom_sum_contain_oxygen_bond_distance_aromatic_linkinvent_7_9_3/rearranged_h_0090.sdf

> <i_m_source_file_index>
35

> <r_mmod_Potential_Energy-OPLS-2005>
78.9839401245117

> <r_mmod_Stretch_Energy-OPLS-2005>
80.0777282714844

> <r_mmod_Bend_Energy-OPLS-2005>
136.823883056641

> <r_mmod_Torsional_Energy-OPLS-2005>
195.17822265625

> <r_mmod_Improper_Torsional_Energy-OPLS-2005>
5.77864551544189

> <r_mmod_Van_der_Waal_Energy-OPLS-2005>
145.392013549805

> <r_mmod_Electrostatic_Energy-OPLS-2005>
-310.628845214844

> <r_mmod_Solvation_Energy-OPLS-2005>
-220.530883789062

> <b_mmod_Minimization_Converged-OPLS-2005>
0

> <r_mmod_RMS_Derivative-OPLS-2005>
2.05669784545898

$$$$
35
                    3D
 Structure written by MMmdl.
167175  0  0  1  0            999 V2000
  -30.6147  -14.7626   20.4422 C   0  0  0  0  0  0
  -30.4335  -12.4651   19.4630 C   0  0  0  0  0  0
  -29.5018  -12.4856   18.2308 C   0  0  0  0  0  0
  -28.0305  -12.3109   18.6551 C   0  0  0  0  0  0
  -27.6366  -13.2326   19.8408 C   0  0  2  0  0  0
  -28.6867  -13.1885   20.9711 C   0  0  0  0  0  0
  -25.2500  -13.8195   20.5705 C   0  0  0  0  0  0
  -24.1787  -13.0441   20.9208 C   0  0  0  0  0  0
  -24.6375  -11.6910   20.8750 C   0  0  0  0  0  0
  -23.9064  -10.4283   21.0411 C   0  0  0  0  0  0
  -24.3617   -9.4204   21.9195 C   0  0  0  0  0  0
  -23.6291   -8.2240   22.0761 C   0  0  0  0  0  0
  -22.4279   -8.0273   21.3555 C   0  0  0  0  0  0
  -21.9910   -9.0237   20.4657 C   0  0  0  0  0  0
  -22.7234  -10.2122   20.3060 C   0  0  0  0  0  0
  -21.6849   -6.0729   22.5278 C   0  0  0  0  0  0
  -21.4005   -6.5638   23.8205 C   0  0  0  0  0  0
  -21.3657   -5.6797   24.9168 C   0  0  0  0  0  0
  -21.6034   -4.3055   24.7228 C   0  0  0  0  0  0
  -21.8823   -3.8148   23.4346 C   0  0  0  0  0  0
  -21.9189   -4.6957   22.3397 C   0  0  0  0  0  0
  -22.7805  -13.5221   21.1852 C   0  0  0  0  0  0
  -22.1661   -4.2144   21.0985 F   0  0  0  0  0  0
  -21.5630   -3.4549   25.7741 F   0  0  0  0  0  0
  -29.9803  -13.5404   20.3737 N   0  0  0  0  0  0
  -26.2916  -12.9408   20.3277 N   0  0  0  0  0  0
  -25.9320  -11.6549   20.5786 N   0  0  0  0  0  0
  -22.0462  -12.8187   22.0403 N   0  0  0  0  0  0
  -25.4192  -15.1919   20.4151 N   0  0  0  0  0  0
  -31.8178  -14.8389   20.1789 O   0  0  0  0  0  0
  -21.6639   -6.8871   21.4237 O   0  0  0  0  0  0
  -22.3485  -14.5539   20.6725 O   0  0  0  0  0  0
  -24.6307  -31.8521   23.1977 C   0  0  0  0  0  0
  -25.9147  -32.4727   23.8302 C   0  0  1  0  0  0
  -27.2177  -27.2601   20.1135 C   0  0  0  0  0  0
  -25.5978  -33.8538   24.2219 N   0  0  0  0  0  0
  -23.4281  -30.4776   21.5380 C   0  0  2  0  0  0
  -24.8752  -28.9296   20.1024 C   0  0  0  0  0  0
  -22.7514  -29.4570   22.4853 C   0  0  0  0  0  0
  -18.0290  -28.1365   22.8417 C   0  0  0  0  0  0
  -24.1511  -36.7274   23.2635 C   0  0  0  0  0  0
  -25.9759  -30.7628   21.3817 C   0  0  0  0  0  0
  -26.0453  -29.3873   20.7176 C   0  0  0  0  0  0
  -27.2192  -28.5657   20.7138 C   0  0  0  0  0  0
  -26.0255  -26.8767   19.4572 C   0  0  0  0  0  0
  -24.8706  -27.6833   19.4596 C   0  0  0  0  0  0
  -23.6488  -29.8214   20.1515 C   0  0  0  0  0  0
  -25.4128  -36.3052   24.0314 C   0  0  1  0  0  0
  -20.5892  -28.3685   23.1224 C   0  0  2  0  0  0
  -20.6807  -26.9394   22.5386 C   0  0  0  0  0  0
  -19.5810  -26.6338   21.5176 C   0  0  0  0  0  0
  -18.1955  -26.7893   22.1556 C   0  0  0  0  0  0
  -19.1544  -28.8838   23.2821 C   0  0  0  0  0  0
  -18.9486  -30.1435   23.8850 C   0  0  0  0  0  0
  -17.6492  -30.6561   24.0558 C   0  0  0  0  0  0
  -25.9074  -34.9425   23.5051 C   0  0  0  0  0  0
  -16.5375  -29.9059   23.6338 C   0  0  0  0  0  0
  -16.7275  -28.6502   23.0303 C   0  0  0  0  0  0
  -26.4524  -31.6556   25.0691 C   0  0  0  0  0  0
  -25.3763  -31.3714   26.1431 C   0  0  0  0  0  0
  -27.0383  -30.2969   24.6182 C   0  0  0  0  0  0
  -27.6084  -32.4311   25.7453 C   0  0  0  0  0  0
  -27.5587  -37.1777   24.8444 C   0  0  0  0  0  0
  -21.4217  -29.3061   22.3645 N   0  0  0  0  0  0
  -26.4281  -37.3771   23.9428 N   0  0  0  0  0  0
  -24.6972  -31.0487   22.0952 N   0  0  0  0  0  0
  -23.4221  -28.8078   23.2931 O   0  0  0  0  0  0
  -28.3146  -26.3651   20.1846 O   0  0  0  0  0  0
  -26.5631  -34.8916   22.4606 O   0  0  0  0  0  0
  -23.5467  -32.1338   23.7277 O   0  0  0  0  0  0
  -27.1666  -21.5489   21.2299 C   0  0  0  0  0  0
  -28.3695  -21.0695   20.6735 C   0  0  0  0  0  0
  -26.2154  -20.6932   21.8057 C   0  0  0  0  0  0
  -28.5839  -19.6095   20.7394 C   0  0  0  0  0  0
  -26.5240  -19.3207   21.8528 C   0  0  0  0  0  0
  -25.5778  -18.2916   22.4451 C   0  0  0  0  0  0
  -23.9712  -21.5574   21.0589 C   0  0  0  0  0  0
  -25.0179  -22.5055   23.1754 C   0  0  0  0  0  0
  -29.2118  -22.2198   19.9861 C   0  0  0  0  0  0
  -29.6601  -18.6773   20.0435 C   0  0  0  0  0  0
  -29.1209  -23.7787   20.4993 C   0  0  0  0  0  0
  -30.3130  -17.3746   20.7939 C   0  0  0  0  0  0
  -28.1287  -24.9000   19.8810 C   0  0  0  0  0  0
  -24.8709  -21.2644   22.2716 C   0  0  0  0  0  0
  -27.6605  -18.8188   21.3331 N   0  0  0  0  0  0
  -29.8542  -15.9158   20.6076 N   0  0  0  0  0  0
  -31.4710  -12.5948   19.1491 H   0  0  0  0  0  0
  -30.3940  -11.4976   19.9670 H   0  0  0  0  0  0
  -29.7817  -11.6924   17.5349 H   0  0  0  0  0  0
  -29.6191  -13.4259   17.6908 H   0  0  0  0  0  0
  -27.8949  -11.2668   18.9414 H   0  0  0  0  0  0
  -27.3661  -12.4781   17.8062 H   0  0  0  0  0  0
  -27.6193  -14.2466   19.4385 H   0  0  0  0  0  0
  -28.7302  -12.1956   21.4199 H   0  0  0  0  0  0
  -28.4232  -13.8810   21.7740 H   0  0  0  0  0  0
  -25.2760   -9.5671   22.4777 H   0  0  0  0  0  0
  -23.9988   -7.4630   22.7490 H   0  0  0  0  0  0
  -21.0837   -8.8757   19.8964 H   0  0  0  0  0  0
  -22.3695  -10.9664   19.6166 H   0  0  0  0  0  0
  -21.1997   -7.6146   23.9704 H   0  0  0  0  0  0
  -21.1476   -6.0538   25.9078 H   0  0  0  0  0  0
  -22.0607   -2.7611   23.2857 H   0  0  0  0  0  0
  -22.4081  -11.9830   22.4745 H   0  0  0  0  0  0
  -21.1096  -13.1215   22.2669 H   0  0  0  0  0  0
  -24.6507  -15.8433   20.5294 H   0  0  0  0  0  0
  -26.2731  -15.6400   20.1059 H   0  0  0  0  0  0
  -26.7184  -32.5361   23.1009 H   0  0  0  0  0  0
  -25.0282  -33.9710   25.0479 H   0  0  0  0  0  0
  -22.7231  -31.3007   21.3937 H   0  0  0  0  0  0
  -23.3799  -35.9589   23.3244 H   0  0  0  0  0  0
  -24.3617  -36.8944   22.2065 H   0  0  0  0  0  0
  -23.7234  -37.6437   23.6708 H   0  0  0  0  0  0
  -26.1176  -31.5249   20.6149 H   0  0  0  0  0  0
  -26.8541  -30.8058   22.0164 H   0  0  0  0  0  0
  -28.1141  -28.9108   21.2116 H   0  0  0  0  0  0
  -25.9527  -25.9333   18.9361 H   0  0  0  0  0  0
  -23.9801  -27.3346   18.9556 H   0  0  0  0  0  0
  -23.7821  -30.6082   19.4074 H   0  0  0  0  0  0
  -22.7643  -29.2685   19.8322 H   0  0  0  0  0  0
  -25.1293  -36.1882   25.0802 H   0  0  0  0  0  0
  -20.9969  -28.3274   24.1353 H   0  0  0  0  0  0
  -20.5713  -26.2286   23.3589 H   0  0  0  0  0  0
  -21.6671  -26.7405   22.1194 H   0  0  0  0  0  0
  -19.7025  -25.6247   21.1231 H   0  0  0  0  0  0
  -19.6788  -27.3155   20.6721 H   0  0  0  0  0  0
  -17.4240  -26.6601   21.3947 H   0  0  0  0  0  0
  -18.0367  -26.0011   22.8929 H   0  0  0  0  0  0
  -19.7995  -30.7240   24.2173 H   0  0  0  0  0  0
  -17.5073  -31.6248   24.5170 H   0  0  0  0  0  0
  -15.5394  -30.2978   23.7702 H   0  0  0  0  0  0
  -15.8653  -28.0866   22.6989 H   0  0  0  0  0  0
  -24.6023  -30.6923   25.7799 H   0  0  0  0  0  0
  -24.8872  -32.2880   26.4735 H   0  0  0  0  0  0
  -25.8107  -30.9021   27.0268 H   0  0  0  0  0  0
  -26.2958  -29.6668   24.1258 H   0  0  0  0  0  0
  -27.4126  -29.7249   25.4683 H   0  0  0  0  0  0
  -27.8789  -30.4225   23.9364 H   0  0  0  0  0  0
  -27.2724  -33.3683   26.1902 H   0  0  0  0  0  0
  -28.3958  -32.6735   25.0304 H   0  0  0  0  0  0
  -28.0670  -31.8502   26.5466 H   0  0  0  0  0  0
  -28.2516  -38.0164   24.7569 H   0  0  0  0  0  0
  -28.1155  -36.2670   24.6142 H   0  0  0  0  0  0
  -27.2314  -37.1254   25.8851 H   0  0  0  0  0  0
  -20.9384  -29.8798   21.6872 H   0  0  0  0  0  0
  -26.0127  -38.2808   24.1541 H   0  0  0  0  0  0
  -26.9297  -22.5966   21.1664 H   0  0  0  0  0  0
  -24.6410  -18.2644   21.8891 H   0  0  0  0  0  0
  -25.3581  -18.5284   23.4862 H   0  0  0  0  0  0
  -26.0072  -17.2892   22.4211 H   0  0  0  0  0  0
  -23.7931  -20.6513   20.4765 H   0  0  0  0  0  0
  -24.4133  -22.2974   20.3893 H   0  0  0  0  0  0
  -22.9965  -21.9354   21.3696 H   0  0  0  0  0  0
  -25.6342  -22.2915   24.0483 H   0  0  0  0  0  0
  -24.0440  -22.8281   23.5468 H   0  0  0  0  0  0
  -25.4548  -23.3599   22.6587 H   0  0  0  0  0  0
  -29.0034  -22.1922   18.9161 H   0  0  0  0  0  0
  -30.2555  -21.9169   20.0813 H   0  0  0  0  0  0
  -30.4828  -19.3519   19.8051 H   0  0  0  0  0  0
  -29.2676  -18.3746   19.0718 H   0  0  0  0  0  0
  -30.1135  -24.1903   20.3167 H   0  0  0  0  0  0
  -29.0396  -23.7863   21.5864 H   0  0  0  0  0  0
  -30.3705  -17.5833   21.8625 H   0  0  0  0  0  0
  -31.3549  -17.3751   20.4686 H   0  0  0  0  0  0
  -27.1271  -24.6075   20.1937 H   0  0  0  0  0  0
  -28.1474  -24.7985   18.7966 H   0  0  0  0  0  0
  -24.3558  -20.5203   22.8771 H   0  0  0  0  0  0
  -28.8640  -15.7607   20.7214 H   0  0  0  0  0  0
  1 25  1  0  0  0
  1 30  2  0  0  0
  1 86  1  0  0  0
  2  3  1  0  0  0
  2 25  1  0  0  0
  2 87  1  0  0  0
  2 88  1  0  0  0
  3  4  1  0  0  0
  3 89  1  0  0  0
  3 90  1  0  0  0
  4  5  1  0  0  0
  4 91  1  0  0  0
  4 92  1  0  0  0
  5  6  1  0  0  0
  5 26  1  0  0  0
  5 93  1  0  0  0
  6 25  1  0  0  0
  6 94  1  0  0  0
  6 95  1  0  0  0
  7  8  2  0  0  0
  7 26  1  0  0  0
  7 29  1  0  0  0
  8  9  1  0  0  0
  8 22  1  0  0  0
  9 10  1  0  0  0
  9 27  2  0  0  0
 10 11  2  0  0  0
 10 15  1  0  0  0
 11 12  1  0  0  0
 11 96  1  0  0  0
 12 13  2  0  0  0
 12 97  1  0  0  0
 13 14  1  0  0  0
 13 31  1  0  0  0
 14 15  2  0  0  0
 14 98  1  0  0  0
 15 99  1  0  0  0
 16 17  2  0  0  0
 16 21  1  0  0  0
 16 31  1  0  0  0
 17 18  1  0  0  0
 17100  1  0  0  0
 18 19  2  0  0  0
 18101  1  0  0  0
 19 20  1  0  0  0
 19 24  1  0  0  0
 20 21  2  0  0  0
 20102  1  0  0  0
 21 23  1  0  0  0
 22 28  1  0  0  0
 22 32  2  0  0  0
 26 27  1  0  0  0
 28103  1  0  0  0
 28104  1  0  0  0
 29105  1  0  0  0
 29106  1  0  0  0
 33 34  1  0  0  0
 33 66  1  0  0  0
 33 70  2  0  0  0
 34 36  1  0  0  0
 34 59  1  0  0  0
 34107  1  0  0  0
 35 44  2  0  0  0
 35 45  1  0  0  0
 35 68  1  0  0  0
 36 56  1  0  0  0
 36108  1  0  0  0
 37 39  1  0  0  0
 37 47  1  0  0  0
 37 66  1  0  0  0
 37109  1  0  0  0
 38 43  2  0  0  0
 38 46  1  0  0  0
 38 47  1  0  0  0
 39 64  1  0  0  0
 39 67  2  0  0  0
 40 52  1  0  0  0
 40 53  2  0  0  0
 40 58  1  0  0  0
 41110  1  0  0  0
 41111  1  0  0  0
 41112  1  0  0  0
 41 48  1  0  0  0
 42 43  1  0  0  0
 42 66  1  0  0  0
 42113  1  0  0  0
 42114  1  0  0  0
 43 44  1  0  0  0
 44115  1  0  0  0
 45 46  2  0  0  0
 45116  1  0  0  0
 46117  1  0  0  0
 47118  1  0  0  0
 47119  1  0  0  0
 48 56  1  0  0  0
 48 65  1  0  0  0
 48120  1  0  0  0
 49 50  1  0  0  0
 49 53  1  0  0  0
 49 64  1  0  0  0
 49121  1  0  0  0
 50 51  1  0  0  0
 50122  1  0  0  0
 50123  1  0  0  0
 51 52  1  0  0  0
 51124  1  0  0  0
 51125  1  0  0  0
 52126  1  0  0  0
 52127  1  0  0  0
 53 54  1  0  0  0
 54 55  2  0  0  0
 54128  1  0  0  0
 55 57  1  0  0  0
 55129  1  0  0  0
 56 69  2  0  0  0
 57 58  2  0  0  0
 57130  1  0  0  0
 58131  1  0  0  0
 59 60  1  0  0  0
 59 61  1  0  0  0
 59 62  1  0  0  0
 60132  1  0  0  0
 60133  1  0  0  0
 60134  1  0  0  0
 61135  1  0  0  0
 61136  1  0  0  0
 61137  1  0  0  0
 62138  1  0  0  0
 62139  1  0  0  0
 62140  1  0  0  0
 63 65  1  0  0  0
 63141  1  0  0  0
 63142  1  0  0  0
 63143  1  0  0  0
 64144  1  0  0  0
 65145  1  0  0  0
 68 83  1  0  0  0
 71 72  2  0  0  0
 71 73  1  0  0  0
 71146  1  0  0  0
 72 74  1  0  0  0
 72 79  1  0  0  0
 73 75  2  0  0  0
 73 84  1  0  0  0
 74 80  1  0  0  0
 74 85  2  0  0  0
 75 76  1  0  0  0
 75 85  1  0  0  0
 76147  1  0  0  0
 76148  1  0  0  0
 76149  1  0  0  0
 77150  1  0  0  0
 77151  1  0  0  0
 77152  1  0  0  0
 77 84  1  0  0  0
 78 84  1  0  0  0
 78153  1  0  0  0
 78154  1  0  0  0
 78155  1  0  0  0
 79 81  1  0  0  0
 79156  1  0  0  0
 79157  1  0  0  0
 80 82  1  0  0  0
 80158  1  0  0  0
 80159  1  0  0  0
 81 83  1  0  0  0
 81160  1  0  0  0
 81161  1  0  0  0
 82 86  1  0  0  0
 82162  1  0  0  0
 82163  1  0  0  0
 83164  1  0  0  0
 83165  1  0  0  0
 84166  1  0  0  0
 86167  1  0  0  0
M  ISO  4   1 100  68 101  83 101  86 100
M  END
> <chiral flag>
0

> <version>
0

> <s_m_source_file>
/data/baiqing/PycharmProjects/Reinvent-master-3.2/result/LINK_invent/BTK/process_docking_weight1_custom_sum_contain_oxygen_bond_distance_aromatic_linkinvent_7_9_3/rearranged_h_0090.sdf

> <i_m_source_file_index>
36

> <r_mmod_Potential_Energy-OPLS-2005>
99.4145660400391

> <r_mmod_Stretch_Energy-OPLS-2005>
140.5673828125

> <r_mmod_Bend_Energy-OPLS-2005>
219.349090576172

> <r_mmod_Torsional_Energy-OPLS-2005>
224.429321289062

> <r_mmod_Improper_Torsional_Energy-OPLS-2005>
5.24672508239746

> <r_mmod_Van_der_Waal_Energy-OPLS-2005>
136.307235717773

> <r_mmod_Electrostatic_Energy-OPLS-2005>
-506.341857910156

> <r_mmod_Solvation_Energy-OPLS-2005>
-213.355026245117

> <b_mmod_Minimization_Converged-OPLS-2005>
0

> <r_mmod_RMS_Derivative-OPLS-2005>
3.50139188766479

$$$$
36
                    3D
 Structure written by MMmdl.
158166  0  0  1  0            999 V2000
  -30.7050  -14.4393   20.6162 C   0  0  0  0  0  0
  -30.4352  -12.3083   19.4011 C   0  0  0  0  0  0
  -29.4940  -12.5243   18.1988 C   0  0  0  0  0  0
  -28.0167  -12.3815   18.6131 C   0  0  0  0  0  0
  -27.6692  -13.2025   19.8831 C   0  0  2  0  0  0
  -28.7124  -12.9413   20.9933 C   0  0  0  0  0  0
  -25.2645  -13.8152   20.5683 C   0  0  0  0  0  0
  -24.1865  -13.0437   20.9146 C   0  0  0  0  0  0
  -24.6400  -11.6900   20.8701 C   0  0  0  0  0  0
  -23.9042  -10.4301   21.0390 C   0  0  0  0  0  0
  -24.3602   -9.4226   21.9174 C   0  0  0  0  0  0
  -23.6298   -8.2254   22.0743 C   0  0  0  0  0  0
  -22.4281   -8.0282   21.3536 C   0  0  0  0  0  0
  -21.9910   -9.0244   20.4633 C   0  0  0  0  0  0
  -22.7211  -10.2135   20.3053 C   0  0  0  0  0  0
  -21.6853   -6.0729   22.5283 C   0  0  0  0  0  0
  -21.3989   -6.5631   23.8208 C   0  0  0  0  0  0
  -21.3678   -5.6789   24.9180 C   0  0  0  0  0  0
  -21.6055   -4.3050   24.7229 C   0  0  0  0  0  0
  -21.8815   -3.8141   23.4346 C   0  0  0  0  0  0
  -21.9187   -4.6957   22.3401 C   0  0  0  0  0  0
  -22.7890  -13.5274   21.1809 C   0  0  0  0  0  0
  -22.1659   -4.2139   21.0983 F   0  0  0  0  0  0
  -21.5669   -3.4534   25.7747 F   0  0  0  0  0  0
  -30.0464  -13.2616   20.4523 N   0  0  0  0  0  0
  -26.3074  -12.9302   20.3402 N   0  0  0  0  0  0
  -25.9330  -11.6457   20.5746 N   0  0  0  0  0  0
  -22.0500  -12.8273   22.0364 N   0  0  0  0  0  0
  -25.4427  -15.1871   20.4107 N   0  0  0  0  0  0
  -31.7954  -14.6864   20.0931 O   0  0  0  0  0  0
  -21.6647   -6.8876   21.4240 O   0  0  0  0  0  0
  -22.3567  -14.5564   20.6644 O   0  0  0  0  0  0
  -24.6121  -31.8684   23.2126 C   0  0  0  0  0  0
  -25.9034  -32.4817   23.8415 C   0  0  1  0  0  0
  -27.2373  -27.4545   20.1000 C   0  0  0  0  0  0
  -25.5901  -33.8617   24.2354 N   0  0  0  0  0  0
  -23.4005  -30.4915   21.5507 C   0  0  2  0  0  0
  -24.8512  -28.9556   20.1175 C   0  0  0  0  0  0
  -22.7404  -29.4655   22.4987 C   0  0  0  0  0  0
  -18.0268  -28.1386   22.8483 C   0  0  0  0  0  0
  -24.1484  -36.7316   23.2639 C   0  0  0  0  0  0
  -25.9260  -30.8401   21.3636 C   0  0  0  0  0  0
  -26.0068  -29.4733   20.7165 C   0  0  0  0  0  0
  -27.2050  -28.7268   20.7121 C   0  0  0  0  0  0
  -26.0733  -26.9464   19.4913 C   0  0  0  0  0  0
  -24.8763  -27.6894   19.5043 C   0  0  0  0  0  0
  -23.6119  -29.8210   20.1654 C   0  0  0  0  0  0
  -25.4100  -36.3118   24.0345 C   0  0  1  0  0  0
  -20.5856  -28.3670   23.1318 C   0  0  2  0  0  0
  -20.6761  -26.9405   22.5416 C   0  0  0  0  0  0
  -19.5739  -26.6389   21.5212 C   0  0  0  0  0  0
  -18.1917  -26.7934   22.1618 C   0  0  0  0  0  0
  -19.1518  -28.8842   23.2897 C   0  0  0  0  0  0
  -18.9448  -30.1448   23.8913 C   0  0  0  0  0  0
  -17.6451  -30.6592   24.0570 C   0  0  0  0  0  0
  -25.9028  -34.9474   23.5146 C   0  0  0  0  0  0
  -16.5342  -29.9098   23.6325 C   0  0  0  0  0  0
  -16.7257  -28.6513   23.0343 C   0  0  0  0  0  0
  -26.4480  -31.6580   25.0723 C   0  0  0  0  0  0
  -25.3777  -31.3657   26.1492 C   0  0  0  0  0  0
  -27.0315  -30.3035   24.6067 C   0  0  0  0  0  0
  -27.6071  -32.4287   25.7475 C   0  0  0  0  0  0
  -27.5581  -37.1811   24.8470 C   0  0  0  0  0  0
  -21.4129  -29.3046   22.3742 N   0  0  0  0  0  0
  -26.4296  -37.3794   23.9411 N   0  0  0  0  0  0
  -24.6640  -31.0806   22.1017 N   0  0  0  0  0  0
  -23.4178  -28.8199   23.3029 O   0  0  0  0  0  0
  -28.3908  -26.7106   20.0709 O   0  0  0  0  0  0
  -26.5571  -34.8917   22.4697 O   0  0  0  0  0  0
  -23.5319  -32.1429   23.7540 O   0  0  0  0  0  0
  -28.8439  -19.9076   19.8797 C   0  0  0  0  0  0
  -29.8871  -19.0743   20.1761 C   0  0  0  0  0  0
  -28.2584  -23.6314   22.3079 C   0  0  0  0  0  0
  -29.9321  -17.5634   20.0897 C   0  0  0  0  0  0
  -29.2422  -23.7592   19.9632 C   0  0  0  0  0  0
  -28.7792  -22.4037   19.3609 C   0  0  0  0  0  0
  -30.3199  -16.8131   21.3848 C   0  0  0  0  0  0
  -28.5994  -25.8977   21.2301 C   0  0  0  0  0  0
  -28.2683  -24.4042   20.9795 C   0  0  2  0  0  0
  -31.0126  -19.8700   20.4010 N   0  0  0  0  0  0
  -30.7058  -21.1225   20.2155 N   0  0  0  0  0  0
  -29.3913  -21.1777   19.8807 N   0  0  0  0  0  0
  -30.0213  -15.3742   21.2949 N   0  0  0  0  0  0
  -31.4736  -12.4339   19.0871 H   0  0  0  0  0  0
  -30.3599  -11.2849   19.7736 H   0  0  0  0  0  0
  -29.7306  -11.8177   17.4028 H   0  0  0  0  0  0
  -29.6596  -13.5178   17.7829 H   0  0  0  0  0  0
  -27.8226  -11.3222   18.7859 H   0  0  0  0  0  0
  -27.3666  -12.6762   17.7879 H   0  0  0  0  0  0
  -27.7248  -14.2563   19.6085 H   0  0  0  0  0  0
  -28.6878  -11.8891   21.2838 H   0  0  0  0  0  0
  -28.4727  -13.4961   21.9015 H   0  0  0  0  0  0
  -25.2740   -9.5718   22.4757 H   0  0  0  0  0  0
  -24.0004   -7.4652   22.7477 H   0  0  0  0  0  0
  -21.0843   -8.8747   19.8936 H   0  0  0  0  0  0
  -22.3654  -10.9674   19.6179 H   0  0  0  0  0  0
  -21.1933   -7.6129   23.9697 H   0  0  0  0  0  0
  -21.1534   -6.0523   25.9079 H   0  0  0  0  0  0
  -22.0573   -2.7604   23.2849 H   0  0  0  0  0  0
  -22.4087  -11.9958   22.4803 H   0  0  0  0  0  0
  -21.1109  -13.1315   22.2510 H   0  0  0  0  0  0
  -24.6865  -15.8545   20.5199 H   0  0  0  0  0  0
  -26.3076  -15.6150   20.1032 H   0  0  0  0  0  0
  -26.7101  -32.5559   23.1178 H   0  0  0  0  0  0
  -25.0103  -33.9786   25.0538 H   0  0  0  0  0  0
  -22.6887  -31.3083   21.4094 H   0  0  0  0  0  0
  -23.3746  -35.9656   23.3317 H   0  0  0  0  0  0
  -24.3585  -36.8913   22.2054 H   0  0  0  0  0  0
  -23.7239  -37.6525   23.6635 H   0  0  0  0  0  0
  -26.0338  -31.6062   20.5957 H   0  0  0  0  0  0
  -26.8150  -30.8985   21.9785 H   0  0  0  0  0  0
  -28.0996  -29.1221   21.1736 H   0  0  0  0  0  0
  -26.0931  -25.9777   19.0140 H   0  0  0  0  0  0
  -23.9874  -27.2836   19.0416 H   0  0  0  0  0  0
  -23.7263  -30.5959   19.4065 H   0  0  0  0  0  0
  -22.7368  -29.2419   19.8632 H   0  0  0  0  0  0
  -25.1278  -36.1987   25.0839 H   0  0  0  0  0  0
  -20.9932  -28.3239   24.1448 H   0  0  0  0  0  0
  -20.5674  -26.2282   23.3608 H   0  0  0  0  0  0
  -21.6636  -26.7469   22.1209 H   0  0  0  0  0  0
  -19.6913  -25.6302   21.1241 H   0  0  0  0  0  0
  -19.6687  -27.3206   20.6744 H   0  0  0  0  0  0
  -17.4194  -26.6679   21.4017 H   0  0  0  0  0  0
  -18.0319  -26.0076   22.9009 H   0  0  0  0  0  0
  -19.7921  -30.7254   24.2300 H   0  0  0  0  0  0
  -17.5009  -31.6273   24.5172 H   0  0  0  0  0  0
  -15.5345  -30.3009   23.7647 H   0  0  0  0  0  0
  -15.8651  -28.0847   22.7047 H   0  0  0  0  0  0
  -24.5942  -30.7009   25.7826 H   0  0  0  0  0  0
  -24.8987  -32.2805   26.4992 H   0  0  0  0  0  0
  -25.8170  -30.8785   27.0211 H   0  0  0  0  0  0
  -26.2844  -29.6768   24.1172 H   0  0  0  0  0  0
  -27.4168  -29.7276   25.4494 H   0  0  0  0  0  0
  -27.8644  -30.4370   23.9157 H   0  0  0  0  0  0
  -27.2703  -33.3565   26.2102 H   0  0  0  0  0  0
  -28.3852  -32.6868   25.0283 H   0  0  0  0  0  0
  -28.0769  -31.8380   26.5347 H   0  0  0  0  0  0
  -28.2607  -38.0098   24.7503 H   0  0  0  0  0  0
  -28.1065  -36.2632   24.6310 H   0  0  0  0  0  0
  -27.2300  -37.1482   25.8873 H   0  0  0  0  0  0
  -20.9303  -29.8778   21.6968 H   0  0  0  0  0  0
  -26.0190  -38.2877   24.1406 H   0  0  0  0  0  0
  -27.8226  -19.7021   19.5843 H   0  0  0  0  0  0
  -27.9979  -22.5831   22.1631 H   0  0  0  0  0  0
  -27.5286  -24.0567   22.9999 H   0  0  0  0  0  0
  -29.2347  -23.6692   22.7931 H   0  0  0  0  0  0
  -30.6222  -17.2677   19.2998 H   0  0  0  0  0  0
  -28.9562  -17.2065   19.7596 H   0  0  0  0  0  0
  -29.3223  -24.4511   19.1225 H   0  0  0  0  0  0
  -30.2511  -23.7065   20.3722 H   0  0  0  0  0  0
  -29.0061  -22.4171   18.2934 H   0  0  0  0  0  0
  -27.6946  -22.3075   19.4187 H   0  0  0  0  0  0
  -31.3743  -16.9759   21.6152 H   0  0  0  0  0  0
  -29.7517  -17.2175   22.2222 H   0  0  0  0  0  0
  -29.6404  -26.0011   21.5388 H   0  0  0  0  0  0
  -28.0059  -26.2674   22.0692 H   0  0  0  0  0  0
  -27.2591  -24.3599   20.5671 H   0  0  0  0  0  0
  -29.1416  -15.0665   21.6834 H   0  0  0  0  0  0
  1 25  1  0  0  0
  1 30  2  0  0  0
  1 83  1  0  0  0
  2  3  1  0  0  0
  2 25  1  0  0  0
  2 84  1  0  0  0
  2 85  1  0  0  0
  3  4  1  0  0  0
  3 86  1  0  0  0
  3 87  1  0  0  0
  4  5  1  0  0  0
  4 88  1  0  0  0
  4 89  1  0  0  0
  5  6  1  0  0  0
  5 26  1  0  0  0
  5 90  1  0  0  0
  6 25  1  0  0  0
  6 91  1  0  0  0
  6 92  1  0  0  0
  7  8  2  0  0  0
  7 26  1  0  0  0
  7 29  1  0  0  0
  8  9  1  0  0  0
  8 22  1  0  0  0
  9 10  1  0  0  0
  9 27  2  0  0  0
 10 11  2  0  0  0
 10 15  1  0  0  0
 11 12  1  0  0  0
 11 93  1  0  0  0
 12 13  2  0  0  0
 12 94  1  0  0  0
 13 14  1  0  0  0
 13 31  1  0  0  0
 14 15  2  0  0  0
 14 95  1  0  0  0
 15 96  1  0  0  0
 16 17  2  0  0  0
 16 21  1  0  0  0
 16 31  1  0  0  0
 17 18  1  0  0  0
 17 97  1  0  0  0
 18 19  2  0  0  0
 18 98  1  0  0  0
 19 20  1  0  0  0
 19 24  1  0  0  0
 20 21  2  0  0  0
 20 99  1  0  0  0
 21 23  1  0  0  0
 22 28  1  0  0  0
 22 32  2  0  0  0
 26 27  1  0  0  0
 28100  1  0  0  0
 28101  1  0  0  0
 29102  1  0  0  0
 29103  1  0  0  0
 33 34  1  0  0  0
 33 66  1  0  0  0
 33 70  2  0  0  0
 34 36  1  0  0  0
 34 59  1  0  0  0
 34104  1  0  0  0
 35 44  2  0  0  0
 35 45  1  0  0  0
 35 68  1  0  0  0
 36 56  1  0  0  0
 36105  1  0  0  0
 37 39  1  0  0  0
 37 47  1  0  0  0
 37 66  1  0  0  0
 37106  1  0  0  0
 38 43  2  0  0  0
 38 46  1  0  0  0
 38 47  1  0  0  0
 39 64  1  0  0  0
 39 67  2  0  0  0
 40 52  1  0  0  0
 40 53  2  0  0  0
 40 58  1  0  0  0
 41107  1  0  0  0
 41108  1  0  0  0
 41109  1  0  0  0
 41 48  1  0  0  0
 42 43  1  0  0  0
 42 66  1  0  0  0
 42110  1  0  0  0
 42111  1  0  0  0
 43 44  1  0  0  0
 44112  1  0  0  0
 45 46  2  0  0  0
 45113  1  0  0  0
 46114  1  0  0  0
 47115  1  0  0  0
 47116  1  0  0  0
 48 56  1  0  0  0
 48 65  1  0  0  0
 48117  1  0  0  0
 49 50  1  0  0  0
 49 53  1  0  0  0
 49 64  1  0  0  0
 49118  1  0  0  0
 50 51  1  0  0  0
 50119  1  0  0  0
 50120  1  0  0  0
 51 52  1  0  0  0
 51121  1  0  0  0
 51122  1  0  0  0
 52123  1  0  0  0
 52124  1  0  0  0
 53 54  1  0  0  0
 54 55  2  0  0  0
 54125  1  0  0  0
 55 57  1  0  0  0
 55126  1  0  0  0
 56 69  2  0  0  0
 57 58  2  0  0  0
 57127  1  0  0  0
 58128  1  0  0  0
 59 60  1  0  0  0
 59 61  1  0  0  0
 59 62  1  0  0  0
 60129  1  0  0  0
 60130  1  0  0  0
 60131  1  0  0  0
 61132  1  0  0  0
 61133  1  0  0  0
 61134  1  0  0  0
 62135  1  0  0  0
 62136  1  0  0  0
 62137  1  0  0  0
 63 65  1  0  0  0
 63138  1  0  0  0
 63139  1  0  0  0
 63140  1  0  0  0
 64141  1  0  0  0
 65142  1  0  0  0
 68 78  1  0  0  0
 71 72  2  0  0  0
 71 82  1  0  0  0
 71143  1  0  0  0
 72 74  1  0  0  0
 72 80  1  0  0  0
 73144  1  0  0  0
 73145  1  0  0  0
 73146  1  0  0  0
 73 79  1  0  0  0
 74 77  1  0  0  0
 74147  1  0  0  0
 74148  1  0  0  0
 75 76  1  0  0  0
 75 79  1  0  0  0
 75149  1  0  0  0
 75150  1  0  0  0
 76 82  1  0  0  0
 76151  1  0  0  0
 76152  1  0  0  0
 77 83  1  0  0  0
 77153  1  0  0  0
 77154  1  0  0  0
 78 79  1  0  0  0
 78155  1  0  0  0
 78156  1  0  0  0
 79157  1  0  0  0
 80 81  2  0  0  0
 81 82  1  0  0  0
 83158  1  0  0  0
M  ISO  4   1 100  68 101  78 101  83 100
M  END
> <chiral flag>
0

> <version>
0

> <s_m_source_file>
/data/baiqing/PycharmProjects/Reinvent-master-3.2/result/LINK_invent/BTK/process_docking_weight1_custom_sum_contain_oxygen_bond_distance_aromatic_linkinvent_7_9_3/rearranged_h_0090.sdf

> <i_m_source_file_index>
37

> <r_mmod_Potential_Energy-OPLS-2005>
-94.8547058105469

> <r_mmod_Stretch_Energy-OPLS-2005>
34.081226348877

> <r_mmod_Bend_Energy-OPLS-2005>
98.0014343261719

> <r_mmod_Torsional_Energy-OPLS-2005>
237.627548217773

> <r_mmod_Improper_Torsional_Energy-OPLS-2005>
4.85332536697388

> <r_mmod_Van_der_Waal_Energy-OPLS-2005>
120.683624267578

> <r_mmod_Electrostatic_Energy-OPLS-2005>
-369.905151367188

> <r_mmod_Solvation_Energy-OPLS-2005>
-228.893463134766

> <b_mmod_Minimization_Converged-OPLS-2005>
0

> <r_mmod_RMS_Derivative-OPLS-2005>
2.50967335700989

$$$$
38
                    3D
 Structure written by MMmdl.
164172  0  0  1  0            999 V2000
  -30.0726  -14.0510   21.2472 C   0  0  0  0  0  0
  -30.5478  -12.5241   19.2681 C   0  0  0  0  0  0
  -29.6252  -12.6734   18.0117 C   0  0  0  0  0  0
  -28.0933  -12.4483   18.2105 C   0  0  0  0  0  0
  -27.6302  -13.0882   19.5419 C   0  0  2  0  0  0
  -28.5910  -12.3435   20.5460 C   0  0  0  0  0  0
  -24.8647  -14.6160   20.9926 C   0  0  0  0  0  0
  -24.3042  -14.1154   21.1622 C   0  0  0  0  0  0
  -25.2496  -12.2751   20.2933 C   0  0  0  0  0  0
  -24.4891  -10.5897   20.5083 C   0  0  0  0  0  0
  -24.6967   -9.6274   21.6042 C   0  0  0  0  0  0
  -23.8643   -8.4780   21.9616 C   0  0  0  0  0  0
  -22.6822   -8.1146   21.2532 C   0  0  0  0  0  0
  -22.4646   -8.9361   20.1410 C   0  0  0  0  0  0
  -23.3118  -10.0500   19.8091 C   0  0  0  0  0  0
  -21.8200   -6.1407   22.5173 C   0  0  0  0  0  0
  -21.5207   -6.6060   23.8149 C   0  0  0  0  0  0
  -21.4035   -5.6994   24.8987 C   0  0  0  0  0  0
  -21.6069   -4.3224   24.6940 C   0  0  0  0  0  0
  -21.8806   -3.8437   23.4081 C   0  0  0  0  0  0
  -21.9695   -4.7444   22.3170 C   0  0  0  0  0  0
  -22.8144  -14.4668   21.7979 C   0  0  0  0  0  0
  -22.1922   -4.2524   21.0768 F   0  0  0  0  0  0
  -21.5197   -3.4514   25.7357 F   0  0  0  0  0  0
  -29.8607  -12.9651   20.4975 N   0  0  0  0  0  0
  -26.0558  -13.1902   20.0220 N   0  0  0  0  0  0
  -26.1682  -11.9583   19.8372 N   0  0  0  0  0  0
  -22.2020  -13.5430   22.5754 N   0  0  0  0  0  0
  -24.8391  -16.0320   21.3635 N   0  0  0  0  0  0
  -31.0710  -14.7465   20.9016 O   0  0  0  0  0  0
  -21.8385   -7.0002   21.4251 O   0  0  0  0  0  0
  -22.0753  -15.1883   21.1405 O   0  0  0  0  0  0
  -24.7096  -31.7931   23.1449 C   0  0  0  0  0  0
  -25.9627  -32.4470   23.8025 C   0  0  1  0  0  0
  -26.7509  -26.4091   20.1116 C   0  0  0  0  0  0
  -25.6115  -33.8335   24.1818 N   0  0  0  0  0  0
  -23.5057  -30.4240   21.5259 C   0  0  2  0  0  0
  -24.8368  -28.7535   20.0766 C   0  0  0  0  0  0
  -22.7652  -29.4370   22.4749 C   0  0  0  0  0  0
  -18.0280  -28.1415   22.8387 C   0  0  0  0  0  0
  -24.1409  -36.7129   23.2613 C   0  0  0  0  0  0
  -26.0934  -30.4003   21.4251 C   0  0  0  0  0  0
  -26.0501  -28.9602   20.7356 C   0  0  0  0  0  0
  -27.0275  -27.8061   20.7127 C   0  0  0  0  0  0
  -25.5694  -26.5043   19.3741 C   0  0  0  0  0  0
  -24.6530  -27.5737   19.3638 C   0  0  0  0  0  0
  -23.7214  -29.7949   20.1307 C   0  0  0  0  0  0
  -25.4127  -36.2947   24.0231 C   0  0  1  0  0  0
  -20.5867  -28.3826   23.1103 C   0  0  2  0  0  0
  -20.6819  -26.9535   22.5331 C   0  0  0  0  0  0
  -19.5844  -26.6370   21.5146 C   0  0  0  0  0  0
  -18.1980  -26.7935   22.1512 C   0  0  0  0  0  0
  -19.1518  -28.8964   23.2694 C   0  0  0  0  0  0
  -18.9487  -30.1539   23.8773 C   0  0  0  0  0  0
  -17.6508  -30.6656   24.0535 C   0  0  0  0  0  0
  -25.9181  -34.9352   23.4842 C   0  0  0  0  0  0
  -16.5391  -29.9148   23.6344 C   0  0  0  0  0  0
  -16.7270  -28.6514   23.0428 C   0  0  0  0  0  0
  -26.4653  -31.6707   25.0831 C   0  0  0  0  0  0
  -25.3660  -31.4341   26.1460 C   0  0  0  0  0  0
  -27.0654  -30.3033   24.6947 C   0  0  0  0  0  0
  -27.5928  -32.4693   25.7792 C   0  0  0  0  0  0
  -27.5544  -37.1707   24.8418 C   0  0  0  0  0  0
  -21.4291  -29.3096   22.3449 N   0  0  0  0  0  0
  -26.4201  -37.3800   23.9432 N   0  0  0  0  0  0
  -24.8064  -30.9131   22.0831 N   0  0  0  0  0  0
  -23.4065  -28.7901   23.3067 O   0  0  0  0  0  0
  -27.3498  -24.9413   20.0613 O   0  0  0  0  0  0
  -26.5826  -34.9001   22.4454 O   0  0  0  0  0  0
  -23.6095  -32.1280   23.6232 O   0  0  0  0  0  0
  -24.4551  -12.3238   22.3195 C   0  0  0  0  0  0
  -23.1200  -12.6776   20.0963 C   0  0  0  0  0  0
  -24.2461  -14.1677   18.8255 C   0  0  0  0  0  0
  -26.3659  -13.5201   22.3196 C   0  0  0  0  0  0
  -26.0462  -15.4206   19.2953 C   0  0  0  0  0  0
  -23.4922  -14.6617   17.6064 C   0  0  0  0  0  0
  -20.6709  -11.4271   20.5474 C   0  0  0  0  0  0
  -21.5848  -12.4103   19.7447 C   0  0  0  0  0  0
  -26.4034  -17.3299   18.9783 C   0  0  0  0  0  0
  -27.8346  -13.5255   23.0567 C   0  0  0  0  0  0
  -26.2754  -19.2504   19.7143 C   0  0  0  0  0  0
  -26.7663  -21.2401   19.4176 C   0  0  0  0  0  0
  -26.6232  -23.2139   20.0210 C   0  0  0  0  0  0
  -27.0347  -14.9643   21.0323 N   0  0  0  0  0  0
  -29.1441  -14.2134   22.3475 N   0  0  0  0  0  0
  -31.4818  -13.0729   19.0955 H   0  0  0  0  0  0
  -30.8466  -11.4836   19.3887 H   0  0  0  0  0  0
  -29.9985  -12.0136   17.2304 H   0  0  0  0  0  0
  -29.7507  -13.6758   17.5951 H   0  0  0  0  0  0
  -27.9074  -11.3754   18.1660 H   0  0  0  0  0  0
  -27.5732  -12.9012   17.3645 H   0  0  0  0  0  0
  -28.0535  -14.0475   19.2772 H   0  0  0  0  0  0
  -28.7558  -11.3281   20.1857 H   0  0  0  0  0  0
  -28.2204  -11.9550   21.4695 H   0  0  0  0  0  0
  -25.5535   -9.8400   22.2293 H   0  0  0  0  0  0
  -24.1965   -7.8787   22.7867 H   0  0  0  0  0  0
  -21.7355   -8.6402   19.3894 H   0  0  0  0  0  0
  -23.0290  -10.5127   18.8775 H   0  0  0  0  0  0
  -21.3911   -7.6634   23.9818 H   0  0  0  0  0  0
  -21.1589   -6.0673   25.8861 H   0  0  0  0  0  0
  -22.0039   -2.7812   23.2582 H   0  0  0  0  0  0
  -22.8261  -12.7609   22.7665 H   0  0  0  0  0  0
  -21.3819  -13.6851   23.1316 H   0  0  0  0  0  0
  -24.4505  -16.5947   20.6145 H   0  0  0  0  0  0
  -25.8622  -16.0981   21.2854 H   0  0  0  0  0  0
  -26.7756  -32.4771   23.0745 H   0  0  0  0  0  0
  -25.0366  -33.9401   25.0051 H   0  0  0  0  0  0
  -22.8495  -31.2843   21.3689 H   0  0  0  0  0  0
  -23.3823  -35.9282   23.3143 H   0  0  0  0  0  0
  -24.3461  -36.9001   22.2048 H   0  0  0  0  0  0
  -23.6963  -37.6157   23.6846 H   0  0  0  0  0  0
  -26.3579  -31.1198   20.6437 H   0  0  0  0  0  0
  -26.9373  -30.3994   22.1002 H   0  0  0  0  0  0
  -27.9608  -27.9301   21.2366 H   0  0  0  0  0  0
  -25.2480  -25.6233   18.8323 H   0  0  0  0  0  0
  -23.7229  -27.4358   18.8212 H   0  0  0  0  0  0
  -23.9555  -30.5927   19.4230 H   0  0  0  0  0  0
  -22.7902  -29.3628   19.7632 H   0  0  0  0  0  0
  -25.1301  -36.1687   25.0732 H   0  0  0  0  0  0
  -20.9915  -28.3441   24.1246 H   0  0  0  0  0  0
  -20.5660  -26.2528   23.3597 H   0  0  0  0  0  0
  -21.6743  -26.7538   22.1236 H   0  0  0  0  0  0
  -19.7142  -25.6214   21.1419 H   0  0  0  0  0  0
  -19.6859  -27.2953   20.6502 H   0  0  0  0  0  0
  -17.4271  -26.6519   21.3917 H   0  0  0  0  0  0
  -18.0466  -26.0087   22.8922 H   0  0  0  0  0  0
  -19.8032  -30.7296   24.2091 H   0  0  0  0  0  0
  -17.5179  -31.6358   24.5134 H   0  0  0  0  0  0
  -15.5447  -30.3124   23.7901 H   0  0  0  0  0  0
  -15.8552  -28.0909   22.7364 H   0  0  0  0  0  0
  -24.5638  -30.7890   25.7901 H   0  0  0  0  0  0
  -24.9172  -32.3784   26.4577 H   0  0  0  0  0  0
  -25.7790  -30.9751   27.0452 H   0  0  0  0  0  0
  -26.3509  -29.6528   24.1923 H   0  0  0  0  0  0
  -27.3950  -29.7695   25.5852 H   0  0  0  0  0  0
  -27.9475  -30.4142   24.0652 H   0  0  0  0  0  0
  -27.2248  -33.4021   26.2099 H   0  0  0  0  0  0
  -28.3990  -32.7228   25.0910 H   0  0  0  0  0  0
  -28.0318  -31.9099   26.6060 H   0  0  0  0  0  0
  -28.2423  -38.0147   24.7753 H   0  0  0  0  0  0
  -28.1171  -36.2691   24.5892 H   0  0  0  0  0  0
  -27.2291  -37.0968   25.8821 H   0  0  0  0  0  0
  -20.9590  -29.8806   21.6548 H   0  0  0  0  0  0
  -25.9983  -38.2763   24.1754 H   0  0  0  0  0  0
  -24.1898  -11.5890   23.0640 H   0  0  0  0  0  0
  -22.4431  -14.8269   17.8450 H   0  0  0  0  0  0
  -23.5295  -13.9429   16.7882 H   0  0  0  0  0  0
  -23.9306  -15.6012   17.2585 H   0  0  0  0  0  0
  -20.3997  -10.5389   19.9596 H   0  0  0  0  0  0
  -19.7197  -11.9075   20.8067 H   0  0  0  0  0  0
  -21.1081  -11.0806   21.4827 H   0  0  0  0  0  0
  -21.4684  -12.1912   18.6785 H   0  0  0  0  0  0
  -21.0676  -13.3723   19.7780 H   0  0  0  0  0  0
  -26.0898  -17.4427   17.9392 H   0  0  0  0  0  0
  -27.4811  -17.2435   18.8630 H   0  0  0  0  0  0
  -28.0530  -12.5346   23.4653 H   0  0  0  0  0  0
  -27.6598  -14.1192   23.9544 H   0  0  0  0  0  0
  -26.7002  -19.0904   20.7093 H   0  0  0  0  0  0
  -25.2000  -19.3153   19.8985 H   0  0  0  0  0  0
  -26.2665  -21.3545   18.4532 H   0  0  0  0  0  0
  -27.8150  -21.1673   19.1450 H   0  0  0  0  0  0
  -26.4022  -23.0896   21.0865 H   0  0  0  0  0  0
  -25.6269  -23.4371   19.6286 H   0  0  0  0  0  0
  -29.2793  -15.1271   22.7556 H   0  0  0  0  0  0
  1 25  1  0  0  0
  1 30  2  0  0  0
  1 85  1  0  0  0
  2  3  1  0  0  0
  2 25  1  0  0  0
  2 86  1  0  0  0
  2 87  1  0  0  0
  3  4  1  0  0  0
  3 88  1  0  0  0
  3 89  1  0  0  0
  4  5  1  0  0  0
  4 90  1  0  0  0
  4 91  1  0  0  0
  5  6  1  0  0  0
  5 26  1  0  0  0
  5 92  1  0  0  0
  6 25  1  0  0  0
  6 93  1  0  0  0
  6 94  1  0  0  0
  7  8  2  0  0  0
  7 26  1  0  0  0
  7 29  1  0  0  0
  8  9  1  0  0  0
  8 22  1  0  0  0
  9 10  1  0  0  0
  9 27  2  0  0  0
 10 11  2  0  0  0
 10 15  1  0  0  0
 11 12  1  0  0  0
 11 95  1  0  0  0
 12 13  2  0  0  0
 12 96  1  0  0  0
 13 14  1  0  0  0
 13 31  1  0  0  0
 14 15  2  0  0  0
 14 97  1  0  0  0
 15 98  1  0  0  0
 16 17  2  0  0  0
 16 21  1  0  0  0
 16 31  1  0  0  0
 17 18  1  0  0  0
 17 99  1  0  0  0
 18 19  2  0  0  0
 18100  1  0  0  0
 19 20  1  0  0  0
 19 24  1  0  0  0
 20 21  2  0  0  0
 20101  1  0  0  0
 21 23  1  0  0  0
 22 28  1  0  0  0
 22 32  2  0  0  0
 26 27  1  0  0  0
 28102  1  0  0  0
 28103  1  0  0  0
 29104  1  0  0  0
 29105  1  0  0  0
 33 34  1  0  0  0
 33 66  1  0  0  0
 33 70  2  0  0  0
 34 36  1  0  0  0
 34 59  1  0  0  0
 34106  1  0  0  0
 35 44  2  0  0  0
 35 45  1  0  0  0
 35 68  1  0  0  0
 36 56  1  0  0  0
 36107  1  0  0  0
 37 39  1  0  0  0
 37 47  1  0  0  0
 37 66  1  0  0  0
 37108  1  0  0  0
 38 43  2  0  0  0
 38 46  1  0  0  0
 38 47  1  0  0  0
 39 64  1  0  0  0
 39 67  2  0  0  0
 40 52  1  0  0  0
 40 53  2  0  0  0
 40 58  1  0  0  0
 41109  1  0  0  0
 41110  1  0  0  0
 41111  1  0  0  0
 41 48  1  0  0  0
 42 43  1  0  0  0
 42 66  1  0  0  0
 42112  1  0  0  0
 42113  1  0  0  0
 43 44  1  0  0  0
 44114  1  0  0  0
 45 46  2  0  0  0
 45115  1  0  0  0
 46116  1  0  0  0
 47117  1  0  0  0
 47118  1  0  0  0
 48 56  1  0  0  0
 48 65  1  0  0  0
 48119  1  0  0  0
 49 50  1  0  0  0
 49 53  1  0  0  0
 49 64  1  0  0  0
 49120  1  0  0  0
 50 51  1  0  0  0
 50121  1  0  0  0
 50122  1  0  0  0
 51 52  1  0  0  0
 51123  1  0  0  0
 51124  1  0  0  0
 52125  1  0  0  0
 52126  1  0  0  0
 53 54  1  0  0  0
 54 55  2  0  0  0
 54127  1  0  0  0
 55 57  1  0  0  0
 55128  1  0  0  0
 56 69  2  0  0  0
 57 58  2  0  0  0
 57129  1  0  0  0
 58130  1  0  0  0
 59 60  1  0  0  0
 59 61  1  0  0  0
 59 62  1  0  0  0
 60131  1  0  0  0
 60132  1  0  0  0
 60133  1  0  0  0
 61134  1  0  0  0
 61135  1  0  0  0
 61136  1  0  0  0
 62137  1  0  0  0
 62138  1  0  0  0
 62139  1  0  0  0
 63 65  1  0  0  0
 63140  1  0  0  0
 63141  1  0  0  0
 63142  1  0  0  0
 64143  1  0  0  0
 65144  1  0  0  0
 68 83  1  0  0  0
 71 72  2  0  0  0
 71 74  1  0  0  0
 71145  1  0  0  0
 72 73  1  0  0  0
 72 78  1  0  0  0
 73 75  2  0  0  0
 73 76  1  0  0  0
 74 80  1  0  0  0
 74 84  2  0  0  0
 75 79  1  0  0  0
 75 84  1  0  0  0
 76146  1  0  0  0
 76147  1  0  0  0
 76148  1  0  0  0
 77 78  1  0  0  0
 77149  1  0  0  0
 77150  1  0  0  0
 77151  1  0  0  0
 78152  1  0  0  0
 78153  1  0  0  0
 79 81  1  0  0  0
 79154  1  0  0  0
 79155  1  0  0  0
 80 85  1  0  0  0
 80156  1  0  0  0
 80157  1  0  0  0
 81 82  1  0  0  0
 81158  1  0  0  0
 81159  1  0  0  0
 82 83  1  0  0  0
 82160  1  0  0  0
 82161  1  0  0  0
 83162  1  0  0  0
 83163  1  0  0  0
 85164  1  0  0  0
M  ISO  4   1 100  68 101  83 101  85 100
M  END
> <chiral flag>
0

> <version>
0

> <s_m_source_file>
/data/baiqing/PycharmProjects/Reinvent-master-3.2/result/LINK_invent/BTK/process_docking_weight1_custom_sum_contain_oxygen_bond_distance_aromatic_linkinvent_7_9_3/rearranged_h_0090.sdf

> <i_m_source_file_index>
38

> <r_mmod_Potential_Energy-OPLS-2005>
22923.7265625

> <r_mmod_Stretch_Energy-OPLS-2005>
14649.9365234375

> <r_mmod_Bend_Energy-OPLS-2005>
1702.62573242188

> <r_mmod_Torsional_Energy-OPLS-2005>
415.318756103516

> <r_mmod_Improper_Torsional_Energy-OPLS-2005>
57.788688659668

> <r_mmod_Van_der_Waal_Energy-OPLS-2005>
4708.62353515625

> <r_mmod_Electrostatic_Energy-OPLS-2005>
-663.355895996094

> <r_mmod_Solvation_Energy-OPLS-2005>
-214.284652709961

> <b_mmod_Minimization_Converged-OPLS-2005>
0

> <r_mmod_RMS_Derivative-OPLS-2005>
30.6789150238037

$$$$
39
                    3D
 Structure written by MMmdl.
150158  0  0  1  0            999 V2000
  -30.6487  -14.6660   20.4639 C   0  0  0  0  0  0
  -30.4306  -12.3993   19.4766 C   0  0  0  0  0  0
  -29.5127  -12.4927   18.2369 C   0  0  0  0  0  0
  -28.0355  -12.3318   18.6457 C   0  0  0  0  0  0
  -27.6476  -13.2255   19.8552 C   0  0  2  0  0  0
  -28.6894  -13.1213   20.9888 C   0  0  0  0  0  0
  -25.2542  -13.8194   20.5721 C   0  0  0  0  0  0
  -24.1813  -13.0447   20.9173 C   0  0  0  0  0  0
  -24.6389  -11.6913   20.8718 C   0  0  0  0  0  0
  -23.9077  -10.4288   21.0383 C   0  0  0  0  0  0
  -24.3623   -9.4209   21.9166 C   0  0  0  0  0  0
  -23.6297   -8.2246   22.0749 C   0  0  0  0  0  0
  -22.4274   -8.0282   21.3547 C   0  0  0  0  0  0
  -21.9914   -9.0254   20.4644 C   0  0  0  0  0  0
  -22.7245  -10.2127   20.3042 C   0  0  0  0  0  0
  -21.6858   -6.0734   22.5277 C   0  0  0  0  0  0
  -21.4017   -6.5638   23.8208 C   0  0  0  0  0  0
  -21.3658   -5.6797   24.9172 C   0  0  0  0  0  0
  -21.6042   -4.3059   24.7228 C   0  0  0  0  0  0
  -21.8819   -3.8144   23.4347 C   0  0  0  0  0  0
  -21.9195   -4.6962   22.3402 C   0  0  0  0  0  0
  -22.7839  -13.5230   21.1856 C   0  0  0  0  0  0
  -22.1661   -4.2146   21.0981 F   0  0  0  0  0  0
  -21.5628   -3.4541   25.7740 F   0  0  0  0  0  0
  -30.0032  -13.4522   20.4243 N   0  0  0  0  0  0
  -26.2968  -12.9390   20.3303 N   0  0  0  0  0  0
  -25.9318  -11.6538   20.5738 N   0  0  0  0  0  0
  -22.0504  -12.8212   22.0418 N   0  0  0  0  0  0
  -25.4311  -15.1925   20.4233 N   0  0  0  0  0  0
  -31.8324  -14.7378   20.1158 O   0  0  0  0  0  0
  -21.6642   -6.8879   21.4239 O   0  0  0  0  0  0
  -22.3521  -14.5543   20.6722 O   0  0  0  0  0  0
  -24.6299  -31.8588   23.2028 C   0  0  0  0  0  0
  -25.9136  -32.4774   23.8358 C   0  0  1  0  0  0
  -27.2149  -27.3039   20.1083 C   0  0  0  0  0  0
  -25.5934  -33.8575   24.2285 N   0  0  0  0  0  0
  -23.4223  -30.4873   21.5461 C   0  0  2  0  0  0
  -24.8656  -28.9442   20.1105 C   0  0  0  0  0  0
  -22.7476  -29.4637   22.4919 C   0  0  0  0  0  0
  -18.0287  -28.1369   22.8493 C   0  0  0  0  0  0
  -24.1482  -36.7297   23.2636 C   0  0  0  0  0  0
  -25.9659  -30.7858   21.3755 C   0  0  0  0  0  0
  -26.0377  -29.4125   20.7171 C   0  0  0  0  0  0
  -27.2143  -28.6023   20.7114 C   0  0  0  0  0  0
  -26.0206  -26.9054   19.4613 C   0  0  0  0  0  0
  -24.8595  -27.6960   19.4757 C   0  0  0  0  0  0
  -23.6362  -29.8274   20.1603 C   0  0  0  0  0  0
  -25.4106  -36.3083   24.0334 C   0  0  1  0  0  0
  -20.5892  -28.3692   23.1269 C   0  0  2  0  0  0
  -20.6785  -26.9419   22.5394 C   0  0  0  0  0  0
  -19.5747  -26.6373   21.5210 C   0  0  0  0  0  0
  -18.1929  -26.7906   22.1639 C   0  0  0  0  0  0
  -19.1542  -28.8840   23.2881 C   0  0  0  0  0  0
  -18.9466  -30.1435   23.8911 C   0  0  0  0  0  0
  -17.6474  -30.6584   24.0559 C   0  0  0  0  0  0
  -25.9050  -34.9451   23.5109 C   0  0  0  0  0  0
  -16.5361  -29.9086   23.6323 C   0  0  0  0  0  0
  -16.7278  -28.6492   23.0359 C   0  0  0  0  0  0
  -26.4512  -31.6594   25.0742 C   0  0  0  0  0  0
  -25.3746  -31.3752   26.1472 C   0  0  0  0  0  0
  -27.0356  -30.3015   24.6204 C   0  0  0  0  0  0
  -27.6051  -32.4335   25.7525 C   0  0  0  0  0  0
  -27.5573  -37.1805   24.8468 C   0  0  0  0  0  0
  -21.4183  -29.3082   22.3687 N   0  0  0  0  0  0
  -26.4283  -37.3780   23.9414 N   0  0  0  0  0  0
  -24.6922  -31.0599   22.0985 N   0  0  0  0  0  0
  -23.4181  -28.8152   23.2999 O   0  0  0  0  0  0
  -28.3129  -26.4224   20.1752 O   0  0  0  0  0  0
  -26.5607  -34.8918   22.4667 O   0  0  0  0  0  0
  -23.5458  -32.1377   23.7349 O   0  0  0  0  0  0
  -30.3254  -17.2291   19.9787 C   0  0  0  0  0  0
  -29.8930  -16.0165   20.6466 C   0  0  0  0  0  0
  -29.4343  -18.2393   20.3023 C   0  0  0  0  0  0
  -29.1418  -19.6663   19.7419 C   0  0  0  0  0  0
  -29.3480  -21.0257   20.5564 C   0  0  0  0  0  0
  -28.6729  -22.3342   19.9187 C   0  0  0  0  0  0
  -29.0356  -23.8186   20.4046 C   0  0  0  0  0  0
  -28.0606  -24.9795   19.9067 C   0  0  0  0  0  0
  -28.8311  -16.3271   21.3918 N   0  0  0  0  0  0
  -28.5350  -17.6927   21.1730 O   0  0  0  0  0  0
  -31.4757  -12.5018   19.1797 H   0  0  0  0  0  0
  -30.3549  -11.4158   19.9431 H   0  0  0  0  0  0
  -29.7862  -11.7284   17.5086 H   0  0  0  0  0  0
  -29.6516  -13.4543   17.7409 H   0  0  0  0  0  0
  -27.8835  -11.2830   18.9023 H   0  0  0  0  0  0
  -27.3788  -12.5328   17.7978 H   0  0  0  0  0  0
  -27.6537  -14.2538   19.4930 H   0  0  0  0  0  0
  -28.7044  -12.1109   21.4003 H   0  0  0  0  0  0
  -28.4321  -13.7770   21.8220 H   0  0  0  0  0  0
  -25.2760   -9.5686   22.4756 H   0  0  0  0  0  0
  -23.9997   -7.4645   22.7478 H   0  0  0  0  0  0
  -21.0840   -8.8766   19.8967 H   0  0  0  0  0  0
  -22.3684  -10.9661   19.6159 H   0  0  0  0  0  0
  -21.2006   -7.6147   23.9703 H   0  0  0  0  0  0
  -21.1485   -6.0530   25.9073 H   0  0  0  0  0  0
  -22.0600   -2.7606   23.2845 H   0  0  0  0  0  0
  -22.4129  -11.9845   22.4753 H   0  0  0  0  0  0
  -21.1133  -13.1233   22.2669 H   0  0  0  0  0  0
  -24.6844  -15.8612   20.5793 H   0  0  0  0  0  0
  -26.3268  -15.6295   20.2366 H   0  0  0  0  0  0
  -26.7221  -32.5447   23.1112 H   0  0  0  0  0  0
  -25.0113  -33.9719   25.0457 H   0  0  0  0  0  0
  -22.7174  -31.3102   21.4075 H   0  0  0  0  0  0
  -23.3738  -35.9636   23.3299 H   0  0  0  0  0  0
  -24.3573  -36.8909   22.2049 H   0  0  0  0  0  0
  -23.7245  -37.6505   23.6658 H   0  0  0  0  0  0
  -26.0975  -31.5473   20.6048 H   0  0  0  0  0  0
  -26.8466  -30.8361   22.0042 H   0  0  0  0  0  0
  -28.1087  -28.9520   21.2066 H   0  0  0  0  0  0
  -25.9454  -25.9619   18.9423 H   0  0  0  0  0  0
  -23.9628  -27.3350   18.9911 H   0  0  0  0  0  0
  -23.7606  -30.6071   19.4081 H   0  0  0  0  0  0
  -22.7537  -29.2627   19.8543 H   0  0  0  0  0  0
  -25.1283  -36.1926   25.0829 H   0  0  0  0  0  0
  -20.9974  -28.3253   24.1394 H   0  0  0  0  0  0
  -20.5695  -26.2315   23.3599 H   0  0  0  0  0  0
  -21.6653  -26.7418   22.1196 H   0  0  0  0  0  0
  -19.6918  -25.6292   21.1233 H   0  0  0  0  0  0
  -19.6666  -27.3178   20.6741 H   0  0  0  0  0  0
  -17.4177  -26.6613   21.4068 H   0  0  0  0  0  0
  -18.0371  -26.0057   22.9055 H   0  0  0  0  0  0
  -19.7948  -30.7233   24.2296 H   0  0  0  0  0  0
  -17.5035  -31.6267   24.5162 H   0  0  0  0  0  0
  -15.5364  -30.2994   23.7654 H   0  0  0  0  0  0
  -15.8680  -28.0806   22.7095 H   0  0  0  0  0  0
  -24.5906  -30.7104   25.7831 H   0  0  0  0  0  0
  -24.8957  -32.2934   26.4890 H   0  0  0  0  0  0
  -25.8069  -30.8948   27.0258 H   0  0  0  0  0  0
  -26.2948  -29.6761   24.1205 H   0  0  0  0  0  0
  -27.4037  -29.7269   25.4716 H   0  0  0  0  0  0
  -27.8821  -30.4302   23.9446 H   0  0  0  0  0  0
  -27.2639  -33.3626   26.2103 H   0  0  0  0  0  0
  -28.3871  -32.6908   25.0370 H   0  0  0  0  0  0
  -28.0713  -31.8467   26.5448 H   0  0  0  0  0  0
  -28.2598  -38.0095   24.7499 H   0  0  0  0  0  0
  -28.1055  -36.2622   24.6302 H   0  0  0  0  0  0
  -27.2291  -37.1473   25.8871 H   0  0  0  0  0  0
  -20.9344  -29.8824   21.6931 H   0  0  0  0  0  0
  -26.0155  -38.2853   24.1405 H   0  0  0  0  0  0
  -31.1513  -17.3089   19.2847 H   0  0  0  0  0  0
  -28.1019  -19.6537   19.4169 H   0  0  0  0  0  0
  -29.7064  -19.7684   18.8148 H   0  0  0  0  0  0
  -30.4177  -21.1933   20.6848 H   0  0  0  0  0  0
  -28.9475  -20.8937   21.5610 H   0  0  0  0  0  0
  -27.5937  -22.2098   20.0187 H   0  0  0  0  0  0
  -28.8551  -22.3072   18.8437 H   0  0  0  0  0  0
  -30.0498  -24.0536   20.0798 H   0  0  0  0  0  0
  -29.0587  -23.8409   21.4941 H   0  0  0  0  0  0
  -27.0931  -24.7178   20.3389 H   0  0  0  0  0  0
  -27.9566  -24.8712   18.8261 H   0  0  0  0  0  0
  1 25  1  0  0  0
  1 30  2  0  0  0
  1 72  1  0  0  0
  2  3  1  0  0  0
  2 25  1  0  0  0
  2 81  1  0  0  0
  2 82  1  0  0  0
  3  4  1  0  0  0
  3 83  1  0  0  0
  3 84  1  0  0  0
  4  5  1  0  0  0
  4 85  1  0  0  0
  4 86  1  0  0  0
  5  6  1  0  0  0
  5 26  1  0  0  0
  5 87  1  0  0  0
  6 25  1  0  0  0
  6 88  1  0  0  0
  6 89  1  0  0  0
  7  8  2  0  0  0
  7 26  1  0  0  0
  7 29  1  0  0  0
  8  9  1  0  0  0
  8 22  1  0  0  0
  9 10  1  0  0  0
  9 27  2  0  0  0
 10 11  2  0  0  0
 10 15  1  0  0  0
 11 12  1  0  0  0
 11 90  1  0  0  0
 12 13  2  0  0  0
 12 91  1  0  0  0
 13 14  1  0  0  0
 13 31  1  0  0  0
 14 15  2  0  0  0
 14 92  1  0  0  0
 15 93  1  0  0  0
 16 17  2  0  0  0
 16 21  1  0  0  0
 16 31  1  0  0  0
 17 18  1  0  0  0
 17 94  1  0  0  0
 18 19  2  0  0  0
 18 95  1  0  0  0
 19 20  1  0  0  0
 19 24  1  0  0  0
 20 21  2  0  0  0
 20 96  1  0  0  0
 21 23  1  0  0  0
 22 28  1  0  0  0
 22 32  2  0  0  0
 26 27  1  0  0  0
 28 97  1  0  0  0
 28 98  1  0  0  0
 29 99  1  0  0  0
 29100  1  0  0  0
 33 34  1  0  0  0
 33 66  1  0  0  0
 33 70  2  0  0  0
 34 36  1  0  0  0
 34 59  1  0  0  0
 34101  1  0  0  0
 35 44  2  0  0  0
 35 45  1  0  0  0
 35 68  1  0  0  0
 36 56  1  0  0  0
 36102  1  0  0  0
 37 39  1  0  0  0
 37 47  1  0  0  0
 37 66  1  0  0  0
 37103  1  0  0  0
 38 43  2  0  0  0
 38 46  1  0  0  0
 38 47  1  0  0  0
 39 64  1  0  0  0
 39 67  2  0  0  0
 40 52  1  0  0  0
 40 53  2  0  0  0
 40 58  1  0  0  0
 41104  1  0  0  0
 41105  1  0  0  0
 41106  1  0  0  0
 41 48  1  0  0  0
 42 43  1  0  0  0
 42 66  1  0  0  0
 42107  1  0  0  0
 42108  1  0  0  0
 43 44  1  0  0  0
 44109  1  0  0  0
 45 46  2  0  0  0
 45110  1  0  0  0
 46111  1  0  0  0
 47112  1  0  0  0
 47113  1  0  0  0
 48 56  1  0  0  0
 48 65  1  0  0  0
 48114  1  0  0  0
 49 50  1  0  0  0
 49 53  1  0  0  0
 49 64  1  0  0  0
 49115  1  0  0  0
 50 51  1  0  0  0
 50116  1  0  0  0
 50117  1  0  0  0
 51 52  1  0  0  0
 51118  1  0  0  0
 51119  1  0  0  0
 52120  1  0  0  0
 52121  1  0  0  0
 53 54  1  0  0  0
 54 55  2  0  0  0
 54122  1  0  0  0
 55 57  1  0  0  0
 55123  1  0  0  0
 56 69  2  0  0  0
 57 58  2  0  0  0
 57124  1  0  0  0
 58125  1  0  0  0
 59 60  1  0  0  0
 59 61  1  0  0  0
 59 62  1  0  0  0
 60126  1  0  0  0
 60127  1  0  0  0
 60128  1  0  0  0
 61129  1  0  0  0
 61130  1  0  0  0
 61131  1  0  0  0
 62132  1  0  0  0
 62133  1  0  0  0
 62134  1  0  0  0
 63 65  1  0  0  0
 63135  1  0  0  0
 63136  1  0  0  0
 63137  1  0  0  0
 64138  1  0  0  0
 65139  1  0  0  0
 68 78  1  0  0  0
 71 72  1  0  0  0
 71 73  2  0  0  0
 71140  1  0  0  0
 72 79  2  0  0  0
 73 74  1  0  0  0
 73 80  1  0  0  0
 74 75  1  0  0  0
 74141  1  0  0  0
 74142  1  0  0  0
 75 76  1  0  0  0
 75143  1  0  0  0
 75144  1  0  0  0
 76 77  1  0  0  0
 76145  1  0  0  0
 76146  1  0  0  0
 77 78  1  0  0  0
 77147  1  0  0  0
 77148  1  0  0  0
 78149  1  0  0  0
 78150  1  0  0  0
 79 80  1  0  0  0
M  ISO  4   1 100  68 101  72 100  78 101
M  END
> <chiral flag>
0

> <version>
0

> <s_m_source_file>
/data/baiqing/PycharmProjects/Reinvent-master-3.2/result/LINK_invent/BTK/process_docking_weight1_custom_sum_contain_oxygen_bond_distance_aromatic_linkinvent_7_9_3/rearranged_h_0090.sdf

> <i_m_source_file_index>
39

> <r_mmod_Potential_Energy-OPLS-2005>
199.097839355469

> <r_mmod_Stretch_Energy-OPLS-2005>
88.4036636352539

> <r_mmod_Bend_Energy-OPLS-2005>
147.620010375977

> <r_mmod_Torsional_Energy-OPLS-2005>
199.738632202148

> <r_mmod_Improper_Torsional_Energy-OPLS-2005>
6.96399068832397

> <r_mmod_Van_der_Waal_Energy-OPLS-2005>
122.263786315918

> <r_mmod_Electrostatic_Energy-OPLS-2005>
-232.721862792969

> <r_mmod_Solvation_Energy-OPLS-2005>
-192.776916503906

> <b_mmod_Minimization_Converged-OPLS-2005>
0

> <r_mmod_RMS_Derivative-OPLS-2005>
2.24702930450439

$$$$
40
                    3D
 Structure written by MMmdl.
167175  0  0  1  0            999 V2000
  -30.6559  -14.5466   20.5468 C   0  0  0  0  0  0
  -30.4368  -12.3503   19.4189 C   0  0  0  0  0  0
  -29.4955  -12.5031   18.2042 C   0  0  0  0  0  0
  -28.0187  -12.3519   18.6235 C   0  0  0  0  0  0
  -27.6582  -13.2056   19.8678 C   0  0  2  0  0  0
  -28.7056  -13.0088   20.9862 C   0  0  0  0  0  0
  -25.2592  -13.8154   20.5684 C   0  0  0  0  0  0
  -24.1842  -13.0433   20.9176 C   0  0  0  0  0  0
  -24.6397  -11.6901   20.8740 C   0  0  0  0  0  0
  -23.9067  -10.4288   21.0404 C   0  0  0  0  0  0
  -24.3616   -9.4204   21.9185 C   0  0  0  0  0  0
  -23.6288   -8.2242   22.0756 C   0  0  0  0  0  0
  -22.4272   -8.0280   21.3545 C   0  0  0  0  0  0
  -21.9909   -9.0258   20.4648 C   0  0  0  0  0  0
  -22.7240  -10.2133   20.3059 C   0  0  0  0  0  0
  -21.6854   -6.0737   22.5278 C   0  0  0  0  0  0
  -21.4010   -6.5639   23.8210 C   0  0  0  0  0  0
  -21.3659   -5.6794   24.9172 C   0  0  0  0  0  0
  -21.6044   -4.3056   24.7222 C   0  0  0  0  0  0
  -21.8824   -3.8148   23.4344 C   0  0  0  0  0  0
  -21.9190   -4.6965   22.3401 C   0  0  0  0  0  0
  -22.7866  -13.5233   21.1849 C   0  0  0  0  0  0
  -22.1663   -4.2150   21.0980 F   0  0  0  0  0  0
  -21.5629   -3.4543   25.7737 F   0  0  0  0  0  0
  -30.0256  -13.3430   20.4243 N   0  0  0  0  0  0
  -26.3017  -12.9313   20.3348 N   0  0  0  0  0  0
  -25.9321  -11.6480   20.5766 N   0  0  0  0  0  0
  -22.0516  -12.8217   22.0401 N   0  0  0  0  0  0
  -25.4323  -15.1874   20.4118 N   0  0  0  0  0  0
  -31.8057  -14.7443   20.1467 O   0  0  0  0  0  0
  -21.6637   -6.8879   21.4240 O   0  0  0  0  0  0
  -22.3557  -14.5545   20.6710 O   0  0  0  0  0  0
  -24.6203  -31.8642   23.2066 C   0  0  0  0  0  0
  -25.9074  -32.4795   23.8376 C   0  0  1  0  0  0
  -27.2243  -27.3718   20.1030 C   0  0  0  0  0  0
  -25.5911  -33.8599   24.2302 N   0  0  0  0  0  0
  -23.4102  -30.4900   21.5493 C   0  0  2  0  0  0
  -24.8548  -28.9529   20.1134 C   0  0  0  0  0  0
  -22.7442  -29.4644   22.4960 C   0  0  0  0  0  0
  -18.0277  -28.1372   22.8477 C   0  0  0  0  0  0
  -24.1494  -36.7309   23.2635 C   0  0  0  0  0  0
  -25.9475  -30.8116   21.3687 C   0  0  0  0  0  0
  -26.0224  -29.4437   20.7109 C   0  0  0  0  0  0
  -27.2114  -28.6644   20.6965 C   0  0  0  0  0  0
  -26.0317  -26.9175   19.4926 C   0  0  0  0  0  0
  -24.8585  -27.6921   19.4984 C   0  0  0  0  0  0
  -23.6202  -29.8268   20.1637 C   0  0  0  0  0  0
  -25.4117  -36.3095   24.0329 C   0  0  1  0  0  0
  -20.5878  -28.3666   23.1295 C   0  0  2  0  0  0
  -20.6776  -26.9398   22.5410 C   0  0  0  0  0  0
  -19.5754  -26.6374   21.5209 C   0  0  0  0  0  0
  -18.1925  -26.7915   22.1613 C   0  0  0  0  0  0
  -19.1531  -28.8834   23.2879 C   0  0  0  0  0  0
  -18.9459  -30.1439   23.8893 C   0  0  0  0  0  0
  -17.6464  -30.6576   24.0560 C   0  0  0  0  0  0
  -25.9051  -34.9459   23.5117 C   0  0  0  0  0  0
  -16.5351  -29.9076   23.6332 C   0  0  0  0  0  0
  -16.7271  -28.6498   23.0342 C   0  0  0  0  0  0
  -26.4485  -31.6590   25.0727 C   0  0  0  0  0  0
  -25.3733  -31.3703   26.1462 C   0  0  0  0  0  0
  -27.0323  -30.3024   24.6135 C   0  0  0  0  0  0
  -27.6056  -32.4318   25.7491 C   0  0  0  0  0  0
  -27.5583  -37.1800   24.8461 C   0  0  0  0  0  0
  -21.4167  -29.3032   22.3698 N   0  0  0  0  0  0
  -26.4301  -37.3777   23.9403 N   0  0  0  0  0  0
  -24.6782  -31.0703   22.0984 N   0  0  0  0  0  0
  -23.4191  -28.8184   23.3016 O   0  0  0  0  0  0
  -28.3646  -26.5702   20.1303 O   0  0  0  0  0  0
  -26.5623  -34.8913   22.4683 O   0  0  0  0  0  0
  -23.5386  -32.1418   23.7429 O   0  0  0  0  0  0
  -29.8756  -20.4273   20.5878 C   0  0  0  0  0  0
  -29.5763  -19.2031   19.9238 C   0  0  0  0  0  0
  -28.4570  -19.2082   19.0488 C   0  0  0  0  0  0
  -29.0789  -21.5868   20.3723 C   0  0  0  0  0  0
  -27.7292  -20.4181   18.8792 C   0  0  0  0  0  0
  -28.7087  -17.8091   16.9268 C   0  0  0  0  0  0
  -25.1968  -20.3221   18.6940 C   0  0  0  0  0  0
  -30.4705  -17.9389   20.0885 C   0  0  0  0  0  0
  -28.0435  -17.9352   18.3055 C   0  0  0  0  0  0
  -29.2514  -22.8840   21.1942 C   0  0  0  0  0  0
  -26.5235  -20.5345   17.9538 C   0  0  0  0  0  0
  -29.4356  -24.2667   20.4625 C   0  0  0  0  0  0
  -30.1617  -16.9824   21.2887 C   0  0  0  0  0  0
  -28.1534  -25.1257   20.2177 C   0  0  0  0  0  0
  -28.0243  -21.5612   19.5372 N   0  0  0  0  0  0
  -29.8690  -15.5536   20.9913 N   0  0  0  0  0  0
  -31.4759  -12.4800   19.1102 H   0  0  0  0  0  0
  -30.3700  -11.3430   19.8341 H   0  0  0  0  0  0
  -29.7416  -11.7623   17.4421 H   0  0  0  0  0  0
  -29.6450  -13.4792   17.7405 H   0  0  0  0  0  0
  -27.8429  -11.2967   18.8380 H   0  0  0  0  0  0
  -27.3616  -12.6045   17.7904 H   0  0  0  0  0  0
  -27.6923  -14.2482   19.5517 H   0  0  0  0  0  0
  -28.7027  -11.9744   21.3327 H   0  0  0  0  0  0
  -28.4623  -13.6092   21.8643 H   0  0  0  0  0  0
  -25.2763   -9.5676   22.4754 H   0  0  0  0  0  0
  -24.0000   -7.4633   22.7474 H   0  0  0  0  0  0
  -21.0845   -8.8778   19.8949 H   0  0  0  0  0  0
  -22.3704  -10.9676   19.6168 H   0  0  0  0  0  0
  -21.2005   -7.6147   23.9711 H   0  0  0  0  0  0
  -21.1476   -6.0525   25.9074 H   0  0  0  0  0  0
  -22.0602   -2.7611   23.2845 H   0  0  0  0  0  0
  -22.4138  -11.9868   22.4765 H   0  0  0  0  0  0
  -21.1141  -13.1243   22.2633 H   0  0  0  0  0  0
  -24.6681  -15.8428   20.5313 H   0  0  0  0  0  0
  -26.2874  -15.6287   20.1006 H   0  0  0  0  0  0
  -26.7132  -32.5487   23.1125 H   0  0  0  0  0  0
  -25.0055  -33.9757   25.0440 H   0  0  0  0  0  0
  -22.7017  -31.3093   21.4098 H   0  0  0  0  0  0
  -23.3744  -35.9652   23.3316 H   0  0  0  0  0  0
  -24.3574  -36.8926   22.2045 H   0  0  0  0  0  0
  -23.7267  -37.6524   23.6656 H   0  0  0  0  0  0
  -26.0725  -31.5756   20.6002 H   0  0  0  0  0  0
  -26.8303  -30.8594   21.9944 H   0  0  0  0  0  0
  -28.1093  -29.0381   21.1682 H   0  0  0  0  0  0
  -25.9794  -25.9585   19.0010 H   0  0  0  0  0  0
  -23.9620  -27.3090   19.0297 H   0  0  0  0  0  0
  -23.7310  -30.6052   19.4077 H   0  0  0  0  0  0
  -22.7410  -29.2533   19.8649 H   0  0  0  0  0  0
  -25.1286  -36.1961   25.0820 H   0  0  0  0  0  0
  -20.9959  -28.3241   24.1422 H   0  0  0  0  0  0
  -20.5683  -26.2272   23.3602 H   0  0  0  0  0  0
  -21.6640  -26.7440   22.1195 H   0  0  0  0  0  0
  -19.6931  -25.6288   21.1230 H   0  0  0  0  0  0
  -19.6707  -27.3192   20.6746 H   0  0  0  0  0  0
  -17.4200  -26.6657   21.4012 H   0  0  0  0  0  0
  -18.0332  -26.0058   22.9013 H   0  0  0  0  0  0
  -19.7945  -30.7241   24.2266 H   0  0  0  0  0  0
  -17.5028  -31.6263   24.5149 H   0  0  0  0  0  0
  -15.5353  -30.2971   23.7668 H   0  0  0  0  0  0
  -15.8674  -28.0822   22.7047 H   0  0  0  0  0  0
  -24.5920  -30.7038   25.7793 H   0  0  0  0  0  0
  -24.8895  -32.2852   26.4891 H   0  0  0  0  0  0
  -25.8058  -30.8887   27.0238 H   0  0  0  0  0  0
  -26.2879  -29.6775   24.1186 H   0  0  0  0  0  0
  -27.4083  -29.7275   25.4608 H   0  0  0  0  0  0
  -27.8719  -30.4333   23.9303 H   0  0  0  0  0  0
  -27.2684  -33.3626   26.2064 H   0  0  0  0  0  0
  -28.3863  -32.6868   25.0313 H   0  0  0  0  0  0
  -28.0725  -31.8447   26.5411 H   0  0  0  0  0  0
  -28.2585  -38.0106   24.7506 H   0  0  0  0  0  0
  -28.1095  -36.2636   24.6292 H   0  0  0  0  0  0
  -27.2297  -37.1458   25.8861 H   0  0  0  0  0  0
  -20.9332  -29.8774   21.6936 H   0  0  0  0  0  0
  -26.0195  -38.2855   24.1400 H   0  0  0  0  0  0
  -30.7060  -20.4700   21.2790 H   0  0  0  0  0  0
  -28.3857  -16.8970   16.4246 H   0  0  0  0  0  0
  -29.7957  -17.7722   17.0027 H   0  0  0  0  0  0
  -28.4546  -18.6471   16.2778 H   0  0  0  0  0  0
  -24.3531  -20.4014   18.0085 H   0  0  0  0  0  0
  -25.0654  -21.0674   19.4786 H   0  0  0  0  0  0
  -25.1597  -19.3372   19.1589 H   0  0  0  0  0  0
  -31.4932  -18.2994   20.2059 H   0  0  0  0  0  0
  -30.5106  -17.3715   19.1598 H   0  0  0  0  0  0
  -26.9598  -17.8950   18.1982 H   0  0  0  0  0  0
  -28.2764  -17.0546   18.9048 H   0  0  0  0  0  0
  -30.1337  -22.7317   21.8167 H   0  0  0  0  0  0
  -28.4245  -22.9499   21.9024 H   0  0  0  0  0  0
  -26.6027  -19.8432   17.1170 H   0  0  0  0  0  0
  -26.5240  -21.5243   17.4959 H   0  0  0  0  0  0
  -30.0099  -24.1451   19.5438 H   0  0  0  0  0  0
  -30.0656  -24.8684   21.1180 H   0  0  0  0  0  0
  -29.3072  -17.3781   21.8388 H   0  0  0  0  0  0
  -30.9941  -17.0156   21.9930 H   0  0  0  0  0  0
  -27.4491  -24.9415   21.0308 H   0  0  0  0  0  0
  -27.6891  -24.7497   19.3072 H   0  0  0  0  0  0
  -28.9353  -15.2564   21.2326 H   0  0  0  0  0  0
  1 25  1  0  0  0
  1 30  2  0  0  0
  1 86  1  0  0  0
  2  3  1  0  0  0
  2 25  1  0  0  0
  2 87  1  0  0  0
  2 88  1  0  0  0
  3  4  1  0  0  0
  3 89  1  0  0  0
  3 90  1  0  0  0
  4  5  1  0  0  0
  4 91  1  0  0  0
  4 92  1  0  0  0
  5  6  1  0  0  0
  5 26  1  0  0  0
  5 93  1  0  0  0
  6 25  1  0  0  0
  6 94  1  0  0  0
  6 95  1  0  0  0
  7  8  2  0  0  0
  7 26  1  0  0  0
  7 29  1  0  0  0
  8  9  1  0  0  0
  8 22  1  0  0  0
  9 10  1  0  0  0
  9 27  2  0  0  0
 10 11  2  0  0  0
 10 15  1  0  0  0
 11 12  1  0  0  0
 11 96  1  0  0  0
 12 13  2  0  0  0
 12 97  1  0  0  0
 13 14  1  0  0  0
 13 31  1  0  0  0
 14 15  2  0  0  0
 14 98  1  0  0  0
 15 99  1  0  0  0
 16 17  2  0  0  0
 16 21  1  0  0  0
 16 31  1  0  0  0
 17 18  1  0  0  0
 17100  1  0  0  0
 18 19  2  0  0  0
 18101  1  0  0  0
 19 20  1  0  0  0
 19 24  1  0  0  0
 20 21  2  0  0  0
 20102  1  0  0  0
 21 23  1  0  0  0
 22 28  1  0  0  0
 22 32  2  0  0  0
 26 27  1  0  0  0
 28103  1  0  0  0
 28104  1  0  0  0
 29105  1  0  0  0
 29106  1  0  0  0
 33 34  1  0  0  0
 33 66  1  0  0  0
 33 70  2  0  0  0
 34 36  1  0  0  0
 34 59  1  0  0  0
 34107  1  0  0  0
 35 44  2  0  0  0
 35 45  1  0  0  0
 35 68  1  0  0  0
 36 56  1  0  0  0
 36108  1  0  0  0
 37 39  1  0  0  0
 37 47  1  0  0  0
 37 66  1  0  0  0
 37109  1  0  0  0
 38 43  2  0  0  0
 38 46  1  0  0  0
 38 47  1  0  0  0
 39 64  1  0  0  0
 39 67  2  0  0  0
 40 52  1  0  0  0
 40 53  2  0  0  0
 40 58  1  0  0  0
 41110  1  0  0  0
 41111  1  0  0  0
 41112  1  0  0  0
 41 48  1  0  0  0
 42 43  1  0  0  0
 42 66  1  0  0  0
 42113  1  0  0  0
 42114  1  0  0  0
 43 44  1  0  0  0
 44115  1  0  0  0
 45 46  2  0  0  0
 45116  1  0  0  0
 46117  1  0  0  0
 47118  1  0  0  0
 47119  1  0  0  0
 48 56  1  0  0  0
 48 65  1  0  0  0
 48120  1  0  0  0
 49 50  1  0  0  0
 49 53  1  0  0  0
 49 64  1  0  0  0
 49121  1  0  0  0
 50 51  1  0  0  0
 50122  1  0  0  0
 50123  1  0  0  0
 51 52  1  0  0  0
 51124  1  0  0  0
 51125  1  0  0  0
 52126  1  0  0  0
 52127  1  0  0  0
 53 54  1  0  0  0
 54 55  2  0  0  0
 54128  1  0  0  0
 55 57  1  0  0  0
 55129  1  0  0  0
 56 69  2  0  0  0
 57 58  2  0  0  0
 57130  1  0  0  0
 58131  1  0  0  0
 59 60  1  0  0  0
 59 61  1  0  0  0
 59 62  1  0  0  0
 60132  1  0  0  0
 60133  1  0  0  0
 60134  1  0  0  0
 61135  1  0  0  0
 61136  1  0  0  0
 61137  1  0  0  0
 62138  1  0  0  0
 62139  1  0  0  0
 62140  1  0  0  0
 63 65  1  0  0  0
 63141  1  0  0  0
 63142  1  0  0  0
 63143  1  0  0  0
 64144  1  0  0  0
 65145  1  0  0  0
 68 84  1  0  0  0
 71 72  2  0  0  0
 71 74  1  0  0  0
 71146  1  0  0  0
 72 73  1  0  0  0
 72 78  1  0  0  0
 73 75  2  0  0  0
 73 79  1  0  0  0
 74 80  1  0  0  0
 74 85  2  0  0  0
 75 81  1  0  0  0
 75 85  1  0  0  0
 76 79  1  0  0  0
 76147  1  0  0  0
 76148  1  0  0  0
 76149  1  0  0  0
 77 81  1  0  0  0
 77150  1  0  0  0
 77151  1  0  0  0
 77152  1  0  0  0
 78 83  1  0  0  0
 78153  1  0  0  0
 78154  1  0  0  0
 79155  1  0  0  0
 79156  1  0  0  0
 80 82  1  0  0  0
 80157  1  0  0  0
 80158  1  0  0  0
 81159  1  0  0  0
 81160  1  0  0  0
 82 84  1  0  0  0
 82161  1  0  0  0
 82162  1  0  0  0
 83 86  1  0  0  0
 83163  1  0  0  0
 83164  1  0  0  0
 84165  1  0  0  0
 84166  1  0  0  0
 86167  1  0  0  0
M  ISO  4   1 100  68 101  84 101  86 100
M  END
> <chiral flag>
0

> <version>
0

> <s_m_source_file>
/data/baiqing/PycharmProjects/Reinvent-master-3.2/result/LINK_invent/BTK/process_docking_weight1_custom_sum_contain_oxygen_bond_distance_aromatic_linkinvent_7_9_3/rearranged_h_0090.sdf

> <i_m_source_file_index>
40

> <r_mmod_Potential_Energy-OPLS-2005>
-200.495880126953

> <r_mmod_Stretch_Energy-OPLS-2005>
54.6141548156738

> <r_mmod_Bend_Energy-OPLS-2005>
120.533790588379

> <r_mmod_Torsional_Energy-OPLS-2005>
217.084747314453

> <r_mmod_Improper_Torsional_Energy-OPLS-2005>
4.09130954742432

> <r_mmod_Van_der_Waal_Energy-OPLS-2005>
143.732635498047

> <r_mmod_Electrostatic_Energy-OPLS-2005>
-550.013854980469

> <r_mmod_Solvation_Energy-OPLS-2005>
-216.710601806641

> <b_mmod_Minimization_Converged-OPLS-2005>
0

> <r_mmod_RMS_Derivative-OPLS-2005>
1.27972269058228

$$$$
41
                    3D
 Structure written by MMmdl.
158166  0  0  1  0            999 V2000
  -30.5557  -14.9506   20.4310 C   0  0  0  0  0  0
  -30.4363  -12.5802   19.5404 C   0  0  0  0  0  0
  -29.5348  -12.5340   18.2849 C   0  0  0  0  0  0
  -28.0657  -12.3081   18.6894 C   0  0  0  0  0  0
  -27.6318  -13.2466   19.8467 C   0  0  2  0  0  0
  -28.6640  -13.2932   20.9980 C   0  0  0  0  0  0
  -25.2473  -13.8221   20.5727 C   0  0  0  0  0  0
  -24.1769  -13.0444   20.9219 C   0  0  0  0  0  0
  -24.6381  -11.6917   20.8758 C   0  0  0  0  0  0
  -23.9059  -10.4305   21.0404 C   0  0  0  0  0  0
  -24.3616   -9.4212   21.9189 C   0  0  0  0  0  0
  -23.6290   -8.2250   22.0748 C   0  0  0  0  0  0
  -22.4273   -8.0298   21.3544 C   0  0  0  0  0  0
  -21.9920   -9.0263   20.4637 C   0  0  0  0  0  0
  -22.7232  -10.2145   20.3044 C   0  0  0  0  0  0
  -21.6843   -6.0755   22.5299 C   0  0  0  0  0  0
  -21.4012   -6.5653   23.8238 C   0  0  0  0  0  0
  -21.3648   -5.6798   24.9202 C   0  0  0  0  0  0
  -21.6045   -4.3061   24.7240 C   0  0  0  0  0  0
  -21.8810   -3.8152   23.4355 C   0  0  0  0  0  0
  -21.9180   -4.6987   22.3416 C   0  0  0  0  0  0
  -22.7779  -13.5201   21.1882 C   0  0  0  0  0  0
  -22.1636   -4.2165   21.0994 F   0  0  0  0  0  0
  -21.5618   -3.4544   25.7748 F   0  0  0  0  0  0
  -29.9546  -13.6893   20.4186 N   0  0  0  0  0  0
  -26.2877  -12.9432   20.3270 N   0  0  0  0  0  0
  -25.9324  -11.6555   20.5767 N   0  0  0  0  0  0
  -22.0425  -12.8207   22.0455 N   0  0  0  0  0  0
  -25.4187  -15.1973   20.4189 N   0  0  0  0  0  0
  -31.7492  -14.9849   20.0926 O   0  0  0  0  0  0
  -21.6618   -6.8901   21.4256 O   0  0  0  0  0  0
  -22.3464  -14.5510   20.6729 O   0  0  0  0  0  0
  -24.6431  -31.8405   23.1863 C   0  0  0  0  0  0
  -25.9187  -32.4680   23.8279 C   0  0  1  0  0  0
  -27.2117  -27.1028   20.1688 C   0  0  0  0  0  0
  -25.5914  -33.8489   24.2204 N   0  0  0  0  0  0
  -23.4483  -30.4598   21.5316 C   0  0  2  0  0  0
  -24.8982  -28.8792   20.1123 C   0  0  0  0  0  0
  -22.7573  -29.4519   22.4828 C   0  0  0  0  0  0
  -18.0310  -28.1375   22.8473 C   0  0  0  0  0  0
  -24.1485  -36.7265   23.2655 C   0  0  0  0  0  0
  -26.0065  -30.7048   21.3913 C   0  0  0  0  0  0
  -26.0760  -29.3136   20.7324 C   0  0  0  0  0  0
  -27.2345  -28.4433   20.7406 C   0  0  0  0  0  0
  -26.0080  -26.7789   19.5039 C   0  0  0  0  0  0
  -24.8779  -27.6268   19.4803 C   0  0  0  0  0  0
  -23.6773  -29.7886   20.1515 C   0  0  0  0  0  0
  -25.4115  -36.3037   24.0334 C   0  0  1  0  0  0
  -20.5927  -28.3702   23.1213 C   0  0  2  0  0  0
  -20.6772  -26.9393   22.5394 C   0  0  0  0  0  0
  -19.5750  -26.6348   21.5198 C   0  0  0  0  0  0
  -18.1939  -26.7907   22.1622 C   0  0  0  0  0  0
  -19.1573  -28.8856   23.2830 C   0  0  0  0  0  0
  -18.9489  -30.1458   23.8842 C   0  0  0  0  0  0
  -17.6489  -30.6565   24.0551 C   0  0  0  0  0  0
  -25.9062  -34.9402   23.5092 C   0  0  0  0  0  0
  -16.5375  -29.9055   23.6340 C   0  0  0  0  0  0
  -16.7302  -28.6479   23.0346 C   0  0  0  0  0  0
  -26.4533  -31.6560   25.0729 C   0  0  0  0  0  0
  -25.3730  -31.3734   26.1430 C   0  0  0  0  0  0
  -27.0456  -30.2957   24.6377 C   0  0  0  0  0  0
  -27.6052  -32.4369   25.7501 C   0  0  0  0  0  0
  -27.5576  -37.1788   24.8471 C   0  0  0  0  0  0
  -21.4266  -29.3034   22.3590 N   0  0  0  0  0  0
  -26.4289  -37.3742   23.9406 N   0  0  0  0  0  0
  -24.7188  -31.0235   22.0923 N   0  0  0  0  0  0
  -23.4206  -28.8071   23.3000 O   0  0  0  0  0  0
  -28.2577  -26.1014   20.2493 O   0  0  0  0  0  0
  -26.5665  -34.8906   22.4684 O   0  0  0  0  0  0
  -23.5535  -32.1315   23.7057 O   0  0  0  0  0  0
  -29.3328  -18.8342   20.7062 C   0  0  0  0  0  0
  -30.4892  -18.8588   18.2903 C   0  0  0  0  0  0
  -29.3171  -20.1662   20.0210 C   0  0  0  0  0  0
  -29.8776  -20.0644   18.7162 C   0  0  0  0  0  0
  -29.9194  -17.5723   20.1615 C   0  0  0  0  0  0
  -28.5057  -20.8561   16.7774 C   0  0  0  0  0  0
  -30.9991  -21.4236   16.8578 C   0  0  0  0  0  0
  -28.5444  -21.5747   20.4988 C   0  0  0  0  0  0
  -29.0070  -23.2269   20.4139 C   0  0  0  0  0  0
  -27.9693  -24.5586   20.1653 C   0  0  0  0  0  0
  -29.7177  -21.1624   17.6670 C   0  0  0  0  0  0
  -30.5252  -17.6988   18.9703 N   0  0  0  0  0  0
  -29.8284  -16.1458   20.7146 N   0  0  0  0  0  0
  -31.4780  -12.7068   19.2407 H   0  0  0  0  0  0
  -30.3976  -11.6292   20.0746 H   0  0  0  0  0  0
  -29.8694  -11.7491   17.6073 H   0  0  0  0  0  0
  -29.6234  -13.4720   17.7353 H   0  0  0  0  0  0
  -27.9660  -11.2685   19.0054 H   0  0  0  0  0  0
  -27.4096  -12.4260   17.8265 H   0  0  0  0  0  0
  -27.5912  -14.2423   19.4081 H   0  0  0  0  0  0
  -28.7392  -12.3281   21.5001 H   0  0  0  0  0  0
  -28.3508  -14.0117   21.7567 H   0  0  0  0  0  0
  -25.2774   -9.5695   22.4740 H   0  0  0  0  0  0
  -24.0003   -7.4625   22.7446 H   0  0  0  0  0  0
  -21.0855   -8.8791   19.8918 H   0  0  0  0  0  0
  -22.3704  -10.9694   19.6141 H   0  0  0  0  0  0
  -21.2013   -7.6163   23.9775 H   0  0  0  0  0  0
  -21.1472   -6.0516   25.9116 H   0  0  0  0  0  0
  -22.0593   -2.7617   23.2858 H   0  0  0  0  0  0
  -22.3999  -11.9852   22.4872 H   0  0  0  0  0  0
  -21.1044  -13.1239   22.2607 H   0  0  0  0  0  0
  -24.6559  -15.8565   20.5315 H   0  0  0  0  0  0
  -26.2801  -15.6409   20.1262 H   0  0  0  0  0  0
  -26.7237  -32.5293   23.0989 H   0  0  0  0  0  0
  -24.9967  -33.9598   25.0286 H   0  0  0  0  0  0
  -22.7512  -31.2849   21.3748 H   0  0  0  0  0  0
  -23.3747  -35.9595   23.3308 H   0  0  0  0  0  0
  -24.3554  -36.8906   22.2071 H   0  0  0  0  0  0
  -23.7249  -37.6466   23.6695 H   0  0  0  0  0  0
  -26.1700  -31.4606   20.6211 H   0  0  0  0  0  0
  -26.8727  -30.7500   22.0396 H   0  0  0  0  0  0
  -28.1327  -28.7714   21.2449 H   0  0  0  0  0  0
  -25.9035  -25.8246   19.0097 H   0  0  0  0  0  0
  -23.9777  -27.2924   18.9822 H   0  0  0  0  0  0
  -23.8189  -30.5640   19.3972 H   0  0  0  0  0  0
  -22.7902  -29.2341   19.8411 H   0  0  0  0  0  0
  -25.1297  -36.1884   25.0828 H   0  0  0  0  0  0
  -21.0028  -28.3299   24.1335 H   0  0  0  0  0  0
  -20.5611  -26.2337   23.3629 H   0  0  0  0  0  0
  -21.6643  -26.7341   22.1233 H   0  0  0  0  0  0
  -19.6904  -25.6245   21.1256 H   0  0  0  0  0  0
  -19.6682  -27.3134   20.6712 H   0  0  0  0  0  0
  -17.4198  -26.6642   21.4034 H   0  0  0  0  0  0
  -18.0346  -26.0045   22.9025 H   0  0  0  0  0  0
  -19.7971  -30.7289   24.2159 H   0  0  0  0  0  0
  -17.5042  -31.6243   24.5160 H   0  0  0  0  0  0
  -15.5370  -30.2936   23.7672 H   0  0  0  0  0  0
  -15.8711  -28.0778   22.7067 H   0  0  0  0  0  0
  -24.5861  -30.7143   25.7734 H   0  0  0  0  0  0
  -24.8982  -32.2920   26.4889 H   0  0  0  0  0  0
  -25.8009  -30.8855   27.0196 H   0  0  0  0  0  0
  -26.3117  -29.6591   24.1420 H   0  0  0  0  0  0
  -27.4083  -29.7341   25.4999 H   0  0  0  0  0  0
  -27.9010  -30.4177   23.9728 H   0  0  0  0  0  0
  -27.2603  -33.3648   26.2072 H   0  0  0  0  0  0
  -28.3846  -32.6977   25.0330 H   0  0  0  0  0  0
  -28.0761  -31.8537   26.5423 H   0  0  0  0  0  0
  -28.2605  -38.0071   24.7473 H   0  0  0  0  0  0
  -28.1058  -36.2596   24.6344 H   0  0  0  0  0  0
  -27.2286  -37.1498   25.8873 H   0  0  0  0  0  0
  -20.9448  -29.8799   21.6822 H   0  0  0  0  0  0
  -26.0169  -38.2824   24.1362 H   0  0  0  0  0  0
  -28.8420  -18.7669   21.6675 H   0  0  0  0  0  0
  -30.9092  -18.7721   17.3008 H   0  0  0  0  0  0
  -27.5968  -20.7804   17.3773 H   0  0  0  0  0  0
  -28.6207  -19.9158   16.2374 H   0  0  0  0  0  0
  -28.3452  -21.6458   16.0436 H   0  0  0  0  0  0
  -31.8297  -21.6715   17.5195 H   0  0  0  0  0  0
  -30.8638  -22.2648   16.1791 H   0  0  0  0  0  0
  -31.2979  -20.5742   16.2451 H   0  0  0  0  0  0
  -28.3000  -21.4033   21.5484 H   0  0  0  0  0  0
  -27.5742  -21.5137   20.0067 H   0  0  0  0  0  0
  -29.8175  -23.3482   19.6997 H   0  0  0  0  0  0
  -29.5244  -23.4174   21.3541 H   0  0  0  0  0  0
  -27.1121  -24.3922   20.8176 H   0  0  0  0  0  0
  -27.5793  -24.4068   19.1592 H   0  0  0  0  0  0
  -29.4821  -22.1005   18.1401 H   0  0  0  0  0  0
  -28.9799  -15.9789   21.2301 H   0  0  0  0  0  0
  1 25  1  0  0  0
  1 30  2  0  0  0
  1 83  1  0  0  0
  2  3  1  0  0  0
  2 25  1  0  0  0
  2 84  1  0  0  0
  2 85  1  0  0  0
  3  4  1  0  0  0
  3 86  1  0  0  0
  3 87  1  0  0  0
  4  5  1  0  0  0
  4 88  1  0  0  0
  4 89  1  0  0  0
  5  6  1  0  0  0
  5 26  1  0  0  0
  5 90  1  0  0  0
  6 25  1  0  0  0
  6 91  1  0  0  0
  6 92  1  0  0  0
  7  8  2  0  0  0
  7 26  1  0  0  0
  7 29  1  0  0  0
  8  9  1  0  0  0
  8 22  1  0  0  0
  9 10  1  0  0  0
  9 27  2  0  0  0
 10 11  2  0  0  0
 10 15  1  0  0  0
 11 12  1  0  0  0
 11 93  1  0  0  0
 12 13  2  0  0  0
 12 94  1  0  0  0
 13 14  1  0  0  0
 13 31  1  0  0  0
 14 15  2  0  0  0
 14 95  1  0  0  0
 15 96  1  0  0  0
 16 17  2  0  0  0
 16 21  1  0  0  0
 16 31  1  0  0  0
 17 18  1  0  0  0
 17 97  1  0  0  0
 18 19  2  0  0  0
 18 98  1  0  0  0
 19 20  1  0  0  0
 19 24  1  0  0  0
 20 21  2  0  0  0
 20 99  1  0  0  0
 21 23  1  0  0  0
 22 28  1  0  0  0
 22 32  2  0  0  0
 26 27  1  0  0  0
 28100  1  0  0  0
 28101  1  0  0  0
 29102  1  0  0  0
 29103  1  0  0  0
 33 34  1  0  0  0
 33 66  1  0  0  0
 33 70  2  0  0  0
 34 36  1  0  0  0
 34 59  1  0  0  0
 34104  1  0  0  0
 35 44  2  0  0  0
 35 45  1  0  0  0
 35 68  1  0  0  0
 36 56  1  0  0  0
 36105  1  0  0  0
 37 39  1  0  0  0
 37 47  1  0  0  0
 37 66  1  0  0  0
 37106  1  0  0  0
 38 43  2  0  0  0
 38 46  1  0  0  0
 38 47  1  0  0  0
 39 64  1  0  0  0
 39 67  2  0  0  0
 40 52  1  0  0  0
 40 53  2  0  0  0
 40 58  1  0  0  0
 41107  1  0  0  0
 41108  1  0  0  0
 41109  1  0  0  0
 41 48  1  0  0  0
 42 43  1  0  0  0
 42 66  1  0  0  0
 42110  1  0  0  0
 42111  1  0  0  0
 43 44  1  0  0  0
 44112  1  0  0  0
 45 46  2  0  0  0
 45113  1  0  0  0
 46114  1  0  0  0
 47115  1  0  0  0
 47116  1  0  0  0
 48 56  1  0  0  0
 48 65  1  0  0  0
 48117  1  0  0  0
 49 50  1  0  0  0
 49 53  1  0  0  0
 49 64  1  0  0  0
 49118  1  0  0  0
 50 51  1  0  0  0
 50119  1  0  0  0
 50120  1  0  0  0
 51 52  1  0  0  0
 51121  1  0  0  0
 51122  1  0  0  0
 52123  1  0  0  0
 52124  1  0  0  0
 53 54  1  0  0  0
 54 55  2  0  0  0
 54125  1  0  0  0
 55 57  1  0  0  0
 55126  1  0  0  0
 56 69  2  0  0  0
 57 58  2  0  0  0
 57127  1  0  0  0
 58128  1  0  0  0
 59 60  1  0  0  0
 59 61  1  0  0  0
 59 62  1  0  0  0
 60129  1  0  0  0
 60130  1  0  0  0
 60131  1  0  0  0
 61132  1  0  0  0
 61133  1  0  0  0
 61134  1  0  0  0
 62135  1  0  0  0
 62136  1  0  0  0
 62137  1  0  0  0
 63 65  1  0  0  0
 63138  1  0  0  0
 63139  1  0  0  0
 63140  1  0  0  0
 64141  1  0  0  0
 65142  1  0  0  0
 68 80  1  0  0  0
 71 73  2  0  0  0
 71 75  1  0  0  0
 71143  1  0  0  0
 72 74  2  0  0  0
 72 82  1  0  0  0
 72144  1  0  0  0
 73 74  1  0  0  0
 73 78  1  0  0  0
 74 81  1  0  0  0
 75 82  2  0  0  0
 75 83  1  0  0  0
 76145  1  0  0  0
 76146  1  0  0  0
 76147  1  0  0  0
 76 81  1  0  0  0
 77 81  1  0  0  0
 77148  1  0  0  0
 77149  1  0  0  0
 77150  1  0  0  0
 78 79  1  0  0  0
 78151  1  0  0  0
 78152  1  0  0  0
 79 80  1  0  0  0
 79153  1  0  0  0
 79154  1  0  0  0
 80155  1  0  0  0
 80156  1  0  0  0
 81157  1  0  0  0
 83158  1  0  0  0
M  ISO  4   1 100  68 101  80 101  83 100
M  END
> <chiral flag>
0

> <version>
0

> <s_m_source_file>
/data/baiqing/PycharmProjects/Reinvent-master-3.2/result/LINK_invent/BTK/process_docking_weight1_custom_sum_contain_oxygen_bond_distance_aromatic_linkinvent_7_9_3/rearranged_h_0090.sdf

> <i_m_source_file_index>
41

> <r_mmod_Potential_Energy-OPLS-2005>
444.014892578125

> <r_mmod_Stretch_Energy-OPLS-2005>
296.345764160156

> <r_mmod_Bend_Energy-OPLS-2005>
278.196411132812

> <r_mmod_Torsional_Energy-OPLS-2005>
232.565383911133

> <r_mmod_Improper_Torsional_Energy-OPLS-2005>
4.95159482955933

> <r_mmod_Van_der_Waal_Energy-OPLS-2005>
141.763931274414

> <r_mmod_Electrostatic_Energy-OPLS-2005>
-482.347778320312

> <r_mmod_Solvation_Energy-OPLS-2005>
-233.437347412109

> <b_mmod_Minimization_Converged-OPLS-2005>
0

> <r_mmod_RMS_Derivative-OPLS-2005>
3.87899780273438

$$$$
42
                    3D
 Structure written by MMmdl.
169177  0  0  1  0            999 V2000
  -30.6441  -14.5321   20.5386 C   0  0  0  0  0  0
  -30.4388  -12.3317   19.4351 C   0  0  0  0  0  0
  -29.5019  -12.5010   18.2186 C   0  0  0  0  0  0
  -28.0246  -12.3517   18.6334 C   0  0  0  0  0  0
  -27.6661  -13.2007   19.8812 C   0  0  2  0  0  0
  -28.7078  -12.9921   21.0066 C   0  0  0  0  0  0
  -25.2636  -13.8156   20.5674 C   0  0  0  0  0  0
  -24.1862  -13.0444   20.9171 C   0  0  0  0  0  0
  -24.6395  -11.6908   20.8755 C   0  0  0  0  0  0
  -23.9060  -10.4288   21.0418 C   0  0  0  0  0  0
  -24.3615   -9.4201   21.9193 C   0  0  0  0  0  0
  -23.6279   -8.2239   22.0762 C   0  0  0  0  0  0
  -22.4270   -8.0282   21.3541 C   0  0  0  0  0  0
  -21.9903   -9.0262   20.4648 C   0  0  0  0  0  0
  -22.7233  -10.2137   20.3056 C   0  0  0  0  0  0
  -21.6860   -6.0726   22.5271 C   0  0  0  0  0  0
  -21.3996   -6.5632   23.8200 C   0  0  0  0  0  0
  -21.3649   -5.6791   24.9166 C   0  0  0  0  0  0
  -21.6064   -4.3052   24.7227 C   0  0  0  0  0  0
  -21.8821   -3.8139   23.4346 C   0  0  0  0  0  0
  -21.9187   -4.6953   22.3393 C   0  0  0  0  0  0
  -22.7892  -13.5261   21.1812 C   0  0  0  0  0  0
  -22.1669   -4.2136   21.0971 F   0  0  0  0  0  0
  -21.5635   -3.4535   25.7742 F   0  0  0  0  0  0
  -30.0357  -13.3154   20.4574 N   0  0  0  0  0  0
  -26.3058  -12.9299   20.3402 N   0  0  0  0  0  0
  -25.9323  -11.6476   20.5808 N   0  0  0  0  0  0
  -22.0514  -12.8267   22.0371 N   0  0  0  0  0  0
  -25.4425  -15.1851   20.4068 N   0  0  0  0  0  0
  -31.7702  -14.7435   20.0799 O   0  0  0  0  0  0
  -21.6638   -6.8877   21.4237 O   0  0  0  0  0  0
  -22.3583  -14.5556   20.6652 O   0  0  0  0  0  0
  -24.6182  -31.8627   23.2086 C   0  0  0  0  0  0
  -25.9060  -32.4812   23.8369 C   0  0  1  0  0  0
  -27.2141  -27.3662   20.0976 C   0  0  0  0  0  0
  -25.5895  -33.8612   24.2263 N   0  0  0  0  0  0
  -23.4098  -30.4849   21.5537 C   0  0  2  0  0  0
  -24.8510  -28.9473   20.1109 C   0  0  0  0  0  0
  -22.7426  -29.4616   22.5016 C   0  0  0  0  0  0
  -18.0253  -28.1374   22.8469 C   0  0  0  0  0  0
  -24.1501  -36.7343   23.2642 C   0  0  0  0  0  0
  -25.9456  -30.8088   21.3707 C   0  0  0  0  0  0
  -26.0180  -29.4394   20.7094 C   0  0  0  0  0  0
  -27.2054  -28.6608   20.6895 C   0  0  0  0  0  0
  -26.0243  -26.9032   19.4953 C   0  0  0  0  0  0
  -24.8513  -27.6806   19.5004 C   0  0  0  0  0  0
  -23.6166  -29.8210   20.1657 C   0  0  0  0  0  0
  -25.4131  -36.3111   24.0313 C   0  0  1  0  0  0
  -20.5830  -28.3651   23.1310 C   0  0  2  0  0  0
  -20.6751  -26.9384   22.5427 C   0  0  0  0  0  0
  -19.5739  -26.6379   21.5210 C   0  0  0  0  0  0
  -18.1898  -26.7921   22.1589 C   0  0  0  0  0  0
  -19.1499  -28.8826   23.2867 C   0  0  0  0  0  0
  -18.9451  -30.1439   23.8861 C   0  0  0  0  0  0
  -17.6455  -30.6576   24.0551 C   0  0  0  0  0  0
  -25.9062  -34.9480   23.5088 C   0  0  0  0  0  0
  -16.5336  -29.9091   23.6327 C   0  0  0  0  0  0
  -16.7241  -28.6516   23.0323 C   0  0  0  0  0  0
  -26.4436  -31.6654   25.0759 C   0  0  0  0  0  0
  -25.3660  -31.3823   26.1493 C   0  0  0  0  0  0
  -27.0270  -30.3071   24.6214 C   0  0  0  0  0  0
  -27.5967  -32.4427   25.7526 C   0  0  0  0  0  0
  -27.5588  -37.1810   24.8444 C   0  0  0  0  0  0
  -21.4147  -29.3018   22.3768 N   0  0  0  0  0  0
  -26.4298  -37.3807   23.9389 N   0  0  0  0  0  0
  -24.6766  -31.0672   22.1013 N   0  0  0  0  0  0
  -23.4179  -28.8127   23.3035 O   0  0  0  0  0  0
  -28.3809  -26.6105   20.0862 O   0  0  0  0  0  0
  -26.5670  -34.8943   22.4688 O   0  0  0  0  0  0
  -23.5376  -32.1432   23.7440 O   0  0  0  0  0  0
  -28.6851  -22.0224   21.0516 C   0  0  0  0  0  0
  -28.4054  -23.1321   21.9184 C   0  0  0  0  0  0
  -28.9594  -20.7411   21.6373 C   0  0  0  0  0  0
  -28.4115  -22.8320   23.3082 C   0  0  0  0  0  0
  -26.4079  -24.6390   26.1039 C   0  0  0  0  0  0
  -30.6429  -18.0031   22.5667 C   0  0  0  0  0  0
  -28.1577  -17.6345   22.2249 C   0  0  0  0  0  0
  -28.0753  -24.5950   21.4986 C   0  0  0  0  0  0
  -29.3580  -19.4718   20.8249 C   0  0  0  0  0  0
  -28.1312  -23.8505   24.4092 C   0  0  0  0  0  0
  -26.6363  -24.0245   24.7156 C   0  0  0  0  0  0
  -29.8420  -16.9459   20.4614 C   0  0  0  0  0  0
  -28.3383  -25.1479   20.0740 C   0  0  0  0  0  0
  -29.4865  -18.0404   21.5325 C   0  0  0  0  0  0
  -28.9376  -20.5880   22.9776 N   0  0  0  0  0  0
  -28.6472  -21.5933   23.7913 N   0  0  0  0  0  0
  -29.8375  -15.5394   20.9425 N   0  0  0  0  0  0
  -31.4781  -12.4552   19.1260 H   0  0  0  0  0  0
  -30.3690  -11.3204   19.8386 H   0  0  0  0  0  0
  -29.7461  -11.7676   17.4487 H   0  0  0  0  0  0
  -29.6589  -13.4813   17.7681 H   0  0  0  0  0  0
  -27.8450  -11.2952   18.8439 H   0  0  0  0  0  0
  -27.3684  -12.6105   17.8022 H   0  0  0  0  0  0
  -27.7091  -14.2449   19.5722 H   0  0  0  0  0  0
  -28.6959  -11.9583   21.3556 H   0  0  0  0  0  0
  -28.4682  -13.5973   21.8820 H   0  0  0  0  0  0
  -25.2754   -9.5675   22.4773 H   0  0  0  0  0  0
  -23.9983   -7.4635   22.7480 H   0  0  0  0  0  0
  -21.0839   -8.8788   19.8956 H   0  0  0  0  0  0
  -22.3699  -10.9687   19.6170 H   0  0  0  0  0  0
  -21.1984   -7.6138   23.9699 H   0  0  0  0  0  0
  -21.1476   -6.0518   25.9069 H   0  0  0  0  0  0
  -22.0612   -2.7601   23.2852 H   0  0  0  0  0  0
  -22.4116  -11.9923   22.4743 H   0  0  0  0  0  0
  -21.1133  -13.1319   22.2566 H   0  0  0  0  0  0
  -24.6848  -15.8508   20.5112 H   0  0  0  0  0  0
  -26.3026  -15.6130   20.0901 H   0  0  0  0  0  0
  -26.7138  -32.5521   23.1137 H   0  0  0  0  0  0
  -24.9951  -33.9773   25.0323 H   0  0  0  0  0  0
  -22.7033  -31.3043   21.4190 H   0  0  0  0  0  0
  -23.3757  -35.9676   23.3311 H   0  0  0  0  0  0
  -24.3535  -36.8991   22.2051 H   0  0  0  0  0  0
  -23.7272  -37.6546   23.6679 H   0  0  0  0  0  0
  -26.0696  -31.5762   20.6040 H   0  0  0  0  0  0
  -26.8305  -30.8581   21.9956 H   0  0  0  0  0  0
  -28.1139  -29.0391   21.1357 H   0  0  0  0  0  0
  -25.9775  -25.9463   18.9983 H   0  0  0  0  0  0
  -23.9535  -27.2979   19.0358 H   0  0  0  0  0  0
  -23.7299  -30.6013   19.4138 H   0  0  0  0  0  0
  -22.7348  -29.2516   19.8689 H   0  0  0  0  0  0
  -25.1298  -36.1967   25.0804 H   0  0  0  0  0  0
  -20.9879  -28.3240   24.1448 H   0  0  0  0  0  0
  -20.5673  -26.2247   23.3628 H   0  0  0  0  0  0
  -21.6637  -26.7455   22.1207 H   0  0  0  0  0  0
  -19.6935  -25.6301   21.1249 H   0  0  0  0  0  0
  -19.6706  -27.3181   20.6734 H   0  0  0  0  0  0
  -17.4184  -26.6625   21.3999 H   0  0  0  0  0  0
  -18.0289  -26.0067   22.8991 H   0  0  0  0  0  0
  -19.7941  -30.7228   24.2236 H   0  0  0  0  0  0
  -17.5033  -31.6249   24.5169 H   0  0  0  0  0  0
  -15.5338  -30.2974   23.7737 H   0  0  0  0  0  0
  -15.8617  -28.0870   22.7025 H   0  0  0  0  0  0
  -24.5740  -30.7283   25.7840 H   0  0  0  0  0  0
  -24.8941  -32.3011   26.4989 H   0  0  0  0  0  0
  -25.7932  -30.8930   27.0248 H   0  0  0  0  0  0
  -26.2846  -29.6873   24.1152 H   0  0  0  0  0  0
  -27.3878  -29.7295   25.4734 H   0  0  0  0  0  0
  -27.8765  -30.4397   23.9495 H   0  0  0  0  0  0
  -27.2518  -33.3713   26.2117 H   0  0  0  0  0  0
  -28.3740  -32.7042   25.0330 H   0  0  0  0  0  0
  -28.0669  -31.8576   26.5447 H   0  0  0  0  0  0
  -28.2577  -38.0144   24.7504 H   0  0  0  0  0  0
  -28.1109  -36.2644   24.6235 H   0  0  0  0  0  0
  -27.2281  -37.1448   25.8847 H   0  0  0  0  0  0
  -20.9352  -29.8807   21.7020 H   0  0  0  0  0  0
  -26.0193  -38.2889   24.1400 H   0  0  0  0  0  0
  -28.6981  -22.1418   19.9797 H   0  0  0  0  0  0
  -25.3640  -24.9221   26.2447 H   0  0  0  0  0  0
  -27.0212  -25.5287   26.2522 H   0  0  0  0  0  0
  -26.6692  -23.9291   26.8899 H   0  0  0  0  0  0
  -30.5404  -18.7229   23.3771 H   0  0  0  0  0  0
  -31.6057  -18.1939   22.0914 H   0  0  0  0  0  0
  -30.7135  -17.0262   23.0471 H   0  0  0  0  0  0
  -27.9160  -18.2721   23.0747 H   0  0  0  0  0  0
  -28.1880  -16.6241   22.6290 H   0  0  0  0  0  0
  -27.3138  -17.6792   21.5356 H   0  0  0  0  0  0
  -28.6642  -25.2438   22.1451 H   0  0  0  0  0  0
  -27.0348  -24.7849   21.7603 H   0  0  0  0  0  0
  -30.2998  -19.6983   20.3259 H   0  0  0  0  0  0
  -28.6245  -19.3860   20.0209 H   0  0  0  0  0  0
  -28.6003  -24.8127   24.2084 H   0  0  0  0  0  0
  -28.6374  -23.5004   25.3109 H   0  0  0  0  0  0
  -26.1715  -24.6402   23.9445 H   0  0  0  0  0  0
  -26.1307  -23.0563   24.6745 H   0  0  0  0  0  0
  -30.7992  -17.1811   19.9938 H   0  0  0  0  0  0
  -29.1062  -16.9920   19.6587 H   0  0  0  0  0  0
  -27.6463  -24.7243   19.3477 H   0  0  0  0  0  0
  -29.3246  -24.8137   19.7546 H   0  0  0  0  0  0
  -28.9817  -15.2358   21.3813 H   0  0  0  0  0  0
  1 25  1  0  0  0
  1 30  2  0  0  0
  1 87  1  0  0  0
  2  3  1  0  0  0
  2 25  1  0  0  0
  2 88  1  0  0  0
  2 89  1  0  0  0
  3  4  1  0  0  0
  3 90  1  0  0  0
  3 91  1  0  0  0
  4  5  1  0  0  0
  4 92  1  0  0  0
  4 93  1  0  0  0
  5  6  1  0  0  0
  5 26  1  0  0  0
  5 94  1  0  0  0
  6 25  1  0  0  0
  6 95  1  0  0  0
  6 96  1  0  0  0
  7  8  2  0  0  0
  7 26  1  0  0  0
  7 29  1  0  0  0
  8  9  1  0  0  0
  8 22  1  0  0  0
  9 10  1  0  0  0
  9 27  2  0  0  0
 10 11  2  0  0  0
 10 15  1  0  0  0
 11 12  1  0  0  0
 11 97  1  0  0  0
 12 13  2  0  0  0
 12 98  1  0  0  0
 13 14  1  0  0  0
 13 31  1  0  0  0
 14 15  2  0  0  0
 14 99  1  0  0  0
 15100  1  0  0  0
 16 17  2  0  0  0
 16 21  1  0  0  0
 16 31  1  0  0  0
 17 18  1  0  0  0
 17101  1  0  0  0
 18 19  2  0  0  0
 18102  1  0  0  0
 19 20  1  0  0  0
 19 24  1  0  0  0
 20 21  2  0  0  0
 20103  1  0  0  0
 21 23  1  0  0  0
 22 28  1  0  0  0
 22 32  2  0  0  0
 26 27  1  0  0  0
 28104  1  0  0  0
 28105  1  0  0  0
 29106  1  0  0  0
 29107  1  0  0  0
 33 34  1  0  0  0
 33 66  1  0  0  0
 33 70  2  0  0  0
 34 36  1  0  0  0
 34 59  1  0  0  0
 34108  1  0  0  0
 35 44  2  0  0  0
 35 45  1  0  0  0
 35 68  1  0  0  0
 36 56  1  0  0  0
 36109  1  0  0  0
 37 39  1  0  0  0
 37 47  1  0  0  0
 37 66  1  0  0  0
 37110  1  0  0  0
 38 43  2  0  0  0
 38 46  1  0  0  0
 38 47  1  0  0  0
 39 64  1  0  0  0
 39 67  2  0  0  0
 40 52  1  0  0  0
 40 53  2  0  0  0
 40 58  1  0  0  0
 41111  1  0  0  0
 41112  1  0  0  0
 41113  1  0  0  0
 41 48  1  0  0  0
 42 43  1  0  0  0
 42 66  1  0  0  0
 42114  1  0  0  0
 42115  1  0  0  0
 43 44  1  0  0  0
 44116  1  0  0  0
 45 46  2  0  0  0
 45117  1  0  0  0
 46118  1  0  0  0
 47119  1  0  0  0
 47120  1  0  0  0
 48 56  1  0  0  0
 48 65  1  0  0  0
 48121  1  0  0  0
 49 50  1  0  0  0
 49 53  1  0  0  0
 49 64  1  0  0  0
 49122  1  0  0  0
 50 51  1  0  0  0
 50123  1  0  0  0
 50124  1  0  0  0
 51 52  1  0  0  0
 51125  1  0  0  0
 51126  1  0  0  0
 52127  1  0  0  0
 52128  1  0  0  0
 53 54  1  0  0  0
 54 55  2  0  0  0
 54129  1  0  0  0
 55 57  1  0  0  0
 55130  1  0  0  0
 56 69  2  0  0  0
 57 58  2  0  0  0
 57131  1  0  0  0
 58132  1  0  0  0
 59 60  1  0  0  0
 59 61  1  0  0  0
 59 62  1  0  0  0
 60133  1  0  0  0
 60134  1  0  0  0
 60135  1  0  0  0
 61136  1  0  0  0
 61137  1  0  0  0
 61138  1  0  0  0
 62139  1  0  0  0
 62140  1  0  0  0
 62141  1  0  0  0
 63 65  1  0  0  0
 63142  1  0  0  0
 63143  1  0  0  0
 63144  1  0  0  0
 64145  1  0  0  0
 65146  1  0  0  0
 68 83  1  0  0  0
 71 72  2  0  0  0
 71 73  1  0  0  0
 71147  1  0  0  0
 72 74  1  0  0  0
 72 78  1  0  0  0
 73 79  1  0  0  0
 73 85  2  0  0  0
 74 80  1  0  0  0
 74 86  2  0  0  0
 75 81  1  0  0  0
 75148  1  0  0  0
 75149  1  0  0  0
 75150  1  0  0  0
 76151  1  0  0  0
 76152  1  0  0  0
 76153  1  0  0  0
 76 84  1  0  0  0
 77 84  1  0  0  0
 77154  1  0  0  0
 77155  1  0  0  0
 77156  1  0  0  0
 78 83  1  0  0  0
 78157  1  0  0  0
 78158  1  0  0  0
 79 84  1  0  0  0
 79159  1  0  0  0
 79160  1  0  0  0
 80 81  1  0  0  0
 80161  1  0  0  0
 80162  1  0  0  0
 81163  1  0  0  0
 81164  1  0  0  0
 82 84  1  0  0  0
 82 87  1  0  0  0
 82165  1  0  0  0
 82166  1  0  0  0
 83167  1  0  0  0
 83168  1  0  0  0
 85 86  1  0  0  0
 87169  1  0  0  0
M  ISO  4   1 100  68 101  83 101  87 100
M  END
> <chiral flag>
0

> <version>
0

> <s_m_source_file>
/data/baiqing/PycharmProjects/Reinvent-master-3.2/result/LINK_invent/BTK/process_docking_weight1_custom_sum_contain_oxygen_bond_distance_aromatic_linkinvent_7_9_3/rearranged_h_0090.sdf

> <i_m_source_file_index>
42

> <r_mmod_Potential_Energy-OPLS-2005>
30.3872241973877

> <r_mmod_Stretch_Energy-OPLS-2005>
61.5989685058594

> <r_mmod_Bend_Energy-OPLS-2005>
144.623321533203

> <r_mmod_Torsional_Energy-OPLS-2005>
226.248260498047

> <r_mmod_Improper_Torsional_Energy-OPLS-2005>
6.66727590560913

> <r_mmod_Van_der_Waal_Energy-OPLS-2005>
154.836044311523

> <r_mmod_Electrostatic_Energy-OPLS-2005>
-367.56494140625

> <r_mmod_Solvation_Energy-OPLS-2005>
-219.137008666992

> <b_mmod_Minimization_Converged-OPLS-2005>
0

> <r_mmod_RMS_Derivative-OPLS-2005>
4.39858341217041

$$$$
43
                    3D
 Structure written by MMmdl.
162170  0  0  1  0            999 V2000
  -30.6437  -14.6995   20.4790 C   0  0  0  0  0  0
  -30.4283  -12.4314   19.4674 C   0  0  0  0  0  0
  -29.5077  -12.5044   18.2310 C   0  0  0  0  0  0
  -28.0321  -12.3379   18.6437 C   0  0  0  0  0  0
  -27.6430  -13.2318   19.8518 C   0  0  2  0  0  0
  -28.6880  -13.1532   20.9849 C   0  0  0  0  0  0
  -25.2515  -13.8204   20.5697 C   0  0  0  0  0  0
  -24.1805  -13.0450   20.9211 C   0  0  0  0  0  0
  -24.6394  -11.6921   20.8743 C   0  0  0  0  0  0
  -23.9069  -10.4298   21.0403 C   0  0  0  0  0  0
  -24.3619   -9.4210   21.9176 C   0  0  0  0  0  0
  -23.6294   -8.2246   22.0749 C   0  0  0  0  0  0
  -22.4274   -8.0283   21.3548 C   0  0  0  0  0  0
  -21.9914   -9.0251   20.4641 C   0  0  0  0  0  0
  -22.7244  -10.2130   20.3049 C   0  0  0  0  0  0
  -21.6857   -6.0730   22.5274 C   0  0  0  0  0  0
  -21.4019   -6.5637   23.8205 C   0  0  0  0  0  0
  -21.3662   -5.6791   24.9169 C   0  0  0  0  0  0
  -21.6048   -4.3051   24.7222 C   0  0  0  0  0  0
  -21.8819   -3.8143   23.4342 C   0  0  0  0  0  0
  -21.9193   -4.6960   22.3399 C   0  0  0  0  0  0
  -22.7825  -13.5223   21.1870 C   0  0  0  0  0  0
  -22.1662   -4.2146   21.0977 F   0  0  0  0  0  0
  -21.5628   -3.4533   25.7734 F   0  0  0  0  0  0
  -29.9918  -13.4923   20.4008 N   0  0  0  0  0  0
  -26.2941  -12.9414   20.3284 N   0  0  0  0  0  0
  -25.9325  -11.6552   20.5744 N   0  0  0  0  0  0
  -22.0469  -12.8208   22.0417 N   0  0  0  0  0  0
  -25.4189  -15.1931   20.4111 N   0  0  0  0  0  0
  -31.8345  -14.7810   20.1670 O   0  0  0  0  0  0
  -21.6646   -6.8876   21.4239 O   0  0  0  0  0  0
  -22.3500  -14.5522   20.6706 O   0  0  0  0  0  0
  -24.6298  -31.8568   23.1991 C   0  0  0  0  0  0
  -25.9129  -32.4761   23.8332 C   0  0  1  0  0  0
  -27.2159  -27.2792   20.1248 C   0  0  0  0  0  0
  -25.5927  -33.8563   24.2257 N   0  0  0  0  0  0
  -23.4251  -30.4805   21.5414 C   0  0  2  0  0  0
  -24.8722  -28.9338   20.1047 C   0  0  0  0  0  0
  -22.7495  -29.4598   22.4899 C   0  0  0  0  0  0
  -18.0295  -28.1387   22.8475 C   0  0  0  0  0  0
  -24.1499  -36.7298   23.2635 C   0  0  0  0  0  0
  -25.9696  -30.7763   21.3760 C   0  0  0  0  0  0
  -26.0426  -29.4012   20.7163 C   0  0  0  0  0  0
  -27.2163  -28.5852   20.7170 C   0  0  0  0  0  0
  -26.0248  -26.8801   19.4754 C   0  0  0  0  0  0
  -24.8681  -27.6814   19.4732 C   0  0  0  0  0  0
  -23.6421  -29.8185   20.1556 C   0  0  0  0  0  0
  -25.4124  -36.3069   24.0321 C   0  0  1  0  0  0
  -20.5899  -28.3691   23.1275 C   0  0  2  0  0  0
  -20.6786  -26.9408   22.5413 C   0  0  0  0  0  0
  -19.5760  -26.6380   21.5216 C   0  0  0  0  0  0
  -18.1936  -26.7933   22.1623 C   0  0  0  0  0  0
  -19.1546  -28.8859   23.2870 C   0  0  0  0  0  0
  -18.9465  -30.1461   23.8882 C   0  0  0  0  0  0
  -17.6460  -30.6580   24.0563 C   0  0  0  0  0  0
  -25.9061  -34.9440   23.5093 C   0  0  0  0  0  0
  -16.5352  -29.9074   23.6332 C   0  0  0  0  0  0
  -16.7282  -28.6505   23.0334 C   0  0  0  0  0  0
  -26.4489  -31.6586   25.0722 C   0  0  0  0  0  0
  -25.3706  -31.3745   26.1444 C   0  0  0  0  0  0
  -27.0340  -30.3004   24.6202 C   0  0  0  0  0  0
  -27.6040  -32.4333   25.7497 C   0  0  0  0  0  0
  -27.5580  -37.1801   24.8458 C   0  0  0  0  0  0
  -21.4203  -29.3038   22.3656 N   0  0  0  0  0  0
  -26.4294  -37.3770   23.9398 N   0  0  0  0  0  0
  -24.6935  -31.0554   22.0952 N   0  0  0  0  0  0
  -23.4202  -28.8135   23.2985 O   0  0  0  0  0  0
  -28.3119  -26.3925   20.1989 O   0  0  0  0  0  0
  -26.5625  -34.8907   22.4658 O   0  0  0  0  0  0
  -23.5460  -32.1388   23.7296 O   0  0  0  0  0  0
  -30.9532  -21.9042   21.9209 C   0  0  0  0  0  0
  -31.6684  -20.8401   22.5053 C   0  0  0  0  0  0
  -29.9867  -21.3378   21.1280 C   0  0  0  0  0  0
  -34.1666  -20.7179   22.8370 C   0  0  0  0  0  0
  -28.2155  -18.4015   21.4530 C   0  0  0  0  0  0
  -32.7972  -20.9136   23.4984 C   0  0  0  0  0  0
  -28.9558  -22.2487   20.3850 C   0  0  0  0  0  0
  -29.1314  -23.8560   20.5850 C   0  0  0  0  0  0
  -30.4660  -17.2625   20.8439 C   0  0  0  0  0  0
  -28.0787  -24.9235   20.0125 C   0  0  0  0  0  0
  -29.5487  -18.6113   20.7207 C   0  0  2  0  0  0
  -31.2263  -19.6780   22.0836 N   0  0  0  0  0  0
  -30.1969  -19.9004   21.2237 N   0  0  0  0  0  0
  -29.9116  -15.8472   20.7170 N   0  0  0  0  0  0
  -31.4713  -12.5461   19.1663 H   0  0  0  0  0  0
  -30.3596  -11.4525   19.9459 H   0  0  0  0  0  0
  -29.7848  -11.7347   17.5095 H   0  0  0  0  0  0
  -29.6438  -13.4617   17.7248 H   0  0  0  0  0  0
  -27.8793  -11.2884   18.8981 H   0  0  0  0  0  0
  -27.3770  -12.5434   17.7961 H   0  0  0  0  0  0
  -27.6423  -14.2567   19.4804 H   0  0  0  0  0  0
  -28.7128  -12.1536   21.4203 H   0  0  0  0  0  0
  -28.4296  -13.8338   21.7982 H   0  0  0  0  0  0
  -25.2763   -9.5691   22.4745 H   0  0  0  0  0  0
  -24.0004   -7.4645   22.7470 H   0  0  0  0  0  0
  -21.0847   -8.8767   19.8947 H   0  0  0  0  0  0
  -22.3699  -10.9665   19.6154 H   0  0  0  0  0  0
  -21.2013   -7.6141   23.9712 H   0  0  0  0  0  0
  -21.1488   -6.0516   25.9074 H   0  0  0  0  0  0
  -22.0596   -2.7603   23.2841 H   0  0  0  0  0  0
  -22.4098  -11.9880   22.4821 H   0  0  0  0  0  0
  -21.1076  -13.1207   22.2604 H   0  0  0  0  0  0
  -24.6472  -15.8423   20.5203 H   0  0  0  0  0  0
  -26.2569  -15.6326   20.0531 H   0  0  0  0  0  0
  -26.7189  -32.5418   23.1063 H   0  0  0  0  0  0
  -25.0053  -33.9698   25.0390 H   0  0  0  0  0  0
  -22.7213  -31.3031   21.3977 H   0  0  0  0  0  0
  -23.3746  -35.9646   23.3294 H   0  0  0  0  0  0
  -24.3578  -36.8937   22.2047 H   0  0  0  0  0  0
  -23.7278  -37.6507   23.6676 H   0  0  0  0  0  0
  -26.1097  -31.5405   20.6110 H   0  0  0  0  0  0
  -26.8463  -30.8230   22.0102 H   0  0  0  0  0  0
  -28.1115  -28.9336   21.2137 H   0  0  0  0  0  0
  -25.9541  -25.9251   18.9750 H   0  0  0  0  0  0
  -23.9738  -27.3227   18.9823 H   0  0  0  0  0  0
  -23.7620  -30.5977   19.4025 H   0  0  0  0  0  0
  -22.7612  -29.2504   19.8510 H   0  0  0  0  0  0
  -25.1310  -36.1915   25.0815 H   0  0  0  0  0  0
  -21.0000  -28.3280   24.1391 H   0  0  0  0  0  0
  -20.5714  -26.2283   23.3614 H   0  0  0  0  0  0
  -21.6645  -26.7447   22.1177 H   0  0  0  0  0  0
  -19.6923  -25.6291   21.1242 H   0  0  0  0  0  0
  -19.6705  -27.3191   20.6747 H   0  0  0  0  0  0
  -17.4208  -26.6677   21.4018 H   0  0  0  0  0  0
  -18.0326  -26.0087   22.9032 H   0  0  0  0  0  0
  -19.7944  -30.7284   24.2230 H   0  0  0  0  0  0
  -17.5016  -31.6258   24.5167 H   0  0  0  0  0  0
  -15.5351  -30.2959   23.7682 H   0  0  0  0  0  0
  -15.8687  -28.0830   22.7026 H   0  0  0  0  0  0
  -24.5879  -30.7093   25.7767 H   0  0  0  0  0  0
  -24.8889  -32.2917   26.4848 H   0  0  0  0  0  0
  -25.8016  -30.8940   27.0236 H   0  0  0  0  0  0
  -26.2933  -29.6746   24.1209 H   0  0  0  0  0  0
  -27.3999  -29.7278   25.4731 H   0  0  0  0  0  0
  -27.8814  -30.4263   23.9460 H   0  0  0  0  0  0
  -27.2645  -33.3636   26.2060 H   0  0  0  0  0  0
  -28.3857  -32.6894   25.0331 H   0  0  0  0  0  0
  -28.0690  -31.8470   26.5430 H   0  0  0  0  0  0
  -28.2581  -38.0108   24.7496 H   0  0  0  0  0  0
  -28.1091  -36.2636   24.6292 H   0  0  0  0  0  0
  -27.2293  -37.1455   25.8858 H   0  0  0  0  0  0
  -20.9387  -29.8791   21.6884 H   0  0  0  0  0  0
  -26.0173  -38.2850   24.1383 H   0  0  0  0  0  0
  -31.1218  -22.9559   22.1013 H   0  0  0  0  0  0
  -34.9680  -20.7827   23.5735 H   0  0  0  0  0  0
  -34.2357  -19.7449   22.3493 H   0  0  0  0  0  0
  -34.3483  -21.4831   22.0820 H   0  0  0  0  0  0
  -27.6649  -17.5553   21.0425 H   0  0  0  0  0  0
  -27.5746  -19.2791   21.3677 H   0  0  0  0  0  0
  -28.3786  -18.2098   22.5139 H   0  0  0  0  0  0
  -32.6580  -20.1671   24.2822 H   0  0  0  0  0  0
  -32.7792  -21.8800   24.0048 H   0  0  0  0  0  0
  -27.9547  -21.9652   20.7091 H   0  0  0  0  0  0
  -28.9880  -22.0201   19.3195 H   0  0  0  0  0  0
  -30.1142  -24.1314   20.2000 H   0  0  0  0  0  0
  -29.1765  -24.0444   21.6580 H   0  0  0  0  0  0
  -30.9244  -17.2406   21.8322 H   0  0  0  0  0  0
  -31.2991  -17.3688   20.1472 H   0  0  0  0  0  0
  -27.1200  -24.6658   20.4668 H   0  0  0  0  0  0
  -27.9654  -24.7442   18.9428 H   0  0  0  0  0  0
  -29.3279  -18.7711   19.6650 H   0  0  0  0  0  0
  -28.9256  -15.7250   20.8894 H   0  0  0  0  0  0
  1 25  1  0  0  0
  1 30  2  0  0  0
  1 84  1  0  0  0
  2  3  1  0  0  0
  2 25  1  0  0  0
  2 85  1  0  0  0
  2 86  1  0  0  0
  3  4  1  0  0  0
  3 87  1  0  0  0
  3 88  1  0  0  0
  4  5  1  0  0  0
  4 89  1  0  0  0
  4 90  1  0  0  0
  5  6  1  0  0  0
  5 26  1  0  0  0
  5 91  1  0  0  0
  6 25  1  0  0  0
  6 92  1  0  0  0
  6 93  1  0  0  0
  7  8  2  0  0  0
  7 26  1  0  0  0
  7 29  1  0  0  0
  8  9  1  0  0  0
  8 22  1  0  0  0
  9 10  1  0  0  0
  9 27  2  0  0  0
 10 11  2  0  0  0
 10 15  1  0  0  0
 11 12  1  0  0  0
 11 94  1  0  0  0
 12 13  2  0  0  0
 12 95  1  0  0  0
 13 14  1  0  0  0
 13 31  1  0  0  0
 14 15  2  0  0  0
 14 96  1  0  0  0
 15 97  1  0  0  0
 16 17  2  0  0  0
 16 21  1  0  0  0
 16 31  1  0  0  0
 17 18  1  0  0  0
 17 98  1  0  0  0
 18 19  2  0  0  0
 18 99  1  0  0  0
 19 20  1  0  0  0
 19 24  1  0  0  0
 20 21  2  0  0  0
 20100  1  0  0  0
 21 23  1  0  0  0
 22 28  1  0  0  0
 22 32  2  0  0  0
 26 27  1  0  0  0
 28101  1  0  0  0
 28102  1  0  0  0
 29103  1  0  0  0
 29104  1  0  0  0
 33 34  1  0  0  0
 33 66  1  0  0  0
 33 70  2  0  0  0
 34 36  1  0  0  0
 34 59  1  0  0  0
 34105  1  0  0  0
 35 44  2  0  0  0
 35 45  1  0  0  0
 35 68  1  0  0  0
 36 56  1  0  0  0
 36106  1  0  0  0
 37 39  1  0  0  0
 37 47  1  0  0  0
 37 66  1  0  0  0
 37107  1  0  0  0
 38 43  2  0  0  0
 38 46  1  0  0  0
 38 47  1  0  0  0
 39 64  1  0  0  0
 39 67  2  0  0  0
 40 52  1  0  0  0
 40 53  2  0  0  0
 40 58  1  0  0  0
 41108  1  0  0  0
 41109  1  0  0  0
 41110  1  0  0  0
 41 48  1  0  0  0
 42 43  1  0  0  0
 42 66  1  0  0  0
 42111  1  0  0  0
 42112  1  0  0  0
 43 44  1  0  0  0
 44113  1  0  0  0
 45 46  2  0  0  0
 45114  1  0  0  0
 46115  1  0  0  0
 47116  1  0  0  0
 47117  1  0  0  0
 48 56  1  0  0  0
 48 65  1  0  0  0
 48118  1  0  0  0
 49 50  1  0  0  0
 49 53  1  0  0  0
 49 64  1  0  0  0
 49119  1  0  0  0
 50 51  1  0  0  0
 50120  1  0  0  0
 50121  1  0  0  0
 51 52  1  0  0  0
 51122  1  0  0  0
 51123  1  0  0  0
 52124  1  0  0  0
 52125  1  0  0  0
 53 54  1  0  0  0
 54 55  2  0  0  0
 54126  1  0  0  0
 55 57  1  0  0  0
 55127  1  0  0  0
 56 69  2  0  0  0
 57 58  2  0  0  0
 57128  1  0  0  0
 58129  1  0  0  0
 59 60  1  0  0  0
 59 61  1  0  0  0
 59 62  1  0  0  0
 60130  1  0  0  0
 60131  1  0  0  0
 60132  1  0  0  0
 61133  1  0  0  0
 61134  1  0  0  0
 61135  1  0  0  0
 62136  1  0  0  0
 62137  1  0  0  0
 62138  1  0  0  0
 63 65  1  0  0  0
 63139  1  0  0  0
 63140  1  0  0  0
 63141  1  0  0  0
 64142  1  0  0  0
 65143  1  0  0  0
 68 80  1  0  0  0
 71 72  1  0  0  0
 71 73  2  0  0  0
 71144  1  0  0  0
 72 76  1  0  0  0
 72 82  2  0  0  0
 73 77  1  0  0  0
 73 83  1  0  0  0
 74 76  1  0  0  0
 74145  1  0  0  0
 74146  1  0  0  0
 74147  1  0  0  0
 75148  1  0  0  0
 75149  1  0  0  0
 75150  1  0  0  0
 75 81  1  0  0  0
 76151  1  0  0  0
 76152  1  0  0  0
 77 78  1  0  0  0
 77153  1  0  0  0
 77154  1  0  0  0
 78 80  1  0  0  0
 78155  1  0  0  0
 78156  1  0  0  0
 79 81  1  0  0  0
 79 84  1  0  0  0
 79157  1  0  0  0
 79158  1  0  0  0
 80159  1  0  0  0
 80160  1  0  0  0
 81 83  1  0  0  0
 81161  1  0  0  0
 82 83  1  0  0  0
 84162  1  0  0  0
M  ISO  4   1 100  68 101  80 101  84 100
M  END
> <chiral flag>
0

> <version>
0

> <s_m_source_file>
/data/baiqing/PycharmProjects/Reinvent-master-3.2/result/LINK_invent/BTK/process_docking_weight1_custom_sum_contain_oxygen_bond_distance_aromatic_linkinvent_7_9_3/rearranged_h_0090.sdf

> <i_m_source_file_index>
43

> <r_mmod_Potential_Energy-OPLS-2005>
64.3614883422852

> <r_mmod_Stretch_Energy-OPLS-2005>
121.599311828613

> <r_mmod_Bend_Energy-OPLS-2005>
179.992065429688

> <r_mmod_Torsional_Energy-OPLS-2005>
218.124771118164

> <r_mmod_Improper_Torsional_Energy-OPLS-2005>
4.35239458084106

> <r_mmod_Van_der_Waal_Energy-OPLS-2005>
123.822471618652

> <r_mmod_Electrostatic_Energy-OPLS-2005>
-438.784484863281

> <r_mmod_Solvation_Energy-OPLS-2005>
-217.516296386719

> <b_mmod_Minimization_Converged-OPLS-2005>
0

> <r_mmod_RMS_Derivative-OPLS-2005>
1.47221374511719

$$$$
44
                    3D
 Structure written by MMmdl.
183191  0  0  1  0            999 V2000
  -30.6842  -14.5204   20.5227 C   0  0  0  0  0  0
  -30.4252  -12.3174   19.4499 C   0  0  0  0  0  0
  -29.5027  -12.5059   18.2269 C   0  0  0  0  0  0
  -28.0230  -12.3614   18.6324 C   0  0  0  0  0  0
  -27.6603  -13.2121   19.8794 C   0  0  2  0  0  0
  -28.7049  -13.0245   21.0075 C   0  0  0  0  0  0
  -25.2579  -13.8160   20.5689 C   0  0  0  0  0  0
  -24.1839  -13.0421   20.9188 C   0  0  0  0  0  0
  -24.6400  -11.6899   20.8766 C   0  0  0  0  0  0
  -23.9060  -10.4298   21.0422 C   0  0  0  0  0  0
  -24.3624   -9.4203   21.9192 C   0  0  0  0  0  0
  -23.6294   -8.2224   22.0732 C   0  0  0  0  0  0
  -22.4275   -8.0259   21.3520 C   0  0  0  0  0  0
  -21.9921   -9.0242   20.4616 C   0  0  0  0  0  0
  -22.7242  -10.2129   20.3060 C   0  0  0  0  0  0
  -21.6836   -6.0742   22.5287 C   0  0  0  0  0  0
  -21.4002   -6.5646   23.8221 C   0  0  0  0  0  0
  -21.3682   -5.6790   24.9183 C   0  0  0  0  0  0
  -21.6043   -4.3050   24.7223 C   0  0  0  0  0  0
  -21.8814   -3.8143   23.4337 C   0  0  0  0  0  0
  -21.9188   -4.6975   22.3404 C   0  0  0  0  0  0
  -22.7872  -13.5207   21.1855 C   0  0  0  0  0  0
  -22.1630   -4.2169   21.0970 F   0  0  0  0  0  0
  -21.5667   -3.4528   25.7734 F   0  0  0  0  0  0
  -30.0370  -13.3238   20.4555 N   0  0  0  0  0  0
  -26.3027  -12.9337   20.3392 N   0  0  0  0  0  0
  -25.9335  -11.6489   20.5819 N   0  0  0  0  0  0
  -22.0501  -12.8232   22.0419 N   0  0  0  0  0  0
  -25.4283  -15.1889   20.4129 N   0  0  0  0  0  0
  -31.8211  -14.6893   20.0736 O   0  0  0  0  0  0
  -21.6595   -6.8882   21.4241 O   0  0  0  0  0  0
  -22.3574  -14.5510   20.6673 O   0  0  0  0  0  0
  -24.6187  -31.8699   23.2078 C   0  0  0  0  0  0
  -25.9076  -32.4827   23.8393 C   0  0  1  0  0  0
  -27.2174  -27.3967   20.0950 C   0  0  0  0  0  0
  -25.5928  -33.8630   24.2327 N   0  0  0  0  0  0
  -23.4049  -30.4958   21.5517 C   0  0  2  0  0  0
  -24.8447  -28.9576   20.1151 C   0  0  0  0  0  0
  -22.7430  -29.4693   22.4988 C   0  0  0  0  0  0
  -18.0280  -28.1379   22.8489 C   0  0  0  0  0  0
  -24.1495  -36.7304   23.2637 C   0  0  0  0  0  0
  -25.9402  -30.8222   21.3677 C   0  0  0  0  0  0
  -26.0114  -29.4560   20.7088 C   0  0  0  0  0  0
  -27.2008  -28.6842   20.6927 C   0  0  0  0  0  0
  -26.0242  -26.9227   19.5009 C   0  0  0  0  0  0
  -24.8472  -27.6906   19.5115 C   0  0  0  0  0  0
  -23.6126  -29.8323   20.1653 C   0  0  0  0  0  0
  -25.4117  -36.3119   24.0341 C   0  0  1  0  0  0
  -20.5875  -28.3686   23.1304 C   0  0  2  0  0  0
  -20.6778  -26.9418   22.5412 C   0  0  0  0  0  0
  -19.5752  -26.6385   21.5215 C   0  0  0  0  0  0
  -18.1930  -26.7924   22.1621 C   0  0  0  0  0  0
  -19.1530  -28.8846   23.2892 C   0  0  0  0  0  0
  -18.9459  -30.1448   23.8905 C   0  0  0  0  0  0
  -17.6465  -30.6586   24.0573 C   0  0  0  0  0  0
  -25.9052  -34.9484   23.5129 C   0  0  0  0  0  0
  -16.5353  -29.9092   23.6330 C   0  0  0  0  0  0
  -16.7270  -28.6507   23.0348 C   0  0  0  0  0  0
  -26.4470  -31.6609   25.0733 C   0  0  0  0  0  0
  -25.3711  -31.3747   26.1470 C   0  0  0  0  0  0
  -27.0310  -30.3046   24.6145 C   0  0  0  0  0  0
  -27.6046  -32.4339   25.7491 C   0  0  0  0  0  0
  -27.5591  -37.1808   24.8465 C   0  0  0  0  0  0
  -21.4157  -29.3056   22.3711 N   0  0  0  0  0  0
  -26.4303  -37.3799   23.9411 N   0  0  0  0  0  0
  -24.6727  -31.0778   22.0998 N   0  0  0  0  0  0
  -23.4196  -28.8246   23.3046 O   0  0  0  0  0  0
  -28.3731  -26.6299   20.1134 O   0  0  0  0  0  0
  -26.5612  -34.8936   22.4692 O   0  0  0  0  0  0
  -23.5370  -32.1487   23.7451 O   0  0  0  0  0  0
  -30.7415  -25.1615   20.5484 C   0  0  0  0  0  0
  -31.7075  -24.1253   20.6182 C   0  0  0  0  0  0
  -29.5734  -24.5372   20.1957 C   0  0  0  0  0  0
  -32.0834  -17.9269   25.0876 C   0  0  0  0  0  0
  -34.5273  -18.5635   25.0939 C   0  0  0  0  0  0
  -27.7741  -19.1970   19.6286 C   0  0  0  0  0  0
  -33.1695  -24.1975   20.9924 C   0  0  0  0  0  0
  -28.2404  -25.1948   19.9178 C   0  0  0  0  0  0
  -33.5072  -23.5224   22.3469 C   0  0  0  0  0  0
  -33.0916  -22.0405   22.4211 C   0  0  0  0  0  0
  -33.5237  -21.2809   23.6782 C   0  0  0  0  0  0
  -32.8501  -19.8953   23.7123 C   0  0  0  0  0  0
  -29.0546  -21.9555   19.8551 C   0  0  0  0  0  0
  -29.9372  -16.8862   20.1409 C   0  0  0  0  0  0
  -29.3804  -20.7011   20.7700 C   0  0  0  0  0  0
  -29.5649  -18.1646   20.9769 C   0  0  0  0  0  0
  -33.0868  -19.0880   25.0000 C   0  0  0  0  0  0
  -31.1859  -22.9650   20.2697 N   0  0  0  0  0  0
  -29.8598  -23.1599   20.1395 N   0  0  0  0  0  0
  -29.9145  -15.5823   20.8567 N   0  0  0  0  0  0
  -29.1615  -19.3516   20.1353 N   0  3  1  0  0  0
  -31.4705  -12.4068   19.1477 H   0  0  0  0  0  0
  -30.3205  -11.3106   19.8628 H   0  0  0  0  0  0
  -29.7533  -11.7800   17.4530 H   0  0  0  0  0  0
  -29.6683  -13.4946   17.7937 H   0  0  0  0  0  0
  -27.8425  -11.3053   18.8366 H   0  0  0  0  0  0
  -27.3720  -12.6251   17.7965 H   0  0  0  0  0  0
  -27.6923  -14.2559   19.5663 H   0  0  0  0  0  0
  -28.6883  -11.9964   21.3716 H   0  0  0  0  0  0
  -28.4733  -13.6590   21.8663 H   0  0  0  0  0  0
  -25.2777   -9.5679   22.4769 H   0  0  0  0  0  0
  -24.0018   -7.4621   22.7450 H   0  0  0  0  0  0
  -21.0849   -8.8741   19.8949 H   0  0  0  0  0  0
  -22.3680  -10.9656   19.6169 H   0  0  0  0  0  0
  -21.1957   -7.6151   23.9729 H   0  0  0  0  0  0
  -21.1524   -6.0513   25.9089 H   0  0  0  0  0  0
  -22.0589   -2.7610   23.2803 H   0  0  0  0  0  0
  -22.4030  -11.9863   22.4827 H   0  0  0  0  0  0
  -21.1126  -13.1266   22.2602 H   0  0  0  0  0  0
  -24.6605  -15.8436   20.5162 H   0  0  0  0  0  0
  -26.2831  -15.6286   20.0976 H   0  0  0  0  0  0
  -26.7151  -32.5514   23.1156 H   0  0  0  0  0  0
  -25.0111  -33.9793   25.0493 H   0  0  0  0  0  0
  -22.6948  -31.3142   21.4133 H   0  0  0  0  0  0
  -23.3772  -35.9621   23.3307 H   0  0  0  0  0  0
  -24.3589  -36.8908   22.2049 H   0  0  0  0  0  0
  -23.7229  -37.6502   23.6645 H   0  0  0  0  0  0
  -26.0666  -31.5890   20.6020 H   0  0  0  0  0  0
  -26.8241  -30.8661   21.9932 H   0  0  0  0  0  0
  -28.0979  -29.0659   21.1600 H   0  0  0  0  0  0
  -25.9706  -25.9541   19.0278 H   0  0  0  0  0  0
  -23.9474  -27.2957   19.0594 H   0  0  0  0  0  0
  -23.7287  -30.6116   19.4107 H   0  0  0  0  0  0
  -22.7327  -29.2608   19.8634 H   0  0  0  0  0  0
  -25.1292  -36.1982   25.0834 H   0  0  0  0  0  0
  -20.9963  -28.3250   24.1428 H   0  0  0  0  0  0
  -20.5695  -26.2298   23.3610 H   0  0  0  0  0  0
  -21.6650  -26.7475   22.1195 H   0  0  0  0  0  0
  -19.6927  -25.6298   21.1243 H   0  0  0  0  0  0
  -19.6686  -27.3204   20.6751 H   0  0  0  0  0  0
  -17.4208  -26.6688   21.4015 H   0  0  0  0  0  0
  -18.0319  -26.0061   22.9006 H   0  0  0  0  0  0
  -19.7938  -30.7262   24.2273 H   0  0  0  0  0  0
  -17.5023  -31.6260   24.5181 H   0  0  0  0  0  0
  -15.5357  -30.3006   23.7635 H   0  0  0  0  0  0
  -15.8669  -28.0834   22.7059 H   0  0  0  0  0  0
  -24.5873  -30.7108   25.7805 H   0  0  0  0  0  0
  -24.8908  -32.2912   26.4907 H   0  0  0  0  0  0
  -25.8026  -30.8918   27.0241 H   0  0  0  0  0  0
  -26.2876  -29.6804   24.1172 H   0  0  0  0  0  0
  -27.4042  -29.7290   25.4621 H   0  0  0  0  0  0
  -27.8726  -30.4366   23.9344 H   0  0  0  0  0  0
  -27.2674  -33.3647   26.2071 H   0  0  0  0  0  0
  -28.3842  -32.6892   25.0298 H   0  0  0  0  0  0
  -28.0733  -31.8465   26.5395 H   0  0  0  0  0  0
  -28.2611  -38.0105   24.7526 H   0  0  0  0  0  0
  -28.1085  -36.2638   24.6277 H   0  0  0  0  0  0
  -27.2311  -37.1439   25.8869 H   0  0  0  0  0  0
  -20.9324  -29.8776   21.6930 H   0  0  0  0  0  0
  -26.0199  -38.2883   24.1394 H   0  0  0  0  0  0
  -30.8789  -26.2197   20.7256 H   0  0  0  0  0  0
  -32.2099  -17.3575   26.0093 H   0  0  0  0  0  0
  -32.1976  -17.2366   24.2517 H   0  0  0  0  0  0
  -31.0550  -18.2895   25.0737 H   0  0  0  0  0  0
  -34.6839  -18.0091   26.0198 H   0  0  0  0  0  0
  -35.2546  -19.3749   25.0787 H   0  0  0  0  0  0
  -34.7621  -17.8945   24.2657 H   0  0  0  0  0  0
  -27.4788  -20.0100   18.9676 H   0  0  0  0  0  0
  -27.0677  -19.1704   20.4581 H   0  0  0  0  0  0
  -27.6484  -18.2782   19.0577 H   0  0  0  0  0  0
  -33.4841  -25.2402   21.0333 H   0  0  0  0  0  0
  -33.7706  -23.7476   20.2005 H   0  0  0  0  0  0
  -27.4767  -24.7835   20.5793 H   0  0  0  0  0  0
  -27.9535  -24.9812   18.8879 H   0  0  0  0  0  0
  -33.0216  -24.0711   23.1547 H   0  0  0  0  0  0
  -34.5810  -23.6122   22.5190 H   0  0  0  0  0  0
  -33.4533  -21.5145   21.5371 H   0  0  0  0  0  0
  -32.0041  -21.9904   22.3923 H   0  0  0  0  0  0
  -33.2324  -21.8524   24.5606 H   0  0  0  0  0  0
  -34.6087  -21.1876   23.7018 H   0  0  0  0  0  0
  -33.1587  -19.3088   22.8455 H   0  0  0  0  0  0
  -31.7755  -20.0463   23.5997 H   0  0  0  0  0  0
  -27.9987  -22.2165   19.9252 H   0  0  0  0  0  0
  -29.2433  -21.7031   18.8124 H   0  0  0  0  0  0
  -30.9092  -17.0516   19.6702 H   0  0  0  0  0  0
  -29.2431  -16.7570   19.3119 H   0  0  0  0  0  0
  -28.8043  -20.7712   21.6936 H   0  0  0  0  0  0
  -30.4218  -20.7246   21.0848 H   0  0  0  0  0  0
  -30.4358  -18.4309   21.5796 H   0  0  0  0  0  0
  -28.7737  -17.9420   21.6927 H   0  0  0  0  0  0
  -32.9047  -19.7418   25.8543 H   0  0  0  0  0  0
  -29.0442  -15.3402   21.3069 H   0  0  0  0  0  0
  -29.7760  -19.3412   19.3343 H   0  0  0  0  0  0
  1 25  1  0  0  0
  1 30  2  0  0  0
  1 90  1  0  0  0
  2  3  1  0  0  0
  2 25  1  0  0  0
  2 92  1  0  0  0
  2 93  1  0  0  0
  3  4  1  0  0  0
  3 94  1  0  0  0
  3 95  1  0  0  0
  4  5  1  0  0  0
  4 96  1  0  0  0
  4 97  1  0  0  0
  5  6  1  0  0  0
  5 26  1  0  0  0
  5 98  1  0  0  0
  6 25  1  0  0  0
  6 99  1  0  0  0
  6100  1  0  0  0
  7  8  2  0  0  0
  7 26  1  0  0  0
  7 29  1  0  0  0
  8  9  1  0  0  0
  8 22  1  0  0  0
  9 10  1  0  0  0
  9 27  2  0  0  0
 10 11  2  0  0  0
 10 15  1  0  0  0
 11 12  1  0  0  0
 11101  1  0  0  0
 12 13  2  0  0  0
 12102  1  0  0  0
 13 14  1  0  0  0
 13 31  1  0  0  0
 14 15  2  0  0  0
 14103  1  0  0  0
 15104  1  0  0  0
 16 17  2  0  0  0
 16 21  1  0  0  0
 16 31  1  0  0  0
 17 18  1  0  0  0
 17105  1  0  0  0
 18 19  2  0  0  0
 18106  1  0  0  0
 19 20  1  0  0  0
 19 24  1  0  0  0
 20 21  2  0  0  0
 20107  1  0  0  0
 21 23  1  0  0  0
 22 28  1  0  0  0
 22 32  2  0  0  0
 26 27  1  0  0  0
 28108  1  0  0  0
 28109  1  0  0  0
 29110  1  0  0  0
 29111  1  0  0  0
 33 34  1  0  0  0
 33 66  1  0  0  0
 33 70  2  0  0  0
 34 36  1  0  0  0
 34 59  1  0  0  0
 34112  1  0  0  0
 35 44  2  0  0  0
 35 45  1  0  0  0
 35 68  1  0  0  0
 36 56  1  0  0  0
 36113  1  0  0  0
 37 39  1  0  0  0
 37 47  1  0  0  0
 37 66  1  0  0  0
 37114  1  0  0  0
 38 43  2  0  0  0
 38 46  1  0  0  0
 38 47  1  0  0  0
 39 64  1  0  0  0
 39 67  2  0  0  0
 40 52  1  0  0  0
 40 53  2  0  0  0
 40 58  1  0  0  0
 41115  1  0  0  0
 41116  1  0  0  0
 41117  1  0  0  0
 41 48  1  0  0  0
 42 43  1  0  0  0
 42 66  1  0  0  0
 42118  1  0  0  0
 42119  1  0  0  0
 43 44  1  0  0  0
 44120  1  0  0  0
 45 46  2  0  0  0
 45121  1  0  0  0
 46122  1  0  0  0
 47123  1  0  0  0
 47124  1  0  0  0
 48 56  1  0  0  0
 48 65  1  0  0  0
 48125  1  0  0  0
 49 50  1  0  0  0
 49 53  1  0  0  0
 49 64  1  0  0  0
 49126  1  0  0  0
 50 51  1  0  0  0
 50127  1  0  0  0
 50128  1  0  0  0
 51 52  1  0  0  0
 51129  1  0  0  0
 51130  1  0  0  0
 52131  1  0  0  0
 52132  1  0  0  0
 53 54  1  0  0  0
 54 55  2  0  0  0
 54133  1  0  0  0
 55 57  1  0  0  0
 55134  1  0  0  0
 56 69  2  0  0  0
 57 58  2  0  0  0
 57135  1  0  0  0
 58136  1  0  0  0
 59 60  1  0  0  0
 59 61  1  0  0  0
 59 62  1  0  0  0
 60137  1  0  0  0
 60138  1  0  0  0
 60139  1  0  0  0
 61140  1  0  0  0
 61141  1  0  0  0
 61142  1  0  0  0
 62143  1  0  0  0
 62144  1  0  0  0
 62145  1  0  0  0
 63 65  1  0  0  0
 63146  1  0  0  0
 63147  1  0  0  0
 63148  1  0  0  0
 64149  1  0  0  0
 65150  1  0  0  0
 68 78  1  0  0  0
 71 72  1  0  0  0
 71 73  2  0  0  0
 71151  1  0  0  0
 72 77  1  0  0  0
 72 88  2  0  0  0
 73 78  1  0  0  0
 73 89  1  0  0  0
 74152  1  0  0  0
 74153  1  0  0  0
 74154  1  0  0  0
 74 87  1  0  0  0
 75 87  1  0  0  0
 75155  1  0  0  0
 75156  1  0  0  0
 75157  1  0  0  0
 76158  1  0  0  0
 76159  1  0  0  0
 76160  1  0  0  0
 76 91  1  0  0  0
 77 79  1  0  0  0
 77161  1  0  0  0
 77162  1  0  0  0
 78163  1  0  0  0
 78164  1  0  0  0
 79 80  1  0  0  0
 79165  1  0  0  0
 79166  1  0  0  0
 80 81  1  0  0  0
 80167  1  0  0  0
 80168  1  0  0  0
 81 82  1  0  0  0
 81169  1  0  0  0
 81170  1  0  0  0
 82 87  1  0  0  0
 82171  1  0  0  0
 82172  1  0  0  0
 83 85  1  0  0  0
 83 89  1  0  0  0
 83173  1  0  0  0
 83174  1  0  0  0
 84 86  1  0  0  0
 84 90  1  0  0  0
 84175  1  0  0  0
 84176  1  0  0  0
 85 91  1  0  0  0
 85177  1  0  0  0
 85178  1  0  0  0
 86 91  1  0  0  0
 86179  1  0  0  0
 86180  1  0  0  0
 87181  1  0  0  0
 88 89  1  0  0  0
 90182  1  0  0  0
 91183  1  0  0  0
M  CHG  1  91   1
M  ISO  4   1 100  68 101  78 101  90 100
M  END
> <chiral flag>
0

> <version>
0

> <s_m_source_file>
/data/baiqing/PycharmProjects/Reinvent-master-3.2/result/LINK_invent/BTK/process_docking_weight1_custom_sum_contain_oxygen_bond_distance_aromatic_linkinvent_7_9_3/rearranged_h_0090.sdf

> <i_m_source_file_index>
44

> <r_mmod_Potential_Energy-OPLS-2005>
-178.041442871094

> <r_mmod_Stretch_Energy-OPLS-2005>
52.3935356140137

> <r_mmod_Bend_Energy-OPLS-2005>
117.956748962402

> <r_mmod_Torsional_Energy-OPLS-2005>
248.888000488281

> <r_mmod_Improper_Torsional_Energy-OPLS-2005>
8.55529499053955

> <r_mmod_Van_der_Waal_Energy-OPLS-2005>
130.314300537109

> <r_mmod_Electrostatic_Energy-OPLS-2005>
-297.914184570312

> <r_mmod_Solvation_Energy-OPLS-2005>
-458.504913330078

> <b_mmod_Minimization_Converged-OPLS-2005>
0

> <r_mmod_RMS_Derivative-OPLS-2005>
3.35740423202515

$$$$
45
                    3D
 Structure written by MMmdl.
157165  0  0  1  0            999 V2000
  -30.7133  -14.4626   20.6103 C   0  0  0  0  0  0
  -30.4256  -12.3200   19.4113 C   0  0  0  0  0  0
  -29.4917  -12.5125   18.1996 C   0  0  0  0  0  0
  -28.0144  -12.3699   18.6158 C   0  0  0  0  0  0
  -27.6628  -13.2074   19.8749 C   0  0  2  0  0  0
  -28.7049  -12.9810   20.9922 C   0  0  0  0  0  0
  -25.2597  -13.8164   20.5682 C   0  0  0  0  0  0
  -24.1852  -13.0439   20.9178 C   0  0  0  0  0  0
  -24.6399  -11.6902   20.8727 C   0  0  0  0  0  0
  -23.9070  -10.4284   21.0397 C   0  0  0  0  0  0
  -24.3626   -9.4199   21.9178 C   0  0  0  0  0  0
  -23.6301   -8.2235   22.0743 C   0  0  0  0  0  0
  -22.4273   -8.0274   21.3543 C   0  0  0  0  0  0
  -21.9915   -9.0247   20.4647 C   0  0  0  0  0  0
  -22.7243  -10.2127   20.3054 C   0  0  0  0  0  0
  -21.6850   -6.0739   22.5284 C   0  0  0  0  0  0
  -21.4008   -6.5644   23.8219 C   0  0  0  0  0  0
  -21.3661   -5.6794   24.9181 C   0  0  0  0  0  0
  -21.6043   -4.3052   24.7229 C   0  0  0  0  0  0
  -21.8822   -3.8150   23.4348 C   0  0  0  0  0  0
  -21.9194   -4.6970   22.3404 C   0  0  0  0  0  0
  -22.7870  -13.5222   21.1852 C   0  0  0  0  0  0
  -22.1659   -4.2157   21.0979 F   0  0  0  0  0  0
  -21.5640   -3.4534   25.7745 F   0  0  0  0  0  0
  -30.0324  -13.2976   20.4389 N   0  0  0  0  0  0
  -26.3040  -12.9336   20.3370 N   0  0  0  0  0  0
  -25.9327  -11.6493   20.5758 N   0  0  0  0  0  0
  -22.0513  -12.8215   22.0411 N   0  0  0  0  0  0
  -25.4322  -15.1882   20.4108 N   0  0  0  0  0  0
  -31.8217  -14.6658   20.1058 O   0  0  0  0  0  0
  -21.6635   -6.8872   21.4239 O   0  0  0  0  0  0
  -22.3553  -14.5524   20.6690 O   0  0  0  0  0  0
  -24.6150  -31.8670   23.2073 C   0  0  0  0  0  0
  -25.9043  -32.4820   23.8382 C   0  0  1  0  0  0
  -27.2368  -27.4204   20.1189 C   0  0  0  0  0  0
  -25.5903  -33.8621   24.2315 N   0  0  0  0  0  0
  -23.4046  -30.4871   21.5465 C   0  0  2  0  0  0
  -24.8530  -28.9433   20.1202 C   0  0  0  0  0  0
  -22.7406  -29.4651   22.4975 C   0  0  0  0  0  0
  -18.0276  -28.1371   22.8493 C   0  0  0  0  0  0
  -24.1493  -36.7317   23.2629 C   0  0  0  0  0  0
  -25.9314  -30.8304   21.3596 C   0  0  0  0  0  0
  -26.0108  -29.4600   20.7157 C   0  0  0  0  0  0
  -27.2072  -28.7067   20.7068 C   0  0  0  0  0  0
  -26.0663  -26.9178   19.5163 C   0  0  0  0  0  0
  -24.8763  -27.6723   19.5161 C   0  0  0  0  0  0
  -23.6150  -29.8111   20.1643 C   0  0  0  0  0  0
  -25.4115  -36.3117   24.0323 C   0  0  1  0  0  0
  -20.5861  -28.3657   23.1315 C   0  0  2  0  0  0
  -20.6765  -26.9393   22.5427 C   0  0  0  0  0  0
  -19.5757  -26.6391   21.5209 C   0  0  0  0  0  0
  -18.1933  -26.7925   22.1615 C   0  0  0  0  0  0
  -19.1521  -28.8835   23.2897 C   0  0  0  0  0  0
  -18.9453  -30.1444   23.8894 C   0  0  0  0  0  0
  -17.6451  -30.6578   24.0562 C   0  0  0  0  0  0
  -25.9041  -34.9480   23.5115 C   0  0  0  0  0  0
  -16.5345  -29.9074   23.6327 C   0  0  0  0  0  0
  -16.7262  -28.6493   23.0355 C   0  0  0  0  0  0
  -26.4465  -31.6601   25.0718 C   0  0  0  0  0  0
  -25.3727  -31.3720   26.1467 C   0  0  0  0  0  0
  -27.0292  -30.3042   24.6097 C   0  0  0  0  0  0
  -27.6047  -32.4329   25.7476 C   0  0  0  0  0  0
  -27.5585  -37.1810   24.8458 C   0  0  0  0  0  0
  -21.4132  -29.3034   22.3712 N   0  0  0  0  0  0
  -26.4296  -37.3811   23.9405 N   0  0  0  0  0  0
  -24.6681  -31.0775   22.0959 N   0  0  0  0  0  0
  -23.4177  -28.8193   23.3018 O   0  0  0  0  0  0
  -28.4153  -26.7062   20.0623 O   0  0  0  0  0  0
  -26.5610  -34.8928   22.4676 O   0  0  0  0  0  0
  -23.5340  -32.1413   23.7467 O   0  0  0  0  0  0
  -28.6684  -19.2402   19.8931 C   0  0  0  0  0  0
  -29.7563  -19.0250   22.3490 C   0  0  0  0  0  0
  -28.5905  -20.3119   20.8229 C   0  0  0  0  0  0
  -29.8439  -17.9575   21.4179 C   0  0  0  0  0  0
  -28.3150  -25.8509   22.3734 C   0  0  0  0  0  0
  -27.8283  -21.6079   20.5038 C   0  0  0  0  0  0
  -30.6541  -16.6983   21.7508 C   0  0  0  0  0  0
  -28.5773  -22.9240   20.8516 C   0  0  0  0  0  0
  -27.8803  -24.2408   20.3902 C   0  0  0  0  0  0
  -28.5882  -25.5354   20.8899 C   0  0  1  0  0  0
  -29.1172  -20.1891   22.0673 N   0  0  0  0  0  0
  -29.2886  -18.0628   20.1831 N   0  0  0  0  0  0
  -30.0796  -15.4125   21.3194 N   0  0  0  0  0  0
  -31.4677  -12.4294   19.1035 H   0  0  0  0  0  0
  -30.3384  -11.3054   19.8041 H   0  0  0  0  0  0
  -29.7323  -11.7869   17.4208 H   0  0  0  0  0  0
  -29.6565  -13.4973   17.7594 H   0  0  0  0  0  0
  -27.8240  -11.3132   18.8098 H   0  0  0  0  0  0
  -27.3628  -12.6481   17.7873 H   0  0  0  0  0  0
  -27.7085  -14.2578   19.5845 H   0  0  0  0  0  0
  -28.6897  -11.9401   21.3171 H   0  0  0  0  0  0
  -28.4604  -13.5651   21.8804 H   0  0  0  0  0  0
  -25.2772   -9.5681   22.4754 H   0  0  0  0  0  0
  -24.0025   -7.4620   22.7449 H   0  0  0  0  0  0
  -21.0854   -8.8760   19.8950 H   0  0  0  0  0  0
  -22.3691  -10.9670   19.6169 H   0  0  0  0  0  0
  -21.1975   -7.6147   23.9723 H   0  0  0  0  0  0
  -21.1491   -6.0520   25.9087 H   0  0  0  0  0  0
  -22.0599   -2.7613   23.2844 H   0  0  0  0  0  0
  -22.4142  -11.9891   22.4825 H   0  0  0  0  0  0
  -21.1126  -13.1236   22.2596 H   0  0  0  0  0  0
  -24.6685  -15.8452   20.5255 H   0  0  0  0  0  0
  -26.2901  -15.6302   20.1059 H   0  0  0  0  0  0
  -26.7115  -32.5541   23.1149 H   0  0  0  0  0  0
  -25.0077  -33.9783   25.0477 H   0  0  0  0  0  0
  -22.6943  -31.3027   21.4013 H   0  0  0  0  0  0
  -23.3757  -35.9654   23.3305 H   0  0  0  0  0  0
  -24.3563  -36.8929   22.2041 H   0  0  0  0  0  0
  -23.7243  -37.6514   23.6643 H   0  0  0  0  0  0
  -26.0418  -31.5909   20.5849 H   0  0  0  0  0  0
  -26.8199  -30.8890   21.9763 H   0  0  0  0  0  0
  -28.1069  -29.1059   21.1551 H   0  0  0  0  0  0
  -26.0781  -25.9506   19.0369 H   0  0  0  0  0  0
  -23.9880  -27.2699   19.0493 H   0  0  0  0  0  0
  -23.7232  -30.5803   19.3989 H   0  0  0  0  0  0
  -22.7415  -29.2267   19.8707 H   0  0  0  0  0  0
  -25.1298  -36.1976   25.0820 H   0  0  0  0  0  0
  -20.9966  -28.3252   24.1430 H   0  0  0  0  0  0
  -20.5662  -26.2271   23.3617 H   0  0  0  0  0  0
  -21.6641  -26.7435   22.1226 H   0  0  0  0  0  0
  -19.6922  -25.6311   21.1232 H   0  0  0  0  0  0
  -19.6701  -27.3211   20.6749 H   0  0  0  0  0  0
  -17.4215  -26.6677   21.4007 H   0  0  0  0  0  0
  -18.0331  -26.0055   22.8999 H   0  0  0  0  0  0
  -19.7927  -30.7268   24.2258 H   0  0  0  0  0  0
  -17.5005  -31.6262   24.5158 H   0  0  0  0  0  0
  -15.5341  -30.2976   23.7644 H   0  0  0  0  0  0
  -15.8671  -28.0803   22.7073 H   0  0  0  0  0  0
  -24.5897  -30.7075   25.7791 H   0  0  0  0  0  0
  -24.8917  -32.2885   26.4909 H   0  0  0  0  0  0
  -25.8067  -30.8886   27.0231 H   0  0  0  0  0  0
  -26.2833  -29.6822   24.1138 H   0  0  0  0  0  0
  -27.4034  -29.7272   25.4559 H   0  0  0  0  0  0
  -27.8691  -30.4348   23.9268 H   0  0  0  0  0  0
  -27.2665  -33.3620   26.2081 H   0  0  0  0  0  0
  -28.3839  -32.6910   25.0291 H   0  0  0  0  0  0
  -28.0748  -31.8453   26.5369 H   0  0  0  0  0  0
  -28.2608  -38.0107   24.7534 H   0  0  0  0  0  0
  -28.1077  -36.2638   24.6265 H   0  0  0  0  0  0
  -27.2295  -37.1447   25.8859 H   0  0  0  0  0  0
  -20.9280  -29.8759   21.6942 H   0  0  0  0  0  0
  -26.0185  -38.2887   24.1425 H   0  0  0  0  0  0
  -28.2198  -19.3219   18.9123 H   0  0  0  0  0  0
  -30.2192  -18.9501   23.3220 H   0  0  0  0  0  0
  -28.5746  -25.0087   23.0151 H   0  0  0  0  0  0
  -27.2649  -26.0841   22.5510 H   0  0  0  0  0  0
  -28.9108  -26.7017   22.7056 H   0  0  0  0  0  0
  -26.8698  -21.5776   21.0220 H   0  0  0  0  0  0
  -27.5916  -21.6050   19.4392 H   0  0  0  0  0  0
  -30.7852  -16.6424   22.8317 H   0  0  0  0  0  0
  -31.6573  -16.8403   21.3465 H   0  0  0  0  0  0
  -29.5758  -22.8849   20.4139 H   0  0  0  0  0  0
  -28.7256  -22.9553   21.9303 H   0  0  0  0  0  0
  -26.8384  -24.2473   20.7132 H   0  0  0  0  0  0
  -27.8595  -24.2501   19.3003 H   0  0  0  0  0  0
  -29.6583  -25.3373   20.8153 H   0  0  0  0  0  0
  -29.1521  -15.1947   21.6502 H   0  0  0  0  0  0
  1 25  1  0  0  0
  1 30  2  0  0  0
  1 83  1  0  0  0
  2  3  1  0  0  0
  2 25  1  0  0  0
  2 84  1  0  0  0
  2 85  1  0  0  0
  3  4  1  0  0  0
  3 86  1  0  0  0
  3 87  1  0  0  0
  4  5  1  0  0  0
  4 88  1  0  0  0
  4 89  1  0  0  0
  5  6  1  0  0  0
  5 26  1  0  0  0
  5 90  1  0  0  0
  6 25  1  0  0  0
  6 91  1  0  0  0
  6 92  1  0  0  0
  7  8  2  0  0  0
  7 26  1  0  0  0
  7 29  1  0  0  0
  8  9  1  0  0  0
  8 22  1  0  0  0
  9 10  1  0  0  0
  9 27  2  0  0  0
 10 11  2  0  0  0
 10 15  1  0  0  0
 11 12  1  0  0  0
 11 93  1  0  0  0
 12 13  2  0  0  0
 12 94  1  0  0  0
 13 14  1  0  0  0
 13 31  1  0  0  0
 14 15  2  0  0  0
 14 95  1  0  0  0
 15 96  1  0  0  0
 16 17  2  0  0  0
 16 21  1  0  0  0
 16 31  1  0  0  0
 17 18  1  0  0  0
 17 97  1  0  0  0
 18 19  2  0  0  0
 18 98  1  0  0  0
 19 20  1  0  0  0
 19 24  1  0  0  0
 20 21  2  0  0  0
 20 99  1  0  0  0
 21 23  1  0  0  0
 22 28  1  0  0  0
 22 32  2  0  0  0
 26 27  1  0  0  0
 28100  1  0  0  0
 28101  1  0  0  0
 29102  1  0  0  0
 29103  1  0  0  0
 33 34  1  0  0  0
 33 66  1  0  0  0
 33 70  2  0  0  0
 34 36  1  0  0  0
 34 59  1  0  0  0
 34104  1  0  0  0
 35 44  2  0  0  0
 35 45  1  0  0  0
 35 68  1  0  0  0
 36 56  1  0  0  0
 36105  1  0  0  0
 37 39  1  0  0  0
 37 47  1  0  0  0
 37 66  1  0  0  0
 37106  1  0  0  0
 38 43  2  0  0  0
 38 46  1  0  0  0
 38 47  1  0  0  0
 39 64  1  0  0  0
 39 67  2  0  0  0
 40 52  1  0  0  0
 40 53  2  0  0  0
 40 58  1  0  0  0
 41107  1  0  0  0
 41108  1  0  0  0
 41109  1  0  0  0
 41 48  1  0  0  0
 42 43  1  0  0  0
 42 66  1  0  0  0
 42110  1  0  0  0
 42111  1  0  0  0
 43 44  1  0  0  0
 44112  1  0  0  0
 45 46  2  0  0  0
 45113  1  0  0  0
 46114  1  0  0  0
 47115  1  0  0  0
 47116  1  0  0  0
 48 56  1  0  0  0
 48 65  1  0  0  0
 48117  1  0  0  0
 49 50  1  0  0  0
 49 53  1  0  0  0
 49 64  1  0  0  0
 49118  1  0  0  0
 50 51  1  0  0  0
 50119  1  0  0  0
 50120  1  0  0  0
 51 52  1  0  0  0
 51121  1  0  0  0
 51122  1  0  0  0
 52123  1  0  0  0
 52124  1  0  0  0
 53 54  1  0  0  0
 54 55  2  0  0  0
 54125  1  0  0  0
 55 57  1  0  0  0
 55126  1  0  0  0
 56 69  2  0  0  0
 57 58  2  0  0  0
 57127  1  0  0  0
 58128  1  0  0  0
 59 60  1  0  0  0
 59 61  1  0  0  0
 59 62  1  0  0  0
 60129  1  0  0  0
 60130  1  0  0  0
 60131  1  0  0  0
 61132  1  0  0  0
 61133  1  0  0  0
 61134  1  0  0  0
 62135  1  0  0  0
 62136  1  0  0  0
 62137  1  0  0  0
 63 65  1  0  0  0
 63138  1  0  0  0
 63139  1  0  0  0
 63140  1  0  0  0
 64141  1  0  0  0
 65142  1  0  0  0
 68 80  1  0  0  0
 71 73  2  0  0  0
 71 82  1  0  0  0
 71143  1  0  0  0
 72 74  1  0  0  0
 72 81  2  0  0  0
 72144  1  0  0  0
 73 76  1  0  0  0
 73 81  1  0  0  0
 74 77  1  0  0  0
 74 82  2  0  0  0
 75145  1  0  0  0
 75146  1  0  0  0
 75147  1  0  0  0
 75 80  1  0  0  0
 76 78  1  0  0  0
 76148  1  0  0  0
 76149  1  0  0  0
 77 83  1  0  0  0
 77150  1  0  0  0
 77151  1  0  0  0
 78 79  1  0  0  0
 78152  1  0  0  0
 78153  1  0  0  0
 79 80  1  0  0  0
 79154  1  0  0  0
 79155  1  0  0  0
 80156  1  0  0  0
 83157  1  0  0  0
M  ISO  4   1 100  68 101  80 101  83 100
M  END
> <chiral flag>
0

> <version>
0

> <s_m_source_file>
/data/baiqing/PycharmProjects/Reinvent-master-3.2/result/LINK_invent/BTK/process_docking_weight1_custom_sum_contain_oxygen_bond_distance_aromatic_linkinvent_7_9_3/rearranged_h_0090.sdf

> <i_m_source_file_index>
45

> <r_mmod_Potential_Energy-OPLS-2005>
-70.5728759765625

> <r_mmod_Stretch_Energy-OPLS-2005>
41.7252769470215

> <r_mmod_Bend_Energy-OPLS-2005>
102.998481750488

> <r_mmod_Torsional_Energy-OPLS-2005>
209.757858276367

> <r_mmod_Improper_Torsional_Energy-OPLS-2005>
2.46408581733704

> <r_mmod_Van_der_Waal_Energy-OPLS-2005>
149.435073852539

> <r_mmod_Electrostatic_Energy-OPLS-2005>
-369.296020507812

> <r_mmod_Solvation_Energy-OPLS-2005>
-219.01481628418

> <b_mmod_Minimization_Converged-OPLS-2005>
0

> <r_mmod_RMS_Derivative-OPLS-2005>
1.90560328960419

$$$$
46
                    3D
 Structure written by MMmdl.
175183  0  0  1  0            999 V2000
  -30.5421  -14.7902   20.4664 C   0  0  0  0  0  0
  -30.4559  -12.4892   19.4549 C   0  0  0  0  0  0
  -29.5148  -12.5085   18.2274 C   0  0  0  0  0  0
  -28.0434  -12.3149   18.6498 C   0  0  0  0  0  0
  -27.6431  -13.2180   19.8452 C   0  0  2  0  0  0
  -28.6920  -13.1405   20.9747 C   0  0  0  0  0  0
  -25.2542  -13.8156   20.5677 C   0  0  0  0  0  0
  -24.1821  -13.0423   20.9211 C   0  0  0  0  0  0
  -24.6393  -11.6895   20.8748 C   0  0  0  0  0  0
  -23.9066  -10.4280   21.0412 C   0  0  0  0  0  0
  -24.3611   -9.4198   21.9193 C   0  0  0  0  0  0
  -23.6283   -8.2237   22.0760 C   0  0  0  0  0  0
  -22.4273   -8.0274   21.3544 C   0  0  0  0  0  0
  -21.9907   -9.0249   20.4650 C   0  0  0  0  0  0
  -22.7235  -10.2130   20.3059 C   0  0  0  0  0  0
  -21.6851   -6.0733   22.5279 C   0  0  0  0  0  0
  -21.4012   -6.5639   23.8212 C   0  0  0  0  0  0
  -21.3658   -5.6794   24.9171 C   0  0  0  0  0  0
  -21.6045   -4.3052   24.7225 C   0  0  0  0  0  0
  -21.8819   -3.8143   23.4347 C   0  0  0  0  0  0
  -21.9193   -4.6961   22.3402 C   0  0  0  0  0  0
  -22.7850  -13.5225   21.1873 C   0  0  0  0  0  0
  -22.1663   -4.2145   21.0978 F   0  0  0  0  0  0
  -21.5630   -3.4537   25.7739 F   0  0  0  0  0  0
  -29.9837  -13.5321   20.3907 N   0  0  0  0  0  0
  -26.2947  -12.9331   20.3242 N   0  0  0  0  0  0
  -25.9318  -11.6492   20.5736 N   0  0  0  0  0  0
  -22.0488  -12.8210   22.0418 N   0  0  0  0  0  0
  -25.4231  -15.1877   20.4091 N   0  0  0  0  0  0
  -31.7418  -14.9576   20.2294 O   0  0  0  0  0  0
  -21.6637   -6.8872   21.4238 O   0  0  0  0  0  0
  -22.3546  -14.5532   20.6720 O   0  0  0  0  0  0
  -24.6319  -31.8533   23.1949 C   0  0  0  0  0  0
  -25.9139  -32.4742   23.8309 C   0  0  1  0  0  0
  -27.2314  -27.2372   20.1499 C   0  0  0  0  0  0
  -25.5916  -33.8545   24.2230 N   0  0  0  0  0  0
  -23.4310  -30.4705   21.5400 C   0  0  2  0  0  0
  -24.8800  -28.9003   20.1231 C   0  0  0  0  0  0
  -22.7510  -29.4584   22.4931 C   0  0  0  0  0  0
  -18.0294  -28.1386   22.8491 C   0  0  0  0  0  0
  -24.1492  -36.7284   23.2645 C   0  0  0  0  0  0
  -25.9758  -30.7566   21.3784 C   0  0  0  0  0  0
  -26.0497  -29.3717   20.7323 C   0  0  0  0  0  0
  -27.2267  -28.5546   20.7281 C   0  0  0  0  0  0
  -26.0427  -26.8353   19.5082 C   0  0  0  0  0  0
  -24.8818  -27.6399   19.5006 C   0  0  0  0  0  0
  -23.6524  -29.7934   20.1607 C   0  0  0  0  0  0
  -25.4124  -36.3065   24.0319 C   0  0  1  0  0  0
  -20.5901  -28.3703   23.1267 C   0  0  2  0  0  0
  -20.6790  -26.9419   22.5409 C   0  0  0  0  0  0
  -19.5766  -26.6385   21.5215 C   0  0  0  0  0  0
  -18.1940  -26.7927   22.1622 C   0  0  0  0  0  0
  -19.1547  -28.8859   23.2874 C   0  0  0  0  0  0
  -18.9467  -30.1459   23.8899 C   0  0  0  0  0  0
  -17.6464  -30.6589   24.0562 C   0  0  0  0  0  0
  -25.9061  -34.9436   23.5082 C   0  0  0  0  0  0
  -16.5358  -29.9081   23.6329 C   0  0  0  0  0  0
  -16.7280  -28.6500   23.0356 C   0  0  0  0  0  0
  -26.4499  -31.6574   25.0712 C   0  0  0  0  0  0
  -25.3704  -31.3719   26.1416 C   0  0  0  0  0  0
  -27.0363  -30.2997   24.6207 C   0  0  0  0  0  0
  -27.6056  -32.4327   25.7475 C   0  0  0  0  0  0
  -27.5583  -37.1792   24.8463 C   0  0  0  0  0  0
  -21.4218  -29.3041   22.3658 N   0  0  0  0  0  0
  -26.4300  -37.3758   23.9401 N   0  0  0  0  0  0
  -24.6985  -31.0473   22.0934 N   0  0  0  0  0  0
  -23.4196  -28.8146   23.3058 O   0  0  0  0  0  0
  -28.3809  -26.4160   20.0774 O   0  0  0  0  0  0
  -26.5649  -34.8917   22.4661 O   0  0  0  0  0  0
  -23.5461  -32.1370   23.7217 O   0  0  0  0  0  0
  -29.2317  -21.2451   20.5113 C   0  0  0  0  0  0
  -28.3588  -22.1595   19.7579 C   0  0  0  0  0  0
  -29.3062  -19.9495   19.9528 C   0  0  0  0  0  0
  -27.9267  -21.3391   18.7333 C   0  0  0  0  0  0
  -26.9866  -21.6440   17.5966 C   0  0  0  0  0  0
  -26.4124  -23.5353   20.6132 C   0  0  0  0  0  0
  -31.5144  -18.9300   20.7788 C   0  0  0  0  0  0
  -29.5712  -16.4049   16.5568 C   0  0  0  0  0  0
  -29.8936  -17.8875   14.5415 C   0  0  0  0  0  0
  -29.2156  -18.9329   16.7459 C   0  0  0  0  0  0
  -28.2054  -18.9511   17.9118 C   0  0  0  0  0  0
  -29.5404  -17.3260   20.9989 C   0  0  0  0  0  0
  -28.5313  -24.9725   20.5342 C   0  0  0  0  0  0
  -27.7791  -23.6753   19.9202 C   0  0  1  0  0  0
  -30.1418  -18.5917   20.1839 C   0  0  1  0  0  0
  -29.1038  -17.6872   15.8438 C   0  0  0  0  0  0
  -28.4655  -20.0477   18.8471 N   0  0  0  0  0  0
  -29.6347  -15.8322   20.6148 N   0  0  0  0  0  0
  -31.4870  -12.6646   19.1419 H   0  0  0  0  0  0
  -30.4465  -11.5107   19.9372 H   0  0  0  0  0  0
  -29.8037  -11.7300   17.5198 H   0  0  0  0  0  0
  -29.6216  -13.4568   17.6982 H   0  0  0  0  0  0
  -27.9176  -11.2676   18.9274 H   0  0  0  0  0  0
  -27.3782  -12.4864   17.8030 H   0  0  0  0  0  0
  -27.6352  -14.2373   19.4591 H   0  0  0  0  0  0
  -28.7463  -12.1322   21.3869 H   0  0  0  0  0  0
  -28.4185  -13.7912   21.8071 H   0  0  0  0  0  0
  -25.2753   -9.5678   22.4771 H   0  0  0  0  0  0
  -23.9993   -7.4631   22.7479 H   0  0  0  0  0  0
  -21.0840   -8.8767   19.8951 H   0  0  0  0  0  0
  -22.3692  -10.9671   19.6170 H   0  0  0  0  0  0
  -21.2002   -7.6145   23.9710 H   0  0  0  0  0  0
  -21.1483   -6.0525   25.9078 H   0  0  0  0  0  0
  -22.0599   -2.7609   23.2849 H   0  0  0  0  0  0
  -22.4101  -11.9863   22.4791 H   0  0  0  0  0  0
  -21.1111  -13.1243   22.2629 H   0  0  0  0  0  0
  -24.6493  -15.8337   20.5193 H   0  0  0  0  0  0
  -26.2535  -15.6305   20.0397 H   0  0  0  0  0  0
  -26.7209  -32.5392   23.1052 H   0  0  0  0  0  0
  -25.0018  -33.9670   25.0346 H   0  0  0  0  0  0
  -22.7279  -31.2917   21.3874 H   0  0  0  0  0  0
  -23.3751  -35.9615   23.3298 H   0  0  0  0  0  0
  -24.3571  -36.8927   22.2060 H   0  0  0  0  0  0
  -23.7249  -37.6481   23.6685 H   0  0  0  0  0  0
  -26.1133  -31.5112   20.6025 H   0  0  0  0  0  0
  -26.8526  -30.8141   22.0113 H   0  0  0  0  0  0
  -28.1314  -28.9242   21.1893 H   0  0  0  0  0  0
  -26.0116  -25.8867   18.9922 H   0  0  0  0  0  0
  -23.9910  -27.2775   19.0067 H   0  0  0  0  0  0
  -23.7817  -30.5637   19.3986 H   0  0  0  0  0  0
  -22.7696  -29.2270   19.8585 H   0  0  0  0  0  0
  -25.1306  -36.1905   25.0809 H   0  0  0  0  0  0
  -20.9987  -28.3287   24.1394 H   0  0  0  0  0  0
  -20.5698  -26.2311   23.3618 H   0  0  0  0  0  0
  -21.6653  -26.7451   22.1199 H   0  0  0  0  0  0
  -19.6918  -25.6292   21.1251 H   0  0  0  0  0  0
  -19.6693  -27.3192   20.6741 H   0  0  0  0  0  0
  -17.4215  -26.6684   21.4019 H   0  0  0  0  0  0
  -18.0325  -26.0062   22.9011 H   0  0  0  0  0  0
  -19.7946  -30.7272   24.2269 H   0  0  0  0  0  0
  -17.5024  -31.6263   24.5167 H   0  0  0  0  0  0
  -15.5359  -30.2983   23.7655 H   0  0  0  0  0  0
  -15.8680  -28.0813   22.7071 H   0  0  0  0  0  0
  -24.5889  -30.7067   25.7717 H   0  0  0  0  0  0
  -24.8876  -32.2887   26.4820 H   0  0  0  0  0  0
  -25.8004  -30.8898   27.0206 H   0  0  0  0  0  0
  -26.2953  -29.6712   24.1249 H   0  0  0  0  0  0
  -27.4076  -29.7292   25.4727 H   0  0  0  0  0  0
  -27.8814  -30.4280   23.9435 H   0  0  0  0  0  0
  -27.2681  -33.3657   26.1999 H   0  0  0  0  0  0
  -28.3881  -32.6833   25.0300 H   0  0  0  0  0  0
  -28.0705  -31.8484   26.5426 H   0  0  0  0  0  0
  -28.2590  -38.0099   24.7523 H   0  0  0  0  0  0
  -28.1093  -36.2629   24.6283 H   0  0  0  0  0  0
  -27.2293  -37.1429   25.8864 H   0  0  0  0  0  0
  -20.9414  -29.8748   21.6841 H   0  0  0  0  0  0
  -26.0175  -38.2831   24.1403 H   0  0  0  0  0  0
  -29.7747  -21.5245   21.4039 H   0  0  0  0  0  0
  -26.6041  -22.6615   17.6139 H   0  0  0  0  0  0
  -26.1118  -20.9940   17.6239 H   0  0  0  0  0  0
  -27.4803  -21.5095   16.6346 H   0  0  0  0  0  0
  -25.7326  -22.9179   20.0261 H   0  0  0  0  0  0
  -25.9251  -24.4930   20.7807 H   0  0  0  0  0  0
  -26.5228  -23.0618   21.5891 H   0  0  0  0  0  0
  -32.0557  -19.6278   20.1387 H   0  0  0  0  0  0
  -32.1292  -18.0355   20.8856 H   0  0  0  0  0  0
  -31.4175  -19.3892   21.7634 H   0  0  0  0  0  0
  -29.5154  -15.5443   15.8891 H   0  0  0  0  0  0
  -28.9575  -16.1686   17.4259 H   0  0  0  0  0  0
  -30.6045  -16.4896   16.8950 H   0  0  0  0  0  0
  -29.7892  -17.0267   13.8801 H   0  0  0  0  0  0
  -30.9574  -18.0265   14.7378 H   0  0  0  0  0  0
  -29.5403  -18.7628   13.9938 H   0  0  0  0  0  0
  -30.2357  -19.0195   17.1203 H   0  0  0  0  0  0
  -29.0578  -19.8289   16.1456 H   0  0  0  0  0  0
  -28.2166  -18.0130   18.4633 H   0  0  0  0  0  0
  -27.1901  -19.0213   17.5242 H   0  0  0  0  0  0
  -28.4633  -17.4972   21.0207 H   0  0  0  0  0  0
  -29.8279  -17.4124   22.0479 H   0  0  0  0  0  0
  -29.5919  -24.7833   20.3695 H   0  0  0  0  0  0
  -28.4285  -24.9547   21.6199 H   0  0  0  0  0  0
  -27.6029  -24.0046   18.8986 H   0  0  0  0  0  0
  -30.3776  -18.1864   19.2027 H   0  0  0  0  0  0
  -28.0545  -17.5605   15.5705 H   0  0  0  0  0  0
  -28.7115  -15.4275   20.6254 H   0  0  0  0  0  0
  1 25  1  0  0  0
  1 30  2  0  0  0
  1 88  1  0  0  0
  2  3  1  0  0  0
  2 25  1  0  0  0
  2 89  1  0  0  0
  2 90  1  0  0  0
  3  4  1  0  0  0
  3 91  1  0  0  0
  3 92  1  0  0  0
  4  5  1  0  0  0
  4 93  1  0  0  0
  4 94  1  0  0  0
  5  6  1  0  0  0
  5 26  1  0  0  0
  5 95  1  0  0  0
  6 25  1  0  0  0
  6 96  1  0  0  0
  6 97  1  0  0  0
  7  8  2  0  0  0
  7 26  1  0  0  0
  7 29  1  0  0  0
  8  9  1  0  0  0
  8 22  1  0  0  0
  9 10  1  0  0  0
  9 27  2  0  0  0
 10 11  2  0  0  0
 10 15  1  0  0  0
 11 12  1  0  0  0
 11 98  1  0  0  0
 12 13  2  0  0  0
 12 99  1  0  0  0
 13 14  1  0  0  0
 13 31  1  0  0  0
 14 15  2  0  0  0
 14100  1  0  0  0
 15101  1  0  0  0
 16 17  2  0  0  0
 16 21  1  0  0  0
 16 31  1  0  0  0
 17 18  1  0  0  0
 17102  1  0  0  0
 18 19  2  0  0  0
 18103  1  0  0  0
 19 20  1  0  0  0
 19 24  1  0  0  0
 20 21  2  0  0  0
 20104  1  0  0  0
 21 23  1  0  0  0
 22 28  1  0  0  0
 22 32  2  0  0  0
 26 27  1  0  0  0
 28105  1  0  0  0
 28106  1  0  0  0
 29107  1  0  0  0
 29108  1  0  0  0
 33 34  1  0  0  0
 33 66  1  0  0  0
 33 70  2  0  0  0
 34 36  1  0  0  0
 34 59  1  0  0  0
 34109  1  0  0  0
 35 44  2  0  0  0
 35 45  1  0  0  0
 35 68  1  0  0  0
 36 56  1  0  0  0
 36110  1  0  0  0
 37 39  1  0  0  0
 37 47  1  0  0  0
 37 66  1  0  0  0
 37111  1  0  0  0
 38 43  2  0  0  0
 38 46  1  0  0  0
 38 47  1  0  0  0
 39 64  1  0  0  0
 39 67  2  0  0  0
 40 52  1  0  0  0
 40 53  2  0  0  0
 40 58  1  0  0  0
 41112  1  0  0  0
 41113  1  0  0  0
 41114  1  0  0  0
 41 48  1  0  0  0
 42 43  1  0  0  0
 42 66  1  0  0  0
 42115  1  0  0  0
 42116  1  0  0  0
 43 44  1  0  0  0
 44117  1  0  0  0
 45 46  2  0  0  0
 45118  1  0  0  0
 46119  1  0  0  0
 47120  1  0  0  0
 47121  1  0  0  0
 48 56  1  0  0  0
 48 65  1  0  0  0
 48122  1  0  0  0
 49 50  1  0  0  0
 49 53  1  0  0  0
 49 64  1  0  0  0
 49123  1  0  0  0
 50 51  1  0  0  0
 50124  1  0  0  0
 50125  1  0  0  0
 51 52  1  0  0  0
 51126  1  0  0  0
 51127  1  0  0  0
 52128  1  0  0  0
 52129  1  0  0  0
 53 54  1  0  0  0
 54 55  2  0  0  0
 54130  1  0  0  0
 55 57  1  0  0  0
 55131  1  0  0  0
 56 69  2  0  0  0
 57 58  2  0  0  0
 57132  1  0  0  0
 58133  1  0  0  0
 59 60  1  0  0  0
 59 61  1  0  0  0
 59 62  1  0  0  0
 60134  1  0  0  0
 60135  1  0  0  0
 60136  1  0  0  0
 61137  1  0  0  0
 61138  1  0  0  0
 61139  1  0  0  0
 62140  1  0  0  0
 62141  1  0  0  0
 62142  1  0  0  0
 63 65  1  0  0  0
 63143  1  0  0  0
 63144  1  0  0  0
 63145  1  0  0  0
 64146  1  0  0  0
 65147  1  0  0  0
 68 83  1  0  0  0
 71 72  1  0  0  0
 71 73  2  0  0  0
 71148  1  0  0  0
 72 74  2  0  0  0
 72 84  1  0  0  0
 73 85  1  0  0  0
 73 87  1  0  0  0
 74 75  1  0  0  0
 74 87  1  0  0  0
 75149  1  0  0  0
 75150  1  0  0  0
 75151  1  0  0  0
 76152  1  0  0  0
 76153  1  0  0  0
 76154  1  0  0  0
 76 84  1  0  0  0
 77155  1  0  0  0
 77156  1  0  0  0
 77157  1  0  0  0
 77 85  1  0  0  0
 78158  1  0  0  0
 78159  1  0  0  0
 78160  1  0  0  0
 78 86  1  0  0  0
 79 86  1  0  0  0
 79161  1  0  0  0
 79162  1  0  0  0
 79163  1  0  0  0
 80 81  1  0  0  0
 80 86  1  0  0  0
 80164  1  0  0  0
 80165  1  0  0  0
 81 87  1  0  0  0
 81166  1  0  0  0
 81167  1  0  0  0
 82 85  1  0  0  0
 82 88  1  0  0  0
 82168  1  0  0  0
 82169  1  0  0  0
 83 84  1  0  0  0
 83170  1  0  0  0
 83171  1  0  0  0
 84172  1  0  0  0
 85173  1  0  0  0
 86174  1  0  0  0
 88175  1  0  0  0
M  ISO  4   1 100  68 101  83 101  88 100
M  END
> <chiral flag>
0

> <version>
0

> <s_m_source_file>
/data/baiqing/PycharmProjects/Reinvent-master-3.2/result/LINK_invent/BTK/process_docking_weight1_custom_sum_contain_oxygen_bond_distance_aromatic_linkinvent_7_9_3/rearranged_h_0090.sdf

> <i_m_source_file_index>
46

> <r_mmod_Potential_Energy-OPLS-2005>
286.440460205078

> <r_mmod_Stretch_Energy-OPLS-2005>
149.166152954102

> <r_mmod_Bend_Energy-OPLS-2005>
282.134613037109

> <r_mmod_Torsional_Energy-OPLS-2005>
270.252655029297

> <r_mmod_Improper_Torsional_Energy-OPLS-2005>
6.18525648117065

> <r_mmod_Van_der_Waal_Energy-OPLS-2005>
101.288345336914

> <r_mmod_Electrostatic_Energy-OPLS-2005>
-417.433624267578

> <r_mmod_Solvation_Energy-OPLS-2005>
-203.191162109375

> <b_mmod_Minimization_Converged-OPLS-2005>
0

> <r_mmod_RMS_Derivative-OPLS-2005>
1.35359978675842

$$$$
47
                    3D
 Structure written by MMmdl.
172180  0  0  1  0            999 V2000
  -30.6696  -14.5356   20.5520 C   0  0  0  0  0  0
  -30.4135  -12.3339   19.4417 C   0  0  0  0  0  0
  -29.4963  -12.5218   18.2150 C   0  0  0  0  0  0
  -28.0157  -12.3823   18.6203 C   0  0  0  0  0  0
  -27.6549  -13.2184   19.8755 C   0  0  2  0  0  0
  -28.6967  -13.0197   20.9989 C   0  0  0  0  0  0
  -25.2546  -13.8190   20.5631 C   0  0  0  0  0  0
  -24.1813  -13.0439   20.9164 C   0  0  0  0  0  0
  -24.6386  -11.6921   20.8718 C   0  0  0  0  0  0
  -23.9063  -10.4290   21.0390 C   0  0  0  0  0  0
  -24.3624   -9.4217   21.9177 C   0  0  0  0  0  0
  -23.6305   -8.2246   22.0750 C   0  0  0  0  0  0
  -22.4289   -8.0275   21.3531 C   0  0  0  0  0  0
  -21.9919   -9.0239   20.4624 C   0  0  0  0  0  0
  -22.7243  -10.2123   20.3040 C   0  0  0  0  0  0
  -21.6851   -6.0728   22.5260 C   0  0  0  0  0  0
  -21.4020   -6.5631   23.8190 C   0  0  0  0  0  0
  -21.3680   -5.6785   24.9147 C   0  0  0  0  0  0
  -21.6049   -4.3043   24.7210 C   0  0  0  0  0  0
  -21.8827   -3.8137   23.4332 C   0  0  0  0  0  0
  -21.9201   -4.6954   22.3385 C   0  0  0  0  0  0
  -22.7847  -13.5213   21.1840 C   0  0  0  0  0  0
  -22.1676   -4.2140   21.0964 F   0  0  0  0  0  0
  -21.5644   -3.4531   25.7724 F   0  0  0  0  0  0
  -30.0160  -13.3420   20.4411 N   0  0  0  0  0  0
  -26.2982  -12.9376   20.3360 N   0  0  0  0  0  0
  -25.9317  -11.6531   20.5780 N   0  0  0  0  0  0
  -22.0526  -12.8161   22.0399 N   0  0  0  0  0  0
  -25.4253  -15.1900   20.3970 N   0  0  0  0  0  0
  -31.8219  -14.6705   20.1268 O   0  0  0  0  0  0
  -21.6660   -6.8870   21.4221 O   0  0  0  0  0  0
  -22.3507  -14.5510   20.6705 O   0  0  0  0  0  0
  -24.6224  -31.8626   23.2041 C   0  0  0  0  0  0
  -25.9098  -32.4778   23.8344 C   0  0  1  0  0  0
  -27.2180  -27.3778   20.1066 C   0  0  0  0  0  0
  -25.5912  -33.8578   24.2261 N   0  0  0  0  0  0
  -23.4114  -30.4904   21.5456 C   0  0  2  0  0  0
  -24.8535  -28.9524   20.1078 C   0  0  0  0  0  0
  -22.7434  -29.4651   22.4920 C   0  0  0  0  0  0
  -18.0279  -28.1376   22.8490 C   0  0  0  0  0  0
  -24.1498  -36.7327   23.2626 C   0  0  0  0  0  0
  -25.9467  -30.8066   21.3696 C   0  0  0  0  0  0
  -26.0159  -29.4383   20.7201 C   0  0  0  0  0  0
  -27.2002  -28.6560   20.7223 C   0  0  0  0  0  0
  -26.0436  -26.9383   19.4524 C   0  0  0  0  0  0
  -24.8637  -27.7021   19.4684 C   0  0  0  0  0  0
  -23.6204  -29.8277   20.1587 C   0  0  0  0  0  0
  -25.4112  -36.3071   24.0308 C   0  0  1  0  0  0
  -20.5879  -28.3674   23.1274 C   0  0  2  0  0  0
  -20.6760  -26.9400   22.5393 C   0  0  0  0  0  0
  -19.5731  -26.6381   21.5194 C   0  0  0  0  0  0
  -18.1922  -26.7919   22.1629 C   0  0  0  0  0  0
  -19.1533  -28.8844   23.2883 C   0  0  0  0  0  0
  -18.9454  -30.1458   23.8883 C   0  0  0  0  0  0
  -17.6456  -30.6578   24.0580 C   0  0  0  0  0  0
  -25.9038  -34.9443   23.5071 C   0  0  0  0  0  0
  -16.5345  -29.9078   23.6346 C   0  0  0  0  0  0
  -16.7267  -28.6508   23.0336 C   0  0  0  0  0  0
  -26.4488  -31.6582   25.0714 C   0  0  0  0  0  0
  -25.3719  -31.3725   26.1438 C   0  0  0  0  0  0
  -27.0343  -30.2999   24.6177 C   0  0  0  0  0  0
  -27.6028  -32.4324   25.7511 C   0  0  0  0  0  0
  -27.5567  -37.1806   24.8449 C   0  0  0  0  0  0
  -21.4154  -29.3034   22.3664 N   0  0  0  0  0  0
  -26.4277  -37.3774   23.9391 N   0  0  0  0  0  0
  -24.6784  -31.0704   22.0958 N   0  0  0  0  0  0
  -23.4174  -28.8167   23.2969 O   0  0  0  0  0  0
  -28.3608  -26.5876   20.1372 O   0  0  0  0  0  0
  -26.5633  -34.8917   22.4656 O   0  0  0  0  0  0
  -23.5407  -32.1401   23.7409 O   0  0  0  0  0  0
  -29.5092  -18.0203   20.6107 C   0  0  0  0  0  0
  -29.9311  -19.3948   20.5893 C   0  0  0  0  0  0
  -31.2733  -19.6073   21.0568 C   0  0  0  0  0  0
  -31.9631  -18.5265   21.6785 C   0  0  0  0  0  0
  -30.3350  -16.9653   21.0859 C   0  0  0  0  0  0
  -31.9185  -21.8673   22.0282 C   0  0  0  0  0  0
  -33.2082  -18.5231   23.9161 C   0  0  0  0  0  0
  -27.5005  -20.2003   20.4300 C   0  0  0  0  0  0
  -28.9672  -20.1749   18.4180 C   0  0  0  0  0  0
  -32.0390  -20.9066   20.8395 C   0  0  0  0  0  0
  -33.3200  -18.6386   22.3859 C   0  0  0  0  0  0
  -28.4865  -22.9045   21.2063 C   0  0  0  0  0  0
  -29.1386  -22.0536   20.0642 C   0  0  0  0  0  0
  -28.7860  -24.4497   21.1444 C   0  0  0  0  0  0
  -28.9421  -20.4629   19.9377 C   0  0  0  0  0  0
  -31.4991  -17.2644   21.6813 N   0  0  0  0  0  0
  -29.9146  -15.5963   20.9531 N   0  0  0  0  0  0
  -28.0519  -25.1423   20.0771 N   0  0  0  0  0  0
  -31.4606  -12.4200   19.1529 H   0  0  0  0  0  0
  -30.3014  -11.3308   19.8571 H   0  0  0  0  0  0
  -29.7419  -11.7989   17.4356 H   0  0  0  0  0  0
  -29.6647  -13.5089   17.7803 H   0  0  0  0  0  0
  -27.8218  -11.3281   18.8181 H   0  0  0  0  0  0
  -27.3694  -12.6635   17.7891 H   0  0  0  0  0  0
  -27.6878  -14.2640   19.5712 H   0  0  0  0  0  0
  -28.6879  -11.9837   21.3432 H   0  0  0  0  0  0
  -28.4637  -13.6202   21.8776 H   0  0  0  0  0  0
  -25.2769   -9.5697   22.4754 H   0  0  0  0  0  0
  -24.0008   -7.4640   22.7476 H   0  0  0  0  0  0
  -21.0863   -8.8765   19.8919 H   0  0  0  0  0  0
  -22.3714  -10.9668   19.6149 H   0  0  0  0  0  0
  -21.2018   -7.6138   23.9675 H   0  0  0  0  0  0
  -21.1505   -6.0524   25.9047 H   0  0  0  0  0  0
  -22.0598   -2.7606   23.2826 H   0  0  0  0  0  0
  -22.4189  -11.9831   22.4765 H   0  0  0  0  0  0
  -21.1154  -13.1161   22.2641 H   0  0  0  0  0  0
  -24.6531  -15.8440   20.4670 H   0  0  0  0  0  0
  -26.2663  -15.6171   20.0312 H   0  0  0  0  0  0
  -26.7163  -32.5463   23.1098 H   0  0  0  0  0  0
  -25.0022  -33.9712   25.0371 H   0  0  0  0  0  0
  -22.7034  -31.3100   21.4070 H   0  0  0  0  0  0
  -23.3712  -35.9705   23.3296 H   0  0  0  0  0  0
  -24.3580  -36.8965   22.2036 H   0  0  0  0  0  0
  -23.7312  -37.6546   23.6677 H   0  0  0  0  0  0
  -26.0714  -31.5612   20.5924 H   0  0  0  0  0  0
  -26.8305  -30.8551   21.9939 H   0  0  0  0  0  0
  -28.0986  -29.0206   21.1993 H   0  0  0  0  0  0
  -26.0179  -25.9995   18.9189 H   0  0  0  0  0  0
  -23.9800  -27.3255   18.9693 H   0  0  0  0  0  0
  -23.7284  -30.6049   19.4003 H   0  0  0  0  0  0
  -22.7418  -29.2522   19.8638 H   0  0  0  0  0  0
  -25.1303  -36.1897   25.0800 H   0  0  0  0  0  0
  -21.0007  -28.3249   24.1379 H   0  0  0  0  0  0
  -20.5643  -26.2294   23.3594 H   0  0  0  0  0  0
  -21.6630  -26.7410   22.1194 H   0  0  0  0  0  0
  -19.6892  -25.6289   21.1229 H   0  0  0  0  0  0
  -19.6662  -27.3191   20.6720 H   0  0  0  0  0  0
  -17.4184  -26.6653   21.4049 H   0  0  0  0  0  0
  -18.0343  -26.0057   22.9028 H   0  0  0  0  0  0
  -19.7922  -30.7299   24.2215 H   0  0  0  0  0  0
  -17.4997  -31.6249   24.5188 H   0  0  0  0  0  0
  -15.5345  -30.2970   23.7671 H   0  0  0  0  0  0
  -15.8670  -28.0848   22.7003 H   0  0  0  0  0  0
  -24.5853  -30.7137   25.7752 H   0  0  0  0  0  0
  -24.8968  -32.2909   26.4897 H   0  0  0  0  0  0
  -25.8022  -30.8845   27.0191 H   0  0  0  0  0  0
  -26.2928  -29.6724   24.1220 H   0  0  0  0  0  0
  -27.4049  -29.7281   25.4697 H   0  0  0  0  0  0
  -27.8795  -30.4281   23.9408 H   0  0  0  0  0  0
  -27.2593  -33.3585   26.2144 H   0  0  0  0  0  0
  -28.3831  -32.6945   25.0352 H   0  0  0  0  0  0
  -28.0720  -31.8421   26.5398 H   0  0  0  0  0  0
  -28.2563  -38.0115   24.7488 H   0  0  0  0  0  0
  -28.1078  -36.2640   24.6287 H   0  0  0  0  0  0
  -27.2282  -37.1481   25.8848 H   0  0  0  0  0  0
  -20.9290  -29.8800   21.6940 H   0  0  0  0  0  0
  -26.0145  -38.2843   24.1380 H   0  0  0  0  0  0
  -28.5592  -17.7405   20.1843 H   0  0  0  0  0  0
  -32.4170  -22.8152   21.8298 H   0  0  0  0  0  0
  -32.3493  -21.4417   22.9342 H   0  0  0  0  0  0
  -30.8824  -22.0809   22.2550 H   0  0  0  0  0  0
  -32.7261  -17.5909   24.2107 H   0  0  0  0  0  0
  -32.6251  -19.3482   24.3228 H   0  0  0  0  0  0
  -34.1910  -18.5504   24.3890 H   0  0  0  0  0  0
  -27.1059  -19.2272   20.1477 H   0  0  0  0  0  0
  -26.8046  -20.9208   19.9990 H   0  0  0  0  0  0
  -27.4461  -20.2845   21.5167 H   0  0  0  0  0  0
  -28.7536  -19.1305   18.1897 H   0  0  0  0  0  0
  -29.9388  -20.4154   17.9864 H   0  0  0  0  0  0
  -28.2234  -20.7645   17.8807 H   0  0  0  0  0  0
  -31.7862  -21.3435   19.8797 H   0  0  0  0  0  0
  -33.0911  -20.6990   20.6578 H   0  0  0  0  0  0
  -33.9691  -17.8472   22.0074 H   0  0  0  0  0  0
  -33.8503  -19.5611   22.1753 H   0  0  0  0  0  0
  -28.8049  -22.5199   22.1745 H   0  0  0  0  0  0
  -27.4063  -22.7620   21.2131 H   0  0  0  0  0  0
  -30.1393  -22.4114   19.8772 H   0  0  0  0  0  0
  -28.6181  -22.4725   19.2027 H   0  0  0  0  0  0
  -29.8573  -24.6295   21.0408 H   0  0  0  0  0  0
  -28.4791  -24.9028   22.0882 H   0  0  0  0  0  0
  -28.9424  -15.4057   21.1248 H   0  0  0  0  0  0
  -27.0556  -25.0748   20.2650 H   0  0  0  0  0  0
  1 25  1  0  0  0
  1 30  2  0  0  0
  1 87  1  0  0  0
  2  3  1  0  0  0
  2 25  1  0  0  0
  2 89  1  0  0  0
  2 90  1  0  0  0
  3  4  1  0  0  0
  3 91  1  0  0  0
  3 92  1  0  0  0
  4  5  1  0  0  0
  4 93  1  0  0  0
  4 94  1  0  0  0
  5  6  1  0  0  0
  5 26  1  0  0  0
  5 95  1  0  0  0
  6 25  1  0  0  0
  6 96  1  0  0  0
  6 97  1  0  0  0
  7  8  2  0  0  0
  7 26  1  0  0  0
  7 29  1  0  0  0
  8  9  1  0  0  0
  8 22  1  0  0  0
  9 10  1  0  0  0
  9 27  2  0  0  0
 10 11  2  0  0  0
 10 15  1  0  0  0
 11 12  1  0  0  0
 11 98  1  0  0  0
 12 13  2  0  0  0
 12 99  1  0  0  0
 13 14  1  0  0  0
 13 31  1  0  0  0
 14 15  2  0  0  0
 14100  1  0  0  0
 15101  1  0  0  0
 16 17  2  0  0  0
 16 21  1  0  0  0
 16 31  1  0  0  0
 17 18  1  0  0  0
 17102  1  0  0  0
 18 19  2  0  0  0
 18103  1  0  0  0
 19 20  1  0  0  0
 19 24  1  0  0  0
 20 21  2  0  0  0
 20104  1  0  0  0
 21 23  1  0  0  0
 22 28  1  0  0  0
 22 32  2  0  0  0
 26 27  1  0  0  0
 28105  1  0  0  0
 28106  1  0  0  0
 29107  1  0  0  0
 29108  1  0  0  0
 33 34  1  0  0  0
 33 66  1  0  0  0
 33 70  2  0  0  0
 34 36  1  0  0  0
 34 59  1  0  0  0
 34109  1  0  0  0
 35 44  2  0  0  0
 35 45  1  0  0  0
 35 68  1  0  0  0
 36 56  1  0  0  0
 36110  1  0  0  0
 37 39  1  0  0  0
 37 47  1  0  0  0
 37 66  1  0  0  0
 37111  1  0  0  0
 38 43  2  0  0  0
 38 46  1  0  0  0
 38 47  1  0  0  0
 39 64  1  0  0  0
 39 67  2  0  0  0
 40 52  1  0  0  0
 40 53  2  0  0  0
 40 58  1  0  0  0
 41112  1  0  0  0
 41113  1  0  0  0
 41114  1  0  0  0
 41 48  1  0  0  0
 42 43  1  0  0  0
 42 66  1  0  0  0
 42115  1  0  0  0
 42116  1  0  0  0
 43 44  1  0  0  0
 44117  1  0  0  0
 45 46  2  0  0  0
 45118  1  0  0  0
 46119  1  0  0  0
 47120  1  0  0  0
 47121  1  0  0  0
 48 56  1  0  0  0
 48 65  1  0  0  0
 48122  1  0  0  0
 49 50  1  0  0  0
 49 53  1  0  0  0
 49 64  1  0  0  0
 49123  1  0  0  0
 50 51  1  0  0  0
 50124  1  0  0  0
 50125  1  0  0  0
 51 52  1  0  0  0
 51126  1  0  0  0
 51127  1  0  0  0
 52128  1  0  0  0
 52129  1  0  0  0
 53 54  1  0  0  0
 54 55  2  0  0  0
 54130  1  0  0  0
 55 57  1  0  0  0
 55131  1  0  0  0
 56 69  2  0  0  0
 57 58  2  0  0  0
 57132  1  0  0  0
 58133  1  0  0  0
 59 60  1  0  0  0
 59 61  1  0  0  0
 59 62  1  0  0  0
 60134  1  0  0  0
 60135  1  0  0  0
 60136  1  0  0  0
 61137  1  0  0  0
 61138  1  0  0  0
 61139  1  0  0  0
 62140  1  0  0  0
 62141  1  0  0  0
 62142  1  0  0  0
 63 65  1  0  0  0
 63143  1  0  0  0
 63144  1  0  0  0
 63145  1  0  0  0
 64146  1  0  0  0
 65147  1  0  0  0
 68 88  1  0  0  0
 71 72  2  0  0  0
 71 75  1  0  0  0
 71148  1  0  0  0
 72 73  1  0  0  0
 72 85  1  0  0  0
 73 74  2  0  0  0
 73 80  1  0  0  0
 74 81  1  0  0  0
 74 86  1  0  0  0
 75 86  2  0  0  0
 75 87  1  0  0  0
 76 80  1  0  0  0
 76149  1  0  0  0
 76150  1  0  0  0
 76151  1  0  0  0
 77 81  1  0  0  0
 77152  1  0  0  0
 77153  1  0  0  0
 77154  1  0  0  0
 78155  1  0  0  0
 78156  1  0  0  0
 78157  1  0  0  0
 78 85  1  0  0  0
 79 85  1  0  0  0
 79158  1  0  0  0
 79159  1  0  0  0
 79160  1  0  0  0
 80161  1  0  0  0
 80162  1  0  0  0
 81163  1  0  0  0
 81164  1  0  0  0
 82 83  1  0  0  0
 82 84  1  0  0  0
 82165  1  0  0  0
 82166  1  0  0  0
 83 85  1  0  0  0
 83167  1  0  0  0
 83168  1  0  0  0
 84 88  1  0  0  0
 84169  1  0  0  0
 84170  1  0  0  0
 87171  1  0  0  0
 88172  1  0  0  0
M  ISO  4   1 100  68 101  87 100  88 101
M  END
> <chiral flag>
0

> <version>
0

> <s_m_source_file>
/data/baiqing/PycharmProjects/Reinvent-master-3.2/result/LINK_invent/BTK/process_docking_weight1_custom_sum_contain_oxygen_bond_distance_aromatic_linkinvent_7_9_3/rearranged_h_0090.sdf

> <i_m_source_file_index>
47

> <r_mmod_Potential_Energy-OPLS-2005>
-129.038299560547

> <r_mmod_Stretch_Energy-OPLS-2005>
68.9196701049805

> <r_mmod_Bend_Energy-OPLS-2005>
163.166366577148

> <r_mmod_Torsional_Energy-OPLS-2005>
232.807510375977

> <r_mmod_Improper_Torsional_Energy-OPLS-2005>
5.56645107269287

> <r_mmod_Van_der_Waal_Energy-OPLS-2005>
176.62809753418

> <r_mmod_Electrostatic_Energy-OPLS-2005>
-573.315185546875

> <r_mmod_Solvation_Energy-OPLS-2005>
-227.118576049805

> <b_mmod_Minimization_Converged-OPLS-2005>
0

> <r_mmod_RMS_Derivative-OPLS-2005>
3.81198620796204

$$$$
48
                    3D
 Structure written by MMmdl.
172180  0  0  1  0            999 V2000
  -30.6555  -14.5514   20.5306 C   0  0  0  0  0  0
  -30.4279  -12.3479   19.4349 C   0  0  0  0  0  0
  -29.4974  -12.5050   18.2128 C   0  0  0  0  0  0
  -28.0199  -12.3500   18.6248 C   0  0  0  0  0  0
  -27.6528  -13.2088   19.8645 C   0  0  2  0  0  0
  -28.6957  -13.0271   20.9917 C   0  0  0  0  0  0
  -25.2535  -13.8152   20.5659 C   0  0  0  0  0  0
  -24.1803  -13.0420   20.9181 C   0  0  0  0  0  0
  -24.6359  -11.6887   20.8717 C   0  0  0  0  0  0
  -23.9026  -10.4274   21.0387 C   0  0  0  0  0  0
  -24.3593   -9.4193   21.9162 C   0  0  0  0  0  0
  -23.6274   -8.2224   22.0732 C   0  0  0  0  0  0
  -22.4256   -8.0253   21.3522 C   0  0  0  0  0  0
  -21.9876   -9.0221   20.4624 C   0  0  0  0  0  0
  -22.7197  -10.2106   20.3033 C   0  0  0  0  0  0
  -21.6854   -6.0704   22.5264 C   0  0  0  0  0  0
  -21.4015   -6.5615   23.8195 C   0  0  0  0  0  0
  -21.3667   -5.6771   24.9163 C   0  0  0  0  0  0
  -21.6061   -4.3035   24.7217 C   0  0  0  0  0  0
  -21.8830   -3.8118   23.4340 C   0  0  0  0  0  0
  -21.9189   -4.6931   22.3389 C   0  0  0  0  0  0
  -22.7829  -13.5208   21.1851 C   0  0  0  0  0  0
  -22.1665   -4.2121   21.0968 F   0  0  0  0  0  0
  -21.5638   -3.4518   25.7733 F   0  0  0  0  0  0
  -30.0195  -13.3485   20.4361 N   0  0  0  0  0  0
  -26.2964  -12.9327   20.3300 N   0  0  0  0  0  0
  -25.9285  -11.6486   20.5725 N   0  0  0  0  0  0
  -22.0488  -12.8197   22.0426 N   0  0  0  0  0  0
  -25.4244  -15.1867   20.4051 N   0  0  0  0  0  0
  -31.8095  -14.7219   20.1282 O   0  0  0  0  0  0
  -21.6634   -6.8843   21.4222 O   0  0  0  0  0  0
  -22.3504  -14.5510   20.6700 O   0  0  0  0  0  0
  -24.6188  -31.8649   23.2045 C   0  0  0  0  0  0
  -25.9071  -32.4797   23.8356 C   0  0  1  0  0  0
  -27.2295  -27.3845   20.1002 C   0  0  0  0  0  0
  -25.5923  -33.8598   24.2289 N   0  0  0  0  0  0
  -23.4083  -30.4871   21.5463 C   0  0  2  0  0  0
  -24.8525  -28.9482   20.1096 C   0  0  0  0  0  0
  -22.7430  -29.4646   22.4957 C   0  0  0  0  0  0
  -18.0284  -28.1387   22.8490 C   0  0  0  0  0  0
  -24.1497  -36.7303   23.2638 C   0  0  0  0  0  0
  -25.9422  -30.8128   21.3671 C   0  0  0  0  0  0
  -26.0146  -29.4442   20.7137 C   0  0  0  0  0  0
  -27.2005  -28.6677   20.7093 C   0  0  0  0  0  0
  -26.0422  -26.9118   19.4958 C   0  0  0  0  0  0
  -24.8642  -27.6839   19.4978 C   0  0  0  0  0  0
  -23.6166  -29.8202   20.1608 C   0  0  0  0  0  0
  -25.4123  -36.3094   24.0329 C   0  0  1  0  0  0
  -20.5877  -28.3688   23.1304 C   0  0  2  0  0  0
  -20.6784  -26.9426   22.5413 C   0  0  0  0  0  0
  -19.5761  -26.6399   21.5219 C   0  0  0  0  0  0
  -18.1935  -26.7928   22.1625 C   0  0  0  0  0  0
  -19.1530  -28.8857   23.2896 C   0  0  0  0  0  0
  -18.9451  -30.1454   23.8914 C   0  0  0  0  0  0
  -17.6457  -30.6591   24.0567 C   0  0  0  0  0  0
  -25.9056  -34.9461   23.5106 C   0  0  0  0  0  0
  -16.5349  -29.9092   23.6333 C   0  0  0  0  0  0
  -16.7268  -28.6507   23.0352 C   0  0  0  0  0  0
  -26.4472  -31.6592   25.0709 C   0  0  0  0  0  0
  -25.3701  -31.3746   26.1433 C   0  0  0  0  0  0
  -27.0317  -30.3021   24.6145 C   0  0  0  0  0  0
  -27.6045  -32.4313   25.7482 C   0  0  0  0  0  0
  -27.5582  -37.1813   24.8462 C   0  0  0  0  0  0
  -21.4153  -29.3043   22.3692 N   0  0  0  0  0  0
  -26.4302  -37.3783   23.9397 N   0  0  0  0  0  0
  -24.6746  -31.0712   22.0965 N   0  0  0  0  0  0
  -23.4179  -28.8205   23.3031 O   0  0  0  0  0  0
  -28.3980  -26.6319   20.1379 O   0  0  0  0  0  0
  -26.5621  -34.8919   22.4668 O   0  0  0  0  0  0
  -23.5371  -32.1425   23.7415 O   0  0  0  0  0  0
  -28.8293  -20.6510   21.1138 C   0  0  0  0  0  0
  -29.2020  -19.4926   20.4481 C   0  0  0  0  0  0
  -29.8382  -21.2906   19.2505 C   0  0  0  0  0  0
  -34.3481  -19.1761   21.3881 C   0  0  0  0  0  0
  -28.9646  -18.0058   20.7405 C   0  0  0  0  0  0
  -30.4634  -22.0942   18.1466 C   0  0  0  0  0  0
  -34.2151  -19.7944   19.9927 C   0  0  0  0  0  0
  -31.9080  -22.5727   18.4043 C   0  0  0  0  0  0
  -33.1601  -20.9076   19.9402 C   0  0  0  0  0  0
  -32.9700  -21.4609   18.5172 C   0  0  0  0  0  0
  -28.0574  -24.0557   19.9512 C   0  0  0  0  0  0
  -29.1274  -23.2026   20.7168 C   0  0  0  0  0  0
  -30.2124  -17.0528   20.7455 C   0  0  0  0  0  0
  -28.5349  -25.4245   19.3471 C   0  0  0  0  0  0
  -29.2320  -21.7444   20.3639 N   0  0  0  0  0  0
  -29.8061  -19.9484   19.3003 N   0  3  0  0  0  0
  -29.8813  -15.6047   20.8927 N   0  0  0  0  0  0
  -31.4701  -12.4665   19.1321 H   0  0  0  0  0  0
  -30.3500  -11.3432   19.8525 H   0  0  0  0  0  0
  -29.7519  -11.7698   17.4490 H   0  0  0  0  0  0
  -29.6490  -13.4836   17.7544 H   0  0  0  0  0  0
  -27.8474  -11.2949   18.8417 H   0  0  0  0  0  0
  -27.3664  -12.5973   17.7878 H   0  0  0  0  0  0
  -27.6823  -14.2501   19.5441 H   0  0  0  0  0  0
  -28.6849  -11.9981   21.3540 H   0  0  0  0  0  0
  -28.4512  -13.6470   21.8552 H   0  0  0  0  0  0
  -25.2753   -9.5684   22.4713 H   0  0  0  0  0  0
  -23.9992   -7.4622   22.7453 H   0  0  0  0  0  0
  -21.0800   -8.8731   19.8930 H   0  0  0  0  0  0
  -22.3649  -10.9636   19.6130 H   0  0  0  0  0  0
  -21.2017   -7.6126   23.9696 H   0  0  0  0  0  0
  -21.1490   -6.0498   25.9070 H   0  0  0  0  0  0
  -22.0611   -2.7575   23.2847 H   0  0  0  0  0  0
  -22.4120  -11.9878   22.4843 H   0  0  0  0  0  0
  -21.1095  -13.1203   22.2619 H   0  0  0  0  0  0
  -24.6530  -15.8376   20.5098 H   0  0  0  0  0  0
  -26.2632  -15.6225   20.0458 H   0  0  0  0  0  0
  -26.7144  -32.5486   23.1119 H   0  0  0  0  0  0
  -25.0065  -33.9750   25.0428 H   0  0  0  0  0  0
  -22.7003  -31.3065   21.4071 H   0  0  0  0  0  0
  -23.3748  -35.9645   23.3308 H   0  0  0  0  0  0
  -24.3592  -36.8911   22.2051 H   0  0  0  0  0  0
  -23.7259  -37.6514   23.6649 H   0  0  0  0  0  0
  -26.0680  -31.5783   20.5994 H   0  0  0  0  0  0
  -26.8250  -30.8588   21.9938 H   0  0  0  0  0  0
  -28.0962  -29.0467   21.1815 H   0  0  0  0  0  0
  -25.9977  -25.9379   19.0325 H   0  0  0  0  0  0
  -23.9693  -27.2943   19.0320 H   0  0  0  0  0  0
  -23.7223  -30.5944   19.4000 H   0  0  0  0  0  0
  -22.7389  -29.2405   19.8674 H   0  0  0  0  0  0
  -25.1300  -36.1950   25.0821 H   0  0  0  0  0  0
  -20.9972  -28.3268   24.1425 H   0  0  0  0  0  0
  -20.5733  -26.2296   23.3600 H   0  0  0  0  0  0
  -21.6646  -26.7497   22.1182 H   0  0  0  0  0  0
  -19.6931  -25.6318   21.1238 H   0  0  0  0  0  0
  -19.6689  -27.3221   20.6757 H   0  0  0  0  0  0
  -17.4207  -26.6677   21.4025 H   0  0  0  0  0  0
  -18.0338  -26.0074   22.9026 H   0  0  0  0  0  0
  -19.7933  -30.7264   24.2292 H   0  0  0  0  0  0
  -17.5015  -31.6275   24.5159 H   0  0  0  0  0  0
  -15.5349  -30.3000   23.7648 H   0  0  0  0  0  0
  -15.8672  -28.0832   22.7064 H   0  0  0  0  0  0
  -24.5865  -30.7115   25.7753 H   0  0  0  0  0  0
  -24.8906  -32.2925   26.4841 H   0  0  0  0  0  0
  -25.8003  -30.8921   27.0215 H   0  0  0  0  0  0
  -26.2896  -29.6787   24.1146 H   0  0  0  0  0  0
  -27.4002  -29.7263   25.4647 H   0  0  0  0  0  0
  -27.8761  -30.4322   23.9374 H   0  0  0  0  0  0
  -27.2665  -33.3605   26.2080 H   0  0  0  0  0  0
  -28.3846  -32.6883   25.0304 H   0  0  0  0  0  0
  -28.0717  -31.8419   26.5380 H   0  0  0  0  0  0
  -28.2607  -38.0105   24.7498 H   0  0  0  0  0  0
  -28.1072  -36.2633   24.6301 H   0  0  0  0  0  0
  -27.2296  -37.1477   25.8867 H   0  0  0  0  0  0
  -20.9326  -29.8735   21.6879 H   0  0  0  0  0  0
  -26.0182  -38.2860   24.1379 H   0  0  0  0  0  0
  -28.3113  -20.7722   22.0570 H   0  0  0  0  0  0
  -35.0721  -18.3600   21.3851 H   0  0  0  0  0  0
  -33.3957  -18.7731   21.7328 H   0  0  0  0  0  0
  -34.6846  -19.9116   22.1188 H   0  0  0  0  0  0
  -28.4591  -17.9294   21.7037 H   0  0  0  0  0  0
  -28.2494  -17.6420   20.0018 H   0  0  0  0  0  0
  -29.8116  -22.9482   17.9690 H   0  0  0  0  0  0
  -30.4211  -21.4860   17.2423 H   0  0  0  0  0  0
  -33.9506  -19.0103   19.2826 H   0  0  0  0  0  0
  -35.1833  -20.1837   19.6733 H   0  0  0  0  0  0
  -31.9532  -23.2269   19.2748 H   0  0  0  0  0  0
  -32.1852  -23.2025   17.5574 H   0  0  0  0  0  0
  -33.4494  -21.7175   20.6120 H   0  0  0  0  0  0
  -32.2204  -20.5182   20.3268 H   0  0  0  0  0  0
  -33.9265  -21.8696   18.1876 H   0  0  0  0  0  0
  -32.7398  -20.6530   17.8206 H   0  0  0  0  0  0
  -27.1849  -24.2187   20.5850 H   0  0  0  0  0  0
  -27.6852  -23.4515   19.1238 H   0  0  0  0  0  0
  -28.9378  -23.2653   21.7884 H   0  0  0  0  0  0
  -30.1176  -23.6350   20.5789 H   0  0  0  0  0  0
  -30.8892  -17.3421   21.5495 H   0  0  0  0  0  0
  -30.7667  -17.1890   19.8169 H   0  0  0  0  0  0
  -28.0655  -25.5736   18.3739 H   0  0  0  0  0  0
  -29.5934  -25.3379   19.1020 H   0  0  0  0  0  0
  -30.1852  -19.3554   18.5704 H   0  0  0  0  0  0
  -28.9471  -15.3792   21.2010 H   0  0  0  0  0  0
  1 25  1  0  0  0
  1 30  2  0  0  0
  1 87  1  0  0  0
  2  3  1  0  0  0
  2 25  1  0  0  0
  2 88  1  0  0  0
  2 89  1  0  0  0
  3  4  1  0  0  0
  3 90  1  0  0  0
  3 91  1  0  0  0
  4  5  1  0  0  0
  4 92  1  0  0  0
  4 93  1  0  0  0
  5  6  1  0  0  0
  5 26  1  0  0  0
  5 94  1  0  0  0
  6 25  1  0  0  0
  6 95  1  0  0  0
  6 96  1  0  0  0
  7  8  2  0  0  0
  7 26  1  0  0  0
  7 29  1  0  0  0
  8  9  1  0  0  0
  8 22  1  0  0  0
  9 10  1  0  0  0
  9 27  2  0  0  0
 10 11  2  0  0  0
 10 15  1  0  0  0
 11 12  1  0  0  0
 11 97  1  0  0  0
 12 13  2  0  0  0
 12 98  1  0  0  0
 13 14  1  0  0  0
 13 31  1  0  0  0
 14 15  2  0  0  0
 14 99  1  0  0  0
 15100  1  0  0  0
 16 17  2  0  0  0
 16 21  1  0  0  0
 16 31  1  0  0  0
 17 18  1  0  0  0
 17101  1  0  0  0
 18 19  2  0  0  0
 18102  1  0  0  0
 19 20  1  0  0  0
 19 24  1  0  0  0
 20 21  2  0  0  0
 20103  1  0  0  0
 21 23  1  0  0  0
 22 28  1  0  0  0
 22 32  2  0  0  0
 26 27  1  0  0  0
 28104  1  0  0  0
 28105  1  0  0  0
 29106  1  0  0  0
 29107  1  0  0  0
 33 34  1  0  0  0
 33 66  1  0  0  0
 33 70  2  0  0  0
 34 36  1  0  0  0
 34 59  1  0  0  0
 34108  1  0  0  0
 35 44  2  0  0  0
 35 45  1  0  0  0
 35 68  1  0  0  0
 36 56  1  0  0  0
 36109  1  0  0  0
 37 39  1  0  0  0
 37 47  1  0  0  0
 37 66  1  0  0  0
 37110  1  0  0  0
 38 43  2  0  0  0
 38 46  1  0  0  0
 38 47  1  0  0  0
 39 64  1  0  0  0
 39 67  2  0  0  0
 40 52  1  0  0  0
 40 53  2  0  0  0
 40 58  1  0  0  0
 41111  1  0  0  0
 41112  1  0  0  0
 41113  1  0  0  0
 41 48  1  0  0  0
 42 43  1  0  0  0
 42 66  1  0  0  0
 42114  1  0  0  0
 42115  1  0  0  0
 43 44  1  0  0  0
 44116  1  0  0  0
 45 46  2  0  0  0
 45117  1  0  0  0
 46118  1  0  0  0
 47119  1  0  0  0
 47120  1  0  0  0
 48 56  1  0  0  0
 48 65  1  0  0  0
 48121  1  0  0  0
 49 50  1  0  0  0
 49 53  1  0  0  0
 49 64  1  0  0  0
 49122  1  0  0  0
 50 51  1  0  0  0
 50123  1  0  0  0
 50124  1  0  0  0
 51 52  1  0  0  0
 51125  1  0  0  0
 51126  1  0  0  0
 52127  1  0  0  0
 52128  1  0  0  0
 53 54  1  0  0  0
 54 55  2  0  0  0
 54129  1  0  0  0
 55 57  1  0  0  0
 55130  1  0  0  0
 56 69  2  0  0  0
 57 58  2  0  0  0
 57131  1  0  0  0
 58132  1  0  0  0
 59 60  1  0  0  0
 59 61  1  0  0  0
 59 62  1  0  0  0
 60133  1  0  0  0
 60134  1  0  0  0
 60135  1  0  0  0
 61136  1  0  0  0
 61137  1  0  0  0
 61138  1  0  0  0
 62139  1  0  0  0
 62140  1  0  0  0
 62141  1  0  0  0
 63 65  1  0  0  0
 63142  1  0  0  0
 63143  1  0  0  0
 63144  1  0  0  0
 64145  1  0  0  0
 65146  1  0  0  0
 68 84  1  0  0  0
 71 72  2  0  0  0
 71 85  1  0  0  0
 71147  1  0  0  0
 72 75  1  0  0  0
 72 86  1  0  0  0
 73 76  1  0  0  0
 73 85  1  0  0  0
 73 86  2  0  0  0
 74 77  1  0  0  0
 74148  1  0  0  0
 74149  1  0  0  0
 74150  1  0  0  0
 75 83  1  0  0  0
 75151  1  0  0  0
 75152  1  0  0  0
 76 78  1  0  0  0
 76153  1  0  0  0
 76154  1  0  0  0
 77 79  1  0  0  0
 77155  1  0  0  0
 77156  1  0  0  0
 78 80  1  0  0  0
 78157  1  0  0  0
 78158  1  0  0  0
 79 80  1  0  0  0
 79159  1  0  0  0
 79160  1  0  0  0
 80161  1  0  0  0
 80162  1  0  0  0
 81 82  1  0  0  0
 81 84  1  0  0  0
 81163  1  0  0  0
 81164  1  0  0  0
 82 85  1  0  0  0
 82165  1  0  0  0
 82166  1  0  0  0
 83 87  1  0  0  0
 83167  1  0  0  0
 83168  1  0  0  0
 84169  1  0  0  0
 84170  1  0  0  0
 86171  1  0  0  0
 87172  1  0  0  0
M  CHG  1  86   1
M  ISO  4   1 100  68 101  84 101  87 100
M  END
> <chiral flag>
0

> <version>
0

> <s_m_source_file>
/data/baiqing/PycharmProjects/Reinvent-master-3.2/result/LINK_invent/BTK/process_docking_weight1_custom_sum_contain_oxygen_bond_distance_aromatic_linkinvent_7_9_3/rearranged_h_0090.sdf

> <i_m_source_file_index>
48

> <r_mmod_Potential_Energy-OPLS-2005>
-65.8469772338867

> <r_mmod_Stretch_Energy-OPLS-2005>
51.1255722045898

> <r_mmod_Bend_Energy-OPLS-2005>
118.992805480957

> <r_mmod_Torsional_Energy-OPLS-2005>
238.968780517578

> <r_mmod_Improper_Torsional_Energy-OPLS-2005>
5.31993007659912

> <r_mmod_Van_der_Waal_Energy-OPLS-2005>
110.873199462891

> <r_mmod_Electrostatic_Energy-OPLS-2005>
-194.03337097168

> <r_mmod_Solvation_Energy-OPLS-2005>
-421.584777832031

> <b_mmod_Minimization_Converged-OPLS-2005>
0

> <r_mmod_RMS_Derivative-OPLS-2005>
1.96083891391754

$$$$
49
                    3D
 Structure written by MMmdl.
169177  0  0  1  0            999 V2000
  -30.5767  -14.7552   20.4599 C   0  0  0  0  0  0
  -30.4368  -12.4579   19.4792 C   0  0  0  0  0  0
  -29.5153  -12.5077   18.2394 C   0  0  0  0  0  0
  -28.0407  -12.3244   18.6510 C   0  0  0  0  0  0
  -27.6429  -13.2239   19.8482 C   0  0  2  0  0  0
  -28.6800  -13.1459   20.9885 C   0  0  0  0  0  0
  -25.2549  -13.8171   20.5671 C   0  0  0  0  0  0
  -24.1825  -13.0454   20.9204 C   0  0  0  0  0  0
  -24.6382  -11.6923   20.8716 C   0  0  0  0  0  0
  -23.9040  -10.4321   21.0388 C   0  0  0  0  0  0
  -24.3607   -9.4256   21.9163 C   0  0  0  0  0  0
  -23.6306   -8.2282   22.0743 C   0  0  0  0  0  0
  -22.4293   -8.0282   21.3542 C   0  0  0  0  0  0
  -21.9917   -9.0251   20.4647 C   0  0  0  0  0  0
  -22.7213  -10.2146   20.3051 C   0  0  0  0  0  0
  -21.6885   -6.0731   22.5271 C   0  0  0  0  0  0
  -21.4040   -6.5643   23.8195 C   0  0  0  0  0  0
  -21.3653   -5.6794   24.9161 C   0  0  0  0  0  0
  -21.6043   -4.3056   24.7216 C   0  0  0  0  0  0
  -21.8829   -3.8141   23.4342 C   0  0  0  0  0  0
  -21.9218   -4.6960   22.3393 C   0  0  0  0  0  0
  -22.7857  -13.5264   21.1872 C   0  0  0  0  0  0
  -22.1689   -4.2155   21.0967 F   0  0  0  0  0  0
  -21.5615   -3.4537   25.7728 F   0  0  0  0  0  0
  -29.9834  -13.5115   20.4197 N   0  0  0  0  0  0
  -26.2939  -12.9353   20.3220 N   0  0  0  0  0  0
  -25.9298  -11.6511   20.5678 N   0  0  0  0  0  0
  -22.0482  -12.8264   22.0418 N   0  0  0  0  0  0
  -25.4258  -15.1879   20.4012 N   0  0  0  0  0  0
  -31.7505  -14.8861   20.1038 O   0  0  0  0  0  0
  -21.6675   -6.8873   21.4232 O   0  0  0  0  0  0
  -22.3558  -14.5565   20.6700 O   0  0  0  0  0  0
  -24.6306  -31.8554   23.1959 C   0  0  0  0  0  0
  -25.9110  -32.4760   23.8347 C   0  0  1  0  0  0
  -27.2344  -27.2712   20.1520 C   0  0  0  0  0  0
  -25.5908  -33.8562   24.2281 N   0  0  0  0  0  0
  -23.4285  -30.4737   21.5362 C   0  0  2  0  0  0
  -24.8812  -28.9103   20.1148 C   0  0  0  0  0  0
  -22.7506  -29.4626   22.4911 C   0  0  0  0  0  0
  -18.0340  -28.1391   22.8469 C   0  0  0  0  0  0
  -24.1495  -36.7290   23.2639 C   0  0  0  0  0  0
  -25.9733  -30.7718   21.3724 C   0  0  0  0  0  0
  -26.0494  -29.3902   20.7233 C   0  0  0  0  0  0
  -27.2308  -28.5843   20.7267 C   0  0  0  0  0  0
  -26.0477  -26.8470   19.5194 C   0  0  0  0  0  0
  -24.8850  -27.6477   19.4993 C   0  0  0  0  0  0
  -23.6488  -29.7941   20.1564 C   0  0  0  0  0  0
  -25.4107  -36.3067   24.0339 C   0  0  1  0  0  0
  -20.5913  -28.3755   23.1295 C   0  0  2  0  0  0
  -20.6826  -26.9497   22.5402 C   0  0  0  0  0  0
  -19.5841  -26.6499   21.5162 C   0  0  0  0  0  0
  -18.2001  -26.7973   22.1545 C   0  0  0  0  0  0
  -19.1556  -28.8880   23.2893 C   0  0  0  0  0  0
  -18.9427  -30.1468   23.8936 C   0  0  0  0  0  0
  -17.6410  -30.6543   24.0575 C   0  0  0  0  0  0
  -25.9047  -34.9434   23.5100 C   0  0  0  0  0  0
  -16.5329  -29.9034   23.6292 C   0  0  0  0  0  0
  -16.7314  -28.6467   23.0317 C   0  0  0  0  0  0
  -26.4491  -31.6579   25.0734 C   0  0  0  0  0  0
  -25.3740  -31.3694   26.1469 C   0  0  0  0  0  0
  -27.0328  -30.3003   24.6188 C   0  0  0  0  0  0
  -27.6073  -32.4301   25.7494 C   0  0  0  0  0  0
  -27.5579  -37.1794   24.8463 C   0  0  0  0  0  0
  -21.4195  -29.3125   22.3708 N   0  0  0  0  0  0
  -26.4286  -37.3762   23.9408 N   0  0  0  0  0  0
  -24.6965  -31.0538   22.0912 N   0  0  0  0  0  0
  -23.4207  -28.8119   23.2963 O   0  0  0  0  0  0
  -28.3445  -26.4020   20.1667 O   0  0  0  0  0  0
  -26.5642  -34.8893   22.4698 O   0  0  0  0  0  0
  -23.5457  -32.1356   23.7267 O   0  0  0  0  0  0
  -29.3511  -21.1454   20.3514 C   0  0  0  0  0  0
  -28.7381  -19.9491   20.7716 C   0  0  0  0  0  0
  -27.2501  -21.6952   20.7744 C   0  0  0  0  0  0
  -23.7039  -22.6089   19.6668 C   0  0  0  0  0  0
  -24.2189  -22.9445   22.9327 C   0  0  0  0  0  0
  -26.6755  -23.2588   23.3247 C   0  0  0  0  0  0
  -29.0899  -18.4397   21.1692 C   0  0  0  0  0  0
  -24.7936  -21.6597   20.2026 C   0  0  0  0  0  0
  -28.5926  -23.6887   19.8511 C   0  0  0  0  0  0
  -29.9319  -17.3489   20.3141 C   0  0  0  0  0  0
  -28.1879  -25.0091   20.7090 C   0  0  0  0  0  0
  -25.9116  -22.3646   21.0143 C   0  0  1  0  0  0
  -25.6237  -22.4372   22.5507 C   0  0  0  0  0  0
  -28.4241  -22.2229   20.3639 N   0  0  0  0  0  0
  -27.4507  -20.3810   21.0035 N   0  3  0  0  0  0
  -29.7643  -15.8597   20.6858 N   0  0  0  0  0  0
  -31.4797  -12.5889   19.1824 H   0  0  0  0  0  0
  -30.3870  -11.4769   19.9527 H   0  0  0  0  0  0
  -29.7955  -11.7350   17.5218 H   0  0  0  0  0  0
  -29.6433  -13.4599   17.7233 H   0  0  0  0  0  0
  -27.8979  -11.2751   18.9126 H   0  0  0  0  0  0
  -27.3847  -12.5117   17.8008 H   0  0  0  0  0  0
  -27.6423  -14.2458   19.4682 H   0  0  0  0  0  0
  -28.7166  -12.1377   21.4019 H   0  0  0  0  0  0
  -28.4016  -13.8062   21.8095 H   0  0  0  0  0  0
  -25.2749   -9.5773   22.4747 H   0  0  0  0  0  0
  -24.0022   -7.4702   22.7488 H   0  0  0  0  0  0
  -21.0836   -8.8749   19.8984 H   0  0  0  0  0  0
  -22.3612  -10.9677   19.6173 H   0  0  0  0  0  0
  -21.2038   -7.6156   23.9699 H   0  0  0  0  0  0
  -21.1450   -6.0524   25.9057 H   0  0  0  0  0  0
  -22.0612   -2.7609   23.2838 H   0  0  0  0  0  0
  -22.4106  -11.9919   22.4778 H   0  0  0  0  0  0
  -21.1091  -13.1282   22.2609 H   0  0  0  0  0  0
  -24.6432  -15.8314   20.4665 H   0  0  0  0  0  0
  -26.2307  -15.5927   19.9403 H   0  0  0  0  0  0
  -26.7225  -32.5403   23.1142 H   0  0  0  0  0  0
  -25.0068  -33.9780   25.0420 H   0  0  0  0  0  0
  -22.7285  -31.2979   21.3841 H   0  0  0  0  0  0
  -23.3751  -35.9632   23.3294 H   0  0  0  0  0  0
  -24.3606  -36.8911   22.2057 H   0  0  0  0  0  0
  -23.7258  -37.6484   23.6679 H   0  0  0  0  0  0
  -26.1158  -31.5249   20.5965 H   0  0  0  0  0  0
  -26.8512  -30.8317   22.0023 H   0  0  0  0  0  0
  -28.1280  -28.9475   21.2077 H   0  0  0  0  0  0
  -26.0170  -25.8748   19.0499 H   0  0  0  0  0  0
  -23.9911  -27.2742   19.0183 H   0  0  0  0  0  0
  -23.7699  -30.5605   19.3929 H   0  0  0  0  0  0
  -22.7704  -29.2212   19.8491 H   0  0  0  0  0  0
  -25.1282  -36.1935   25.0834 H   0  0  0  0  0  0
  -21.0005  -28.3347   24.1411 H   0  0  0  0  0  0
  -20.5697  -26.2372   23.3583 H   0  0  0  0  0  0
  -21.6682  -26.7485   22.1218 H   0  0  0  0  0  0
  -19.6796  -27.3352   20.6740 H   0  0  0  0  0  0
  -19.7090  -25.6441   21.1147 H   0  0  0  0  0  0
  -17.4289  -26.6756   21.3926 H   0  0  0  0  0  0
  -18.0364  -26.0056   22.8851 H   0  0  0  0  0  0
  -19.7859  -30.7300   24.2390 H   0  0  0  0  0  0
  -17.4904  -31.6186   24.5198 H   0  0  0  0  0  0
  -15.5313  -30.2877   23.7599 H   0  0  0  0  0  0
  -15.8758  -28.0746   22.7010 H   0  0  0  0  0  0
  -24.5967  -30.6995   25.7794 H   0  0  0  0  0  0
  -24.8884  -32.2829   26.4890 H   0  0  0  0  0  0
  -25.8098  -30.8892   27.0236 H   0  0  0  0  0  0
  -26.2886  -29.6773   24.1218 H   0  0  0  0  0  0
  -27.4021  -29.7260   25.4686 H   0  0  0  0  0  0
  -27.8765  -30.4293   23.9416 H   0  0  0  0  0  0
  -27.2723  -33.3615   26.2062 H   0  0  0  0  0  0
  -28.3868  -32.6814   25.0301 H   0  0  0  0  0  0
  -28.0743  -31.8412   26.5395 H   0  0  0  0  0  0
  -28.2571  -38.0108   24.7490 H   0  0  0  0  0  0
  -28.1096  -36.2632   24.6291 H   0  0  0  0  0  0
  -27.2318  -37.1427   25.8873 H   0  0  0  0  0  0
  -20.9373  -29.8810   21.6898 H   0  0  0  0  0  0
  -26.0165  -38.2845   24.1375 H   0  0  0  0  0  0
  -30.3794  -21.3082   20.0520 H   0  0  0  0  0  0
  -23.1435  -23.1053   20.4578 H   0  0  0  0  0  0
  -22.9846  -22.0608   19.0575 H   0  0  0  0  0  0
  -24.1374  -23.3882   19.0380 H   0  0  0  0  0  0
  -24.1099  -23.0095   24.0170 H   0  0  0  0  0  0
  -23.4300  -22.2764   22.5847 H   0  0  0  0  0  0
  -24.0303  -23.9391   22.5268 H   0  0  0  0  0  0
  -26.5828  -23.0942   24.3984 H   0  0  0  0  0  0
  -26.5511  -24.3288   23.1566 H   0  0  0  0  0  0
  -27.6989  -22.9967   23.0594 H   0  0  0  0  0  0
  -28.1297  -17.9572   21.3521 H   0  0  0  0  0  0
  -29.5384  -18.4879   22.1616 H   0  0  0  0  0  0
  -25.2360  -21.1841   19.3243 H   0  0  0  0  0  0
  -24.3540  -20.8481   20.7830 H   0  0  0  0  0  0
  -29.6397  -23.7849   19.5664 H   0  0  0  0  0  0
  -28.0471  -23.7269   18.9082 H   0  0  0  0  0  0
  -30.9906  -17.6117   20.3294 H   0  0  0  0  0  0
  -29.6257  -17.4341   19.2700 H   0  0  0  0  0  0
  -28.8009  -24.9875   21.6103 H   0  0  0  0  0  0
  -27.1782  -24.9337   21.0925 H   0  0  0  0  0  0
  -25.9853  -23.3641   20.6041 H   0  0  0  0  0  0
  -25.6898  -21.4158   22.9291 H   0  0  0  0  0  0
  -26.7102  -19.7691   21.3229 H   0  0  0  0  0  0
  -28.8359  -15.6119   20.9948 H   0  0  0  0  0  0
  1 25  1  0  0  0
  1 30  2  0  0  0
  1 86  1  0  0  0
  2  3  1  0  0  0
  2 25  1  0  0  0
  2 87  1  0  0  0
  2 88  1  0  0  0
  3  4  1  0  0  0
  3 89  1  0  0  0
  3 90  1  0  0  0
  4  5  1  0  0  0
  4 91  1  0  0  0
  4 92  1  0  0  0
  5  6  1  0  0  0
  5 26  1  0  0  0
  5 93  1  0  0  0
  6 25  1  0  0  0
  6 94  1  0  0  0
  6 95  1  0  0  0
  7  8  2  0  0  0
  7 26  1  0  0  0
  7 29  1  0  0  0
  8  9  1  0  0  0
  8 22  1  0  0  0
  9 10  1  0  0  0
  9 27  2  0  0  0
 10 11  2  0  0  0
 10 15  1  0  0  0
 11 12  1  0  0  0
 11 96  1  0  0  0
 12 13  2  0  0  0
 12 97  1  0  0  0
 13 14  1  0  0  0
 13 31  1  0  0  0
 14 15  2  0  0  0
 14 98  1  0  0  0
 15 99  1  0  0  0
 16 17  2  0  0  0
 16 21  1  0  0  0
 16 31  1  0  0  0
 17 18  1  0  0  0
 17100  1  0  0  0
 18 19  2  0  0  0
 18101  1  0  0  0
 19 20  1  0  0  0
 19 24  1  0  0  0
 20 21  2  0  0  0
 20102  1  0  0  0
 21 23  1  0  0  0
 22 28  1  0  0  0
 22 32  2  0  0  0
 26 27  1  0  0  0
 28103  1  0  0  0
 28104  1  0  0  0
 29105  1  0  0  0
 29106  1  0  0  0
 33 34  1  0  0  0
 33 66  1  0  0  0
 33 70  2  0  0  0
 34 36  1  0  0  0
 34 59  1  0  0  0
 34107  1  0  0  0
 35 44  2  0  0  0
 35 45  1  0  0  0
 35 68  1  0  0  0
 36 56  1  0  0  0
 36108  1  0  0  0
 37 39  1  0  0  0
 37 47  1  0  0  0
 37 66  1  0  0  0
 37109  1  0  0  0
 38 43  2  0  0  0
 38 46  1  0  0  0
 38 47  1  0  0  0
 39 64  1  0  0  0
 39 67  2  0  0  0
 40 52  1  0  0  0
 40 53  2  0  0  0
 40 58  1  0  0  0
 41110  1  0  0  0
 41111  1  0  0  0
 41112  1  0  0  0
 41 48  1  0  0  0
 42 43  1  0  0  0
 42 66  1  0  0  0
 42113  1  0  0  0
 42114  1  0  0  0
 43 44  1  0  0  0
 44115  1  0  0  0
 45 46  2  0  0  0
 45116  1  0  0  0
 46117  1  0  0  0
 47118  1  0  0  0
 47119  1  0  0  0
 48 56  1  0  0  0
 48 65  1  0  0  0
 48120  1  0  0  0
 49 50  1  0  0  0
 49 53  1  0  0  0
 49 64  1  0  0  0
 49121  1  0  0  0
 50 51  1  0  0  0
 50122  1  0  0  0
 50123  1  0  0  0
 51 52  1  0  0  0
 51124  1  0  0  0
 51125  1  0  0  0
 52126  1  0  0  0
 52127  1  0  0  0
 53 54  1  0  0  0
 54 55  2  0  0  0
 54128  1  0  0  0
 55 57  1  0  0  0
 55129  1  0  0  0
 56 69  2  0  0  0
 57 58  2  0  0  0
 57130  1  0  0  0
 58131  1  0  0  0
 59 60  1  0  0  0
 59 61  1  0  0  0
 59 62  1  0  0  0
 60132  1  0  0  0
 60133  1  0  0  0
 60134  1  0  0  0
 61135  1  0  0  0
 61136  1  0  0  0
 61137  1  0  0  0
 62138  1  0  0  0
 62139  1  0  0  0
 62140  1  0  0  0
 63 65  1  0  0  0
 63141  1  0  0  0
 63142  1  0  0  0
 63143  1  0  0  0
 64144  1  0  0  0
 65145  1  0  0  0
 68 81  1  0  0  0
 71 72  2  0  0  0
 71 84  1  0  0  0
 71146  1  0  0  0
 72 77  1  0  0  0
 72 85  1  0  0  0
 73 82  1  0  0  0
 73 84  1  0  0  0
 73 85  2  0  0  0
 74 78  1  0  0  0
 74147  1  0  0  0
 74148  1  0  0  0
 74149  1  0  0  0
 75150  1  0  0  0
 75151  1  0  0  0
 75152  1  0  0  0
 75 83  1  0  0  0
 76 83  1  0  0  0
 76153  1  0  0  0
 76154  1  0  0  0
 76155  1  0  0  0
 77 80  1  0  0  0
 77156  1  0  0  0
 77157  1  0  0  0
 78158  1  0  0  0
 78159  1  0  0  0
 78 82  1  0  0  0
 79 81  1  0  0  0
 79 84  1  0  0  0
 79160  1  0  0  0
 79161  1  0  0  0
 80 86  1  0  0  0
 80162  1  0  0  0
 80163  1  0  0  0
 81164  1  0  0  0
 81165  1  0  0  0
 82 83  1  0  0  0
 82166  1  0  0  0
 83167  1  0  0  0
 85168  1  0  0  0
 86169  1  0  0  0
M  CHG  1  85   1
M  ISO  4   1 100  68 101  81 101  86 100
M  END
> <chiral flag>
0

> <version>
0

> <s_m_source_file>
/data/baiqing/PycharmProjects/Reinvent-master-3.2/result/LINK_invent/BTK/process_docking_weight1_custom_sum_contain_oxygen_bond_distance_aromatic_linkinvent_7_9_3/rearranged_h_0090.sdf

> <i_m_source_file_index>
49

> <r_mmod_Potential_Energy-OPLS-2005>
200.857223510742

> <r_mmod_Stretch_Energy-OPLS-2005>
134.5576171875

> <r_mmod_Bend_Energy-OPLS-2005>
197.89306640625

> <r_mmod_Torsional_Energy-OPLS-2005>
269.717041015625

> <r_mmod_Improper_Torsional_Energy-OPLS-2005>
7.43698596954346

> <r_mmod_Van_der_Waal_Energy-OPLS-2005>
109.444389343262

> <r_mmod_Electrostatic_Energy-OPLS-2005>
-177.073760986328

> <r_mmod_Solvation_Energy-OPLS-2005>
-424.823944091797

> <b_mmod_Minimization_Converged-OPLS-2005>
0

> <r_mmod_RMS_Derivative-OPLS-2005>
3.84117531776428

$$$$
50
                    3D
 Structure written by MMmdl.
154162  0  0  1  0            999 V2000
  -30.6514  -14.6598   20.4491 C   0  0  0  0  0  0
  -30.4274  -12.3882   19.4667 C   0  0  0  0  0  0
  -29.5064  -12.4822   18.2323 C   0  0  0  0  0  0
  -28.0308  -12.3224   18.6482 C   0  0  0  0  0  0
  -27.6463  -13.2248   19.8494 C   0  0  2  0  0  0
  -28.6912  -13.1443   20.9830 C   0  0  0  0  0  0
  -25.2560  -13.8213   20.5710 C   0  0  0  0  0  0
  -24.1802  -13.0455   20.9197 C   0  0  0  0  0  0
  -24.6393  -11.6942   20.8772 C   0  0  0  0  0  0
  -23.9071  -10.4300   21.0431 C   0  0  0  0  0  0
  -24.3612   -9.4207   21.9203 C   0  0  0  0  0  0
  -23.6284   -8.2243   22.0762 C   0  0  0  0  0  0
  -22.4270   -8.0286   21.3552 C   0  0  0  0  0  0
  -21.9907   -9.0265   20.4657 C   0  0  0  0  0  0
  -22.7251  -10.2140   20.3074 C   0  0  0  0  0  0
  -21.6853   -6.0715   22.5284 C   0  0  0  0  0  0
  -21.4003   -6.5614   23.8215 C   0  0  0  0  0  0
  -21.3679   -5.6781   24.9190 C   0  0  0  0  0  0
  -21.6041   -4.3044   24.7253 C   0  0  0  0  0  0
  -21.8819   -3.8128   23.4380 C   0  0  0  0  0  0
  -21.9187   -4.6936   22.3425 C   0  0  0  0  0  0
  -22.7822  -13.5256   21.1862 C   0  0  0  0  0  0
  -22.1658   -4.2119   21.1004 F   0  0  0  0  0  0
  -21.5653   -3.4537   25.7765 F   0  0  0  0  0  0
  -30.0056  -13.4516   20.4012 N   0  0  0  0  0  0
  -26.2966  -12.9397   20.3280 N   0  0  0  0  0  0
  -25.9315  -11.6550   20.5749 N   0  0  0  0  0  0
  -22.0456  -12.8208   22.0409 N   0  0  0  0  0  0
  -25.4280  -15.1923   20.4235 N   0  0  0  0  0  0
  -31.8438  -14.7503   20.1436 O   0  0  0  0  0  0
  -21.6647   -6.8866   21.4241 O   0  0  0  0  0  0
  -22.3499  -14.5557   20.6733 O   0  0  0  0  0  0
  -24.6370  -31.8545   23.1971 C   0  0  0  0  0  0
  -25.9169  -32.4743   23.8335 C   0  0  1  0  0  0
  -27.2307  -27.2653   20.1134 C   0  0  0  0  0  0
  -25.5939  -33.8539   24.2275 N   0  0  0  0  0  0
  -23.4373  -30.4765   21.5353 C   0  0  2  0  0  0
  -24.8791  -28.9085   20.1090 C   0  0  0  0  0  0
  -22.7519  -29.4626   22.4829 C   0  0  0  0  0  0
  -18.0271  -28.1419   22.8435 C   0  0  0  0  0  0
  -24.1484  -36.7314   23.2641 C   0  0  0  0  0  0
  -25.9785  -30.7594   21.3770 C   0  0  0  0  0  0
  -26.0467  -29.3811   20.7188 C   0  0  0  0  0  0
  -27.2210  -28.5719   20.7056 C   0  0  0  0  0  0
  -26.0365  -26.8414   19.4883 C   0  0  0  0  0  0
  -24.8787  -27.6513   19.4799 C   0  0  0  0  0  0
  -23.6589  -29.8086   20.1509 C   0  0  0  0  0  0
  -25.4111  -36.3083   24.0337 C   0  0  1  0  0  0
  -20.5867  -28.3738   23.1073 C   0  0  2  0  0  0
  -20.6774  -26.9451   22.5235 C   0  0  0  0  0  0
  -19.5647  -26.6145   21.5262 C   0  0  0  0  0  0
  -18.1852  -26.7868   22.1733 C   0  0  0  0  0  0
  -19.1537  -28.8935   23.2715 C   0  0  0  0  0  0
  -18.9462  -30.1538   23.8750 C   0  0  0  0  0  0
  -17.6461  -30.6631   24.0443 C   0  0  0  0  0  0
  -25.9031  -34.9433   23.5108 C   0  0  0  0  0  0
  -16.5362  -29.9090   23.6294 C   0  0  0  0  0  0
  -16.7248  -28.6500   23.0368 C   0  0  0  0  0  0
  -26.4490  -31.6579   25.0750 C   0  0  0  0  0  0
  -25.3707  -31.3727   26.1485 C   0  0  0  0  0  0
  -27.0306  -30.2994   24.6228 C   0  0  0  0  0  0
  -27.6058  -32.4312   25.7521 C   0  0  0  0  0  0
  -27.5590  -37.1825   24.8464 C   0  0  0  0  0  0
  -21.4241  -29.3010   22.3437 N   0  0  0  0  0  0
  -26.4293  -37.3787   23.9405 N   0  0  0  0  0  0
  -24.7036  -31.0472   22.0959 N   0  0  0  0  0  0
  -23.4141  -28.8284   23.3071 O   0  0  0  0  0  0
  -28.3645  -26.4339   20.1961 O   0  0  0  0  0  0
  -26.5600  -34.8901   22.4666 O   0  0  0  0  0  0
  -23.5508  -32.1386   23.7257 O   0  0  0  0  0  0
  -29.6275  -19.7822   20.0789 C   0  0  0  0  0  0
  -28.6485  -20.8412   20.2248 C   0  0  0  0  0  0
  -29.3354  -18.4192   20.4613 C   0  0  0  0  0  0
  -27.4242  -20.3752   20.7831 C   0  0  0  0  0  0
  -26.2305  -21.2673   21.0276 C   0  0  0  0  0  0
  -28.8899  -22.3320   19.6872 C   0  0  0  0  0  0
  -30.3539  -17.2190   20.3695 C   0  0  0  0  0  0
  -28.2388  -23.6846   20.3126 C   0  0  0  0  0  0
  -28.5090  -25.0866   19.5634 C   0  0  0  0  0  0
  -28.1232  -18.1181   20.9762 N   0  0  0  0  0  0
  -27.2024  -19.0765   21.1298 N   0  0  0  0  0  0
  -29.8966  -15.7948   20.6038 N   0  0  0  0  0  0
  -31.4725  -12.4822   19.1660 H   0  0  0  0  0  0
  -30.3410  -11.4084   19.9443 H   0  0  0  0  0  0
  -29.7714  -11.7141   17.5045 H   0  0  0  0  0  0
  -29.6484  -13.4430   17.7313 H   0  0  0  0  0  0
  -27.8781  -11.2742   18.9099 H   0  0  0  0  0  0
  -27.3744  -12.5193   17.8008 H   0  0  0  0  0  0
  -27.6503  -14.2453   19.4680 H   0  0  0  0  0  0
  -28.6991  -12.1511   21.4309 H   0  0  0  0  0  0
  -28.4447  -13.8442   21.7845 H   0  0  0  0  0  0
  -25.2747   -9.5653   22.4796 H   0  0  0  0  0  0
  -23.9982   -7.4614   22.7473 H   0  0  0  0  0  0
  -21.0835   -8.8780   19.8956 H   0  0  0  0  0  0
  -22.3710  -10.9673   19.6187 H   0  0  0  0  0  0
  -21.1974   -7.6123   23.9694 H   0  0  0  0  0  0
  -21.1512   -6.0529   25.9081 H   0  0  0  0  0  0
  -22.0578   -2.7581   23.2904 H   0  0  0  0  0  0
  -22.4044  -11.9839   22.4742 H   0  0  0  0  0  0
  -21.1088  -13.1222   22.2684 H   0  0  0  0  0  0
  -24.6806  -15.8534   20.6078 H   0  0  0  0  0  0
  -26.2928  -15.6440   20.1501 H   0  0  0  0  0  0
  -26.7269  -32.5382   23.1104 H   0  0  0  0  0  0
  -25.0040  -33.9647   25.0405 H   0  0  0  0  0  0
  -22.7457  -31.3071   21.3852 H   0  0  0  0  0  0
  -23.3713  -35.9671   23.3301 H   0  0  0  0  0  0
  -24.3584  -36.8931   22.2047 H   0  0  0  0  0  0
  -23.7237  -37.6529   23.6656 H   0  0  0  0  0  0
  -26.1110  -31.5161   20.6046 H   0  0  0  0  0  0
  -26.8588  -30.8162   22.0051 H   0  0  0  0  0  0
  -28.1229  -28.9351   21.1767 H   0  0  0  0  0  0
  -25.9695  -25.8669   19.0262 H   0  0  0  0  0  0
  -23.9892  -27.2941   18.9794 H   0  0  0  0  0  0
  -23.8112  -30.5908   19.4062 H   0  0  0  0  0  0
  -22.7740  -29.2591   19.8249 H   0  0  0  0  0  0
  -25.1284  -36.1963   25.0831 H   0  0  0  0  0  0
  -20.9917  -28.3362   24.1195 H   0  0  0  0  0  0
  -20.5874  -26.2391   23.3487 H   0  0  0  0  0  0
  -21.6555  -26.7511   22.0899 H   0  0  0  0  0  0
  -19.6799  -25.5893   21.1709 H   0  0  0  0  0  0
  -19.6459  -27.2662   20.6574 H   0  0  0  0  0  0
  -17.4043  -26.6371   21.4247 H   0  0  0  0  0  0
  -18.0281  -26.0220   22.9337 H   0  0  0  0  0  0
  -19.7964  -30.7339   24.2104 H   0  0  0  0  0  0
  -17.4946  -31.6291   24.5064 H   0  0  0  0  0  0
  -15.5369  -30.2978   23.7651 H   0  0  0  0  0  0
  -15.8568  -28.0799   22.7314 H   0  0  0  0  0  0
  -24.5892  -30.7059   25.7831 H   0  0  0  0  0  0
  -24.8853  -32.2862   26.4929 H   0  0  0  0  0  0
  -25.8028  -30.8915   27.0265 H   0  0  0  0  0  0
  -26.2855  -29.6769   24.1260 H   0  0  0  0  0  0
  -27.3985  -29.7259   25.4735 H   0  0  0  0  0  0
  -27.8743  -30.4264   23.9451 H   0  0  0  0  0  0
  -27.2692  -33.3628   26.2087 H   0  0  0  0  0  0
  -28.3862  -32.6850   25.0336 H   0  0  0  0  0  0
  -28.0724  -31.8439   26.5446 H   0  0  0  0  0  0
  -28.2614  -38.0124   24.7506 H   0  0  0  0  0  0
  -28.1093  -36.2649   24.6302 H   0  0  0  0  0  0
  -27.2316  -37.1492   25.8876 H   0  0  0  0  0  0
  -20.9511  -29.8570   21.6444 H   0  0  0  0  0  0
  -26.0184  -38.2869   24.1409 H   0  0  0  0  0  0
  -30.5977  -19.9967   19.6611 H   0  0  0  0  0  0
  -26.4956  -22.0831   21.6968 H   0  0  0  0  0  0
  -25.4251  -20.7187   21.5149 H   0  0  0  0  0  0
  -25.8440  -21.6569   20.0832 H   0  0  0  0  0  0
  -28.6132  -22.2922   18.6292 H   0  0  0  0  0  0
  -29.9750  -22.4792   19.6863 H   0  0  0  0  0  0
  -31.1493  -17.4305   21.0824 H   0  0  0  0  0  0
  -30.8283  -17.2681   19.3878 H   0  0  0  0  0  0
  -28.5495  -23.7694   21.3550 H   0  0  0  0  0  0
  -27.1542  -23.6053   20.3262 H   0  0  0  0  0  0
  -27.9884  -25.0708   18.6067 H   0  0  0  0  0  0
  -29.5649  -25.0646   19.2863 H   0  0  0  0  0  0
  -28.9163  -15.6752   20.8071 H   0  0  0  0  0  0
  1 25  1  0  0  0
  1 30  2  0  0  0
  1 82  1  0  0  0
  2  3  1  0  0  0
  2 25  1  0  0  0
  2 83  1  0  0  0
  2 84  1  0  0  0
  3  4  1  0  0  0
  3 85  1  0  0  0
  3 86  1  0  0  0
  4  5  1  0  0  0
  4 87  1  0  0  0
  4 88  1  0  0  0
  5  6  1  0  0  0
  5 26  1  0  0  0
  5 89  1  0  0  0
  6 25  1  0  0  0
  6 90  1  0  0  0
  6 91  1  0  0  0
  7  8  2  0  0  0
  7 26  1  0  0  0
  7 29  1  0  0  0
  8  9  1  0  0  0
  8 22  1  0  0  0
  9 10  1  0  0  0
  9 27  2  0  0  0
 10 11  2  0  0  0
 10 15  1  0  0  0
 11 12  1  0  0  0
 11 92  1  0  0  0
 12 13  2  0  0  0
 12 93  1  0  0  0
 13 14  1  0  0  0
 13 31  1  0  0  0
 14 15  2  0  0  0
 14 94  1  0  0  0
 15 95  1  0  0  0
 16 17  2  0  0  0
 16 21  1  0  0  0
 16 31  1  0  0  0
 17 18  1  0  0  0
 17 96  1  0  0  0
 18 19  2  0  0  0
 18 97  1  0  0  0
 19 20  1  0  0  0
 19 24  1  0  0  0
 20 21  2  0  0  0
 20 98  1  0  0  0
 21 23  1  0  0  0
 22 28  1  0  0  0
 22 32  2  0  0  0
 26 27  1  0  0  0
 28 99  1  0  0  0
 28100  1  0  0  0
 29101  1  0  0  0
 29102  1  0  0  0
 33 34  1  0  0  0
 33 66  1  0  0  0
 33 70  2  0  0  0
 34 36  1  0  0  0
 34 59  1  0  0  0
 34103  1  0  0  0
 35 44  2  0  0  0
 35 45  1  0  0  0
 35 68  1  0  0  0
 36 56  1  0  0  0
 36104  1  0  0  0
 37 39  1  0  0  0
 37 47  1  0  0  0
 37 66  1  0  0  0
 37105  1  0  0  0
 38 43  2  0  0  0
 38 46  1  0  0  0
 38 47  1  0  0  0
 39 64  1  0  0  0
 39 67  2  0  0  0
 40 52  1  0  0  0
 40 53  2  0  0  0
 40 58  1  0  0  0
 41106  1  0  0  0
 41107  1  0  0  0
 41108  1  0  0  0
 41 48  1  0  0  0
 42 43  1  0  0  0
 42 66  1  0  0  0
 42109  1  0  0  0
 42110  1  0  0  0
 43 44  1  0  0  0
 44111  1  0  0  0
 45 46  2  0  0  0
 45112  1  0  0  0
 46113  1  0  0  0
 47114  1  0  0  0
 47115  1  0  0  0
 48 56  1  0  0  0
 48 65  1  0  0  0
 48116  1  0  0  0
 49 50  1  0  0  0
 49 53  1  0  0  0
 49 64  1  0  0  0
 49117  1  0  0  0
 50 51  1  0  0  0
 50118  1  0  0  0
 50119  1  0  0  0
 51 52  1  0  0  0
 51120  1  0  0  0
 51121  1  0  0  0
 52122  1  0  0  0
 52123  1  0  0  0
 53 54  1  0  0  0
 54 55  2  0  0  0
 54124  1  0  0  0
 55 57  1  0  0  0
 55125  1  0  0  0
 56 69  2  0  0  0
 57 58  2  0  0  0
 57126  1  0  0  0
 58127  1  0  0  0
 59 60  1  0  0  0
 59 61  1  0  0  0
 59 62  1  0  0  0
 60128  1  0  0  0
 60129  1  0  0  0
 60130  1  0  0  0
 61131  1  0  0  0
 61132  1  0  0  0
 61133  1  0  0  0
 62134  1  0  0  0
 62135  1  0  0  0
 62136  1  0  0  0
 63 65  1  0  0  0
 63137  1  0  0  0
 63138  1  0  0  0
 63139  1  0  0  0
 64140  1  0  0  0
 65141  1  0  0  0
 68 79  1  0  0  0
 71 72  2  0  0  0
 71 73  1  0  0  0
 71142  1  0  0  0
 72 74  1  0  0  0
 72 76  1  0  0  0
 73 77  1  0  0  0
 73 80  2  0  0  0
 74 75  1  0  0  0
 74 81  2  0  0  0
 75143  1  0  0  0
 75144  1  0  0  0
 75145  1  0  0  0
 76 78  1  0  0  0
 76146  1  0  0  0
 76147  1  0  0  0
 77 82  1  0  0  0
 77148  1  0  0  0
 77149  1  0  0  0
 78 79  1  0  0  0
 78150  1  0  0  0
 78151  1  0  0  0
 79152  1  0  0  0
 79153  1  0  0  0
 80 81  1  0  0  0
 82154  1  0  0  0
M  ISO  4   1 100  68 101  79 101  82 100
M  END
> <chiral flag>
0

> <version>
0

> <s_m_source_file>
/data/baiqing/PycharmProjects/Reinvent-master-3.2/result/LINK_invent/BTK/process_docking_weight1_custom_sum_contain_oxygen_bond_distance_aromatic_linkinvent_7_9_3/rearranged_h_0090.sdf

> <i_m_source_file_index>
50

> <r_mmod_Potential_Energy-OPLS-2005>
25.5635967254639

> <r_mmod_Stretch_Energy-OPLS-2005>
106.210472106934

> <r_mmod_Bend_Energy-OPLS-2005>
178.852279663086

> <r_mmod_Torsional_Energy-OPLS-2005>
195.306045532227

> <r_mmod_Improper_Torsional_Energy-OPLS-2005>
5.72102832794189

> <r_mmod_Van_der_Waal_Energy-OPLS-2005>
139.174850463867

> <r_mmod_Electrostatic_Energy-OPLS-2005>
-443.626495361328

> <r_mmod_Solvation_Energy-OPLS-2005>
-223.350860595703

> <b_mmod_Minimization_Converged-OPLS-2005>
0

> <r_mmod_RMS_Derivative-OPLS-2005>
5.67523431777954

$$$$
51
                    3D
 Structure written by MMmdl.
173180  0  0  1  0            999 V2000
  -30.8436  -14.4881   20.2454 C   0  0  0  0  0  0
  -30.3804  -12.2837   19.3708 C   0  0  0  0  0  0
  -29.4599  -12.4296   18.1606 C   0  0  0  0  0  0
  -27.9911  -12.3058   18.6312 C   0  0  0  0  0  0
  -27.6320  -13.2159   19.8480 C   0  0  2  0  0  0
  -28.7450  -13.1844   20.9291 C   0  0  0  0  0  0
  -25.2407  -13.8002   20.6182 C   0  0  0  0  0  0
  -24.1812  -13.0256   20.9681 C   0  0  0  0  0  0
  -24.6486  -11.6733   20.9033 C   0  0  0  0  0  0
  -23.9189  -10.4098   21.0411 C   0  0  0  0  0  0
  -24.3704   -9.3970   21.9171 C   0  0  0  0  0  0
  -23.6301   -8.2062   22.0810 C   0  0  0  0  0  0
  -22.4248   -8.0179   21.3647 C   0  0  0  0  0  0
  -21.9908   -9.0102   20.4723 C   0  0  0  0  0  0
  -22.7339  -10.1912   20.3009 C   0  0  0  0  0  0
  -21.6784   -6.0701   22.5299 C   0  0  0  0  0  0
  -21.4000   -6.5661   23.8202 C   0  0  0  0  0  0
  -21.3683   -5.6829   24.9191 C   0  0  0  0  0  0
  -21.6032   -4.3074   24.7224 C   0  0  0  0  0  0
  -21.8827   -3.8154   23.4361 C   0  0  0  0  0  0
  -21.9176   -4.6955   22.3417 C   0  0  0  0  0  0
  -22.7757  -13.4965   21.2146 C   0  0  0  0  0  0
  -22.1616   -4.2169   21.0987 F   0  0  0  0  0  0
  -21.5647   -3.4543   25.7731 F   0  0  0  0  0  0
  -30.0302  -13.4003   20.2349 N   0  0  0  0  0  0
  -26.2958  -12.9317   20.3642 N   0  0  0  0  0  0
  -25.9452  -11.6451   20.6104 N   0  0  0  0  0  0
  -22.0491  -12.7862   22.0633 N   0  0  0  0  0  0
  -25.3522  -15.1764   20.4400 N   0  0  0  0  0  0
  -31.9162  -14.4440   20.8111 O   0  0  0  0  0  0
  -21.6572   -6.8841   21.4294 O   0  0  0  0  0  0
  -22.3553  -14.5368   20.6993 O   0  0  0  0  0  0
  -24.6229  -31.8611   23.2046 C   0  0  0  0  0  0
  -25.9082  -32.4771   23.8369 C   0  0  1  0  0  0
  -27.1981  -27.3903   20.1095 C   0  0  0  0  0  0
  -25.5924  -33.8565   24.2302 N   0  0  0  0  0  0
  -23.4148  -30.4912   21.5408 C   0  0  2  0  0  0
  -24.8559  -28.9666   20.0880 C   0  0  0  0  0  0
  -22.7495  -29.4642   22.4862 C   0  0  0  0  0  0
  -18.0353  -28.1285   22.8543 C   0  0  0  0  0  0
  -24.1480  -36.7295   23.2650 C   0  0  0  0  0  0
  -25.9562  -30.8141   21.3671 C   0  0  0  0  0  0
  -26.0197  -29.4595   20.6903 C   0  0  0  0  0  0
  -27.2071  -28.6822   20.6871 C   0  0  0  0  0  0
  -26.0255  -26.9340   19.4810 C   0  0  0  0  0  0
  -24.8569  -27.7128   19.4614 C   0  0  0  0  0  0
  -23.6189  -29.8296   20.1499 C   0  0  0  0  0  0
  -25.4085  -36.3066   24.0326 C   0  0  1  0  0  0
  -20.5981  -28.3611   23.1225 C   0  0  2  0  0  0
  -20.6786  -26.9306   22.5328 C   0  0  0  0  0  0
  -19.5714  -26.6292   21.5201 C   0  0  0  0  0  0
  -18.1948  -26.7839   22.1683 C   0  0  0  0  0  0
  -19.1628  -28.8762   23.2888 C   0  0  0  0  0  0
  -18.9532  -30.1399   23.8847 C   0  0  0  0  0  0
  -17.6531  -30.6539   24.0475 C   0  0  0  0  0  0
  -25.9044  -34.9447   23.5132 C   0  0  0  0  0  0
  -16.5417  -29.9014   23.6319 C   0  0  0  0  0  0
  -16.7340  -28.6390   23.0429 C   0  0  0  0  0  0
  -26.4496  -31.6581   25.0737 C   0  0  0  0  0  0
  -25.3792  -31.3658   26.1522 C   0  0  0  0  0  0
  -27.0336  -30.3010   24.6149 C   0  0  0  0  0  0
  -27.6062  -32.4297   25.7526 C   0  0  0  0  0  0
  -27.5548  -37.1798   24.8459 C   0  0  0  0  0  0
  -21.4217  -29.3048   22.3698 N   0  0  0  0  0  0
  -26.4253  -37.3744   23.9417 N   0  0  0  0  0  0
  -24.6827  -31.0703   22.0943 N   0  0  0  0  0  0
  -23.4251  -28.8098   23.2836 O   0  0  0  0  0  0
  -28.2882  -26.5457   20.1796 O   0  0  0  0  0  0
  -26.5608  -34.8900   22.4707 O   0  0  0  0  0  0
  -23.5400  -32.1374   23.7452 O   0  0  0  0  0  0
  -31.7054  -15.3888   16.9004 C   0  0  0  0  0  0
  -31.9615  -17.4458   18.3835 C   0  0  0  0  0  0
  -33.3205  -15.4098   18.6957 C   0  0  0  0  0  0
  -30.7432  -21.2621   21.1385 C   0  0  0  0  0  0
  -28.8067  -16.8520   20.0421 C   0  0  0  0  0  0
  -28.7970  -18.3887   19.8123 C   0  0  0  0  0  0
  -28.2502  -22.8078   19.8726 C   0  0  0  0  0  0
  -28.9218  -24.0970   20.4396 C   0  0  0  0  0  0
  -29.4380  -16.0455   18.8752 C   0  0  0  0  0  0
  -29.3716  -19.2432   20.9571 C   0  0  0  0  0  0
  -28.2873  -21.5081   20.7393 C   0  0  0  0  0  0
  -28.0066  -25.2880   20.8618 C   0  0  0  0  0  0
  -31.8796  -15.8913   18.3508 C   0  0  0  0  0  0
  -30.7255  -15.3747   19.1987 N   0  0  0  0  0  0
  -29.5170  -20.6713   20.5472 N   0  3  1  0  0  0
  -31.4365  -12.2935   19.0922 H   0  0  0  0  0  0
  -30.1966  -11.3294   19.8659 H   0  0  0  0  0  0
  -29.6991  -11.6779   17.4080 H   0  0  0  0  0  0
  -29.6331  -13.3884   17.6742 H   0  0  0  0  0  0
  -27.8290  -11.2562   18.8914 H   0  0  0  0  0  0
  -27.3106  -12.5074   17.8039 H   0  0  0  0  0  0
  -27.5520  -14.2307   19.4895 H   0  0  0  0  0  0
  -28.7574  -12.2290   21.4591 H   0  0  0  0  0  0
  -28.5506  -13.9577   21.6760 H   0  0  0  0  0  0
  -25.2873   -9.5389   22.4721 H   0  0  0  0  0  0
  -23.9973   -7.4436   22.7556 H   0  0  0  0  0  0
  -21.0750   -8.8508   19.9152 H   0  0  0  0  0  0
  -22.3726  -10.9313   19.5987 H   0  0  0  0  0  0
  -21.1996   -7.6180   23.9669 H   0  0  0  0  0  0
  -21.1525   -6.0603   25.9082 H   0  0  0  0  0  0
  -22.0639   -2.7641   23.2792 H   0  0  0  0  0  0
  -22.4110  -11.9431   22.4897 H   0  0  0  0  0  0
  -21.1116  -13.0839   22.2992 H   0  0  0  0  0  0
  -24.4356  -15.6145   20.5679 H   0  0  0  0  0  0
  -25.7212  -15.3899   19.5224 H   0  0  0  0  0  0
  -26.7202  -32.5466   23.1169 H   0  0  0  0  0  0
  -24.9975  -33.9686   25.0373 H   0  0  0  0  0  0
  -22.7039  -31.3129   21.4009 H   0  0  0  0  0  0
  -23.3705  -35.9686   23.3331 H   0  0  0  0  0  0
  -24.3600  -36.8878   22.2075 H   0  0  0  0  0  0
  -23.7263  -37.6508   23.6644 H   0  0  0  0  0  0
  -26.1032  -31.5757   20.6024 H   0  0  0  0  0  0
  -26.8377  -30.8455   21.9984 H   0  0  0  0  0  0
  -28.1096  -29.0454   21.1604 H   0  0  0  0  0  0
  -26.0086  -25.9531   19.0297 H   0  0  0  0  0  0
  -23.9658  -27.3272   18.9887 H   0  0  0  0  0  0
  -23.7325  -30.6046   19.3967 H   0  0  0  0  0  0
  -22.7423  -29.2421   19.8550 H   0  0  0  0  0  0
  -25.1272  -36.1947   25.0797 H   0  0  0  0  0  0
  -21.0154  -28.3132   24.1299 H   0  0  0  0  0  0
  -20.5696  -26.2218   23.3553 H   0  0  0  0  0  0
  -21.6611  -26.7269   22.1069 H   0  0  0  0  0  0
  -19.6802  -25.6214   21.1210 H   0  0  0  0  0  0
  -19.6606  -27.3130   20.6753 H   0  0  0  0  0  0
  -17.4182  -26.6620   21.4116 H   0  0  0  0  0  0
  -18.0348  -25.9971   22.9062 H   0  0  0  0  0  0
  -19.8025  -30.7250   24.2118 H   0  0  0  0  0  0
  -17.5088  -31.6257   24.4994 H   0  0  0  0  0  0
  -15.5418  -30.2882   23.7601 H   0  0  0  0  0  0
  -15.8749  -28.0653   22.7191 H   0  0  0  0  0  0
  -24.5975  -30.6965   25.7879 H   0  0  0  0  0  0
  -24.9030  -32.2820   26.5006 H   0  0  0  0  0  0
  -25.8254  -30.8824   27.0244 H   0  0  0  0  0  0
  -26.2891  -29.6756   24.1216 H   0  0  0  0  0  0
  -27.4069  -29.7225   25.4621 H   0  0  0  0  0  0
  -27.8743  -30.4262   23.9331 H   0  0  0  0  0  0
  -27.2643  -33.3551   26.2157 H   0  0  0  0  0  0
  -28.3878  -32.6920   25.0388 H   0  0  0  0  0  0
  -28.0754  -31.8419   26.5421 H   0  0  0  0  0  0
  -28.2567  -38.0080   24.7473 H   0  0  0  0  0  0
  -28.1030  -36.2624   24.6329 H   0  0  0  0  0  0
  -27.2300  -37.1504   25.8860 H   0  0  0  0  0  0
  -20.9313  -29.8923   21.7136 H   0  0  0  0  0  0
  -26.0153  -38.2825   24.1390 H   0  0  0  0  0  0
  -32.4704  -15.8213   16.2518 H   0  0  0  0  0  0
  -30.7324  -15.6355   16.4750 H   0  0  0  0  0  0
  -31.8187  -14.3051   16.8068 H   0  0  0  0  0  0
  -31.2406  -17.8999   17.7104 H   0  0  0  0  0  0
  -32.9163  -17.8076   18.0083 H   0  0  0  0  0  0
  -31.8148  -17.8470   19.3925 H   0  0  0  0  0  0
  -34.0326  -15.7676   17.9514 H   0  0  0  0  0  0
  -33.4416  -14.3245   18.7285 H   0  0  0  0  0  0
  -33.6639  -15.8272   19.6443 H   0  0  0  0  0  0
  -31.5938  -20.5809   21.0386 H   0  0  0  0  0  0
  -30.6064  -21.4437   22.2046 H   0  0  0  0  0  0
  -31.0293  -22.1981   20.6535 H   0  0  0  0  0  0
  -27.7702  -16.5199   20.1456 H   0  0  0  0  0  0
  -29.3075  -16.6137   20.9827 H   0  0  0  0  0  0
  -27.7760  -18.7181   19.6183 H   0  0  0  0  0  0
  -29.3795  -18.6416   18.9241 H   0  0  0  0  0  0
  -27.2133  -23.0269   19.6120 H   0  0  0  0  0  0
  -28.7208  -22.5647   18.9213 H   0  0  0  0  0  0
  -29.6500  -24.4445   19.7099 H   0  0  0  0  0  0
  -29.5224  -23.8147   21.2990 H   0  0  0  0  0  0
  -28.7604  -15.3409   18.4110 H   0  0  0  0  0  0
  -29.5248  -16.7155   18.0321 H   0  0  0  0  0  0
  -30.3584  -18.8351   21.1724 H   0  0  0  0  0  0
  -28.8112  -19.1506   21.8913 H   0  0  0  0  0  0
  -27.4175  -20.9068   20.4526 H   0  0  0  0  0  0
  -28.1639  -21.7269   21.7978 H   0  0  0  0  0  0
  -28.1555  -25.4744   21.9262 H   0  0  0  0  0  0
  -26.9599  -24.9747   20.8141 H   0  0  0  0  0  0
  -29.6873  -20.6387   19.5540 H   0  0  0  0  0  0
  1 25  1  0  0  0
  1 30  2  0  0  0
  1 84  1  0  0  0
  2  3  1  0  0  0
  2 25  1  0  0  0
  2 86  1  0  0  0
  2 87  1  0  0  0
  3  4  1  0  0  0
  3 88  1  0  0  0
  3 89  1  0  0  0
  4  5  1  0  0  0
  4 90  1  0  0  0
  4 91  1  0  0  0
  5  6  1  0  0  0
  5 26  1  0  0  0
  5 92  1  0  0  0
  6 25  1  0  0  0
  6 93  1  0  0  0
  6 94  1  0  0  0
  7  8  2  0  0  0
  7 26  1  0  0  0
  7 29  1  0  0  0
  8  9  1  0  0  0
  8 22  1  0  0  0
  9 10  1  0  0  0
  9 27  2  0  0  0
 10 11  2  0  0  0
 10 15  1  0  0  0
 11 12  1  0  0  0
 11 95  1  0  0  0
 12 13  2  0  0  0
 12 96  1  0  0  0
 13 14  1  0  0  0
 13 31  1  0  0  0
 14 15  2  0  0  0
 14 97  1  0  0  0
 15 98  1  0  0  0
 16 17  2  0  0  0
 16 21  1  0  0  0
 16 31  1  0  0  0
 17 18  1  0  0  0
 17 99  1  0  0  0
 18 19  2  0  0  0
 18100  1  0  0  0
 19 20  1  0  0  0
 19 24  1  0  0  0
 20 21  2  0  0  0
 20101  1  0  0  0
 21 23  1  0  0  0
 22 28  1  0  0  0
 22 32  2  0  0  0
 26 27  1  0  0  0
 28102  1  0  0  0
 28103  1  0  0  0
 29104  1  0  0  0
 29105  1  0  0  0
 33 34  1  0  0  0
 33 66  1  0  0  0
 33 70  2  0  0  0
 34 36  1  0  0  0
 34 59  1  0  0  0
 34106  1  0  0  0
 35 44  2  0  0  0
 35 45  1  0  0  0
 35 68  1  0  0  0
 36 56  1  0  0  0
 36107  1  0  0  0
 37 39  1  0  0  0
 37 47  1  0  0  0
 37 66  1  0  0  0
 37108  1  0  0  0
 38 43  2  0  0  0
 38 46  1  0  0  0
 38 47  1  0  0  0
 39 64  1  0  0  0
 39 67  2  0  0  0
 40 52  1  0  0  0
 40 53  2  0  0  0
 40 58  1  0  0  0
 41109  1  0  0  0
 41110  1  0  0  0
 41111  1  0  0  0
 41 48  1  0  0  0
 42 43  1  0  0  0
 42 66  1  0  0  0
 42112  1  0  0  0
 42113  1  0  0  0
 43 44  1  0  0  0
 44114  1  0  0  0
 45 46  2  0  0  0
 45115  1  0  0  0
 46116  1  0  0  0
 47117  1  0  0  0
 47118  1  0  0  0
 48 56  1  0  0  0
 48 65  1  0  0  0
 48119  1  0  0  0
 49 50  1  0  0  0
 49 53  1  0  0  0
 49 64  1  0  0  0
 49120  1  0  0  0
 50 51  1  0  0  0
 50121  1  0  0  0
 50122  1  0  0  0
 51 52  1  0  0  0
 51123  1  0  0  0
 51124  1  0  0  0
 52125  1  0  0  0
 52126  1  0  0  0
 53 54  1  0  0  0
 54 55  2  0  0  0
 54127  1  0  0  0
 55 57  1  0  0  0
 55128  1  0  0  0
 56 69  2  0  0  0
 57 58  2  0  0  0
 57129  1  0  0  0
 58130  1  0  0  0
 59 60  1  0  0  0
 59 61  1  0  0  0
 59 62  1  0  0  0
 60131  1  0  0  0
 60132  1  0  0  0
 60133  1  0  0  0
 61134  1  0  0  0
 61135  1  0  0  0
 61136  1  0  0  0
 62137  1  0  0  0
 62138  1  0  0  0
 62139  1  0  0  0
 63 65  1  0  0  0
 63140  1  0  0  0
 63141  1  0  0  0
 63142  1  0  0  0
 64143  1  0  0  0
 65144  1  0  0  0
 68 82  1  0  0  0
 71145  1  0  0  0
 71146  1  0  0  0
 71147  1  0  0  0
 71 83  1  0  0  0
 72 83  1  0  0  0
 72148  1  0  0  0
 72149  1  0  0  0
 72150  1  0  0  0
 73 83  1  0  0  0
 73151  1  0  0  0
 73152  1  0  0  0
 73153  1  0  0  0
 74154  1  0  0  0
 74155  1  0  0  0
 74156  1  0  0  0
 74 85  1  0  0  0
 75 76  1  0  0  0
 75 79  1  0  0  0
 75157  1  0  0  0
 75158  1  0  0  0
 76 80  1  0  0  0
 76159  1  0  0  0
 76160  1  0  0  0
 77 78  1  0  0  0
 77 81  1  0  0  0
 77161  1  0  0  0
 77162  1  0  0  0
 78 82  1  0  0  0
 78163  1  0  0  0
 78164  1  0  0  0
 79 84  1  0  0  0
 79165  1  0  0  0
 79166  1  0  0  0
 80 85  1  0  0  0
 80167  1  0  0  0
 80168  1  0  0  0
 81 85  1  0  0  0
 81169  1  0  0  0
 81170  1  0  0  0
 82171  1  0  0  0
 82172  1  0  0  0
 83 84  1  0  0  0
 85173  1  0  0  0
M  CHG  1  85   1
M  ISO  4   1 100  68 101  82 101  84 100
M  END
> <chiral flag>
0

> <version>
0

> <s_m_source_file>
/data/baiqing/PycharmProjects/Reinvent-master-3.2/result/LINK_invent/BTK/process_docking_weight1_custom_sum_contain_oxygen_bond_distance_aromatic_linkinvent_7_9_3/rearranged_h_0090.sdf

> <i_m_source_file_index>
51

> <r_mmod_Potential_Energy-OPLS-2005>
413.265960693359

> <r_mmod_Stretch_Energy-OPLS-2005>
58.8181762695312

> <r_mmod_Bend_Energy-OPLS-2005>
142.525360107422

> <r_mmod_Torsional_Energy-OPLS-2005>
433.037902832031

> <r_mmod_Improper_Torsional_Energy-OPLS-2005>
24.9838790893555

> <r_mmod_Van_der_Waal_Energy-OPLS-2005>
156.819351196289

> <r_mmod_Electrostatic_Energy-OPLS-2005>
-113.967750549316

> <r_mmod_Solvation_Energy-OPLS-2005>
-411.086303710938

> <b_mmod_Minimization_Converged-OPLS-2005>
0

> <r_mmod_RMS_Derivative-OPLS-2005>
13.2569646835327

$$$$
52
                    3D
 Structure written by MMmdl.
174182  0  0  1  0            999 V2000
  -30.6458  -14.5489   20.4921 C   0  0  0  0  0  0
  -30.4312  -12.3260   19.4385 C   0  0  0  0  0  0
  -29.5056  -12.4988   18.2145 C   0  0  0  0  0  0
  -28.0237  -12.3668   18.6211 C   0  0  0  0  0  0
  -27.6623  -13.2108   19.8743 C   0  0  2  0  0  0
  -28.7064  -13.0166   21.0006 C   0  0  0  0  0  0
  -25.2594  -13.8169   20.5658 C   0  0  0  0  0  0
  -24.1842  -13.0437   20.9207 C   0  0  0  0  0  0
  -24.6405  -11.6925   20.8742 C   0  0  0  0  0  0
  -23.9058  -10.4300   21.0399 C   0  0  0  0  0  0
  -24.3620   -9.4226   21.9178 C   0  0  0  0  0  0
  -23.6301   -8.2265   22.0751 C   0  0  0  0  0  0
  -22.4287   -8.0294   21.3545 C   0  0  0  0  0  0
  -21.9915   -9.0266   20.4645 C   0  0  0  0  0  0
  -22.7239  -10.2150   20.3047 C   0  0  0  0  0  0
  -21.6842   -6.0739   22.5288 C   0  0  0  0  0  0
  -21.4005   -6.5632   23.8228 C   0  0  0  0  0  0
  -21.3670   -5.6785   24.9179 C   0  0  0  0  0  0
  -21.6043   -4.3049   24.7227 C   0  0  0  0  0  0
  -21.8823   -3.8149   23.4349 C   0  0  0  0  0  0
  -21.9197   -4.6965   22.3403 C   0  0  0  0  0  0
  -22.7874  -13.5250   21.1876 C   0  0  0  0  0  0
  -22.1659   -4.2154   21.0980 F   0  0  0  0  0  0
  -21.5641   -3.4540   25.7737 F   0  0  0  0  0  0
  -30.0290  -13.3322   20.4398 N   0  0  0  0  0  0
  -26.3025  -12.9338   20.3365 N   0  0  0  0  0  0
  -25.9342  -11.6492   20.5793 N   0  0  0  0  0  0
  -22.0487  -12.8225   22.0410 N   0  0  0  0  0  0
  -25.4282  -15.1871   20.3998 N   0  0  0  0  0  0
  -31.7911  -14.7273   20.0742 O   0  0  0  0  0  0
  -21.6647   -6.8903   21.4256 O   0  0  0  0  0  0
  -22.3557  -14.5548   20.6720 O   0  0  0  0  0  0
  -24.6171  -31.8645   23.2126 C   0  0  0  0  0  0
  -25.9046  -32.4810   23.8434 C   0  0  1  0  0  0
  -27.2571  -27.4278   20.0870 C   0  0  0  0  0  0
  -25.5904  -33.8610   24.2341 N   0  0  0  0  0  0
  -23.4053  -30.4858   21.5504 C   0  0  2  0  0  0
  -24.8528  -28.9421   20.1176 C   0  0  0  0  0  0
  -22.7430  -29.4612   22.5014 C   0  0  0  0  0  0
  -18.0259  -28.1372   22.8474 C   0  0  0  0  0  0
  -24.1473  -36.7325   23.2648 C   0  0  0  0  0  0
  -25.9347  -30.8229   21.3661 C   0  0  0  0  0  0
  -26.0113  -29.4600   20.7049 C   0  0  0  0  0  0
  -27.2080  -28.7104   20.6817 C   0  0  0  0  0  0
  -26.0634  -26.9040   19.5388 C   0  0  0  0  0  0
  -24.8709  -27.6594   19.5439 C   0  0  0  0  0  0
  -23.6150  -29.8124   20.1653 C   0  0  0  0  0  0
  -25.4097  -36.3126   24.0360 C   0  0  1  0  0  0
  -20.5848  -28.3626   23.1332 C   0  0  2  0  0  0
  -20.6745  -26.9361   22.5414 C   0  0  0  0  0  0
  -19.5712  -26.6362   21.5219 C   0  0  0  0  0  0
  -18.1901  -26.7924   22.1633 C   0  0  0  0  0  0
  -19.1505  -28.8819   23.2887 C   0  0  0  0  0  0
  -18.9442  -30.1446   23.8896 C   0  0  0  0  0  0
  -17.6438  -30.6582   24.0547 C   0  0  0  0  0  0
  -25.9028  -34.9482   23.5161 C   0  0  0  0  0  0
  -16.5332  -29.9073   23.6326 C   0  0  0  0  0  0
  -16.7239  -28.6482   23.0340 C   0  0  0  0  0  0
  -26.4449  -31.6636   25.0809 C   0  0  0  0  0  0
  -25.3709  -31.3766   26.1569 C   0  0  0  0  0  0
  -27.0305  -30.3080   24.6252 C   0  0  0  0  0  0
  -27.6016  -32.4370   25.7552 C   0  0  0  0  0  0
  -27.5571  -37.1832   24.8460 C   0  0  0  0  0  0
  -21.4166  -29.3012   22.3768 N   0  0  0  0  0  0
  -26.4275  -37.3814   23.9423 N   0  0  0  0  0  0
  -24.6716  -31.0699   22.1033 N   0  0  0  0  0  0
  -23.4220  -28.8145   23.3026 O   0  0  0  0  0  0
  -28.4746  -26.7676   20.1191 O   0  0  0  0  0  0
  -26.5552  -34.8921   22.4699 O   0  0  0  0  0  0
  -23.5359  -32.1429   23.7501 O   0  0  0  0  0  0
  -29.2599  -20.6244   20.2970 C   0  0  0  0  0  0
  -27.4998  -19.1487   19.5511 C   0  0  0  0  0  0
  -28.6970  -19.3224   20.2618 C   0  0  0  0  0  0
  -28.7195  -21.6739   19.4977 C   0  0  0  0  0  0
  -26.8717  -20.1906   18.8278 C   0  0  0  0  0  0
  -27.5981  -21.4070   18.6551 C   0  0  0  0  0  0
  -27.4606  -21.6497   16.1270 C   0  0  0  0  0  0
  -24.5575  -21.0553   17.8045 C   0  0  0  0  0  0
  -24.6100  -19.1985   19.4140 C   0  0  0  0  0  0
  -28.5295  -25.8436   17.8125 C   0  0  0  0  0  0
  -29.2470  -18.1155   21.0619 C   0  0  0  0  0  0
  -29.3740  -23.0716   19.5133 C   0  0  0  0  0  0
  -27.2913  -22.3527   17.4873 C   0  0  0  0  0  0
  -28.4122  -24.2578   19.8780 C   0  0  0  0  0  0
  -29.9376  -16.9802   20.2235 C   0  0  0  0  0  0
  -25.4383  -19.8913   18.3124 C   0  0  0  0  0  0
  -28.8327  -25.6347   19.3038 C   0  0  2  0  0  0
  -29.8373  -15.6009   20.7864 N   0  0  0  0  0  0
  -31.4766  -12.4282   19.1365 H   0  0  0  0  0  0
  -30.3411  -11.3166   19.8464 H   0  0  0  0  0  0
  -29.7499  -11.7626   17.4464 H   0  0  0  0  0  0
  -29.6819  -13.4770   17.7645 H   0  0  0  0  0  0
  -27.8274  -11.3122   18.8162 H   0  0  0  0  0  0
  -27.3807  -12.6477   17.7864 H   0  0  0  0  0  0
  -27.6960  -14.2562   19.5643 H   0  0  0  0  0  0
  -28.6932  -11.9874   21.3632 H   0  0  0  0  0  0
  -28.4755  -13.6448   21.8617 H   0  0  0  0  0  0
  -25.2772   -9.5696   22.4744 H   0  0  0  0  0  0
  -24.0009   -7.4649   22.7456 H   0  0  0  0  0  0
  -21.0861   -8.8794   19.8936 H   0  0  0  0  0  0
  -22.3717  -10.9688   19.6153 H   0  0  0  0  0  0
  -21.1982   -7.6145   23.9728 H   0  0  0  0  0  0
  -21.1480   -6.0510   25.9085 H   0  0  0  0  0  0
  -22.0589   -2.7618   23.2844 H   0  0  0  0  0  0
  -22.4069  -11.9899   22.4819 H   0  0  0  0  0  0
  -21.1095  -13.1261   22.2572 H   0  0  0  0  0  0
  -24.6535  -15.8326   20.4885 H   0  0  0  0  0  0
  -26.2646  -15.6211   20.0328 H   0  0  0  0  0  0
  -26.7102  -32.5504   23.1183 H   0  0  0  0  0  0
  -25.0105  -33.9733   25.0521 H   0  0  0  0  0  0
  -22.6939  -31.3029   21.4051 H   0  0  0  0  0  0
  -23.3726  -35.9656   23.3318 H   0  0  0  0  0  0
  -24.3583  -36.8926   22.2054 H   0  0  0  0  0  0
  -23.7197  -37.6541   23.6633 H   0  0  0  0  0  0
  -26.0689  -31.5941   20.6057 H   0  0  0  0  0  0
  -26.8153  -30.8643   21.9969 H   0  0  0  0  0  0
  -28.1087  -29.1131   21.1223 H   0  0  0  0  0  0
  -26.0208  -25.9035   19.1415 H   0  0  0  0  0  0
  -23.9647  -27.2398   19.1265 H   0  0  0  0  0  0
  -23.7335  -30.5852   19.4047 H   0  0  0  0  0  0
  -22.7381  -29.2378   19.8624 H   0  0  0  0  0  0
  -25.1258  -36.2029   25.0848 H   0  0  0  0  0  0
  -20.9930  -28.3169   24.1455 H   0  0  0  0  0  0
  -20.5677  -26.2222   23.3598 H   0  0  0  0  0  0
  -21.6620  -26.7426   22.1187 H   0  0  0  0  0  0
  -19.6892  -25.6287   21.1223 H   0  0  0  0  0  0
  -19.6690  -27.3197   20.6772 H   0  0  0  0  0  0
  -17.4187  -26.6650   21.4023 H   0  0  0  0  0  0
  -18.0286  -26.0088   22.9044 H   0  0  0  0  0  0
  -19.7907  -30.7231   24.2316 H   0  0  0  0  0  0
  -17.4992  -31.6281   24.5120 H   0  0  0  0  0  0
  -15.5335  -30.2955   23.7710 H   0  0  0  0  0  0
  -15.8626  -28.0821   22.7077 H   0  0  0  0  0  0
  -24.5832  -30.7165   25.7916 H   0  0  0  0  0  0
  -24.8964  -32.2938   26.5070 H   0  0  0  0  0  0
  -25.8084  -30.8902   27.0298 H   0  0  0  0  0  0
  -26.2916  -29.6843   24.1227 H   0  0  0  0  0  0
  -27.3943  -29.7338   25.4772 H   0  0  0  0  0  0
  -27.8788  -30.4375   23.9541 H   0  0  0  0  0  0
  -27.2629  -33.3623   26.2201 H   0  0  0  0  0  0
  -28.3797  -32.7022   25.0389 H   0  0  0  0  0  0
  -28.0735  -31.8498   26.5426 H   0  0  0  0  0  0
  -28.2619  -38.0100   24.7505 H   0  0  0  0  0  0
  -28.1054  -36.2653   24.6293 H   0  0  0  0  0  0
  -27.2318  -37.1485   25.8870 H   0  0  0  0  0  0
  -20.9373  -29.8764   21.6992 H   0  0  0  0  0  0
  -26.0195  -38.2918   24.1378 H   0  0  0  0  0  0
  -30.1225  -20.8078   20.9248 H   0  0  0  0  0  0
  -27.0342  -18.1771   19.5900 H   0  0  0  0  0  0
  -27.2522  -22.3194   15.2927 H   0  0  0  0  0  0
  -26.8168  -20.7768   16.0311 H   0  0  0  0  0  0
  -28.4868  -21.3011   16.0099 H   0  0  0  0  0  0
  -24.4915  -21.8681   18.5282 H   0  0  0  0  0  0
  -23.5385  -20.7178   17.6190 H   0  0  0  0  0  0
  -24.8722  -21.4436   16.8420 H   0  0  0  0  0  0
  -24.6902  -19.7532   20.3496 H   0  0  0  0  0  0
  -24.9356  -18.1772   19.6034 H   0  0  0  0  0  0
  -23.5544  -19.1219   19.1570 H   0  0  0  0  0  0
  -29.0877  -25.1380   17.1990 H   0  0  0  0  0  0
  -28.8161  -26.8479   17.4987 H   0  0  0  0  0  0
  -27.4788  -25.6925   17.5777 H   0  0  0  0  0  0
  -28.3939  -17.6996   21.5990 H   0  0  0  0  0  0
  -29.9301  -18.4773   21.8326 H   0  0  0  0  0  0
  -29.8229  -23.2332   18.5326 H   0  0  0  0  0  0
  -30.2262  -23.0761   20.1938 H   0  0  0  0  0  0
  -27.9983  -23.1707   17.4414 H   0  0  0  0  0  0
  -26.3325  -22.8498   17.6135 H   0  0  0  0  0  0
  -27.4011  -24.0501   19.5363 H   0  0  0  0  0  0
  -28.3400  -24.3460   20.9622 H   0  0  0  0  0  0
  -30.9730  -17.2545   20.0194 H   0  0  0  0  0  0
  -29.4631  -16.9339   19.2423 H   0  0  0  0  0  0
  -25.5571  -19.1976   17.4813 H   0  0  0  0  0  0
  -29.9205  -25.6414   19.3726 H   0  0  0  0  0  0
  -28.9329  -15.3469   21.1581 H   0  0  0  0  0  0
  1 25  1  0  0  0
  1 30  2  0  0  0
  1 88  1  0  0  0
  2  3  1  0  0  0
  2 25  1  0  0  0
  2 89  1  0  0  0
  2 90  1  0  0  0
  3  4  1  0  0  0
  3 91  1  0  0  0
  3 92  1  0  0  0
  4  5  1  0  0  0
  4 93  1  0  0  0
  4 94  1  0  0  0
  5  6  1  0  0  0
  5 26  1  0  0  0
  5 95  1  0  0  0
  6 25  1  0  0  0
  6 96  1  0  0  0
  6 97  1  0  0  0
  7  8  2  0  0  0
  7 26  1  0  0  0
  7 29  1  0  0  0
  8  9  1  0  0  0
  8 22  1  0  0  0
  9 10  1  0  0  0
  9 27  2  0  0  0
 10 11  2  0  0  0
 10 15  1  0  0  0
 11 12  1  0  0  0
 11 98  1  0  0  0
 12 13  2  0  0  0
 12 99  1  0  0  0
 13 14  1  0  0  0
 13 31  1  0  0  0
 14 15  2  0  0  0
 14100  1  0  0  0
 15101  1  0  0  0
 16 17  2  0  0  0
 16 21  1  0  0  0
 16 31  1  0  0  0
 17 18  1  0  0  0
 17102  1  0  0  0
 18 19  2  0  0  0
 18103  1  0  0  0
 19 20  1  0  0  0
 19 24  1  0  0  0
 20 21  2  0  0  0
 20104  1  0  0  0
 21 23  1  0  0  0
 22 28  1  0  0  0
 22 32  2  0  0  0
 26 27  1  0  0  0
 28105  1  0  0  0
 28106  1  0  0  0
 29107  1  0  0  0
 29108  1  0  0  0
 33 34  1  0  0  0
 33 66  1  0  0  0
 33 70  2  0  0  0
 34 36  1  0  0  0
 34 59  1  0  0  0
 34109  1  0  0  0
 35 44  2  0  0  0
 35 45  1  0  0  0
 35 68  1  0  0  0
 36 56  1  0  0  0
 36110  1  0  0  0
 37 39  1  0  0  0
 37 47  1  0  0  0
 37 66  1  0  0  0
 37111  1  0  0  0
 38 43  2  0  0  0
 38 46  1  0  0  0
 38 47  1  0  0  0
 39 64  1  0  0  0
 39 67  2  0  0  0
 40 52  1  0  0  0
 40 53  2  0  0  0
 40 58  1  0  0  0
 41112  1  0  0  0
 41113  1  0  0  0
 41114  1  0  0  0
 41 48  1  0  0  0
 42 43  1  0  0  0
 42 66  1  0  0  0
 42115  1  0  0  0
 42116  1  0  0  0
 43 44  1  0  0  0
 44117  1  0  0  0
 45 46  2  0  0  0
 45118  1  0  0  0
 46119  1  0  0  0
 47120  1  0  0  0
 47121  1  0  0  0
 48 56  1  0  0  0
 48 65  1  0  0  0
 48122  1  0  0  0
 49 50  1  0  0  0
 49 53  1  0  0  0
 49 64  1  0  0  0
 49123  1  0  0  0
 50 51  1  0  0  0
 50124  1  0  0  0
 50125  1  0  0  0
 51 52  1  0  0  0
 51126  1  0  0  0
 51127  1  0  0  0
 52128  1  0  0  0
 52129  1  0  0  0
 53 54  1  0  0  0
 54 55  2  0  0  0
 54130  1  0  0  0
 55 57  1  0  0  0
 55131  1  0  0  0
 56 69  2  0  0  0
 57 58  2  0  0  0
 57132  1  0  0  0
 58133  1  0  0  0
 59 60  1  0  0  0
 59 61  1  0  0  0
 59 62  1  0  0  0
 60134  1  0  0  0
 60135  1  0  0  0
 60136  1  0  0  0
 61137  1  0  0  0
 61138  1  0  0  0
 61139  1  0  0  0
 62140  1  0  0  0
 62141  1  0  0  0
 62142  1  0  0  0
 63 65  1  0  0  0
 63143  1  0  0  0
 63144  1  0  0  0
 63145  1  0  0  0
 64146  1  0  0  0
 65147  1  0  0  0
 68 87  1  0  0  0
 71 73  2  0  0  0
 71 74  1  0  0  0
 71148  1  0  0  0
 72 73  1  0  0  0
 72 75  2  0  0  0
 72149  1  0  0  0
 73 81  1  0  0  0
 74 76  2  0  0  0
 74 82  1  0  0  0
 75 76  1  0  0  0
 75 86  1  0  0  0
 76 83  1  0  0  0
 77 83  1  0  0  0
 77150  1  0  0  0
 77151  1  0  0  0
 77152  1  0  0  0
 78153  1  0  0  0
 78154  1  0  0  0
 78155  1  0  0  0
 78 86  1  0  0  0
 79 86  1  0  0  0
 79156  1  0  0  0
 79157  1  0  0  0
 79158  1  0  0  0
 80159  1  0  0  0
 80160  1  0  0  0
 80161  1  0  0  0
 80 87  1  0  0  0
 81 85  1  0  0  0
 81162  1  0  0  0
 81163  1  0  0  0
 82 84  1  0  0  0
 82164  1  0  0  0
 82165  1  0  0  0
 83166  1  0  0  0
 83167  1  0  0  0
 84 87  1  0  0  0
 84168  1  0  0  0
 84169  1  0  0  0
 85 88  1  0  0  0
 85170  1  0  0  0
 85171  1  0  0  0
 86172  1  0  0  0
 87173  1  0  0  0
 88174  1  0  0  0
M  ISO  4   1 100  68 101  87 101  88 100
M  END
> <chiral flag>
0

> <version>
0

> <s_m_source_file>
/data/baiqing/PycharmProjects/Reinvent-master-3.2/result/LINK_invent/BTK/process_docking_weight1_custom_sum_contain_oxygen_bond_distance_aromatic_linkinvent_7_9_3/rearranged_h_0090.sdf

> <i_m_source_file_index>
52

> <r_mmod_Potential_Energy-OPLS-2005>
23.2412796020508

> <r_mmod_Stretch_Energy-OPLS-2005>
54.396556854248

> <r_mmod_Bend_Energy-OPLS-2005>
148.388427734375

> <r_mmod_Torsional_Energy-OPLS-2005>
251.41047668457

> <r_mmod_Improper_Torsional_Energy-OPLS-2005>
8.40058994293213

> <r_mmod_Van_der_Waal_Energy-OPLS-2005>
162.858901977539

> <r_mmod_Electrostatic_Energy-OPLS-2005>
-425.806732177734

> <r_mmod_Solvation_Energy-OPLS-2005>
-198.113708496094

> <b_mmod_Minimization_Converged-OPLS-2005>
0

> <r_mmod_RMS_Derivative-OPLS-2005>
6.30849027633667

$$$$
53
                    3D
 Structure written by MMmdl.
175183  0  0  1  0            999 V2000
  -30.6896  -14.5333   20.5610 C   0  0  0  0  0  0
  -30.4252  -12.3483   19.4243 C   0  0  0  0  0  0
  -29.4955  -12.5096   18.2053 C   0  0  0  0  0  0
  -28.0181  -12.3603   18.6181 C   0  0  0  0  0  0
  -27.6558  -13.2140   19.8643 C   0  0  2  0  0  0
  -28.7005  -13.0294   20.9875 C   0  0  0  0  0  0
  -25.2574  -13.8174   20.5662 C   0  0  0  0  0  0
  -24.1836  -13.0437   20.9171 C   0  0  0  0  0  0
  -24.6396  -11.6907   20.8722 C   0  0  0  0  0  0
  -23.9067  -10.4292   21.0389 C   0  0  0  0  0  0
  -24.3624   -9.4212   21.9172 C   0  0  0  0  0  0
  -23.6302   -8.2245   22.0754 C   0  0  0  0  0  0
  -22.4285   -8.0273   21.3538 C   0  0  0  0  0  0
  -21.9906   -9.0244   20.4642 C   0  0  0  0  0  0
  -22.7233  -10.2129   20.3042 C   0  0  0  0  0  0
  -21.6850   -6.0735   22.5280 C   0  0  0  0  0  0
  -21.4011   -6.5640   23.8213 C   0  0  0  0  0  0
  -21.3667   -5.6792   24.9175 C   0  0  0  0  0  0
  -21.6047   -4.3059   24.7225 C   0  0  0  0  0  0
  -21.8826   -3.8149   23.4348 C   0  0  0  0  0  0
  -21.9198   -4.6961   22.3402 C   0  0  0  0  0  0
  -22.7861  -13.5219   21.1842 C   0  0  0  0  0  0
  -22.1660   -4.2147   21.0978 F   0  0  0  0  0  0
  -21.5629   -3.4543   25.7740 F   0  0  0  0  0  0
  -30.0223  -13.3510   20.4253 N   0  0  0  0  0  0
  -26.3003  -12.9355   20.3314 N   0  0  0  0  0  0
  -25.9323  -11.6510   20.5745 N   0  0  0  0  0  0
  -22.0520  -12.8210   22.0408 N   0  0  0  0  0  0
  -25.4294  -15.1901   20.4107 N   0  0  0  0  0  0
  -31.8343  -14.6921   20.1298 O   0  0  0  0  0  0
  -21.6643   -6.8875   21.4241 O   0  0  0  0  0  0
  -22.3535  -14.5522   20.6697 O   0  0  0  0  0  0
  -24.6199  -31.8631   23.2063 C   0  0  0  0  0  0
  -25.9081  -32.4797   23.8364 C   0  0  1  0  0  0
  -27.2269  -27.3759   20.0993 C   0  0  0  0  0  0
  -25.5915  -33.8597   24.2293 N   0  0  0  0  0  0
  -23.4103  -30.4887   21.5484 C   0  0  2  0  0  0
  -24.8552  -28.9521   20.1125 C   0  0  0  0  0  0
  -22.7439  -29.4635   22.4960 C   0  0  0  0  0  0
  -18.0274  -28.1367   22.8490 C   0  0  0  0  0  0
  -24.1485  -36.7292   23.2643 C   0  0  0  0  0  0
  -25.9471  -30.8115   21.3710 C   0  0  0  0  0  0
  -26.0210  -29.4447   20.7104 C   0  0  0  0  0  0
  -27.2097  -28.6667   20.6968 C   0  0  0  0  0  0
  -26.0362  -26.9192   19.4857 C   0  0  0  0  0  0
  -24.8613  -27.6917   19.4955 C   0  0  0  0  0  0
  -23.6215  -29.8262   20.1620 C   0  0  0  0  0  0
  -25.4112  -36.3094   24.0332 C   0  0  1  0  0  0
  -20.5870  -28.3654   23.1300 C   0  0  2  0  0  0
  -20.6764  -26.9386   22.5410 C   0  0  0  0  0  0
  -19.5747  -26.6371   21.5204 C   0  0  0  0  0  0
  -18.1924  -26.7911   22.1617 C   0  0  0  0  0  0
  -19.1528  -28.8829   23.2889 C   0  0  0  0  0  0
  -18.9463  -30.1439   23.8895 C   0  0  0  0  0  0
  -17.6467  -30.6580   24.0559 C   0  0  0  0  0  0
  -25.9047  -34.9462   23.5107 C   0  0  0  0  0  0
  -16.5354  -29.9082   23.6330 C   0  0  0  0  0  0
  -16.7263  -28.6496   23.0354 C   0  0  0  0  0  0
  -26.4487  -31.6608   25.0725 C   0  0  0  0  0  0
  -25.3739  -31.3751   26.1468 C   0  0  0  0  0  0
  -27.0338  -30.3044   24.6156 C   0  0  0  0  0  0
  -27.6036  -32.4354   25.7492 C   0  0  0  0  0  0
  -27.5580  -37.1798   24.8468 C   0  0  0  0  0  0
  -21.4160  -29.3023   22.3708 N   0  0  0  0  0  0
  -26.4288  -37.3784   23.9417 N   0  0  0  0  0  0
  -24.6772  -31.0691   22.0993 N   0  0  0  0  0  0
  -23.4201  -28.8162   23.3006 O   0  0  0  0  0  0
  -28.3753  -26.5878   20.1400 O   0  0  0  0  0  0
  -26.5606  -34.8923   22.4671 O   0  0  0  0  0  0
  -23.5378  -32.1403   23.7435 O   0  0  0  0  0  0
  -29.6477  -18.2676   19.3689 C   0  0  0  0  0  0
  -29.6926  -19.3794   21.2833 C   0  0  0  0  0  0
  -29.9528  -18.1349   20.7515 C   0  0  0  0  0  0
  -29.2066  -19.5435   19.1039 C   0  0  0  0  0  0
  -26.6942  -16.0825   15.4485 C   0  0  0  0  0  0
  -29.1973  -16.2041   15.6505 C   0  0  0  0  0  0
  -30.7805  -24.9785   19.7091 C   0  0  0  0  0  0
  -30.5085  -16.8972   21.4821 C   0  0  0  0  0  0
  -28.7552  -20.1478   17.8008 C   0  0  0  0  0  0
  -28.7973  -19.2006   16.5841 C   0  0  0  0  0  0
  -27.7307  -18.0858   16.5981 C   0  0  0  0  0  0
  -29.4789  -22.7967   19.6781 C   0  0  0  0  0  0
  -28.8232  -21.6791   20.5589 C   0  0  0  0  0  0
  -28.2599  -25.1668   19.8220 C   0  0  0  0  0  0
  -27.9051  -17.0252   15.4887 C   0  0  0  0  0  0
  -29.4992  -24.2870   20.2101 C   0  0  2  0  0  0
  -29.2445  -20.2678   20.2999 N   0  0  0  0  0  0
  -29.9891  -15.5635   21.0909 N   0  0  0  0  0  0
  -31.4676  -12.4565   19.1185 H   0  0  0  0  0  0
  -30.3403  -11.3450   19.8434 H   0  0  0  0  0  0
  -29.7463  -11.7758   17.4385 H   0  0  0  0  0  0
  -29.6531  -13.4907   17.7546 H   0  0  0  0  0  0
  -27.8375  -11.3045   18.8257 H   0  0  0  0  0  0
  -27.3674  -12.6187   17.7820 H   0  0  0  0  0  0
  -27.6867  -14.2572   19.5499 H   0  0  0  0  0  0
  -28.6951  -11.9990   21.3459 H   0  0  0  0  0  0
  -28.4552  -13.6449   21.8535 H   0  0  0  0  0  0
  -25.2771   -9.5697   22.4744 H   0  0  0  0  0  0
  -24.0019   -7.4640   22.7469 H   0  0  0  0  0  0
  -21.0836   -8.8755   19.8947 H   0  0  0  0  0  0
  -22.3681  -10.9666   19.6151 H   0  0  0  0  0  0
  -21.1993   -7.6147   23.9711 H   0  0  0  0  0  0
  -21.1482   -6.0523   25.9076 H   0  0  0  0  0  0
  -22.0600   -2.7608   23.2850 H   0  0  0  0  0  0
  -22.4130  -11.9863   22.4786 H   0  0  0  0  0  0
  -21.1134  -13.1234   22.2615 H   0  0  0  0  0  0
  -24.6615  -15.8448   20.5174 H   0  0  0  0  0  0
  -26.2826  -15.6320   20.0930 H   0  0  0  0  0  0
  -26.7143  -32.5481   23.1108 H   0  0  0  0  0  0
  -25.0079  -33.9751   25.0446 H   0  0  0  0  0  0
  -22.7018  -31.3076   21.4082 H   0  0  0  0  0  0
  -23.3754  -35.9620   23.3312 H   0  0  0  0  0  0
  -24.3578  -36.8903   22.2056 H   0  0  0  0  0  0
  -23.7229  -37.6492   23.6658 H   0  0  0  0  0  0
  -26.0776  -31.5814   20.6092 H   0  0  0  0  0  0
  -26.8285  -30.8520   21.9998 H   0  0  0  0  0  0
  -28.1071  -29.0426   21.1686 H   0  0  0  0  0  0
  -25.9851  -25.9577   18.9963 H   0  0  0  0  0  0
  -23.9676  -27.3063   19.0251 H   0  0  0  0  0  0
  -23.7392  -30.6046   19.4065 H   0  0  0  0  0  0
  -22.7434  -29.2531   19.8594 H   0  0  0  0  0  0
  -25.1294  -36.1935   25.0822 H   0  0  0  0  0  0
  -20.9962  -28.3203   24.1419 H   0  0  0  0  0  0
  -20.5649  -26.2254   23.3594 H   0  0  0  0  0  0
  -21.6635  -26.7409   22.1211 H   0  0  0  0  0  0
  -19.6907  -25.6282   21.1229 H   0  0  0  0  0  0
  -19.6696  -27.3185   20.6739 H   0  0  0  0  0  0
  -17.4191  -26.6650   21.4022 H   0  0  0  0  0  0
  -18.0336  -26.0050   22.9009 H   0  0  0  0  0  0
  -19.7945  -30.7249   24.2262 H   0  0  0  0  0  0
  -17.5029  -31.6267   24.5143 H   0  0  0  0  0  0
  -15.5356  -30.2990   23.7659 H   0  0  0  0  0  0
  -15.8656  -28.0819   22.7079 H   0  0  0  0  0  0
  -24.5878  -30.7138   25.7810 H   0  0  0  0  0  0
  -24.8983  -32.2931   26.4930 H   0  0  0  0  0  0
  -25.8076  -30.8899   27.0219 H   0  0  0  0  0  0
  -26.2912  -29.6784   24.1195 H   0  0  0  0  0  0
  -27.4075  -29.7308   25.4645 H   0  0  0  0  0  0
  -27.8757  -30.4357   23.9357 H   0  0  0  0  0  0
  -27.2629  -33.3635   26.2095 H   0  0  0  0  0  0
  -28.3836  -32.6949   25.0324 H   0  0  0  0  0  0
  -28.0718  -31.8472   26.5393 H   0  0  0  0  0  0
  -28.2594  -38.0099   24.7522 H   0  0  0  0  0  0
  -28.1071  -36.2622   24.6278 H   0  0  0  0  0  0
  -27.2293  -37.1439   25.8871 H   0  0  0  0  0  0
  -20.9307  -29.8783   21.6970 H   0  0  0  0  0  0
  -26.0164  -38.2853   24.1443 H   0  0  0  0  0  0
  -29.7511  -17.4823   18.6311 H   0  0  0  0  0  0
  -29.7925  -19.7203   22.3060 H   0  0  0  0  0  0
  -26.7761  -15.3694   14.6272 H   0  0  0  0  0  0
  -25.7655  -16.6361   15.3065 H   0  0  0  0  0  0
  -26.6030  -15.5102   16.3727 H   0  0  0  0  0  0
  -29.2400  -15.3880   14.9284 H   0  0  0  0  0  0
  -29.2689  -15.7620   16.6444 H   0  0  0  0  0  0
  -30.0889  -16.8089   15.4885 H   0  0  0  0  0  0
  -31.6730  -24.4144   19.9821 H   0  0  0  0  0  0
  -30.8927  -25.9750   20.1382 H   0  0  0  0  0  0
  -30.7719  -25.0853   18.6238 H   0  0  0  0  0  0
  -30.3106  -17.0183   22.5479 H   0  0  0  0  0  0
  -31.5961  -16.9187   21.3911 H   0  0  0  0  0  0
  -29.4123  -20.9820   17.5623 H   0  0  0  0  0  0
  -27.7548  -20.5681   17.9119 H   0  0  0  0  0  0
  -29.8007  -18.7834   16.5095 H   0  0  0  0  0  0
  -28.6591  -19.7947   15.6795 H   0  0  0  0  0  0
  -26.7511  -18.5560   16.4974 H   0  0  0  0  0  0
  -27.7129  -17.5873   17.5668 H   0  0  0  0  0  0
  -29.0195  -22.7993   18.6917 H   0  0  0  0  0  0
  -30.5089  -22.4793   19.5127 H   0  0  0  0  0  0
  -27.7375  -21.7331   20.4722 H   0  0  0  0  0  0
  -29.0440  -21.8957   21.6042 H   0  0  0  0  0  0
  -27.3883  -24.7430   20.3229 H   0  0  0  0  0  0
  -28.0862  -25.0766   18.7491 H   0  0  0  0  0  0
  -27.9485  -17.5402   14.5269 H   0  0  0  0  0  0
  -29.5662  -24.2568   21.2988 H   0  0  0  0  0  0
  -29.0398  -15.3609   21.3637 H   0  0  0  0  0  0
  1 25  1  0  0  0
  1 30  2  0  0  0
  1 88  1  0  0  0
  2  3  1  0  0  0
  2 25  1  0  0  0
  2 89  1  0  0  0
  2 90  1  0  0  0
  3  4  1  0  0  0
  3 91  1  0  0  0
  3 92  1  0  0  0
  4  5  1  0  0  0
  4 93  1  0  0  0
  4 94  1  0  0  0
  5  6  1  0  0  0
  5 26  1  0  0  0
  5 95  1  0  0  0
  6 25  1  0  0  0
  6 96  1  0  0  0
  6 97  1  0  0  0
  7  8  2  0  0  0
  7 26  1  0  0  0
  7 29  1  0  0  0
  8  9  1  0  0  0
  8 22  1  0  0  0
  9 10  1  0  0  0
  9 27  2  0  0  0
 10 11  2  0  0  0
 10 15  1  0  0  0
 11 12  1  0  0  0
 11 98  1  0  0  0
 12 13  2  0  0  0
 12 99  1  0  0  0
 13 14  1  0  0  0
 13 31  1  0  0  0
 14 15  2  0  0  0
 14100  1  0  0  0
 15101  1  0  0  0
 16 17  2  0  0  0
 16 21  1  0  0  0
 16 31  1  0  0  0
 17 18  1  0  0  0
 17102  1  0  0  0
 18 19  2  0  0  0
 18103  1  0  0  0
 19 20  1  0  0  0
 19 24  1  0  0  0
 20 21  2  0  0  0
 20104  1  0  0  0
 21 23  1  0  0  0
 22 28  1  0  0  0
 22 32  2  0  0  0
 26 27  1  0  0  0
 28105  1  0  0  0
 28106  1  0  0  0
 29107  1  0  0  0
 29108  1  0  0  0
 33 34  1  0  0  0
 33 66  1  0  0  0
 33 70  2  0  0  0
 34 36  1  0  0  0
 34 59  1  0  0  0
 34109  1  0  0  0
 35 44  2  0  0  0
 35 45  1  0  0  0
 35 68  1  0  0  0
 36 56  1  0  0  0
 36110  1  0  0  0
 37 39  1  0  0  0
 37 47  1  0  0  0
 37 66  1  0  0  0
 37111  1  0  0  0
 38 43  2  0  0  0
 38 46  1  0  0  0
 38 47  1  0  0  0
 39 64  1  0  0  0
 39 67  2  0  0  0
 40 52  1  0  0  0
 40 53  2  0  0  0
 40 58  1  0  0  0
 41112  1  0  0  0
 41113  1  0  0  0
 41114  1  0  0  0
 41 48  1  0  0  0
 42 43  1  0  0  0
 42 66  1  0  0  0
 42115  1  0  0  0
 42116  1  0  0  0
 43 44  1  0  0  0
 44117  1  0  0  0
 45 46  2  0  0  0
 45118  1  0  0  0
 46119  1  0  0  0
 47120  1  0  0  0
 47121  1  0  0  0
 48 56  1  0  0  0
 48 65  1  0  0  0
 48122  1  0  0  0
 49 50  1  0  0  0
 49 53  1  0  0  0
 49 64  1  0  0  0
 49123  1  0  0  0
 50 51  1  0  0  0
 50124  1  0  0  0
 50125  1  0  0  0
 51 52  1  0  0  0
 51126  1  0  0  0
 51127  1  0  0  0
 52128  1  0  0  0
 52129  1  0  0  0
 53 54  1  0  0  0
 54 55  2  0  0  0
 54130  1  0  0  0
 55 57  1  0  0  0
 55131  1  0  0  0
 56 69  2  0  0  0
 57 58  2  0  0  0
 57132  1  0  0  0
 58133  1  0  0  0
 59 60  1  0  0  0
 59 61  1  0  0  0
 59 62  1  0  0  0
 60134  1  0  0  0
 60135  1  0  0  0
 60136  1  0  0  0
 61137  1  0  0  0
 61138  1  0  0  0
 61139  1  0  0  0
 62140  1  0  0  0
 62141  1  0  0  0
 62142  1  0  0  0
 63 65  1  0  0  0
 63143  1  0  0  0
 63144  1  0  0  0
 63145  1  0  0  0
 64146  1  0  0  0
 65147  1  0  0  0
 68 84  1  0  0  0
 71 73  1  0  0  0
 71 74  2  0  0  0
 71148  1  0  0  0
 72 73  2  0  0  0
 72 87  1  0  0  0
 72149  1  0  0  0
 73 78  1  0  0  0
 74 79  1  0  0  0
 74 87  1  0  0  0
 75150  1  0  0  0
 75151  1  0  0  0
 75152  1  0  0  0
 75 85  1  0  0  0
 76 85  1  0  0  0
 76153  1  0  0  0
 76154  1  0  0  0
 76155  1  0  0  0
 77156  1  0  0  0
 77157  1  0  0  0
 77158  1  0  0  0
 77 86  1  0  0  0
 78 88  1  0  0  0
 78159  1  0  0  0
 78160  1  0  0  0
 79 80  1  0  0  0
 79161  1  0  0  0
 79162  1  0  0  0
 80 81  1  0  0  0
 80163  1  0  0  0
 80164  1  0  0  0
 81 85  1  0  0  0
 81165  1  0  0  0
 81166  1  0  0  0
 82 83  1  0  0  0
 82 86  1  0  0  0
 82167  1  0  0  0
 82168  1  0  0  0
 83 87  1  0  0  0
 83169  1  0  0  0
 83170  1  0  0  0
 84 86  1  0  0  0
 84171  1  0  0  0
 84172  1  0  0  0
 85173  1  0  0  0
 86174  1  0  0  0
 88175  1  0  0  0
M  ISO  4   1 100  68 101  84 101  88 100
M  END
> <chiral flag>
0

> <version>
0

> <s_m_source_file>
/data/baiqing/PycharmProjects/Reinvent-master-3.2/result/LINK_invent/BTK/process_docking_weight1_custom_sum_contain_oxygen_bond_distance_aromatic_linkinvent_7_9_3/rearranged_h_0090.sdf

> <i_m_source_file_index>
53

> <r_mmod_Potential_Energy-OPLS-2005>
-75.078254699707

> <r_mmod_Stretch_Energy-OPLS-2005>
53.8453063964844

> <r_mmod_Bend_Energy-OPLS-2005>
121.712745666504

> <r_mmod_Torsional_Energy-OPLS-2005>
222.37092590332

> <r_mmod_Improper_Torsional_Energy-OPLS-2005>
2.9913215637207

> <r_mmod_Van_der_Waal_Energy-OPLS-2005>
120.216987609863

> <r_mmod_Electrostatic_Energy-OPLS-2005>
-418.664703369141

> <r_mmod_Solvation_Energy-OPLS-2005>
-201.635345458984

> <b_mmod_Minimization_Converged-OPLS-2005>
0

> <r_mmod_RMS_Derivative-OPLS-2005>
1.85983562469482

$$$$
54
                    3D
 Structure written by MMmdl.
160168  0  0  1  0            999 V2000
  -30.6872  -14.6312   20.4692 C   0  0  0  0  0  0
  -30.4145  -12.3797   19.4837 C   0  0  0  0  0  0
  -29.5096  -12.4883   18.2395 C   0  0  0  0  0  0
  -28.0273  -12.3443   18.6438 C   0  0  0  0  0  0
  -27.6420  -13.2339   19.8591 C   0  0  2  0  0  0
  -28.6862  -13.1470   20.9924 C   0  0  0  0  0  0
  -25.2472  -13.8196   20.5708 C   0  0  0  0  0  0
  -24.1783  -13.0441   20.9191 C   0  0  0  0  0  0
  -24.6368  -11.6917   20.8683 C   0  0  0  0  0  0
  -23.9036  -10.4309   21.0373 C   0  0  0  0  0  0
  -24.3592   -9.4220   21.9152 C   0  0  0  0  0  0
  -23.6276   -8.2257   22.0739 C   0  0  0  0  0  0
  -22.4269   -8.0270   21.3525 C   0  0  0  0  0  0
  -21.9887   -9.0236   20.4626 C   0  0  0  0  0  0
  -22.7195  -10.2119   20.3029 C   0  0  0  0  0  0
  -21.6841   -6.0696   22.5256 C   0  0  0  0  0  0
  -21.3986   -6.5588   23.8171 C   0  0  0  0  0  0
  -21.3698   -5.6744   24.9138 C   0  0  0  0  0  0
  -21.6098   -4.3015   24.7196 C   0  0  0  0  0  0
  -21.8817   -3.8119   23.4307 C   0  0  0  0  0  0
  -21.9168   -4.6928   22.3366 C   0  0  0  0  0  0
  -22.7793  -13.5202   21.1900 C   0  0  0  0  0  0
  -22.1647   -4.2113   21.0954 F   0  0  0  0  0  0
  -21.5694   -3.4513   25.7727 F   0  0  0  0  0  0
  -29.9988  -13.4483   20.4136 N   0  0  0  0  0  0
  -26.2923  -12.9418   20.3327 N   0  0  0  0  0  0
  -25.9289  -11.6542   20.5696 N   0  0  0  0  0  0
  -22.0453  -12.8197   22.0467 N   0  0  0  0  0  0
  -25.4212  -15.1936   20.4142 N   0  0  0  0  0  0
  -31.8746  -14.6768   20.1499 O   0  0  0  0  0  0
  -21.6630   -6.8862   21.4233 O   0  0  0  0  0  0
  -22.3500  -14.5551   20.6796 O   0  0  0  0  0  0
  -24.6223  -31.8632   23.2082 C   0  0  0  0  0  0
  -25.9105  -32.4806   23.8405 C   0  0  1  0  0  0
  -27.2133  -27.3420   20.0783 C   0  0  0  0  0  0
  -25.5940  -33.8589   24.2340 N   0  0  0  0  0  0
  -23.4120  -30.4910   21.5501 C   0  0  2  0  0  0
  -24.8532  -28.9545   20.1081 C   0  0  0  0  0  0
  -22.7463  -29.4633   22.4940 C   0  0  0  0  0  0
  -18.0315  -28.1383   22.8513 C   0  0  0  0  0  0
  -24.1456  -36.7275   23.2645 C   0  0  0  0  0  0
  -25.9548  -30.7942   21.3791 C   0  0  0  0  0  0
  -26.0216  -29.4236   20.7218 C   0  0  0  0  0  0
  -27.2002  -28.6218   20.7132 C   0  0  0  0  0  0
  -26.0225  -26.9410   19.4249 C   0  0  0  0  0  0
  -24.8507  -27.7137   19.4615 C   0  0  0  0  0  0
  -23.6283  -29.8402   20.1599 C   0  0  0  0  0  0
  -25.4085  -36.3079   24.0352 C   0  0  1  0  0  0
  -20.5895  -28.3653   23.1288 C   0  0  2  0  0  0
  -20.6725  -26.9376   22.5393 C   0  0  0  0  0  0
  -19.5707  -26.6385   21.5176 C   0  0  0  0  0  0
  -18.1907  -26.7938   22.1618 C   0  0  0  0  0  0
  -19.1562  -28.8851   23.2904 C   0  0  0  0  0  0
  -18.9473  -30.1445   23.8937 C   0  0  0  0  0  0
  -17.6466  -30.6580   24.0566 C   0  0  0  0  0  0
  -25.9030  -34.9452   23.5149 C   0  0  0  0  0  0
  -16.5365  -29.9072   23.6321 C   0  0  0  0  0  0
  -16.7297  -28.6477   23.0381 C   0  0  0  0  0  0
  -26.4496  -31.6630   25.0776 C   0  0  0  0  0  0
  -25.3759  -31.3777   26.1542 C   0  0  0  0  0  0
  -27.0314  -30.3069   24.6185 C   0  0  0  0  0  0
  -27.6076  -32.4334   25.7542 C   0  0  0  0  0  0
  -27.5573  -37.1810   24.8491 C   0  0  0  0  0  0
  -21.4183  -29.3025   22.3730 N   0  0  0  0  0  0
  -26.4278  -37.3765   23.9449 N   0  0  0  0  0  0
  -24.6823  -31.0659   22.1037 N   0  0  0  0  0  0
  -23.4219  -28.8151   23.2975 O   0  0  0  0  0  0
  -28.3440  -26.5130   20.1187 O   0  0  0  0  0  0
  -26.5543  -34.8906   22.4678 O   0  0  0  0  0  0
  -23.5391  -32.1463   23.7391 O   0  0  0  0  0  0
  -29.0200  -18.9341   19.5900 C   0  0  0  0  0  0
  -30.0426  -18.5469   20.4955 C   0  0  0  0  0  0
  -30.4205  -20.8450   20.9178 C   0  0  0  0  0  0
  -29.4454  -21.2437   19.9465 C   0  0  0  0  0  0
  -31.1017  -21.8225   23.1825 C   0  0  0  0  0  0
  -30.3425  -22.9106   18.2378 C   0  0  0  0  0  0
  -31.3281  -21.8187   21.6603 C   0  0  0  0  0  0
  -30.7179  -17.1332   20.5557 C   0  0  0  0  0  0
  -29.1524  -24.0096   20.2066 C   0  0  0  0  0  0
  -28.2720  -25.1502   19.5621 C   0  0  0  0  0  0
  -29.2713  -22.6906   19.3241 C   0  0  2  0  0  0
  -28.7387  -20.2507   19.3189 N   0  0  0  0  0  0
  -30.7002  -19.5285   21.1740 N   0  0  0  0  0  0
  -30.0089  -15.8055   20.6564 N   0  0  0  0  0  0
  -31.4656  -12.4504   19.1973 H   0  0  0  0  0  0
  -30.3045  -11.4049   19.9619 H   0  0  0  0  0  0
  -29.7802  -11.7216   17.5113 H   0  0  0  0  0  0
  -29.6641  -13.4522   17.7494 H   0  0  0  0  0  0
  -27.8523  -11.2957   18.8844 H   0  0  0  0  0  0
  -27.3881  -12.5701   17.7886 H   0  0  0  0  0  0
  -27.6414  -14.2599   19.4914 H   0  0  0  0  0  0
  -28.6923  -12.1556   21.4442 H   0  0  0  0  0  0
  -28.4560  -13.8469   21.7962 H   0  0  0  0  0  0
  -25.2742   -9.5680   22.4690 H   0  0  0  0  0  0
  -23.9982   -7.4641   22.7420 H   0  0  0  0  0  0
  -21.0842   -8.8727   19.8912 H   0  0  0  0  0  0
  -22.3662  -10.9629   19.6128 H   0  0  0  0  0  0
  -21.1924   -7.6086   23.9656 H   0  0  0  0  0  0
  -21.1579   -6.0475   25.9034 H   0  0  0  0  0  0
  -22.0575   -2.7587   23.2801 H   0  0  0  0  0  0
  -22.4095  -11.9805   22.4781 H   0  0  0  0  0  0
  -21.1052  -13.1202   22.2706 H   0  0  0  0  0  0
  -24.6698  -15.8587   20.5442 H   0  0  0  0  0  0
  -26.2727  -15.6280   20.0866 H   0  0  0  0  0  0
  -26.7166  -32.5460   23.1140 H   0  0  0  0  0  0
  -25.0236  -33.9758   25.0586 H   0  0  0  0  0  0
  -22.7032  -31.3095   21.4129 H   0  0  0  0  0  0
  -23.3731  -35.9592   23.3290 H   0  0  0  0  0  0
  -24.3559  -36.8875   22.2067 H   0  0  0  0  0  0
  -23.7159  -37.6474   23.6620 H   0  0  0  0  0  0
  -26.0808  -31.5534   20.6042 H   0  0  0  0  0  0
  -26.8364  -30.8433   22.0043 H   0  0  0  0  0  0
  -28.0931  -28.9781   21.2050 H   0  0  0  0  0  0
  -25.9535  -26.0314   18.8511 H   0  0  0  0  0  0
  -23.9563  -27.3554   18.9682 H   0  0  0  0  0  0
  -23.7613  -30.6230   19.4103 H   0  0  0  0  0  0
  -22.7457  -29.2785   19.8457 H   0  0  0  0  0  0
  -25.1230  -36.1963   25.0836 H   0  0  0  0  0  0
  -20.9999  -28.3148   24.1403 H   0  0  0  0  0  0
  -20.5521  -26.2264   23.3593 H   0  0  0  0  0  0
  -21.6605  -26.7324   22.1256 H   0  0  0  0  0  0
  -19.6795  -25.6281   21.1223 H   0  0  0  0  0  0
  -19.6622  -27.3184   20.6690 H   0  0  0  0  0  0
  -17.4154  -26.6736   21.4041 H   0  0  0  0  0  0
  -18.0306  -26.0098   22.9033 H   0  0  0  0  0  0
  -19.7954  -30.7249   24.2335 H   0  0  0  0  0  0
  -17.5027  -31.6285   24.5130 H   0  0  0  0  0  0
  -15.5365  -30.2974   23.7614 H   0  0  0  0  0  0
  -15.8709  -28.0766   22.7109 H   0  0  0  0  0  0
  -24.5948  -30.7067   25.7947 H   0  0  0  0  0  0
  -24.8954  -32.2940   26.4964 H   0  0  0  0  0  0
  -25.8167  -30.9045   27.0323 H   0  0  0  0  0  0
  -26.2882  -29.6872   24.1171 H   0  0  0  0  0  0
  -27.3958  -29.7255   25.4663 H   0  0  0  0  0  0
  -27.8760  -30.4398   23.9415 H   0  0  0  0  0  0
  -27.2737  -33.3634   26.2138 H   0  0  0  0  0  0
  -28.3924  -32.6886   25.0411 H   0  0  0  0  0  0
  -28.0684  -31.8465   26.5500 H   0  0  0  0  0  0
  -28.2613  -38.0085   24.7539 H   0  0  0  0  0  0
  -28.1028  -36.2632   24.6284 H   0  0  0  0  0  0
  -27.2332  -37.1457   25.8902 H   0  0  0  0  0  0
  -20.9330  -29.8936   21.7139 H   0  0  0  0  0  0
  -26.0154  -38.2831   24.1458 H   0  0  0  0  0  0
  -28.4829  -18.1864   19.0207 H   0  0  0  0  0  0
  -31.7196  -22.5811   23.6685 H   0  0  0  0  0  0
  -31.3531  -20.8587   23.6260 H   0  0  0  0  0  0
  -30.0609  -22.0449   23.4194 H   0  0  0  0  0  0
  -30.2820  -22.1690   17.4416 H   0  0  0  0  0  0
  -31.3402  -22.8565   18.6714 H   0  0  0  0  0  0
  -30.2573  -23.8915   17.7700 H   0  0  0  0  0  0
  -31.1939  -22.8219   21.2848 H   0  0  0  0  0  0
  -32.3691  -21.5715   21.4395 H   0  0  0  0  0  0
  -31.3151  -17.1132   19.6404 H   0  0  0  0  0  0
  -31.4502  -17.1598   21.3662 H   0  0  0  0  0  0
  -28.7367  -23.7738   21.1872 H   0  0  0  0  0  0
  -30.1473  -24.4195   20.3826 H   0  0  0  0  0  0
  -28.5166  -25.2354   18.4996 H   0  0  0  0  0  0
  -27.2684  -24.7321   19.6149 H   0  0  0  0  0  0
  -28.3226  -22.6463   18.7850 H   0  0  0  0  0  0
  -29.0247  -15.7829   20.8740 H   0  0  0  0  0  0
  1 25  1  0  0  0
  1 30  2  0  0  0
  1 84  1  0  0  0
  2  3  1  0  0  0
  2 25  1  0  0  0
  2 85  1  0  0  0
  2 86  1  0  0  0
  3  4  1  0  0  0
  3 87  1  0  0  0
  3 88  1  0  0  0
  4  5  1  0  0  0
  4 89  1  0  0  0
  4 90  1  0  0  0
  5  6  1  0  0  0
  5 26  1  0  0  0
  5 91  1  0  0  0
  6 25  1  0  0  0
  6 92  1  0  0  0
  6 93  1  0  0  0
  7  8  2  0  0  0
  7 26  1  0  0  0
  7 29  1  0  0  0
  8  9  1  0  0  0
  8 22  1  0  0  0
  9 10  1  0  0  0
  9 27  2  0  0  0
 10 11  2  0  0  0
 10 15  1  0  0  0
 11 12  1  0  0  0
 11 94  1  0  0  0
 12 13  2  0  0  0
 12 95  1  0  0  0
 13 14  1  0  0  0
 13 31  1  0  0  0
 14 15  2  0  0  0
 14 96  1  0  0  0
 15 97  1  0  0  0
 16 17  2  0  0  0
 16 21  1  0  0  0
 16 31  1  0  0  0
 17 18  1  0  0  0
 17 98  1  0  0  0
 18 19  2  0  0  0
 18 99  1  0  0  0
 19 20  1  0  0  0
 19 24  1  0  0  0
 20 21  2  0  0  0
 20100  1  0  0  0
 21 23  1  0  0  0
 22 28  1  0  0  0
 22 32  2  0  0  0
 26 27  1  0  0  0
 28101  1  0  0  0
 28102  1  0  0  0
 29103  1  0  0  0
 29104  1  0  0  0
 33 34  1  0  0  0
 33 66  1  0  0  0
 33 70  2  0  0  0
 34 36  1  0  0  0
 34 59  1  0  0  0
 34105  1  0  0  0
 35 44  2  0  0  0
 35 45  1  0  0  0
 35 68  1  0  0  0
 36 56  1  0  0  0
 36106  1  0  0  0
 37 39  1  0  0  0
 37 47  1  0  0  0
 37 66  1  0  0  0
 37107  1  0  0  0
 38 43  2  0  0  0
 38 46  1  0  0  0
 38 47  1  0  0  0
 39 64  1  0  0  0
 39 67  2  0  0  0
 40 52  1  0  0  0
 40 53  2  0  0  0
 40 58  1  0  0  0
 41108  1  0  0  0
 41109  1  0  0  0
 41110  1  0  0  0
 41 48  1  0  0  0
 42 43  1  0  0  0
 42 66  1  0  0  0
 42111  1  0  0  0
 42112  1  0  0  0
 43 44  1  0  0  0
 44113  1  0  0  0
 45 46  2  0  0  0
 45114  1  0  0  0
 46115  1  0  0  0
 47116  1  0  0  0
 47117  1  0  0  0
 48 56  1  0  0  0
 48 65  1  0  0  0
 48118  1  0  0  0
 49 50  1  0  0  0
 49 53  1  0  0  0
 49 64  1  0  0  0
 49119  1  0  0  0
 50 51  1  0  0  0
 50120  1  0  0  0
 50121  1  0  0  0
 51 52  1  0  0  0
 51122  1  0  0  0
 51123  1  0  0  0
 52124  1  0  0  0
 52125  1  0  0  0
 53 54  1  0  0  0
 54 55  2  0  0  0
 54126  1  0  0  0
 55 57  1  0  0  0
 55127  1  0  0  0
 56 69  2  0  0  0
 57 58  2  0  0  0
 57128  1  0  0  0
 58129  1  0  0  0
 59 60  1  0  0  0
 59 61  1  0  0  0
 59 62  1  0  0  0
 60130  1  0  0  0
 60131  1  0  0  0
 60132  1  0  0  0
 61133  1  0  0  0
 61134  1  0  0  0
 61135  1  0  0  0
 62136  1  0  0  0
 62137  1  0  0  0
 62138  1  0  0  0
 63 65  1  0  0  0
 63139  1  0  0  0
 63140  1  0  0  0
 63141  1  0  0  0
 64142  1  0  0  0
 65143  1  0  0  0
 68 80  1  0  0  0
 71 72  2  0  0  0
 71 82  1  0  0  0
 71144  1  0  0  0
 72 78  1  0  0  0
 72 83  1  0  0  0
 73 74  1  0  0  0
 73 77  1  0  0  0
 73 83  2  0  0  0
 74 81  1  0  0  0
 74 82  2  0  0  0
 75 77  1  0  0  0
 75145  1  0  0  0
 75146  1  0  0  0
 75147  1  0  0  0
 76148  1  0  0  0
 76149  1  0  0  0
 76150  1  0  0  0
 76 81  1  0  0  0
 77151  1  0  0  0
 77152  1  0  0  0
 78 84  1  0  0  0
 78153  1  0  0  0
 78154  1  0  0  0
 79 80  1  0  0  0
 79 81  1  0  0  0
 79155  1  0  0  0
 79156  1  0  0  0
 80157  1  0  0  0
 80158  1  0  0  0
 81159  1  0  0  0
 84160  1  0  0  0
M  ISO  4   1 100  68 101  80 101  84 100
M  END
> <chiral flag>
0

> <version>
0

> <s_m_source_file>
/data/baiqing/PycharmProjects/Reinvent-master-3.2/result/LINK_invent/BTK/process_docking_weight1_custom_sum_contain_oxygen_bond_distance_aromatic_linkinvent_7_9_3/rearranged_h_0090.sdf

> <i_m_source_file_index>
54

> <r_mmod_Potential_Energy-OPLS-2005>
76.6116256713867

> <r_mmod_Stretch_Energy-OPLS-2005>
79.0987243652344

> <r_mmod_Bend_Energy-OPLS-2005>
167.32536315918

> <r_mmod_Torsional_Energy-OPLS-2005>
205.240676879883

> <r_mmod_Improper_Torsional_Energy-OPLS-2005>
8.13623905181885

> <r_mmod_Van_der_Waal_Energy-OPLS-2005>
158.318572998047

> <r_mmod_Electrostatic_Energy-OPLS-2005>
-370.259368896484

> <r_mmod_Solvation_Energy-OPLS-2005>
-220.085586547852

> <b_mmod_Minimization_Converged-OPLS-2005>
0

> <r_mmod_RMS_Derivative-OPLS-2005>
6.12822532653809

$$$$
55
                    3D
 Structure written by MMmdl.
175183  0  0  1  0            999 V2000
  -30.6889  -14.4471   20.5489 C   0  0  0  0  0  0
  -30.4179  -12.2870   19.4145 C   0  0  0  0  0  0
  -29.4856  -12.4986   18.2016 C   0  0  0  0  0  0
  -28.0087  -12.3559   18.6201 C   0  0  0  0  0  0
  -27.6579  -13.1923   19.8797 C   0  0  2  0  0  0
  -28.7014  -12.9677   20.9956 C   0  0  0  0  0  0
  -25.2598  -13.8107   20.5718 C   0  0  0  0  0  0
  -24.1811  -13.0429   20.9199 C   0  0  0  0  0  0
  -24.6319  -11.6877   20.8729 C   0  0  0  0  0  0
  -23.8999  -10.4269   21.0392 C   0  0  0  0  0  0
  -24.3570   -9.4201   21.9149 C   0  0  0  0  0  0
  -23.6265   -8.2237   22.0727 C   0  0  0  0  0  0
  -22.4250   -8.0237   21.3528 C   0  0  0  0  0  0
  -21.9905   -9.0208   20.4643 C   0  0  0  0  0  0
  -22.7198  -10.2095   20.3048 C   0  0  0  0  0  0
  -21.6824   -6.0715   22.5280 C   0  0  0  0  0  0
  -21.4003   -6.5632   23.8214 C   0  0  0  0  0  0
  -21.3683   -5.6795   24.9180 C   0  0  0  0  0  0
  -21.6046   -4.3051   24.7250 C   0  0  0  0  0  0
  -21.8825   -3.8149   23.4372 C   0  0  0  0  0  0
  -21.9194   -4.6951   22.3416 C   0  0  0  0  0  0
  -22.7851  -13.5257   21.1878 C   0  0  0  0  0  0
  -22.1673   -4.2143   21.1000 F   0  0  0  0  0  0
  -21.5637   -3.4550   25.7761 F   0  0  0  0  0  0
  -30.0288  -13.2651   20.4379 N   0  0  0  0  0  0
  -26.2990  -12.9238   20.3414 N   0  0  0  0  0  0
  -25.9251  -11.6422   20.5792 N   0  0  0  0  0  0
  -22.0496  -12.8202   22.0401 N   0  0  0  0  0  0
  -25.4415  -15.1802   20.4093 N   0  0  0  0  0  0
  -31.8293  -14.6248   20.1105 O   0  0  0  0  0  0
  -21.6634   -6.8823   21.4220 O   0  0  0  0  0  0
  -22.3535  -14.5585   20.6773 O   0  0  0  0  0  0
  -24.6110  -31.8712   23.2108 C   0  0  0  0  0  0
  -25.9006  -32.4853   23.8407 C   0  0  1  0  0  0
  -27.2377  -27.4738   20.0888 C   0  0  0  0  0  0
  -25.5848  -33.8643   24.2314 N   0  0  0  0  0  0
  -23.3970  -30.4944   21.5480 C   0  0  2  0  0  0
  -24.8493  -28.9632   20.1102 C   0  0  0  0  0  0
  -22.7410  -29.4684   22.4987 C   0  0  0  0  0  0
  -18.0272  -28.1405   22.8513 C   0  0  0  0  0  0
  -24.1464  -36.7338   23.2637 C   0  0  0  0  0  0
  -25.9211  -30.8465   21.3600 C   0  0  0  0  0  0
  -26.0032  -29.4814   20.7120 C   0  0  0  0  0  0
  -27.2010  -28.7367   20.7120 C   0  0  0  0  0  0
  -26.0729  -26.9556   19.4906 C   0  0  0  0  0  0
  -24.8760  -27.6975   19.4971 C   0  0  0  0  0  0
  -23.6079  -29.8264   20.1618 C   0  0  0  0  0  0
  -25.4088  -36.3127   24.0331 C   0  0  1  0  0  0
  -20.5862  -28.3685   23.1329 C   0  0  2  0  0  0
  -20.6766  -26.9418   22.5433 C   0  0  0  0  0  0
  -19.5743  -26.6404   21.5243 C   0  0  0  0  0  0
  -18.1911  -26.7954   22.1643 C   0  0  0  0  0  0
  -19.1518  -28.8861   23.2925 C   0  0  0  0  0  0
  -18.9451  -30.1476   23.8924 C   0  0  0  0  0  0
  -17.6451  -30.6601   24.0580 C   0  0  0  0  0  0
  -25.9022  -34.9493   23.5121 C   0  0  0  0  0  0
  -16.5342  -29.9110   23.6333 C   0  0  0  0  0  0
  -16.7263  -28.6539   23.0330 C   0  0  0  0  0  0
  -26.4469  -31.6637   25.0734 C   0  0  0  0  0  0
  -25.3742  -31.3741   26.1490 C   0  0  0  0  0  0
  -27.0290  -30.3061   24.6121 C   0  0  0  0  0  0
  -27.6019  -32.4389   25.7512 C   0  0  0  0  0  0
  -27.5565  -37.1817   24.8467 C   0  0  0  0  0  0
  -21.4141  -29.3051   22.3739 N   0  0  0  0  0  0
  -26.4267  -37.3812   23.9428 N   0  0  0  0  0  0
  -24.6604  -31.0861   22.0975 N   0  0  0  0  0  0
  -23.4190  -28.8224   23.3024 O   0  0  0  0  0  0
  -28.3786  -26.7155   20.1168 O   0  0  0  0  0  0
  -26.5614  -34.8951   22.4695 O   0  0  0  0  0  0
  -23.5327  -32.1458   23.7511 O   0  0  0  0  0  0
  -29.0817  -21.5140   19.6406 C   0  0  0  0  0  0
  -29.3117  -20.2448   19.1612 C   0  0  0  0  0  0
  -28.0264  -21.3497   17.6971 C   0  0  0  0  0  0
  -27.2428  -22.1067   13.9442 C   0  0  0  0  0  0
  -29.2283  -16.9965   18.5945 C   0  0  0  0  0  0
  -30.8835  -25.4201   17.6529 C   0  0  0  0  0  0
  -30.1685  -19.1253   19.7043 C   0  0  0  0  0  0
  -27.2145  -21.6299   16.4638 C   0  0  0  0  0  0
  -28.0542  -21.6670   15.1727 C   0  0  0  0  0  0
  -28.5063  -24.5518   17.8953 C   0  0  0  0  0  0
  -27.7832  -23.5558   18.8317 C   0  0  0  0  0  0
  -30.3190  -16.8957   20.9189 C   0  0  0  0  0  0
  -29.1975  -26.7838   18.9607 C   0  0  0  0  0  0
  -29.4736  -17.7478   19.9234 C   0  0  2  0  0  0
  -29.6472  -25.3595   18.5621 C   0  0  2  0  0  0
  -28.2930  -22.1721   18.7281 N   0  0  0  0  0  0
  -28.6415  -20.1922   17.9634 N   0  3  0  0  0  0
  -29.9405  -15.4739   20.9851 N   0  0  0  0  0  0
  -31.4642  -12.3821   19.1186 H   0  0  0  0  0  0
  -30.3122  -11.2721   19.8034 H   0  0  0  0  0  0
  -29.7196  -11.7847   17.4122 H   0  0  0  0  0  0
  -29.6526  -13.4898   17.7736 H   0  0  0  0  0  0
  -27.8243  -11.2967   18.8131 H   0  0  0  0  0  0
  -27.3563  -12.6267   17.7904 H   0  0  0  0  0  0
  -27.7041  -14.2405   19.5898 H   0  0  0  0  0  0
  -28.6744  -11.9336   21.3408 H   0  0  0  0  0  0
  -28.4679  -13.5685   21.8750 H   0  0  0  0  0  0
  -25.2699   -9.5700   22.4745 H   0  0  0  0  0  0
  -23.9999   -7.4618   22.7442 H   0  0  0  0  0  0
  -21.0856   -8.8713   19.8923 H   0  0  0  0  0  0
  -22.3640  -10.9629   19.6174 H   0  0  0  0  0  0
  -21.1983   -7.6151   23.9716 H   0  0  0  0  0  0
  -21.1495   -6.0530   25.9077 H   0  0  0  0  0  0
  -22.0589   -2.7624   23.2889 H   0  0  0  0  0  0
  -22.4139  -11.9859   22.4751 H   0  0  0  0  0  0
  -21.1099  -13.1180   22.2617 H   0  0  0  0  0  0
  -24.6883  -15.8531   20.5014 H   0  0  0  0  0  0
  -26.3002  -15.6006   20.0807 H   0  0  0  0  0  0
  -26.7076  -32.5614   23.1189 H   0  0  0  0  0  0
  -24.9964  -33.9810   25.0434 H   0  0  0  0  0  0
  -22.6834  -31.3096   21.4102 H   0  0  0  0  0  0
  -23.3717  -35.9678   23.3318 H   0  0  0  0  0  0
  -24.3546  -36.8953   22.2049 H   0  0  0  0  0  0
  -23.7229  -37.6538   23.6668 H   0  0  0  0  0  0
  -26.0280  -31.6100   20.5875 H   0  0  0  0  0  0
  -26.8078  -30.9055   21.9771 H   0  0  0  0  0  0
  -28.0881  -29.1265   21.1906 H   0  0  0  0  0  0
  -26.0905  -25.9814   19.0251 H   0  0  0  0  0  0
  -23.9912  -27.2910   19.0289 H   0  0  0  0  0  0
  -23.7109  -30.6005   19.4024 H   0  0  0  0  0  0
  -22.7360  -29.2440   19.8653 H   0  0  0  0  0  0
  -25.1267  -36.1976   25.0822 H   0  0  0  0  0  0
  -20.9963  -28.3258   24.1446 H   0  0  0  0  0  0
  -20.5708  -26.2295   23.3631 H   0  0  0  0  0  0
  -21.6632  -26.7495   22.1205 H   0  0  0  0  0  0
  -19.6898  -25.6327   21.1251 H   0  0  0  0  0  0
  -19.6652  -27.3242   20.6796 H   0  0  0  0  0  0
  -17.4190  -26.6727   21.4032 H   0  0  0  0  0  0
  -18.0275  -26.0089   22.9035 H   0  0  0  0  0  0
  -19.7920  -30.7293   24.2279 H   0  0  0  0  0  0
  -17.5001  -31.6277   24.5199 H   0  0  0  0  0  0
  -15.5346  -30.3016   23.7635 H   0  0  0  0  0  0
  -15.8669  -28.0877   22.6989 H   0  0  0  0  0  0
  -24.5889  -30.7123   25.7846 H   0  0  0  0  0  0
  -24.8981  -32.2905   26.4990 H   0  0  0  0  0  0
  -25.8108  -30.8885   27.0222 H   0  0  0  0  0  0
  -26.2827  -29.6841   24.1164 H   0  0  0  0  0  0
  -27.4018  -29.7310   25.4616 H   0  0  0  0  0  0
  -27.8698  -30.4376   23.9294 H   0  0  0  0  0  0
  -27.2575  -33.3667   26.2108 H   0  0  0  0  0  0
  -28.3811  -32.6998   25.0333 H   0  0  0  0  0  0
  -28.0702  -31.8518   26.5428 H   0  0  0  0  0  0
  -28.2597  -38.0101   24.7501 H   0  0  0  0  0  0
  -28.1031  -36.2632   24.6287 H   0  0  0  0  0  0
  -27.2297  -37.1480   25.8871 H   0  0  0  0  0  0
  -20.9289  -29.8765   21.6957 H   0  0  0  0  0  0
  -26.0160  -38.2887   24.1412 H   0  0  0  0  0  0
  -29.4344  -21.9923   20.5461 H   0  0  0  0  0  0
  -27.8970  -22.2404   13.0809 H   0  0  0  0  0  0
  -26.7300  -23.0532   14.1214 H   0  0  0  0  0  0
  -26.4884  -21.3671   13.6685 H   0  0  0  0  0  0
  -28.6982  -17.6030   17.8654 H   0  0  0  0  0  0
  -28.6138  -16.1107   18.7428 H   0  0  0  0  0  0
  -30.1681  -16.6777   18.1410 H   0  0  0  0  0  0
  -31.2070  -24.4204   17.3614 H   0  0  0  0  0  0
  -31.7220  -25.8924   18.1648 H   0  0  0  0  0  0
  -30.6887  -25.9865   16.7433 H   0  0  0  0  0  0
  -30.5707  -19.4716   20.6568 H   0  0  0  0  0  0
  -31.0333  -19.0046   19.0514 H   0  0  0  0  0  0
  -26.6964  -22.5784   16.5996 H   0  0  0  0  0  0
  -26.4515  -20.8522   16.4055 H   0  0  0  0  0  0
  -28.8894  -22.3545   15.3113 H   0  0  0  0  0  0
  -28.4964  -20.6882   14.9885 H   0  0  0  0  0  0
  -27.7720  -25.2441   17.4878 H   0  0  0  0  0  0
  -28.8801  -24.0231   17.0204 H   0  0  0  0  0  0
  -26.7173  -23.5302   18.5996 H   0  0  0  0  0  0
  -27.8433  -23.8758   19.8718 H   0  0  0  0  0  0
  -30.2353  -17.3071   21.9245 H   0  0  0  0  0  0
  -31.3730  -16.9873   20.6510 H   0  0  0  0  0  0
  -28.7082  -27.2893   18.1258 H   0  0  0  0  0  0
  -30.0655  -27.3926   19.2209 H   0  0  0  0  0  0
  -28.5032  -17.9291   20.3887 H   0  0  0  0  0  0
  -29.9648  -24.8392   19.4657 H   0  0  0  0  0  0
  -28.6105  -19.3815   17.3565 H   0  0  0  0  0  0
  -29.0134  -15.2538   21.3109 H   0  0  0  0  0  0
  1 25  1  0  0  0
  1 30  2  0  0  0
  1 88  1  0  0  0
  2  3  1  0  0  0
  2 25  1  0  0  0
  2 89  1  0  0  0
  2 90  1  0  0  0
  3  4  1  0  0  0
  3 91  1  0  0  0
  3 92  1  0  0  0
  4  5  1  0  0  0
  4 93  1  0  0  0
  4 94  1  0  0  0
  5  6  1  0  0  0
  5 26  1  0  0  0
  5 95  1  0  0  0
  6 25  1  0  0  0
  6 96  1  0  0  0
  6 97  1  0  0  0
  7  8  2  0  0  0
  7 26  1  0  0  0
  7 29  1  0  0  0
  8  9  1  0  0  0
  8 22  1  0  0  0
  9 10  1  0  0  0
  9 27  2  0  0  0
 10 11  2  0  0  0
 10 15  1  0  0  0
 11 12  1  0  0  0
 11 98  1  0  0  0
 12 13  2  0  0  0
 12 99  1  0  0  0
 13 14  1  0  0  0
 13 31  1  0  0  0
 14 15  2  0  0  0
 14100  1  0  0  0
 15101  1  0  0  0
 16 17  2  0  0  0
 16 21  1  0  0  0
 16 31  1  0  0  0
 17 18  1  0  0  0
 17102  1  0  0  0
 18 19  2  0  0  0
 18103  1  0  0  0
 19 20  1  0  0  0
 19 24  1  0  0  0
 20 21  2  0  0  0
 20104  1  0  0  0
 21 23  1  0  0  0
 22 28  1  0  0  0
 22 32  2  0  0  0
 26 27  1  0  0  0
 28105  1  0  0  0
 28106  1  0  0  0
 29107  1  0  0  0
 29108  1  0  0  0
 33 34  1  0  0  0
 33 66  1  0  0  0
 33 70  2  0  0  0
 34 36  1  0  0  0
 34 59  1  0  0  0
 34109  1  0  0  0
 35 44  2  0  0  0
 35 45  1  0  0  0
 35 68  1  0  0  0
 36 56  1  0  0  0
 36110  1  0  0  0
 37 39  1  0  0  0
 37 47  1  0  0  0
 37 66  1  0  0  0
 37111  1  0  0  0
 38 43  2  0  0  0
 38 46  1  0  0  0
 38 47  1  0  0  0
 39 64  1  0  0  0
 39 67  2  0  0  0
 40 52  1  0  0  0
 40 53  2  0  0  0
 40 58  1  0  0  0
 41112  1  0  0  0
 41113  1  0  0  0
 41114  1  0  0  0
 41 48  1  0  0  0
 42 43  1  0  0  0
 42 66  1  0  0  0
 42115  1  0  0  0
 42116  1  0  0  0
 43 44  1  0  0  0
 44117  1  0  0  0
 45 46  2  0  0  0
 45118  1  0  0  0
 46119  1  0  0  0
 47120  1  0  0  0
 47121  1  0  0  0
 48 56  1  0  0  0
 48 65  1  0  0  0
 48122  1  0  0  0
 49 50  1  0  0  0
 49 53  1  0  0  0
 49 64  1  0  0  0
 49123  1  0  0  0
 50 51  1  0  0  0
 50124  1  0  0  0
 50125  1  0  0  0
 51 52  1  0  0  0
 51126  1  0  0  0
 51127  1  0  0  0
 52128  1  0  0  0
 52129  1  0  0  0
 53 54  1  0  0  0
 54 55  2  0  0  0
 54130  1  0  0  0
 55 57  1  0  0  0
 55131  1  0  0  0
 56 69  2  0  0  0
 57 58  2  0  0  0
 57132  1  0  0  0
 58133  1  0  0  0
 59 60  1  0  0  0
 59 61  1  0  0  0
 59 62  1  0  0  0
 60134  1  0  0  0
 60135  1  0  0  0
 60136  1  0  0  0
 61137  1  0  0  0
 61138  1  0  0  0
 61139  1  0  0  0
 62140  1  0  0  0
 62141  1  0  0  0
 62142  1  0  0  0
 63 65  1  0  0  0
 63143  1  0  0  0
 63144  1  0  0  0
 63145  1  0  0  0
 64146  1  0  0  0
 65147  1  0  0  0
 68 83  1  0  0  0
 71 72  2  0  0  0
 71 86  1  0  0  0
 71148  1  0  0  0
 72 77  1  0  0  0
 72 87  1  0  0  0
 73 78  1  0  0  0
 73 86  1  0  0  0
 73 87  2  0  0  0
 74 79  1  0  0  0
 74149  1  0  0  0
 74150  1  0  0  0
 74151  1  0  0  0
 75152  1  0  0  0
 75153  1  0  0  0
 75154  1  0  0  0
 75 84  1  0  0  0
 76155  1  0  0  0
 76156  1  0  0  0
 76157  1  0  0  0
 76 85  1  0  0  0
 77 84  1  0  0  0
 77158  1  0  0  0
 77159  1  0  0  0
 78 79  1  0  0  0
 78160  1  0  0  0
 78161  1  0  0  0
 79162  1  0  0  0
 79163  1  0  0  0
 80 81  1  0  0  0
 80 85  1  0  0  0
 80164  1  0  0  0
 80165  1  0  0  0
 81 86  1  0  0  0
 81166  1  0  0  0
 81167  1  0  0  0
 82 84  1  0  0  0
 82 88  1  0  0  0
 82168  1  0  0  0
 82169  1  0  0  0
 83 85  1  0  0  0
 83170  1  0  0  0
 83171  1  0  0  0
 84172  1  0  0  0
 85173  1  0  0  0
 87174  1  0  0  0
 88175  1  0  0  0
M  CHG  1  87   1
M  ISO  4   1 100  68 101  83 101  88 100
M  END
> <chiral flag>
0

> <version>
0

> <s_m_source_file>
/data/baiqing/PycharmProjects/Reinvent-master-3.2/result/LINK_invent/BTK/process_docking_weight1_custom_sum_contain_oxygen_bond_distance_aromatic_linkinvent_7_9_3/rearranged_h_0090.sdf

> <i_m_source_file_index>
55

> <r_mmod_Potential_Energy-OPLS-2005>
-57.3515090942383

> <r_mmod_Stretch_Energy-OPLS-2005>
34.0616645812988

> <r_mmod_Bend_Energy-OPLS-2005>
96.2420959472656

> <r_mmod_Torsional_Energy-OPLS-2005>
278.100677490234

> <r_mmod_Improper_Torsional_Energy-OPLS-2005>
4.78490447998047

> <r_mmod_Van_der_Waal_Energy-OPLS-2005>
119.697532653809

> <r_mmod_Electrostatic_Energy-OPLS-2005>
-201.166839599609

> <r_mmod_Solvation_Energy-OPLS-2005>
-400.687774658203

> <b_mmod_Minimization_Converged-OPLS-2005>
0

> <r_mmod_RMS_Derivative-OPLS-2005>
4.42889881134033

$$$$
56
                    3D
 Structure written by MMmdl.
169177  0  0  1  0            999 V2000
  -30.7581  -14.3617   20.6772 C   0  0  0  0  0  0
  -30.4172  -12.2875   19.3871 C   0  0  0  0  0  0
  -29.4810  -12.5260   18.1880 C   0  0  0  0  0  0
  -28.0050  -12.3842   18.6064 C   0  0  0  0  0  0
  -27.6660  -13.2008   19.8809 C   0  0  2  0  0  0
  -28.7044  -12.9302   20.9917 C   0  0  0  0  0  0
  -25.2604  -13.8153   20.5673 C   0  0  0  0  0  0
  -24.1849  -13.0438   20.9170 C   0  0  0  0  0  0
  -24.6393  -11.6903   20.8738 C   0  0  0  0  0  0
  -23.9067  -10.4290   21.0410 C   0  0  0  0  0  0
  -24.3618   -9.4207   21.9188 C   0  0  0  0  0  0
  -23.6291   -8.2245   22.0756 C   0  0  0  0  0  0
  -22.4277   -8.0286   21.3544 C   0  0  0  0  0  0
  -21.9919   -9.0263   20.4641 C   0  0  0  0  0  0
  -22.7247  -10.2135   20.3050 C   0  0  0  0  0  0
  -21.6851   -6.0744   22.5283 C   0  0  0  0  0  0
  -21.4013   -6.5646   23.8218 C   0  0  0  0  0  0
  -21.3653   -5.6796   24.9180 C   0  0  0  0  0  0
  -21.6043   -4.3060   24.7228 C   0  0  0  0  0  0
  -21.8822   -3.8151   23.4346 C   0  0  0  0  0  0
  -21.9193   -4.6969   22.3405 C   0  0  0  0  0  0
  -22.7873  -13.5241   21.1840 C   0  0  0  0  0  0
  -22.1663   -4.2157   21.0981 F   0  0  0  0  0  0
  -21.5625   -3.4538   25.7739 F   0  0  0  0  0  0
  -30.0460  -13.2277   20.4538 N   0  0  0  0  0  0
  -26.3042  -12.9312   20.3389 N   0  0  0  0  0  0
  -25.9315  -11.6472   20.5765 N   0  0  0  0  0  0
  -22.0510  -12.8222   22.0378 N   0  0  0  0  0  0
  -25.4342  -15.1869   20.4059 N   0  0  0  0  0  0
  -31.7945  -14.6479   20.0700 O   0  0  0  0  0  0
  -21.6634   -6.8889   21.4242 O   0  0  0  0  0  0
  -22.3571  -14.5563   20.6705 O   0  0  0  0  0  0
  -24.6130  -31.8708   23.2118 C   0  0  0  0  0  0
  -25.9037  -32.4823   23.8394 C   0  0  1  0  0  0
  -27.2322  -27.4492   20.0733 C   0  0  0  0  0  0
  -25.5899  -33.8624   24.2327 N   0  0  0  0  0  0
  -23.3985  -30.4936   21.5547 C   0  0  2  0  0  0
  -24.8401  -28.9606   20.1152 C   0  0  0  0  0  0
  -22.7401  -29.4658   22.5024 C   0  0  0  0  0  0
  -18.0263  -28.1376   22.8490 C   0  0  0  0  0  0
  -24.1479  -36.7312   23.2630 C   0  0  0  0  0  0
  -25.9253  -30.8366   21.3637 C   0  0  0  0  0  0
  -25.9997  -29.4721   20.7099 C   0  0  0  0  0  0
  -27.1942  -28.7207   20.6904 C   0  0  0  0  0  0
  -26.0479  -26.9437   19.4863 C   0  0  0  0  0  0
  -24.8573  -27.6942   19.5067 C   0  0  0  0  0  0
  -23.6025  -29.8270   20.1686 C   0  0  0  0  0  0
  -25.4107  -36.3113   24.0318 C   0  0  1  0  0  0
  -20.5847  -28.3649   23.1341 C   0  0  2  0  0  0
  -20.6759  -26.9389   22.5429 C   0  0  0  0  0  0
  -19.5745  -26.6384   21.5212 C   0  0  0  0  0  0
  -18.1920  -26.7933   22.1612 C   0  0  0  0  0  0
  -19.1507  -28.8830   23.2914 C   0  0  0  0  0  0
  -18.9433  -30.1442   23.8907 C   0  0  0  0  0  0
  -17.6434  -30.6585   24.0554 C   0  0  0  0  0  0
  -25.9034  -34.9476   23.5123 C   0  0  0  0  0  0
  -16.5325  -29.9079   23.6321 C   0  0  0  0  0  0
  -16.7251  -28.6499   23.0339 C   0  0  0  0  0  0
  -26.4475  -31.6588   25.0710 C   0  0  0  0  0  0
  -25.3735  -31.3654   26.1440 C   0  0  0  0  0  0
  -27.0326  -30.3042   24.6073 C   0  0  0  0  0  0
  -27.6041  -32.4317   25.7485 C   0  0  0  0  0  0
  -27.5585  -37.1817   24.8463 C   0  0  0  0  0  0
  -21.4129  -29.3021   22.3757 N   0  0  0  0  0  0
  -26.4300  -37.3793   23.9394 N   0  0  0  0  0  0
  -24.6638  -31.0808   22.1022 N   0  0  0  0  0  0
  -23.4174  -28.8196   23.3061 O   0  0  0  0  0  0
  -28.4349  -26.7738   20.0663 O   0  0  0  0  0  0
  -26.5600  -34.8930   22.4688 O   0  0  0  0  0  0
  -23.5329  -32.1462   23.7526 O   0  0  0  0  0  0
  -27.7788  -22.6382   17.6267 C   0  0  0  0  0  0
  -28.0473  -22.1747   18.9458 C   0  0  0  0  0  0
  -27.2141  -21.6270   16.9068 C   0  0  0  0  0  0
  -27.6568  -20.8562   18.9840 C   0  0  0  0  0  0
  -26.7380  -21.6106   15.4887 C   0  0  0  0  0  0
  -26.5968  -19.2183   17.3444 C   0  0  0  0  0  0
  -28.6783  -22.9745   20.0717 C   0  0  0  0  0  0
  -27.7431  -19.8569   20.1082 C   0  0  0  0  0  0
  -28.0441  -24.3552   20.3486 C   0  0  0  0  0  0
  -30.6707  -17.6020   21.1757 C   0  0  0  0  0  0
  -30.8762  -16.3966   22.1169 C   0  0  0  0  0  0
  -29.2188  -18.1185   21.1064 C   0  0  0  0  0  0
  -28.5485  -25.4945   19.4371 C   0  0  0  0  0  0
  -27.1404  -20.5165   17.7340 N   0  0  0  0  0  0
  -30.2594  -15.1652   21.6249 N   0  0  0  0  0  0
  -29.0802  -19.2351   20.1455 N   0  3  0  0  0  0
  -31.4583  -12.3948   19.0772 H   0  0  0  0  0  0
  -30.3218  -11.2625   19.7485 H   0  0  0  0  0  0
  -29.7098  -11.8256   17.3837 H   0  0  0  0  0  0
  -29.6513  -13.5242   17.7816 H   0  0  0  0  0  0
  -27.8069  -11.3258   18.7799 H   0  0  0  0  0  0
  -27.3516  -12.6827   17.7859 H   0  0  0  0  0  0
  -27.7288  -14.2563   19.6150 H   0  0  0  0  0  0
  -28.6672  -11.8824   21.2936 H   0  0  0  0  0  0
  -28.4529  -13.4924   21.8912 H   0  0  0  0  0  0
  -25.2763   -9.5679   22.4764 H   0  0  0  0  0  0
  -23.9998   -7.4636   22.7473 H   0  0  0  0  0  0
  -21.0857   -8.8785   19.8936 H   0  0  0  0  0  0
  -22.3723  -10.9677   19.6154 H   0  0  0  0  0  0
  -21.2009   -7.6154   23.9729 H   0  0  0  0  0  0
  -21.1467   -6.0522   25.9086 H   0  0  0  0  0  0
  -22.0606   -2.7615   23.2847 H   0  0  0  0  0  0
  -22.4111  -11.9851   22.4718 H   0  0  0  0  0  0
  -21.1126  -13.1239   22.2587 H   0  0  0  0  0  0
  -24.6658  -15.8416   20.5035 H   0  0  0  0  0  0
  -26.2865  -15.6167   20.0723 H   0  0  0  0  0  0
  -26.7102  -32.5540   23.1150 H   0  0  0  0  0  0
  -25.0039  -33.9785   25.0469 H   0  0  0  0  0  0
  -22.6841  -31.3086   21.4204 H   0  0  0  0  0  0
  -23.3746  -35.9645   23.3295 H   0  0  0  0  0  0
  -24.3562  -36.8945   22.2048 H   0  0  0  0  0  0
  -23.7225  -37.6506   23.6658 H   0  0  0  0  0  0
  -26.0395  -31.6059   20.5986 H   0  0  0  0  0  0
  -26.8125  -30.8869   21.9832 H   0  0  0  0  0  0
  -28.0928  -29.1157   21.1434 H   0  0  0  0  0  0
  -26.0170  -25.9766   19.0073 H   0  0  0  0  0  0
  -23.9611  -27.2945   19.0508 H   0  0  0  0  0  0
  -23.7093  -30.6029   19.4098 H   0  0  0  0  0  0
  -22.7255  -29.2479   19.8742 H   0  0  0  0  0  0
  -25.1287  -36.1976   25.0809 H   0  0  0  0  0  0
  -20.9935  -28.3212   24.1465 H   0  0  0  0  0  0
  -20.5689  -26.2241   23.3602 H   0  0  0  0  0  0
  -21.6630  -26.7467   22.1211 H   0  0  0  0  0  0
  -19.6900  -25.6304   21.1223 H   0  0  0  0  0  0
  -19.6692  -27.3212   20.6752 H   0  0  0  0  0  0
  -17.4208  -26.6698   21.3995 H   0  0  0  0  0  0
  -18.0286  -26.0067   22.8986 H   0  0  0  0  0  0
  -19.7903  -30.7254   24.2291 H   0  0  0  0  0  0
  -17.4981  -31.6263   24.5163 H   0  0  0  0  0  0
  -15.5322  -30.2966   23.7653 H   0  0  0  0  0  0
  -15.8656  -28.0817   22.7036 H   0  0  0  0  0  0
  -24.5943  -30.6974   25.7739 H   0  0  0  0  0  0
  -24.8879  -32.2791   26.4881 H   0  0  0  0  0  0
  -25.8092  -30.8817   27.0192 H   0  0  0  0  0  0
  -26.2873  -29.6781   24.1153 H   0  0  0  0  0  0
  -27.4137  -29.7286   25.4515 H   0  0  0  0  0  0
  -27.8681  -30.4368   23.9194 H   0  0  0  0  0  0
  -27.2655  -33.3622   26.2054 H   0  0  0  0  0  0
  -28.3858  -32.6876   25.0316 H   0  0  0  0  0  0
  -28.0699  -31.8446   26.5412 H   0  0  0  0  0  0
  -28.2600  -38.0122   24.7529 H   0  0  0  0  0  0
  -28.1092  -36.2652   24.6278 H   0  0  0  0  0  0
  -27.2297  -37.1451   25.8867 H   0  0  0  0  0  0
  -20.9291  -29.8715   21.6955 H   0  0  0  0  0  0
  -26.0190  -38.2871   24.1397 H   0  0  0  0  0  0
  -27.9781  -23.6241   17.2316 H   0  0  0  0  0  0
  -26.6949  -22.6194   15.0777 H   0  0  0  0  0  0
  -25.7385  -21.1809   15.4100 H   0  0  0  0  0  0
  -27.4098  -21.0263   14.8593 H   0  0  0  0  0  0
  -26.6741  -19.0698   16.2673 H   0  0  0  0  0  0
  -25.5468  -19.1593   17.6311 H   0  0  0  0  0  0
  -27.1435  -18.4053   17.8202 H   0  0  0  0  0  0
  -29.7458  -23.0795   19.8755 H   0  0  0  0  0  0
  -28.6103  -22.3897   20.9882 H   0  0  0  0  0  0
  -26.9720  -19.0920   20.0101 H   0  0  0  0  0  0
  -27.5438  -20.3458   21.0616 H   0  0  0  0  0  0
  -28.3215  -24.6240   21.3679 H   0  0  0  0  0  0
  -26.9560  -24.2873   20.3504 H   0  0  0  0  0  0
  -31.0316  -17.3505   20.1772 H   0  0  0  0  0  0
  -31.3118  -18.4123   21.5250 H   0  0  0  0  0  0
  -30.4719  -16.6186   23.1055 H   0  0  0  0  0  0
  -31.9446  -16.2242   22.2630 H   0  0  0  0  0  0
  -28.9045  -18.4530   22.0964 H   0  0  0  0  0  0
  -28.5447  -17.3111   20.8159 H   0  0  0  0  0  0
  -28.0800  -25.4839   18.4531 H   0  0  0  0  0  0
  -29.6131  -25.3503   19.2508 H   0  0  0  0  0  0
  -29.4257  -14.8388   22.0924 H   0  0  0  0  0  0
  -29.7469  -19.9551   20.3691 H   0  0  0  0  0  0
  -29.2940  -18.9067   19.2185 H   0  0  0  0  0  0
  1 25  1  0  0  0
  1 30  2  0  0  0
  1 85  1  0  0  0
  2  3  1  0  0  0
  2 25  1  0  0  0
  2 87  1  0  0  0
  2 88  1  0  0  0
  3  4  1  0  0  0
  3 89  1  0  0  0
  3 90  1  0  0  0
  4  5  1  0  0  0
  4 91  1  0  0  0
  4 92  1  0  0  0
  5  6  1  0  0  0
  5 26  1  0  0  0
  5 93  1  0  0  0
  6 25  1  0  0  0
  6 94  1  0  0  0
  6 95  1  0  0  0
  7  8  2  0  0  0
  7 26  1  0  0  0
  7 29  1  0  0  0
  8  9  1  0  0  0
  8 22  1  0  0  0
  9 10  1  0  0  0
  9 27  2  0  0  0
 10 11  2  0  0  0
 10 15  1  0  0  0
 11 12  1  0  0  0
 11 96  1  0  0  0
 12 13  2  0  0  0
 12 97  1  0  0  0
 13 14  1  0  0  0
 13 31  1  0  0  0
 14 15  2  0  0  0
 14 98  1  0  0  0
 15 99  1  0  0  0
 16 17  2  0  0  0
 16 21  1  0  0  0
 16 31  1  0  0  0
 17 18  1  0  0  0
 17100  1  0  0  0
 18 19  2  0  0  0
 18101  1  0  0  0
 19 20  1  0  0  0
 19 24  1  0  0  0
 20 21  2  0  0  0
 20102  1  0  0  0
 21 23  1  0  0  0
 22 28  1  0  0  0
 22 32  2  0  0  0
 26 27  1  0  0  0
 28103  1  0  0  0
 28104  1  0  0  0
 29105  1  0  0  0
 29106  1  0  0  0
 33 34  1  0  0  0
 33 66  1  0  0  0
 33 70  2  0  0  0
 34 36  1  0  0  0
 34 59  1  0  0  0
 34107  1  0  0  0
 35 44  2  0  0  0
 35 45  1  0  0  0
 35 68  1  0  0  0
 36 56  1  0  0  0
 36108  1  0  0  0
 37 39  1  0  0  0
 37 47  1  0  0  0
 37 66  1  0  0  0
 37109  1  0  0  0
 38 43  2  0  0  0
 38 46  1  0  0  0
 38 47  1  0  0  0
 39 64  1  0  0  0
 39 67  2  0  0  0
 40 52  1  0  0  0
 40 53  2  0  0  0
 40 58  1  0  0  0
 41110  1  0  0  0
 41111  1  0  0  0
 41112  1  0  0  0
 41 48  1  0  0  0
 42 43  1  0  0  0
 42 66  1  0  0  0
 42113  1  0  0  0
 42114  1  0  0  0
 43 44  1  0  0  0
 44115  1  0  0  0
 45 46  2  0  0  0
 45116  1  0  0  0
 46117  1  0  0  0
 47118  1  0  0  0
 47119  1  0  0  0
 48 56  1  0  0  0
 48 65  1  0  0  0
 48120  1  0  0  0
 49 50  1  0  0  0
 49 53  1  0  0  0
 49 64  1  0  0  0
 49121  1  0  0  0
 50 51  1  0  0  0
 50122  1  0  0  0
 50123  1  0  0  0
 51 52  1  0  0  0
 51124  1  0  0  0
 51125  1  0  0  0
 52126  1  0  0  0
 52127  1  0  0  0
 53 54  1  0  0  0
 54 55  2  0  0  0
 54128  1  0  0  0
 55 57  1  0  0  0
 55129  1  0  0  0
 56 69  2  0  0  0
 57 58  2  0  0  0
 57130  1  0  0  0
 58131  1  0  0  0
 59 60  1  0  0  0
 59 61  1  0  0  0
 59 62  1  0  0  0
 60132  1  0  0  0
 60133  1  0  0  0
 60134  1  0  0  0
 61135  1  0  0  0
 61136  1  0  0  0
 61137  1  0  0  0
 62138  1  0  0  0
 62139  1  0  0  0
 62140  1  0  0  0
 63 65  1  0  0  0
 63141  1  0  0  0
 63142  1  0  0  0
 63143  1  0  0  0
 64144  1  0  0  0
 65145  1  0  0  0
 68 83  1  0  0  0
 71 72  1  0  0  0
 71 73  2  0  0  0
 71146  1  0  0  0
 72 74  2  0  0  0
 72 77  1  0  0  0
 73 75  1  0  0  0
 73 84  1  0  0  0
 74 78  1  0  0  0
 74 84  1  0  0  0
 75147  1  0  0  0
 75148  1  0  0  0
 75149  1  0  0  0
 76 84  1  0  0  0
 76150  1  0  0  0
 76151  1  0  0  0
 76152  1  0  0  0
 77 79  1  0  0  0
 77153  1  0  0  0
 77154  1  0  0  0
 78 86  1  0  0  0
 78155  1  0  0  0
 78156  1  0  0  0
 79 83  1  0  0  0
 79157  1  0  0  0
 79158  1  0  0  0
 80 81  1  0  0  0
 80 82  1  0  0  0
 80159  1  0  0  0
 80160  1  0  0  0
 81 85  1  0  0  0
 81161  1  0  0  0
 81162  1  0  0  0
 82 86  1  0  0  0
 82163  1  0  0  0
 82164  1  0  0  0
 83165  1  0  0  0
 83166  1  0  0  0
 85167  1  0  0  0
 86168  1  0  0  0
 86169  1  0  0  0
M  CHG  1  86   1
M  ISO  4   1 100  68 101  83 101  85 100
M  END
> <chiral flag>
0

> <version>
0

> <s_m_source_file>
/data/baiqing/PycharmProjects/Reinvent-master-3.2/result/LINK_invent/BTK/process_docking_weight1_custom_sum_contain_oxygen_bond_distance_aromatic_linkinvent_7_9_3/rearranged_h_0090.sdf

> <i_m_source_file_index>
56

> <r_mmod_Potential_Energy-OPLS-2005>
-320.431884765625

> <r_mmod_Stretch_Energy-OPLS-2005>
32.6299285888672

> <r_mmod_Bend_Energy-OPLS-2005>
102.656761169434

> <r_mmod_Torsional_Energy-OPLS-2005>
187.677749633789

> <r_mmod_Improper_Torsional_Energy-OPLS-2005>
1.88109064102173

> <r_mmod_Van_der_Waal_Energy-OPLS-2005>
128.032501220703

> <r_mmod_Electrostatic_Energy-OPLS-2005>
-311.014587402344

> <r_mmod_Solvation_Energy-OPLS-2005>
-469.995513916016

> <b_mmod_Minimization_Converged-OPLS-2005>
0

> <r_mmod_RMS_Derivative-OPLS-2005>
1.46447348594666

$$$$
57
                    3D
 Structure written by MMmdl.
169177  0  0  1  0            999 V2000
  -30.7011  -14.4380   20.6464 C   0  0  0  0  0  0
  -30.4096  -12.3153   19.4124 C   0  0  0  0  0  0
  -29.4739  -12.5239   18.2021 C   0  0  0  0  0  0
  -27.9928  -12.3898   18.6092 C   0  0  0  0  0  0
  -27.6523  -13.2145   19.8779 C   0  0  2  0  0  0
  -28.6874  -12.9616   20.9956 C   0  0  0  0  0  0
  -25.2476  -13.8175   20.5675 C   0  0  0  0  0  0
  -24.1743  -13.0409   20.9173 C   0  0  0  0  0  0
  -24.6352  -11.6910   20.8757 C   0  0  0  0  0  0
  -23.9065  -10.4273   21.0409 C   0  0  0  0  0  0
  -24.3617   -9.4187   21.9188 C   0  0  0  0  0  0
  -23.6280   -8.2221   22.0740 C   0  0  0  0  0  0
  -22.4268   -8.0267   21.3529 C   0  0  0  0  0  0
  -21.9931   -9.0245   20.4624 C   0  0  0  0  0  0
  -22.7243  -10.2137   20.3028 C   0  0  0  0  0  0
  -21.6851   -6.0723   22.5268 C   0  0  0  0  0  0
  -21.4019   -6.5643   23.8206 C   0  0  0  0  0  0
  -21.3663   -5.6798   24.9165 C   0  0  0  0  0  0
  -21.6034   -4.3060   24.7234 C   0  0  0  0  0  0
  -21.8811   -3.8150   23.4360 C   0  0  0  0  0  0
  -21.9174   -4.6949   22.3398 C   0  0  0  0  0  0
  -22.7770  -13.5193   21.1878 C   0  0  0  0  0  0
  -22.1666   -4.2129   21.0983 F   0  0  0  0  0  0
  -21.5624   -3.4536   25.7768 F   0  0  0  0  0  0
  -30.0258  -13.2733   20.4585 N   0  0  0  0  0  0
  -26.2939  -12.9375   20.3379 N   0  0  0  0  0  0
  -25.9280  -11.6537   20.5788 N   0  0  0  0  0  0
  -22.0467  -12.8123   22.0458 N   0  0  0  0  0  0
  -25.4117  -15.1895   20.4114 N   0  0  0  0  0  0
  -31.7848  -14.6885   20.1121 O   0  0  0  0  0  0
  -21.6629   -6.8856   21.4221 O   0  0  0  0  0  0
  -22.3423  -14.5484   20.6743 O   0  0  0  0  0  0
  -24.6183  -31.8652   23.2090 C   0  0  0  0  0  0
  -25.9070  -32.4796   23.8393 C   0  0  1  0  0  0
  -27.2440  -27.4228   20.0679 C   0  0  0  0  0  0
  -25.5917  -33.8603   24.2310 N   0  0  0  0  0  0
  -23.4079  -30.4909   21.5474 C   0  0  2  0  0  0
  -24.8538  -28.9508   20.1204 C   0  0  0  0  0  0
  -22.7424  -29.4661   22.4950 C   0  0  0  0  0  0
  -18.0277  -28.1375   22.8482 C   0  0  0  0  0  0
  -24.1488  -36.7302   23.2641 C   0  0  0  0  0  0
  -25.9431  -30.8193   21.3752 C   0  0  0  0  0  0
  -26.0188  -29.4583   20.7092 C   0  0  0  0  0  0
  -27.2168  -28.7037   20.6747 C   0  0  0  0  0  0
  -26.0542  -26.9343   19.4840 C   0  0  0  0  0  0
  -24.8655  -27.6850   19.5113 C   0  0  0  0  0  0
  -23.6197  -29.8217   20.1651 C   0  0  0  0  0  0
  -25.4109  -36.3089   24.0327 C   0  0  1  0  0  0
  -20.5873  -28.3674   23.1276 C   0  0  2  0  0  0
  -20.6762  -26.9394   22.5402 C   0  0  0  0  0  0
  -19.5743  -26.6373   21.5198 C   0  0  0  0  0  0
  -18.1923  -26.7916   22.1608 C   0  0  0  0  0  0
  -19.1533  -28.8835   23.2885 C   0  0  0  0  0  0
  -18.9467  -30.1438   23.8908 C   0  0  0  0  0  0
  -17.6472  -30.6583   24.0563 C   0  0  0  0  0  0
  -25.9047  -34.9459   23.5115 C   0  0  0  0  0  0
  -16.5354  -29.9089   23.6326 C   0  0  0  0  0  0
  -16.7267  -28.6499   23.0354 C   0  0  0  0  0  0
  -26.4482  -31.6605   25.0759 C   0  0  0  0  0  0
  -25.3747  -31.3761   26.1524 C   0  0  0  0  0  0
  -27.0344  -30.3020   24.6250 C   0  0  0  0  0  0
  -27.6024  -32.4371   25.7536 C   0  0  0  0  0  0
  -27.5581  -37.1811   24.8458 C   0  0  0  0  0  0
  -21.4141  -29.3050   22.3682 N   0  0  0  0  0  0
  -26.4292  -37.3777   23.9406 N   0  0  0  0  0  0
  -24.6733  -31.0738   22.0992 N   0  0  0  0  0  0
  -23.4180  -28.8189   23.2999 O   0  0  0  0  0  0
  -28.4243  -26.6976   20.0277 O   0  0  0  0  0  0
  -26.5605  -34.8904   22.4677 O   0  0  0  0  0  0
  -23.5361  -32.1415   23.7467 O   0  0  0  0  0  0
  -30.2076  -20.7587   20.3114 C   0  0  0  0  0  0
  -30.1339  -19.5932   19.5770 C   0  0  0  0  0  0
  -30.9546  -21.2238   18.2802 C   0  0  0  0  0  0
  -31.5872  -21.8723   17.0947 C   0  0  0  0  0  0
  -27.2688  -24.1067   17.0415 C   0  0  0  0  0  0
  -29.7159  -18.1710   19.8866 C   0  0  0  0  0  0
  -28.4837  -24.9077   17.5361 C   0  0  0  0  0  0
  -29.6015  -17.8074   21.3855 C   0  0  0  0  0  0
  -30.5128  -24.3311   19.0498 C   0  0  0  0  0  0
  -31.0359  -23.1418   19.9164 C   0  0  0  0  0  0
  -30.5434  -16.6626   21.8366 C   0  0  0  0  0  0
  -28.3485  -25.2567   20.1183 C   0  0  0  0  0  0
  -28.9726  -24.4514   18.9368 C   0  0  1  0  0  0
  -30.6978  -21.7531   19.4913 N   0  0  0  0  0  0
  -30.5729  -19.9421   18.3255 N   0  3  0  0  0  0
  -30.0711  -15.3347   21.4249 N   0  0  0  0  0  0
  -31.4532  -12.4227   19.1142 H   0  0  0  0  0  0
  -30.3187  -11.2990   19.8002 H   0  0  0  0  0  0
  -29.7044  -11.8049   17.4151 H   0  0  0  0  0  0
  -29.6415  -13.5129   17.7739 H   0  0  0  0  0  0
  -27.7790  -11.3337   18.7827 H   0  0  0  0  0  0
  -27.3469  -12.7023   17.7862 H   0  0  0  0  0  0
  -27.7044  -14.2686   19.6020 H   0  0  0  0  0  0
  -28.6525  -11.9149   21.3060 H   0  0  0  0  0  0
  -28.4279  -13.5306   21.8929 H   0  0  0  0  0  0
  -25.2772   -9.5655   22.4763 H   0  0  0  0  0  0
  -23.9972   -7.4613   22.7481 H   0  0  0  0  0  0
  -21.0852   -8.8770   19.8951 H   0  0  0  0  0  0
  -22.3700  -10.9670   19.6136 H   0  0  0  0  0  0
  -21.2053   -7.6166   23.9703 H   0  0  0  0  0  0
  -21.1488   -6.0541   25.9061 H   0  0  0  0  0  0
  -22.0590   -2.7606   23.2864 H   0  0  0  0  0  0
  -22.4174  -11.9763   22.4721 H   0  0  0  0  0  0
  -21.1087  -13.1045   22.2791 H   0  0  0  0  0  0
  -24.6302  -15.8317   20.4935 H   0  0  0  0  0  0
  -26.2613  -15.6382   20.0904 H   0  0  0  0  0  0
  -26.7147  -32.5471   23.1160 H   0  0  0  0  0  0
  -25.0075  -33.9758   25.0457 H   0  0  0  0  0  0
  -22.6986  -31.3084   21.4042 H   0  0  0  0  0  0
  -23.3746  -35.9647   23.3303 H   0  0  0  0  0  0
  -24.3574  -36.8927   22.2059 H   0  0  0  0  0  0
  -23.7261  -37.6503   23.6672 H   0  0  0  0  0  0
  -26.0907  -31.5961   20.6253 H   0  0  0  0  0  0
  -26.8156  -30.8439   22.0158 H   0  0  0  0  0  0
  -28.1196  -29.0978   21.1206 H   0  0  0  0  0  0
  -26.0332  -25.9796   18.9823 H   0  0  0  0  0  0
  -23.9683  -27.2826   19.0600 H   0  0  0  0  0  0
  -23.7362  -30.5953   19.4057 H   0  0  0  0  0  0
  -22.7426  -29.2463   19.8629 H   0  0  0  0  0  0
  -25.1300  -36.1937   25.0821 H   0  0  0  0  0  0
  -20.9981  -28.3262   24.1396 H   0  0  0  0  0  0
  -20.5626  -26.2298   23.3614 H   0  0  0  0  0  0
  -21.6636  -26.7410   22.1218 H   0  0  0  0  0  0
  -19.6895  -25.6287   21.1229 H   0  0  0  0  0  0
  -19.6674  -27.3181   20.6727 H   0  0  0  0  0  0
  -17.4189  -26.6679   21.4013 H   0  0  0  0  0  0
  -18.0311  -26.0052   22.8995 H   0  0  0  0  0  0
  -19.7961  -30.7245   24.2277 H   0  0  0  0  0  0
  -17.5042  -31.6260   24.5169 H   0  0  0  0  0  0
  -15.5361  -30.3004   23.7635 H   0  0  0  0  0  0
  -15.8665  -28.0814   22.7074 H   0  0  0  0  0  0
  -24.5829  -30.7218   25.7864 H   0  0  0  0  0  0
  -24.9076  -32.2962   26.5057 H   0  0  0  0  0  0
  -25.8094  -30.8835   27.0240 H   0  0  0  0  0  0
  -26.2948  -29.6764   24.1255 H   0  0  0  0  0  0
  -27.3984  -29.7293   25.4791 H   0  0  0  0  0  0
  -27.8835  -30.4277   23.9535 H   0  0  0  0  0  0
  -27.2576  -33.3632   26.2164 H   0  0  0  0  0  0
  -28.3815  -32.7023   25.0375 H   0  0  0  0  0  0
  -28.0736  -31.8504   26.5436 H   0  0  0  0  0  0
  -28.2588  -38.0114   24.7495 H   0  0  0  0  0  0
  -28.1079  -36.2642   24.6292 H   0  0  0  0  0  0
  -27.2292  -37.1471   25.8856 H   0  0  0  0  0  0
  -20.9295  -29.8814   21.6936 H   0  0  0  0  0  0
  -26.0164  -38.2849   24.1405 H   0  0  0  0  0  0
  -29.9797  -20.9408   21.3541 H   0  0  0  0  0  0
  -32.5114  -22.3507   17.4177 H   0  0  0  0  0  0
  -30.8903  -22.5935   16.6752 H   0  0  0  0  0  0
  -31.8086  -21.1062   16.3526 H   0  0  0  0  0  0
  -26.8603  -24.5318   16.1235 H   0  0  0  0  0  0
  -26.4705  -24.0833   17.7817 H   0  0  0  0  0  0
  -27.5479  -23.0747   16.8239 H   0  0  0  0  0  0
  -30.4236  -17.4976   19.4022 H   0  0  0  0  0  0
  -28.7591  -17.9789   19.3972 H   0  0  0  0  0  0
  -28.2521  -25.9748   17.5311 H   0  0  0  0  0  0
  -29.2684  -24.7850   16.7859 H   0  0  0  0  0  0
  -28.5674  -17.5380   21.6113 H   0  0  0  0  0  0
  -29.8009  -18.6817   22.0071 H   0  0  0  0  0  0
  -30.9797  -24.2993   18.0685 H   0  0  0  0  0  0
  -30.8945  -25.2620   19.4704 H   0  0  0  0  0  0
  -30.6596  -23.2684   20.9332 H   0  0  0  0  0  0
  -32.1243  -23.1980   19.9883 H   0  0  0  0  0  0
  -30.5971  -16.6604   22.9273 H   0  0  0  0  0  0
  -31.5640  -16.8544   21.4939 H   0  0  0  0  0  0
  -28.8906  -24.9920   21.0262 H   0  0  0  0  0  0
  -27.3423  -24.8929   20.3177 H   0  0  0  0  0  0
  -28.6129  -23.4283   19.0491 H   0  0  0  0  0  0
  -30.6359  -19.3062   17.5360 H   0  0  0  0  0  0
  -29.1853  -15.0341   21.8074 H   0  0  0  0  0  0
  1 25  1  0  0  0
  1 30  2  0  0  0
  1 86  1  0  0  0
  2  3  1  0  0  0
  2 25  1  0  0  0
  2 87  1  0  0  0
  2 88  1  0  0  0
  3  4  1  0  0  0
  3 89  1  0  0  0
  3 90  1  0  0  0
  4  5  1  0  0  0
  4 91  1  0  0  0
  4 92  1  0  0  0
  5  6  1  0  0  0
  5 26  1  0  0  0
  5 93  1  0  0  0
  6 25  1  0  0  0
  6 94  1  0  0  0
  6 95  1  0  0  0
  7  8  2  0  0  0
  7 26  1  0  0  0
  7 29  1  0  0  0
  8  9  1  0  0  0
  8 22  1  0  0  0
  9 10  1  0  0  0
  9 27  2  0  0  0
 10 11  2  0  0  0
 10 15  1  0  0  0
 11 12  1  0  0  0
 11 96  1  0  0  0
 12 13  2  0  0  0
 12 97  1  0  0  0
 13 14  1  0  0  0
 13 31  1  0  0  0
 14 15  2  0  0  0
 14 98  1  0  0  0
 15 99  1  0  0  0
 16 17  2  0  0  0
 16 21  1  0  0  0
 16 31  1  0  0  0
 17 18  1  0  0  0
 17100  1  0  0  0
 18 19  2  0  0  0
 18101  1  0  0  0
 19 20  1  0  0  0
 19 24  1  0  0  0
 20 21  2  0  0  0
 20102  1  0  0  0
 21 23  1  0  0  0
 22 28  1  0  0  0
 22 32  2  0  0  0
 26 27  1  0  0  0
 28103  1  0  0  0
 28104  1  0  0  0
 29105  1  0  0  0
 29106  1  0  0  0
 33 34  1  0  0  0
 33 66  1  0  0  0
 33 70  2  0  0  0
 34 36  1  0  0  0
 34 59  1  0  0  0
 34107  1  0  0  0
 35 44  2  0  0  0
 35 45  1  0  0  0
 35 68  1  0  0  0
 36 56  1  0  0  0
 36108  1  0  0  0
 37 39  1  0  0  0
 37 47  1  0  0  0
 37 66  1  0  0  0
 37109  1  0  0  0
 38 43  2  0  0  0
 38 46  1  0  0  0
 38 47  1  0  0  0
 39 64  1  0  0  0
 39 67  2  0  0  0
 40 52  1  0  0  0
 40 53  2  0  0  0
 40 58  1  0  0  0
 41110  1  0  0  0
 41111  1  0  0  0
 41112  1  0  0  0
 41 48  1  0  0  0
 42 43  1  0  0  0
 42 66  1  0  0  0
 42113  1  0  0  0
 42114  1  0  0  0
 43 44  1  0  0  0
 44115  1  0  0  0
 45 46  2  0  0  0
 45116  1  0  0  0
 46117  1  0  0  0
 47118  1  0  0  0
 47119  1  0  0  0
 48 56  1  0  0  0
 48 65  1  0  0  0
 48120  1  0  0  0
 49 50  1  0  0  0
 49 53  1  0  0  0
 49 64  1  0  0  0
 49121  1  0  0  0
 50 51  1  0  0  0
 50122  1  0  0  0
 50123  1  0  0  0
 51 52  1  0  0  0
 51124  1  0  0  0
 51125  1  0  0  0
 52126  1  0  0  0
 52127  1  0  0  0
 53 54  1  0  0  0
 54 55  2  0  0  0
 54128  1  0  0  0
 55 57  1  0  0  0
 55129  1  0  0  0
 56 69  2  0  0  0
 57 58  2  0  0  0
 57130  1  0  0  0
 58131  1  0  0  0
 59 60  1  0  0  0
 59 61  1  0  0  0
 59 62  1  0  0  0
 60132  1  0  0  0
 60133  1  0  0  0
 60134  1  0  0  0
 61135  1  0  0  0
 61136  1  0  0  0
 61137  1  0  0  0
 62138  1  0  0  0
 62139  1  0  0  0
 62140  1  0  0  0
 63 65  1  0  0  0
 63141  1  0  0  0
 63142  1  0  0  0
 63143  1  0  0  0
 64144  1  0  0  0
 65145  1  0  0  0
 68 82  1  0  0  0
 71 72  2  0  0  0
 71 84  1  0  0  0
 71146  1  0  0  0
 72 76  1  0  0  0
 72 85  1  0  0  0
 73 74  1  0  0  0
 73 84  1  0  0  0
 73 85  2  0  0  0
 74147  1  0  0  0
 74148  1  0  0  0
 74149  1  0  0  0
 75 77  1  0  0  0
 75150  1  0  0  0
 75151  1  0  0  0
 75152  1  0  0  0
 76 78  1  0  0  0
 76153  1  0  0  0
 76154  1  0  0  0
 77155  1  0  0  0
 77156  1  0  0  0
 77 83  1  0  0  0
 78 81  1  0  0  0
 78157  1  0  0  0
 78158  1  0  0  0
 79 80  1  0  0  0
 79 83  1  0  0  0
 79159  1  0  0  0
 79160  1  0  0  0
 80 84  1  0  0  0
 80161  1  0  0  0
 80162  1  0  0  0
 81 86  1  0  0  0
 81163  1  0  0  0
 81164  1  0  0  0
 82 83  1  0  0  0
 82165  1  0  0  0
 82166  1  0  0  0
 83167  1  0  0  0
 85168  1  0  0  0
 86169  1  0  0  0
M  CHG  1  85   1
M  ISO  4   1 100  68 101  82 101  86 100
M  END
> <chiral flag>
0

> <version>
0

> <s_m_source_file>
/data/baiqing/PycharmProjects/Reinvent-master-3.2/result/LINK_invent/BTK/process_docking_weight1_custom_sum_contain_oxygen_bond_distance_aromatic_linkinvent_7_9_3/rearranged_h_0090.sdf

> <i_m_source_file_index>
57

> <r_mmod_Potential_Energy-OPLS-2005>
-66.3128662109375

> <r_mmod_Stretch_Energy-OPLS-2005>
40.2818717956543

> <r_mmod_Bend_Energy-OPLS-2005>
114.011154174805

> <r_mmod_Torsional_Energy-OPLS-2005>
253.653289794922

> <r_mmod_Improper_Torsional_Energy-OPLS-2005>
2.71278500556946

> <r_mmod_Van_der_Waal_Energy-OPLS-2005>
127.195243835449

> <r_mmod_Electrostatic_Energy-OPLS-2005>
-206.757949829102

> <r_mmod_Solvation_Energy-OPLS-2005>
-408.680816650391

> <b_mmod_Minimization_Converged-OPLS-2005>
0

> <r_mmod_RMS_Derivative-OPLS-2005>
4.67358636856079

$$$$
58
                    3D
 Structure written by MMmdl.
179188  0  0  1  0            999 V2000
  -30.7311  -14.3994   20.5413 C   0  0  0  0  0  0
  -30.4076  -12.2497   19.4194 C   0  0  0  0  0  0
  -29.4900  -12.4913   18.2032 C   0  0  0  0  0  0
  -28.0094  -12.3717   18.6136 C   0  0  0  0  0  0
  -27.6647  -13.2046   19.8768 C   0  0  2  0  0  0
  -28.7045  -12.9765   20.9994 C   0  0  0  0  0  0
  -25.2602  -13.8158   20.5670 C   0  0  0  0  0  0
  -24.1844  -13.0443   20.9171 C   0  0  0  0  0  0
  -24.6399  -11.6907   20.8741 C   0  0  0  0  0  0
  -23.9064  -10.4292   21.0402 C   0  0  0  0  0  0
  -24.3614   -9.4211   21.9184 C   0  0  0  0  0  0
  -23.6294   -8.2244   22.0747 C   0  0  0  0  0  0
  -22.4274   -8.0282   21.3538 C   0  0  0  0  0  0
  -21.9912   -9.0255   20.4638 C   0  0  0  0  0  0
  -22.7239  -10.2137   20.3049 C   0  0  0  0  0  0
  -21.6844   -6.0736   22.5278 C   0  0  0  0  0  0
  -21.4009   -6.5637   23.8217 C   0  0  0  0  0  0
  -21.3664   -5.6785   24.9175 C   0  0  0  0  0  0
  -21.6048   -4.3048   24.7221 C   0  0  0  0  0  0
  -21.8821   -3.8143   23.4338 C   0  0  0  0  0  0
  -21.9195   -4.6962   22.3396 C   0  0  0  0  0  0
  -22.7871  -13.5254   21.1846 C   0  0  0  0  0  0
  -22.1656   -4.2158   21.0965 F   0  0  0  0  0  0
  -21.5638   -3.4532   25.7731 F   0  0  0  0  0  0
  -30.0431  -13.2362   20.4446 N   0  0  0  0  0  0
  -26.3041  -12.9330   20.3366 N   0  0  0  0  0  0
  -25.9323  -11.6488   20.5776 N   0  0  0  0  0  0
  -22.0481  -12.8248   22.0390 N   0  0  0  0  0  0
  -25.4352  -15.1868   20.4027 N   0  0  0  0  0  0
  -31.8768  -14.5512   20.1101 O   0  0  0  0  0  0
  -21.6628   -6.8879   21.4242 O   0  0  0  0  0  0
  -22.3569  -14.5572   20.6714 O   0  0  0  0  0  0
  -24.6113  -31.8716   23.2165 C   0  0  0  0  0  0
  -25.9030  -32.4826   23.8441 C   0  0  1  0  0  0
  -27.2189  -27.4667   20.0950 C   0  0  0  0  0  0
  -25.5906  -33.8627   24.2376 N   0  0  0  0  0  0
  -23.3964  -30.4991   21.5554 C   0  0  2  0  0  0
  -24.8385  -28.9714   20.1145 C   0  0  0  0  0  0
  -22.7400  -29.4685   22.5008 C   0  0  0  0  0  0
  -18.0264  -28.1385   22.8478 C   0  0  0  0  0  0
  -24.1482  -36.7316   23.2646 C   0  0  0  0  0  0
  -25.9234  -30.8460   21.3652 C   0  0  0  0  0  0
  -25.9980  -29.4860   20.7075 C   0  0  0  0  0  0
  -27.1953  -28.7415   20.6938 C   0  0  0  0  0  0
  -26.0477  -26.9606   19.4898 C   0  0  0  0  0  0
  -24.8551  -27.7046   19.5048 C   0  0  0  0  0  0
  -23.6013  -29.8365   20.1674 C   0  0  0  0  0  0
  -25.4095  -36.3107   24.0352 C   0  0  1  0  0  0
  -20.5856  -28.3663   23.1307 C   0  0  2  0  0  0
  -20.6759  -26.9401   22.5402 C   0  0  0  0  0  0
  -19.5735  -26.6384   21.5204 C   0  0  0  0  0  0
  -18.1910  -26.7932   22.1613 C   0  0  0  0  0  0
  -19.1516  -28.8846   23.2889 C   0  0  0  0  0  0
  -18.9454  -30.1461   23.8880 C   0  0  0  0  0  0
  -17.6458  -30.6590   24.0568 C   0  0  0  0  0  0
  -25.9019  -34.9470   23.5150 C   0  0  0  0  0  0
  -16.5345  -29.9087   23.6343 C   0  0  0  0  0  0
  -16.7256  -28.6520   23.0332 C   0  0  0  0  0  0
  -26.4470  -31.6601   25.0760 C   0  0  0  0  0  0
  -25.3771  -31.3690   26.1544 C   0  0  0  0  0  0
  -27.0312  -30.3053   24.6119 C   0  0  0  0  0  0
  -27.6051  -32.4327   25.7502 C   0  0  0  0  0  0
  -27.5570  -37.1811   24.8466 C   0  0  0  0  0  0
  -21.4141  -29.3033   22.3733 N   0  0  0  0  0  0
  -26.4280  -37.3793   23.9418 N   0  0  0  0  0  0
  -24.6619  -31.0857   22.1039 N   0  0  0  0  0  0
  -23.4196  -28.8218   23.3032 O   0  0  0  0  0  0
  -28.3734  -26.7294   20.1121 O   0  0  0  0  0  0
  -26.5577  -34.8915   22.4704 O   0  0  0  0  0  0
  -23.5316  -32.1454   23.7576 O   0  0  0  0  0  0
  -28.5311  -22.9502   18.0262 C   0  0  0  0  0  0
  -28.8354  -24.3428   19.8542 C   0  0  0  0  0  0
  -29.7619  -22.3074   18.3162 C   0  0  0  0  0  0
  -30.0822  -23.7194   20.1297 C   0  0  0  0  0  0
  -30.0579  -16.9489   18.8822 C   0  0  0  0  0  0
  -29.5852  -17.9077   21.2029 C   0  0  0  0  0  0
  -29.1849  -18.1646   18.5154 C   0  0  0  0  0  0
  -29.9378  -19.2967   20.6211 C   0  0  0  0  0  0
  -30.3192  -16.8135   20.4091 C   0  0  1  0  0  0
  -27.6511  -22.5640   16.8504 C   0  0  0  0  0  0
  -32.4547  -24.2365   20.8891 C   0  0  0  0  0  0
  -30.8413  -23.0317   22.4400 C   0  0  0  0  0  0
  -31.5048  -21.7061   16.6073 C   0  0  0  0  0  0
  -28.2306  -25.4399   20.7149 C   0  0  0  0  0  0
  -30.8243  -20.0072   18.3757 C   0  0  0  0  0  0
  -30.9864  -24.0670   21.3143 C   0  0  0  0  0  0
  -30.3575  -21.1776   17.4816 C   0  0  1  0  0  0
  -28.0704  -23.9606   18.7990 N   0  0  0  0  0  0
  -30.5237  -22.6968   19.3631 N   0  0  0  0  0  0
  -29.9881  -15.4637   20.8741 N   0  0  0  0  0  0
  -29.6984  -19.4083   19.1467 N   0  3  1  0  0  0
  -31.4568  -12.3118   19.1226 H   0  0  0  0  0  0
  -30.2652  -11.2395   19.8071 H   0  0  0  0  0  0
  -29.7123  -11.7737   17.4118 H   0  0  0  0  0  0
  -29.6779  -13.4799   17.7792 H   0  0  0  0  0  0
  -27.8004  -11.3177   18.7986 H   0  0  0  0  0  0
  -27.3646  -12.6701   17.7868 H   0  0  0  0  0  0
  -27.7159  -14.2536   19.5834 H   0  0  0  0  0  0
  -28.6558  -11.9479   21.3599 H   0  0  0  0  0  0
  -28.4918  -13.6022   21.8676 H   0  0  0  0  0  0
  -25.2745   -9.5697   22.4779 H   0  0  0  0  0  0
  -24.0004   -7.4629   22.7460 H   0  0  0  0  0  0
  -21.0852   -8.8783   19.8936 H   0  0  0  0  0  0
  -22.3696  -10.9687   19.6174 H   0  0  0  0  0  0
  -21.1992   -7.6141   23.9731 H   0  0  0  0  0  0
  -21.1484   -6.0495   25.9081 H   0  0  0  0  0  0
  -22.0602   -2.7610   23.2821 H   0  0  0  0  0  0
  -22.4047  -11.9889   22.4777 H   0  0  0  0  0  0
  -21.1108  -13.1325   22.2583 H   0  0  0  0  0  0
  -24.6735  -15.8464   20.5132 H   0  0  0  0  0  0
  -26.2876  -15.6184   20.0711 H   0  0  0  0  0  0
  -26.7106  -32.5536   23.1212 H   0  0  0  0  0  0
  -25.0089  -33.9800   25.0543 H   0  0  0  0  0  0
  -22.6817  -31.3147   21.4227 H   0  0  0  0  0  0
  -23.3728  -35.9664   23.3312 H   0  0  0  0  0  0
  -24.3585  -36.8918   22.2061 H   0  0  0  0  0  0
  -23.7247  -37.6529   23.6651 H   0  0  0  0  0  0
  -26.0376  -31.6157   20.6012 H   0  0  0  0  0  0
  -26.8123  -30.8923   21.9826 H   0  0  0  0  0  0
  -28.0897  -29.1326   21.1586 H   0  0  0  0  0  0
  -26.0558  -25.9896   19.0130 H   0  0  0  0  0  0
  -23.9606  -27.3020   19.0502 H   0  0  0  0  0  0
  -23.7070  -30.6149   19.4103 H   0  0  0  0  0  0
  -22.7239  -29.2582   19.8699 H   0  0  0  0  0  0
  -25.1254  -36.1983   25.0845 H   0  0  0  0  0  0
  -20.9931  -28.3226   24.1434 H   0  0  0  0  0  0
  -20.5663  -26.2270   23.3590 H   0  0  0  0  0  0
  -21.6632  -26.7446   22.1197 H   0  0  0  0  0  0
  -19.6891  -25.6295   21.1233 H   0  0  0  0  0  0
  -19.6678  -27.3198   20.6738 H   0  0  0  0  0  0
  -17.4181  -26.6674   21.4013 H   0  0  0  0  0  0
  -18.0312  -26.0080   22.9013 H   0  0  0  0  0  0
  -19.7933  -30.7289   24.2216 H   0  0  0  0  0  0
  -17.5013  -31.6260   24.5185 H   0  0  0  0  0  0
  -15.5343  -30.2981   23.7701 H   0  0  0  0  0  0
  -15.8652  -28.0861   22.7016 H   0  0  0  0  0  0
  -24.5908  -30.7065   25.7906 H   0  0  0  0  0  0
  -24.9008  -32.2839   26.5077 H   0  0  0  0  0  0
  -25.8168  -30.8809   27.0254 H   0  0  0  0  0  0
  -26.2844  -29.6793   24.1221 H   0  0  0  0  0  0
  -27.4148  -29.7302   25.4557 H   0  0  0  0  0  0
  -27.8647  -30.4384   23.9221 H   0  0  0  0  0  0
  -27.2677  -33.3619   26.2108 H   0  0  0  0  0  0
  -28.3838  -32.6913   25.0312 H   0  0  0  0  0  0
  -28.0756  -31.8449   26.5396 H   0  0  0  0  0  0
  -28.2593  -38.0101   24.7492 H   0  0  0  0  0  0
  -28.1056  -36.2630   24.6296 H   0  0  0  0  0  0
  -27.2294  -37.1475   25.8873 H   0  0  0  0  0  0
  -20.9307  -29.8755   21.6952 H   0  0  0  0  0  0
  -26.0163  -38.2869   24.1413 H   0  0  0  0  0  0
  -31.0159  -17.0113   18.3634 H   0  0  0  0  0  0
  -29.5790  -16.0571   18.4770 H   0  0  0  0  0  0
  -28.5065  -17.7478   21.1821 H   0  0  0  0  0  0
  -29.8725  -17.8692   22.2555 H   0  0  0  0  0  0
  -28.1583  -17.9928   18.8437 H   0  0  0  0  0  0
  -29.1298  -18.2775   17.4311 H   0  0  0  0  0  0
  -30.9778  -19.5073   20.8691 H   0  0  0  0  0  0
  -29.3561  -20.0690   21.1257 H   0  0  0  0  0  0
  -31.3852  -16.9804   20.5813 H   0  0  0  0  0  0
  -28.1922  -22.6799   15.9113 H   0  0  0  0  0  0
  -26.7599  -23.1905   16.7975 H   0  0  0  0  0  0
  -27.3231  -21.5281   16.9366 H   0  0  0  0  0  0
  -32.5495  -24.9827   20.1001 H   0  0  0  0  0  0
  -32.8764  -23.3017   20.5180 H   0  0  0  0  0  0
  -33.0688  -24.5611   21.7296 H   0  0  0  0  0  0
  -29.8116  -22.9792   22.7960 H   0  0  0  0  0  0
  -31.4697  -23.2893   23.2928 H   0  0  0  0  0  0
  -31.1272  -22.0338   22.1067 H   0  0  0  0  0  0
  -31.1446  -22.4713   15.9201 H   0  0  0  0  0  0
  -31.9523  -20.9099   16.0135 H   0  0  0  0  0  0
  -32.2938  -22.1510   17.2149 H   0  0  0  0  0  0
  -28.6664  -25.4693   21.7109 H   0  0  0  0  0  0
  -27.1925  -25.1640   20.9068 H   0  0  0  0  0  0
  -31.6154  -20.3634   19.0361 H   0  0  0  0  0  0
  -31.3095  -19.2478   17.7630 H   0  0  0  0  0  0
  -30.7013  -25.0363   21.7129 H   0  0  0  0  0  0
  -29.5967  -20.7865   16.8065 H   0  0  0  0  0  0
  -29.0582  -15.2862   21.2248 H   0  0  0  0  0  0
  -28.9524  -20.0839   19.0723 H   0  0  0  0  0  0
  1 25  1  0  0  0
  1 30  2  0  0  0
  1 90  1  0  0  0
  2  3  1  0  0  0
  2 25  1  0  0  0
  2 92  1  0  0  0
  2 93  1  0  0  0
  3  4  1  0  0  0
  3 94  1  0  0  0
  3 95  1  0  0  0
  4  5  1  0  0  0
  4 96  1  0  0  0
  4 97  1  0  0  0
  5  6  1  0  0  0
  5 26  1  0  0  0
  5 98  1  0  0  0
  6 25  1  0  0  0
  6 99  1  0  0  0
  6100  1  0  0  0
  7  8  2  0  0  0
  7 26  1  0  0  0
  7 29  1  0  0  0
  8  9  1  0  0  0
  8 22  1  0  0  0
  9 10  1  0  0  0
  9 27  2  0  0  0
 10 11  2  0  0  0
 10 15  1  0  0  0
 11 12  1  0  0  0
 11101  1  0  0  0
 12 13  2  0  0  0
 12102  1  0  0  0
 13 14  1  0  0  0
 13 31  1  0  0  0
 14 15  2  0  0  0
 14103  1  0  0  0
 15104  1  0  0  0
 16 17  2  0  0  0
 16 21  1  0  0  0
 16 31  1  0  0  0
 17 18  1  0  0  0
 17105  1  0  0  0
 18 19  2  0  0  0
 18106  1  0  0  0
 19 20  1  0  0  0
 19 24  1  0  0  0
 20 21  2  0  0  0
 20107  1  0  0  0
 21 23  1  0  0  0
 22 28  1  0  0  0
 22 32  2  0  0  0
 26 27  1  0  0  0
 28108  1  0  0  0
 28109  1  0  0  0
 29110  1  0  0  0
 29111  1  0  0  0
 33 34  1  0  0  0
 33 66  1  0  0  0
 33 70  2  0  0  0
 34 36  1  0  0  0
 34 59  1  0  0  0
 34112  1  0  0  0
 35 44  2  0  0  0
 35 45  1  0  0  0
 35 68  1  0  0  0
 36 56  1  0  0  0
 36113  1  0  0  0
 37 39  1  0  0  0
 37 47  1  0  0  0
 37 66  1  0  0  0
 37114  1  0  0  0
 38 43  2  0  0  0
 38 46  1  0  0  0
 38 47  1  0  0  0
 39 64  1  0  0  0
 39 67  2  0  0  0
 40 52  1  0  0  0
 40 53  2  0  0  0
 40 58  1  0  0  0
 41115  1  0  0  0
 41116  1  0  0  0
 41117  1  0  0  0
 41 48  1  0  0  0
 42 43  1  0  0  0
 42 66  1  0  0  0
 42118  1  0  0  0
 42119  1  0  0  0
 43 44  1  0  0  0
 44120  1  0  0  0
 45 46  2  0  0  0
 45121  1  0  0  0
 46122  1  0  0  0
 47123  1  0  0  0
 47124  1  0  0  0
 48 56  1  0  0  0
 48 65  1  0  0  0
 48125  1  0  0  0
 49 50  1  0  0  0
 49 53  1  0  0  0
 49 64  1  0  0  0
 49126  1  0  0  0
 50 51  1  0  0  0
 50127  1  0  0  0
 50128  1  0  0  0
 51 52  1  0  0  0
 51129  1  0  0  0
 51130  1  0  0  0
 52131  1  0  0  0
 52132  1  0  0  0
 53 54  1  0  0  0
 54 55  2  0  0  0
 54133  1  0  0  0
 55 57  1  0  0  0
 55134  1  0  0  0
 56 69  2  0  0  0
 57 58  2  0  0  0
 57135  1  0  0  0
 58136  1  0  0  0
 59 60  1  0  0  0
 59 61  1  0  0  0
 59 62  1  0  0  0
 60137  1  0  0  0
 60138  1  0  0  0
 60139  1  0  0  0
 61140  1  0  0  0
 61141  1  0  0  0
 61142  1  0  0  0
 62143  1  0  0  0
 62144  1  0  0  0
 62145  1  0  0  0
 63 65  1  0  0  0
 63146  1  0  0  0
 63147  1  0  0  0
 63148  1  0  0  0
 64149  1  0  0  0
 65150  1  0  0  0
 68 84  1  0  0  0
 71 73  2  0  0  0
 71 80  1  0  0  0
 71 88  1  0  0  0
 72 74  1  0  0  0
 72 84  1  0  0  0
 72 88  2  0  0  0
 73 87  1  0  0  0
 73 89  1  0  0  0
 74 86  1  0  0  0
 74 89  2  0  0  0
 75 77  1  0  0  0
 75 79  1  0  0  0
 75151  1  0  0  0
 75152  1  0  0  0
 76 78  1  0  0  0
 76 79  1  0  0  0
 76153  1  0  0  0
 76154  1  0  0  0
 77 91  1  0  0  0
 77155  1  0  0  0
 77156  1  0  0  0
 78 91  1  0  0  0
 78157  1  0  0  0
 78158  1  0  0  0
 79 90  1  0  0  0
 79159  1  0  0  0
 80160  1  0  0  0
 80161  1  0  0  0
 80162  1  0  0  0
 81163  1  0  0  0
 81164  1  0  0  0
 81165  1  0  0  0
 81 86  1  0  0  0
 82 86  1  0  0  0
 82166  1  0  0  0
 82167  1  0  0  0
 82168  1  0  0  0
 83169  1  0  0  0
 83170  1  0  0  0
 83171  1  0  0  0
 83 87  1  0  0  0
 84172  1  0  0  0
 84173  1  0  0  0
 85 87  1  0  0  0
 85174  1  0  0  0
 85175  1  0  0  0
 85 91  1  0  0  0
 86176  1  0  0  0
 87177  1  0  0  0
 90178  1  0  0  0
 91179  1  0  0  0
M  CHG  1  91   1
M  ISO  4   1 100  68 101  84 101  90 100
M  END
> <chiral flag>
0

> <version>
0

> <s_m_source_file>
/data/baiqing/PycharmProjects/Reinvent-master-3.2/result/LINK_invent/BTK/process_docking_weight1_custom_sum_contain_oxygen_bond_distance_aromatic_linkinvent_7_9_3/rearranged_h_0090.sdf

> <i_m_source_file_index>
58

> <r_mmod_Potential_Energy-OPLS-2005>
-52.2838287353516

> <r_mmod_Stretch_Energy-OPLS-2005>
37.1211128234863

> <r_mmod_Bend_Energy-OPLS-2005>
103.251243591309

> <r_mmod_Torsional_Energy-OPLS-2005>
277.464904785156

> <r_mmod_Improper_Torsional_Energy-OPLS-2005>
7.70704364776611

> <r_mmod_Van_der_Waal_Energy-OPLS-2005>
172.959823608398

> <r_mmod_Electrostatic_Energy-OPLS-2005>
-223.94221496582

> <r_mmod_Solvation_Energy-OPLS-2005>
-439.241271972656

> <b_mmod_Minimization_Converged-OPLS-2005>
0

> <r_mmod_RMS_Derivative-OPLS-2005>
2.26203536987305

$$$$
59
                    3D
 Structure written by MMmdl.
175183  0  0  1  0            999 V2000
  -30.7335  -14.3759   20.5827 C   0  0  0  0  0  0
  -30.4081  -12.2533   19.4061 C   0  0  0  0  0  0
  -29.4828  -12.5110   18.1994 C   0  0  0  0  0  0
  -28.0027  -12.3913   18.6109 C   0  0  0  0  0  0
  -27.6659  -13.2051   19.8891 C   0  0  2  0  0  0
  -28.7085  -12.9449   21.0050 C   0  0  0  0  0  0
  -25.2594  -13.8168   20.5704 C   0  0  0  0  0  0
  -24.1849  -13.0433   20.9196 C   0  0  0  0  0  0
  -24.6401  -11.6898   20.8745 C   0  0  0  0  0  0
  -23.9068  -10.4301   21.0411 C   0  0  0  0  0  0
  -24.3614   -9.4221   21.9193 C   0  0  0  0  0  0
  -23.6293   -8.2253   22.0758 C   0  0  0  0  0  0
  -22.4272   -8.0297   21.3563 C   0  0  0  0  0  0
  -21.9897   -9.0265   20.4651 C   0  0  0  0  0  0
  -22.7224  -10.2140   20.3072 C   0  0  0  0  0  0
  -21.6859   -6.0745   22.5289 C   0  0  0  0  0  0
  -21.4007   -6.5634   23.8227 C   0  0  0  0  0  0
  -21.3671   -5.6782   24.9188 C   0  0  0  0  0  0
  -21.6058   -4.3062   24.7234 C   0  0  0  0  0  0
  -21.8819   -3.8157   23.4356 C   0  0  0  0  0  0
  -21.9188   -4.6966   22.3407 C   0  0  0  0  0  0
  -22.7872  -13.5218   21.1890 C   0  0  0  0  0  0
  -22.1666   -4.2157   21.0990 F   0  0  0  0  0  0
  -21.5632   -3.4541   25.7753 F   0  0  0  0  0  0
  -30.0495  -13.2145   20.4575 N   0  0  0  0  0  0
  -26.3045  -12.9337   20.3450 N   0  0  0  0  0  0
  -25.9330  -11.6496   20.5794 N   0  0  0  0  0  0
  -22.0524  -12.8194   22.0447 N   0  0  0  0  0  0
  -25.4268  -15.1892   20.4052 N   0  0  0  0  0  0
  -31.8486  -14.5768   20.0898 O   0  0  0  0  0  0
  -21.6646   -6.8884   21.4256 O   0  0  0  0  0  0
  -22.3543  -14.5536   20.6777 O   0  0  0  0  0  0
  -24.6096  -31.8724   23.2137 C   0  0  0  0  0  0
  -25.9019  -32.4838   23.8403 C   0  0  1  0  0  0
  -27.2420  -27.4881   20.0704 C   0  0  0  0  0  0
  -25.5896  -33.8637   24.2336 N   0  0  0  0  0  0
  -23.3926  -30.4972   21.5535 C   0  0  2  0  0  0
  -24.8381  -28.9644   20.1183 C   0  0  0  0  0  0
  -22.7356  -29.4707   22.5023 C   0  0  0  0  0  0
  -18.0267  -28.1382   22.8498 C   0  0  0  0  0  0
  -24.1497  -36.7318   23.2634 C   0  0  0  0  0  0
  -25.9157  -30.8477   21.3632 C   0  0  0  0  0  0
  -25.9909  -29.4816   20.7192 C   0  0  0  0  0  0
  -27.1885  -28.7402   20.7135 C   0  0  0  0  0  0
  -26.0687  -26.9699   19.4733 C   0  0  0  0  0  0
  -24.8672  -27.7010   19.5026 C   0  0  0  0  0  0
  -23.5974  -29.8245   20.1684 C   0  0  0  0  0  0
  -25.4112  -36.3110   24.0331 C   0  0  1  0  0  0
  -20.5849  -28.3661   23.1331 C   0  0  2  0  0  0
  -20.6763  -26.9405   22.5423 C   0  0  0  0  0  0
  -19.5748  -26.6388   21.5215 C   0  0  0  0  0  0
  -18.1921  -26.7932   22.1621 C   0  0  0  0  0  0
  -19.1518  -28.8837   23.2917 C   0  0  0  0  0  0
  -18.9448  -30.1440   23.8921 C   0  0  0  0  0  0
  -17.6455  -30.6590   24.0574 C   0  0  0  0  0  0
  -25.9028  -34.9482   23.5122 C   0  0  0  0  0  0
  -16.5347  -29.9095   23.6335 C   0  0  0  0  0  0
  -16.7263  -28.6513   23.0349 C   0  0  0  0  0  0
  -26.4471  -31.6607   25.0714 C   0  0  0  0  0  0
  -25.3747  -31.3709   26.1471 C   0  0  0  0  0  0
  -27.0296  -30.3052   24.6069 C   0  0  0  0  0  0
  -27.6056  -32.4317   25.7476 C   0  0  0  0  0  0
  -27.5583  -37.1810   24.8455 C   0  0  0  0  0  0
  -21.4099  -29.3039   22.3741 N   0  0  0  0  0  0
  -26.4287  -37.3793   23.9409 N   0  0  0  0  0  0
  -24.6563  -31.0865   22.1021 N   0  0  0  0  0  0
  -23.4160  -28.8257   23.3047 O   0  0  0  0  0  0
  -28.4493  -26.8332   20.0493 O   0  0  0  0  0  0
  -26.5588  -34.8921   22.4684 O   0  0  0  0  0  0
  -23.5304  -32.1475   23.7566 O   0  0  0  0  0  0
  -31.6978  -19.1870   16.8762 C   0  0  0  0  0  0
  -32.5624  -18.1217   16.9067 C   0  0  0  0  0  0
  -30.7867  -17.6474   18.1808 C   0  0  0  0  0  0
  -34.9849  -18.4250   17.2517 C   0  0  0  0  0  0
  -33.9793  -18.7781   14.9714 C   0  0  0  0  0  0
  -34.1509  -16.4570   15.9079 C   0  0  0  0  0  0
  -29.8294  -16.8713   19.0305 C   0  0  0  0  0  0
  -28.7776  -22.1349   18.5134 C   0  0  0  0  0  0
  -29.0245  -23.6103   18.1855 C   0  0  0  0  0  0
  -29.7151  -21.2232   17.7215 C   0  0  0  0  0  0
  -28.5038  -24.5392   19.2832 C   0  0  0  0  0  0
  -29.4898  -19.7366   18.0359 C   0  0  0  0  0  0
  -30.2422  -16.7634   20.5188 C   0  0  0  0  0  0
  -28.7430  -26.0097   18.9303 C   0  0  0  0  0  0
  -33.9117  -17.9373   16.2628 C   0  0  0  0  0  0
  -30.6417  -18.8900   17.6998 N   0  0  0  0  0  0
  -31.9738  -17.2061   17.7457 N   0  3  0  0  0  0
  -29.9978  -15.4071   21.0109 N   0  0  0  0  0  0
  -31.4540  -12.3308   19.1012 H   0  0  0  0  0  0
  -30.2804  -11.2343   19.7727 H   0  0  0  0  0  0
  -29.7037  -11.8096   17.3941 H   0  0  0  0  0  0
  -29.6740  -13.5057   17.7935 H   0  0  0  0  0  0
  -27.7879  -11.3344   18.7755 H   0  0  0  0  0  0
  -27.3590  -12.7094   17.7891 H   0  0  0  0  0  0
  -27.7166  -14.2596   19.6184 H   0  0  0  0  0  0
  -28.6619  -11.9059   21.3353 H   0  0  0  0  0  0
  -28.4955  -13.5435   21.8911 H   0  0  0  0  0  0
  -25.2762   -9.5709   22.4764 H   0  0  0  0  0  0
  -24.0025   -7.4640   22.7453 H   0  0  0  0  0  0
  -21.0847   -8.8769   19.8938 H   0  0  0  0  0  0
  -22.3692  -10.9674   19.6195 H   0  0  0  0  0  0
  -21.2004   -7.6145   23.9718 H   0  0  0  0  0  0
  -21.1483   -6.0538   25.9083 H   0  0  0  0  0  0
  -22.0585   -2.7621   23.2865 H   0  0  0  0  0  0
  -22.4097  -11.9781   22.4733 H   0  0  0  0  0  0
  -21.1164  -13.1264   22.2708 H   0  0  0  0  0  0
  -24.6552  -15.8394   20.5075 H   0  0  0  0  0  0
  -26.2793  -15.6361   20.0933 H   0  0  0  0  0  0
  -26.7090  -32.5565   23.1171 H   0  0  0  0  0  0
  -25.0082  -33.9825   25.0504 H   0  0  0  0  0  0
  -22.6789  -31.3119   21.4132 H   0  0  0  0  0  0
  -23.3747  -35.9656   23.3296 H   0  0  0  0  0  0
  -24.3597  -36.8942   22.2045 H   0  0  0  0  0  0
  -23.7253  -37.6523   23.6656 H   0  0  0  0  0  0
  -26.0199  -31.6123   20.5921 H   0  0  0  0  0  0
  -26.8065  -30.9047   21.9770 H   0  0  0  0  0  0
  -28.0807  -29.1397   21.1757 H   0  0  0  0  0  0
  -26.0680  -26.0138   18.9725 H   0  0  0  0  0  0
  -23.9799  -27.2941   19.0399 H   0  0  0  0  0  0
  -23.6958  -30.5946   19.4018 H   0  0  0  0  0  0
  -22.7236  -29.2367   19.8801 H   0  0  0  0  0  0
  -25.1297  -36.1966   25.0816 H   0  0  0  0  0  0
  -20.9956  -28.3228   24.1447 H   0  0  0  0  0  0
  -20.5672  -26.2271   23.3605 H   0  0  0  0  0  0
  -21.6637  -26.7464   22.1216 H   0  0  0  0  0  0
  -19.6911  -25.6299   21.1242 H   0  0  0  0  0  0
  -19.6692  -27.3204   20.6747 H   0  0  0  0  0  0
  -17.4198  -26.6694   21.4011 H   0  0  0  0  0  0
  -18.0315  -26.0060   22.9004 H   0  0  0  0  0  0
  -19.7923  -30.7254   24.2290 H   0  0  0  0  0  0
  -17.5014  -31.6279   24.5168 H   0  0  0  0  0  0
  -15.5348  -30.3009   23.7642 H   0  0  0  0  0  0
  -15.8662  -28.0842   22.7050 H   0  0  0  0  0  0
  -24.5905  -30.7079   25.7809 H   0  0  0  0  0  0
  -24.8962  -32.2867   26.4943 H   0  0  0  0  0  0
  -25.8104  -30.8853   27.0211 H   0  0  0  0  0  0
  -26.2829  -29.6810   24.1147 H   0  0  0  0  0  0
  -27.4106  -29.7293   25.4516 H   0  0  0  0  0  0
  -27.8647  -30.4383   23.9184 H   0  0  0  0  0  0
  -27.2685  -33.3609   26.2082 H   0  0  0  0  0  0
  -28.3850  -32.6888   25.0291 H   0  0  0  0  0  0
  -28.0733  -31.8416   26.5370 H   0  0  0  0  0  0
  -28.2588  -38.0124   24.7528 H   0  0  0  0  0  0
  -28.1097  -36.2657   24.6249 H   0  0  0  0  0  0
  -27.2308  -37.1420   25.8860 H   0  0  0  0  0  0
  -20.9239  -29.8744   21.6964 H   0  0  0  0  0  0
  -26.0178  -38.2865   24.1428 H   0  0  0  0  0  0
  -31.7797  -20.1301   16.3547 H   0  0  0  0  0  0
  -34.8289  -19.4705   17.5224 H   0  0  0  0  0  0
  -35.9857  -18.3464   16.8242 H   0  0  0  0  0  0
  -34.9741  -17.8436   18.1745 H   0  0  0  0  0  0
  -33.8598  -19.8438   15.1708 H   0  0  0  0  0  0
  -33.1994  -18.4865   14.2662 H   0  0  0  0  0  0
  -34.9368  -18.6557   14.4633 H   0  0  0  0  0  0
  -34.2028  -15.8270   16.7958 H   0  0  0  0  0  0
  -35.0960  -16.3282   15.3791 H   0  0  0  0  0  0
  -33.3633  -16.0673   15.2618 H   0  0  0  0  0  0
  -29.7584  -15.9004   18.5412 H   0  0  0  0  0  0
  -28.8362  -17.3090   18.9317 H   0  0  0  0  0  0
  -27.7355  -21.8764   18.3239 H   0  0  0  0  0  0
  -28.9483  -21.9634   19.5772 H   0  0  0  0  0  0
  -28.5651  -23.8579   17.2271 H   0  0  0  0  0  0
  -30.0941  -23.7879   18.0656 H   0  0  0  0  0  0
  -30.7381  -21.4996   17.9818 H   0  0  0  0  0  0
  -29.6030  -21.3988   16.6501 H   0  0  0  0  0  0
  -29.0172  -24.3107   20.2176 H   0  0  0  0  0  0
  -27.4461  -24.3491   19.4583 H   0  0  0  0  0  0
  -28.6141  -19.3526   17.5096 H   0  0  0  0  0  0
  -29.3089  -19.6199   19.1063 H   0  0  0  0  0  0
  -29.6896  -17.4843   21.1218 H   0  0  0  0  0  0
  -31.2986  -17.0075   20.6529 H   0  0  0  0  0  0
  -28.1925  -26.3017   18.0337 H   0  0  0  0  0  0
  -29.7957  -26.1622   18.6894 H   0  0  0  0  0  0
  -32.3668  -16.3033   17.9909 H   0  0  0  0  0  0
  -29.0919  -15.2000   21.4084 H   0  0  0  0  0  0
  1 25  1  0  0  0
  1 30  2  0  0  0
  1 88  1  0  0  0
  2  3  1  0  0  0
  2 25  1  0  0  0
  2 89  1  0  0  0
  2 90  1  0  0  0
  3  4  1  0  0  0
  3 91  1  0  0  0
  3 92  1  0  0  0
  4  5  1  0  0  0
  4 93  1  0  0  0
  4 94  1  0  0  0
  5  6  1  0  0  0
  5 26  1  0  0  0
  5 95  1  0  0  0
  6 25  1  0  0  0
  6 96  1  0  0  0
  6 97  1  0  0  0
  7  8  2  0  0  0
  7 26  1  0  0  0
  7 29  1  0  0  0
  8  9  1  0  0  0
  8 22  1  0  0  0
  9 10  1  0  0  0
  9 27  2  0  0  0
 10 11  2  0  0  0
 10 15  1  0  0  0
 11 12  1  0  0  0
 11 98  1  0  0  0
 12 13  2  0  0  0
 12 99  1  0  0  0
 13 14  1  0  0  0
 13 31  1  0  0  0
 14 15  2  0  0  0
 14100  1  0  0  0
 15101  1  0  0  0
 16 17  2  0  0  0
 16 21  1  0  0  0
 16 31  1  0  0  0
 17 18  1  0  0  0
 17102  1  0  0  0
 18 19  2  0  0  0
 18103  1  0  0  0
 19 20  1  0  0  0
 19 24  1  0  0  0
 20 21  2  0  0  0
 20104  1  0  0  0
 21 23  1  0  0  0
 22 28  1  0  0  0
 22 32  2  0  0  0
 26 27  1  0  0  0
 28105  1  0  0  0
 28106  1  0  0  0
 29107  1  0  0  0
 29108  1  0  0  0
 33 34  1  0  0  0
 33 66  1  0  0  0
 33 70  2  0  0  0
 34 36  1  0  0  0
 34 59  1  0  0  0
 34109  1  0  0  0
 35 44  2  0  0  0
 35 45  1  0  0  0
 35 68  1  0  0  0
 36 56  1  0  0  0
 36110  1  0  0  0
 37 39  1  0  0  0
 37 47  1  0  0  0
 37 66  1  0  0  0
 37111  1  0  0  0
 38 43  2  0  0  0
 38 46  1  0  0  0
 38 47  1  0  0  0
 39 64  1  0  0  0
 39 67  2  0  0  0
 40 52  1  0  0  0
 40 53  2  0  0  0
 40 58  1  0  0  0
 41112  1  0  0  0
 41113  1  0  0  0
 41114  1  0  0  0
 41 48  1  0  0  0
 42 43  1  0  0  0
 42 66  1  0  0  0
 42115  1  0  0  0
 42116  1  0  0  0
 43 44  1  0  0  0
 44117  1  0  0  0
 45 46  2  0  0  0
 45118  1  0  0  0
 46119  1  0  0  0
 47120  1  0  0  0
 47121  1  0  0  0
 48 56  1  0  0  0
 48 65  1  0  0  0
 48122  1  0  0  0
 49 50  1  0  0  0
 49 53  1  0  0  0
 49 64  1  0  0  0
 49123  1  0  0  0
 50 51  1  0  0  0
 50124  1  0  0  0
 50125  1  0  0  0
 51 52  1  0  0  0
 51126  1  0  0  0
 51127  1  0  0  0
 52128  1  0  0  0
 52129  1  0  0  0
 53 54  1  0  0  0
 54 55  2  0  0  0
 54130  1  0  0  0
 55 57  1  0  0  0
 55131  1  0  0  0
 56 69  2  0  0  0
 57 58  2  0  0  0
 57132  1  0  0  0
 58133  1  0  0  0
 59 60  1  0  0  0
 59 61  1  0  0  0
 59 62  1  0  0  0
 60134  1  0  0  0
 60135  1  0  0  0
 60136  1  0  0  0
 61137  1  0  0  0
 61138  1  0  0  0
 61139  1  0  0  0
 62140  1  0  0  0
 62141  1  0  0  0
 62142  1  0  0  0
 63 65  1  0  0  0
 63143  1  0  0  0
 63144  1  0  0  0
 63145  1  0  0  0
 64146  1  0  0  0
 65147  1  0  0  0
 68 84  1  0  0  0
 71 72  2  0  0  0
 71 86  1  0  0  0
 71148  1  0  0  0
 72 85  1  0  0  0
 72 87  1  0  0  0
 73 77  1  0  0  0
 73 86  1  0  0  0
 73 87  2  0  0  0
 74149  1  0  0  0
 74150  1  0  0  0
 74151  1  0  0  0
 74 85  1  0  0  0
 75 85  1  0  0  0
 75152  1  0  0  0
 75153  1  0  0  0
 75154  1  0  0  0
 76 85  1  0  0  0
 76155  1  0  0  0
 76156  1  0  0  0
 76157  1  0  0  0
 77 83  1  0  0  0
 77158  1  0  0  0
 77159  1  0  0  0
 78 79  1  0  0  0
 78 80  1  0  0  0
 78160  1  0  0  0
 78161  1  0  0  0
 79 81  1  0  0  0
 79162  1  0  0  0
 79163  1  0  0  0
 80 82  1  0  0  0
 80164  1  0  0  0
 80165  1  0  0  0
 81 84  1  0  0  0
 81166  1  0  0  0
 81167  1  0  0  0
 82 86  1  0  0  0
 82168  1  0  0  0
 82169  1  0  0  0
 83 88  1  0  0  0
 83170  1  0  0  0
 83171  1  0  0  0
 84172  1  0  0  0
 84173  1  0  0  0
 87174  1  0  0  0
 88175  1  0  0  0
M  CHG  1  87   1
M  ISO  4   1 100  68 101  84 101  88 100
M  END
> <chiral flag>
0

> <version>
0

> <s_m_source_file>
/data/baiqing/PycharmProjects/Reinvent-master-3.2/result/LINK_invent/BTK/process_docking_weight1_custom_sum_contain_oxygen_bond_distance_aromatic_linkinvent_7_9_3/rearranged_h_0090.sdf

> <i_m_source_file_index>
59

> <r_mmod_Potential_Energy-OPLS-2005>
-127.275032043457

> <r_mmod_Stretch_Energy-OPLS-2005>
29.6960391998291

> <r_mmod_Bend_Energy-OPLS-2005>
93.6739120483398

> <r_mmod_Torsional_Energy-OPLS-2005>
251.206039428711

> <r_mmod_Improper_Torsional_Energy-OPLS-2005>
8.68694591522217

> <r_mmod_Van_der_Waal_Energy-OPLS-2005>
140.540771484375

> <r_mmod_Electrostatic_Energy-OPLS-2005>
-281.242065429688

> <r_mmod_Solvation_Energy-OPLS-2005>
-379.380706787109

> <b_mmod_Minimization_Converged-OPLS-2005>
0

> <r_mmod_RMS_Derivative-OPLS-2005>
2.62396240234375

$$$$
60
                    3D
 Structure written by MMmdl.
159167  0  0  1  0            999 V2000
  -30.6632  -14.5450   20.4959 C   0  0  0  0  0  0
  -30.4266  -12.3327   19.4341 C   0  0  0  0  0  0
  -29.4997  -12.4870   18.2095 C   0  0  0  0  0  0
  -28.0178  -12.3549   18.6175 C   0  0  0  0  0  0
  -27.6538  -13.2124   19.8600 C   0  0  2  0  0  0
  -28.6978  -13.0381   20.9858 C   0  0  0  0  0  0
  -25.2573  -13.8160   20.5667 C   0  0  0  0  0  0
  -24.1835  -13.0427   20.9171 C   0  0  0  0  0  0
  -24.6396  -11.6898   20.8726 C   0  0  0  0  0  0
  -23.9064  -10.4285   21.0391 C   0  0  0  0  0  0
  -24.3620   -9.4199   21.9166 C   0  0  0  0  0  0
  -23.6289   -8.2238   22.0747 C   0  0  0  0  0  0
  -22.4270   -8.0277   21.3544 C   0  0  0  0  0  0
  -21.9905   -9.0247   20.4640 C   0  0  0  0  0  0
  -22.7235  -10.2123   20.3039 C   0  0  0  0  0  0
  -21.6856   -6.0728   22.5278 C   0  0  0  0  0  0
  -21.4014   -6.5636   23.8209 C   0  0  0  0  0  0
  -21.3650   -5.6789   24.9169 C   0  0  0  0  0  0
  -21.6042   -4.3053   24.7220 C   0  0  0  0  0  0
  -21.8822   -3.8141   23.4349 C   0  0  0  0  0  0
  -21.9197   -4.6960   22.3398 C   0  0  0  0  0  0
  -22.7857  -13.5224   21.1824 C   0  0  0  0  0  0
  -22.1669   -4.2145   21.0977 F   0  0  0  0  0  0
  -21.5617   -3.4530   25.7732 F   0  0  0  0  0  0
  -30.0185  -13.3478   20.4183 N   0  0  0  0  0  0
  -26.2994  -12.9339   20.3298 N   0  0  0  0  0  0
  -25.9324  -11.6498   20.5727 N   0  0  0  0  0  0
  -22.0510  -12.8226   22.0395 N   0  0  0  0  0  0
  -25.4300  -15.1878   20.4081 N   0  0  0  0  0  0
  -31.8331  -14.6875   20.1294 O   0  0  0  0  0  0
  -21.6644   -6.8878   21.4239 O   0  0  0  0  0  0
  -22.3531  -14.5516   20.6657 O   0  0  0  0  0  0
  -24.6196  -31.8623   23.2003 C   0  0  0  0  0  0
  -25.9063  -32.4797   23.8319 C   0  0  1  0  0  0
  -27.2378  -27.3721   20.0917 C   0  0  0  0  0  0
  -25.5917  -33.8593   24.2271 N   0  0  0  0  0  0
  -23.4129  -30.4820   21.5408 C   0  0  2  0  0  0
  -24.8598  -28.9347   20.1080 C   0  0  0  0  0  0
  -22.7455  -29.4624   22.4921 C   0  0  0  0  0  0
  -18.0285  -28.1378   22.8505 C   0  0  0  0  0  0
  -24.1496  -36.7268   23.2644 C   0  0  0  0  0  0
  -25.9478  -30.8015   21.3673 C   0  0  0  0  0  0
  -26.0193  -29.4313   20.7129 C   0  0  0  0  0  0
  -27.2060  -28.6534   20.7061 C   0  0  0  0  0  0
  -26.0558  -26.9005   19.4809 C   0  0  0  0  0  0
  -24.8738  -27.6708   19.4908 C   0  0  0  0  0  0
  -23.6256  -29.8098   20.1569 C   0  0  0  0  0  0
  -25.4126  -36.3093   24.0335 C   0  0  1  0  0  0
  -20.5883  -28.3669   23.1300 C   0  0  2  0  0  0
  -20.6786  -26.9397   22.5417 C   0  0  0  0  0  0
  -19.5761  -26.6381   21.5224 C   0  0  0  0  0  0
  -18.1931  -26.7935   22.1627 C   0  0  0  0  0  0
  -19.1541  -28.8835   23.2893 C   0  0  0  0  0  0
  -18.9471  -30.1440   23.8903 C   0  0  0  0  0  0
  -17.6477  -30.6589   24.0564 C   0  0  0  0  0  0
  -25.9056  -34.9473   23.5103 C   0  0  0  0  0  0
  -16.5361  -29.9092   23.6332 C   0  0  0  0  0  0
  -16.7274  -28.6507   23.0366 C   0  0  0  0  0  0
  -26.4470  -31.6599   25.0681 C   0  0  0  0  0  0
  -25.3737  -31.3741   26.1434 C   0  0  0  0  0  0
  -27.0300  -30.3046   24.6078 C   0  0  0  0  0  0
  -27.6031  -32.4337   25.7446 C   0  0  0  0  0  0
  -27.5583  -37.1794   24.8475 C   0  0  0  0  0  0
  -21.4176  -29.3018   22.3685 N   0  0  0  0  0  0
  -26.4301  -37.3788   23.9420 N   0  0  0  0  0  0
  -24.6784  -31.0666   22.0933 N   0  0  0  0  0  0
  -23.4198  -28.8163   23.2981 O   0  0  0  0  0  0
  -28.4054  -26.6193   20.1401 O   0  0  0  0  0  0
  -26.5623  -34.8934   22.4662 O   0  0  0  0  0  0
  -23.5375  -32.1384   23.7376 O   0  0  0  0  0  0
  -28.2331  -21.0910   22.0130 C   0  0  0  0  0  0
  -28.2120  -19.9859   22.9041 C   0  0  0  0  0  0
  -28.6431  -20.5806   20.8095 C   0  0  0  0  0  0
  -27.7677  -19.9301   24.3359 C   0  0  0  0  0  0
  -28.6966  -21.3102   19.4745 C   0  0  0  0  0  0
  -29.1376  -22.8279   19.4185 C   0  0  0  0  0  0
  -28.2360  -24.0066   19.9555 C   0  0  0  0  0  0
  -29.2873  -18.0825   20.1501 C   0  0  0  0  0  0
  -30.3177  -17.0507   20.7602 C   0  0  0  0  0  0
  -28.6066  -25.4147   19.3479 C   0  0  0  0  0  0
  -28.6137  -18.8781   22.3172 N   0  0  0  0  0  0
  -28.9035  -19.2068   21.0366 N   0  0  0  0  0  0
  -29.8955  -15.6228   20.7928 N   0  0  0  0  0  0
  -31.4698  -12.4395   19.1321 H   0  0  0  0  0  0
  -30.3420  -11.3341   19.8644 H   0  0  0  0  0  0
  -29.7477  -11.7377   17.4564 H   0  0  0  0  0  0
  -29.6662  -13.4579   17.7396 H   0  0  0  0  0  0
  -27.8263  -11.3016   18.8261 H   0  0  0  0  0  0
  -27.3738  -12.6179   17.7774 H   0  0  0  0  0  0
  -27.6818  -14.2521   19.5339 H   0  0  0  0  0  0
  -28.6880  -12.0140   21.3615 H   0  0  0  0  0  0
  -28.4638  -13.6740   21.8405 H   0  0  0  0  0  0
  -25.2770   -9.5669   22.4729 H   0  0  0  0  0  0
  -23.9995   -7.4631   22.7466 H   0  0  0  0  0  0
  -21.0836   -8.8755   19.8954 H   0  0  0  0  0  0
  -22.3690  -10.9650   19.6135 H   0  0  0  0  0  0
  -21.2019   -7.6143   23.9708 H   0  0  0  0  0  0
  -21.1463   -6.0518   25.9070 H   0  0  0  0  0  0
  -22.0615   -2.7604   23.2842 H   0  0  0  0  0  0
  -22.4147  -11.9907   22.4805 H   0  0  0  0  0  0
  -21.1108  -13.1218   22.2554 H   0  0  0  0  0  0
  -24.6673  -15.8453   20.5283 H   0  0  0  0  0  0
  -26.2803  -15.6276   20.0795 H   0  0  0  0  0  0
  -26.7124  -32.5462   23.1062 H   0  0  0  0  0  0
  -25.0135  -33.9757   25.0469 H   0  0  0  0  0  0
  -22.7042  -31.2989   21.3914 H   0  0  0  0  0  0
  -23.3786  -35.9572   23.3327 H   0  0  0  0  0  0
  -24.3606  -36.8862   22.2055 H   0  0  0  0  0  0
  -23.7211  -37.6462   23.6652 H   0  0  0  0  0  0
  -26.0788  -31.5638   20.5989 H   0  0  0  0  0  0
  -26.8332  -30.8490   21.9903 H   0  0  0  0  0  0
  -28.1022  -29.0280   21.1826 H   0  0  0  0  0  0
  -26.0277  -25.9280   19.0122 H   0  0  0  0  0  0
  -23.9796  -27.2829   19.0235 H   0  0  0  0  0  0
  -23.7417  -30.5829   19.3957 H   0  0  0  0  0  0
  -22.7499  -29.2319   19.8548 H   0  0  0  0  0  0
  -25.1304  -36.1948   25.0830 H   0  0  0  0  0  0
  -20.9966  -28.3245   24.1421 H   0  0  0  0  0  0
  -20.5714  -26.2269   23.3607 H   0  0  0  0  0  0
  -21.6651  -26.7442   22.1188 H   0  0  0  0  0  0
  -19.6943  -25.6297   21.1241 H   0  0  0  0  0  0
  -19.6730  -27.3213   20.6772 H   0  0  0  0  0  0
  -17.4218  -26.6690   21.4011 H   0  0  0  0  0  0
  -18.0306  -26.0057   22.8993 H   0  0  0  0  0  0
  -19.7948  -30.7245   24.2274 H   0  0  0  0  0  0
  -17.5043  -31.6276   24.5162 H   0  0  0  0  0  0
  -15.5369  -30.3015   23.7652 H   0  0  0  0  0  0
  -15.8667  -28.0831   22.7088 H   0  0  0  0  0  0
  -24.5904  -30.7090   25.7782 H   0  0  0  0  0  0
  -24.8931  -32.2911   26.4853 H   0  0  0  0  0  0
  -25.8086  -30.8935   27.0202 H   0  0  0  0  0  0
  -26.2835  -29.6826   24.1137 H   0  0  0  0  0  0
  -27.4084  -29.7262   25.4505 H   0  0  0  0  0  0
  -27.8666  -30.4373   23.9223 H   0  0  0  0  0  0
  -27.2636  -33.3634   26.2014 H   0  0  0  0  0  0
  -28.3840  -32.6911   25.0283 H   0  0  0  0  0  0
  -28.0704  -31.8481   26.5372 H   0  0  0  0  0  0
  -28.2604  -38.0090   24.7514 H   0  0  0  0  0  0
  -28.1064  -36.2616   24.6300 H   0  0  0  0  0  0
  -27.2292  -37.1411   25.8875 H   0  0  0  0  0  0
  -20.9347  -29.8716   21.6877 H   0  0  0  0  0  0
  -26.0186  -38.2858   24.1446 H   0  0  0  0  0  0
  -27.9278  -22.1053   22.2191 H   0  0  0  0  0  0
  -27.2010  -20.8187   24.6134 H   0  0  0  0  0  0
  -28.6185  -19.8487   25.0118 H   0  0  0  0  0  0
  -27.1215  -19.0679   24.5103 H   0  0  0  0  0  0
  -27.7249  -21.2113   18.9909 H   0  0  0  0  0  0
  -29.3791  -20.7625   18.8234 H   0  0  0  0  0  0
  -29.2893  -23.0344   18.3578 H   0  0  0  0  0  0
  -30.1311  -22.9140   19.8595 H   0  0  0  0  0  0
  -28.3317  -24.0493   21.0393 H   0  0  0  0  0  0
  -27.1850  -23.7990   19.7546 H   0  0  0  0  0  0
  -28.3721  -17.5718   19.8463 H   0  0  0  0  0  0
  -29.7047  -18.4995   19.2338 H   0  0  0  0  0  0
  -30.6010  -17.3308   21.7742 H   0  0  0  0  0  0
  -31.2428  -17.1386   20.1879 H   0  0  0  0  0  0
  -28.1894  -25.5290   18.3463 H   0  0  0  0  0  0
  -29.6858  -25.4041   19.1863 H   0  0  0  0  0  0
  -28.9424  -15.4352   21.0649 H   0  0  0  0  0  0
  1 25  1  0  0  0
  1 30  2  0  0  0
  1 83  1  0  0  0
  2  3  1  0  0  0
  2 25  1  0  0  0
  2 84  1  0  0  0
  2 85  1  0  0  0
  3  4  1  0  0  0
  3 86  1  0  0  0
  3 87  1  0  0  0
  4  5  1  0  0  0
  4 88  1  0  0  0
  4 89  1  0  0  0
  5  6  1  0  0  0
  5 26  1  0  0  0
  5 90  1  0  0  0
  6 25  1  0  0  0
  6 91  1  0  0  0
  6 92  1  0  0  0
  7  8  2  0  0  0
  7 26  1  0  0  0
  7 29  1  0  0  0
  8  9  1  0  0  0
  8 22  1  0  0  0
  9 10  1  0  0  0
  9 27  2  0  0  0
 10 11  2  0  0  0
 10 15  1  0  0  0
 11 12  1  0  0  0
 11 93  1  0  0  0
 12 13  2  0  0  0
 12 94  1  0  0  0
 13 14  1  0  0  0
 13 31  1  0  0  0
 14 15  2  0  0  0
 14 95  1  0  0  0
 15 96  1  0  0  0
 16 17  2  0  0  0
 16 21  1  0  0  0
 16 31  1  0  0  0
 17 18  1  0  0  0
 17 97  1  0  0  0
 18 19  2  0  0  0
 18 98  1  0  0  0
 19 20  1  0  0  0
 19 24  1  0  0  0
 20 21  2  0  0  0
 20 99  1  0  0  0
 21 23  1  0  0  0
 22 28  1  0  0  0
 22 32  2  0  0  0
 26 27  1  0  0  0
 28100  1  0  0  0
 28101  1  0  0  0
 29102  1  0  0  0
 29103  1  0  0  0
 33 34  1  0  0  0
 33 66  1  0  0  0
 33 70  2  0  0  0
 34 36  1  0  0  0
 34 59  1  0  0  0
 34104  1  0  0  0
 35 44  2  0  0  0
 35 45  1  0  0  0
 35 68  1  0  0  0
 36 56  1  0  0  0
 36105  1  0  0  0
 37 39  1  0  0  0
 37 47  1  0  0  0
 37 66  1  0  0  0
 37106  1  0  0  0
 38 43  2  0  0  0
 38 46  1  0  0  0
 38 47  1  0  0  0
 39 64  1  0  0  0
 39 67  2  0  0  0
 40 52  1  0  0  0
 40 53  2  0  0  0
 40 58  1  0  0  0
 41107  1  0  0  0
 41108  1  0  0  0
 41109  1  0  0  0
 41 48  1  0  0  0
 42 43  1  0  0  0
 42 66  1  0  0  0
 42110  1  0  0  0
 42111  1  0  0  0
 43 44  1  0  0  0
 44112  1  0  0  0
 45 46  2  0  0  0
 45113  1  0  0  0
 46114  1  0  0  0
 47115  1  0  0  0
 47116  1  0  0  0
 48 56  1  0  0  0
 48 65  1  0  0  0
 48117  1  0  0  0
 49 50  1  0  0  0
 49 53  1  0  0  0
 49 64  1  0  0  0
 49118  1  0  0  0
 50 51  1  0  0  0
 50119  1  0  0  0
 50120  1  0  0  0
 51 52  1  0  0  0
 51121  1  0  0  0
 51122  1  0  0  0
 52123  1  0  0  0
 52124  1  0  0  0
 53 54  1  0  0  0
 54 55  2  0  0  0
 54125  1  0  0  0
 55 57  1  0  0  0
 55126  1  0  0  0
 56 69  2  0  0  0
 57 58  2  0  0  0
 57127  1  0  0  0
 58128  1  0  0  0
 59 60  1  0  0  0
 59 61  1  0  0  0
 59 62  1  0  0  0
 60129  1  0  0  0
 60130  1  0  0  0
 60131  1  0  0  0
 61132  1  0  0  0
 61133  1  0  0  0
 61134  1  0  0  0
 62135  1  0  0  0
 62136  1  0  0  0
 62137  1  0  0  0
 63 65  1  0  0  0
 63138  1  0  0  0
 63139  1  0  0  0
 63140  1  0  0  0
 64141  1  0  0  0
 65142  1  0  0  0
 68 80  1  0  0  0
 71 72  1  0  0  0
 71 73  2  0  0  0
 71143  1  0  0  0
 72 74  1  0  0  0
 72 81  2  0  0  0
 73 75  1  0  0  0
 73 82  1  0  0  0
 74144  1  0  0  0
 74145  1  0  0  0
 74146  1  0  0  0
 75 76  1  0  0  0
 75147  1  0  0  0
 75148  1  0  0  0
 76 77  1  0  0  0
 76149  1  0  0  0
 76150  1  0  0  0
 77 80  1  0  0  0
 77151  1  0  0  0
 77152  1  0  0  0
 78 79  1  0  0  0
 78 82  1  0  0  0
 78153  1  0  0  0
 78154  1  0  0  0
 79 83  1  0  0  0
 79155  1  0  0  0
 79156  1  0  0  0
 80157  1  0  0  0
 80158  1  0  0  0
 81 82  1  0  0  0
 83159  1  0  0  0
M  ISO  4   1 100  68 101  80 101  83 100
M  END
> <chiral flag>
0

> <version>
0

> <s_m_source_file>
/data/baiqing/PycharmProjects/Reinvent-master-3.2/result/LINK_invent/BTK/process_docking_weight1_custom_sum_contain_oxygen_bond_distance_aromatic_linkinvent_7_9_3/rearranged_h_0090.sdf

> <i_m_source_file_index>
60

> <r_mmod_Potential_Energy-OPLS-2005>
-50.1230964660645

> <r_mmod_Stretch_Energy-OPLS-2005>
55.3631706237793

> <r_mmod_Bend_Energy-OPLS-2005>
138.578598022461

> <r_mmod_Torsional_Energy-OPLS-2005>
223.689056396484

> <r_mmod_Improper_Torsional_Energy-OPLS-2005>
5.25068712234497

> <r_mmod_Van_der_Waal_Energy-OPLS-2005>
120.364135742188

> <r_mmod_Electrostatic_Energy-OPLS-2005>
-404.029968261719

> <r_mmod_Solvation_Energy-OPLS-2005>
-216.167251586914

> <b_mmod_Minimization_Converged-OPLS-2005>
0

> <r_mmod_RMS_Derivative-OPLS-2005>
2.70731353759766

$$$$
61
                    3D
 Structure written by MMmdl.
172180  0  0  1  0            999 V2000
  -30.6411  -14.6930   20.4930 C   0  0  0  0  0  0
  -30.3950  -12.4593   19.4520 C   0  0  0  0  0  0
  -29.4872  -12.5676   18.2083 C   0  0  0  0  0  0
  -28.0273  -12.3329   18.6394 C   0  0  0  0  0  0
  -27.6285  -13.2271   19.8436 C   0  0  2  0  0  0
  -28.6720  -13.1748   20.9813 C   0  0  0  0  0  0
  -25.2516  -13.8146   20.5920 C   0  0  0  0  0  0
  -24.1760  -13.0355   20.9278 C   0  0  0  0  0  0
  -24.6380  -11.6887   20.8684 C   0  0  0  0  0  0
  -23.9074  -10.4223   21.0294 C   0  0  0  0  0  0
  -24.3629   -9.4185   21.9114 C   0  0  0  0  0  0
  -23.6314   -8.2228   22.0722 C   0  0  0  0  0  0
  -22.4292   -8.0254   21.3531 C   0  0  0  0  0  0
  -21.9930   -9.0186   20.4632 C   0  0  0  0  0  0
  -22.7215  -10.2074   20.2988 C   0  0  0  0  0  0
  -21.6864   -6.0753   22.5261 C   0  0  0  0  0  0
  -21.3994   -6.5642   23.8190 C   0  0  0  0  0  0
  -21.3665   -5.6791   24.9164 C   0  0  0  0  0  0
  -21.6115   -4.3059   24.7211 C   0  0  0  0  0  0
  -21.8802   -3.8138   23.4318 C   0  0  0  0  0  0
  -21.9186   -4.6986   22.3375 C   0  0  0  0  0  0
  -22.7826  -13.5195   21.1911 C   0  0  0  0  0  0
  -22.1668   -4.2179   21.0976 F   0  0  0  0  0  0
  -21.5638   -3.4532   25.7730 F   0  0  0  0  0  0
  -29.9740  -13.4996   20.4051 N   0  0  0  0  0  0
  -26.2863  -12.9335   20.3258 N   0  0  0  0  0  0
  -25.9261  -11.6486   20.5574 N   0  0  0  0  0  0
  -22.0530  -12.8111   22.0522 N   0  0  0  0  0  0
  -25.4187  -15.1848   20.4592 N   0  0  0  0  0  0
  -31.8186  -14.7662   20.1387 O   0  0  0  0  0  0
  -21.6647   -6.8870   21.4233 O   0  0  0  0  0  0
  -22.3523  -14.5448   20.6741 O   0  0  0  0  0  0
  -24.6091  -31.8531   23.2019 C   0  0  0  0  0  0
  -25.8970  -32.4739   23.8287 C   0  0  1  0  0  0
  -27.2799  -27.3779   20.1641 C   0  0  0  0  0  0
  -25.5883  -33.8575   24.2228 N   0  0  0  0  0  0
  -23.4070  -30.4625   21.5376 C   0  0  2  0  0  0
  -24.8796  -28.9206   20.1228 C   0  0  0  0  0  0
  -22.7414  -29.4439   22.4911 C   0  0  0  0  0  0
  -18.0283  -28.1448   22.8226 C   0  0  0  0  0  0
  -24.1521  -36.7308   23.2610 C   0  0  0  0  0  0
  -25.9305  -30.8078   21.3706 C   0  0  0  0  0  0
  -26.0292  -29.4333   20.7362 C   0  0  0  0  0  0
  -27.2272  -28.6681   20.7597 C   0  0  0  0  0  0
  -26.1082  -26.8934   19.5368 C   0  0  0  0  0  0
  -24.9150  -27.6479   19.5195 C   0  0  0  0  0  0
  -23.6384  -29.7864   20.1545 C   0  0  0  0  0  0
  -25.4148  -36.3053   24.0273 C   0  0  1  0  0  0
  -20.5852  -28.3573   23.1452 C   0  0  2  0  0  0
  -20.6793  -26.9306   22.5691 C   0  0  0  0  0  0
  -19.6055  -26.6406   21.5191 C   0  0  0  0  0  0
  -18.1994  -26.8174   22.1031 C   0  0  0  0  0  0
  -19.1515  -28.8786   23.2936 C   0  0  0  0  0  0
  -18.9414  -30.1330   23.9082 C   0  0  0  0  0  0
  -17.6400  -30.6506   24.0646 C   0  0  0  0  0  0
  -25.9038  -34.9430   23.5049 C   0  0  0  0  0  0
  -16.5332  -29.9004   23.6289 C   0  0  0  0  0  0
  -16.7267  -28.6570   23.0072 C   0  0  0  0  0  0
  -26.4481  -31.6558   25.0631 C   0  0  0  0  0  0
  -25.3803  -31.3671   26.1438 C   0  0  0  0  0  0
  -27.0338  -30.2969   24.6072 C   0  0  0  0  0  0
  -27.5998  -32.4308   25.7459 C   0  0  0  0  0  0
  -27.5581  -37.1830   24.8425 C   0  0  0  0  0  0
  -21.4126  -29.2846   22.3756 N   0  0  0  0  0  0
  -26.4294  -37.3764   23.9362 N   0  0  0  0  0  0
  -24.6624  -31.0526   22.1001 N   0  0  0  0  0  0
  -23.4184  -28.7903   23.2924 O   0  0  0  0  0  0
  -28.4604  -26.6503   20.0866 O   0  0  0  0  0  0
  -26.5569  -34.8894   22.4584 O   0  0  0  0  0  0
  -23.5285  -32.1262   23.7424 O   0  0  0  0  0  0
  -29.4656  -19.2358   21.1575 C   0  0  0  0  0  0
  -28.6527  -20.4327   21.1735 C   0  0  0  0  0  0
  -28.8779  -18.2407   20.3846 C   0  0  0  0  0  0
  -27.4913  -20.0678   20.5433 C   0  0  0  0  0  0
  -26.1928  -20.8331   20.4295 C   0  0  0  0  0  0
  -29.7988  -21.9411   23.0265 C   0  0  0  0  0  0
  -30.3575  -17.1497   18.6641 C   0  0  0  0  0  0
  -27.1932  -19.0362   17.4545 C   0  0  0  0  0  0
  -25.3139  -18.1726   19.0025 C   0  0  0  0  0  0
  -28.7608  -24.1275   20.1521 C   0  0  0  0  0  0
  -29.5590  -22.8401   20.6500 C   0  0  0  0  0  0
  -28.6869  -25.4859   20.9412 C   0  0  0  0  0  0
  -28.9476  -21.8797   21.7287 C   0  0  1  0  0  0
  -29.4093  -16.8614   19.8581 C   0  0  2  0  0  0
  -26.8437  -18.3088   18.7702 C   0  0  0  0  0  0
  -27.6798  -18.8260   19.8985 N   0  0  0  0  0  0
  -29.9532  -15.8395   20.8196 N   0  0  0  0  0  0
  -31.4481  -12.5423   19.1806 H   0  0  0  0  0  0
  -30.2529  -11.4779   19.9171 H   0  0  0  0  0  0
  -29.7825  -11.8365   17.4514 H   0  0  0  0  0  0
  -29.5764  -13.5567   17.7479 H   0  0  0  0  0  0
  -27.9368  -11.2846   18.9263 H   0  0  0  0  0  0
  -27.3437  -12.4955   17.8058 H   0  0  0  0  0  0
  -27.5944  -14.2399   19.4419 H   0  0  0  0  0  0
  -28.6969  -12.1919   21.4495 H   0  0  0  0  0  0
  -28.4067  -13.8828   21.7658 H   0  0  0  0  0  0
  -25.2789   -9.5743   22.4628 H   0  0  0  0  0  0
  -24.0036   -7.4673   22.7485 H   0  0  0  0  0  0
  -21.0830   -8.8691   19.8928 H   0  0  0  0  0  0
  -22.3640  -10.9601   19.6047 H   0  0  0  0  0  0
  -21.1941   -7.6144   23.9718 H   0  0  0  0  0  0
  -21.1544   -6.0521   25.9096 H   0  0  0  0  0  0
  -22.0565   -2.7611   23.2799 H   0  0  0  0  0  0
  -22.4110  -11.9726   22.4763 H   0  0  0  0  0  0
  -21.1106  -13.0997   22.2641 H   0  0  0  0  0  0
  -24.6445  -15.8226   20.6162 H   0  0  0  0  0  0
  -26.2964  -15.6589   20.2930 H   0  0  0  0  0  0
  -26.6986  -32.5456   23.1034 H   0  0  0  0  0  0
  -25.0166  -33.9796   25.0466 H   0  0  0  0  0  0
  -22.6821  -31.2640   21.3906 H   0  0  0  0  0  0
  -23.3758  -35.9667   23.3291 H   0  0  0  0  0  0
  -24.3485  -36.8948   22.1986 H   0  0  0  0  0  0
  -23.7390  -37.6563   23.6638 H   0  0  0  0  0  0
  -26.0410  -31.5708   20.5958 H   0  0  0  0  0  0
  -26.8084  -30.8590   21.9968 H   0  0  0  0  0  0
  -28.1053  -29.0653   21.2476 H   0  0  0  0  0  0
  -26.1401  -25.9336   19.0402 H   0  0  0  0  0  0
  -24.0343  -27.2437   19.0300 H   0  0  0  0  0  0
  -23.7623  -30.5644   19.4002 H   0  0  0  0  0  0
  -22.7691  -29.2006   19.8339 H   0  0  0  0  0  0
  -25.1391  -36.1861   25.0759 H   0  0  0  0  0  0
  -20.9906  -28.3141   24.1572 H   0  0  0  0  0  0
  -20.5517  -26.2041   23.3743 H   0  0  0  0  0  0
  -21.6703  -26.7389   22.1657 H   0  0  0  0  0  0
  -19.7243  -25.6278   21.1222 H   0  0  0  0  0  0
  -19.7518  -27.3231   20.6795 H   0  0  0  0  0  0
  -17.4715  -26.7539   21.2918 H   0  0  0  0  0  0
  -17.9772  -26.0118   22.8025 H   0  0  0  0  0  0
  -19.7898  -30.7063   24.2642 H   0  0  0  0  0  0
  -17.4937  -31.6080   24.5371 H   0  0  0  0  0  0
  -15.5353  -30.2794   23.7728 H   0  0  0  0  0  0
  -15.8620  -28.1047   22.6506 H   0  0  0  0  0  0
  -24.5952  -30.7038   25.7808 H   0  0  0  0  0  0
  -24.9100  -32.2860   26.4918 H   0  0  0  0  0  0
  -25.8254  -30.8826   27.0149 H   0  0  0  0  0  0
  -26.2881  -29.6698   24.1159 H   0  0  0  0  0  0
  -27.4093  -29.7242   25.4563 H   0  0  0  0  0  0
  -27.8722  -30.4221   23.9216 H   0  0  0  0  0  0
  -27.2508  -33.3545   26.2103 H   0  0  0  0  0  0
  -28.3846  -32.6985   25.0363 H   0  0  0  0  0  0
  -28.0633  -31.8410   26.5404 H   0  0  0  0  0  0
  -28.2614  -38.0119   24.7448 H   0  0  0  0  0  0
  -28.1104  -36.2647   24.6357 H   0  0  0  0  0  0
  -27.2203  -37.1570   25.8802 H   0  0  0  0  0  0
  -20.9226  -29.8465   21.6953 H   0  0  0  0  0  0
  -26.0171  -38.2811   24.1482 H   0  0  0  0  0  0
  -30.4426  -19.1437   21.6222 H   0  0  0  0  0  0
  -26.1277  -21.7299   21.0538 H   0  0  0  0  0  0
  -25.3804  -20.1945   20.7625 H   0  0  0  0  0  0
  -25.9687  -21.1327   19.4103 H   0  0  0  0  0  0
  -29.3408  -21.3739   23.8400 H   0  0  0  0  0  0
  -29.8453  -22.9795   23.3710 H   0  0  0  0  0  0
  -30.8284  -21.5902   22.8980 H   0  0  0  0  0  0
  -29.8457  -17.6849   17.8593 H   0  0  0  0  0  0
  -30.7834  -16.2641   18.1821 H   0  0  0  0  0  0
  -31.1922  -17.7855   18.9586 H   0  0  0  0  0  0
  -27.2209  -18.3208   16.6308 H   0  0  0  0  0  0
  -28.1900  -19.4600   17.5108 H   0  0  0  0  0  0
  -26.5448  -19.8672   17.1643 H   0  0  0  0  0  0
  -25.0962  -17.6754   19.9424 H   0  0  0  0  0  0
  -24.8347  -17.5831   18.2189 H   0  0  0  0  0  0
  -24.7690  -19.1089   18.9875 H   0  0  0  0  0  0
  -27.7458  -23.8500   19.8780 H   0  0  0  0  0  0
  -29.2451  -24.3778   19.2074 H   0  0  0  0  0  0
  -30.5906  -23.0928   20.9260 H   0  0  0  0  0  0
  -29.6751  -22.2156   19.7576 H   0  0  0  0  0  0
  -29.6464  -25.6740   21.4184 H   0  0  0  0  0  0
  -27.9502  -25.4361   21.7403 H   0  0  0  0  0  0
  -28.0066  -22.3427   22.0213 H   0  0  0  0  0  0
  -28.5760  -16.2701   19.4922 H   0  0  0  0  0  0
  -27.1356  -17.2852   18.5547 H   0  0  0  0  0  0
  -30.4802  -16.3652   21.4947 H   0  0  0  0  0  0
  1 25  1  0  0  0
  1 30  2  0  0  0
  1 87  1  0  0  0
  2  3  1  0  0  0
  2 25  1  0  0  0
  2 88  1  0  0  0
  2 89  1  0  0  0
  3  4  1  0  0  0
  3 90  1  0  0  0
  3 91  1  0  0  0
  4  5  1  0  0  0
  4 92  1  0  0  0
  4 93  1  0  0  0
  5  6  1  0  0  0
  5 26  1  0  0  0
  5 94  1  0  0  0
  6 25  1  0  0  0
  6 95  1  0  0  0
  6 96  1  0  0  0
  7  8  2  0  0  0
  7 26  1  0  0  0
  7 29  1  0  0  0
  8  9  1  0  0  0
  8 22  1  0  0  0
  9 10  1  0  0  0
  9 27  2  0  0  0
 10 11  2  0  0  0
 10 15  1  0  0  0
 11 12  1  0  0  0
 11 97  1  0  0  0
 12 13  2  0  0  0
 12 98  1  0  0  0
 13 14  1  0  0  0
 13 31  1  0  0  0
 14 15  2  0  0  0
 14 99  1  0  0  0
 15100  1  0  0  0
 16 17  2  0  0  0
 16 21  1  0  0  0
 16 31  1  0  0  0
 17 18  1  0  0  0
 17101  1  0  0  0
 18 19  2  0  0  0
 18102  1  0  0  0
 19 20  1  0  0  0
 19 24  1  0  0  0
 20 21  2  0  0  0
 20103  1  0  0  0
 21 23  1  0  0  0
 22 28  1  0  0  0
 22 32  2  0  0  0
 26 27  1  0  0  0
 28104  1  0  0  0
 28105  1  0  0  0
 29106  1  0  0  0
 29107  1  0  0  0
 33 34  1  0  0  0
 33 66  1  0  0  0
 33 70  2  0  0  0
 34 36  1  0  0  0
 34 59  1  0  0  0
 34108  1  0  0  0
 35 44  2  0  0  0
 35 45  1  0  0  0
 35 68  1  0  0  0
 36 56  1  0  0  0
 36109  1  0  0  0
 37 39  1  0  0  0
 37 47  1  0  0  0
 37 66  1  0  0  0
 37110  1  0  0  0
 38 43  2  0  0  0
 38 46  1  0  0  0
 38 47  1  0  0  0
 39 64  1  0  0  0
 39 67  2  0  0  0
 40 52  1  0  0  0
 40 53  2  0  0  0
 40 58  1  0  0  0
 41111  1  0  0  0
 41112  1  0  0  0
 41113  1  0  0  0
 41 48  1  0  0  0
 42 43  1  0  0  0
 42 66  1  0  0  0
 42114  1  0  0  0
 42115  1  0  0  0
 43 44  1  0  0  0
 44116  1  0  0  0
 45 46  2  0  0  0
 45117  1  0  0  0
 46118  1  0  0  0
 47119  1  0  0  0
 47120  1  0  0  0
 48 56  1  0  0  0
 48 65  1  0  0  0
 48121  1  0  0  0
 49 50  1  0  0  0
 49 53  1  0  0  0
 49 64  1  0  0  0
 49122  1  0  0  0
 50 51  1  0  0  0
 50123  1  0  0  0
 50124  1  0  0  0
 51 52  1  0  0  0
 51125  1  0  0  0
 51126  1  0  0  0
 52127  1  0  0  0
 52128  1  0  0  0
 53 54  1  0  0  0
 54 55  2  0  0  0
 54129  1  0  0  0
 55 57  1  0  0  0
 55130  1  0  0  0
 56 69  2  0  0  0
 57 58  2  0  0  0
 57131  1  0  0  0
 58132  1  0  0  0
 59 60  1  0  0  0
 59 61  1  0  0  0
 59 62  1  0  0  0
 60133  1  0  0  0
 60134  1  0  0  0
 60135  1  0  0  0
 61136  1  0  0  0
 61137  1  0  0  0
 61138  1  0  0  0
 62139  1  0  0  0
 62140  1  0  0  0
 62141  1  0  0  0
 63 65  1  0  0  0
 63142  1  0  0  0
 63143  1  0  0  0
 63144  1  0  0  0
 64145  1  0  0  0
 65146  1  0  0  0
 68 82  1  0  0  0
 71 72  1  0  0  0
 71 73  2  0  0  0
 71147  1  0  0  0
 72 74  2  0  0  0
 72 83  1  0  0  0
 73 84  1  0  0  0
 73 86  1  0  0  0
 74 75  1  0  0  0
 74 86  1  0  0  0
 75148  1  0  0  0
 75149  1  0  0  0
 75150  1  0  0  0
 76151  1  0  0  0
 76152  1  0  0  0
 76153  1  0  0  0
 76 83  1  0  0  0
 77154  1  0  0  0
 77155  1  0  0  0
 77156  1  0  0  0
 77 84  1  0  0  0
 78157  1  0  0  0
 78158  1  0  0  0
 78159  1  0  0  0
 78 85  1  0  0  0
 79 85  1  0  0  0
 79160  1  0  0  0
 79161  1  0  0  0
 79162  1  0  0  0
 80 81  1  0  0  0
 80 82  1  0  0  0
 80163  1  0  0  0
 80164  1  0  0  0
 81 83  1  0  0  0
 81165  1  0  0  0
 81166  1  0  0  0
 82167  1  0  0  0
 82168  1  0  0  0
 83169  1  0  0  0
 84 87  1  0  0  0
 84170  1  0  0  0
 85 86  1  0  0  0
 85171  1  0  0  0
 87172  1  0  0  0
M  ISO  4   1 100  68 101  82 101  87 100
M  END
> <chiral flag>
0

> <version>
0

> <s_m_source_file>
/data/baiqing/PycharmProjects/Reinvent-master-3.2/result/LINK_invent/BTK/process_docking_weight1_custom_sum_contain_oxygen_bond_distance_aromatic_linkinvent_7_9_3/rearranged_h_0090.sdf

> <i_m_source_file_index>
61

> <r_mmod_Potential_Energy-OPLS-2005>
145.747222900391

> <r_mmod_Stretch_Energy-OPLS-2005>
81.4594955444336

> <r_mmod_Bend_Energy-OPLS-2005>
190.393707275391

> <r_mmod_Torsional_Energy-OPLS-2005>
365.865478515625

> <r_mmod_Improper_Torsional_Energy-OPLS-2005>
10.7639131546021

> <r_mmod_Van_der_Waal_Energy-OPLS-2005>
111.350524902344

> <r_mmod_Electrostatic_Energy-OPLS-2005>
-476.96435546875

> <r_mmod_Solvation_Energy-OPLS-2005>
-189.307403564453

> <b_mmod_Minimization_Converged-OPLS-2005>
0

> <r_mmod_RMS_Derivative-OPLS-2005>
16.0522403717041

$$$$
62
                    3D
 Structure written by MMmdl.
172180  0  0  1  0            999 V2000
  -31.5207  -12.4348   19.7068 C   0  0  0  0  0  0
  -30.8987  -14.3927   19.6390 C   0  0  0  0  0  0
  -29.4898  -15.6386   19.2035 C   0  0  0  0  0  0
  -27.4163  -14.9212   19.5145 C   0  0  0  0  0  0
  -27.2496  -13.1262   20.1951 C   0  0  2  0  0  0
  -28.8354  -12.0438   20.5920 C   0  0  0  0  0  0
  -24.9359  -13.7297   20.6357 C   0  0  0  0  0  0
  -23.9224  -12.9307   20.9267 C   0  0  0  0  0  0
  -24.4001  -11.5989   20.8290 C   0  0  0  0  0  0
  -23.7434  -10.3503   20.9737 C   0  0  0  0  0  0
  -24.2496   -9.4041   21.8631 C   0  0  0  0  0  0
  -23.5218   -8.2276   22.0646 C   0  0  0  0  0  0
  -22.3523   -7.9812   21.3229 C   0  0  0  0  0  0
  -21.9183   -8.9159   20.3782 C   0  0  0  0  0  0
  -22.5826  -10.1222   20.2269 C   0  0  0  0  0  0
  -21.6937   -6.0352   22.4992 C   0  0  0  0  0  0
  -21.4080   -6.5580   23.7809 C   0  0  0  0  0  0
  -21.3939   -5.7108   24.8961 C   0  0  0  0  0  0
  -21.5941   -4.3238   24.7306 C   0  0  0  0  0  0
  -21.8634   -3.8035   23.4480 C   0  0  0  0  0  0
  -21.8861   -4.6585   22.3311 C   0  0  0  0  0  0
  -22.5807  -13.4613   21.2922 C   0  0  0  0  0  0
  -22.1433   -4.1518   21.1014 F   0  0  0  0  0  0
  -21.5565   -3.4955   25.7927 F   0  0  0  0  0  0
  -30.5180  -12.7697   20.3512 N   0  0  0  0  0  0
  -25.9433  -12.8100   20.3397 N   0  0  0  0  0  0
  -25.6679  -11.5388   20.4934 N   0  0  0  0  0  0
  -21.9825  -12.7980   22.2477 N   0  0  0  0  0  0
  -25.0028  -15.1245   20.6541 N   0  0  0  0  0  0
  -32.6514  -12.9100   19.9385 O   0  0  0  0  0  0
  -21.6703   -6.8034   21.3774 O   0  0  0  0  0  0
  -22.1291  -14.4868   20.7638 O   0  0  0  0  0  0
  -24.7175  -31.7697   23.1484 C   0  0  0  0  0  0
  -25.9573  -32.4297   23.8063 C   0  0  1  0  0  0
  -26.8963  -26.5184   19.8616 C   0  0  0  0  0  0
  -25.6018  -33.8105   24.1853 N   0  0  0  0  0  0
  -23.5206  -30.4041   21.5222 C   0  0  2  0  0  0
  -24.8753  -28.7472   20.0763 C   0  0  0  0  0  0
  -22.7839  -29.4158   22.4668 C   0  0  0  0  0  0
  -18.0313  -28.1346   22.8501 C   0  0  0  0  0  0
  -24.1479  -36.7087   23.2674 C   0  0  0  0  0  0
  -26.1222  -30.3833   21.4352 C   0  0  0  0  0  0
  -26.1119  -28.9610   20.6943 C   0  0  0  0  0  0
  -27.1270  -27.8568   20.5706 C   0  0  0  0  0  0
  -25.6455  -26.5453   19.2674 C   0  0  0  0  0  0
  -24.6872  -27.5574   19.3542 C   0  0  0  0  0  0
  -23.7561  -29.7568   20.1344 C   0  0  0  0  0  0
  -25.4126  -36.2801   24.0297 C   0  0  1  0  0  0
  -20.5986  -28.3677   23.1113 C   0  0  2  0  0  0
  -20.6739  -26.9283   22.5415 C   0  0  0  0  0  0
  -19.5685  -26.6271   21.5269 C   0  0  0  0  0  0
  -18.1870  -26.7891   22.1684 C   0  0  0  0  0  0
  -19.1573  -28.8894   23.2803 C   0  0  0  0  0  0
  -18.9495  -30.1490   23.8852 C   0  0  0  0  0  0
  -17.6488  -30.6550   24.0543 C   0  0  0  0  0  0
  -25.9136  -34.9154   23.4915 C   0  0  0  0  0  0
  -16.5380  -29.8996   23.6292 C   0  0  0  0  0  0
  -16.7324  -28.6379   23.0389 C   0  0  0  0  0  0
  -26.4623  -31.6540   25.0893 C   0  0  0  0  0  0
  -25.3591  -31.4039   26.1552 C   0  0  0  0  0  0
  -27.0553  -30.2756   24.7100 C   0  0  0  0  0  0
  -27.6028  -32.4599   25.7664 C   0  0  0  0  0  0
  -27.5538  -37.1672   24.8415 C   0  0  0  0  0  0
  -21.4476  -29.2947   22.3452 N   0  0  0  0  0  0
  -26.4183  -37.3607   23.9473 N   0  0  0  0  0  0
  -24.8218  -30.8906   22.0823 N   0  0  0  0  0  0
  -23.4257  -28.7598   23.2902 O   0  0  0  0  0  0
  -27.6087  -25.1484   19.5657 O   0  0  0  0  0  0
  -26.5801  -34.8799   22.4530 O   0  0  0  0  0  0
  -23.6093  -32.0872   23.6243 O   0  0  0  0  0  0
  -27.6189  -14.3215   16.0019 C   0  0  0  0  0  0
  -28.0029  -16.0205   17.0989 C   0  0  0  0  0  0
  -28.2335  -14.5544   17.2373 C   0  0  0  0  0  0
  -26.4792  -15.1308   15.9384 C   0  0  0  0  0  0
  -25.5959  -13.9254   13.6419 C   0  0  0  0  0  0
  -23.8286  -14.2883   15.2873 C   0  0  0  0  0  0
  -25.4576  -12.6061   15.6874 C   0  0  0  0  0  0
  -26.9310  -19.8155   18.0354 C   0  0  0  0  0  0
  -27.0808  -21.8074   18.0915 C   0  0  0  0  0  0
  -26.3273  -18.2365   17.0189 C   0  0  0  0  0  0
  -29.6672  -12.0912   18.0483 C   0  0  0  0  0  0
  -27.0218  -23.4504   19.2342 C   0  0  0  0  0  0
  -28.9694  -13.5000   18.6156 C   0  0  2  0  0  0
  -25.3667  -14.1401   15.1688 C   0  0  0  0  0  0
  -26.7912  -16.5121   16.6153 N   0  0  0  0  0  0
  -31.0452  -11.7843   18.6391 N   0  0  0  0  0  0
  -29.0330  -14.3068   20.9630 N   0  3  0  0  0  0
  -31.5362  -14.9505   20.3325 H   0  0  0  0  0  0
  -31.4495  -14.4504   18.6867 H   0  0  0  0  0  0
  -29.9089  -16.1506   18.3283 H   0  0  0  0  0  0
  -29.5760  -16.4281   19.9237 H   0  0  0  0  0  0
  -26.5742  -15.0966   18.8456 H   0  0  0  0  0  0
  -27.1854  -15.6828   20.2472 H   0  0  0  0  0  0
  -27.1396  -13.2843   21.2912 H   0  0  0  0  0  0
  -28.7188  -11.0060   20.1908 H   0  0  0  0  0  0
  -28.7984  -11.7788   21.6571 H   0  0  0  0  0  0
  -25.1096   -9.6312   22.4874 H   0  0  0  0  0  0
  -23.8059   -7.5493   22.8334 H   0  0  0  0  0  0
  -21.0850   -8.6766   19.7490 H   0  0  0  0  0  0
  -22.2350  -10.8301   19.4867 H   0  0  0  0  0  0
  -21.2780   -7.6311   23.8982 H   0  0  0  0  0  0
  -21.2321   -6.1297   25.8850 H   0  0  0  0  0  0
  -22.0342   -2.7277   23.3274 H   0  0  0  0  0  0
  -22.4115  -11.9762   22.6535 H   0  0  0  0  0  0
  -21.1155  -13.1477   22.6246 H   0  0  0  0  0  0
  -24.1974  -15.7247   20.8488 H   0  0  0  0  0  0
  -25.7899  -15.6297   20.3489 H   0  0  0  0  0  0
  -26.7680  -32.4572   23.0774 H   0  0  0  0  0  0
  -25.0102  -33.9164   24.9954 H   0  0  0  0  0  0
  -22.8669  -31.2601   21.3492 H   0  0  0  0  0  0
  -23.3789  -35.9323   23.3102 H   0  0  0  0  0  0
  -24.3581  -36.8995   22.2126 H   0  0  0  0  0  0
  -23.7131  -37.6125   23.6920 H   0  0  0  0  0  0
  -26.4110  -31.1191   20.6807 H   0  0  0  0  0  0
  -26.9466  -30.3695   22.1383 H   0  0  0  0  0  0
  -28.0702  -27.9689   21.0928 H   0  0  0  0  0  0
  -25.3504  -25.6715   18.6921 H   0  0  0  0  0  0
  -23.7526  -27.3980   18.8463 H   0  0  0  0  0  0
  -24.0070  -30.5390   19.4069 H   0  0  0  0  0  0
  -22.8324  -29.3081   19.7691 H   0  0  0  0  0  0
  -25.1320  -36.1493   25.0757 H   0  0  0  0  0  0
  -21.0109  -28.3272   24.1279 H   0  0  0  0  0  0
  -20.5456  -26.2373   23.3690 H   0  0  0  0  0  0
  -21.6562  -26.7125   22.1305 H   0  0  0  0  0  0
  -19.6736  -25.6157   21.1342 H   0  0  0  0  0  0
  -19.6569  -27.3060   20.6734 H   0  0  0  0  0  0
  -17.4141  -26.6720   21.4084 H   0  0  0  0  0  0
  -18.0181  -26.0041   22.9063 H   0  0  0  0  0  0
  -19.7930  -30.7294   24.2200 H   0  0  0  0  0  0
  -17.4964  -31.6231   24.5097 H   0  0  0  0  0  0
  -15.5292  -30.2883   23.7601 H   0  0  0  0  0  0
  -15.8755  -28.0669   22.7173 H   0  0  0  0  0  0
  -24.5818  -30.7355   25.7984 H   0  0  0  0  0  0
  -24.8861  -32.3318   26.4647 H   0  0  0  0  0  0
  -25.7812  -30.9508   27.0510 H   0  0  0  0  0  0
  -26.3171  -29.6202   24.2587 H   0  0  0  0  0  0
  -27.4160  -29.7641   25.6019 H   0  0  0  0  0  0
  -27.9108  -30.3746   24.0486 H   0  0  0  0  0  0
  -27.2416  -33.3949   26.1844 H   0  0  0  0  0  0
  -28.3877  -32.6985   25.0561 H   0  0  0  0  0  0
  -28.0516  -31.9034   26.5848 H   0  0  0  0  0  0
  -28.2377  -38.0152   24.7629 H   0  0  0  0  0  0
  -28.1239  -36.2673   24.6002 H   0  0  0  0  0  0
  -27.2331  -37.1001   25.8833 H   0  0  0  0  0  0
  -20.9751  -29.8943   21.6875 H   0  0  0  0  0  0
  -25.9973  -38.2583   24.1632 H   0  0  0  0  0  0
  -27.7871  -13.4139   15.3929 H   0  0  0  0  0  0
  -28.2840  -16.8807   17.7025 H   0  0  0  0  0  0
  -25.2701  -14.7451   13.0338 H   0  0  0  0  0  0
  -24.9151  -13.1691   13.2658 H   0  0  0  0  0  0
  -26.6186  -13.6304   13.3383 H   0  0  0  0  0  0
  -23.3671  -15.0541   14.6855 H   0  0  0  0  0  0
  -23.4100  -14.1815   16.2870 H   0  0  0  0  0  0
  -23.3743  -13.3944   14.8085 H   0  0  0  0  0  0
  -24.8882  -12.3884   16.6189 H   0  0  0  0  0  0
  -26.4106  -12.1877   16.0313 H   0  0  0  0  0  0
  -25.1846  -11.8529   14.9186 H   0  0  0  0  0  0
  -26.3714  -19.6501   18.9532 H   0  0  0  0  0  0
  -27.9056  -19.4776   18.3750 H   0  0  0  0  0  0
  -26.3244  -22.0361   17.3214 H   0  0  0  0  0  0
  -28.0084  -21.9427   17.5661 H   0  0  0  0  0  0
  -25.7968  -18.6348   16.1387 H   0  0  0  0  0  0
  -25.4388  -18.0160   17.6241 H   0  0  0  0  0  0
  -29.7185  -12.0959   16.9370 H   0  0  0  0  0  0
  -29.0613  -11.1976   18.1853 H   0  0  0  0  0  0
  -27.2344  -22.9821   20.2125 H   0  0  0  0  0  0
  -25.9426  -23.5720   19.3040 H   0  0  0  0  0  0
  -29.7172  -13.8086   17.8853 H   0  0  0  0  0  0
  -31.6649  -11.2610   18.0700 H   0  0  0  0  0  0
  -29.3808  -15.1468   20.4632 H   0  0  0  0  0  0
  -29.7735  -14.5415   21.6215 H   0  0  0  0  0  0
  -29.4896  -13.4075   21.0256 H   0  0  0  0  0  0
  1 25  1  0  0  0
  1 30  2  0  0  0
  1 86  1  0  0  0
  2  3  1  0  0  0
  2 25  1  0  0  0
  2 88  1  0  0  0
  2 89  1  0  0  0
  3  4  1  0  0  0
  3 90  1  0  0  0
  3 91  1  0  0  0
  4  5  1  0  0  0
  4 92  1  0  0  0
  4 93  1  0  0  0
  5  6  1  0  0  0
  5 26  1  0  0  0
  5 94  1  0  0  0
  6 25  1  0  0  0
  6 95  1  0  0  0
  6 96  1  0  0  0
  7  8  2  0  0  0
  7 26  1  0  0  0
  7 29  1  0  0  0
  8  9  1  0  0  0
  8 22  1  0  0  0
  9 10  1  0  0  0
  9 27  2  0  0  0
 10 11  2  0  0  0
 10 15  1  0  0  0
 11 12  1  0  0  0
 11 97  1  0  0  0
 12 13  2  0  0  0
 12 98  1  0  0  0
 13 14  1  0  0  0
 13 31  1  0  0  0
 14 15  2  0  0  0
 14 99  1  0  0  0
 15100  1  0  0  0
 16 17  2  0  0  0
 16 21  1  0  0  0
 16 31  1  0  0  0
 17 18  1  0  0  0
 17101  1  0  0  0
 18 19  2  0  0  0
 18102  1  0  0  0
 19 20  1  0  0  0
 19 24  1  0  0  0
 20 21  2  0  0  0
 20103  1  0  0  0
 21 23  1  0  0  0
 22 28  1  0  0  0
 22 32  2  0  0  0
 26 27  1  0  0  0
 28104  1  0  0  0
 28105  1  0  0  0
 29106  1  0  0  0
 29107  1  0  0  0
 33 34  1  0  0  0
 33 66  1  0  0  0
 33 70  2  0  0  0
 34 36  1  0  0  0
 34 59  1  0  0  0
 34108  1  0  0  0
 35 44  2  0  0  0
 35 45  1  0  0  0
 35 68  1  0  0  0
 36 56  1  0  0  0
 36109  1  0  0  0
 37 39  1  0  0  0
 37 47  1  0  0  0
 37 66  1  0  0  0
 37110  1  0  0  0
 38 43  2  0  0  0
 38 46  1  0  0  0
 38 47  1  0  0  0
 39 64  1  0  0  0
 39 67  2  0  0  0
 40 52  1  0  0  0
 40 53  2  0  0  0
 40 58  1  0  0  0
 41111  1  0  0  0
 41112  1  0  0  0
 41113  1  0  0  0
 41 48  1  0  0  0
 42 43  1  0  0  0
 42 66  1  0  0  0
 42114  1  0  0  0
 42115  1  0  0  0
 43 44  1  0  0  0
 44116  1  0  0  0
 45 46  2  0  0  0
 45117  1  0  0  0
 46118  1  0  0  0
 47119  1  0  0  0
 47120  1  0  0  0
 48 56  1  0  0  0
 48 65  1  0  0  0
 48121  1  0  0  0
 49 50  1  0  0  0
 49 53  1  0  0  0
 49 64  1  0  0  0
 49122  1  0  0  0
 50 51  1  0  0  0
 50123  1  0  0  0
 50124  1  0  0  0
 51 52  1  0  0  0
 51125  1  0  0  0
 51126  1  0  0  0
 52127  1  0  0  0
 52128  1  0  0  0
 53 54  1  0  0  0
 54 55  2  0  0  0
 54129  1  0  0  0
 55 57  1  0  0  0
 55130  1  0  0  0
 56 69  2  0  0  0
 57 58  2  0  0  0
 57131  1  0  0  0
 58132  1  0  0  0
 59 60  1  0  0  0
 59 61  1  0  0  0
 59 62  1  0  0  0
 60133  1  0  0  0
 60134  1  0  0  0
 60135  1  0  0  0
 61136  1  0  0  0
 61137  1  0  0  0
 61138  1  0  0  0
 62139  1  0  0  0
 62140  1  0  0  0
 62141  1  0  0  0
 63 65  1  0  0  0
 63142  1  0  0  0
 63143  1  0  0  0
 63144  1  0  0  0
 64145  1  0  0  0
 65146  1  0  0  0
 68 82  1  0  0  0
 71 73  1  0  0  0
 71 74  2  0  0  0
 71147  1  0  0  0
 72 73  2  0  0  0
 72 85  1  0  0  0
 72148  1  0  0  0
 73 83  1  0  0  0
 74 84  1  0  0  0
 74 85  1  0  0  0
 75149  1  0  0  0
 75150  1  0  0  0
 75151  1  0  0  0
 75 84  1  0  0  0
 76 84  1  0  0  0
 76152  1  0  0  0
 76153  1  0  0  0
 76154  1  0  0  0
 77 84  1  0  0  0
 77155  1  0  0  0
 77156  1  0  0  0
 77157  1  0  0  0
 78 79  1  0  0  0
 78 80  1  0  0  0
 78158  1  0  0  0
 78159  1  0  0  0
 79 82  1  0  0  0
 79160  1  0  0  0
 79161  1  0  0  0
 80 85  1  0  0  0
 80162  1  0  0  0
 80163  1  0  0  0
 81 83  1  0  0  0
 81 86  1  0  0  0
 81164  1  0  0  0
 81165  1  0  0  0
 82166  1  0  0  0
 82167  1  0  0  0
 83 87  1  0  0  0
 83168  1  0  0  0
 86169  1  0  0  0
 87170  1  0  0  0
 87171  1  0  0  0
 87172  1  0  0  0
M  CHG  1  87   1
M  ISO  4   1 100  68 101  82 101  86 100
M  END
> <chiral flag>
0

> <version>
0

> <s_m_source_file>
/data/baiqing/PycharmProjects/Reinvent-master-3.2/result/LINK_invent/BTK/process_docking_weight1_custom_sum_contain_oxygen_bond_distance_aromatic_linkinvent_7_9_3/rearranged_h_0090.sdf

> <i_m_source_file_index>
62

> <r_mmod_Potential_Energy-OPLS-2005>
12845.9443359375

> <r_mmod_Stretch_Energy-OPLS-2005>
4841.705078125

> <r_mmod_Bend_Energy-OPLS-2005>
1758.18395996094

> <r_mmod_Torsional_Energy-OPLS-2005>
548.423034667969

> <r_mmod_Improper_Torsional_Energy-OPLS-2005>
19.6682052612305

> <r_mmod_Van_der_Waal_Energy-OPLS-2005>
2478.578125

> <r_mmod_Electrostatic_Energy-OPLS-2005>
-525.923706054688

> <r_mmod_Solvation_Energy-OPLS-2005>
-452.150756835938

> <b_mmod_Minimization_Converged-OPLS-2005>
0

> <r_mmod_RMS_Derivative-OPLS-2005>
66.8304061889648

$$$$
63
                    3D
 Structure written by MMmdl.
174182  0  0  1  0            999 V2000
  -30.6939  -14.4545   20.5223 C   0  0  0  0  0  0
  -30.4162  -12.2823   19.4263 C   0  0  0  0  0  0
  -29.4910  -12.4878   18.2090 C   0  0  0  0  0  0
  -28.0139  -12.3478   18.6266 C   0  0  0  0  0  0
  -27.6591  -13.1996   19.8772 C   0  0  2  0  0  0
  -28.7033  -12.9930   20.9998 C   0  0  0  0  0  0
  -25.2603  -13.8126   20.5715 C   0  0  0  0  0  0
  -24.1855  -13.0414   20.9166 C   0  0  0  0  0  0
  -24.6390  -11.6887   20.8733 C   0  0  0  0  0  0
  -23.9055  -10.4274   21.0406 C   0  0  0  0  0  0
  -24.3603   -9.4200   21.9197 C   0  0  0  0  0  0
  -23.6286   -8.2235   22.0773 C   0  0  0  0  0  0
  -22.4279   -8.0270   21.3555 C   0  0  0  0  0  0
  -21.9896   -9.0243   20.4665 C   0  0  0  0  0  0
  -22.7216  -10.2122   20.3071 C   0  0  0  0  0  0
  -21.6848   -6.0728   22.5279 C   0  0  0  0  0  0
  -21.4011   -6.5639   23.8213 C   0  0  0  0  0  0
  -21.3661   -5.6799   24.9175 C   0  0  0  0  0  0
  -21.6046   -4.3054   24.7222 C   0  0  0  0  0  0
  -21.8825   -3.8151   23.4342 C   0  0  0  0  0  0
  -21.9198   -4.6965   22.3401 C   0  0  0  0  0  0
  -22.7878  -13.5243   21.1814 C   0  0  0  0  0  0
  -22.1674   -4.2154   21.0972 F   0  0  0  0  0  0
  -21.5619   -3.4539   25.7731 F   0  0  0  0  0  0
  -30.0266  -13.2778   20.4313 N   0  0  0  0  0  0
  -26.3026  -12.9290   20.3398 N   0  0  0  0  0  0
  -25.9317  -11.6457   20.5782 N   0  0  0  0  0  0
  -22.0514  -12.8265   22.0359 N   0  0  0  0  0  0
  -25.4342  -15.1841   20.4168 N   0  0  0  0  0  0
  -31.8765  -14.5891   20.2133 O   0  0  0  0  0  0
  -21.6646   -6.8868   21.4249 O   0  0  0  0  0  0
  -22.3575  -14.5558   20.6655 O   0  0  0  0  0  0
  -24.6110  -31.8699   23.2127 C   0  0  0  0  0  0
  -25.9013  -32.4849   23.8422 C   0  0  1  0  0  0
  -27.2360  -27.4633   20.0778 C   0  0  0  0  0  0
  -25.5878  -33.8639   24.2342 N   0  0  0  0  0  0
  -23.3952  -30.4934   21.5549 C   0  0  2  0  0  0
  -24.8382  -28.9601   20.1202 C   0  0  0  0  0  0
  -22.7395  -29.4646   22.5026 C   0  0  0  0  0  0
  -18.0287  -28.1369   22.8486 C   0  0  0  0  0  0
  -24.1485  -36.7334   23.2636 C   0  0  0  0  0  0
  -25.9211  -30.8446   21.3593 C   0  0  0  0  0  0
  -25.9978  -29.4797   20.7080 C   0  0  0  0  0  0
  -27.1949  -28.7366   20.6852 C   0  0  0  0  0  0
  -26.0512  -26.9457   19.5026 C   0  0  0  0  0  0
  -24.8548  -27.6889   19.5224 C   0  0  0  0  0  0
  -23.6015  -29.8268   20.1687 C   0  0  0  0  0  0
  -25.4107  -36.3133   24.0343 C   0  0  1  0  0  0
  -20.5871  -28.3636   23.1348 C   0  0  2  0  0  0
  -20.6761  -26.9359   22.5484 C   0  0  0  0  0  0
  -19.5776  -26.6419   21.5220 C   0  0  0  0  0  0
  -18.1949  -26.7908   22.1622 C   0  0  0  0  0  0
  -19.1528  -28.8820   23.2918 C   0  0  0  0  0  0
  -18.9451  -30.1410   23.8945 C   0  0  0  0  0  0
  -17.6462  -30.6556   24.0600 C   0  0  0  0  0  0
  -25.9033  -34.9495   23.5146 C   0  0  0  0  0  0
  -16.5352  -29.9088   23.6331 C   0  0  0  0  0  0
  -16.7277  -28.6519   23.0314 C   0  0  0  0  0  0
  -26.4450  -31.6613   25.0732 C   0  0  0  0  0  0
  -25.3744  -31.3685   26.1498 C   0  0  0  0  0  0
  -27.0270  -30.3066   24.6067 C   0  0  0  0  0  0
  -27.6034  -32.4324   25.7488 C   0  0  0  0  0  0
  -27.5581  -37.1827   24.8465 C   0  0  0  0  0  0
  -21.4130  -29.3006   22.3753 N   0  0  0  0  0  0
  -26.4299  -37.3806   23.9409 N   0  0  0  0  0  0
  -24.6616  -31.0838   22.1018 N   0  0  0  0  0  0
  -23.4195  -28.8185   23.3034 O   0  0  0  0  0  0
  -28.4520  -26.8137   20.0537 O   0  0  0  0  0  0
  -26.5577  -34.8921   22.4696 O   0  0  0  0  0  0
  -23.5312  -32.1429   23.7515 O   0  0  0  0  0  0
  -28.8160  -19.8273   21.5411 C   0  0  0  0  0  0
  -27.8905  -20.8220   21.7135 C   0  0  0  0  0  0
  -26.6528  -20.2078   21.3511 C   0  0  0  0  0  0
  -23.1423  -23.8320   24.3583 C   0  0  0  0  0  0
  -22.0070  -21.5802   24.3573 C   0  0  0  0  0  0
  -28.1258  -22.2653   22.0689 C   0  0  0  0  0  0
  -25.2900  -20.8353   21.1727 C   0  0  0  0  0  0
  -28.2661  -23.1053   20.7867 C   0  0  0  0  0  0
  -24.3211  -20.6656   22.3577 C   0  0  0  0  0  0
  -28.1422  -24.6150   21.0264 C   0  0  0  0  0  0
  -24.3618  -21.8133   23.3936 C   0  0  0  0  0  0
  -28.7015  -17.5675   20.3708 C   0  0  0  0  0  0
  -29.2830  -16.4304   21.2341 C   0  0  0  0  0  0
  -28.5089  -25.4195   19.7722 C   0  0  0  0  0  0
  -22.9937  -22.4961   23.6155 C   0  0  0  0  0  0
  -26.8166  -18.9396   21.0038 N   0  0  0  0  0  0
  -28.1488  -18.7257   21.0523 N   0  0  0  0  0  0
  -29.9199  -15.5168   20.2858 N   0  0  0  0  0  0
  -31.4622  -12.3699   19.1283 H   0  0  0  0  0  0
  -30.2980  -11.2753   19.8261 H   0  0  0  0  0  0
  -29.7242  -11.7596   17.4317 H   0  0  0  0  0  0
  -29.6602  -13.4741   17.7706 H   0  0  0  0  0  0
  -27.8392  -11.2915   18.8386 H   0  0  0  0  0  0
  -27.3549  -12.5998   17.7967 H   0  0  0  0  0  0
  -27.6951  -14.2433   19.5645 H   0  0  0  0  0  0
  -28.6737  -11.9692   21.3772 H   0  0  0  0  0  0
  -28.4918  -13.6352   21.8529 H   0  0  0  0  0  0
  -25.2747   -9.5675   22.4758 H   0  0  0  0  0  0
  -23.9996   -7.4630   22.7502 H   0  0  0  0  0  0
  -21.0816   -8.8765   19.8965 H   0  0  0  0  0  0
  -22.3686  -10.9668   19.6172 H   0  0  0  0  0  0
  -21.2013   -7.6148   23.9711 H   0  0  0  0  0  0
  -21.1472   -6.0526   25.9075 H   0  0  0  0  0  0
  -22.0603   -2.7611   23.2840 H   0  0  0  0  0  0
  -22.4157  -11.9942   22.4749 H   0  0  0  0  0  0
  -21.1133  -13.1318   22.2576 H   0  0  0  0  0  0
  -24.6733  -15.8389   20.5567 H   0  0  0  0  0  0
  -26.3039  -15.6338   20.1602 H   0  0  0  0  0  0
  -26.7069  -32.5564   23.1178 H   0  0  0  0  0  0
  -25.0079  -33.9823   25.0517 H   0  0  0  0  0  0
  -22.6814  -31.3086   21.4182 H   0  0  0  0  0  0
  -23.3740  -35.9674   23.3324 H   0  0  0  0  0  0
  -24.3566  -36.8922   22.2043 H   0  0  0  0  0  0
  -23.7241  -37.6551   23.6629 H   0  0  0  0  0  0
  -26.0269  -31.6103   20.5894 H   0  0  0  0  0  0
  -26.8128  -30.8989   21.9731 H   0  0  0  0  0  0
  -28.0943  -29.1372   21.1292 H   0  0  0  0  0  0
  -26.0184  -25.9820   19.0195 H   0  0  0  0  0  0
  -23.9573  -27.2827   19.0742 H   0  0  0  0  0  0
  -23.7126  -30.6021   19.4085 H   0  0  0  0  0  0
  -22.7245  -29.2482   19.8705 H   0  0  0  0  0  0
  -25.1278  -36.2023   25.0838 H   0  0  0  0  0  0
  -20.9971  -28.3200   24.1460 H   0  0  0  0  0  0
  -20.5579  -26.2232   23.3668 H   0  0  0  0  0  0
  -21.6674  -26.7352   22.1366 H   0  0  0  0  0  0
  -19.6973  -25.6357   21.1180 H   0  0  0  0  0  0
  -19.6741  -27.3321   20.6819 H   0  0  0  0  0  0
  -17.4231  -26.6686   21.4017 H   0  0  0  0  0  0
  -18.0341  -26.0011   22.8975 H   0  0  0  0  0  0
  -19.7919  -30.7202   24.2355 H   0  0  0  0  0  0
  -17.5021  -31.6219   24.5240 H   0  0  0  0  0  0
  -15.5359  -30.3015   23.7640 H   0  0  0  0  0  0
  -15.8674  -28.0852   22.7027 H   0  0  0  0  0  0
  -24.5916  -30.7030   25.7837 H   0  0  0  0  0  0
  -24.8943  -32.2826   26.4998 H   0  0  0  0  0  0
  -25.8136  -30.8826   27.0222 H   0  0  0  0  0  0
  -26.2791  -29.6843   24.1133 H   0  0  0  0  0  0
  -27.4064  -29.7279   25.4499 H   0  0  0  0  0  0
  -27.8620  -30.4395   23.9182 H   0  0  0  0  0  0
  -27.2659  -33.3600   26.2107 H   0  0  0  0  0  0
  -28.3820  -32.6917   25.0310 H   0  0  0  0  0  0
  -28.0727  -31.8436   26.5369 H   0  0  0  0  0  0
  -28.2621  -38.0102   24.7494 H   0  0  0  0  0  0
  -28.1062  -36.2638   24.6331 H   0  0  0  0  0  0
  -27.2297  -37.1523   25.8867 H   0  0  0  0  0  0
  -20.9286  -29.8757   21.7017 H   0  0  0  0  0  0
  -26.0206  -38.2895   24.1394 H   0  0  0  0  0  0
  -29.8959  -19.8494   21.6144 H   0  0  0  0  0  0
  -22.1807  -24.3339   24.4645 H   0  0  0  0  0  0
  -23.8037  -24.5163   23.8247 H   0  0  0  0  0  0
  -23.5505  -23.6896   25.3598 H   0  0  0  0  0  0
  -21.0217  -22.0412   24.4242 H   0  0  0  0  0  0
  -22.3456  -21.3750   25.3740 H   0  0  0  0  0  0
  -21.8807  -20.6249   23.8499 H   0  0  0  0  0  0
  -29.0252  -22.3805   22.6749 H   0  0  0  0  0  0
  -27.3095  -22.6498   22.6805 H   0  0  0  0  0  0
  -24.8194  -20.3772   20.3028 H   0  0  0  0  0  0
  -25.3796  -21.8860   20.9037 H   0  0  0  0  0  0
  -27.4948  -22.8188   20.0674 H   0  0  0  0  0  0
  -29.2211  -22.8800   20.3073 H   0  0  0  0  0  0
  -24.4525  -19.6929   22.8351 H   0  0  0  0  0  0
  -23.3199  -20.6332   21.9282 H   0  0  0  0  0  0
  -28.7944  -24.9172   21.8475 H   0  0  0  0  0  0
  -27.1233  -24.8509   21.3358 H   0  0  0  0  0  0
  -25.0710  -22.5715   23.0708 H   0  0  0  0  0  0
  -24.7551  -21.4400   24.3398 H   0  0  0  0  0  0
  -27.9368  -17.1628   19.7082 H   0  0  0  0  0  0
  -29.4818  -17.9516   19.7107 H   0  0  0  0  0  0
  -30.0229  -16.8142   21.9374 H   0  0  0  0  0  0
  -28.5044  -15.9360   21.8133 H   0  0  0  0  0  0
  -27.9179  -25.1246   18.9042 H   0  0  0  0  0  0
  -29.5398  -25.1911   19.5002 H   0  0  0  0  0  0
  -22.5733  -22.7305   22.6358 H   0  0  0  0  0  0
  -30.3598  -16.0590   19.5583 H   0  0  0  0  0  0
  1 25  1  0  0  0
  1 30  2  0  0  0
  1 88  1  0  0  0
  2  3  1  0  0  0
  2 25  1  0  0  0
  2 89  1  0  0  0
  2 90  1  0  0  0
  3  4  1  0  0  0
  3 91  1  0  0  0
  3 92  1  0  0  0
  4  5  1  0  0  0
  4 93  1  0  0  0
  4 94  1  0  0  0
  5  6  1  0  0  0
  5 26  1  0  0  0
  5 95  1  0  0  0
  6 25  1  0  0  0
  6 96  1  0  0  0
  6 97  1  0  0  0
  7  8  2  0  0  0
  7 26  1  0  0  0
  7 29  1  0  0  0
  8  9  1  0  0  0
  8 22  1  0  0  0
  9 10  1  0  0  0
  9 27  2  0  0  0
 10 11  2  0  0  0
 10 15  1  0  0  0
 11 12  1  0  0  0
 11 98  1  0  0  0
 12 13  2  0  0  0
 12 99  1  0  0  0
 13 14  1  0  0  0
 13 31  1  0  0  0
 14 15  2  0  0  0
 14100  1  0  0  0
 15101  1  0  0  0
 16 17  2  0  0  0
 16 21  1  0  0  0
 16 31  1  0  0  0
 17 18  1  0  0  0
 17102  1  0  0  0
 18 19  2  0  0  0
 18103  1  0  0  0
 19 20  1  0  0  0
 19 24  1  0  0  0
 20 21  2  0  0  0
 20104  1  0  0  0
 21 23  1  0  0  0
 22 28  1  0  0  0
 22 32  2  0  0  0
 26 27  1  0  0  0
 28105  1  0  0  0
 28106  1  0  0  0
 29107  1  0  0  0
 29108  1  0  0  0
 33 34  1  0  0  0
 33 66  1  0  0  0
 33 70  2  0  0  0
 34 36  1  0  0  0
 34 59  1  0  0  0
 34109  1  0  0  0
 35 44  2  0  0  0
 35 45  1  0  0  0
 35 68  1  0  0  0
 36 56  1  0  0  0
 36110  1  0  0  0
 37 39  1  0  0  0
 37 47  1  0  0  0
 37 66  1  0  0  0
 37111  1  0  0  0
 38 43  2  0  0  0
 38 46  1  0  0  0
 38 47  1  0  0  0
 39 64  1  0  0  0
 39 67  2  0  0  0
 40 52  1  0  0  0
 40 53  2  0  0  0
 40 58  1  0  0  0
 41112  1  0  0  0
 41113  1  0  0  0
 41114  1  0  0  0
 41 48  1  0  0  0
 42 43  1  0  0  0
 42 66  1  0  0  0
 42115  1  0  0  0
 42116  1  0  0  0
 43 44  1  0  0  0
 44117  1  0  0  0
 45 46  2  0  0  0
 45118  1  0  0  0
 46119  1  0  0  0
 47120  1  0  0  0
 47121  1  0  0  0
 48 56  1  0  0  0
 48 65  1  0  0  0
 48122  1  0  0  0
 49 50  1  0  0  0
 49 53  1  0  0  0
 49 64  1  0  0  0
 49123  1  0  0  0
 50 51  1  0  0  0
 50124  1  0  0  0
 50125  1  0  0  0
 51 52  1  0  0  0
 51126  1  0  0  0
 51127  1  0  0  0
 52128  1  0  0  0
 52129  1  0  0  0
 53 54  1  0  0  0
 54 55  2  0  0  0
 54130  1  0  0  0
 55 57  1  0  0  0
 55131  1  0  0  0
 56 69  2  0  0  0
 57 58  2  0  0  0
 57132  1  0  0  0
 58133  1  0  0  0
 59 60  1  0  0  0
 59 61  1  0  0  0
 59 62  1  0  0  0
 60134  1  0  0  0
 60135  1  0  0  0
 60136  1  0  0  0
 61137  1  0  0  0
 61138  1  0  0  0
 61139  1  0  0  0
 62140  1  0  0  0
 62141  1  0  0  0
 62142  1  0  0  0
 63 65  1  0  0  0
 63143  1  0  0  0
 63144  1  0  0  0
 63145  1  0  0  0
 64146  1  0  0  0
 65147  1  0  0  0
 68 84  1  0  0  0
 71 72  2  0  0  0
 71 87  1  0  0  0
 71148  1  0  0  0
 72 73  1  0  0  0
 72 76  1  0  0  0
 73 77  1  0  0  0
 73 86  2  0  0  0
 74149  1  0  0  0
 74150  1  0  0  0
 74151  1  0  0  0
 74 85  1  0  0  0
 75 85  1  0  0  0
 75152  1  0  0  0
 75153  1  0  0  0
 75154  1  0  0  0
 76 78  1  0  0  0
 76155  1  0  0  0
 76156  1  0  0  0
 77 79  1  0  0  0
 77157  1  0  0  0
 77158  1  0  0  0
 78 80  1  0  0  0
 78159  1  0  0  0
 78160  1  0  0  0
 79 81  1  0  0  0
 79161  1  0  0  0
 79162  1  0  0  0
 80 84  1  0  0  0
 80163  1  0  0  0
 80164  1  0  0  0
 81 85  1  0  0  0
 81165  1  0  0  0
 81166  1  0  0  0
 82 83  1  0  0  0
 82 87  1  0  0  0
 82167  1  0  0  0
 82168  1  0  0  0
 83 88  1  0  0  0
 83169  1  0  0  0
 83170  1  0  0  0
 84171  1  0  0  0
 84172  1  0  0  0
 85173  1  0  0  0
 86 87  1  0  0  0
 88174  1  0  0  0
M  ISO  4   1 100  68 101  84 101  88 100
M  END
> <chiral flag>
0

> <version>
0

> <s_m_source_file>
/data/baiqing/PycharmProjects/Reinvent-master-3.2/result/LINK_invent/BTK/process_docking_weight1_custom_sum_contain_oxygen_bond_distance_aromatic_linkinvent_7_9_3/rearranged_h_0090.sdf

> <i_m_source_file_index>
63

> <r_mmod_Potential_Energy-OPLS-2005>
9.13582420349121

> <r_mmod_Stretch_Energy-OPLS-2005>
30.2975845336914

> <r_mmod_Bend_Energy-OPLS-2005>
126.737747192383

> <r_mmod_Torsional_Energy-OPLS-2005>
292.726623535156

> <r_mmod_Improper_Torsional_Energy-OPLS-2005>
30.9915962219238

> <r_mmod_Van_der_Waal_Energy-OPLS-2005>
110.918472290039

> <r_mmod_Electrostatic_Energy-OPLS-2005>
-394.951873779297

> <r_mmod_Solvation_Energy-OPLS-2005>
-204.052108764648

> <b_mmod_Minimization_Converged-OPLS-2005>
0

> <r_mmod_RMS_Derivative-OPLS-2005>
3.7920241355896

$$$$
64
                    3D
 Structure written by MMmdl.
181189  0  0  1  0            999 V2000
  -30.6253  -14.6604   20.5399 C   0  0  0  0  0  0
  -30.4479  -12.4066   19.4855 C   0  0  0  0  0  0
  -29.5350  -12.4720   18.2439 C   0  0  0  0  0  0
  -28.0521  -12.3199   18.6463 C   0  0  0  0  0  0
  -27.6522  -13.2152   19.8527 C   0  0  2  0  0  0
  -28.6838  -13.0965   20.9950 C   0  0  0  0  0  0
  -25.2569  -13.8186   20.5576 C   0  0  0  0  0  0
  -24.1852  -13.0416   20.9137 C   0  0  0  0  0  0
  -24.6393  -11.6902   20.8696 C   0  0  0  0  0  0
  -23.9042  -10.4286   21.0368 C   0  0  0  0  0  0
  -24.3606   -9.4237   21.9148 C   0  0  0  0  0  0
  -23.6286   -8.2267   22.0731 C   0  0  0  0  0  0
  -22.4276   -8.0273   21.3529 C   0  0  0  0  0  0
  -21.9910   -9.0226   20.4647 C   0  0  0  0  0  0
  -22.7213  -10.2116   20.3029 C   0  0  0  0  0  0
  -21.6880   -6.0755   22.5270 C   0  0  0  0  0  0
  -21.4049   -6.5640   23.8220 C   0  0  0  0  0  0
  -21.3655   -5.6791   24.9182 C   0  0  0  0  0  0
  -21.6013   -4.3048   24.7237 C   0  0  0  0  0  0
  -21.8835   -3.8153   23.4358 C   0  0  0  0  0  0
  -21.9222   -4.6978   22.3417 C   0  0  0  0  0  0
  -22.7890  -13.5236   21.1833 C   0  0  0  0  0  0
  -22.1657   -4.2134   21.1000 F   0  0  0  0  0  0
  -21.5614   -3.4528   25.7766 F   0  0  0  0  0  0
  -30.0031  -13.4404   20.4439 N   0  0  0  0  0  0
  -26.2989  -12.9338   20.3239 N   0  0  0  0  0  0
  -25.9329  -11.6497   20.5679 N   0  0  0  0  0  0
  -22.0466  -12.8251   22.0416 N   0  0  0  0  0  0
  -25.4343  -15.1896   20.3964 N   0  0  0  0  0  0
  -31.7635  -14.8305   20.0984 O   0  0  0  0  0  0
  -21.6621   -6.8873   21.4226 O   0  0  0  0  0  0
  -22.3544  -14.5501   20.6669 O   0  0  0  0  0  0
  -24.6269  -31.8491   23.2069 C   0  0  0  0  0  0
  -25.9099  -32.4728   23.8377 C   0  0  1  0  0  0
  -27.2241  -27.3062   20.1208 C   0  0  0  0  0  0
  -25.5944  -33.8567   24.2287 N   0  0  0  0  0  0
  -23.4245  -30.4745   21.5443 C   0  0  2  0  0  0
  -24.8695  -28.9329   20.0983 C   0  0  0  0  0  0
  -22.7511  -29.4537   22.4937 C   0  0  0  0  0  0
  -18.0293  -28.1440   22.8428 C   0  0  0  0  0  0
  -24.1441  -36.7340   23.2671 C   0  0  0  0  0  0
  -25.9639  -30.7764   21.3786 C   0  0  0  0  0  0
  -26.0295  -29.4070   20.7224 C   0  0  0  0  0  0
  -27.2007  -28.5918   20.7347 C   0  0  0  0  0  0
  -26.0415  -26.8922   19.4601 C   0  0  0  0  0  0
  -24.8783  -27.6864   19.4554 C   0  0  0  0  0  0
  -23.6347  -29.8084   20.1569 C   0  0  0  0  0  0
  -25.4081  -36.3111   24.0325 C   0  0  1  0  0  0
  -20.5889  -28.3677   23.1338 C   0  0  2  0  0  0
  -20.6775  -26.9392   22.5481 C   0  0  0  0  0  0
  -19.5751  -26.6413   21.5255 C   0  0  0  0  0  0
  -18.1919  -26.7977   22.1624 C   0  0  0  0  0  0
  -19.1544  -28.8868   23.2875 C   0  0  0  0  0  0
  -18.9461  -30.1473   23.8852 C   0  0  0  0  0  0
  -17.6472  -30.6603   24.0553 C   0  0  0  0  0  0
  -25.9040  -34.9468   23.5107 C   0  0  0  0  0  0
  -16.5353  -29.9100   23.6381 C   0  0  0  0  0  0
  -16.7280  -28.6569   23.0299 C   0  0  0  0  0  0
  -26.4426  -31.6599   25.0765 C   0  0  0  0  0  0
  -25.3760  -31.3850   26.1555 C   0  0  0  0  0  0
  -27.0245  -30.2987   24.6332 C   0  0  0  0  0  0
  -27.6021  -32.4347   25.7469 C   0  0  0  0  0  0
  -27.5535  -37.1856   24.8449 C   0  0  0  0  0  0
  -21.4206  -29.3013   22.3709 N   0  0  0  0  0  0
  -26.4266  -37.3809   23.9376 N   0  0  0  0  0  0
  -24.6908  -31.0491   22.0999 N   0  0  0  0  0  0
  -23.4188  -28.8044   23.3017 O   0  0  0  0  0  0
  -28.3554  -26.4662   20.1772 O   0  0  0  0  0  0
  -26.5622  -34.8900   22.4702 O   0  0  0  0  0  0
  -23.5446  -32.1306   23.7390 O   0  0  0  0  0  0
  -29.3292  -21.6357   22.7600 C   0  0  0  0  0  0
  -29.5970  -20.6883   21.7566 C   0  0  0  0  0  0
  -29.9296  -21.2915   23.9083 C   0  0  0  0  0  0
  -30.0868  -19.5500   22.4364 C   0  0  0  0  0  0
  -26.8410  -23.8028   26.9575 C   0  0  0  0  0  0
  -28.9668  -17.4053   23.1522 C   0  0  0  0  0  0
  -32.5716  -18.5451   24.3466 C   0  0  0  0  0  0
  -30.6715  -18.9044   26.0159 C   0  0  0  0  0  0
  -29.1384  -21.0871   20.3330 C   0  0  0  0  0  0
  -29.8900  -22.1230   25.1584 C   0  0  0  0  0  0
  -28.2189  -23.1467   26.8258 C   0  0  0  0  0  0
  -29.4869  -22.5510   19.7330 C   0  0  0  0  0  0
  -28.4728  -22.6920   25.3850 C   0  0  0  0  0  0
  -29.3264  -24.0177   20.4062 C   0  0  0  0  0  0
  -30.0320  -17.2140   20.8583 C   0  0  0  0  0  0
  -28.2130  -25.0211   19.8710 C   0  0  0  0  0  0
  -30.0875  -17.9846   22.2453 C   0  0  1  0  0  0
  -31.4076  -19.4683   24.7760 C   0  0  0  0  0  0
  -30.5386  -20.0520   23.7087 N   0  0  0  0  0  0
  -29.8608  -15.7088   20.9764 N   0  0  0  0  0  0
  -31.4937  -12.5417   19.2011 H   0  0  0  0  0  0
  -30.3939  -11.4227   19.9492 H   0  0  0  0  0  0
  -29.8099  -11.6826   17.5410 H   0  0  0  0  0  0
  -29.6879  -13.4190   17.7251 H   0  0  0  0  0  0
  -27.9008  -11.2700   18.8982 H   0  0  0  0  0  0
  -27.4062  -12.5262   17.7901 H   0  0  0  0  0  0
  -27.6699  -14.2405   19.4821 H   0  0  0  0  0  0
  -28.7010  -12.0818   21.3922 H   0  0  0  0  0  0
  -28.4117  -13.7355   21.8353 H   0  0  0  0  0  0
  -25.2772   -9.5747   22.4727 H   0  0  0  0  0  0
  -24.0031   -7.4681   22.7472 H   0  0  0  0  0  0
  -21.0840   -8.8724   19.8937 H   0  0  0  0  0  0
  -22.3652  -10.9637   19.6103 H   0  0  0  0  0  0
  -21.2047   -7.6141   23.9734 H   0  0  0  0  0  0
  -21.1420   -6.0499   25.9075 H   0  0  0  0  0  0
  -22.0631   -2.7606   23.2861 H   0  0  0  0  0  0
  -22.4081  -11.9924   22.4808 H   0  0  0  0  0  0
  -21.1022  -13.1235   22.2489 H   0  0  0  0  0  0
  -24.6781  -15.8569   20.5090 H   0  0  0  0  0  0
  -26.2961  -15.6137   20.0656 H   0  0  0  0  0  0
  -26.7174  -32.5309   23.1140 H   0  0  0  0  0  0
  -25.0062  -33.9742   25.0410 H   0  0  0  0  0  0
  -22.7243  -31.2975   21.4034 H   0  0  0  0  0  0
  -23.3695  -35.9674   23.3336 H   0  0  0  0  0  0
  -24.3595  -36.8996   22.2109 H   0  0  0  0  0  0
  -23.7179  -37.6532   23.6681 H   0  0  0  0  0  0
  -26.1017  -31.5424   20.6146 H   0  0  0  0  0  0
  -26.8422  -30.8215   22.0052 H   0  0  0  0  0  0
  -28.0771  -28.9342   21.2598 H   0  0  0  0  0  0
  -25.9892  -25.9393   18.9564 H   0  0  0  0  0  0
  -23.9857  -27.3373   18.9582 H   0  0  0  0  0  0
  -23.7359  -30.5852   19.3981 H   0  0  0  0  0  0
  -22.7583  -29.2336   19.8561 H   0  0  0  0  0  0
  -25.1251  -36.1985   25.0800 H   0  0  0  0  0  0
  -20.9901  -28.3198   24.1483 H   0  0  0  0  0  0
  -20.5753  -26.2209   23.3635 H   0  0  0  0  0  0
  -21.6634  -26.7496   22.1192 H   0  0  0  0  0  0
  -19.6930  -25.6369   21.1175 H   0  0  0  0  0  0
  -19.6728  -27.3297   20.6840 H   0  0  0  0  0  0
  -17.4212  -26.6668   21.4024 H   0  0  0  0  0  0
  -18.0297  -26.0189   22.9089 H   0  0  0  0  0  0
  -19.7963  -30.7327   24.2111 H   0  0  0  0  0  0
  -17.5062  -31.6252   24.5229 H   0  0  0  0  0  0
  -15.5358  -30.2970   23.7847 H   0  0  0  0  0  0
  -15.8657  -28.0969   22.6916 H   0  0  0  0  0  0
  -24.5720  -30.7381   25.7985 H   0  0  0  0  0  0
  -24.9200  -32.3081   26.5162 H   0  0  0  0  0  0
  -25.8094  -30.8950   27.0273 H   0  0  0  0  0  0
  -26.2854  -29.6744   24.1270 H   0  0  0  0  0  0
  -27.3759  -29.7227   25.4891 H   0  0  0  0  0  0
  -27.8813  -30.4178   23.9714 H   0  0  0  0  0  0
  -27.2647  -33.3659   26.2042 H   0  0  0  0  0  0
  -28.3791  -32.6891   25.0280 H   0  0  0  0  0  0
  -28.0749  -31.8591   26.5399 H   0  0  0  0  0  0
  -28.2567  -38.0137   24.7529 H   0  0  0  0  0  0
  -28.1047  -36.2729   24.6212 H   0  0  0  0  0  0
  -27.2355  -37.1453   25.8884 H   0  0  0  0  0  0
  -20.9344  -29.8715   21.6929 H   0  0  0  0  0  0
  -26.0169  -38.2869   24.1401 H   0  0  0  0  0  0
  -28.7446  -22.5327   22.6517 H   0  0  0  0  0  0
  -26.6217  -24.0418   27.9976 H   0  0  0  0  0  0
  -26.0530  -23.1443   26.5807 H   0  0  0  0  0  0
  -26.8033  -24.7331   26.3839 H   0  0  0  0  0  0
  -28.8980  -17.9054   24.1166 H   0  0  0  0  0  0
  -29.1242  -16.3500   23.3774 H   0  0  0  0  0  0
  -27.9921  -17.5041   22.6709 H   0  0  0  0  0  0
  -33.3545  -18.5367   25.1077 H   0  0  0  0  0  0
  -33.0496  -18.8813   23.4258 H   0  0  0  0  0  0
  -32.2719  -17.5019   24.2449 H   0  0  0  0  0  0
  -31.3625  -18.8493   26.8591 H   0  0  0  0  0  0
  -30.2733  -17.9022   25.8655 H   0  0  0  0  0  0
  -29.8463  -19.5284   26.3577 H   0  0  0  0  0  0
  -28.0556  -20.9614   20.3147 H   0  0  0  0  0  0
  -29.5294  -20.3368   19.6374 H   0  0  0  0  0  0
  -30.5839  -22.9564   25.0570 H   0  0  0  0  0  0
  -30.2123  -21.5835   26.0382 H   0  0  0  0  0  0
  -28.3085  -22.2860   27.4927 H   0  0  0  0  0  0
  -28.9791  -23.8647   27.1440 H   0  0  0  0  0  0
  -28.9826  -22.6007   18.7663 H   0  0  0  0  0  0
  -30.5390  -22.4834   19.4500 H   0  0  0  0  0  0
  -27.7329  -21.9204   25.1397 H   0  0  0  0  0  0
  -28.2831  -23.5203   24.6964 H   0  0  0  0  0  0
  -30.2691  -24.5328   20.2000 H   0  0  0  0  0  0
  -29.3087  -24.0146   21.4907 H   0  0  0  0  0  0
  -29.1742  -17.5819   20.2908 H   0  0  0  0  0  0
  -30.9080  -17.4353   20.2429 H   0  0  0  0  0  0
  -27.2605  -24.6483   20.2554 H   0  0  0  0  0  0
  -28.1667  -24.9283   18.7852 H   0  0  0  0  0  0
  -31.0394  -17.6258   22.6064 H   0  0  0  0  0  0
  -31.9489  -20.3358   25.1495 H   0  0  0  0  0  0
  -28.9680  -15.4273   21.3497 H   0  0  0  0  0  0
  1 25  1  0  0  0
  1 30  2  0  0  0
  1 90  1  0  0  0
  2  3  1  0  0  0
  2 25  1  0  0  0
  2 91  1  0  0  0
  2 92  1  0  0  0
  3  4  1  0  0  0
  3 93  1  0  0  0
  3 94  1  0  0  0
  4  5  1  0  0  0
  4 95  1  0  0  0
  4 96  1  0  0  0
  5  6  1  0  0  0
  5 26  1  0  0  0
  5 97  1  0  0  0
  6 25  1  0  0  0
  6 98  1  0  0  0
  6 99  1  0  0  0
  7  8  2  0  0  0
  7 26  1  0  0  0
  7 29  1  0  0  0
  8  9  1  0  0  0
  8 22  1  0  0  0
  9 10  1  0  0  0
  9 27  2  0  0  0
 10 11  2  0  0  0
 10 15  1  0  0  0
 11 12  1  0  0  0
 11100  1  0  0  0
 12 13  2  0  0  0
 12101  1  0  0  0
 13 14  1  0  0  0
 13 31  1  0  0  0
 14 15  2  0  0  0
 14102  1  0  0  0
 15103  1  0  0  0
 16 17  2  0  0  0
 16 21  1  0  0  0
 16 31  1  0  0  0
 17 18  1  0  0  0
 17104  1  0  0  0
 18 19  2  0  0  0
 18105  1  0  0  0
 19 20  1  0  0  0
 19 24  1  0  0  0
 20 21  2  0  0  0
 20106  1  0  0  0
 21 23  1  0  0  0
 22 28  1  0  0  0
 22 32  2  0  0  0
 26 27  1  0  0  0
 28107  1  0  0  0
 28108  1  0  0  0
 29109  1  0  0  0
 29110  1  0  0  0
 33 34  1  0  0  0
 33 66  1  0  0  0
 33 70  2  0  0  0
 34 36  1  0  0  0
 34 59  1  0  0  0
 34111  1  0  0  0
 35 44  2  0  0  0
 35 45  1  0  0  0
 35 68  1  0  0  0
 36 56  1  0  0  0
 36112  1  0  0  0
 37 39  1  0  0  0
 37 47  1  0  0  0
 37 66  1  0  0  0
 37113  1  0  0  0
 38 43  2  0  0  0
 38 46  1  0  0  0
 38 47  1  0  0  0
 39 64  1  0  0  0
 39 67  2  0  0  0
 40 52  1  0  0  0
 40 53  2  0  0  0
 40 58  1  0  0  0
 41114  1  0  0  0
 41115  1  0  0  0
 41116  1  0  0  0
 41 48  1  0  0  0
 42 43  1  0  0  0
 42 66  1  0  0  0
 42117  1  0  0  0
 42118  1  0  0  0
 43 44  1  0  0  0
 44119  1  0  0  0
 45 46  2  0  0  0
 45120  1  0  0  0
 46121  1  0  0  0
 47122  1  0  0  0
 47123  1  0  0  0
 48 56  1  0  0  0
 48 65  1  0  0  0
 48124  1  0  0  0
 49 50  1  0  0  0
 49 53  1  0  0  0
 49 64  1  0  0  0
 49125  1  0  0  0
 50 51  1  0  0  0
 50126  1  0  0  0
 50127  1  0  0  0
 51 52  1  0  0  0
 51128  1  0  0  0
 51129  1  0  0  0
 52130  1  0  0  0
 52131  1  0  0  0
 53 54  1  0  0  0
 54 55  2  0  0  0
 54132  1  0  0  0
 55 57  1  0  0  0
 55133  1  0  0  0
 56 69  2  0  0  0
 57 58  2  0  0  0
 57134  1  0  0  0
 58135  1  0  0  0
 59 60  1  0  0  0
 59 61  1  0  0  0
 59 62  1  0  0  0
 60136  1  0  0  0
 60137  1  0  0  0
 60138  1  0  0  0
 61139  1  0  0  0
 61140  1  0  0  0
 61141  1  0  0  0
 62142  1  0  0  0
 62143  1  0  0  0
 62144  1  0  0  0
 63 65  1  0  0  0
 63145  1  0  0  0
 63146  1  0  0  0
 63147  1  0  0  0
 64148  1  0  0  0
 65149  1  0  0  0
 68 86  1  0  0  0
 71 72  1  0  0  0
 71 73  2  0  0  0
 71150  1  0  0  0
 72 74  2  0  0  0
 72 79  1  0  0  0
 73 80  1  0  0  0
 73 89  1  0  0  0
 74 87  1  0  0  0
 74 89  1  0  0  0
 75 81  1  0  0  0
 75151  1  0  0  0
 75152  1  0  0  0
 75153  1  0  0  0
 76154  1  0  0  0
 76155  1  0  0  0
 76156  1  0  0  0
 76 87  1  0  0  0
 77157  1  0  0  0
 77158  1  0  0  0
 77159  1  0  0  0
 77 88  1  0  0  0
 78 88  1  0  0  0
 78160  1  0  0  0
 78161  1  0  0  0
 78162  1  0  0  0
 79 82  1  0  0  0
 79163  1  0  0  0
 79164  1  0  0  0
 80 83  1  0  0  0
 80165  1  0  0  0
 80166  1  0  0  0
 81 83  1  0  0  0
 81167  1  0  0  0
 81168  1  0  0  0
 82 84  1  0  0  0
 82169  1  0  0  0
 82170  1  0  0  0
 83171  1  0  0  0
 83172  1  0  0  0
 84 86  1  0  0  0
 84173  1  0  0  0
 84174  1  0  0  0
 85 87  1  0  0  0
 85 90  1  0  0  0
 85175  1  0  0  0
 85176  1  0  0  0
 86177  1  0  0  0
 86178  1  0  0  0
 87179  1  0  0  0
 88 89  1  0  0  0
 88180  1  0  0  0
 90181  1  0  0  0
M  ISO  4   1 100  68 101  86 101  90 100
M  END
> <chiral flag>
0

> <version>
0

> <s_m_source_file>
/data/baiqing/PycharmProjects/Reinvent-master-3.2/result/LINK_invent/BTK/process_docking_weight1_custom_sum_contain_oxygen_bond_distance_aromatic_linkinvent_7_9_3/rearranged_h_0090.sdf

> <i_m_source_file_index>
64

> <r_mmod_Potential_Energy-OPLS-2005>
205.149444580078

> <r_mmod_Stretch_Energy-OPLS-2005>
114.170600891113

> <r_mmod_Bend_Energy-OPLS-2005>
245.95783996582

> <r_mmod_Torsional_Energy-OPLS-2005>
295.848052978516

> <r_mmod_Improper_Torsional_Energy-OPLS-2005>
5.76520586013794

> <r_mmod_Van_der_Waal_Energy-OPLS-2005>
132.751510620117

> <r_mmod_Electrostatic_Energy-OPLS-2005>
-447.094177246094

> <r_mmod_Solvation_Energy-OPLS-2005>
-199.101760864258

> <b_mmod_Minimization_Converged-OPLS-2005>
0

> <r_mmod_RMS_Derivative-OPLS-2005>
9.55056667327881

$$$$
65
                    3D
 Structure written by MMmdl.
179187  0  0  1  0            999 V2000
  -30.6533  -14.5768   20.5295 C   0  0  0  0  0  0
  -30.4277  -12.3606   19.4465 C   0  0  0  0  0  0
  -29.5009  -12.5010   18.2196 C   0  0  0  0  0  0
  -28.0234  -12.3448   18.6318 C   0  0  0  0  0  0
  -27.6517  -13.2131   19.8636 C   0  0  2  0  0  0
  -28.6926  -13.0543   20.9931 C   0  0  0  0  0  0
  -25.2548  -13.8162   20.5679 C   0  0  0  0  0  0
  -24.1811  -13.0434   20.9193 C   0  0  0  0  0  0
  -24.6373  -11.6904   20.8729 C   0  0  0  0  0  0
  -23.9043  -10.4290   21.0397 C   0  0  0  0  0  0
  -24.3597   -9.4208   21.9174 C   0  0  0  0  0  0
  -23.6285   -8.2238   22.0743 C   0  0  0  0  0  0
  -22.4264   -8.0270   21.3541 C   0  0  0  0  0  0
  -21.9901   -9.0234   20.4636 C   0  0  0  0  0  0
  -22.7217  -10.2124   20.3047 C   0  0  0  0  0  0
  -21.6853   -6.0726   22.5273 C   0  0  0  0  0  0
  -21.4012   -6.5634   23.8204 C   0  0  0  0  0  0
  -21.3664   -5.6792   24.9171 C   0  0  0  0  0  0
  -21.6050   -4.3053   24.7224 C   0  0  0  0  0  0
  -21.8821   -3.8142   23.4345 C   0  0  0  0  0  0
  -21.9193   -4.6957   22.3400 C   0  0  0  0  0  0
  -22.7839  -13.5230   21.1865 C   0  0  0  0  0  0
  -22.1664   -4.2147   21.0981 F   0  0  0  0  0  0
  -21.5634   -3.4536   25.7738 F   0  0  0  0  0  0
  -30.0121  -13.3757   20.4295 N   0  0  0  0  0  0
  -26.2969  -12.9342   20.3309 N   0  0  0  0  0  0
  -25.9299  -11.6501   20.5740 N   0  0  0  0  0  0
  -22.0488  -12.8201   22.0418 N   0  0  0  0  0  0
  -25.4280  -15.1877   20.4080 N   0  0  0  0  0  0
  -31.8156  -14.7310   20.1452 O   0  0  0  0  0  0
  -21.6638   -6.8860   21.4232 O   0  0  0  0  0  0
  -22.3524  -14.5546   20.6732 O   0  0  0  0  0  0
  -24.6158  -31.8655   23.2025 C   0  0  0  0  0  0
  -25.9035  -32.4795   23.8339 C   0  0  1  0  0  0
  -27.2383  -27.3810   20.1277 C   0  0  0  0  0  0
  -25.5873  -33.8604   24.2254 N   0  0  0  0  0  0
  -23.4095  -30.4826   21.5441 C   0  0  2  0  0  0
  -24.8603  -28.9311   20.1242 C   0  0  0  0  0  0
  -22.7410  -29.4646   22.4972 C   0  0  0  0  0  0
  -18.0252  -28.1372   22.8470 C   0  0  0  0  0  0
  -24.1503  -36.7343   23.2635 C   0  0  0  0  0  0
  -25.9401  -30.8133   21.3619 C   0  0  0  0  0  0
  -26.0193  -29.4368   20.7253 C   0  0  0  0  0  0
  -27.2126  -28.6693   20.7218 C   0  0  0  0  0  0
  -26.0663  -26.9044   19.5084 C   0  0  0  0  0  0
  -24.8802  -27.6653   19.5114 C   0  0  0  0  0  0
  -23.6239  -29.8034   20.1634 C   0  0  0  0  0  0
  -25.4115  -36.3100   24.0316 C   0  0  1  0  0  0
  -20.5846  -28.3669   23.1302 C   0  0  2  0  0  0
  -20.6751  -26.9399   22.5416 C   0  0  0  0  0  0
  -19.5742  -26.6376   21.5202 C   0  0  0  0  0  0
  -18.1908  -26.7907   22.1615 C   0  0  0  0  0  0
  -19.1504  -28.8829   23.2869 C   0  0  0  0  0  0
  -18.9452  -30.1430   23.8890 C   0  0  0  0  0  0
  -17.6460  -30.6570   24.0565 C   0  0  0  0  0  0
  -25.9057  -34.9468   23.5093 C   0  0  0  0  0  0
  -16.5345  -29.9079   23.6320 C   0  0  0  0  0  0
  -16.7241  -28.6498   23.0323 C   0  0  0  0  0  0
  -26.4434  -31.6586   25.0689 C   0  0  0  0  0  0
  -25.3693  -31.3725   26.1443 C   0  0  0  0  0  0
  -27.0256  -30.3014   24.6086 C   0  0  0  0  0  0
  -27.6003  -32.4320   25.7453 C   0  0  0  0  0  0
  -27.5582  -37.1803   24.8435 C   0  0  0  0  0  0
  -21.4138  -29.3050   22.3720 N   0  0  0  0  0  0
  -26.4288  -37.3789   23.9398 N   0  0  0  0  0  0
  -24.6736  -31.0699   22.0947 N   0  0  0  0  0  0
  -23.4154  -28.8166   23.3023 O   0  0  0  0  0  0
  -28.4135  -26.6556   20.0323 O   0  0  0  0  0  0
  -26.5656  -34.8923   22.4677 O   0  0  0  0  0  0
  -23.5345  -32.1438   23.7382 O   0  0  0  0  0  0
  -29.5953  -22.8048   18.2672 C   0  0  0  0  0  0
  -30.2716  -22.2602   17.1616 C   0  0  0  0  0  0
  -29.2823  -22.0192   19.4006 C   0  0  0  0  0  0
  -30.6288  -20.9011   17.2304 C   0  0  0  0  0  0
  -29.7238  -20.6462   19.3858 C   0  0  0  0  0  0
  -31.3302  -20.1844   16.0908 C   0  0  0  0  0  0
  -29.4509  -27.9887   16.9895 C   0  0  0  0  0  0
  -31.8584  -27.5946   16.3174 C   0  0  0  0  0  0
  -30.5926  -23.1416   15.9485 C   0  0  0  0  0  0
  -28.5188  -22.7111   20.5619 C   0  0  0  0  0  0
  -29.7008  -19.6465   20.5764 C   0  0  0  0  0  0
  -31.1731  -24.5248   16.3158 C   0  0  0  0  0  0
  -27.8244  -24.1113   20.2670 C   0  0  0  0  0  0
  -29.4150  -18.1167   20.2629 C   0  0  0  0  0  0
  -30.1557  -25.6796   16.2066 C   0  0  0  0  0  0
  -30.2819  -17.0683   21.0589 C   0  0  0  0  0  0
  -28.5783  -25.3990   20.7450 C   0  0  0  0  0  0
  -30.5972  -26.9669   16.9337 C   0  0  0  0  0  0
  -30.3872  -20.1458   18.3190 N   0  0  0  0  0  0
  -29.8881  -15.6354   20.9114 N   0  0  0  0  0  0
  -31.4722  -12.4739   19.1502 H   0  0  0  0  0  0
  -30.3463  -11.3628   19.8813 H   0  0  0  0  0  0
  -29.7595  -11.7557   17.4668 H   0  0  0  0  0  0
  -29.6509  -13.4749   17.7503 H   0  0  0  0  0  0
  -27.8563  -11.2914   18.8594 H   0  0  0  0  0  0
  -27.3693  -12.5810   17.7913 H   0  0  0  0  0  0
  -27.6756  -14.2503   19.5289 H   0  0  0  0  0  0
  -28.6881  -12.0335   21.3771 H   0  0  0  0  0  0
  -28.4433  -13.6907   21.8435 H   0  0  0  0  0  0
  -25.2735   -9.5700   22.4747 H   0  0  0  0  0  0
  -24.0005   -7.4632   22.7455 H   0  0  0  0  0  0
  -21.0837   -8.8737   19.8929 H   0  0  0  0  0  0
  -22.3658  -10.9658   19.6155 H   0  0  0  0  0  0
  -21.1995   -7.6141   23.9710 H   0  0  0  0  0  0
  -21.1492   -6.0521   25.9078 H   0  0  0  0  0  0
  -22.0596   -2.7606   23.2845 H   0  0  0  0  0  0
  -22.4117  -11.9857   22.4784 H   0  0  0  0  0  0
  -21.1100  -13.1208   22.2631 H   0  0  0  0  0  0
  -24.6599  -15.8429   20.4992 H   0  0  0  0  0  0
  -26.2784  -15.6202   20.0701 H   0  0  0  0  0  0
  -26.7109  -32.5490   23.1107 H   0  0  0  0  0  0
  -24.9959  -33.9787   25.0346 H   0  0  0  0  0  0
  -22.7017  -31.2997   21.3917 H   0  0  0  0  0  0
  -23.3753  -35.9686   23.3270 H   0  0  0  0  0  0
  -24.3612  -36.9024   22.2060 H   0  0  0  0  0  0
  -23.7288  -37.6544   23.6700 H   0  0  0  0  0  0
  -26.0489  -31.5656   20.5798 H   0  0  0  0  0  0
  -26.8304  -30.8825   21.9748 H   0  0  0  0  0  0
  -28.1110  -29.0616   21.1757 H   0  0  0  0  0  0
  -26.0733  -25.9548   18.9956 H   0  0  0  0  0  0
  -23.9947  -27.2744   19.0315 H   0  0  0  0  0  0
  -23.7381  -30.5706   19.3968 H   0  0  0  0  0  0
  -22.7487  -29.2216   19.8665 H   0  0  0  0  0  0
  -25.1282  -36.1958   25.0806 H   0  0  0  0  0  0
  -20.9921  -28.3249   24.1431 H   0  0  0  0  0  0
  -20.5649  -26.2283   23.3613 H   0  0  0  0  0  0
  -21.6621  -26.7447   22.1215 H   0  0  0  0  0  0
  -19.6941  -25.6289   21.1222 H   0  0  0  0  0  0
  -19.6687  -27.3203   20.6741 H   0  0  0  0  0  0
  -17.4183  -26.6630   21.4005 H   0  0  0  0  0  0
  -18.0321  -26.0039   22.9011 H   0  0  0  0  0  0
  -19.7941  -30.7210   24.2278 H   0  0  0  0  0  0
  -17.5032  -31.6246   24.5175 H   0  0  0  0  0  0
  -15.5352  -30.2990   23.7640 H   0  0  0  0  0  0
  -15.8644  -28.0831   22.7033 H   0  0  0  0  0  0
  -24.5865  -30.7066   25.7783 H   0  0  0  0  0  0
  -24.8880  -32.2900   26.4841 H   0  0  0  0  0  0
  -25.8022  -30.8928   27.0232 H   0  0  0  0  0  0
  -26.2792  -29.6807   24.1115 H   0  0  0  0  0  0
  -27.3986  -29.7207   25.4535 H   0  0  0  0  0  0
  -27.8636  -30.4302   23.9233 H   0  0  0  0  0  0
  -27.2609  -33.3628   26.1993 H   0  0  0  0  0  0
  -28.3803  -32.6889   25.0278 H   0  0  0  0  0  0
  -28.0672  -31.8491   26.5400 H   0  0  0  0  0  0
  -28.2538  -38.0155   24.7533 H   0  0  0  0  0  0
  -28.1132  -36.2688   24.6166 H   0  0  0  0  0  0
  -27.2321  -37.1337   25.8841 H   0  0  0  0  0  0
  -20.9304  -29.8824   21.6984 H   0  0  0  0  0  0
  -26.0177  -38.2862   24.1412 H   0  0  0  0  0  0
  -29.3365  -23.8502   18.2325 H   0  0  0  0  0  0
  -30.7933  -20.3282   15.1529 H   0  0  0  0  0  0
  -31.3927  -19.1095   16.2676 H   0  0  0  0  0  0
  -32.3443  -20.5645   15.9729 H   0  0  0  0  0  0
  -29.7225  -28.8542   17.5968 H   0  0  0  0  0  0
  -28.5550  -27.5536   17.4343 H   0  0  0  0  0  0
  -29.1811  -28.3478   15.9962 H   0  0  0  0  0  0
  -32.1735  -28.4725   16.8842 H   0  0  0  0  0  0
  -31.6881  -27.9099   15.2878 H   0  0  0  0  0  0
  -32.6977  -26.8990   16.3125 H   0  0  0  0  0  0
  -29.6966  -23.2498   15.3339 H   0  0  0  0  0  0
  -31.3198  -22.6455   15.3080 H   0  0  0  0  0  0
  -29.1802  -22.7992   21.4231 H   0  0  0  0  0  0
  -27.7365  -22.0157   20.8690 H   0  0  0  0  0  0
  -28.9903  -19.9899   21.3271 H   0  0  0  0  0  0
  -30.6772  -19.7249   21.0555 H   0  0  0  0  0  0
  -31.9976  -24.7408   15.6353 H   0  0  0  0  0  0
  -31.6284  -24.4908   17.3071 H   0  0  0  0  0  0
  -26.8799  -24.1221   20.8130 H   0  0  0  0  0  0
  -27.5145  -24.1931   19.2268 H   0  0  0  0  0  0
  -29.5756  -17.9123   19.2051 H   0  0  0  0  0  0
  -28.3538  -17.9275   20.4233 H   0  0  0  0  0  0
  -29.1991  -25.3611   16.6219 H   0  0  0  0  0  0
  -29.9572  -25.8914   15.1549 H   0  0  0  0  0  0
  -30.2254  -17.3020   22.1227 H   0  0  0  0  0  0
  -31.3320  -17.1949   20.7865 H   0  0  0  0  0  0
  -29.6458  -25.1857   20.6800 H   0  0  0  0  0  0
  -28.3870  -25.5599   21.8073 H   0  0  0  0  0  0
  -30.8312  -26.6990   17.9655 H   0  0  0  0  0  0
  -28.9419  -15.4043   21.1740 H   0  0  0  0  0  0
  1 25  1  0  0  0
  1 30  2  0  0  0
  1 90  1  0  0  0
  2  3  1  0  0  0
  2 25  1  0  0  0
  2 91  1  0  0  0
  2 92  1  0  0  0
  3  4  1  0  0  0
  3 93  1  0  0  0
  3 94  1  0  0  0
  4  5  1  0  0  0
  4 95  1  0  0  0
  4 96  1  0  0  0
  5  6  1  0  0  0
  5 26  1  0  0  0
  5 97  1  0  0  0
  6 25  1  0  0  0
  6 98  1  0  0  0
  6 99  1  0  0  0
  7  8  2  0  0  0
  7 26  1  0  0  0
  7 29  1  0  0  0
  8  9  1  0  0  0
  8 22  1  0  0  0
  9 10  1  0  0  0
  9 27  2  0  0  0
 10 11  2  0  0  0
 10 15  1  0  0  0
 11 12  1  0  0  0
 11100  1  0  0  0
 12 13  2  0  0  0
 12101  1  0  0  0
 13 14  1  0  0  0
 13 31  1  0  0  0
 14 15  2  0  0  0
 14102  1  0  0  0
 15103  1  0  0  0
 16 17  2  0  0  0
 16 21  1  0  0  0
 16 31  1  0  0  0
 17 18  1  0  0  0
 17104  1  0  0  0
 18 19  2  0  0  0
 18105  1  0  0  0
 19 20  1  0  0  0
 19 24  1  0  0  0
 20 21  2  0  0  0
 20106  1  0  0  0
 21 23  1  0  0  0
 22 28  1  0  0  0
 22 32  2  0  0  0
 26 27  1  0  0  0
 28107  1  0  0  0
 28108  1  0  0  0
 29109  1  0  0  0
 29110  1  0  0  0
 33 34  1  0  0  0
 33 66  1  0  0  0
 33 70  2  0  0  0
 34 36  1  0  0  0
 34 59  1  0  0  0
 34111  1  0  0  0
 35 44  2  0  0  0
 35 45  1  0  0  0
 35 68  1  0  0  0
 36 56  1  0  0  0
 36112  1  0  0  0
 37 39  1  0  0  0
 37 47  1  0  0  0
 37 66  1  0  0  0
 37113  1  0  0  0
 38 43  2  0  0  0
 38 46  1  0  0  0
 38 47  1  0  0  0
 39 64  1  0  0  0
 39 67  2  0  0  0
 40 52  1  0  0  0
 40 53  2  0  0  0
 40 58  1  0  0  0
 41114  1  0  0  0
 41115  1  0  0  0
 41116  1  0  0  0
 41 48  1  0  0  0
 42 43  1  0  0  0
 42 66  1  0  0  0
 42117  1  0  0  0
 42118  1  0  0  0
 43 44  1  0  0  0
 44119  1  0  0  0
 45 46  2  0  0  0
 45120  1  0  0  0
 46121  1  0  0  0
 47122  1  0  0  0
 47123  1  0  0  0
 48 56  1  0  0  0
 48 65  1  0  0  0
 48124  1  0  0  0
 49 50  1  0  0  0
 49 53  1  0  0  0
 49 64  1  0  0  0
 49125  1  0  0  0
 50 51  1  0  0  0
 50126  1  0  0  0
 50127  1  0  0  0
 51 52  1  0  0  0
 51128  1  0  0  0
 51129  1  0  0  0
 52130  1  0  0  0
 52131  1  0  0  0
 53 54  1  0  0  0
 54 55  2  0  0  0
 54132  1  0  0  0
 55 57  1  0  0  0
 55133  1  0  0  0
 56 69  2  0  0  0
 57 58  2  0  0  0
 57134  1  0  0  0
 58135  1  0  0  0
 59 60  1  0  0  0
 59 61  1  0  0  0
 59 62  1  0  0  0
 60136  1  0  0  0
 60137  1  0  0  0
 60138  1  0  0  0
 61139  1  0  0  0
 61140  1  0  0  0
 61141  1  0  0  0
 62142  1  0  0  0
 62143  1  0  0  0
 62144  1  0  0  0
 63 65  1  0  0  0
 63145  1  0  0  0
 63146  1  0  0  0
 63147  1  0  0  0
 64148  1  0  0  0
 65149  1  0  0  0
 68 87  1  0  0  0
 71 72  2  0  0  0
 71 73  1  0  0  0
 71150  1  0  0  0
 72 74  1  0  0  0
 72 79  1  0  0  0
 73 75  2  0  0  0
 73 80  1  0  0  0
 74 76  1  0  0  0
 74 89  2  0  0  0
 75 81  1  0  0  0
 75 89  1  0  0  0
 76151  1  0  0  0
 76152  1  0  0  0
 76153  1  0  0  0
 77154  1  0  0  0
 77155  1  0  0  0
 77156  1  0  0  0
 77 88  1  0  0  0
 78 88  1  0  0  0
 78157  1  0  0  0
 78158  1  0  0  0
 78159  1  0  0  0
 79 82  1  0  0  0
 79160  1  0  0  0
 79161  1  0  0  0
 80 83  1  0  0  0
 80162  1  0  0  0
 80163  1  0  0  0
 81 84  1  0  0  0
 81164  1  0  0  0
 81165  1  0  0  0
 82 85  1  0  0  0
 82166  1  0  0  0
 82167  1  0  0  0
 83 87  1  0  0  0
 83168  1  0  0  0
 83169  1  0  0  0
 84 86  1  0  0  0
 84170  1  0  0  0
 84171  1  0  0  0
 85 88  1  0  0  0
 85172  1  0  0  0
 85173  1  0  0  0
 86 90  1  0  0  0
 86174  1  0  0  0
 86175  1  0  0  0
 87176  1  0  0  0
 87177  1  0  0  0
 88178  1  0  0  0
 90179  1  0  0  0
M  ISO  4   1 100  68 101  87 101  90 100
M  END
> <chiral flag>
0

> <version>
0

> <s_m_source_file>
/data/baiqing/PycharmProjects/Reinvent-master-3.2/result/LINK_invent/BTK/process_docking_weight1_custom_sum_contain_oxygen_bond_distance_aromatic_linkinvent_7_9_3/rearranged_h_0090.sdf

> <i_m_source_file_index>
65

> <r_mmod_Potential_Energy-OPLS-2005>
-130.176956176758

> <r_mmod_Stretch_Energy-OPLS-2005>
61.581974029541

> <r_mmod_Bend_Energy-OPLS-2005>
140.781982421875

> <r_mmod_Torsional_Energy-OPLS-2005>
253.912200927734

> <r_mmod_Improper_Torsional_Energy-OPLS-2005>
4.87555313110352

> <r_mmod_Van_der_Waal_Energy-OPLS-2005>
141.802001953125

> <r_mmod_Electrostatic_Energy-OPLS-2005>
-543.124816894531

> <r_mmod_Solvation_Energy-OPLS-2005>
-215.769317626953

> <b_mmod_Minimization_Converged-OPLS-2005>
0

> <r_mmod_RMS_Derivative-OPLS-2005>
2.39378476142883

$$$$
66
                    3D
 Structure written by MMmdl.
169177  0  0  1  0            999 V2000
  -29.6439  -16.3586   19.8292 C   0  0  0  0  0  0
  -30.2585  -13.6112   19.4260 C   0  0  0  0  0  0
  -29.5050  -12.7632   18.3243 C   0  0  0  0  0  0
  -28.1482  -12.2655   18.8368 C   0  0  0  0  0  0
  -27.5122  -13.3391   19.7284 C   0  0  2  0  0  0
  -28.4513  -13.9855   20.7719 C   0  0  0  0  0  0
  -25.2067  -13.8280   20.5926 C   0  0  0  0  0  0
  -24.1522  -13.0351   20.9343 C   0  0  0  0  0  0
  -24.6250  -11.6889   20.8811 C   0  0  0  0  0  0
  -23.9060  -10.4228   21.0426 C   0  0  0  0  0  0
  -24.3612   -9.4173   21.9222 C   0  0  0  0  0  0
  -23.6251   -8.2237   22.0794 C   0  0  0  0  0  0
  -22.4285   -8.0240   21.3503 C   0  0  0  0  0  0
  -21.9907   -9.0241   20.4661 C   0  0  0  0  0  0
  -22.7258  -10.2099   20.3044 C   0  0  0  0  0  0
  -21.6890   -6.0759   22.5276 C   0  0  0  0  0  0
  -21.4037   -6.5635   23.8215 C   0  0  0  0  0  0
  -21.3651   -5.6785   24.9172 C   0  0  0  0  0  0
  -21.6058   -4.3041   24.7219 C   0  0  0  0  0  0
  -21.8797   -3.8132   23.4314 C   0  0  0  0  0  0
  -21.9186   -4.6983   22.3390 C   0  0  0  0  0  0
  -22.7535  -13.4990   21.1976 C   0  0  0  0  0  0
  -22.1667   -4.2119   21.1000 F   0  0  0  0  0  0
  -21.5601   -3.4538   25.7757 F   0  0  0  0  0  0
  -29.4273  -14.8285   20.0066 N   0  0  0  0  0  0
  -26.2397  -12.9641   20.3012 N   0  0  0  0  0  0
  -25.9138  -11.6703   20.5631 N   0  0  0  0  0  0
  -22.0266  -12.8036   22.0640 N   0  0  0  0  0  0
  -25.3460  -15.2029   20.4301 N   0  0  0  0  0  0
  -30.9035  -16.3015   19.7829 O   0  0  0  0  0  0
  -21.6604   -6.8865   21.4214 O   0  0  0  0  0  0
  -22.3265  -14.5337   20.6899 O   0  0  0  0  0  0
  -24.7283  -31.6616   22.9946 C   0  0  0  0  0  0
  -25.9761  -32.3639   23.6498 C   0  0  1  0  0  0
  -28.3184  -26.0935   20.8554 C   0  0  0  0  0  0
  -25.5914  -33.7297   24.0440 N   0  0  0  0  0  0
  -23.4055  -30.2271   21.5296 C   0  0  2  0  0  0
  -24.5724  -28.3431   19.7671 C   0  0  0  0  0  0
  -22.7104  -29.4019   22.6025 C   0  0  0  0  0  0
  -18.0032  -28.0856   22.8818 C   0  0  0  0  0  0
  -24.1456  -36.6397   23.2667 C   0  0  0  0  0  0
  -25.7574  -30.1450   20.8686 C   0  0  0  0  0  0
  -25.7878  -28.3501   20.4279 C   0  0  0  0  0  0
  -27.2775  -26.8009   21.1929 C   0  0  0  0  0  0
  -27.0012  -26.4060   20.9509 C   0  0  0  0  0  0
  -25.6269  -27.5031   19.8667 C   0  0  0  0  0  0
  -23.4640  -29.3599   20.2431 C   0  0  0  0  0  0
  -25.4176  -36.2073   24.0112 C   0  0  1  0  0  0
  -20.5534  -28.2706   23.1609 C   0  0  2  0  0  0
  -20.6500  -26.8960   22.4550 C   0  0  0  0  0  0
  -19.5022  -26.6298   21.4768 C   0  0  0  0  0  0
  -18.1569  -26.7461   22.1882 C   0  0  0  0  0  0
  -19.1383  -28.8128   23.3161 C   0  0  0  0  0  0
  -18.9699  -30.0795   23.9083 C   0  0  0  0  0  0
  -17.6872  -30.6344   24.0462 C   0  0  0  0  0  0
  -25.9464  -34.8689   23.4424 C   0  0  0  0  0  0
  -16.5596  -29.9002   23.6239 C   0  0  0  0  0  0
  -16.7112  -28.6153   23.0673 C   0  0  0  0  0  0
  -26.4990  -31.6461   24.9734 C   0  0  0  0  0  0
  -25.3621  -31.3183   25.9815 C   0  0  0  0  0  0
  -27.1235  -30.3373   24.6085 C   0  0  0  0  0  0
  -27.6474  -32.3811   25.7067 C   0  0  0  0  0  0
  -27.5534  -37.1120   24.8442 C   0  0  0  0  0  0
  -21.3883  -29.2554   22.4749 N   0  0  0  0  0  0
  -26.4073  -37.3102   23.9611 N   0  0  0  0  0  0
  -24.7168  -30.7569   21.8906 N   0  0  0  0  0  0
  -23.3461  -28.8174   23.4719 O   0  0  0  0  0  0
  -28.8236  -25.2643   21.7186 O   0  0  0  0  0  0
  -26.6688  -34.8841   22.4454 O   0  0  0  0  0  0
  -23.6709  -32.0194   23.5555 O   0  0  0  0  0  0
  -26.8880  -28.5652   22.3423 C   0  0  0  0  0  0
  -24.9731  -25.5180   20.8005 C   0  0  0  0  0  0
  -25.3207  -27.0129   22.3746 C   0  0  0  0  0  0
  -28.0503  -28.6421   20.3603 C   0  0  0  0  0  0
  -26.3939  -25.3090   19.1477 C   0  0  0  0  0  0
  -30.9925  -27.4967   23.1045 C   0  0  0  0  0  0
  -28.1300  -24.1851   17.9823 C   0  0  0  0  0  0
  -25.6241  -26.3530   23.7643 C   0  0  0  0  0  0
  -29.6629  -28.7771   20.5944 C   0  0  0  0  0  0
  -30.6738  -28.6280   21.9315 C   0  0  0  0  0  0
  -26.6522  -25.0827   23.7242 C   0  0  0  0  0  0
  -28.4306  -19.8150   19.2404 C   0  0  0  0  0  0
  -27.2528  -21.7557   19.2669 C   0  0  0  0  0  0
  -28.1966  -25.0048   23.1060 C   0  0  0  0  0  0
  -27.6261  -27.1146   18.8672 N   0  0  0  0  0  0
  -28.7153  -17.8179   19.6168 N   0  0  0  0  0  0
  -27.1687  -23.6865   18.9905 N   0  0  0  0  0  0
  -31.1930  -13.9282   18.9594 H   0  0  0  0  0  0
  -30.6172  -12.9332   20.1957 H   0  0  0  0  0  0
  -30.0798  -11.8903   18.0077 H   0  0  0  0  0  0
  -29.3368  -13.3460   17.4124 H   0  0  0  0  0  0
  -28.3071  -11.3574   19.4357 H   0  0  0  0  0  0
  -27.4844  -11.9596   18.0221 H   0  0  0  0  0  0
  -27.2668  -14.1241   19.0074 H   0  0  0  0  0  0
  -28.9017  -13.2410   21.4187 H   0  0  0  0  0  0
  -27.9096  -14.6698   21.4104 H   0  0  0  0  0  0
  -25.2746   -9.5660   22.4836 H   0  0  0  0  0  0
  -23.9971   -7.4588   22.7495 H   0  0  0  0  0  0
  -21.0857   -8.8677   19.8934 H   0  0  0  0  0  0
  -22.3675  -10.9598   19.6130 H   0  0  0  0  0  0
  -21.2092   -7.6142   23.9697 H   0  0  0  0  0  0
  -21.1494   -6.0546   25.9077 H   0  0  0  0  0  0
  -22.0601   -2.7573   23.2849 H   0  0  0  0  0  0
  -22.3971  -11.9692   22.4946 H   0  0  0  0  0  0
  -21.0830  -13.0958   22.2844 H   0  0  0  0  0  0
  -24.5673  -15.8288   20.6169 H   0  0  0  0  0  0
  -26.1888  -15.6652   20.1182 H   0  0  0  0  0  0
  -26.7562  -32.4079   22.9055 H   0  0  0  0  0  0
  -24.8416  -33.7379   24.7059 H   0  0  0  0  0  0
  -22.7371  -31.0529   21.3230 H   0  0  0  0  0  0
  -23.3950  -35.8487   23.3071 H   0  0  0  0  0  0
  -24.3521  -36.8602   22.2196 H   0  0  0  0  0  0
  -23.7114  -37.5148   23.7368 H   0  0  0  0  0  0
  -25.7350  -30.6890   19.8914 H   0  0  0  0  0  0
  -26.6901  -30.5738   21.2327 H   0  0  0  0  0  0
  -28.2692  -27.0962   22.0540 H   0  0  0  0  0  0
  -26.8772  -25.0339   21.1950 H   0  0  0  0  0  0
  -25.2862  -27.0639   18.8749 H   0  0  0  0  0  0
  -23.3016  -29.9938   19.3767 H   0  0  0  0  0  0
  -22.5264  -28.7890   20.2184 H   0  0  0  0  0  0
  -25.1652  -36.0234   25.0564 H   0  0  0  0  0  0
  -20.9245  -28.1461   24.1849 H   0  0  0  0  0  0
  -20.6093  -26.1139   23.2104 H   0  0  0  0  0  0
  -21.5982  -26.7350   21.9414 H   0  0  0  0  0  0
  -19.6150  -25.6534   21.0087 H   0  0  0  0  0  0
  -19.5023  -27.3254   20.6411 H   0  0  0  0  0  0
  -17.3394  -26.5915   21.4868 H   0  0  0  0  0  0
  -18.0958  -25.9459   22.9227 H   0  0  0  0  0  0
  -19.8366  -30.6254   24.2554 H   0  0  0  0  0  0
  -17.5808  -31.6173   24.4972 H   0  0  0  0  0  0
  -15.5710  -30.3212   23.7610 H   0  0  0  0  0  0
  -15.8285  -28.0526   22.7812 H   0  0  0  0  0  0
  -24.6703  -30.5759   25.5855 H   0  0  0  0  0  0
  -24.7862  -32.2053   26.2094 H   0  0  0  0  0  0
  -25.7305  -30.8664   26.9021 H   0  0  0  0  0  0
  -27.7083  -30.4713   23.6823 H   0  0  0  0  0  0
  -26.3234  -29.5799   24.6585 H   0  0  0  0  0  0
  -27.8990  -30.0324   25.3163 H   0  0  0  0  0  0
  -27.2807  -33.1992   26.3097 H   0  0  0  0  0  0
  -28.4053  -32.7375   25.0059 H   0  0  0  0  0  0
  -28.1683  -31.7009   26.4048 H   0  0  0  0  0  0
  -28.2226  -37.9686   24.7921 H   0  0  0  0  0  0
  -28.1300  -36.2230   24.5790 H   0  0  0  0  0  0
  -27.2254  -37.0150   25.8767 H   0  0  0  0  0  0
  -20.9295  -29.8796   21.8371 H   0  0  0  0  0  0
  -25.9658  -38.1902   24.1897 H   0  0  0  0  0  0
  -27.6023  -28.4580   23.2071 H   0  0  0  0  0  0
  -24.5397  -24.5711   21.0874 H   0  0  0  0  0  0
  -31.9665  -27.6529   23.6243 H   0  0  0  0  0  0
  -31.1006  -26.4131   22.8640 H   0  0  0  0  0  0
  -30.3324  -27.5433   23.9931 H   0  0  0  0  0  0
  -27.6006  -24.3281   17.0485 H   0  0  0  0  0  0
  -29.0455  -23.6292   17.7861 H   0  0  0  0  0  0
  -28.4470  -25.1865   18.2163 H   0  0  0  0  0  0
  -24.6915  -26.1205   24.3284 H   0  0  0  0  0  0
  -26.0361  -27.1391   24.4267 H   0  0  0  0  0  0
  -29.9989  -29.6746   20.0907 H   0  0  0  0  0  0
  -30.0459  -28.0431   19.9070 H   0  0  0  0  0  0
  -31.7046  -28.8674   21.6110 H   0  0  0  0  0  0
  -30.5716  -29.5837   22.4337 H   0  0  0  0  0  0
  -26.0419  -24.3207   23.2287 H   0  0  0  0  0  0
  -26.6688  -24.6037   24.7382 H   0  0  0  0  0  0
  -29.3149  -20.2141   18.7952 H   0  0  0  0  0  0
  -27.9623  -19.4634   18.3263 H   0  0  0  0  0  0
  -26.6282  -21.6620   20.1642 H   0  0  0  0  0  0
  -26.5963  -21.5006   18.4342 H   0  0  0  0  0  0
  -28.3541  -23.9209   23.1047 H   0  0  0  0  0  0
  -28.8963  -25.3070   23.8865 H   0  0  0  0  0  0
  -27.7538  -17.4456   19.6299 H   0  0  0  0  0  0
  1 25  1  0  0  0
  1 30  2  0  0  0
  1 86  1  0  0  0
  2  3  1  0  0  0
  2 25  1  0  0  0
  2 88  1  0  0  0
  2 89  1  0  0  0
  3  4  1  0  0  0
  3 90  1  0  0  0
  3 91  1  0  0  0
  4  5  1  0  0  0
  4 92  1  0  0  0
  4 93  1  0  0  0
  5  6  1  0  0  0
  5 26  1  0  0  0
  5 94  1  0  0  0
  6 25  1  0  0  0
  6 95  1  0  0  0
  6 96  1  0  0  0
  7  8  2  0  0  0
  7 26  1  0  0  0
  7 29  1  0  0  0
  8  9  1  0  0  0
  8 22  1  0  0  0
  9 10  1  0  0  0
  9 27  2  0  0  0
 10 11  2  0  0  0
 10 15  1  0  0  0
 11 12  1  0  0  0
 11 97  1  0  0  0
 12 13  2  0  0  0
 12 98  1  0  0  0
 13 14  1  0  0  0
 13 31  1  0  0  0
 14 15  2  0  0  0
 14 99  1  0  0  0
 15100  1  0  0  0
 16 17  2  0  0  0
 16 21  1  0  0  0
 16 31  1  0  0  0
 17 18  1  0  0  0
 17101  1  0  0  0
 18 19  2  0  0  0
 18102  1  0  0  0
 19 20  1  0  0  0
 19 24  1  0  0  0
 20 21  2  0  0  0
 20103  1  0  0  0
 21 23  1  0  0  0
 22 28  1  0  0  0
 22 32  2  0  0  0
 26 27  1  0  0  0
 28104  1  0  0  0
 28105  1  0  0  0
 29106  1  0  0  0
 29107  1  0  0  0
 33 34  1  0  0  0
 33 66  1  0  0  0
 33 70  2  0  0  0
 34 36  1  0  0  0
 34 59  1  0  0  0
 34108  1  0  0  0
 35 44  2  0  0  0
 35 45  1  0  0  0
 35 68  1  0  0  0
 36 56  1  0  0  0
 36109  1  0  0  0
 37 39  1  0  0  0
 37 47  1  0  0  0
 37 66  1  0  0  0
 37110  1  0  0  0
 38 43  2  0  0  0
 38 46  1  0  0  0
 38 47  1  0  0  0
 39 64  1  0  0  0
 39 67  2  0  0  0
 40 52  1  0  0  0
 40 53  2  0  0  0
 40 58  1  0  0  0
 41111  1  0  0  0
 41112  1  0  0  0
 41113  1  0  0  0
 41 48  1  0  0  0
 42 43  1  0  0  0
 42 66  1  0  0  0
 42114  1  0  0  0
 42115  1  0  0  0
 43 44  1  0  0  0
 44116  1  0  0  0
 45 46  2  0  0  0
 45117  1  0  0  0
 46118  1  0  0  0
 47119  1  0  0  0
 47120  1  0  0  0
 48 56  1  0  0  0
 48 65  1  0  0  0
 48121  1  0  0  0
 49 50  1  0  0  0
 49 53  1  0  0  0
 49 64  1  0  0  0
 49122  1  0  0  0
 50 51  1  0  0  0
 50123  1  0  0  0
 50124  1  0  0  0
 51 52  1  0  0  0
 51125  1  0  0  0
 51126  1  0  0  0
 52127  1  0  0  0
 52128  1  0  0  0
 53 54  1  0  0  0
 54 55  2  0  0  0
 54129  1  0  0  0
 55 57  1  0  0  0
 55130  1  0  0  0
 56 69  2  0  0  0
 57 58  2  0  0  0
 57131  1  0  0  0
 58132  1  0  0  0
 59 60  1  0  0  0
 59 61  1  0  0  0
 59 62  1  0  0  0
 60133  1  0  0  0
 60134  1  0  0  0
 60135  1  0  0  0
 61136  1  0  0  0
 61137  1  0  0  0
 61138  1  0  0  0
 62139  1  0  0  0
 62140  1  0  0  0
 62141  1  0  0  0
 63 65  1  0  0  0
 63142  1  0  0  0
 63143  1  0  0  0
 63144  1  0  0  0
 64145  1  0  0  0
 65146  1  0  0  0
 68 84  1  0  0  0
 71 73  2  0  0  0
 71 74  1  0  0  0
 71147  1  0  0  0
 72 73  1  0  0  0
 72 75  2  0  0  0
 72148  1  0  0  0
 73 78  1  0  0  0
 74 79  1  0  0  0
 74 85  2  0  0  0
 75 85  1  0  0  0
 75 87  1  0  0  0
 76 80  1  0  0  0
 76149  1  0  0  0
 76150  1  0  0  0
 76151  1  0  0  0
 77 87  1  0  0  0
 77152  1  0  0  0
 77153  1  0  0  0
 77154  1  0  0  0
 78 81  1  0  0  0
 78155  1  0  0  0
 78156  1  0  0  0
 79 80  1  0  0  0
 79157  1  0  0  0
 79158  1  0  0  0
 80159  1  0  0  0
 80160  1  0  0  0
 81 84  1  0  0  0
 81161  1  0  0  0
 81162  1  0  0  0
 82 83  1  0  0  0
 82 86  1  0  0  0
 82163  1  0  0  0
 82164  1  0  0  0
 83 87  1  0  0  0
 83165  1  0  0  0
 83166  1  0  0  0
 84167  1  0  0  0
 84168  1  0  0  0
 86169  1  0  0  0
M  ISO  4   1 100  68 101  84 101  86 100
M  END
> <chiral flag>
0

> <version>
0

> <s_m_source_file>
/data/baiqing/PycharmProjects/Reinvent-master-3.2/result/LINK_invent/BTK/process_docking_weight1_custom_sum_contain_oxygen_bond_distance_aromatic_linkinvent_7_9_3/rearranged_h_0090.sdf

> <i_m_source_file_index>
66

> <r_mmod_Potential_Energy-OPLS-2005>
25587.58203125

> <r_mmod_Stretch_Energy-OPLS-2005>
13686.9677734375

> <r_mmod_Bend_Energy-OPLS-2005>
3177.7255859375

> <r_mmod_Torsional_Energy-OPLS-2005>
766.764953613281

> <r_mmod_Improper_Torsional_Energy-OPLS-2005>
88.7162628173828

> <r_mmod_Van_der_Waal_Energy-OPLS-2005>
4963.5419921875

> <r_mmod_Electrostatic_Energy-OPLS-2005>
-516.073608398438

> <r_mmod_Solvation_Energy-OPLS-2005>
-246.852035522461

> <b_mmod_Minimization_Converged-OPLS-2005>
0

> <r_mmod_RMS_Derivative-OPLS-2005>
73.671012878418

$$$$
67
                    3D
 Structure written by MMmdl.
184192  0  0  1  0            999 V2000
  -30.7092  -14.6407   20.3502 C   0  0  0  0  0  0
  -30.4140  -12.3778   19.4312 C   0  0  0  0  0  0
  -29.4802  -12.4339   18.2084 C   0  0  0  0  0  0
  -28.0087  -12.3022   18.6483 C   0  0  0  0  0  0
  -27.6363  -13.2266   19.8405 C   0  0  2  0  0  0
  -28.7053  -13.1962   20.9576 C   0  0  0  0  0  0
  -25.2555  -13.8151   20.5818 C   0  0  0  0  0  0
  -24.1816  -13.0425   20.9257 C   0  0  0  0  0  0
  -24.6384  -11.6878   20.8888 C   0  0  0  0  0  0
  -23.9068  -10.4231   21.0486 C   0  0  0  0  0  0
  -24.3605   -9.4101   21.9217 C   0  0  0  0  0  0
  -23.6237   -8.2154   22.0742 C   0  0  0  0  0  0
  -22.4221   -8.0247   21.3522 C   0  0  0  0  0  0
  -21.9898   -9.0244   20.4648 C   0  0  0  0  0  0
  -22.7247  -10.2109   20.3098 C   0  0  0  0  0  0
  -21.6810   -6.0719   22.5276 C   0  0  0  0  0  0
  -21.4006   -6.5653   23.8207 C   0  0  0  0  0  0
  -21.3662   -5.6816   24.9192 C   0  0  0  0  0  0
  -21.6044   -4.3065   24.7232 C   0  0  0  0  0  0
  -21.8791   -3.8131   23.4360 C   0  0  0  0  0  0
  -21.9160   -4.6940   22.3427 C   0  0  0  0  0  0
  -22.7818  -13.5191   21.1927 C   0  0  0  0  0  0
  -22.1646   -4.2141   21.0992 F   0  0  0  0  0  0
  -21.5633   -3.4561   25.7745 F   0  0  0  0  0  0
  -29.9981  -13.4764   20.3199 N   0  0  0  0  0  0
  -26.2958  -12.9354   20.3388 N   0  0  0  0  0  0
  -25.9361  -11.6498   20.5981 N   0  0  0  0  0  0
  -22.0471  -12.8165   22.0427 N   0  0  0  0  0  0
  -25.4352  -15.1869   20.4256 N   0  0  0  0  0  0
  -31.9386  -14.6194   20.2628 O   0  0  0  0  0  0
  -21.6577   -6.8861   21.4214 O   0  0  0  0  0  0
  -22.3507  -14.5515   20.6796 O   0  0  0  0  0  0
  -24.6138  -31.8723   23.2110 C   0  0  0  0  0  0
  -25.9028  -32.4833   23.8451 C   0  0  1  0  0  0
  -27.2505  -27.4085   20.0732 C   0  0  0  0  0  0
  -25.5893  -33.8654   24.2402 N   0  0  0  0  0  0
  -23.4090  -30.4905   21.5467 C   0  0  2  0  0  0
  -24.8632  -28.9575   20.1110 C   0  0  0  0  0  0
  -22.7455  -29.4640   22.4933 C   0  0  0  0  0  0
  -18.0291  -28.1349   22.8513 C   0  0  0  0  0  0
  -24.1462  -36.7311   23.2641 C   0  0  0  0  0  0
  -25.9414  -30.8201   21.3734 C   0  0  0  0  0  0
  -26.0249  -29.4530   20.7179 C   0  0  0  0  0  0
  -27.2176  -28.6812   20.7008 C   0  0  0  0  0  0
  -26.0604  -26.9323   19.4842 C   0  0  0  0  0  0
  -24.8782  -27.6980   19.4969 C   0  0  0  0  0  0
  -23.6307  -29.8329   20.1586 C   0  0  0  0  0  0
  -25.4068  -36.3100   24.0370 C   0  0  1  0  0  0
  -20.5888  -28.3675   23.1344 C   0  0  2  0  0  0
  -20.6766  -26.9393   22.5449 C   0  0  0  0  0  0
  -19.5721  -26.6366   21.5253 C   0  0  0  0  0  0
  -18.1908  -26.7905   22.1673 C   0  0  0  0  0  0
  -19.1547  -28.8836   23.2952 C   0  0  0  0  0  0
  -18.9435  -30.1426   23.8957 C   0  0  0  0  0  0
  -17.6425  -30.6569   24.0563 C   0  0  0  0  0  0
  -25.9026  -34.9464   23.5218 C   0  0  0  0  0  0
  -16.5344  -29.9039   23.6269 C   0  0  0  0  0  0
  -16.7295  -28.6472   23.0326 C   0  0  0  0  0  0
  -26.4397  -31.6556   25.0764 C   0  0  0  0  0  0
  -25.3624  -31.3691   26.1491 C   0  0  0  0  0  0
  -27.0216  -30.2998   24.6135 C   0  0  0  0  0  0
  -27.6046  -32.4174   25.7463 C   0  0  0  0  0  0
  -27.5566  -37.1794   24.8466 C   0  0  0  0  0  0
  -21.4191  -29.3067   22.3766 N   0  0  0  0  0  0
  -26.4238  -37.3806   23.9442 N   0  0  0  0  0  0
  -24.6698  -31.0814   22.1013 N   0  0  0  0  0  0
  -23.4219  -28.8158   23.2964 O   0  0  0  0  0  0
  -28.4280  -26.6657   20.0888 O   0  0  0  0  0  0
  -26.5657  -34.8912   22.4787 O   0  0  0  0  0  0
  -23.5343  -32.1482   23.7544 O   0  0  0  0  0  0
  -29.3593  -21.4405   22.6065 C   0  0  0  0  0  0
  -29.6602  -20.5250   23.6369 C   0  0  0  0  0  0
  -29.2295  -20.7894   21.4232 C   0  0  0  0  0  0
  -29.6886  -19.2762   23.0704 C   0  0  0  0  0  0
  -29.8744  -17.9827   23.8274 C   0  0  0  0  0  0
  -29.9289  -17.6082   16.4739 C   0  0  0  0  0  0
  -31.3093  -24.2884   26.4482 C   0  0  0  0  0  0
  -28.9719  -23.3948   26.6912 C   0  0  0  0  0  0
  -29.8044  -20.9203   25.0888 C   0  0  0  0  0  0
  -28.8297  -21.4782   20.1145 C   0  0  0  0  0  0
  -29.4882  -16.6981   17.6480 C   0  0  0  0  0  0
  -30.7713  -22.1024   25.3329 C   0  0  0  0  0  0
  -29.2583  -23.0002   19.9471 C   0  0  0  0  0  0
  -28.1460  -24.1034   19.7585 C   0  0  0  0  0  0
  -29.4848  -18.3584   20.6261 C   0  0  0  0  0  0
  -30.5914  -16.4244   18.6953 C   0  0  0  0  0  0
  -29.7781  -16.8267   21.0147 C   0  0  0  0  0  0
  -28.5866  -25.5122   19.2207 C   0  0  0  0  0  0
  -30.4557  -23.0162   26.5483 C   0  0  0  0  0  0
  -29.4592  -19.4098   21.6821 N   0  0  0  0  0  0
  -30.0788  -15.8065   19.9556 N   0  0  0  0  0  0
  -31.4621  -12.4476   19.1164 H   0  0  0  0  0  0
  -30.3117  -11.4212   19.9483 H   0  0  0  0  0  0
  -29.7131  -11.6229   17.5180 H   0  0  0  0  0  0
  -29.6252  -13.3661   17.6620 H   0  0  0  0  0  0
  -27.8592  -11.2561   18.9254 H   0  0  0  0  0  0
  -27.3390  -12.4965   17.8066 H   0  0  0  0  0  0
  -27.6179  -14.2366   19.4268 H   0  0  0  0  0  0
  -28.7350  -12.2291   21.4678 H   0  0  0  0  0  0
  -28.4770  -13.9440   21.7172 H   0  0  0  0  0  0
  -25.2781   -9.5517   22.4736 H   0  0  0  0  0  0
  -23.9937   -7.4529   22.7474 H   0  0  0  0  0  0
  -21.0815   -8.8763   19.8967 H   0  0  0  0  0  0
  -22.3733  -10.9652   19.6181 H   0  0  0  0  0  0
  -21.1993   -7.6155   23.9720 H   0  0  0  0  0  0
  -21.1566   -6.0565   25.9111 H   0  0  0  0  0  0
  -22.0565   -2.7598   23.2891 H   0  0  0  0  0  0
  -22.4181  -11.9802   22.4742 H   0  0  0  0  0  0
  -21.1121  -13.1188   22.2774 H   0  0  0  0  0  0
  -24.6802  -15.8535   20.5424 H   0  0  0  0  0  0
  -26.3017  -15.6183   20.1318 H   0  0  0  0  0  0
  -26.7142  -32.5455   23.1258 H   0  0  0  0  0  0
  -25.0005  -33.9820   25.0534 H   0  0  0  0  0  0
  -22.6977  -31.3052   21.4109 H   0  0  0  0  0  0
  -23.3722  -35.9641   23.3294 H   0  0  0  0  0  0
  -24.3591  -36.8893   22.2050 H   0  0  0  0  0  0
  -23.7214  -37.6536   23.6656 H   0  0  0  0  0  0
  -26.0692  -31.5835   20.6058 H   0  0  0  0  0  0
  -26.8252  -30.8770   21.9997 H   0  0  0  0  0  0
  -28.1061  -29.0583   21.1888 H   0  0  0  0  0  0
  -26.0110  -25.9655   19.0068 H   0  0  0  0  0  0
  -23.9887  -27.3070   19.0271 H   0  0  0  0  0  0
  -23.7703  -30.6141   19.4097 H   0  0  0  0  0  0
  -22.7467  -29.2718   19.8439 H   0  0  0  0  0  0
  -25.1233  -36.1982   25.0871 H   0  0  0  0  0  0
  -21.0038  -28.3200   24.1456 H   0  0  0  0  0  0
  -20.5654  -26.2261   23.3656 H   0  0  0  0  0  0
  -21.6593  -26.7365   22.1220 H   0  0  0  0  0  0
  -19.6837  -25.6283   21.1227 H   0  0  0  0  0  0
  -19.6613  -27.3204   20.6801 H   0  0  0  0  0  0
  -17.4192  -26.6718   21.4072 H   0  0  0  0  0  0
  -18.0257  -26.0051   22.9055 H   0  0  0  0  0  0
  -19.7885  -30.7236   24.2366 H   0  0  0  0  0  0
  -17.4958  -31.6236   24.5147 H   0  0  0  0  0  0
  -15.5325  -30.2957   23.7538 H   0  0  0  0  0  0
  -15.8708  -28.0780   22.6990 H   0  0  0  0  0  0
  -24.5857  -30.6960   25.7822 H   0  0  0  0  0  0
  -24.8744  -32.2866   26.4796 H   0  0  0  0  0  0
  -25.7903  -30.8979   27.0351 H   0  0  0  0  0  0
  -26.2789  -29.6846   24.1060 H   0  0  0  0  0  0
  -27.3893  -29.7148   25.4587 H   0  0  0  0  0  0
  -27.8625  -30.4351   23.9330 H   0  0  0  0  0  0
  -27.2766  -33.3460   26.2138 H   0  0  0  0  0  0
  -28.3778  -32.6720   25.0192 H   0  0  0  0  0  0
  -28.0825  -31.8236   26.5275 H   0  0  0  0  0  0
  -28.2602  -38.0097   24.7567 H   0  0  0  0  0  0
  -28.1052  -36.2643   24.6181 H   0  0  0  0  0  0
  -27.2347  -37.1309   25.8891 H   0  0  0  0  0  0
  -20.9343  -29.8880   21.7052 H   0  0  0  0  0  0
  -26.0161  -38.2905   24.1398 H   0  0  0  0  0  0
  -29.2075  -22.5034   22.7351 H   0  0  0  0  0  0
  -29.6680  -18.1315   24.8837 H   0  0  0  0  0  0
  -30.8973  -17.5896   23.7926 H   0  0  0  0  0  0
  -29.1691  -17.2179   23.5238 H   0  0  0  0  0  0
  -29.1208  -17.7241   15.7503 H   0  0  0  0  0  0
  -30.7774  -17.2029   15.9152 H   0  0  0  0  0  0
  -30.2063  -18.6131   16.8051 H   0  0  0  0  0  0
  -31.1752  -24.9480   27.3069 H   0  0  0  0  0  0
  -31.0476  -24.8562   25.5536 H   0  0  0  0  0  0
  -32.3685  -24.0420   26.3826 H   0  0  0  0  0  0
  -28.8432  -24.2821   27.3112 H   0  0  0  0  0  0
  -28.4109  -22.5958   27.1761 H   0  0  0  0  0  0
  -28.5096  -23.5977   25.7273 H   0  0  0  0  0  0
  -30.1129  -20.0742   25.6923 H   0  0  0  0  0  0
  -28.7874  -21.1591   25.3949 H   0  0  0  0  0  0
  -27.7457  -21.4352   20.0463 H   0  0  0  0  0  0
  -29.1861  -20.8982   19.2577 H   0  0  0  0  0  0
  -28.5888  -17.1133   18.1127 H   0  0  0  0  0  0
  -29.1759  -15.7368   17.2393 H   0  0  0  0  0  0
  -30.8106  -22.7482   24.4542 H   0  0  0  0  0  0
  -31.7835  -21.7013   25.4251 H   0  0  0  0  0  0
  -29.9105  -23.0547   19.0767 H   0  0  0  0  0  0
  -29.8968  -23.3032   20.7744 H   0  0  0  0  0  0
  -27.4412  -23.7281   19.0214 H   0  0  0  0  0  0
  -27.5742  -24.2336   20.6783 H   0  0  0  0  0  0
  -28.5618  -18.4456   20.0454 H   0  0  0  0  0  0
  -30.2678  -18.7550   19.9870 H   0  0  0  0  0  0
  -31.1936  -17.3049   18.9030 H   0  0  0  0  0  0
  -31.3448  -15.8053   18.2045 H   0  0  0  0  0  0
  -28.9247  -16.4184   21.5559 H   0  0  0  0  0  0
  -30.6435  -16.7944   21.6781 H   0  0  0  0  0  0
  -28.0884  -25.7248   18.2733 H   0  0  0  0  0  0
  -29.6343  -25.4710   18.9336 H   0  0  0  0  0  0
  -30.7297  -22.4993   27.4682 H   0  0  0  0  0  0
  1 25  1  0  0  0
  1 30  2  0  0  0
  1 91  1  0  0  0
  2  3  1  0  0  0
  2 25  1  0  0  0
  2 92  1  0  0  0
  2 93  1  0  0  0
  3  4  1  0  0  0
  3 94  1  0  0  0
  3 95  1  0  0  0
  4  5  1  0  0  0
  4 96  1  0  0  0
  4 97  1  0  0  0
  5  6  1  0  0  0
  5 26  1  0  0  0
  5 98  1  0  0  0
  6 25  1  0  0  0
  6 99  1  0  0  0
  6100  1  0  0  0
  7  8  2  0  0  0
  7 26  1  0  0  0
  7 29  1  0  0  0
  8  9  1  0  0  0
  8 22  1  0  0  0
  9 10  1  0  0  0
  9 27  2  0  0  0
 10 11  2  0  0  0
 10 15  1  0  0  0
 11 12  1  0  0  0
 11101  1  0  0  0
 12 13  2  0  0  0
 12102  1  0  0  0
 13 14  1  0  0  0
 13 31  1  0  0  0
 14 15  2  0  0  0
 14103  1  0  0  0
 15104  1  0  0  0
 16 17  2  0  0  0
 16 21  1  0  0  0
 16 31  1  0  0  0
 17 18  1  0  0  0
 17105  1  0  0  0
 18 19  2  0  0  0
 18106  1  0  0  0
 19 20  1  0  0  0
 19 24  1  0  0  0
 20 21  2  0  0  0
 20107  1  0  0  0
 21 23  1  0  0  0
 22 28  1  0  0  0
 22 32  2  0  0  0
 26 27  1  0  0  0
 28108  1  0  0  0
 28109  1  0  0  0
 29110  1  0  0  0
 29111  1  0  0  0
 33 34  1  0  0  0
 33 66  1  0  0  0
 33 70  2  0  0  0
 34 36  1  0  0  0
 34 59  1  0  0  0
 34112  1  0  0  0
 35 44  2  0  0  0
 35 45  1  0  0  0
 35 68  1  0  0  0
 36 56  1  0  0  0
 36113  1  0  0  0
 37 39  1  0  0  0
 37 47  1  0  0  0
 37 66  1  0  0  0
 37114  1  0  0  0
 38 43  2  0  0  0
 38 46  1  0  0  0
 38 47  1  0  0  0
 39 64  1  0  0  0
 39 67  2  0  0  0
 40 52  1  0  0  0
 40 53  2  0  0  0
 40 58  1  0  0  0
 41115  1  0  0  0
 41116  1  0  0  0
 41117  1  0  0  0
 41 48  1  0  0  0
 42 43  1  0  0  0
 42 66  1  0  0  0
 42118  1  0  0  0
 42119  1  0  0  0
 43 44  1  0  0  0
 44120  1  0  0  0
 45 46  2  0  0  0
 45121  1  0  0  0
 46122  1  0  0  0
 47123  1  0  0  0
 47124  1  0  0  0
 48 56  1  0  0  0
 48 65  1  0  0  0
 48125  1  0  0  0
 49 50  1  0  0  0
 49 53  1  0  0  0
 49 64  1  0  0  0
 49126  1  0  0  0
 50 51  1  0  0  0
 50127  1  0  0  0
 50128  1  0  0  0
 51 52  1  0  0  0
 51129  1  0  0  0
 51130  1  0  0  0
 52131  1  0  0  0
 52132  1  0  0  0
 53 54  1  0  0  0
 54 55  2  0  0  0
 54133  1  0  0  0
 55 57  1  0  0  0
 55134  1  0  0  0
 56 69  2  0  0  0
 57 58  2  0  0  0
 57135  1  0  0  0
 58136  1  0  0  0
 59 60  1  0  0  0
 59 61  1  0  0  0
 59 62  1  0  0  0
 60137  1  0  0  0
 60138  1  0  0  0
 60139  1  0  0  0
 61140  1  0  0  0
 61141  1  0  0  0
 61142  1  0  0  0
 62143  1  0  0  0
 62144  1  0  0  0
 62145  1  0  0  0
 63 65  1  0  0  0
 63146  1  0  0  0
 63147  1  0  0  0
 63148  1  0  0  0
 64149  1  0  0  0
 65150  1  0  0  0
 68 88  1  0  0  0
 71 72  1  0  0  0
 71 73  2  0  0  0
 71151  1  0  0  0
 72 74  2  0  0  0
 72 79  1  0  0  0
 73 80  1  0  0  0
 73 90  1  0  0  0
 74 75  1  0  0  0
 74 90  1  0  0  0
 75152  1  0  0  0
 75153  1  0  0  0
 75154  1  0  0  0
 76 81  1  0  0  0
 76155  1  0  0  0
 76156  1  0  0  0
 76157  1  0  0  0
 77158  1  0  0  0
 77159  1  0  0  0
 77160  1  0  0  0
 77 89  1  0  0  0
 78 89  1  0  0  0
 78161  1  0  0  0
 78162  1  0  0  0
 78163  1  0  0  0
 79 82  1  0  0  0
 79164  1  0  0  0
 79165  1  0  0  0
 80 83  1  0  0  0
 80166  1  0  0  0
 80167  1  0  0  0
 81 86  1  0  0  0
 81168  1  0  0  0
 81169  1  0  0  0
 82 89  1  0  0  0
 82170  1  0  0  0
 82171  1  0  0  0
 83 84  1  0  0  0
 83172  1  0  0  0
 83173  1  0  0  0
 84 88  1  0  0  0
 84174  1  0  0  0
 84175  1  0  0  0
 85 87  1  0  0  0
 85 90  1  0  0  0
 85176  1  0  0  0
 85177  1  0  0  0
 86 91  1  0  0  0
 86178  1  0  0  0
 86179  1  0  0  0
 87 91  1  0  0  0
 87180  1  0  0  0
 87181  1  0  0  0
 88182  1  0  0  0
 88183  1  0  0  0
 89184  1  0  0  0
M  ISO  4   1 100  68 101  88 101  91 100
M  END
> <chiral flag>
0

> <version>
0

> <s_m_source_file>
/data/baiqing/PycharmProjects/Reinvent-master-3.2/result/LINK_invent/BTK/process_docking_weight1_custom_sum_contain_oxygen_bond_distance_aromatic_linkinvent_7_9_3/rearranged_h_0090.sdf

> <i_m_source_file_index>
67

> <r_mmod_Potential_Energy-OPLS-2005>
316.475067138672

> <r_mmod_Stretch_Energy-OPLS-2005>
76.5583648681641

> <r_mmod_Bend_Energy-OPLS-2005>
186.815414428711

> <r_mmod_Torsional_Energy-OPLS-2005>
354.368072509766

> <r_mmod_Improper_Torsional_Energy-OPLS-2005>
20.4782848358154

> <r_mmod_Van_der_Waal_Energy-OPLS-2005>
137.004821777344

> <r_mmod_Electrostatic_Energy-OPLS-2005>
-326.157043457031

> <r_mmod_Solvation_Energy-OPLS-2005>
-187.951919555664

> <b_mmod_Minimization_Converged-OPLS-2005>
0

> <r_mmod_RMS_Derivative-OPLS-2005>
10.4578161239624

$$$$
68
                    3D
 Structure written by MMmdl.
179187  0  0  1  0            999 V2000
  -30.5992  -14.7383   20.4418 C   0  0  0  0  0  0
  -30.4313  -12.4499   19.4626 C   0  0  0  0  0  0
  -29.5019  -12.4935   18.2289 C   0  0  0  0  0  0
  -28.0291  -12.3218   18.6500 C   0  0  0  0  0  0
  -27.6376  -13.2291   19.8463 C   0  0  2  0  0  0
  -28.6853  -13.1639   20.9776 C   0  0  0  0  0  0
  -25.2481  -13.8192   20.5681 C   0  0  0  0  0  0
  -24.1783  -13.0443   20.9244 C   0  0  0  0  0  0
  -24.6378  -11.6933   20.8772 C   0  0  0  0  0  0
  -23.9055  -10.4307   21.0425 C   0  0  0  0  0  0
  -24.3610   -9.4221   21.9197 C   0  0  0  0  0  0
  -23.6298   -8.2244   22.0755 C   0  0  0  0  0  0
  -22.4277   -8.0272   21.3551 C   0  0  0  0  0  0
  -21.9914   -9.0245   20.4650 C   0  0  0  0  0  0
  -22.7231  -10.2137   20.3071 C   0  0  0  0  0  0
  -21.6849   -6.0730   22.5291 C   0  0  0  0  0  0
  -21.4001   -6.5641   23.8218 C   0  0  0  0  0  0
  -21.3658   -5.6801   24.9186 C   0  0  0  0  0  0
  -21.6050   -4.3061   24.7245 C   0  0  0  0  0  0
  -21.8814   -3.8152   23.4365 C   0  0  0  0  0  0
  -21.9193   -4.6962   22.3419 C   0  0  0  0  0  0
  -22.7815  -13.5227   21.1934 C   0  0  0  0  0  0
  -22.1667   -4.2147   21.0993 F   0  0  0  0  0  0
  -21.5632   -3.4546   25.7757 F   0  0  0  0  0  0
  -29.9827  -13.5122   20.3880 N   0  0  0  0  0  0
  -26.2909  -12.9404   20.3288 N   0  0  0  0  0  0
  -25.9305  -11.6551   20.5765 N   0  0  0  0  0  0
  -22.0475  -12.8190   22.0478 N   0  0  0  0  0  0
  -25.4160  -15.1911   20.4055 N   0  0  0  0  0  0
  -31.7976  -14.8414   20.1720 O   0  0  0  0  0  0
  -21.6645   -6.8867   21.4245 O   0  0  0  0  0  0
  -22.3497  -14.5535   20.6792 O   0  0  0  0  0  0
  -24.6330  -31.8546   23.2003 C   0  0  0  0  0  0
  -25.9150  -32.4749   23.8357 C   0  0  1  0  0  0
  -27.2066  -27.2606   20.1059 C   0  0  0  0  0  0
  -25.5942  -33.8548   24.2277 N   0  0  0  0  0  0
  -23.4289  -30.4796   21.5481 C   0  0  2  0  0  0
  -24.8713  -28.9353   20.1048 C   0  0  0  0  0  0
  -22.7523  -29.4582   22.4936 C   0  0  0  0  0  0
  -18.0298  -28.1361   22.8458 C   0  0  0  0  0  0
  -24.1494  -36.7297   23.2632 C   0  0  0  0  0  0
  -25.9773  -30.7640   21.3828 C   0  0  0  0  0  0
  -26.0448  -29.3897   20.7183 C   0  0  0  0  0  0
  -27.2186  -28.5643   20.7088 C   0  0  0  0  0  0
  -26.0093  -26.8830   19.4572 C   0  0  0  0  0  0
  -24.8583  -27.6906   19.4626 C   0  0  0  0  0  0
  -23.6433  -29.8222   20.1602 C   0  0  0  0  0  0
  -25.4116  -36.3068   24.0313 C   0  0  1  0  0  0
  -20.5911  -28.3668   23.1261 C   0  0  2  0  0  0
  -20.6786  -26.9382   22.5400 C   0  0  0  0  0  0
  -19.5763  -26.6364   21.5196 C   0  0  0  0  0  0
  -18.1943  -26.7909   22.1596 C   0  0  0  0  0  0
  -19.1555  -28.8831   23.2846 C   0  0  0  0  0  0
  -18.9467  -30.1442   23.8845 C   0  0  0  0  0  0
  -17.6460  -30.6559   24.0548 C   0  0  0  0  0  0
  -25.9054  -34.9427   23.5104 C   0  0  0  0  0  0
  -16.5355  -29.9051   23.6313 C   0  0  0  0  0  0
  -16.7283  -28.6481   23.0310 C   0  0  0  0  0  0
  -26.4510  -31.6563   25.0738 C   0  0  0  0  0  0
  -25.3714  -31.3686   26.1444 C   0  0  0  0  0  0
  -27.0357  -30.2959   24.6234 C   0  0  0  0  0  0
  -27.6101  -32.4292   25.7465 C   0  0  0  0  0  0
  -27.5592  -37.1783   24.8450 C   0  0  0  0  0  0
  -21.4234  -29.3009   22.3654 N   0  0  0  0  0  0
  -26.4296  -37.3757   23.9396 N   0  0  0  0  0  0
  -24.6986  -31.0506   22.0994 N   0  0  0  0  0  0
  -23.4215  -28.8089   23.3022 O   0  0  0  0  0  0
  -28.2862  -26.3471   20.1655 O   0  0  0  0  0  0
  -26.5625  -34.8886   22.4675 O   0  0  0  0  0  0
  -23.5475  -32.1409   23.7270 O   0  0  0  0  0  0
  -27.8201  -21.6653   22.2344 C   0  0  0  0  0  0
  -27.4806  -20.9099   23.3612 C   0  0  0  0  0  0
  -28.5034  -21.0918   21.1357 C   0  0  0  0  0  0
  -27.8380  -19.5616   23.3960 C   0  0  0  0  0  0
  -28.7763  -19.6378   21.2298 C   0  0  0  0  0  0
  -29.6740  -19.1379   18.8346 C   0  0  0  0  0  0
  -26.5071  -14.9180   26.4884 C   0  0  0  0  0  0
  -26.0506  -14.4301   24.0548 C   0  0  0  0  0  0
  -28.2053  -13.7257   25.1176 C   0  0  0  0  0  0
  -28.7764  -22.1460   19.9842 C   0  0  0  0  0  0
  -27.6426  -18.7371   24.6632 C   0  0  0  0  0  0
  -29.0427  -23.7211   20.3416 C   0  0  0  0  0  0
  -26.8928  -17.3916   24.4964 C   0  0  0  0  0  0
  -27.8120  -16.1604   24.6812 C   0  0  0  0  0  0
  -30.2133  -17.3407   20.6437 C   0  0  0  0  0  0
  -28.0107  -24.8867   19.9233 C   0  0  0  0  0  0
  -29.2028  -18.5325   20.1647 C   0  0  1  0  0  0
  -27.1280  -14.8262   25.0793 C   0  0  0  0  0  0
  -28.4531  -18.9663   22.3618 N   0  0  0  0  0  0
  -29.8068  -15.8652   20.5877 N   0  0  0  0  0  0
  -31.4698  -12.5854   19.1540 H   0  0  0  0  0  0
  -30.3850  -11.4766   19.9534 H   0  0  0  0  0  0
  -29.7787  -11.7088   17.5229 H   0  0  0  0  0  0
  -29.6267  -13.4405   17.7020 H   0  0  0  0  0  0
  -27.8887  -11.2753   18.9250 H   0  0  0  0  0  0
  -27.3666  -12.5058   17.8031 H   0  0  0  0  0  0
  -27.6290  -14.2486   19.4601 H   0  0  0  0  0  0
  -28.7212  -12.1698   21.4242 H   0  0  0  0  0  0
  -28.4282  -13.8548   21.7815 H   0  0  0  0  0  0
  -25.2740   -9.5712   22.4789 H   0  0  0  0  0  0
  -24.0014   -7.4632   22.7470 H   0  0  0  0  0  0
  -21.0849   -8.8759   19.8953 H   0  0  0  0  0  0
  -22.3670  -10.9682   19.6197 H   0  0  0  0  0  0
  -21.1970   -7.6147   23.9723 H   0  0  0  0  0  0
  -21.1490   -6.0531   25.9090 H   0  0  0  0  0  0
  -22.0586   -2.7613   23.2876 H   0  0  0  0  0  0
  -22.4098  -11.9834   22.4827 H   0  0  0  0  0  0
  -21.1100  -13.1209   22.2711 H   0  0  0  0  0  0
  -24.6531  -15.8445   20.5391 H   0  0  0  0  0  0
  -26.2632  -15.6382   20.0843 H   0  0  0  0  0  0
  -26.7208  -32.5385   23.1090 H   0  0  0  0  0  0
  -25.0051  -33.9685   25.0400 H   0  0  0  0  0  0
  -22.7242  -31.3015   21.4057 H   0  0  0  0  0  0
  -23.3741  -35.9639   23.3287 H   0  0  0  0  0  0
  -24.3601  -36.8965   22.2058 H   0  0  0  0  0  0
  -23.7276  -37.6499   23.6678 H   0  0  0  0  0  0
  -26.1215  -31.5246   20.6149 H   0  0  0  0  0  0
  -26.8550  -30.8127   22.0161 H   0  0  0  0  0  0
  -28.1198  -28.9019   21.1991 H   0  0  0  0  0  0
  -25.9226  -25.9359   18.9459 H   0  0  0  0  0  0
  -23.9618  -27.3428   18.9687 H   0  0  0  0  0  0
  -23.7637  -30.6052   19.4107 H   0  0  0  0  0  0
  -22.7592  -29.2595   19.8560 H   0  0  0  0  0  0
  -25.1296  -36.1929   25.0804 H   0  0  0  0  0  0
  -20.9986  -28.3249   24.1390 H   0  0  0  0  0  0
  -20.5687  -26.2266   23.3601 H   0  0  0  0  0  0
  -21.6656  -26.7409   22.1190 H   0  0  0  0  0  0
  -19.6933  -25.6276   21.1222 H   0  0  0  0  0  0
  -19.6720  -27.3161   20.6717 H   0  0  0  0  0  0
  -17.4220  -26.6639   21.3989 H   0  0  0  0  0  0
  -18.0338  -26.0050   22.8987 H   0  0  0  0  0  0
  -19.7938  -30.7273   24.2196 H   0  0  0  0  0  0
  -17.5007  -31.6224   24.5167 H   0  0  0  0  0  0
  -15.5349  -30.2919   23.7685 H   0  0  0  0  0  0
  -15.8689  -28.0814   22.7001 H   0  0  0  0  0  0
  -24.5936  -30.6983   25.7777 H   0  0  0  0  0  0
  -24.8783  -32.2811   26.4809 H   0  0  0  0  0  0
  -25.8003  -30.8927   27.0270 H   0  0  0  0  0  0
  -26.2933  -29.6671   24.1297 H   0  0  0  0  0  0
  -27.4086  -29.7272   25.4765 H   0  0  0  0  0  0
  -27.8794  -30.4244   23.9454 H   0  0  0  0  0  0
  -27.2793  -33.3657   26.1981 H   0  0  0  0  0  0
  -28.3905  -32.6770   25.0258 H   0  0  0  0  0  0
  -28.0759  -31.8444   26.5418 H   0  0  0  0  0  0
  -28.2573  -38.0115   24.7542 H   0  0  0  0  0  0
  -28.1147  -36.2649   24.6235 H   0  0  0  0  0  0
  -27.2315  -37.1399   25.8855 H   0  0  0  0  0  0
  -20.9423  -29.8768   21.6889 H   0  0  0  0  0  0
  -26.0187  -38.2830   24.1413 H   0  0  0  0  0  0
  -27.5303  -22.7057   22.2299 H   0  0  0  0  0  0
  -26.9752  -21.3765   24.1957 H   0  0  0  0  0  0
  -28.9063  -19.7785   18.4022 H   0  0  0  0  0  0
  -29.8860  -18.3585   18.1020 H   0  0  0  0  0  0
  -30.5801  -19.7288   18.9628 H   0  0  0  0  0  0
  -26.1636  -13.9412   26.8344 H   0  0  0  0  0  0
  -25.6456  -15.5842   26.5231 H   0  0  0  0  0  0
  -27.2316  -15.2798   27.2193 H   0  0  0  0  0  0
  -25.6535  -13.4331   24.2536 H   0  0  0  0  0  0
  -26.4556  -14.4234   23.0444 H   0  0  0  0  0  0
  -25.2072  -15.1213   24.0645 H   0  0  0  0  0  0
  -27.7815  -12.7595   25.3959 H   0  0  0  0  0  0
  -28.9846  -13.9560   25.8457 H   0  0  0  0  0  0
  -28.6921  -13.5993   24.1514 H   0  0  0  0  0  0
  -27.9546  -22.0807   19.2684 H   0  0  0  0  0  0
  -29.6538  -21.7956   19.4439 H   0  0  0  0  0  0
  -27.0856  -19.3471   25.3753 H   0  0  0  0  0  0
  -28.6199  -18.5923   25.1240 H   0  0  0  0  0  0
  -29.9736  -23.9797   19.8323 H   0  0  0  0  0  0
  -29.2960  -23.8278   21.3950 H   0  0  0  0  0  0
  -26.3790  -17.3483   23.5344 H   0  0  0  0  0  0
  -26.1014  -17.3671   25.2439 H   0  0  0  0  0  0
  -28.5626  -16.3818   25.4409 H   0  0  0  0  0  0
  -28.3761  -16.0231   23.7568 H   0  0  0  0  0  0
  -30.5254  -17.5384   21.6686 H   0  0  0  0  0  0
  -31.1366  -17.4416   20.0698 H   0  0  0  0  0  0
  -27.0689  -24.6352   20.4121 H   0  0  0  0  0  0
  -27.8398  -24.7770   18.8511 H   0  0  0  0  0  0
  -28.2621  -18.0373   19.9230 H   0  0  0  0  0  0
  -28.8249  -15.6829   20.7283 H   0  0  0  0  0  0
  1 25  1  0  0  0
  1 30  2  0  0  0
  1 90  1  0  0  0
  2  3  1  0  0  0
  2 25  1  0  0  0
  2 91  1  0  0  0
  2 92  1  0  0  0
  3  4  1  0  0  0
  3 93  1  0  0  0
  3 94  1  0  0  0
  4  5  1  0  0  0
  4 95  1  0  0  0
  4 96  1  0  0  0
  5  6  1  0  0  0
  5 26  1  0  0  0
  5 97  1  0  0  0
  6 25  1  0  0  0
  6 98  1  0  0  0
  6 99  1  0  0  0
  7  8  2  0  0  0
  7 26  1  0  0  0
  7 29  1  0  0  0
  8  9  1  0  0  0
  8 22  1  0  0  0
  9 10  1  0  0  0
  9 27  2  0  0  0
 10 11  2  0  0  0
 10 15  1  0  0  0
 11 12  1  0  0  0
 11100  1  0  0  0
 12 13  2  0  0  0
 12101  1  0  0  0
 13 14  1  0  0  0
 13 31  1  0  0  0
 14 15  2  0  0  0
 14102  1  0  0  0
 15103  1  0  0  0
 16 17  2  0  0  0
 16 21  1  0  0  0
 16 31  1  0  0  0
 17 18  1  0  0  0
 17104  1  0  0  0
 18 19  2  0  0  0
 18105  1  0  0  0
 19 20  1  0  0  0
 19 24  1  0  0  0
 20 21  2  0  0  0
 20106  1  0  0  0
 21 23  1  0  0  0
 22 28  1  0  0  0
 22 32  2  0  0  0
 26 27  1  0  0  0
 28107  1  0  0  0
 28108  1  0  0  0
 29109  1  0  0  0
 29110  1  0  0  0
 33 34  1  0  0  0
 33 66  1  0  0  0
 33 70  2  0  0  0
 34 36  1  0  0  0
 34 59  1  0  0  0
 34111  1  0  0  0
 35 44  2  0  0  0
 35 45  1  0  0  0
 35 68  1  0  0  0
 36 56  1  0  0  0
 36112  1  0  0  0
 37 39  1  0  0  0
 37 47  1  0  0  0
 37 66  1  0  0  0
 37113  1  0  0  0
 38 43  2  0  0  0
 38 46  1  0  0  0
 38 47  1  0  0  0
 39 64  1  0  0  0
 39 67  2  0  0  0
 40 52  1  0  0  0
 40 53  2  0  0  0
 40 58  1  0  0  0
 41114  1  0  0  0
 41115  1  0  0  0
 41116  1  0  0  0
 41 48  1  0  0  0
 42 43  1  0  0  0
 42 66  1  0  0  0
 42117  1  0  0  0
 42118  1  0  0  0
 43 44  1  0  0  0
 44119  1  0  0  0
 45 46  2  0  0  0
 45120  1  0  0  0
 46121  1  0  0  0
 47122  1  0  0  0
 47123  1  0  0  0
 48 56  1  0  0  0
 48 65  1  0  0  0
 48124  1  0  0  0
 49 50  1  0  0  0
 49 53  1  0  0  0
 49 64  1  0  0  0
 49125  1  0  0  0
 50 51  1  0  0  0
 50126  1  0  0  0
 50127  1  0  0  0
 51 52  1  0  0  0
 51128  1  0  0  0
 51129  1  0  0  0
 52130  1  0  0  0
 52131  1  0  0  0
 53 54  1  0  0  0
 54 55  2  0  0  0
 54132  1  0  0  0
 55 57  1  0  0  0
 55133  1  0  0  0
 56 69  2  0  0  0
 57 58  2  0  0  0
 57134  1  0  0  0
 58135  1  0  0  0
 59 60  1  0  0  0
 59 61  1  0  0  0
 59 62  1  0  0  0
 60136  1  0  0  0
 60137  1  0  0  0
 60138  1  0  0  0
 61139  1  0  0  0
 61140  1  0  0  0
 61141  1  0  0  0
 62142  1  0  0  0
 62143  1  0  0  0
 62144  1  0  0  0
 63 65  1  0  0  0
 63145  1  0  0  0
 63146  1  0  0  0
 63147  1  0  0  0
 64148  1  0  0  0
 65149  1  0  0  0
 68 86  1  0  0  0
 71 72  2  0  0  0
 71 73  1  0  0  0
 71150  1  0  0  0
 72 74  1  0  0  0
 72151  1  0  0  0
 73 75  2  0  0  0
 73 80  1  0  0  0
 74 81  1  0  0  0
 74 89  2  0  0  0
 75 87  1  0  0  0
 75 89  1  0  0  0
 76152  1  0  0  0
 76153  1  0  0  0
 76154  1  0  0  0
 76 87  1  0  0  0
 77155  1  0  0  0
 77156  1  0  0  0
 77157  1  0  0  0
 77 88  1  0  0  0
 78 88  1  0  0  0
 78158  1  0  0  0
 78159  1  0  0  0
 78160  1  0  0  0
 79 88  1  0  0  0
 79161  1  0  0  0
 79162  1  0  0  0
 79163  1  0  0  0
 80 82  1  0  0  0
 80164  1  0  0  0
 80165  1  0  0  0
 81 83  1  0  0  0
 81166  1  0  0  0
 81167  1  0  0  0
 82 86  1  0  0  0
 82168  1  0  0  0
 82169  1  0  0  0
 83 84  1  0  0  0
 83170  1  0  0  0
 83171  1  0  0  0
 84 88  1  0  0  0
 84172  1  0  0  0
 84173  1  0  0  0
 85 87  1  0  0  0
 85 90  1  0  0  0
 85174  1  0  0  0
 85175  1  0  0  0
 86176  1  0  0  0
 86177  1  0  0  0
 87178  1  0  0  0
 90179  1  0  0  0
M  ISO  4   1 100  68 101  86 101  90 100
M  END
> <chiral flag>
0

> <version>
0

> <s_m_source_file>
/data/baiqing/PycharmProjects/Reinvent-master-3.2/result/LINK_invent/BTK/process_docking_weight1_custom_sum_contain_oxygen_bond_distance_aromatic_linkinvent_7_9_3/rearranged_h_0090.sdf

> <i_m_source_file_index>
68

> <r_mmod_Potential_Energy-OPLS-2005>
97.8729858398438

> <r_mmod_Stretch_Energy-OPLS-2005>
135.391754150391

> <r_mmod_Bend_Energy-OPLS-2005>
213.585235595703

> <r_mmod_Torsional_Energy-OPLS-2005>
258.667510986328

> <r_mmod_Improper_Torsional_Energy-OPLS-2005>
5.70825290679932

> <r_mmod_Van_der_Waal_Energy-OPLS-2005>
131.331497192383

> <r_mmod_Electrostatic_Energy-OPLS-2005>
-535.65771484375

> <r_mmod_Solvation_Energy-OPLS-2005>
-199.967163085938

> <b_mmod_Minimization_Converged-OPLS-2005>
0

> <r_mmod_RMS_Derivative-OPLS-2005>
2.94814324378967

$$$$
69
                    3D
 Structure written by MMmdl.
181189  0  0  1  0            999 V2000
  -31.1220  -13.9721   20.4582 C   0  0  0  0  0  0
  -30.2585  -11.9920   19.3811 C   0  0  0  0  0  0
  -29.4327  -12.4589   18.1825 C   0  0  0  0  0  0
  -27.9661  -12.3287   18.6046 C   0  0  0  0  0  0
  -27.6647  -13.2152   19.8497 C   0  0  2  0  0  0
  -28.7568  -13.1207   20.9618 C   0  0  0  0  0  0
  -25.2558  -13.8273   20.5710 C   0  0  0  0  0  0
  -24.1804  -13.0526   20.9160 C   0  0  0  0  0  0
  -24.6340  -11.6982   20.8775 C   0  0  0  0  0  0
  -23.9035  -10.4362   21.0357 C   0  0  0  0  0  0
  -24.3612   -9.4304   21.9167 C   0  0  0  0  0  0
  -23.6296   -8.2369   22.0788 C   0  0  0  0  0  0
  -22.4269   -8.0399   21.3586 C   0  0  0  0  0  0
  -21.9885   -9.0329   20.4653 C   0  0  0  0  0  0
  -22.7228  -10.2194   20.2993 C   0  0  0  0  0  0
  -21.6919   -6.0776   22.5264 C   0  0  0  0  0  0
  -21.4066   -6.5662   23.8180 C   0  0  0  0  0  0
  -21.3660   -5.6788   24.9163 C   0  0  0  0  0  0
  -21.6073   -4.3099   24.7258 C   0  0  0  0  0  0
  -21.8795   -3.8165   23.4368 C   0  0  0  0  0  0
  -21.9209   -4.6958   22.3413 C   0  0  0  0  0  0
  -22.7814  -13.5264   21.1822 C   0  0  0  0  0  0
  -22.1646   -4.2127   21.0994 F   0  0  0  0  0  0
  -21.5634   -3.4566   25.7759 F   0  0  0  0  0  0
  -30.1347  -13.0439   20.4084 N   0  0  0  0  0  0
  -26.3091  -12.9449   20.3465 N   0  0  0  0  0  0
  -25.9295  -11.6619   20.5864 N   0  0  0  0  0  0
  -22.0461  -12.8170   22.0349 N   0  0  0  0  0  0
  -25.4205  -15.1946   20.4125 N   0  0  0  0  0  0
  -31.0225  -15.1440   20.6976 O   0  0  0  0  0  0
  -21.6688   -6.8940   21.4255 O   0  0  0  0  0  0
  -22.3479  -14.5578   20.6724 O   0  0  0  0  0  0
  -24.6097  -31.8683   23.2114 C   0  0  0  0  0  0
  -25.9022  -32.4820   23.8389 C   0  0  1  0  0  0
  -27.2473  -27.4667   20.0300 C   0  0  0  0  0  0
  -25.5876  -33.8621   24.2304 N   0  0  0  0  0  0
  -23.3975  -30.4903   21.5534 C   0  0  2  0  0  0
  -24.8435  -28.9621   20.1120 C   0  0  0  0  0  0
  -22.7388  -29.4630   22.5003 C   0  0  0  0  0  0
  -18.0250  -28.1372   22.8492 C   0  0  0  0  0  0
  -24.1508  -36.7368   23.2628 C   0  0  0  0  0  0
  -25.9254  -30.8287   21.3712 C   0  0  0  0  0  0
  -26.0004  -29.4638   20.7188 C   0  0  0  0  0  0
  -27.1987  -28.7127   20.6942 C   0  0  0  0  0  0
  -26.0592  -26.9703   19.4379 C   0  0  0  0  0  0
  -24.8697  -27.7106   19.4758 C   0  0  0  0  0  0
  -23.6043  -29.8237   20.1667 C   0  0  0  0  0  0
  -25.4120  -36.3124   24.0321 C   0  0  1  0  0  0
  -20.5848  -28.3654   23.1337 C   0  0  2  0  0  0
  -20.6770  -26.9401   22.5419 C   0  0  0  0  0  0
  -19.5739  -26.6386   21.5223 C   0  0  0  0  0  0
  -18.1913  -26.7908   22.1636 C   0  0  0  0  0  0
  -19.1511  -28.8834   23.2910 C   0  0  0  0  0  0
  -18.9431  -30.1439   23.8914 C   0  0  0  0  0  0
  -17.6443  -30.6584   24.0564 C   0  0  0  0  0  0
  -25.9032  -34.9484   23.5117 C   0  0  0  0  0  0
  -16.5328  -29.9094   23.6314 C   0  0  0  0  0  0
  -16.7247  -28.6508   23.0334 C   0  0  0  0  0  0
  -26.4447  -31.6587   25.0729 C   0  0  0  0  0  0
  -25.3700  -31.3716   26.1488 C   0  0  0  0  0  0
  -27.0280  -30.3010   24.6121 C   0  0  0  0  0  0
  -27.6014  -32.4313   25.7504 C   0  0  0  0  0  0
  -27.5592  -37.1841   24.8445 C   0  0  0  0  0  0
  -21.4124  -29.3032   22.3760 N   0  0  0  0  0  0
  -26.4299  -37.3807   23.9384 N   0  0  0  0  0  0
  -24.6625  -31.0783   22.1016 N   0  0  0  0  0  0
  -23.4192  -28.8157   23.3040 O   0  0  0  0  0  0
  -28.4547  -26.7936   19.9756 O   0  0  0  0  0  0
  -26.5608  -34.8931   22.4688 O   0  0  0  0  0  0
  -23.5296  -32.1459   23.7502 O   0  0  0  0  0  0
  -30.2921  -21.8024   19.7160 C   0  0  0  0  0  0
  -31.2500  -20.6323   17.4270 C   0  0  0  0  0  0
  -31.1833  -20.7133   19.8451 C   0  0  0  0  0  0
  -31.7380  -20.1492   18.6693 C   0  0  0  0  0  0
  -29.9336  -22.2557   18.4323 C   0  0  0  0  0  0
  -32.7190  -20.7035   21.9022 C   0  0  0  0  0  0
  -34.3369  -19.6269   16.7975 C   0  0  0  0  0  0
  -27.5264  -24.0107   20.1949 C   0  0  0  0  0  0
  -32.0922  -15.0206   17.6406 C   0  0  0  0  0  0
  -31.4532  -20.1520   21.2374 C   0  0  0  0  0  0
  -28.9745  -23.4180   18.1875 C   0  0  0  0  0  0
  -33.1139  -16.7854   19.2624 C   0  0  0  0  0  0
  -34.0817  -19.6554   18.3215 C   0  0  0  0  0  0
  -32.3911  -17.8133   18.3799 C   0  0  0  0  0  0
  -33.4983  -14.2575   19.6947 C   0  0  0  0  0  0
  -28.7002  -25.8768   18.8940 C   0  0  0  0  0  0
  -28.7639  -24.4046   19.3672 C   0  0  1  0  0  0
  -33.2221  -15.3714   18.6448 C   0  0  1  0  0  0
  -30.3778  -21.6543   17.3086 N   0  0  0  0  0  0
  -32.3196  -13.4991   20.1259 N   0  0  0  0  0  0
  -32.7561  -19.1791   18.7234 N   0  0  0  0  0  0
  -31.2464  -11.6946   19.0302 H   0  0  0  0  0  0
  -29.8656  -11.0658   19.8089 H   0  0  0  0  0  0
  -29.6460  -11.8820   17.2766 H   0  0  0  0  0  0
  -29.6481  -13.5037   17.9445 H   0  0  0  0  0  0
  -27.7720  -11.2818   18.8509 H   0  0  0  0  0  0
  -27.3030  -12.5598   17.7739 H   0  0  0  0  0  0
  -27.6760  -14.2366   19.4721 H   0  0  0  0  0  0
  -28.5800  -12.2427   21.5840 H   0  0  0  0  0  0
  -28.6637  -13.9917   21.6168 H   0  0  0  0  0  0
  -25.2812   -9.5863   22.4651 H   0  0  0  0  0  0
  -24.0090   -7.4756   22.7478 H   0  0  0  0  0  0
  -21.0884   -8.8915   19.8851 H   0  0  0  0  0  0
  -22.3828  -10.9746   19.6060 H   0  0  0  0  0  0
  -21.2085   -7.6160   23.9730 H   0  0  0  0  0  0
  -21.1468   -6.0524   25.9062 H   0  0  0  0  0  0
  -22.0545   -2.7614   23.2897 H   0  0  0  0  0  0
  -22.4230  -11.9800   22.4577 H   0  0  0  0  0  0
  -21.1049  -13.1100   22.2623 H   0  0  0  0  0  0
  -24.6681  -15.8620   20.5491 H   0  0  0  0  0  0
  -26.2918  -15.6352   20.1406 H   0  0  0  0  0  0
  -26.7093  -32.5522   23.1138 H   0  0  0  0  0  0
  -24.9986  -33.9788   25.0424 H   0  0  0  0  0  0
  -22.6829  -31.3040   21.4157 H   0  0  0  0  0  0
  -23.3729  -35.9745   23.3292 H   0  0  0  0  0  0
  -24.3610  -36.8988   22.2045 H   0  0  0  0  0  0
  -23.7317  -37.6594   23.6647 H   0  0  0  0  0  0
  -26.0378  -31.5937   20.6031 H   0  0  0  0  0  0
  -26.8116  -30.8793   21.9907 H   0  0  0  0  0  0
  -28.0926  -29.1042   21.1576 H   0  0  0  0  0  0
  -26.0407  -26.0216   18.9221 H   0  0  0  0  0  0
  -23.9861  -27.3262   18.9838 H   0  0  0  0  0  0
  -23.7019  -30.5959   19.4016 H   0  0  0  0  0  0
  -22.7297  -29.2354   19.8747 H   0  0  0  0  0  0
  -25.1294  -36.1981   25.0809 H   0  0  0  0  0  0
  -20.9911  -28.3225   24.1474 H   0  0  0  0  0  0
  -20.5725  -26.2252   23.3609 H   0  0  0  0  0  0
  -21.6634  -26.7500   22.1180 H   0  0  0  0  0  0
  -19.6916  -25.6311   21.1222 H   0  0  0  0  0  0
  -19.6665  -27.3230   20.6781 H   0  0  0  0  0  0
  -17.4190  -26.6630   21.4033 H   0  0  0  0  0  0
  -18.0328  -26.0050   22.9038 H   0  0  0  0  0  0
  -19.7917  -30.7234   24.2302 H   0  0  0  0  0  0
  -17.5006  -31.6256   24.5169 H   0  0  0  0  0  0
  -15.5339  -30.3011   23.7628 H   0  0  0  0  0  0
  -15.8636  -28.0847   22.7038 H   0  0  0  0  0  0
  -24.5839  -30.7103   25.7802 H   0  0  0  0  0  0
  -24.8970  -32.2920   26.4941 H   0  0  0  0  0  0
  -25.8066  -30.8849   27.0228 H   0  0  0  0  0  0
  -26.2843  -29.6792   24.1121 H   0  0  0  0  0  0
  -27.3952  -29.7224   25.4606 H   0  0  0  0  0  0
  -27.8720  -30.4296   23.9338 H   0  0  0  0  0  0
  -27.2577  -33.3556   26.2162 H   0  0  0  0  0  0
  -28.3791  -32.6957   25.0321 H   0  0  0  0  0  0
  -28.0717  -31.8395   26.5371 H   0  0  0  0  0  0
  -28.2578  -38.0165   24.7506 H   0  0  0  0  0  0
  -28.1112  -36.2698   24.6234 H   0  0  0  0  0  0
  -27.2318  -37.1456   25.8847 H   0  0  0  0  0  0
  -20.9277  -29.8783   21.7002 H   0  0  0  0  0  0
  -26.0187  -38.2883   24.1348 H   0  0  0  0  0  0
  -29.8820  -22.2557   20.6104 H   0  0  0  0  0  0
  -31.5661  -20.1850   16.4964 H   0  0  0  0  0  0
  -32.7987  -20.3205   22.9184 H   0  0  0  0  0  0
  -32.7191  -21.7924   21.9566 H   0  0  0  0  0  0
  -33.6136  -20.3959   21.3643 H   0  0  0  0  0  0
  -35.3584  -19.9317   16.5891 H   0  0  0  0  0  0
  -33.6959  -20.3207   16.2654 H   0  0  0  0  0  0
  -34.2172  -18.6413   16.3452 H   0  0  0  0  0  0
  -27.6561  -23.0412   20.6696 H   0  0  0  0  0  0
  -26.6287  -23.9550   19.5809 H   0  0  0  0  0  0
  -27.3395  -24.7293   20.9914 H   0  0  0  0  0  0
  -32.2650  -15.4901   16.6743 H   0  0  0  0  0  0
  -31.1252  -15.3831   17.9823 H   0  0  0  0  0  0
  -32.0019  -13.9507   17.4504 H   0  0  0  0  0  0
  -31.5134  -19.0657   21.1840 H   0  0  0  0  0  0
  -30.5890  -20.3727   21.8685 H   0  0  0  0  0  0
  -28.0258  -22.9941   17.8652 H   0  0  0  0  0  0
  -29.3542  -23.9680   17.3292 H   0  0  0  0  0  0
  -32.6627  -16.7788   20.2503 H   0  0  0  0  0  0
  -34.1291  -17.1224   19.4508 H   0  0  0  0  0  0
  -34.2272  -20.6731   18.6930 H   0  0  0  0  0  0
  -34.8403  -19.0521   18.8202 H   0  0  0  0  0  0
  -31.3090  -17.6886   18.4220 H   0  0  0  0  0  0
  -32.6614  -17.6428   17.3438 H   0  0  0  0  0  0
  -33.9915  -14.6244   20.5910 H   0  0  0  0  0  0
  -34.1924  -13.5548   19.2295 H   0  0  0  0  0  0
  -28.0219  -26.0029   18.0538 H   0  0  0  0  0  0
  -29.6766  -26.1394   18.4843 H   0  0  0  0  0  0
  -29.6369  -24.3737   20.0147 H   0  0  0  0  0  0
  -34.1379  -15.4176   18.0480 H   0  0  0  0  0  0
  -32.3230  -12.5104   19.9462 H   0  0  0  0  0  0
  1 25  1  0  0  0
  1 30  2  0  0  0
  1 90  1  0  0  0
  2  3  1  0  0  0
  2 25  1  0  0  0
  2 92  1  0  0  0
  2 93  1  0  0  0
  3  4  1  0  0  0
  3 94  1  0  0  0
  3 95  1  0  0  0
  4  5  1  0  0  0
  4 96  1  0  0  0
  4 97  1  0  0  0
  5  6  1  0  0  0
  5 26  1  0  0  0
  5 98  1  0  0  0
  6 25  1  0  0  0
  6 99  1  0  0  0
  6100  1  0  0  0
  7  8  2  0  0  0
  7 26  1  0  0  0
  7 29  1  0  0  0
  8  9  1  0  0  0
  8 22  1  0  0  0
  9 10  1  0  0  0
  9 27  2  0  0  0
 10 11  2  0  0  0
 10 15  1  0  0  0
 11 12  1  0  0  0
 11101  1  0  0  0
 12 13  2  0  0  0
 12102  1  0  0  0
 13 14  1  0  0  0
 13 31  1  0  0  0
 14 15  2  0  0  0
 14103  1  0  0  0
 15104  1  0  0  0
 16 17  2  0  0  0
 16 21  1  0  0  0
 16 31  1  0  0  0
 17 18  1  0  0  0
 17105  1  0  0  0
 18 19  2  0  0  0
 18106  1  0  0  0
 19 20  1  0  0  0
 19 24  1  0  0  0
 20 21  2  0  0  0
 20107  1  0  0  0
 21 23  1  0  0  0
 22 28  1  0  0  0
 22 32  2  0  0  0
 26 27  1  0  0  0
 28108  1  0  0  0
 28109  1  0  0  0
 29110  1  0  0  0
 29111  1  0  0  0
 33 34  1  0  0  0
 33 66  1  0  0  0
 33 70  2  0  0  0
 34 36  1  0  0  0
 34 59  1  0  0  0
 34112  1  0  0  0
 35 44  2  0  0  0
 35 45  1  0  0  0
 35 68  1  0  0  0
 36 56  1  0  0  0
 36113  1  0  0  0
 37 39  1  0  0  0
 37 47  1  0  0  0
 37 66  1  0  0  0
 37114  1  0  0  0
 38 43  2  0  0  0
 38 46  1  0  0  0
 38 47  1  0  0  0
 39 64  1  0  0  0
 39 67  2  0  0  0
 40 52  1  0  0  0
 40 53  2  0  0  0
 40 58  1  0  0  0
 41115  1  0  0  0
 41116  1  0  0  0
 41117  1  0  0  0
 41 48  1  0  0  0
 42 43  1  0  0  0
 42 66  1  0  0  0
 42118  1  0  0  0
 42119  1  0  0  0
 43 44  1  0  0  0
 44120  1  0  0  0
 45 46  2  0  0  0
 45121  1  0  0  0
 46122  1  0  0  0
 47123  1  0  0  0
 47124  1  0  0  0
 48 56  1  0  0  0
 48 65  1  0  0  0
 48125  1  0  0  0
 49 50  1  0  0  0
 49 53  1  0  0  0
 49 64  1  0  0  0
 49126  1  0  0  0
 50 51  1  0  0  0
 50127  1  0  0  0
 50128  1  0  0  0
 51 52  1  0  0  0
 51129  1  0  0  0
 51130  1  0  0  0
 52131  1  0  0  0
 52132  1  0  0  0
 53 54  1  0  0  0
 54 55  2  0  0  0
 54133  1  0  0  0
 55 57  1  0  0  0
 55134  1  0  0  0
 56 69  2  0  0  0
 57 58  2  0  0  0
 57135  1  0  0  0
 58136  1  0  0  0
 59 60  1  0  0  0
 59 61  1  0  0  0
 59 62  1  0  0  0
 60137  1  0  0  0
 60138  1  0  0  0
 60139  1  0  0  0
 61140  1  0  0  0
 61141  1  0  0  0
 61142  1  0  0  0
 62143  1  0  0  0
 62144  1  0  0  0
 62145  1  0  0  0
 63 65  1  0  0  0
 63146  1  0  0  0
 63147  1  0  0  0
 63148  1  0  0  0
 64149  1  0  0  0
 65150  1  0  0  0
 68 86  1  0  0  0
 71 73  2  0  0  0
 71 75  1  0  0  0
 71151  1  0  0  0
 72 74  2  0  0  0
 72 89  1  0  0  0
 72152  1  0  0  0
 73 74  1  0  0  0
 73 80  1  0  0  0
 74 91  1  0  0  0
 75 81  1  0  0  0
 75 89  2  0  0  0
 76 80  1  0  0  0
 76153  1  0  0  0
 76154  1  0  0  0
 76155  1  0  0  0
 77 83  1  0  0  0
 77156  1  0  0  0
 77157  1  0  0  0
 77158  1  0  0  0
 78159  1  0  0  0
 78160  1  0  0  0
 78161  1  0  0  0
 78 87  1  0  0  0
 79162  1  0  0  0
 79163  1  0  0  0
 79164  1  0  0  0
 79 88  1  0  0  0
 80165  1  0  0  0
 80166  1  0  0  0
 81 87  1  0  0  0
 81167  1  0  0  0
 81168  1  0  0  0
 82 84  1  0  0  0
 82 88  1  0  0  0
 82169  1  0  0  0
 82170  1  0  0  0
 83 91  1  0  0  0
 83171  1  0  0  0
 83172  1  0  0  0
 84 91  1  0  0  0
 84173  1  0  0  0
 84174  1  0  0  0
 85 88  1  0  0  0
 85 90  1  0  0  0
 85175  1  0  0  0
 85176  1  0  0  0
 86 87  1  0  0  0
 86177  1  0  0  0
 86178  1  0  0  0
 87179  1  0  0  0
 88180  1  0  0  0
 90181  1  0  0  0
M  ISO  4   1 100  68 101  86 101  90 100
M  END
> <chiral flag>
0

> <version>
0

> <s_m_source_file>
/data/baiqing/PycharmProjects/Reinvent-master-3.2/result/LINK_invent/BTK/process_docking_weight1_custom_sum_contain_oxygen_bond_distance_aromatic_linkinvent_7_9_3/rearranged_h_0090.sdf

> <i_m_source_file_index>
69

> <r_mmod_Potential_Energy-OPLS-2005>
131.462585449219

> <r_mmod_Stretch_Energy-OPLS-2005>
43.6436614990234

> <r_mmod_Bend_Energy-OPLS-2005>
138.199142456055

> <r_mmod_Torsional_Energy-OPLS-2005>
285.004272460938

> <r_mmod_Improper_Torsional_Energy-OPLS-2005>
6.06070947647095

> <r_mmod_Van_der_Waal_Energy-OPLS-2005>
186.67219543457

> <r_mmod_Electrostatic_Energy-OPLS-2005>
-499.019256591797

> <r_mmod_Solvation_Energy-OPLS-2005>
-211.448623657227

> <b_mmod_Minimization_Converged-OPLS-2005>
0

> <r_mmod_RMS_Derivative-OPLS-2005>
11.6502208709717

$$$$
70
                    3D
 Structure written by MMmdl.
169177  0  0  1  0            999 V2000
  -30.7653  -14.4372   20.5675 C   0  0  0  0  0  0
  -30.4070  -12.2887   19.4154 C   0  0  0  0  0  0
  -29.4730  -12.4814   18.2080 C   0  0  0  0  0  0
  -27.9999  -12.3329   18.6332 C   0  0  0  0  0  0
  -27.6524  -13.1958   19.8694 C   0  0  2  0  0  0
  -28.7057  -13.0218   20.9901 C   0  0  0  0  0  0
  -25.2566  -13.8094   20.5714 C   0  0  0  0  0  0
  -24.1834  -13.0409   20.9229 C   0  0  0  0  0  0
  -24.6377  -11.6859   20.8793 C   0  0  0  0  0  0
  -23.9061  -10.4254   21.0448 C   0  0  0  0  0  0
  -24.3602   -9.4158   21.9210 C   0  0  0  0  0  0
  -23.6281   -8.2186   22.0771 C   0  0  0  0  0  0
  -22.4280   -8.0248   21.3551 C   0  0  0  0  0  0
  -21.9919   -9.0234   20.4664 C   0  0  0  0  0  0
  -22.7236  -10.2097   20.3095 C   0  0  0  0  0  0
  -21.6841   -6.0732   22.5280 C   0  0  0  0  0  0
  -21.4007   -6.5637   23.8202 C   0  0  0  0  0  0
  -21.3671   -5.6797   24.9178 C   0  0  0  0  0  0
  -21.6053   -4.3063   24.7242 C   0  0  0  0  0  0
  -21.8825   -3.8151   23.4362 C   0  0  0  0  0  0
  -21.9189   -4.6955   22.3412 C   0  0  0  0  0  0
  -22.7858  -13.5211   21.1866 C   0  0  0  0  0  0
  -22.1648   -4.2134   21.0994 F   0  0  0  0  0  0
  -21.5641   -3.4561   25.7765 F   0  0  0  0  0  0
  -30.0363  -13.2954   20.4208 N   0  0  0  0  0  0
  -26.2988  -12.9260   20.3420 N   0  0  0  0  0  0
  -25.9294  -11.6427   20.5866 N   0  0  0  0  0  0
  -22.0531  -12.8210   22.0429 N   0  0  0  0  0  0
  -25.4320  -15.1815   20.4081 N   0  0  0  0  0  0
  -31.9002  -14.5756   20.1161 O   0  0  0  0  0  0
  -21.6612   -6.8870   21.4240 O   0  0  0  0  0  0
  -22.3532  -14.5516   20.6719 O   0  0  0  0  0  0
  -24.6174  -31.8692   23.2022 C   0  0  0  0  0  0
  -25.9064  -32.4790   23.8369 C   0  0  1  0  0  0
  -27.2471  -27.4315   20.1031 C   0  0  0  0  0  0
  -25.5924  -33.8590   24.2314 N   0  0  0  0  0  0
  -23.4058  -30.4898   21.5400 C   0  0  2  0  0  0
  -24.8520  -28.9436   20.1202 C   0  0  0  0  0  0
  -22.7427  -29.4687   22.4958 C   0  0  0  0  0  0
  -18.0294  -28.1335   22.8493 C   0  0  0  0  0  0
  -24.1486  -36.7309   23.2638 C   0  0  0  0  0  0
  -25.9370  -30.8316   21.3569 C   0  0  0  0  0  0
  -26.0122  -29.4619   20.7130 C   0  0  0  0  0  0
  -27.2121  -28.7124   20.7036 C   0  0  0  0  0  0
  -26.0741  -26.9264   19.5109 C   0  0  0  0  0  0
  -24.8770  -27.6693   19.5244 C   0  0  0  0  0  0
  -23.6138  -29.8131   20.1592 C   0  0  0  0  0  0
  -25.4089  -36.3090   24.0353 C   0  0  1  0  0  0
  -20.5891  -28.3661   23.1337 C   0  0  2  0  0  0
  -20.6776  -26.9399   22.5433 C   0  0  0  0  0  0
  -19.5766  -26.6375   21.5222 C   0  0  0  0  0  0
  -18.1946  -26.7868   22.1653 C   0  0  0  0  0  0
  -19.1535  -28.8805   23.2908 C   0  0  0  0  0  0
  -18.9447  -30.1429   23.8874 C   0  0  0  0  0  0
  -17.6433  -30.6534   24.0534 C   0  0  0  0  0  0
  -25.9028  -34.9473   23.5132 C   0  0  0  0  0  0
  -16.5335  -29.9017   23.6297 C   0  0  0  0  0  0
  -16.7273  -28.6449   23.0307 C   0  0  0  0  0  0
  -26.4454  -31.6559   25.0710 C   0  0  0  0  0  0
  -25.3763  -31.3709   26.1505 C   0  0  0  0  0  0
  -27.0262  -30.2973   24.6155 C   0  0  0  0  0  0
  -27.5999  -32.4298   25.7491 C   0  0  0  0  0  0
  -27.5572  -37.1809   24.8477 C   0  0  0  0  0  0
  -21.4141  -29.3076   22.3755 N   0  0  0  0  0  0
  -26.4269  -37.3769   23.9432 N   0  0  0  0  0  0
  -24.6708  -31.0819   22.0885 N   0  0  0  0  0  0
  -23.4217  -28.8228   23.2990 O   0  0  0  0  0  0
  -28.3997  -26.6775   20.0532 O   0  0  0  0  0  0
  -26.5567  -34.8937   22.4682 O   0  0  0  0  0  0
  -23.5377  -32.1456   23.7419 O   0  0  0  0  0  0
  -29.7554  -21.0223   21.9064 C   0  0  0  0  0  0
  -27.6281  -21.5095   22.3742 C   0  0  0  0  0  0
  -29.0884  -19.8298   22.0306 C   0  0  0  0  0  0
  -27.7210  -20.1445   22.2954 C   0  0  0  0  0  0
  -25.6458  -19.2217   21.2440 C   0  0  0  0  0  0
  -25.8634  -19.3087   23.7842 C   0  0  0  0  0  0
  -27.7511  -23.7179   19.9661 C   0  0  0  0  0  0
  -29.6603  -18.4307   21.9098 C   0  0  0  0  0  0
  -29.3685  -17.7823   20.5453 C   0  0  0  0  0  0
  -29.1800  -23.4978   22.1287 C   0  0  0  0  0  0
  -29.1261  -16.2566   20.5702 C   0  0  0  0  0  0
  -28.6188  -25.8164   21.1832 C   0  0  0  0  0  0
  -26.5936  -19.1428   22.4465 C   0  0  0  0  0  0
  -28.8744  -24.3173   20.8295 C   0  0  2  0  0  0
  -28.8670  -22.0638   22.1135 N   0  0  0  0  0  0
  -30.1922  -15.4698   21.1981 N   0  0  0  0  0  0
  -31.4482  -12.3646   19.0991 H   0  0  0  0  0  0
  -30.2985  -11.2861   19.8304 H   0  0  0  0  0  0
  -29.7110  -11.7532   17.4321 H   0  0  0  0  0  0
  -29.6318  -13.4710   17.7763 H   0  0  0  0  0  0
  -27.8172  -11.2807   18.8561 H   0  0  0  0  0  0
  -27.3377  -12.5811   17.8031 H   0  0  0  0  0  0
  -27.6701  -14.2257   19.5241 H   0  0  0  0  0  0
  -28.6738  -12.0039   21.3794 H   0  0  0  0  0  0
  -28.4783  -13.6694   21.8372 H   0  0  0  0  0  0
  -25.2742   -9.5602   22.4778 H   0  0  0  0  0  0
  -24.0014   -7.4557   22.7457 H   0  0  0  0  0  0
  -21.0881   -8.8748   19.8931 H   0  0  0  0  0  0
  -22.3734  -10.9651   19.6204 H   0  0  0  0  0  0
  -21.1978   -7.6142   23.9712 H   0  0  0  0  0  0
  -21.1498   -6.0528   25.9076 H   0  0  0  0  0  0
  -22.0601   -2.7613   23.2873 H   0  0  0  0  0  0
  -22.4192  -11.9842   22.4738 H   0  0  0  0  0  0
  -21.1146  -13.1191   22.2687 H   0  0  0  0  0  0
  -24.6803  -15.8480   20.5424 H   0  0  0  0  0  0
  -26.2973  -15.6088   20.1057 H   0  0  0  0  0  0
  -26.7142  -32.5469   23.1146 H   0  0  0  0  0  0
  -25.0131  -33.9747   25.0506 H   0  0  0  0  0  0
  -22.7010  -31.3107   21.3911 H   0  0  0  0  0  0
  -23.3722  -35.9662   23.3298 H   0  0  0  0  0  0
  -24.3644  -36.8911   22.2061 H   0  0  0  0  0  0
  -23.7249  -37.6526   23.6640 H   0  0  0  0  0  0
  -26.0752  -31.5987   20.5924 H   0  0  0  0  0  0
  -26.8167  -30.8740   21.9872 H   0  0  0  0  0  0
  -28.1049  -29.1152   21.1580 H   0  0  0  0  0  0
  -26.0876  -25.9506   19.0496 H   0  0  0  0  0  0
  -23.9871  -27.2513   19.0731 H   0  0  0  0  0  0
  -23.7259  -30.5848   19.3977 H   0  0  0  0  0  0
  -22.7383  -29.2361   19.8571 H   0  0  0  0  0  0
  -25.1262  -36.1922   25.0835 H   0  0  0  0  0  0
  -20.9990  -28.3149   24.1459 H   0  0  0  0  0  0
  -20.5637  -26.2275   23.3614 H   0  0  0  0  0  0
  -21.6663  -26.7412   22.1290 H   0  0  0  0  0  0
  -19.6975  -25.6304   21.1226 H   0  0  0  0  0  0
  -19.6661  -27.3202   20.6774 H   0  0  0  0  0  0
  -17.4196  -26.6585   21.4070 H   0  0  0  0  0  0
  -18.0360  -26.0023   22.9084 H   0  0  0  0  0  0
  -19.7917  -30.7278   24.2200 H   0  0  0  0  0  0
  -17.4980  -31.6211   24.5137 H   0  0  0  0  0  0
  -15.5333  -30.2902   23.7621 H   0  0  0  0  0  0
  -15.8702  -28.0771   22.6978 H   0  0  0  0  0  0
  -24.5935  -30.6998   25.7965 H   0  0  0  0  0  0
  -24.8957  -32.2862   26.4964 H   0  0  0  0  0  0
  -25.8221  -30.8962   27.0255 H   0  0  0  0  0  0
  -26.2823  -29.6739   24.1172 H   0  0  0  0  0  0
  -27.3915  -29.7223   25.4671 H   0  0  0  0  0  0
  -27.8718  -30.4234   23.9392 H   0  0  0  0  0  0
  -27.2574  -33.3608   26.2038 H   0  0  0  0  0  0
  -28.3832  -32.6839   25.0336 H   0  0  0  0  0  0
  -28.0603  -31.8423   26.5448 H   0  0  0  0  0  0
  -28.2584  -38.0103   24.7500 H   0  0  0  0  0  0
  -28.1074  -36.2654   24.6293 H   0  0  0  0  0  0
  -27.2356  -37.1448   25.8896 H   0  0  0  0  0  0
  -20.9244  -29.8888   21.7100 H   0  0  0  0  0  0
  -26.0161  -38.2862   24.1353 H   0  0  0  0  0  0
  -30.7996  -21.2235   21.7009 H   0  0  0  0  0  0
  -26.7787  -22.1473   22.5819 H   0  0  0  0  0  0
  -26.1979  -19.1097   20.3094 H   0  0  0  0  0  0
  -25.1273  -20.1798   21.2089 H   0  0  0  0  0  0
  -24.8974  -18.4303   21.2782 H   0  0  0  0  0  0
  -26.5678  -19.2529   24.6167 H   0  0  0  0  0  0
  -25.1226  -18.5185   23.9225 H   0  0  0  0  0  0
  -25.3517  -20.2697   23.8386 H   0  0  0  0  0  0
  -27.9558  -22.6821   19.6866 H   0  0  0  0  0  0
  -27.6449  -24.2706   19.0340 H   0  0  0  0  0  0
  -26.7968  -23.7415   20.4902 H   0  0  0  0  0  0
  -29.2285  -17.8202   22.7044 H   0  0  0  0  0  0
  -30.7358  -18.4464   22.0928 H   0  0  0  0  0  0
  -30.1524  -18.0516   19.8347 H   0  0  0  0  0  0
  -28.4575  -18.2272   20.1407 H   0  0  0  0  0  0
  -28.6312  -23.9168   22.9729 H   0  0  0  0  0  0
  -30.2304  -23.6165   22.3953 H   0  0  0  0  0  0
  -28.9797  -15.9395   19.5371 H   0  0  0  0  0  0
  -28.2004  -16.0455   21.1025 H   0  0  0  0  0  0
  -29.5018  -26.2049   21.6987 H   0  0  0  0  0  0
  -27.7949  -25.8801   21.8993 H   0  0  0  0  0  0
  -27.0226  -18.1404   22.4492 H   0  0  0  0  0  0
  -29.7743  -24.2834   20.2135 H   0  0  0  0  0  0
  -30.8876  -16.0686   21.6187 H   0  0  0  0  0  0
  1 25  1  0  0  0
  1 30  2  0  0  0
  1 86  1  0  0  0
  2  3  1  0  0  0
  2 25  1  0  0  0
  2 87  1  0  0  0
  2 88  1  0  0  0
  3  4  1  0  0  0
  3 89  1  0  0  0
  3 90  1  0  0  0
  4  5  1  0  0  0
  4 91  1  0  0  0
  4 92  1  0  0  0
  5  6  1  0  0  0
  5 26  1  0  0  0
  5 93  1  0  0  0
  6 25  1  0  0  0
  6 94  1  0  0  0
  6 95  1  0  0  0
  7  8  2  0  0  0
  7 26  1  0  0  0
  7 29  1  0  0  0
  8  9  1  0  0  0
  8 22  1  0  0  0
  9 10  1  0  0  0
  9 27  2  0  0  0
 10 11  2  0  0  0
 10 15  1  0  0  0
 11 12  1  0  0  0
 11 96  1  0  0  0
 12 13  2  0  0  0
 12 97  1  0  0  0
 13 14  1  0  0  0
 13 31  1  0  0  0
 14 15  2  0  0  0
 14 98  1  0  0  0
 15 99  1  0  0  0
 16 17  2  0  0  0
 16 21  1  0  0  0
 16 31  1  0  0  0
 17 18  1  0  0  0
 17100  1  0  0  0
 18 19  2  0  0  0
 18101  1  0  0  0
 19 20  1  0  0  0
 19 24  1  0  0  0
 20 21  2  0  0  0
 20102  1  0  0  0
 21 23  1  0  0  0
 22 28  1  0  0  0
 22 32  2  0  0  0
 26 27  1  0  0  0
 28103  1  0  0  0
 28104  1  0  0  0
 29105  1  0  0  0
 29106  1  0  0  0
 33 34  1  0  0  0
 33 66  1  0  0  0
 33 70  2  0  0  0
 34 36  1  0  0  0
 34 59  1  0  0  0
 34107  1  0  0  0
 35 44  2  0  0  0
 35 45  1  0  0  0
 35 68  1  0  0  0
 36 56  1  0  0  0
 36108  1  0  0  0
 37 39  1  0  0  0
 37 47  1  0  0  0
 37 66  1  0  0  0
 37109  1  0  0  0
 38 43  2  0  0  0
 38 46  1  0  0  0
 38 47  1  0  0  0
 39 64  1  0  0  0
 39 67  2  0  0  0
 40 52  1  0  0  0
 40 53  2  0  0  0
 40 58  1  0  0  0
 41110  1  0  0  0
 41111  1  0  0  0
 41112  1  0  0  0
 41 48  1  0  0  0
 42 43  1  0  0  0
 42 66  1  0  0  0
 42113  1  0  0  0
 42114  1  0  0  0
 43 44  1  0  0  0
 44115  1  0  0  0
 45 46  2  0  0  0
 45116  1  0  0  0
 46117  1  0  0  0
 47118  1  0  0  0
 47119  1  0  0  0
 48 56  1  0  0  0
 48 65  1  0  0  0
 48120  1  0  0  0
 49 50  1  0  0  0
 49 53  1  0  0  0
 49 64  1  0  0  0
 49121  1  0  0  0
 50 51  1  0  0  0
 50122  1  0  0  0
 50123  1  0  0  0
 51 52  1  0  0  0
 51124  1  0  0  0
 51125  1  0  0  0
 52126  1  0  0  0
 52127  1  0  0  0
 53 54  1  0  0  0
 54 55  2  0  0  0
 54128  1  0  0  0
 55 57  1  0  0  0
 55129  1  0  0  0
 56 69  2  0  0  0
 57 58  2  0  0  0
 57130  1  0  0  0
 58131  1  0  0  0
 59 60  1  0  0  0
 59 61  1  0  0  0
 59 62  1  0  0  0
 60132  1  0  0  0
 60133  1  0  0  0
 60134  1  0  0  0
 61135  1  0  0  0
 61136  1  0  0  0
 61137  1  0  0  0
 62138  1  0  0  0
 62139  1  0  0  0
 62140  1  0  0  0
 63 65  1  0  0  0
 63141  1  0  0  0
 63142  1  0  0  0
 63143  1  0  0  0
 64144  1  0  0  0
 65145  1  0  0  0
 68 82  1  0  0  0
 71 73  2  0  0  0
 71 85  1  0  0  0
 71146  1  0  0  0
 72 74  2  0  0  0
 72 85  1  0  0  0
 72147  1  0  0  0
 73 74  1  0  0  0
 73 78  1  0  0  0
 74 83  1  0  0  0
 75148  1  0  0  0
 75149  1  0  0  0
 75150  1  0  0  0
 75 83  1  0  0  0
 76 83  1  0  0  0
 76151  1  0  0  0
 76152  1  0  0  0
 76153  1  0  0  0
 77154  1  0  0  0
 77155  1  0  0  0
 77156  1  0  0  0
 77 84  1  0  0  0
 78 79  1  0  0  0
 78157  1  0  0  0
 78158  1  0  0  0
 79 81  1  0  0  0
 79159  1  0  0  0
 79160  1  0  0  0
 80 84  1  0  0  0
 80 85  1  0  0  0
 80161  1  0  0  0
 80162  1  0  0  0
 81 86  1  0  0  0
 81163  1  0  0  0
 81164  1  0  0  0
 82 84  1  0  0  0
 82165  1  0  0  0
 82166  1  0  0  0
 83167  1  0  0  0
 84168  1  0  0  0
 86169  1  0  0  0
M  ISO  4   1 100  68 101  82 101  86 100
M  END
> <chiral flag>
0

> <version>
0

> <s_m_source_file>
/data/baiqing/PycharmProjects/Reinvent-master-3.2/result/LINK_invent/BTK/process_docking_weight1_custom_sum_contain_oxygen_bond_distance_aromatic_linkinvent_7_9_3/rearranged_h_0090.sdf

> <i_m_source_file_index>
70

> <r_mmod_Potential_Energy-OPLS-2005>
-18.6877193450928

> <r_mmod_Stretch_Energy-OPLS-2005>
35.8439064025879

> <r_mmod_Bend_Energy-OPLS-2005>
112.999633789062

> <r_mmod_Torsional_Energy-OPLS-2005>
307.7294921875

> <r_mmod_Improper_Torsional_Energy-OPLS-2005>
6.22092723846436

> <r_mmod_Van_der_Waal_Energy-OPLS-2005>
112.942268371582

> <r_mmod_Electrostatic_Energy-OPLS-2005>
-412.901824951172

> <r_mmod_Solvation_Energy-OPLS-2005>
-195.926788330078

> <b_mmod_Minimization_Converged-OPLS-2005>
0

> <r_mmod_RMS_Derivative-OPLS-2005>
5.11202812194824

$$$$
71
                    3D
 Structure written by MMmdl.
168176  0  0  1  0            999 V2000
  -30.7276  -14.4239   20.6805 C   0  0  0  0  0  0
  -30.4217  -12.3027   19.4364 C   0  0  0  0  0  0
  -29.5054  -12.5216   18.2219 C   0  0  0  0  0  0
  -28.0223  -12.3716   18.6159 C   0  0  0  0  0  0
  -27.6643  -13.2044   19.8754 C   0  0  2  0  0  0
  -28.6943  -12.9655   21.0044 C   0  0  0  0  0  0
  -25.2546  -13.8129   20.5386 C   0  0  0  0  0  0
  -24.1835  -13.0460   20.9068 C   0  0  0  0  0  0
  -24.6406  -11.6923   20.8691 C   0  0  0  0  0  0
  -23.9130  -10.4298   21.0409 C   0  0  0  0  0  0
  -24.3667   -9.4211   21.9200 C   0  0  0  0  0  0
  -23.6317   -8.2244   22.0773 C   0  0  0  0  0  0
  -22.4299   -8.0310   21.3564 C   0  0  0  0  0  0
  -21.9961   -9.0304   20.4688 C   0  0  0  0  0  0
  -22.7301  -10.2171   20.3103 C   0  0  0  0  0  0
  -21.6866   -6.0780   22.5287 C   0  0  0  0  0  0
  -21.4018   -6.5657   23.8234 C   0  0  0  0  0  0
  -21.3664   -5.6814   24.9164 C   0  0  0  0  0  0
  -21.6028   -4.3069   24.7230 C   0  0  0  0  0  0
  -21.8821   -3.8184   23.4337 C   0  0  0  0  0  0
  -21.9182   -4.6985   22.3405 C   0  0  0  0  0  0
  -22.7886  -13.5273   21.1830 C   0  0  0  0  0  0
  -22.1659   -4.2162   21.0970 F   0  0  0  0  0  0
  -21.5597   -3.4567   25.7740 F   0  0  0  0  0  0
  -30.0398  -13.2650   20.4809 N   0  0  0  0  0  0
  -26.3018  -12.9326   20.3271 N   0  0  0  0  0  0
  -25.9315  -11.6486   20.5715 N   0  0  0  0  0  0
  -22.0604  -12.8250   22.0415 N   0  0  0  0  0  0
  -25.4261  -15.1784   20.3342 N   0  0  0  0  0  0
  -31.7350  -14.7234   20.0302 O   0  0  0  0  0  0
  -21.6636   -6.8920   21.4274 O   0  0  0  0  0  0
  -22.3557  -14.5630   20.6767 O   0  0  0  0  0  0
  -24.6130  -31.8684   23.2038 C   0  0  0  0  0  0
  -25.9032  -32.4810   23.8345 C   0  0  1  0  0  0
  -27.2321  -27.4298   20.0866 C   0  0  0  0  0  0
  -25.5901  -33.8606   24.2301 N   0  0  0  0  0  0
  -23.3986  -30.4888   21.5481 C   0  0  2  0  0  0
  -24.8413  -28.9549   20.1121 C   0  0  0  0  0  0
  -22.7372  -29.4660   22.4964 C   0  0  0  0  0  0
  -18.0283  -28.1382   22.8387 C   0  0  0  0  0  0
  -24.1487  -36.7324   23.2633 C   0  0  0  0  0  0
  -25.9262  -30.8324   21.3548 C   0  0  0  0  0  0
  -26.0018  -29.4661   20.7033 C   0  0  0  0  0  0
  -27.1961  -28.7120   20.6861 C   0  0  0  0  0  0
  -26.0449  -26.9309   19.4992 C   0  0  0  0  0  0
  -24.8598  -27.6895   19.5042 C   0  0  0  0  0  0
  -23.6060  -29.8238   20.1627 C   0  0  0  0  0  0
  -25.4116  -36.3105   24.0326 C   0  0  1  0  0  0
  -20.5824  -28.3721   23.1335 C   0  0  2  0  0  0
  -20.6701  -26.9372   22.5664 C   0  0  0  0  0  0
  -19.5881  -26.6309   21.5287 C   0  0  0  0  0  0
  -18.1949  -26.7990   22.1385 C   0  0  0  0  0  0
  -19.1480  -28.8873   23.2855 C   0  0  0  0  0  0
  -18.9401  -30.1464   23.8889 C   0  0  0  0  0  0
  -17.6361  -30.6564   24.0533 C   0  0  0  0  0  0
  -25.9062  -34.9474   23.5126 C   0  0  0  0  0  0
  -16.5286  -29.9003   23.6299 C   0  0  0  0  0  0
  -16.7256  -28.6455   23.0267 C   0  0  0  0  0  0
  -26.4488  -31.6594   25.0693 C   0  0  0  0  0  0
  -25.3756  -31.3721   26.1458 C   0  0  0  0  0  0
  -27.0316  -30.3020   24.6075 C   0  0  0  0  0  0
  -27.6079  -32.4311   25.7472 C   0  0  0  0  0  0
  -27.5586  -37.1819   24.8459 C   0  0  0  0  0  0
  -21.4106  -29.3003   22.3658 N   0  0  0  0  0  0
  -26.4286  -37.3796   23.9418 N   0  0  0  0  0  0
  -24.6650  -31.0762   22.0954 N   0  0  0  0  0  0
  -23.4120  -28.8274   23.3082 O   0  0  0  0  0  0
  -28.4285  -26.7360   20.0843 O   0  0  0  0  0  0
  -26.5588  -34.8941   22.4665 O   0  0  0  0  0  0
  -23.5341  -32.1426   23.7458 O   0  0  0  0  0  0
  -26.9249  -20.0152   22.7932 C   0  0  0  0  0  0
  -28.0740  -20.6836   22.2844 C   0  0  0  0  0  0
  -27.3515  -18.7425   23.0832 C   0  0  0  0  0  0
  -26.6344  -16.2735   23.4704 C   0  0  0  0  0  0
  -25.2866  -18.1119   24.4355 C   0  0  0  0  0  0
  -30.8880  -14.9942   23.0126 C   0  0  0  0  0  0
  -28.2992  -22.1905   22.2609 C   0  0  0  0  0  0
  -28.2465  -22.9244   20.8969 C   0  0  0  0  0  0
  -28.0947  -24.4699   21.0501 C   0  0  0  0  0  0
  -29.5839  -17.5183   22.6539 C   0  0  0  0  0  0
  -29.6106  -16.5191   21.4412 C   0  0  0  0  0  0
  -28.4655  -25.3241   19.8075 C   0  0  0  0  0  0
  -26.7088  -17.7166   23.9955 C   0  0  0  0  0  0
  -29.0579  -19.8213   22.0431 N   0  0  0  0  0  0
  -28.6298  -18.6281   22.5462 N   0  0  0  0  0  0
  -30.2825  -15.2107   21.6918 N   0  0  0  0  0  0
  -31.4674  -12.4052   19.1431 H   0  0  0  0  0  0
  -30.3136  -11.2820   19.8084 H   0  0  0  0  0  0
  -29.7568  -11.8061   17.4392 H   0  0  0  0  0  0
  -29.6905  -13.5202   17.8191 H   0  0  0  0  0  0
  -27.8320  -11.3143   18.7983 H   0  0  0  0  0  0
  -27.3771  -12.6522   17.7827 H   0  0  0  0  0  0
  -27.7220  -14.2544   19.5870 H   0  0  0  0  0  0
  -28.6477  -11.9224   21.3204 H   0  0  0  0  0  0
  -28.4448  -13.5435   21.8939 H   0  0  0  0  0  0
  -25.2816   -9.5631   22.4799 H   0  0  0  0  0  0
  -24.0000   -7.4633   22.7502 H   0  0  0  0  0  0
  -21.0897   -8.8908   19.9010 H   0  0  0  0  0  0
  -22.3808  -10.9752   19.6242 H   0  0  0  0  0  0
  -21.2056   -7.6183   23.9734 H   0  0  0  0  0  0
  -21.1464   -6.0533   25.9066 H   0  0  0  0  0  0
  -22.0590   -2.7651   23.2836 H   0  0  0  0  0  0
  -22.4182  -11.9778   22.4592 H   0  0  0  0  0  0
  -21.1286  -13.1350   22.2794 H   0  0  0  0  0  0
  -24.6737  -15.8468   20.4449 H   0  0  0  0  0  0
  -26.2726  -15.6020   19.9785 H   0  0  0  0  0  0
  -26.7123  -32.5531   23.1133 H   0  0  0  0  0  0
  -25.0071  -33.9745   25.0462 H   0  0  0  0  0  0
  -22.6903  -31.3075   21.4090 H   0  0  0  0  0  0
  -23.3738  -35.9669   23.3302 H   0  0  0  0  0  0
  -24.3584  -36.8916   22.2047 H   0  0  0  0  0  0
  -23.7247  -37.6540   23.6648 H   0  0  0  0  0  0
  -26.0320  -31.5972   20.5821 H   0  0  0  0  0  0
  -26.8184  -30.8900   21.9680 H   0  0  0  0  0  0
  -28.0925  -29.1134   21.1393 H   0  0  0  0  0  0
  -26.0099  -25.9626   19.0210 H   0  0  0  0  0  0
  -23.9686  -27.3020   19.0317 H   0  0  0  0  0  0
  -23.7111  -30.5993   19.4009 H   0  0  0  0  0  0
  -22.7340  -29.2385   19.8713 H   0  0  0  0  0  0
  -25.1296  -36.1980   25.0810 H   0  0  0  0  0  0
  -20.9867  -28.3437   24.1468 H   0  0  0  0  0  0
  -21.6629  -26.7242   22.1669 H   0  0  0  0  0  0
  -20.5324  -26.2376   23.3931 H   0  0  0  0  0  0
  -19.7119  -25.6149   21.1560 H   0  0  0  0  0  0
  -19.7128  -27.2963   20.6737 H   0  0  0  0  0  0
  -17.4403  -26.6953   21.3581 H   0  0  0  0  0  0
  -18.0065  -26.0068   22.8632 H   0  0  0  0  0  0
  -19.7852  -30.7307   24.2264 H   0  0  0  0  0  0
  -17.4865  -31.6253   24.5056 H   0  0  0  0  0  0
  -15.5254  -30.2853   23.7608 H   0  0  0  0  0  0
  -15.8681  -28.0788   22.6901 H   0  0  0  0  0  0
  -24.5854  -30.7168   25.7769 H   0  0  0  0  0  0
  -24.9063  -32.2915   26.4991 H   0  0  0  0  0  0
  -25.8094  -30.8787   27.0162 H   0  0  0  0  0  0
  -26.2842  -29.6778   24.1156 H   0  0  0  0  0  0
  -27.4103  -29.7281   25.4552 H   0  0  0  0  0  0
  -27.8689  -30.4337   23.9201 H   0  0  0  0  0  0
  -27.2679  -33.3574   26.2130 H   0  0  0  0  0  0
  -28.3867  -32.6908   25.0278 H   0  0  0  0  0  0
  -28.0785  -31.8371   26.5322 H   0  0  0  0  0  0
  -28.2608  -38.0109   24.7513 H   0  0  0  0  0  0
  -28.1067  -36.2647   24.6290 H   0  0  0  0  0  0
  -27.2306  -37.1490   25.8853 H   0  0  0  0  0  0
  -20.9325  -29.8463   21.6624 H   0  0  0  0  0  0
  -26.0181  -38.2869   24.1418 H   0  0  0  0  0  0
  -25.9856  -20.4631   23.0933 H   0  0  0  0  0  0
  -27.5929  -15.8186   23.2401 H   0  0  0  0  0  0
  -26.0211  -16.2342   22.5764 H   0  0  0  0  0  0
  -26.1667  -15.6228   24.2115 H   0  0  0  0  0  0
  -25.2680  -19.0779   24.9403 H   0  0  0  0  0  0
  -24.8831  -17.3732   25.1299 H   0  0  0  0  0  0
  -24.6019  -18.1481   23.5850 H   0  0  0  0  0  0
  -31.6057  -15.7813   23.2489 H   0  0  0  0  0  0
  -30.1306  -14.9505   23.7942 H   0  0  0  0  0  0
  -31.4205  -14.0450   23.0819 H   0  0  0  0  0  0
  -29.2608  -22.4091   22.7270 H   0  0  0  0  0  0
  -27.5713  -22.6460   22.9323 H   0  0  0  0  0  0
  -27.4009  -22.5463   20.3229 H   0  0  0  0  0  0
  -29.1535  -22.6924   20.3348 H   0  0  0  0  0  0
  -28.7140  -24.8064   21.8832 H   0  0  0  0  0  0
  -27.0709  -24.6892   21.3517 H   0  0  0  0  0  0
  -30.5688  -17.9496   22.8274 H   0  0  0  0  0  0
  -29.3446  -17.0112   23.5865 H   0  0  0  0  0  0
  -30.0827  -17.0191   20.5938 H   0  0  0  0  0  0
  -28.5931  -16.2909   21.1175 H   0  0  0  0  0  0
  -27.8941  -25.0564   18.9205 H   0  0  0  0  0  0
  -29.4919  -25.0896   19.5267 H   0  0  0  0  0  0
  -27.3265  -17.7021   24.8971 H   0  0  0  0  0  0
  1 25  1  0  0  0
  1 30  2  0  0  0
  1 86  1  0  0  0
  2  3  1  0  0  0
  2 25  1  0  0  0
  2 87  1  0  0  0
  2 88  1  0  0  0
  3  4  1  0  0  0
  3 89  1  0  0  0
  3 90  1  0  0  0
  4  5  1  0  0  0
  4 91  1  0  0  0
  4 92  1  0  0  0
  5  6  1  0  0  0
  5 26  1  0  0  0
  5 93  1  0  0  0
  6 25  1  0  0  0
  6 94  1  0  0  0
  6 95  1  0  0  0
  7  8  2  0  0  0
  7 26  1  0  0  0
  7 29  1  0  0  0
  8  9  1  0  0  0
  8 22  1  0  0  0
  9 10  1  0  0  0
  9 27  2  0  0  0
 10 11  2  0  0  0
 10 15  1  0  0  0
 11 12  1  0  0  0
 11 96  1  0  0  0
 12 13  2  0  0  0
 12 97  1  0  0  0
 13 14  1  0  0  0
 13 31  1  0  0  0
 14 15  2  0  0  0
 14 98  1  0  0  0
 15 99  1  0  0  0
 16 17  2  0  0  0
 16 21  1  0  0  0
 16 31  1  0  0  0
 17 18  1  0  0  0
 17100  1  0  0  0
 18 19  2  0  0  0
 18101  1  0  0  0
 19 20  1  0  0  0
 19 24  1  0  0  0
 20 21  2  0  0  0
 20102  1  0  0  0
 21 23  1  0  0  0
 22 28  1  0  0  0
 22 32  2  0  0  0
 26 27  1  0  0  0
 28103  1  0  0  0
 28104  1  0  0  0
 29105  1  0  0  0
 29106  1  0  0  0
 33 34  1  0  0  0
 33 66  1  0  0  0
 33 70  2  0  0  0
 34 36  1  0  0  0
 34 59  1  0  0  0
 34107  1  0  0  0
 35 44  2  0  0  0
 35 45  1  0  0  0
 35 68  1  0  0  0
 36 56  1  0  0  0
 36108  1  0  0  0
 37 39  1  0  0  0
 37 47  1  0  0  0
 37 66  1  0  0  0
 37109  1  0  0  0
 38 43  2  0  0  0
 38 46  1  0  0  0
 38 47  1  0  0  0
 39 64  1  0  0  0
 39 67  2  0  0  0
 40 52  1  0  0  0
 40 53  2  0  0  0
 40 58  1  0  0  0
 41110  1  0  0  0
 41111  1  0  0  0
 41112  1  0  0  0
 41 48  1  0  0  0
 42 43  1  0  0  0
 42 66  1  0  0  0
 42113  1  0  0  0
 42114  1  0  0  0
 43 44  1  0  0  0
 44115  1  0  0  0
 45 46  2  0  0  0
 45116  1  0  0  0
 46117  1  0  0  0
 47118  1  0  0  0
 47119  1  0  0  0
 48 56  1  0  0  0
 48 65  1  0  0  0
 48120  1  0  0  0
 49 50  1  0  0  0
 49 53  1  0  0  0
 49 64  1  0  0  0
 49121  1  0  0  0
 50 51  1  0  0  0
 50122  1  0  0  0
 50123  1  0  0  0
 51 52  1  0  0  0
 51124  1  0  0  0
 51125  1  0  0  0
 52126  1  0  0  0
 52127  1  0  0  0
 53 54  1  0  0  0
 54 55  2  0  0  0
 54128  1  0  0  0
 55 57  1  0  0  0
 55129  1  0  0  0
 56 69  2  0  0  0
 57 58  2  0  0  0
 57130  1  0  0  0
 58131  1  0  0  0
 59 60  1  0  0  0
 59 61  1  0  0  0
 59 62  1  0  0  0
 60132  1  0  0  0
 60133  1  0  0  0
 60134  1  0  0  0
 61135  1  0  0  0
 61136  1  0  0  0
 61137  1  0  0  0
 62138  1  0  0  0
 62139  1  0  0  0
 62140  1  0  0  0
 63 65  1  0  0  0
 63141  1  0  0  0
 63142  1  0  0  0
 63143  1  0  0  0
 64144  1  0  0  0
 65145  1  0  0  0
 68 82  1  0  0  0
 71 72  1  0  0  0
 71 73  2  0  0  0
 71146  1  0  0  0
 72 77  1  0  0  0
 72 84  2  0  0  0
 73 83  1  0  0  0
 73 85  1  0  0  0
 74147  1  0  0  0
 74148  1  0  0  0
 74149  1  0  0  0
 74 83  1  0  0  0
 75 83  1  0  0  0
 75150  1  0  0  0
 75151  1  0  0  0
 75152  1  0  0  0
 76 86  1  0  0  0
 76153  1  0  0  0
 76154  1  0  0  0
 76155  1  0  0  0
 77 78  1  0  0  0
 77156  1  0  0  0
 77157  1  0  0  0
 78 79  1  0  0  0
 78158  1  0  0  0
 78159  1  0  0  0
 79 82  1  0  0  0
 79160  1  0  0  0
 79161  1  0  0  0
 80 81  1  0  0  0
 80 85  1  0  0  0
 80162  1  0  0  0
 80163  1  0  0  0
 81 86  1  0  0  0
 81164  1  0  0  0
 81165  1  0  0  0
 82166  1  0  0  0
 82167  1  0  0  0
 83168  1  0  0  0
 84 85  1  0  0  0
M  ISO  4   1 100  68 101  82 101  86 100
M  END
> <chiral flag>
0

> <version>
0

> <s_m_source_file>
/data/baiqing/PycharmProjects/Reinvent-master-3.2/result/LINK_invent/BTK/process_docking_weight1_custom_sum_contain_oxygen_bond_distance_aromatic_linkinvent_7_9_3/rearranged_h_0090.sdf

> <i_m_source_file_index>
71

> <r_mmod_Potential_Energy-OPLS-2005>
96.4984817504883

> <r_mmod_Stretch_Energy-OPLS-2005>
43.4419631958008

> <r_mmod_Bend_Energy-OPLS-2005>
118.51318359375

> <r_mmod_Torsional_Energy-OPLS-2005>
314.224182128906

> <r_mmod_Improper_Torsional_Energy-OPLS-2005>
6.82430696487427

> <r_mmod_Van_der_Waal_Energy-OPLS-2005>
126.18701171875

> <r_mmod_Electrostatic_Energy-OPLS-2005>
-325.085479736328

> <r_mmod_Solvation_Energy-OPLS-2005>
-199.155838012695

> <b_mmod_Minimization_Converged-OPLS-2005>
0

> <r_mmod_RMS_Derivative-OPLS-2005>
7.26669645309448

$$$$
72
                    3D
 Structure written by MMmdl.
169177  0  0  1  0            999 V2000
  -30.5798  -14.7320   20.4747 C   0  0  0  0  0  0
  -30.4323  -12.4480   19.4663 C   0  0  0  0  0  0
  -29.5052  -12.5056   18.2317 C   0  0  0  0  0  0
  -28.0306  -12.3285   18.6433 C   0  0  0  0  0  0
  -27.6390  -13.2211   19.8511 C   0  0  2  0  0  0
  -28.6806  -13.1299   20.9855 C   0  0  0  0  0  0
  -25.2496  -13.8185   20.5685 C   0  0  0  0  0  0
  -24.1780  -13.0452   20.9220 C   0  0  0  0  0  0
  -24.6340  -11.6922   20.8740 C   0  0  0  0  0  0
  -23.9023  -10.4309   21.0405 C   0  0  0  0  0  0
  -24.3589   -9.4233   21.9172 C   0  0  0  0  0  0
  -23.6287   -8.2247   22.0739 C   0  0  0  0  0  0
  -22.4270   -8.0268   21.3531 C   0  0  0  0  0  0
  -21.9895   -9.0238   20.4629 C   0  0  0  0  0  0
  -22.7202  -10.2133   20.3052 C   0  0  0  0  0  0
  -21.6858   -6.0726   22.5283 C   0  0  0  0  0  0
  -21.4005   -6.5630   23.8217 C   0  0  0  0  0  0
  -21.3664   -5.6787   24.9177 C   0  0  0  0  0  0
  -21.6060   -4.3054   24.7229 C   0  0  0  0  0  0
  -21.8814   -3.8141   23.4356 C   0  0  0  0  0  0
  -21.9193   -4.6958   22.3410 C   0  0  0  0  0  0
  -22.7821  -13.5234   21.1921 C   0  0  0  0  0  0
  -22.1664   -4.2144   21.0994 F   0  0  0  0  0  0
  -21.5639   -3.4542   25.7740 F   0  0  0  0  0  0
  -29.9795  -13.4955   20.4083 N   0  0  0  0  0  0
  -26.2896  -12.9363   20.3262 N   0  0  0  0  0  0
  -25.9265  -11.6519   20.5740 N   0  0  0  0  0  0
  -22.0467  -12.8187   22.0462 N   0  0  0  0  0  0
  -25.4221  -15.1906   20.4061 N   0  0  0  0  0  0
  -31.7671  -14.8628   20.1635 O   0  0  0  0  0  0
  -21.6644   -6.8863   21.4241 O   0  0  0  0  0  0
  -22.3505  -14.5555   20.6816 O   0  0  0  0  0  0
  -24.6275  -31.8548   23.1940 C   0  0  0  0  0  0
  -25.9100  -32.4741   23.8302 C   0  0  1  0  0  0
  -27.2264  -27.2626   20.1301 C   0  0  0  0  0  0
  -25.5897  -33.8546   24.2249 N   0  0  0  0  0  0
  -23.4275  -30.4726   21.5371 C   0  0  2  0  0  0
  -24.8757  -28.9112   20.1070 C   0  0  0  0  0  0
  -22.7500  -29.4579   22.4891 C   0  0  0  0  0  0
  -18.0299  -28.1373   22.8467 C   0  0  0  0  0  0
  -24.1487  -36.7299   23.2648 C   0  0  0  0  0  0
  -25.9710  -30.7646   21.3767 C   0  0  0  0  0  0
  -26.0425  -29.3850   20.7219 C   0  0  0  0  0  0
  -27.2139  -28.5687   20.7274 C   0  0  0  0  0  0
  -26.0459  -26.8558   19.4741 C   0  0  0  0  0  0
  -24.8816  -27.6544   19.4758 C   0  0  0  0  0  0
  -23.6462  -29.7976   20.1551 C   0  0  0  0  0  0
  -25.4119  -36.3076   24.0323 C   0  0  1  0  0  0
  -20.5906  -28.3680   23.1266 C   0  0  2  0  0  0
  -20.6773  -26.9392   22.5425 C   0  0  0  0  0  0
  -19.5754  -26.6366   21.5223 C   0  0  0  0  0  0
  -18.1923  -26.7911   22.1611 C   0  0  0  0  0  0
  -19.1555  -28.8829   23.2855 C   0  0  0  0  0  0
  -18.9470  -30.1426   23.8874 C   0  0  0  0  0  0
  -17.6475  -30.6565   24.0551 C   0  0  0  0  0  0
  -25.9064  -34.9435   23.5105 C   0  0  0  0  0  0
  -16.5364  -29.9068   23.6325 C   0  0  0  0  0  0
  -16.7281  -28.6493   23.0332 C   0  0  0  0  0  0
  -26.4485  -31.6562   25.0695 C   0  0  0  0  0  0
  -25.3679  -31.3701   26.1391 C   0  0  0  0  0  0
  -27.0345  -30.2982   24.6182 C   0  0  0  0  0  0
  -27.6036  -32.4318   25.7449 C   0  0  0  0  0  0
  -27.5580  -37.1792   24.8457 C   0  0  0  0  0  0
  -21.4206  -29.3018   22.3631 N   0  0  0  0  0  0
  -26.4299  -37.3756   23.9390 N   0  0  0  0  0  0
  -24.6945  -31.0496   22.0921 N   0  0  0  0  0  0
  -23.4183  -28.8129   23.3009 O   0  0  0  0  0  0
  -28.3581  -26.4260   20.2079 O   0  0  0  0  0  0
  -26.5649  -34.8898   22.4691 O   0  0  0  0  0  0
  -23.5423  -32.1384   23.7220 O   0  0  0  0  0  0
  -28.6434  -21.1630   20.1656 C   0  0  0  0  0  0
  -28.9530  -21.7467   22.2484 C   0  0  0  0  0  0
  -28.5483  -22.3190   21.0639 C   0  0  0  0  0  0
  -28.9669  -19.9606   20.8304 C   0  0  0  0  0  0
  -30.7316  -18.2776   24.9590 C   0  0  0  0  0  0
  -31.0705  -20.7581   24.6251 C   0  0  0  0  0  0
  -28.1314  -24.5022   22.3623 C   0  0  0  0  0  0
  -26.4201  -23.6321   20.7934 C   0  0  0  0  0  0
  -28.9384  -18.4178   20.4235 C   0  0  0  0  0  0
  -29.2266  -19.5026   23.3320 C   0  0  0  0  0  0
  -30.0982  -17.3278   20.7670 C   0  0  0  0  0  0
  -28.4098  -24.9452   19.9091 C   0  0  0  0  0  0
  -30.6399  -19.4398   23.9552 C   0  0  0  0  0  0
  -27.9346  -23.8261   20.9848 C   0  0  0  0  0  0
  -29.1013  -20.3664   22.1565 N   0  0  0  0  0  0
  -29.7679  -15.8332   20.7026 N   0  0  0  0  0  0
  -31.4712  -12.5861   19.1633 H   0  0  0  0  0  0
  -30.3856  -11.4651   19.9387 H   0  0  0  0  0  0
  -29.7857  -11.7371   17.5108 H   0  0  0  0  0  0
  -29.6294  -13.4624   17.7215 H   0  0  0  0  0  0
  -27.8811  -11.2792   18.8989 H   0  0  0  0  0  0
  -27.3737  -12.5287   17.7967 H   0  0  0  0  0  0
  -27.6404  -14.2459   19.4809 H   0  0  0  0  0  0
  -28.7156  -12.1208   21.3989 H   0  0  0  0  0  0
  -28.4150  -13.7866   21.8143 H   0  0  0  0  0  0
  -25.2729   -9.5732   22.4749 H   0  0  0  0  0  0
  -24.0022   -7.4639   22.7443 H   0  0  0  0  0  0
  -21.0841   -8.8732   19.8923 H   0  0  0  0  0  0
  -22.3637  -10.9666   19.6166 H   0  0  0  0  0  0
  -21.1982   -7.6131   23.9719 H   0  0  0  0  0  0
  -21.1499   -6.0514   25.9082 H   0  0  0  0  0  0
  -22.0592   -2.7604   23.2860 H   0  0  0  0  0  0
  -22.4087  -11.9816   22.4776 H   0  0  0  0  0  0
  -21.1089  -13.1197   22.2720 H   0  0  0  0  0  0
  -24.6505  -15.8428   20.4972 H   0  0  0  0  0  0
  -26.2565  -15.6199   20.0289 H   0  0  0  0  0  0
  -26.7150  -32.5376   23.1021 H   0  0  0  0  0  0
  -24.9971  -33.9666   25.0345 H   0  0  0  0  0  0
  -22.7250  -31.2942   21.3845 H   0  0  0  0  0  0
  -23.3745  -35.9636   23.3315 H   0  0  0  0  0  0
  -24.3598  -36.8939   22.2064 H   0  0  0  0  0  0
  -23.7253  -37.6495   23.6691 H   0  0  0  0  0  0
  -26.1159  -31.5257   20.6085 H   0  0  0  0  0  0
  -26.8447  -30.8105   22.0144 H   0  0  0  0  0  0
  -28.1052  -28.9163   21.2328 H   0  0  0  0  0  0
  -26.0071  -25.9013   18.9689 H   0  0  0  0  0  0
  -23.9890  -27.2884   18.9868 H   0  0  0  0  0  0
  -23.7716  -30.5705   19.3955 H   0  0  0  0  0  0
  -22.7643  -29.2292   19.8533 H   0  0  0  0  0  0
  -25.1300  -36.1942   25.0822 H   0  0  0  0  0  0
  -20.9981  -28.3275   24.1390 H   0  0  0  0  0  0
  -20.5681  -26.2271   23.3626 H   0  0  0  0  0  0
  -21.6635  -26.7427   22.1200 H   0  0  0  0  0  0
  -19.6943  -25.6289   21.1228 H   0  0  0  0  0  0
  -19.6701  -27.3181   20.6762 H   0  0  0  0  0  0
  -17.4206  -26.6652   21.4005 H   0  0  0  0  0  0
  -18.0305  -26.0070   22.9014 H   0  0  0  0  0  0
  -19.7963  -30.7232   24.2221 H   0  0  0  0  0  0
  -17.5046  -31.6240   24.5165 H   0  0  0  0  0  0
  -15.5358  -30.2954   23.7659 H   0  0  0  0  0  0
  -15.8688  -28.0806   22.7038 H   0  0  0  0  0  0
  -24.5885  -30.7039   25.7714 H   0  0  0  0  0  0
  -24.8802  -32.2822   26.4818 H   0  0  0  0  0  0
  -25.7954  -30.8880   27.0193 H   0  0  0  0  0  0
  -26.2935  -29.6690   24.1239 H   0  0  0  0  0  0
  -27.4067  -29.7298   25.4720 H   0  0  0  0  0  0
  -27.8786  -30.4279   23.9408 H   0  0  0  0  0  0
  -27.2698  -33.3667   26.1971 H   0  0  0  0  0  0
  -28.3842  -32.6818   25.0253 H   0  0  0  0  0  0
  -28.0699  -31.8473   26.5385 H   0  0  0  0  0  0
  -28.2577  -38.0102   24.7523 H   0  0  0  0  0  0
  -28.1084  -36.2629   24.6271 H   0  0  0  0  0  0
  -27.2284  -37.1441   25.8854 H   0  0  0  0  0  0
  -20.9376  -29.8780   21.6877 H   0  0  0  0  0  0
  -26.0187  -38.2837   24.1402 H   0  0  0  0  0  0
  -28.3682  -21.1876   19.1194 H   0  0  0  0  0  0
  -29.0223  -22.1870   23.2338 H   0  0  0  0  0  0
  -31.7196  -18.2283   25.4190 H   0  0  0  0  0  0
  -30.5553  -17.3183   24.4695 H   0  0  0  0  0  0
  -29.9971  -18.3810   25.7597 H   0  0  0  0  0  0
  -32.0268  -20.6412   25.1379 H   0  0  0  0  0  0
  -30.3441  -21.0925   25.3679 H   0  0  0  0  0  0
  -31.1998  -21.5577   23.8972 H   0  0  0  0  0  0
  -27.6656  -23.9399   23.1711 H   0  0  0  0  0  0
  -27.6836  -25.4948   22.4012 H   0  0  0  0  0  0
  -29.1910  -24.6216   22.5909 H   0  0  0  0  0  0
  -26.0101  -22.9493   21.5394 H   0  0  0  0  0  0
  -26.1953  -23.2155   19.8118 H   0  0  0  0  0  0
  -25.8759  -24.5691   20.8928 H   0  0  0  0  0  0
  -28.7719  -18.3698   19.3466 H   0  0  0  0  0  0
  -28.0137  -18.0134   20.8378 H   0  0  0  0  0  0
  -28.5102  -19.8530   24.0789 H   0  0  0  0  0  0
  -28.8770  -18.5045   23.0725 H   0  0  0  0  0  0
  -30.4488  -17.4922   21.7837 H   0  0  0  0  0  0
  -30.9656  -17.5233   20.1350 H   0  0  0  0  0  0
  -27.9649  -24.7508   18.9336 H   0  0  0  0  0  0
  -29.4732  -24.7674   19.7484 H   0  0  0  0  0  0
  -31.3513  -19.2309   23.1559 H   0  0  0  0  0  0
  -28.8054  -15.5996   20.8935 H   0  0  0  0  0  0
  1 25  1  0  0  0
  1 30  2  0  0  0
  1 86  1  0  0  0
  2  3  1  0  0  0
  2 25  1  0  0  0
  2 87  1  0  0  0
  2 88  1  0  0  0
  3  4  1  0  0  0
  3 89  1  0  0  0
  3 90  1  0  0  0
  4  5  1  0  0  0
  4 91  1  0  0  0
  4 92  1  0  0  0
  5  6  1  0  0  0
  5 26  1  0  0  0
  5 93  1  0  0  0
  6 25  1  0  0  0
  6 94  1  0  0  0
  6 95  1  0  0  0
  7  8  2  0  0  0
  7 26  1  0  0  0
  7 29  1  0  0  0
  8  9  1  0  0  0
  8 22  1  0  0  0
  9 10  1  0  0  0
  9 27  2  0  0  0
 10 11  2  0  0  0
 10 15  1  0  0  0
 11 12  1  0  0  0
 11 96  1  0  0  0
 12 13  2  0  0  0
 12 97  1  0  0  0
 13 14  1  0  0  0
 13 31  1  0  0  0
 14 15  2  0  0  0
 14 98  1  0  0  0
 15 99  1  0  0  0
 16 17  2  0  0  0
 16 21  1  0  0  0
 16 31  1  0  0  0
 17 18  1  0  0  0
 17100  1  0  0  0
 18 19  2  0  0  0
 18101  1  0  0  0
 19 20  1  0  0  0
 19 24  1  0  0  0
 20 21  2  0  0  0
 20102  1  0  0  0
 21 23  1  0  0  0
 22 28  1  0  0  0
 22 32  2  0  0  0
 26 27  1  0  0  0
 28103  1  0  0  0
 28104  1  0  0  0
 29105  1  0  0  0
 29106  1  0  0  0
 33 34  1  0  0  0
 33 66  1  0  0  0
 33 70  2  0  0  0
 34 36  1  0  0  0
 34 59  1  0  0  0
 34107  1  0  0  0
 35 44  2  0  0  0
 35 45  1  0  0  0
 35 68  1  0  0  0
 36 56  1  0  0  0
 36108  1  0  0  0
 37 39  1  0  0  0
 37 47  1  0  0  0
 37 66  1  0  0  0
 37109  1  0  0  0
 38 43  2  0  0  0
 38 46  1  0  0  0
 38 47  1  0  0  0
 39 64  1  0  0  0
 39 67  2  0  0  0
 40 52  1  0  0  0
 40 53  2  0  0  0
 40 58  1  0  0  0
 41110  1  0  0  0
 41111  1  0  0  0
 41112  1  0  0  0
 41 48  1  0  0  0
 42 43  1  0  0  0
 42 66  1  0  0  0
 42113  1  0  0  0
 42114  1  0  0  0
 43 44  1  0  0  0
 44115  1  0  0  0
 45 46  2  0  0  0
 45116  1  0  0  0
 46117  1  0  0  0
 47118  1  0  0  0
 47119  1  0  0  0
 48 56  1  0  0  0
 48 65  1  0  0  0
 48120  1  0  0  0
 49 50  1  0  0  0
 49 53  1  0  0  0
 49 64  1  0  0  0
 49121  1  0  0  0
 50 51  1  0  0  0
 50122  1  0  0  0
 50123  1  0  0  0
 51 52  1  0  0  0
 51124  1  0  0  0
 51125  1  0  0  0
 52126  1  0  0  0
 52127  1  0  0  0
 53 54  1  0  0  0
 54 55  2  0  0  0
 54128  1  0  0  0
 55 57  1  0  0  0
 55129  1  0  0  0
 56 69  2  0  0  0
 57 58  2  0  0  0
 57130  1  0  0  0
 58131  1  0  0  0
 59 60  1  0  0  0
 59 61  1  0  0  0
 59 62  1  0  0  0
 60132  1  0  0  0
 60133  1  0  0  0
 60134  1  0  0  0
 61135  1  0  0  0
 61136  1  0  0  0
 61137  1  0  0  0
 62138  1  0  0  0
 62139  1  0  0  0
 62140  1  0  0  0
 63 65  1  0  0  0
 63141  1  0  0  0
 63142  1  0  0  0
 63143  1  0  0  0
 64144  1  0  0  0
 65145  1  0  0  0
 68 82  1  0  0  0
 71 73  1  0  0  0
 71 74  2  0  0  0
 71146  1  0  0  0
 72 73  2  0  0  0
 72 85  1  0  0  0
 72147  1  0  0  0
 73 84  1  0  0  0
 74 79  1  0  0  0
 74 85  1  0  0  0
 75148  1  0  0  0
 75149  1  0  0  0
 75150  1  0  0  0
 75 83  1  0  0  0
 76 83  1  0  0  0
 76151  1  0  0  0
 76152  1  0  0  0
 76153  1  0  0  0
 77154  1  0  0  0
 77155  1  0  0  0
 77156  1  0  0  0
 77 84  1  0  0  0
 78 84  1  0  0  0
 78157  1  0  0  0
 78158  1  0  0  0
 78159  1  0  0  0
 79 81  1  0  0  0
 79160  1  0  0  0
 79161  1  0  0  0
 80 83  1  0  0  0
 80 85  1  0  0  0
 80162  1  0  0  0
 80163  1  0  0  0
 81 86  1  0  0  0
 81164  1  0  0  0
 81165  1  0  0  0
 82 84  1  0  0  0
 82166  1  0  0  0
 82167  1  0  0  0
 83168  1  0  0  0
 86169  1  0  0  0
M  ISO  4   1 100  68 101  82 101  86 100
M  END
> <chiral flag>
0

> <version>
0

> <s_m_source_file>
/data/baiqing/PycharmProjects/Reinvent-master-3.2/result/LINK_invent/BTK/process_docking_weight1_custom_sum_contain_oxygen_bond_distance_aromatic_linkinvent_7_9_3/rearranged_h_0090.sdf

> <i_m_source_file_index>
72

> <r_mmod_Potential_Energy-OPLS-2005>
196.089691162109

> <r_mmod_Stretch_Energy-OPLS-2005>
134.782516479492

> <r_mmod_Bend_Energy-OPLS-2005>
210.941177368164

> <r_mmod_Torsional_Energy-OPLS-2005>
237.563659667969

> <r_mmod_Improper_Torsional_Energy-OPLS-2005>
8.01407432556152

> <r_mmod_Van_der_Waal_Energy-OPLS-2005>
114.509605407715

> <r_mmod_Electrostatic_Energy-OPLS-2005>
-387.132659912109

> <r_mmod_Solvation_Energy-OPLS-2005>
-202.30744934082

> <b_mmod_Minimization_Converged-OPLS-2005>
0

> <r_mmod_RMS_Derivative-OPLS-2005>
2.83611750602722

$$$$
73
                    3D
 Structure written by MMmdl.
175183  0  0  1  0            999 V2000
  -30.8560  -14.2815   20.7626 C   0  0  0  0  0  0
  -30.4068  -12.2940   19.3826 C   0  0  0  0  0  0
  -29.4759  -12.5603   18.1899 C   0  0  0  0  0  0
  -28.0083  -12.3910   18.6122 C   0  0  0  0  0  0
  -27.6693  -13.2124   19.8822 C   0  0  2  0  0  0
  -28.7106  -12.9797   21.0038 C   0  0  0  0  0  0
  -25.2610  -13.8177   20.5691 C   0  0  0  0  0  0
  -24.1853  -13.0446   20.9172 C   0  0  0  0  0  0
  -24.6416  -11.6914   20.8721 C   0  0  0  0  0  0
  -23.9082  -10.4301   21.0394 C   0  0  0  0  0  0
  -24.3628   -9.4215   21.9176 C   0  0  0  0  0  0
  -23.6296   -8.2249   22.0751 C   0  0  0  0  0  0
  -22.4274   -8.0293   21.3544 C   0  0  0  0  0  0
  -21.9916   -9.0264   20.4641 C   0  0  0  0  0  0
  -22.7255  -10.2141   20.3047 C   0  0  0  0  0  0
  -21.6851   -6.0743   22.5278 C   0  0  0  0  0  0
  -21.4019   -6.5642   23.8220 C   0  0  0  0  0  0
  -21.3661   -5.6798   24.9176 C   0  0  0  0  0  0
  -21.6045   -4.3056   24.7227 C   0  0  0  0  0  0
  -21.8818   -3.8151   23.4341 C   0  0  0  0  0  0
  -21.9192   -4.6966   22.3405 C   0  0  0  0  0  0
  -22.7877  -13.5240   21.1839 C   0  0  0  0  0  0
  -22.1657   -4.2152   21.0978 F   0  0  0  0  0  0
  -21.5628   -3.4542   25.7734 F   0  0  0  0  0  0
  -30.0649  -13.2203   20.4707 N   0  0  0  0  0  0
  -26.3073  -12.9364   20.3417 N   0  0  0  0  0  0
  -25.9353  -11.6511   20.5772 N   0  0  0  0  0  0
  -22.0520  -12.8223   22.0385 N   0  0  0  0  0  0
  -25.4333  -15.1895   20.4109 N   0  0  0  0  0  0
  -31.7522  -14.6889   20.0206 O   0  0  0  0  0  0
  -21.6639   -6.8878   21.4238 O   0  0  0  0  0  0
  -22.3556  -14.5549   20.6696 O   0  0  0  0  0  0
  -24.6136  -31.8711   23.2102 C   0  0  0  0  0  0
  -25.9028  -32.4851   23.8385 C   0  0  1  0  0  0
  -27.2188  -27.4492   20.0804 C   0  0  0  0  0  0
  -25.5849  -33.8625   24.2335 N   0  0  0  0  0  0
  -23.4000  -30.5043   21.5462 C   0  0  2  0  0  0
  -24.8382  -28.9751   20.1146 C   0  0  0  0  0  0
  -22.7396  -29.4722   22.4904 C   0  0  0  0  0  0
  -18.0283  -28.1427   22.8513 C   0  0  0  0  0  0
  -24.1462  -36.7315   23.2661 C   0  0  0  0  0  0
  -25.9282  -30.8476   21.3590 C   0  0  0  0  0  0
  -25.9998  -29.4821   20.7072 C   0  0  0  0  0  0
  -27.1928  -28.7276   20.6863 C   0  0  0  0  0  0
  -26.0285  -26.9517   19.4956 C   0  0  0  0  0  0
  -24.8463  -27.7094   19.5118 C   0  0  0  0  0  0
  -23.6089  -29.8504   20.1566 C   0  0  0  0  0  0
  -25.4084  -36.3129   24.0375 C   0  0  1  0  0  0
  -20.5881  -28.3718   23.1297 C   0  0  2  0  0  0
  -20.6774  -26.9450   22.5415 C   0  0  0  0  0  0
  -19.5742  -26.6432   21.5216 C   0  0  0  0  0  0
  -18.1921  -26.7975   22.1627 C   0  0  0  0  0  0
  -19.1538  -28.8874   23.2915 C   0  0  0  0  0  0
  -18.9473  -30.1470   23.8949 C   0  0  0  0  0  0
  -17.6479  -30.6620   24.0605 C   0  0  0  0  0  0
  -25.9013  -34.9492   23.5154 C   0  0  0  0  0  0
  -16.5372  -29.9152   23.6310 C   0  0  0  0  0  0
  -16.7270  -28.6561   23.0343 C   0  0  0  0  0  0
  -26.4475  -31.6605   25.0685 C   0  0  0  0  0  0
  -25.3776  -31.3698   26.1470 C   0  0  0  0  0  0
  -27.0326  -30.3065   24.6032 C   0  0  0  0  0  0
  -27.6063  -32.4324   25.7418 C   0  0  0  0  0  0
  -27.5562  -37.1811   24.8480 C   0  0  0  0  0  0
  -21.4114  -29.3093   22.3671 N   0  0  0  0  0  0
  -26.4260  -37.3829   23.9450 N   0  0  0  0  0  0
  -24.6664  -31.0883   22.0978 N   0  0  0  0  0  0
  -23.4176  -28.8239   23.2914 O   0  0  0  0  0  0
  -28.4222  -26.7764   20.0411 O   0  0  0  0  0  0
  -26.5590  -34.8944   22.4732 O   0  0  0  0  0  0
  -23.5323  -32.1397   23.7531 O   0  0  0  0  0  0
  -30.3997  -20.4174   21.9266 C   0  0  0  0  0  0
  -30.1626  -19.0680   21.9985 C   0  0  0  0  0  0
  -28.3737  -20.1373   22.7948 C   0  0  0  0  0  0
  -27.3716  -17.0438   25.6227 C   0  0  0  0  0  0
  -25.1417  -17.6597   24.6155 C   0  0  0  0  0  0
  -30.9714  -17.8503   21.6920 C   0  0  0  0  0  0
  -27.0450  -20.2699   23.4805 C   0  0  0  0  0  0
  -31.1663  -17.0037   22.9657 C   0  0  0  0  0  0
  -26.9922  -19.4212   24.7732 C   0  0  0  0  0  0
  -28.7697  -23.1571   21.1357 C   0  0  0  0  0  0
  -28.4257  -24.6555   21.2242 C   0  0  0  0  0  0
  -29.1026  -22.5234   22.5018 C   0  0  0  0  0  0
  -31.7147  -15.5929   22.7067 C   0  0  0  0  0  0
  -28.4583  -25.3592   19.8547 C   0  0  0  0  0  0
  -26.6548  -17.9179   24.5816 C   0  0  0  0  0  0
  -29.2786  -21.0594   22.4050 N   0  0  0  0  0  0
  -28.8965  -18.9499   22.4897 N   0  3  0  0  0  0
  -30.7467  -14.7256   22.0229 N   0  0  0  0  0  0
  -31.4513  -12.3839   19.0775 H   0  0  0  0  0  0
  -30.2870  -11.2689   19.7360 H   0  0  0  0  0  0
  -29.7143  -11.8894   17.3642 H   0  0  0  0  0  0
  -29.6363  -13.5743   17.8175 H   0  0  0  0  0  0
  -27.8285  -11.3305   18.7917 H   0  0  0  0  0  0
  -27.3480  -12.6796   17.7933 H   0  0  0  0  0  0
  -27.7182  -14.2646   19.6002 H   0  0  0  0  0  0
  -28.6538  -11.9544   21.3716 H   0  0  0  0  0  0
  -28.4696  -13.6202   21.8527 H   0  0  0  0  0  0
  -25.2775   -9.5683   22.4749 H   0  0  0  0  0  0
  -24.0007   -7.4640   22.7476 H   0  0  0  0  0  0
  -21.0847   -8.8787   19.8948 H   0  0  0  0  0  0
  -22.3722  -10.9673   19.6151 H   0  0  0  0  0  0
  -21.2011   -7.6153   23.9719 H   0  0  0  0  0  0
  -21.1487   -6.0526   25.9083 H   0  0  0  0  0  0
  -22.0593   -2.7609   23.2844 H   0  0  0  0  0  0
  -22.4144  -11.9882   22.4755 H   0  0  0  0  0  0
  -21.1144  -13.1242   22.2612 H   0  0  0  0  0  0
  -24.6677  -15.8475   20.5076 H   0  0  0  0  0  0
  -26.2950  -15.6243   20.1046 H   0  0  0  0  0  0
  -26.7101  -32.5608   23.1147 H   0  0  0  0  0  0
  -24.9951  -33.9757   25.0455 H   0  0  0  0  0  0
  -22.6889  -31.3230   21.4119 H   0  0  0  0  0  0
  -23.3718  -35.9645   23.3333 H   0  0  0  0  0  0
  -24.3547  -36.8897   22.2067 H   0  0  0  0  0  0
  -23.7186  -37.6518   23.6659 H   0  0  0  0  0  0
  -26.0361  -31.6165   20.5908 H   0  0  0  0  0  0
  -26.8176  -30.9037   21.9755 H   0  0  0  0  0  0
  -28.0942  -29.1249   21.1321 H   0  0  0  0  0  0
  -25.9811  -26.0026   18.9877 H   0  0  0  0  0  0
  -23.9508  -27.3242   19.0429 H   0  0  0  0  0  0
  -23.7418  -30.6293   19.4024 H   0  0  0  0  0  0
  -22.7302  -29.2872   19.8437 H   0  0  0  0  0  0
  -25.1257  -36.1969   25.0863 H   0  0  0  0  0  0
  -21.0021  -28.3312   24.1404 H   0  0  0  0  0  0
  -20.5645  -26.2352   23.3611 H   0  0  0  0  0  0
  -21.6650  -26.7486   22.1231 H   0  0  0  0  0  0
  -19.6886  -25.6347   21.1228 H   0  0  0  0  0  0
  -19.6663  -27.3265   20.6757 H   0  0  0  0  0  0
  -17.4191  -26.6752   21.4016 H   0  0  0  0  0  0
  -18.0311  -26.0110   22.9012 H   0  0  0  0  0  0
  -19.7953  -30.7278   24.2333 H   0  0  0  0  0  0
  -17.5047  -31.6298   24.5229 H   0  0  0  0  0  0
  -15.5388  -30.3106   23.7566 H   0  0  0  0  0  0
  -15.8674  -28.0910   22.7031 H   0  0  0  0  0  0
  -24.5886  -30.7128   25.7781 H   0  0  0  0  0  0
  -24.9069  -32.2875   26.5006 H   0  0  0  0  0  0
  -25.8162  -30.8755   27.0143 H   0  0  0  0  0  0
  -26.2839  -29.6735   24.1272 H   0  0  0  0  0  0
  -27.4324  -29.7376   25.4420 H   0  0  0  0  0  0
  -27.8562  -30.4408   23.9023 H   0  0  0  0  0  0
  -27.2696  -33.3618   26.2016 H   0  0  0  0  0  0
  -28.3860  -32.6867   25.0233 H   0  0  0  0  0  0
  -28.0753  -31.8422   26.5291 H   0  0  0  0  0  0
  -28.2618  -38.0077   24.7535 H   0  0  0  0  0  0
  -28.1010  -36.2604   24.6304 H   0  0  0  0  0  0
  -27.2282  -37.1488   25.8883 H   0  0  0  0  0  0
  -20.9220  -29.8898   21.7009 H   0  0  0  0  0  0
  -26.0134  -38.2882   24.1503 H   0  0  0  0  0  0
  -31.2761  -20.9562   21.5888 H   0  0  0  0  0  0
  -27.0896  -15.9969   25.5143 H   0  0  0  0  0  0
  -27.1340  -17.3460   26.6440 H   0  0  0  0  0  0
  -28.4539  -17.0922   25.5022 H   0  0  0  0  0  0
  -24.9187  -16.6041   24.4569 H   0  0  0  0  0  0
  -24.6292  -18.2178   23.8326 H   0  0  0  0  0  0
  -24.7075  -17.9459   25.5753 H   0  0  0  0  0  0
  -31.9393  -18.1359   21.2778 H   0  0  0  0  0  0
  -30.4520  -17.2798   20.9205 H   0  0  0  0  0  0
  -26.2781  -19.9712   22.7656 H   0  0  0  0  0  0
  -26.8758  -21.3173   23.7174 H   0  0  0  0  0  0
  -30.2292  -16.9050   23.5136 H   0  0  0  0  0  0
  -31.8375  -17.5402   23.6385 H   0  0  0  0  0  0
  -26.2604  -19.8582   25.4540 H   0  0  0  0  0  0
  -27.9512  -19.5284   25.2836 H   0  0  0  0  0  0
  -29.6301  -23.0206   20.4785 H   0  0  0  0  0  0
  -27.9409  -22.6231   20.6674 H   0  0  0  0  0  0
  -27.4433  -24.7846   21.6797 H   0  0  0  0  0  0
  -29.1413  -25.1487   21.8821 H   0  0  0  0  0  0
  -28.3441  -22.7655   23.2433 H   0  0  0  0  0  0
  -30.0339  -22.9445   22.8829 H   0  0  0  0  0  0
  -31.9609  -15.1269   23.6628 H   0  0  0  0  0  0
  -32.6588  -15.6588   22.1625 H   0  0  0  0  0  0
  -29.4040  -25.1414   19.3605 H   0  0  0  0  0  0
  -27.7022  -24.9535   19.1865 H   0  0  0  0  0  0
  -27.0023  -17.5804   23.6051 H   0  0  0  0  0  0
  -28.4189  -18.0730   22.6538 H   0  0  0  0  0  0
  -30.0373  -14.2845   22.5912 H   0  0  0  0  0  0
  1 25  1  0  0  0
  1 30  2  0  0  0
  1 88  1  0  0  0
  2  3  1  0  0  0
  2 25  1  0  0  0
  2 89  1  0  0  0
  2 90  1  0  0  0
  3  4  1  0  0  0
  3 91  1  0  0  0
  3 92  1  0  0  0
  4  5  1  0  0  0
  4 93  1  0  0  0
  4 94  1  0  0  0
  5  6  1  0  0  0
  5 26  1  0  0  0
  5 95  1  0  0  0
  6 25  1  0  0  0
  6 96  1  0  0  0
  6 97  1  0  0  0
  7  8  2  0  0  0
  7 26  1  0  0  0
  7 29  1  0  0  0
  8  9  1  0  0  0
  8 22  1  0  0  0
  9 10  1  0  0  0
  9 27  2  0  0  0
 10 11  2  0  0  0
 10 15  1  0  0  0
 11 12  1  0  0  0
 11 98  1  0  0  0
 12 13  2  0  0  0
 12 99  1  0  0  0
 13 14  1  0  0  0
 13 31  1  0  0  0
 14 15  2  0  0  0
 14100  1  0  0  0
 15101  1  0  0  0
 16 17  2  0  0  0
 16 21  1  0  0  0
 16 31  1  0  0  0
 17 18  1  0  0  0
 17102  1  0  0  0
 18 19  2  0  0  0
 18103  1  0  0  0
 19 20  1  0  0  0
 19 24  1  0  0  0
 20 21  2  0  0  0
 20104  1  0  0  0
 21 23  1  0  0  0
 22 28  1  0  0  0
 22 32  2  0  0  0
 26 27  1  0  0  0
 28105  1  0  0  0
 28106  1  0  0  0
 29107  1  0  0  0
 29108  1  0  0  0
 33 34  1  0  0  0
 33 66  1  0  0  0
 33 70  2  0  0  0
 34 36  1  0  0  0
 34 59  1  0  0  0
 34109  1  0  0  0
 35 44  2  0  0  0
 35 45  1  0  0  0
 35 68  1  0  0  0
 36 56  1  0  0  0
 36110  1  0  0  0
 37 39  1  0  0  0
 37 47  1  0  0  0
 37 66  1  0  0  0
 37111  1  0  0  0
 38 43  2  0  0  0
 38 46  1  0  0  0
 38 47  1  0  0  0
 39 64  1  0  0  0
 39 67  2  0  0  0
 40 52  1  0  0  0
 40 53  2  0  0  0
 40 58  1  0  0  0
 41112  1  0  0  0
 41113  1  0  0  0
 41114  1  0  0  0
 41 48  1  0  0  0
 42 43  1  0  0  0
 42 66  1  0  0  0
 42115  1  0  0  0
 42116  1  0  0  0
 43 44  1  0  0  0
 44117  1  0  0  0
 45 46  2  0  0  0
 45118  1  0  0  0
 46119  1  0  0  0
 47120  1  0  0  0
 47121  1  0  0  0
 48 56  1  0  0  0
 48 65  1  0  0  0
 48122  1  0  0  0
 49 50  1  0  0  0
 49 53  1  0  0  0
 49 64  1  0  0  0
 49123  1  0  0  0
 50 51  1  0  0  0
 50124  1  0  0  0
 50125  1  0  0  0
 51 52  1  0  0  0
 51126  1  0  0  0
 51127  1  0  0  0
 52128  1  0  0  0
 52129  1  0  0  0
 53 54  1  0  0  0
 54 55  2  0  0  0
 54130  1  0  0  0
 55 57  1  0  0  0
 55131  1  0  0  0
 56 69  2  0  0  0
 57 58  2  0  0  0
 57132  1  0  0  0
 58133  1  0  0  0
 59 60  1  0  0  0
 59 61  1  0  0  0
 59 62  1  0  0  0
 60134  1  0  0  0
 60135  1  0  0  0
 60136  1  0  0  0
 61137  1  0  0  0
 61138  1  0  0  0
 61139  1  0  0  0
 62140  1  0  0  0
 62141  1  0  0  0
 62142  1  0  0  0
 63 65  1  0  0  0
 63143  1  0  0  0
 63144  1  0  0  0
 63145  1  0  0  0
 64146  1  0  0  0
 65147  1  0  0  0
 68 84  1  0  0  0
 71 72  2  0  0  0
 71 86  1  0  0  0
 71148  1  0  0  0
 72 76  1  0  0  0
 72 87  1  0  0  0
 73 77  1  0  0  0
 73 86  1  0  0  0
 73 87  2  0  0  0
 74149  1  0  0  0
 74150  1  0  0  0
 74151  1  0  0  0
 74 85  1  0  0  0
 75 85  1  0  0  0
 75152  1  0  0  0
 75153  1  0  0  0
 75154  1  0  0  0
 76 78  1  0  0  0
 76155  1  0  0  0
 76156  1  0  0  0
 77 79  1  0  0  0
 77157  1  0  0  0
 77158  1  0  0  0
 78 83  1  0  0  0
 78159  1  0  0  0
 78160  1  0  0  0
 79 85  1  0  0  0
 79161  1  0  0  0
 79162  1  0  0  0
 80 81  1  0  0  0
 80 82  1  0  0  0
 80163  1  0  0  0
 80164  1  0  0  0
 81 84  1  0  0  0
 81165  1  0  0  0
 81166  1  0  0  0
 82 86  1  0  0  0
 82167  1  0  0  0
 82168  1  0  0  0
 83 88  1  0  0  0
 83169  1  0  0  0
 83170  1  0  0  0
 84171  1  0  0  0
 84172  1  0  0  0
 85173  1  0  0  0
 87174  1  0  0  0
 88175  1  0  0  0
M  CHG  1  87   1
M  ISO  4   1 100  68 101  84 101  88 100
M  END
> <chiral flag>
0

> <version>
0

> <s_m_source_file>
/data/baiqing/PycharmProjects/Reinvent-master-3.2/result/LINK_invent/BTK/process_docking_weight1_custom_sum_contain_oxygen_bond_distance_aromatic_linkinvent_7_9_3/rearranged_h_0090.sdf

> <i_m_source_file_index>
73

> <r_mmod_Potential_Energy-OPLS-2005>
-82.3671646118164

> <r_mmod_Stretch_Energy-OPLS-2005>
33.1719398498535

> <r_mmod_Bend_Energy-OPLS-2005>
104.544502258301

> <r_mmod_Torsional_Energy-OPLS-2005>
238.771514892578

> <r_mmod_Improper_Torsional_Energy-OPLS-2005>
4.89015340805054

> <r_mmod_Van_der_Waal_Energy-OPLS-2005>
125.556335449219

> <r_mmod_Electrostatic_Energy-OPLS-2005>
-202.093521118164

> <r_mmod_Solvation_Energy-OPLS-2005>
-398.022186279297

> <b_mmod_Minimization_Converged-OPLS-2005>
0

> <r_mmod_RMS_Derivative-OPLS-2005>
3.98338794708252

$$$$
74
                    3D
 Structure written by MMmdl.
176184  0  0  1  0            999 V2000
  -30.7005  -14.5479   20.7066 C   0  0  0  0  0  0
  -30.4448  -12.3956   19.4486 C   0  0  0  0  0  0
  -29.5171  -12.5905   18.2298 C   0  0  0  0  0  0
  -28.0321  -12.4271   18.6252 C   0  0  0  0  0  0
  -27.6768  -13.2233   19.9158 C   0  0  2  0  0  0
  -28.7290  -12.9413   21.0204 C   0  0  0  0  0  0
  -25.2553  -13.8114   20.5693 C   0  0  0  0  0  0
  -24.1873  -13.0350   20.9188 C   0  0  0  0  0  0
  -24.6499  -11.6834   20.8745 C   0  0  0  0  0  0
  -23.9170  -10.4224   21.0347 C   0  0  0  0  0  0
  -24.3686   -9.4063   21.9072 C   0  0  0  0  0  0
  -23.6296   -8.2188   22.0662 C   0  0  0  0  0  0
  -22.4254   -8.0290   21.3509 C   0  0  0  0  0  0
  -21.9937   -9.0313   20.4610 C   0  0  0  0  0  0
  -22.7293  -10.2173   20.3068 C   0  0  0  0  0  0
  -21.6847   -6.0748   22.5255 C   0  0  0  0  0  0
  -21.4055   -6.5669   23.8205 C   0  0  0  0  0  0
  -21.3715   -5.6832   24.9178 C   0  0  0  0  0  0
  -21.6075   -4.3098   24.7222 C   0  0  0  0  0  0
  -21.8828   -3.8178   23.4331 C   0  0  0  0  0  0
  -21.9171   -4.6983   22.3371 C   0  0  0  0  0  0
  -22.7894  -13.5136   21.1888 C   0  0  0  0  0  0
  -22.1633   -4.2147   21.0971 F   0  0  0  0  0  0
  -21.5648   -3.4576   25.7710 F   0  0  0  0  0  0
  -30.0421  -13.3530   20.5089 N   0  0  0  0  0  0
  -26.3115  -12.9371   20.3583 N   0  0  0  0  0  0
  -25.9448  -11.6492   20.5798 N   0  0  0  0  0  0
  -22.0505  -12.8057   22.0334 N   0  0  0  0  0  0
  -25.4072  -15.1814   20.3925 N   0  0  0  0  0  0
  -31.6252  -14.8247   19.9328 O   0  0  0  0  0  0
  -21.6575   -6.8902   21.4230 O   0  0  0  0  0  0
  -22.3594  -14.5528   20.6845 O   0  0  0  0  0  0
  -24.6251  -31.8591   23.2030 C   0  0  0  0  0  0
  -25.9118  -32.4769   23.8345 C   0  0  1  0  0  0
  -27.2521  -27.3569   20.0946 C   0  0  0  0  0  0
  -25.5937  -33.8559   24.2320 N   0  0  0  0  0  0
  -23.4229  -30.4828   21.5409 C   0  0  2  0  0  0
  -24.8717  -28.9423   20.1116 C   0  0  0  0  0  0
  -22.7498  -29.4636   22.4913 C   0  0  0  0  0  0
  -18.0290  -28.1396   22.8475 C   0  0  0  0  0  0
  -24.1472  -36.7281   23.2640 C   0  0  0  0  0  0
  -25.9581  -30.8151   21.3522 C   0  0  0  0  0  0
  -26.0394  -29.4397   20.7027 C   0  0  0  0  0  0
  -27.2281  -28.6581   20.6818 C   0  0  0  0  0  0
  -26.0482  -26.8923   19.5118 C   0  0  0  0  0  0
  -24.8764  -27.6766   19.5054 C   0  0  0  0  0  0
  -23.6391  -29.8176   20.1588 C   0  0  0  0  0  0
  -25.4087  -36.3085   24.0359 C   0  0  1  0  0  0
  -20.5887  -28.3710   23.1272 C   0  0  2  0  0  0
  -20.6761  -26.9418   22.5434 C   0  0  0  0  0  0
  -19.5754  -26.6394   21.5220 C   0  0  0  0  0  0
  -18.1923  -26.7935   22.1623 C   0  0  0  0  0  0
  -19.1539  -28.8865   23.2872 C   0  0  0  0  0  0
  -18.9464  -30.1439   23.8921 C   0  0  0  0  0  0
  -17.6464  -30.6579   24.0553 C   0  0  0  0  0  0
  -25.9030  -34.9457   23.5147 C   0  0  0  0  0  0
  -16.5354  -29.9110   23.6266 C   0  0  0  0  0  0
  -16.7273  -28.6518   23.0313 C   0  0  0  0  0  0
  -26.4536  -31.6518   25.0659 C   0  0  0  0  0  0
  -25.3792  -31.3604   26.1408 C   0  0  0  0  0  0
  -27.0378  -30.2967   24.5992 C   0  0  0  0  0  0
  -27.6149  -32.4189   25.7418 C   0  0  0  0  0  0
  -27.5580  -37.1779   24.8474 C   0  0  0  0  0  0
  -21.4204  -29.3078   22.3688 N   0  0  0  0  0  0
  -26.4272  -37.3777   23.9436 N   0  0  0  0  0  0
  -24.6895  -31.0655   22.0927 N   0  0  0  0  0  0
  -23.4246  -28.8138   23.2944 O   0  0  0  0  0  0
  -28.4320  -26.6023   20.1220 O   0  0  0  0  0  0
  -26.5601  -34.8924   22.4715 O   0  0  0  0  0  0
  -23.5402  -32.1399   23.7360 O   0  0  0  0  0  0
  -27.8332  -19.7560   21.3364 C   0  0  0  0  0  0
  -29.8396  -18.8420   21.3046 C   0  0  0  0  0  0
  -29.1854  -20.0526   21.0778 C   0  0  0  0  0  0
  -27.6951  -18.4791   21.8129 C   0  0  0  0  0  0
  -25.1481  -18.5554   21.6562 C   0  0  0  0  0  0
  -26.2708  -18.3922   23.8859 C   0  0  0  0  0  0
  -27.7901  -24.2554   21.8115 C   0  0  0  0  0  0
  -28.2059  -15.6164   22.9779 C   0  0  0  0  0  0
  -29.7290  -21.4793   20.7389 C   0  0  0  0  0  0
  -28.7586  -22.5831   20.1133 C   0  0  0  0  0  0
  -32.0021  -16.1117   22.2990 C   0  0  0  0  0  0
  -28.5406  -25.2293   19.6038 C   0  0  0  0  0  0
  -26.3790  -18.0018   22.3978 C   0  0  0  0  0  0
  -30.5937  -15.4885   21.9969 C   0  0  2  0  0  0
  -28.7983  -24.0815   20.6664 C   0  0  1  0  0  0
  -29.3600  -16.4702   22.4162 C   0  0  1  0  0  0
  -28.9670  -17.8333   21.7937 N   0  0  0  0  0  0
  -32.3072  -16.3374   23.7334 N   0  3  0  0  0  0
  -31.4922  -12.5173   19.1669 H   0  0  0  0  0  0
  -30.3775  -11.3695   19.8150 H   0  0  0  0  0  0
  -29.7782  -11.8904   17.4355 H   0  0  0  0  0  0
  -29.6849  -13.5901   17.8201 H   0  0  0  0  0  0
  -27.8317  -11.3638   18.7649 H   0  0  0  0  0  0
  -27.3885  -12.7443   17.8048 H   0  0  0  0  0  0
  -27.7354  -14.2841   19.6694 H   0  0  0  0  0  0
  -28.7356  -11.8709   21.2391 H   0  0  0  0  0  0
  -28.4939  -13.3680   21.9789 H   0  0  0  0  0  0
  -25.2880   -9.5379   22.4567 H   0  0  0  0  0  0
  -24.0033   -7.4496   22.7253 H   0  0  0  0  0  0
  -21.0899   -8.8861   19.8898 H   0  0  0  0  0  0
  -22.3739  -10.9821   19.6267 H   0  0  0  0  0  0
  -21.2118   -7.6175   23.9721 H   0  0  0  0  0  0
  -21.1628   -6.0582   25.9087 H   0  0  0  0  0  0
  -22.0629   -2.7640   23.2845 H   0  0  0  0  0  0
  -22.3984  -11.9516   22.4443 H   0  0  0  0  0  0
  -21.1276  -13.1301   22.2905 H   0  0  0  0  0  0
  -24.6193  -15.8148   20.4730 H   0  0  0  0  0  0
  -26.2609  -15.6372   20.0989 H   0  0  0  0  0  0
  -26.7210  -32.5459   23.1119 H   0  0  0  0  0  0
  -25.0098  -33.9649   25.0486 H   0  0  0  0  0  0
  -22.7193  -31.3061   21.3957 H   0  0  0  0  0  0
  -23.3738  -35.9607   23.3278 H   0  0  0  0  0  0
  -24.3577  -36.8891   22.2056 H   0  0  0  0  0  0
  -23.7209  -37.6477   23.6659 H   0  0  0  0  0  0
  -26.0609  -31.5782   20.5786 H   0  0  0  0  0  0
  -26.8546  -30.8898   21.9554 H   0  0  0  0  0  0
  -28.1334  -29.0570   21.1204 H   0  0  0  0  0  0
  -25.9643  -25.9136   19.0648 H   0  0  0  0  0  0
  -23.9746  -27.2864   19.0523 H   0  0  0  0  0  0
  -23.7656  -30.6033   19.4131 H   0  0  0  0  0  0
  -22.7618  -29.2537   19.8387 H   0  0  0  0  0  0
  -25.1229  -36.1953   25.0844 H   0  0  0  0  0  0
  -20.9973  -28.3296   24.1393 H   0  0  0  0  0  0
  -20.5625  -26.2310   23.3637 H   0  0  0  0  0  0
  -21.6618  -26.7408   22.1236 H   0  0  0  0  0  0
  -19.6928  -25.6321   21.1219 H   0  0  0  0  0  0
  -19.6683  -27.3229   20.6773 H   0  0  0  0  0  0
  -17.4178  -26.6667   21.4036 H   0  0  0  0  0  0
  -18.0310  -26.0100   22.9040 H   0  0  0  0  0  0
  -19.7934  -30.7215   24.2355 H   0  0  0  0  0  0
  -17.5016  -31.6240   24.5188 H   0  0  0  0  0  0
  -15.5360  -30.3029   23.7536 H   0  0  0  0  0  0
  -15.8674  -28.0832   22.7029 H   0  0  0  0  0  0
  -24.6011  -30.6897   25.7741 H   0  0  0  0  0  0
  -24.8925  -32.2739   26.4828 H   0  0  0  0  0  0
  -25.8154  -30.8796   27.0177 H   0  0  0  0  0  0
  -26.2931  -29.6683   24.1097 H   0  0  0  0  0  0
  -27.4269  -29.7196   25.4390 H   0  0  0  0  0  0
  -27.8691  -30.4285   23.9065 H   0  0  0  0  0  0
  -27.2855  -33.3508   26.2021 H   0  0  0  0  0  0
  -28.3988  -32.6681   25.0252 H   0  0  0  0  0  0
  -28.0816  -31.8263   26.5293 H   0  0  0  0  0  0
  -28.2576  -38.0097   24.7522 H   0  0  0  0  0  0
  -28.1104  -36.2626   24.6291 H   0  0  0  0  0  0
  -27.2307  -37.1374   25.8880 H   0  0  0  0  0  0
  -20.9416  -29.8781   21.6852 H   0  0  0  0  0  0
  -26.0161  -38.2837   24.1502 H   0  0  0  0  0  0
  -27.0317  -20.4802   21.2988 H   0  0  0  0  0  0
  -30.8991  -18.6459   21.2307 H   0  0  0  0  0  0
  -25.1863  -18.3135   20.5931 H   0  0  0  0  0  0
  -25.0611  -19.6363   21.7560 H   0  0  0  0  0  0
  -24.2296  -18.1288   22.0587 H   0  0  0  0  0  0
  -27.1211  -18.0620   24.4822 H   0  0  0  0  0  0
  -25.3677  -17.9797   24.3373 H   0  0  0  0  0  0
  -26.2362  -19.4764   23.9971 H   0  0  0  0  0  0
  -27.9161  -23.5001   22.5842 H   0  0  0  0  0  0
  -26.7620  -24.1997   21.4504 H   0  0  0  0  0  0
  -27.9118  -25.2330   22.2846 H   0  0  0  0  0  0
  -27.6198  -16.1451   23.7205 H   0  0  0  0  0  0
  -28.5702  -14.7684   23.5571 H   0  0  0  0  0  0
  -27.5425  -15.2511   22.1981 H   0  0  0  0  0  0
  -30.5837  -21.3585   20.0773 H   0  0  0  0  0  0
  -30.1510  -21.8714   21.6622 H   0  0  0  0  0  0
  -27.7261  -22.2380   20.1449 H   0  0  0  0  0  0
  -28.9691  -22.6160   19.0463 H   0  0  0  0  0  0
  -32.1606  -17.0272   21.7362 H   0  0  0  0  0  0
  -32.7952  -15.4382   21.9715 H   0  0  0  0  0  0
  -27.7321  -24.9465   18.9363 H   0  0  0  0  0  0
  -29.4080  -25.2598   18.9439 H   0  0  0  0  0  0
  -26.2599  -16.9340   22.2811 H   0  0  0  0  0  0
  -30.5494  -14.6966   22.7482 H   0  0  0  0  0  0
  -29.7937  -24.2645   21.0796 H   0  0  0  0  0  0
  -29.7411  -16.8439   23.3656 H   0  0  0  0  0  0
  -31.7491  -17.0684   24.1355 H   0  0  0  0  0  0
  -33.2729  -16.6010   23.8203 H   0  0  0  0  0  0
  -32.1936  -15.5086   24.2860 H   0  0  0  0  0  0
  1 25  1  0  0  0
  1 30  2  0  0  0
  1 84  1  0  0  0
  2  3  1  0  0  0
  2 25  1  0  0  0
  2 89  1  0  0  0
  2 90  1  0  0  0
  3  4  1  0  0  0
  3 91  1  0  0  0
  3 92  1  0  0  0
  4  5  1  0  0  0
  4 93  1  0  0  0
  4 94  1  0  0  0
  5  6  1  0  0  0
  5 26  1  0  0  0
  5 95  1  0  0  0
  6 25  1  0  0  0
  6 96  1  0  0  0
  6 97  1  0  0  0
  7  8  2  0  0  0
  7 26  1  0  0  0
  7 29  1  0  0  0
  8  9  1  0  0  0
  8 22  1  0  0  0
  9 10  1  0  0  0
  9 27  2  0  0  0
 10 11  2  0  0  0
 10 15  1  0  0  0
 11 12  1  0  0  0
 11 98  1  0  0  0
 12 13  2  0  0  0
 12 99  1  0  0  0
 13 14  1  0  0  0
 13 31  1  0  0  0
 14 15  2  0  0  0
 14100  1  0  0  0
 15101  1  0  0  0
 16 17  2  0  0  0
 16 21  1  0  0  0
 16 31  1  0  0  0
 17 18  1  0  0  0
 17102  1  0  0  0
 18 19  2  0  0  0
 18103  1  0  0  0
 19 20  1  0  0  0
 19 24  1  0  0  0
 20 21  2  0  0  0
 20104  1  0  0  0
 21 23  1  0  0  0
 22 28  1  0  0  0
 22 32  2  0  0  0
 26 27  1  0  0  0
 28105  1  0  0  0
 28106  1  0  0  0
 29107  1  0  0  0
 29108  1  0  0  0
 33 34  1  0  0  0
 33 66  1  0  0  0
 33 70  2  0  0  0
 34 36  1  0  0  0
 34 59  1  0  0  0
 34109  1  0  0  0
 35 44  2  0  0  0
 35 45  1  0  0  0
 35 68  1  0  0  0
 36 56  1  0  0  0
 36110  1  0  0  0
 37 39  1  0  0  0
 37 47  1  0  0  0
 37 66  1  0  0  0
 37111  1  0  0  0
 38 43  2  0  0  0
 38 46  1  0  0  0
 38 47  1  0  0  0
 39 64  1  0  0  0
 39 67  2  0  0  0
 40 52  1  0  0  0
 40 53  2  0  0  0
 40 58  1  0  0  0
 41112  1  0  0  0
 41113  1  0  0  0
 41114  1  0  0  0
 41 48  1  0  0  0
 42 43  1  0  0  0
 42 66  1  0  0  0
 42115  1  0  0  0
 42116  1  0  0  0
 43 44  1  0  0  0
 44117  1  0  0  0
 45 46  2  0  0  0
 45118  1  0  0  0
 46119  1  0  0  0
 47120  1  0  0  0
 47121  1  0  0  0
 48 56  1  0  0  0
 48 65  1  0  0  0
 48122  1  0  0  0
 49 50  1  0  0  0
 49 53  1  0  0  0
 49 64  1  0  0  0
 49123  1  0  0  0
 50 51  1  0  0  0
 50124  1  0  0  0
 50125  1  0  0  0
 51 52  1  0  0  0
 51126  1  0  0  0
 51127  1  0  0  0
 52128  1  0  0  0
 52129  1  0  0  0
 53 54  1  0  0  0
 54 55  2  0  0  0
 54130  1  0  0  0
 55 57  1  0  0  0
 55131  1  0  0  0
 56 69  2  0  0  0
 57 58  2  0  0  0
 57132  1  0  0  0
 58133  1  0  0  0
 59 60  1  0  0  0
 59 61  1  0  0  0
 59 62  1  0  0  0
 60134  1  0  0  0
 60135  1  0  0  0
 60136  1  0  0  0
 61137  1  0  0  0
 61138  1  0  0  0
 61139  1  0  0  0
 62140  1  0  0  0
 62141  1  0  0  0
 62142  1  0  0  0
 63 65  1  0  0  0
 63143  1  0  0  0
 63144  1  0  0  0
 63145  1  0  0  0
 64146  1  0  0  0
 65147  1  0  0  0
 68 82  1  0  0  0
 71 73  1  0  0  0
 71 74  2  0  0  0
 71148  1  0  0  0
 72 73  2  0  0  0
 72 87  1  0  0  0
 72149  1  0  0  0
 73 79  1  0  0  0
 74 83  1  0  0  0
 74 87  1  0  0  0
 75150  1  0  0  0
 75151  1  0  0  0
 75152  1  0  0  0
 75 83  1  0  0  0
 76 83  1  0  0  0
 76153  1  0  0  0
 76154  1  0  0  0
 76155  1  0  0  0
 77156  1  0  0  0
 77157  1  0  0  0
 77158  1  0  0  0
 77 85  1  0  0  0
 78159  1  0  0  0
 78160  1  0  0  0
 78161  1  0  0  0
 78 86  1  0  0  0
 79 80  1  0  0  0
 79162  1  0  0  0
 79163  1  0  0  0
 80 85  1  0  0  0
 80164  1  0  0  0
 80165  1  0  0  0
 81 88  1  0  0  0
 81166  1  0  0  0
 81167  1  0  0  0
 81 84  1  0  0  0
 82 85  1  0  0  0
 82168  1  0  0  0
 82169  1  0  0  0
 83170  1  0  0  0
 84 86  1  0  0  0
 84171  1  0  0  0
 85172  1  0  0  0
 86 87  1  0  0  0
 86173  1  0  0  0
 88174  1  0  0  0
 88175  1  0  0  0
 88176  1  0  0  0
M  CHG  1  88   1
M  ISO  4   1 100  68 101  82 101  84 100
M  END
> <chiral flag>
0

> <version>
0

> <s_m_source_file>
/data/baiqing/PycharmProjects/Reinvent-master-3.2/result/LINK_invent/BTK/process_docking_weight1_custom_sum_contain_oxygen_bond_distance_aromatic_linkinvent_7_9_3/rearranged_h_0090.sdf

> <i_m_source_file_index>
74

> <r_mmod_Potential_Energy-OPLS-2005>
12.1318168640137

> <r_mmod_Stretch_Energy-OPLS-2005>
111.66291809082

> <r_mmod_Bend_Energy-OPLS-2005>
269.29541015625

> <r_mmod_Torsional_Energy-OPLS-2005>
236.289978027344

> <r_mmod_Improper_Torsional_Energy-OPLS-2005>
9.05221366882324

> <r_mmod_Van_der_Waal_Energy-OPLS-2005>
140.537643432617

> <r_mmod_Electrostatic_Energy-OPLS-2005>
-302.731964111328

> <r_mmod_Solvation_Energy-OPLS-2005>
-483.944793701172

> <b_mmod_Minimization_Converged-OPLS-2005>
0

> <r_mmod_RMS_Derivative-OPLS-2005>
6.76776838302612

$$$$
75
                    3D
 Structure written by MMmdl.
173182  0  0  1  0            999 V2000
  -30.5195  -14.9748   20.3874 C   0  0  0  0  0  0
  -30.4420  -12.5982   19.4944 C   0  0  0  0  0  0
  -29.5217  -12.5242   18.2535 C   0  0  0  0  0  0
  -28.0551  -12.3087   18.6743 C   0  0  0  0  0  0
  -27.6288  -13.2475   19.8337 C   0  0  2  0  0  0
  -28.6730  -13.2875   20.9694 C   0  0  0  0  0  0
  -25.2461  -13.8217   20.5704 C   0  0  0  0  0  0
  -24.1787  -13.0446   20.9233 C   0  0  0  0  0  0
  -24.6397  -11.6926   20.8760 C   0  0  0  0  0  0
  -23.9083  -10.4298   21.0413 C   0  0  0  0  0  0
  -24.3626   -9.4215   21.9192 C   0  0  0  0  0  0
  -23.6302   -8.2250   22.0759 C   0  0  0  0  0  0
  -22.4290   -8.0282   21.3543 C   0  0  0  0  0  0
  -21.9921   -9.0261   20.4650 C   0  0  0  0  0  0
  -22.7249  -10.2141   20.3064 C   0  0  0  0  0  0
  -21.6854   -6.0741   22.5276 C   0  0  0  0  0  0
  -21.4016   -6.5643   23.8212 C   0  0  0  0  0  0
  -21.3659   -5.6794   24.9171 C   0  0  0  0  0  0
  -21.6040   -4.3059   24.7223 C   0  0  0  0  0  0
  -21.8820   -3.8153   23.4345 C   0  0  0  0  0  0
  -21.9196   -4.6969   22.3401 C   0  0  0  0  0  0
  -22.7808  -13.5221   21.1887 C   0  0  0  0  0  0
  -22.1663   -4.2151   21.0976 F   0  0  0  0  0  0
  -21.5628   -3.4545   25.7738 F   0  0  0  0  0  0
  -29.9443  -13.7026   20.3651 N   0  0  0  0  0  0
  -26.2888  -12.9444   20.3237 N   0  0  0  0  0  0
  -25.9328  -11.6579   20.5738 N   0  0  0  0  0  0
  -22.0459  -12.8202   22.0434 N   0  0  0  0  0  0
  -25.4099  -15.1932   20.4077 N   0  0  0  0  0  0
  -31.7240  -15.0490   20.1234 O   0  0  0  0  0  0
  -21.6645   -6.8884   21.4240 O   0  0  0  0  0  0
  -22.3499  -14.5531   20.6725 O   0  0  0  0  0  0
  -24.6454  -31.8389   23.1821 C   0  0  0  0  0  0
  -25.9225  -32.4657   23.8221 C   0  0  1  0  0  0
  -27.2233  -27.1126   20.1395 C   0  0  0  0  0  0
  -25.5949  -33.8467   24.2126 N   0  0  0  0  0  0
  -23.4511  -30.4545   21.5282 C   0  0  2  0  0  0
  -24.8996  -28.8735   20.1066 C   0  0  0  0  0  0
  -22.7598  -29.4494   22.4843 C   0  0  0  0  0  0
  -18.0306  -28.1403   22.8451 C   0  0  0  0  0  0
  -24.1496  -36.7252   23.2628 C   0  0  0  0  0  0
  -26.0046  -30.7058   21.3812 C   0  0  0  0  0  0
  -26.0764  -29.3136   20.7212 C   0  0  0  0  0  0
  -27.2343  -28.4486   20.7187 C   0  0  0  0  0  0
  -26.0169  -26.7716   19.4892 C   0  0  0  0  0  0
  -24.8821  -27.6164   19.4786 C   0  0  0  0  0  0
  -23.6820  -29.7840   20.1467 C   0  0  0  0  0  0
  -25.4121  -36.2998   24.0294 C   0  0  1  0  0  0
  -20.5926  -28.3713   23.1224 C   0  0  2  0  0  0
  -20.6807  -26.9426   22.5370 C   0  0  0  0  0  0
  -19.5770  -26.6394   21.5189 C   0  0  0  0  0  0
  -18.1955  -26.7933   22.1607 C   0  0  0  0  0  0
  -19.1569  -28.8881   23.2818 C   0  0  0  0  0  0
  -18.9491  -30.1472   23.8859 C   0  0  0  0  0  0
  -17.6493  -30.6595   24.0561 C   0  0  0  0  0  0
  -25.9088  -34.9385   23.5026 C   0  0  0  0  0  0
  -16.5378  -29.9104   23.6330 C   0  0  0  0  0  0
  -16.7298  -28.6524   23.0336 C   0  0  0  0  0  0
  -26.4525  -31.6540   25.0691 C   0  0  0  0  0  0
  -25.3699  -31.3775   26.1394 C   0  0  0  0  0  0
  -27.0393  -30.2922   24.6299 C   0  0  0  0  0  0
  -27.6047  -32.4328   25.7485 C   0  0  0  0  0  0
  -27.5573  -37.1761   24.8444 C   0  0  0  0  0  0
  -21.4284  -29.3020   22.3602 N   0  0  0  0  0  0
  -26.4262  -37.3731   23.9421 N   0  0  0  0  0  0
  -24.7204  -31.0235   22.0848 N   0  0  0  0  0  0
  -23.4223  -28.8055   23.3028 O   0  0  0  0  0  0
  -28.2992  -26.1528   20.2535 O   0  0  0  0  0  0
  -26.5681  -34.8892   22.4608 O   0  0  0  0  0  0
  -23.5574  -32.1267   23.7034 O   0  0  0  0  0  0
  -27.6409  -18.2006   21.2550 C   0  0  0  0  0  0
  -27.1403  -20.3581   21.1878 C   0  0  0  0  0  0
  -26.6309  -19.1447   21.5260 C   0  0  0  0  0  0
  -28.7419  -18.7827   20.6859 C   0  0  0  0  0  0
  -21.3416  -22.5171   20.8893 C   0  0  0  0  0  0
  -22.2740  -22.2803   19.6903 C   0  0  0  0  0  0
  -22.0478  -22.1921   22.2142 C   0  0  0  0  0  0
  -22.8433  -20.8509   19.6941 C   0  0  0  0  0  0
  -22.6187  -20.7655   22.2098 C   0  0  0  0  0  0
  -23.5711  -20.5306   21.0169 C   0  0  0  0  0  0
  -25.2510  -18.8369   22.0588 C   0  0  0  0  0  0
  -29.9197  -17.7160   20.2953 C   0  0  0  0  0  0
  -24.1444  -19.0957   21.0162 C   0  0  0  0  0  0
  -28.4464  -23.2035   20.5977 C   0  0  0  0  0  0
  -28.9382  -21.6489   20.0364 C   0  0  0  0  0  0
  -28.3722  -24.6692   19.7398 C   0  0  0  0  0  0
  -28.4087  -20.2658   20.6185 N   0  0  0  0  0  0
  -29.7084  -16.1445   20.4933 N   0  0  0  0  0  0
  -31.4743  -12.7606   19.1797 H   0  0  0  0  0  0
  -30.4422  -11.6511   20.0368 H   0  0  0  0  0  0
  -29.8422  -11.7179   17.5911 H   0  0  0  0  0  0
  -29.6069  -13.4476   17.6781 H   0  0  0  0  0  0
  -27.9534  -11.2688   18.9897 H   0  0  0  0  0  0
  -27.3909  -12.4340   17.8178 H   0  0  0  0  0  0
  -27.5873  -14.2460   19.3980 H   0  0  0  0  0  0
  -28.7663  -12.3165   21.4566 H   0  0  0  0  0  0
  -28.3723  -13.9952   21.7437 H   0  0  0  0  0  0
  -25.2773   -9.5692   22.4766 H   0  0  0  0  0  0
  -24.0008   -7.4647   22.7484 H   0  0  0  0  0  0
  -21.0852   -8.8783   19.8960 H   0  0  0  0  0  0
  -22.3709  -10.9680   19.6174 H   0  0  0  0  0  0
  -21.2007   -7.6151   23.9709 H   0  0  0  0  0  0
  -21.1477   -6.0530   25.9070 H   0  0  0  0  0  0
  -22.0600   -2.7617   23.2846 H   0  0  0  0  0  0
  -22.4086  -11.9863   22.4813 H   0  0  0  0  0  0
  -21.1077  -13.1211   22.2639 H   0  0  0  0  0  0
  -24.6287  -15.8321   20.5051 H   0  0  0  0  0  0
  -26.2294  -15.6324   20.0113 H   0  0  0  0  0  0
  -26.7293  -32.5263   23.0958 H   0  0  0  0  0  0
  -25.0068  -33.9564   25.0253 H   0  0  0  0  0  0
  -22.7513  -31.2765   21.3700 H   0  0  0  0  0  0
  -23.3757  -35.9585   23.3241 H   0  0  0  0  0  0
  -24.3579  -36.8962   22.2053 H   0  0  0  0  0  0
  -23.7266  -37.6431   23.6724 H   0  0  0  0  0  0
  -26.1581  -31.4599   20.6109 H   0  0  0  0  0  0
  -26.8738  -30.7550   22.0241 H   0  0  0  0  0  0
  -28.1360  -28.7809   21.2149 H   0  0  0  0  0  0
  -25.9095  -25.8101   19.0126 H   0  0  0  0  0  0
  -23.9779  -27.2752   18.9922 H   0  0  0  0  0  0
  -23.8374  -30.5590   19.3954 H   0  0  0  0  0  0
  -22.7937  -29.2394   19.8246 H   0  0  0  0  0  0
  -25.1308  -36.1779   25.0779 H   0  0  0  0  0  0
  -20.9971  -28.3290   24.1361 H   0  0  0  0  0  0
  -20.5734  -26.2310   23.3581 H   0  0  0  0  0  0
  -21.6676  -26.7464   22.1139 H   0  0  0  0  0  0
  -19.6931  -25.6303   21.1240 H   0  0  0  0  0  0
  -19.6715  -27.3181   20.6708 H   0  0  0  0  0  0
  -17.4217  -26.6645   21.4015 H   0  0  0  0  0  0
  -18.0370  -26.0086   22.9020 H   0  0  0  0  0  0
  -19.7971  -30.7277   24.2219 H   0  0  0  0  0  0
  -17.5062  -31.6265   24.5184 H   0  0  0  0  0  0
  -15.5384  -30.3004   23.7693 H   0  0  0  0  0  0
  -15.8681  -28.0857   22.7059 H   0  0  0  0  0  0
  -24.5884  -30.7101   25.7737 H   0  0  0  0  0  0
  -24.8881  -32.2987   26.4699 H   0  0  0  0  0  0
  -25.7969  -30.9042   27.0246 H   0  0  0  0  0  0
  -26.3003  -29.6646   24.1307 H   0  0  0  0  0  0
  -27.3986  -29.7225   25.4880 H   0  0  0  0  0  0
  -27.8924  -30.4141   23.9619 H   0  0  0  0  0  0
  -27.2633  -33.3671   26.1953 H   0  0  0  0  0  0
  -28.3925  -32.6825   25.0363 H   0  0  0  0  0  0
  -28.0646  -31.8531   26.5503 H   0  0  0  0  0  0
  -28.2510  -38.0126   24.7565 H   0  0  0  0  0  0
  -28.1151  -36.2666   24.6178 H   0  0  0  0  0  0
  -27.2316  -37.1300   25.8845 H   0  0  0  0  0  0
  -20.9513  -29.8745   21.6774 H   0  0  0  0  0  0
  -26.0108  -38.2773   24.1500 H   0  0  0  0  0  0
  -27.5311  -17.1412   21.4393 H   0  0  0  0  0  0
  -26.6344  -21.3037   21.2712 H   0  0  0  0  0  0
  -20.4496  -21.8968   20.7882 H   0  0  0  0  0  0
  -20.9966  -23.5524   20.8960 H   0  0  0  0  0  0
  -23.0931  -23.0006   19.7146 H   0  0  0  0  0  0
  -21.7325  -22.4631   18.7608 H   0  0  0  0  0  0
  -21.3478  -22.3072   23.0428 H   0  0  0  0  0  0
  -22.8519  -22.9079   22.3903 H   0  0  0  0  0  0
  -23.5283  -20.7345   18.8522 H   0  0  0  0  0  0
  -22.0345  -20.1363   19.5340 H   0  0  0  0  0  0
  -21.7963  -20.0494   22.1679 H   0  0  0  0  0  0
  -23.1324  -20.5821   23.1542 H   0  0  0  0  0  0
  -24.4009  -21.2307   21.1008 H   0  0  0  0  0  0
  -25.0725  -19.3788   22.9867 H   0  0  0  0  0  0
  -25.2361  -17.7796   22.3272 H   0  0  0  0  0  0
  -30.8215  -17.9820   20.8466 H   0  0  0  0  0  0
  -30.1717  -17.8684   19.2475 H   0  0  0  0  0  0
  -24.5230  -18.8317   20.0283 H   0  0  0  0  0  0
  -23.3224  -18.4031   21.1966 H   0  0  0  0  0  0
  -29.0868  -23.4025   21.4560 H   0  0  0  0  0  0
  -27.4604  -23.1330   21.0459 H   0  0  0  0  0  0
  -30.0265  -21.6148   20.0562 H   0  0  0  0  0  0
  -28.6846  -21.6147   18.9748 H   0  0  0  0  0  0
  -27.6426  -24.5434   18.9433 H   0  0  0  0  0  0
  -29.3159  -24.6800   19.1936 H   0  0  0  0  0  0
  -28.7437  -15.9096   20.6593 H   0  0  0  0  0  0
  1 25  1  0  0  0
  1 30  2  0  0  0
  1 88  1  0  0  0
  2  3  1  0  0  0
  2 25  1  0  0  0
  2 89  1  0  0  0
  2 90  1  0  0  0
  3  4  1  0  0  0
  3 91  1  0  0  0
  3 92  1  0  0  0
  4  5  1  0  0  0
  4 93  1  0  0  0
  4 94  1  0  0  0
  5  6  1  0  0  0
  5 26  1  0  0  0
  5 95  1  0  0  0
  6 25  1  0  0  0
  6 96  1  0  0  0
  6 97  1  0  0  0
  7  8  2  0  0  0
  7 26  1  0  0  0
  7 29  1  0  0  0
  8  9  1  0  0  0
  8 22  1  0  0  0
  9 10  1  0  0  0
  9 27  2  0  0  0
 10 11  2  0  0  0
 10 15  1  0  0  0
 11 12  1  0  0  0
 11 98  1  0  0  0
 12 13  2  0  0  0
 12 99  1  0  0  0
 13 14  1  0  0  0
 13 31  1  0  0  0
 14 15  2  0  0  0
 14100  1  0  0  0
 15101  1  0  0  0
 16 17  2  0  0  0
 16 21  1  0  0  0
 16 31  1  0  0  0
 17 18  1  0  0  0
 17102  1  0  0  0
 18 19  2  0  0  0
 18103  1  0  0  0
 19 20  1  0  0  0
 19 24  1  0  0  0
 20 21  2  0  0  0
 20104  1  0  0  0
 21 23  1  0  0  0
 22 28  1  0  0  0
 22 32  2  0  0  0
 26 27  1  0  0  0
 28105  1  0  0  0
 28106  1  0  0  0
 29107  1  0  0  0
 29108  1  0  0  0
 33 34  1  0  0  0
 33 66  1  0  0  0
 33 70  2  0  0  0
 34 36  1  0  0  0
 34 59  1  0  0  0
 34109  1  0  0  0
 35 44  2  0  0  0
 35 45  1  0  0  0
 35 68  1  0  0  0
 36 56  1  0  0  0
 36110  1  0  0  0
 37 39  1  0  0  0
 37 47  1  0  0  0
 37 66  1  0  0  0
 37111  1  0  0  0
 38 43  2  0  0  0
 38 46  1  0  0  0
 38 47  1  0  0  0
 39 64  1  0  0  0
 39 67  2  0  0  0
 40 52  1  0  0  0
 40 53  2  0  0  0
 40 58  1  0  0  0
 41112  1  0  0  0
 41113  1  0  0  0
 41114  1  0  0  0
 41 48  1  0  0  0
 42 43  1  0  0  0
 42 66  1  0  0  0
 42115  1  0  0  0
 42116  1  0  0  0
 43 44  1  0  0  0
 44117  1  0  0  0
 45 46  2  0  0  0
 45118  1  0  0  0
 46119  1  0  0  0
 47120  1  0  0  0
 47121  1  0  0  0
 48 56  1  0  0  0
 48 65  1  0  0  0
 48122  1  0  0  0
 49 50  1  0  0  0
 49 53  1  0  0  0
 49 64  1  0  0  0
 49123  1  0  0  0
 50 51  1  0  0  0
 50124  1  0  0  0
 50125  1  0  0  0
 51 52  1  0  0  0
 51126  1  0  0  0
 51127  1  0  0  0
 52128  1  0  0  0
 52129  1  0  0  0
 53 54  1  0  0  0
 54 55  2  0  0  0
 54130  1  0  0  0
 55 57  1  0  0  0
 55131  1  0  0  0
 56 69  2  0  0  0
 57 58  2  0  0  0
 57132  1  0  0  0
 58133  1  0  0  0
 59 60  1  0  0  0
 59 61  1  0  0  0
 59 62  1  0  0  0
 60134  1  0  0  0
 60135  1  0  0  0
 60136  1  0  0  0
 61137  1  0  0  0
 61138  1  0  0  0
 61139  1  0  0  0
 62140  1  0  0  0
 62141  1  0  0  0
 62142  1  0  0  0
 63 65  1  0  0  0
 63143  1  0  0  0
 63144  1  0  0  0
 63145  1  0  0  0
 64146  1  0  0  0
 65147  1  0  0  0
 68 86  1  0  0  0
 71 73  1  0  0  0
 71 74  2  0  0  0
 71148  1  0  0  0
 72 73  2  0  0  0
 72 87  1  0  0  0
 72149  1  0  0  0
 73 81  1  0  0  0
 74 82  1  0  0  0
 74 87  1  0  0  0
 75 76  1  0  0  0
 75 77  1  0  0  0
 75150  1  0  0  0
 75151  1  0  0  0
 76 78  1  0  0  0
 76152  1  0  0  0
 76153  1  0  0  0
 77 79  1  0  0  0
 77154  1  0  0  0
 77155  1  0  0  0
 78 80  1  0  0  0
 78156  1  0  0  0
 78157  1  0  0  0
 79 80  1  0  0  0
 79158  1  0  0  0
 79159  1  0  0  0
 80 83  1  0  0  0
 80160  1  0  0  0
 81 83  1  0  0  0
 81161  1  0  0  0
 81162  1  0  0  0
 82 88  1  0  0  0
 82163  1  0  0  0
 82164  1  0  0  0
 83165  1  0  0  0
 83166  1  0  0  0
 84 85  1  0  0  0
 84 86  1  0  0  0
 84167  1  0  0  0
 84168  1  0  0  0
 85 87  1  0  0  0
 85169  1  0  0  0
 85170  1  0  0  0
 86171  1  0  0  0
 86172  1  0  0  0
 88173  1  0  0  0
M  ISO  4   1 100  68 101  86 101  88 100
M  END
> <chiral flag>
0

> <version>
0

> <s_m_source_file>
/data/baiqing/PycharmProjects/Reinvent-master-3.2/result/LINK_invent/BTK/process_docking_weight1_custom_sum_contain_oxygen_bond_distance_aromatic_linkinvent_7_9_3/rearranged_h_0090.sdf

> <i_m_source_file_index>
75

> <r_mmod_Potential_Energy-OPLS-2005>
610.757934570312

> <r_mmod_Stretch_Energy-OPLS-2005>
317.90771484375

> <r_mmod_Bend_Energy-OPLS-2005>
352.290283203125

> <r_mmod_Torsional_Energy-OPLS-2005>
248.50390625

> <r_mmod_Improper_Torsional_Energy-OPLS-2005>
5.62812805175781

> <r_mmod_Van_der_Waal_Energy-OPLS-2005>
103.638771057129

> <r_mmod_Electrostatic_Energy-OPLS-2005>
-422.455078125

> <r_mmod_Solvation_Energy-OPLS-2005>
-206.0546875

> <b_mmod_Minimization_Converged-OPLS-2005>
0

> <r_mmod_RMS_Derivative-OPLS-2005>
2.87572622299194

$$$$
76
                    3D
 Structure written by MMmdl.
190198  0  0  1  0            999 V2000
  -30.6466  -14.5659   20.5018 C   0  0  0  0  0  0
  -30.4198  -12.3338   19.4604 C   0  0  0  0  0  0
  -29.5084  -12.5108   18.2269 C   0  0  0  0  0  0
  -28.0270  -12.3659   18.6311 C   0  0  0  0  0  0
  -27.6631  -13.2122   19.8840 C   0  0  2  0  0  0
  -28.7035  -13.0363   21.0173 C   0  0  0  0  0  0
  -25.2663  -13.8157   20.5749 C   0  0  0  0  0  0
  -24.1894  -13.0397   20.9220 C   0  0  0  0  0  0
  -24.6466  -11.6892   20.8718 C   0  0  0  0  0  0
  -23.9125  -10.4264   21.0385 C   0  0  0  0  0  0
  -24.3642   -9.4171   21.9165 C   0  0  0  0  0  0
  -23.6296   -8.2221   22.0750 C   0  0  0  0  0  0
  -22.4284   -8.0276   21.3535 C   0  0  0  0  0  0
  -21.9931   -9.0271   20.4658 C   0  0  0  0  0  0
  -22.7287  -10.2147   20.3050 C   0  0  0  0  0  0
  -21.6869   -6.0757   22.5280 C   0  0  0  0  0  0
  -21.4043   -6.5667   23.8204 C   0  0  0  0  0  0
  -21.3658   -5.6823   24.9176 C   0  0  0  0  0  0
  -21.6058   -4.3083   24.7221 C   0  0  0  0  0  0
  -21.8823   -3.8173   23.4330 C   0  0  0  0  0  0
  -21.9198   -4.6993   22.3395 C   0  0  0  0  0  0
  -22.7935  -13.5218   21.1857 C   0  0  0  0  0  0
  -22.1631   -4.2178   21.0967 F   0  0  0  0  0  0
  -21.5602   -3.4540   25.7709 F   0  0  0  0  0  0
  -30.0265  -13.3501   20.4529 N   0  0  0  0  0  0
  -26.3068  -12.9322   20.3411 N   0  0  0  0  0  0
  -25.9401  -11.6467   20.5770 N   0  0  0  0  0  0
  -22.0597  -12.8185   22.0412 N   0  0  0  0  0  0
  -25.4308  -15.1867   20.4205 N   0  0  0  0  0  0
  -31.7755  -14.7273   20.0387 O   0  0  0  0  0  0
  -21.6627   -6.8888   21.4243 O   0  0  0  0  0  0
  -22.3635  -14.5517   20.6717 O   0  0  0  0  0  0
  -24.6276  -31.8556   23.2031 C   0  0  0  0  0  0
  -25.9122  -32.4751   23.8350 C   0  0  1  0  0  0
  -27.2086  -27.3167   20.0953 C   0  0  0  0  0  0
  -25.5954  -33.8567   24.2264 N   0  0  0  0  0  0
  -23.4219  -30.4812   21.5427 C   0  0  2  0  0  0
  -24.8595  -28.9291   20.1046 C   0  0  0  0  0  0
  -22.7426  -29.4616   22.4890 C   0  0  0  0  0  0
  -18.0282  -28.1384   22.8477 C   0  0  0  0  0  0
  -24.1507  -36.7316   23.2644 C   0  0  0  0  0  0
  -25.9591  -30.7825   21.3708 C   0  0  0  0  0  0
  -26.0261  -29.4126   20.7057 C   0  0  0  0  0  0
  -27.2026  -28.6140   20.6960 C   0  0  0  0  0  0
  -26.0180  -26.8726   19.4811 C   0  0  0  0  0  0
  -24.8539  -27.6647   19.4888 C   0  0  0  0  0  0
  -23.6339  -29.8156   20.1556 C   0  0  0  0  0  0
  -25.4122  -36.3077   24.0320 C   0  0  1  0  0  0
  -20.5895  -28.3692   23.1241 C   0  0  2  0  0  0
  -20.6764  -26.9398   22.5402 C   0  0  0  0  0  0
  -19.5743  -26.6389   21.5187 C   0  0  0  0  0  0
  -18.1933  -26.7925   22.1621 C   0  0  0  0  0  0
  -19.1541  -28.8838   23.2885 C   0  0  0  0  0  0
  -18.9468  -30.1445   23.8876 C   0  0  0  0  0  0
  -17.6479  -30.6580   24.0568 C   0  0  0  0  0  0
  -25.9071  -34.9449   23.5088 C   0  0  0  0  0  0
  -16.5364  -29.9085   23.6338 C   0  0  0  0  0  0
  -16.7278  -28.6522   23.0313 C   0  0  0  0  0  0
  -26.4505  -31.6582   25.0725 C   0  0  0  0  0  0
  -25.3735  -31.3741   26.1451 C   0  0  0  0  0  0
  -27.0348  -30.2996   24.6204 C   0  0  0  0  0  0
  -27.6068  -32.4293   25.7502 C   0  0  0  0  0  0
  -27.5576  -37.1812   24.8451 C   0  0  0  0  0  0
  -21.4128  -29.3104   22.3641 N   0  0  0  0  0  0
  -26.4285  -37.3767   23.9400 N   0  0  0  0  0  0
  -24.6906  -31.0535   22.0990 N   0  0  0  0  0  0
  -23.4124  -28.8074   23.2936 O   0  0  0  0  0  0
  -28.3421  -26.5038   20.1469 O   0  0  0  0  0  0
  -26.5615  -34.8929   22.4639 O   0  0  0  0  0  0
  -23.5442  -32.1357   23.7358 O   0  0  0  0  0  0
  -29.2299  -21.6615   20.7328 C   0  0  0  0  0  0
  -28.3910  -22.4675   19.8948 C   0  0  0  0  0  0
  -29.6481  -20.5193   20.0970 C   0  0  0  0  0  0
  -28.2034  -21.6949   18.7591 C   0  0  0  0  0  0
  -27.8606  -24.0531   21.8103 C   0  0  0  0  0  0
  -24.5839  -20.2922   18.2721 C   0  0  0  0  0  0
  -25.5285  -18.6503   16.6060 C   0  0  0  0  0  0
  -30.3670  -21.3111   16.1471 C   0  0  0  0  0  0
  -30.7828  -18.8398   15.8458 C   0  0  0  0  0  0
  -31.8478  -17.6645   19.2983 C   0  0  0  0  0  0
  -31.8388  -17.6801   21.7788 C   0  0  0  0  0  0
  -30.7689  -19.5960   20.6120 C   0  0  0  0  0  0
  -27.3402  -22.0499   17.5549 C   0  0  0  0  0  0
  -26.5485  -20.9656   16.7675 C   0  0  0  0  0  0
  -29.3508  -19.5872   17.7853 C   0  0  0  0  0  0
  -29.7163  -17.0516   20.5874 C   0  0  0  0  0  0
  -28.4174  -25.1529   19.5420 C   0  0  0  0  0  0
  -27.8068  -23.8771   20.2822 C   0  0  1  0  0  0
  -25.8533  -19.8237   17.5505 C   0  0  0  0  0  0
  -30.5305  -19.9629   16.8632 C   0  0  0  0  0  0
  -30.9759  -18.0005   20.5349 C   0  0  0  0  0  0
  -29.0593  -20.5655   18.8336 N   0  0  0  0  0  0
  -29.8507  -15.5889   20.9193 N   0  0  0  0  0  0
  -31.4737  -12.4046   19.1844 H   0  0  0  0  0  0
  -30.2835  -11.3412   19.8904 H   0  0  0  0  0  0
  -29.6667  -13.4904   17.7722 H   0  0  0  0  0  0
  -29.7638  -11.7736   17.4648 H   0  0  0  0  0  0
  -27.8433  -11.3094   18.8313 H   0  0  0  0  0  0
  -27.3812  -12.6359   17.7931 H   0  0  0  0  0  0
  -27.6940  -14.2565   19.5756 H   0  0  0  0  0  0
  -28.7005  -12.0135   21.3932 H   0  0  0  0  0  0
  -28.4653  -13.6564   21.8837 H   0  0  0  0  0  0
  -25.2781   -9.5599   22.4754 H   0  0  0  0  0  0
  -24.0006   -7.4614   22.7464 H   0  0  0  0  0  0
  -21.0863   -8.8888   19.8939 H   0  0  0  0  0  0
  -22.3820  -10.9729   19.6178 H   0  0  0  0  0  0
  -21.2055   -7.6176   23.9733 H   0  0  0  0  0  0
  -21.1457   -6.0534   25.9090 H   0  0  0  0  0  0
  -22.0606   -2.7629   23.2833 H   0  0  0  0  0  0
  -22.4281  -11.9811   22.4624 H   0  0  0  0  0  0
  -21.1215  -13.1164   22.2667 H   0  0  0  0  0  0
  -24.6521  -15.8288   20.5193 H   0  0  0  0  0  0
  -26.2772  -15.6348   20.0932 H   0  0  0  0  0  0
  -26.7160  -32.5344   23.1071 H   0  0  0  0  0  0
  -25.0049  -33.9718   25.0372 H   0  0  0  0  0  0
  -22.7211  -31.3050   21.3929 H   0  0  0  0  0  0
  -23.3733  -35.9678   23.3278 H   0  0  0  0  0  0
  -24.3630  -36.8953   22.2068 H   0  0  0  0  0  0
  -23.7279  -37.6520   23.6678 H   0  0  0  0  0  0
  -26.0853  -31.5443   20.5995 H   0  0  0  0  0  0
  -26.8414  -30.8332   21.9975 H   0  0  0  0  0  0
  -28.1010  -28.9765   21.1773 H   0  0  0  0  0  0
  -25.9561  -25.8971   19.0201 H   0  0  0  0  0  0
  -23.9512  -27.2880   19.0285 H   0  0  0  0  0  0
  -23.7622  -30.5875   19.3961 H   0  0  0  0  0  0
  -22.7500  -29.2542   19.8498 H   0  0  0  0  0  0
  -25.1301  -36.1955   25.0802 H   0  0  0  0  0  0
  -21.0040  -28.3324   24.1331 H   0  0  0  0  0  0
  -20.5643  -26.2292   23.3613 H   0  0  0  0  0  0
  -21.6621  -26.7384   22.1203 H   0  0  0  0  0  0
  -19.6922  -25.6295   21.1201 H   0  0  0  0  0  0
  -19.6721  -27.3176   20.6696 H   0  0  0  0  0  0
  -17.4201  -26.6627   21.4053 H   0  0  0  0  0  0
  -18.0405  -26.0066   22.9018 H   0  0  0  0  0  0
  -19.7950  -30.7272   24.2232 H   0  0  0  0  0  0
  -17.5031  -31.6238   24.5177 H   0  0  0  0  0  0
  -15.5368  -30.2974   23.7680 H   0  0  0  0  0  0
  -15.8671  -28.0852   22.6992 H   0  0  0  0  0  0
  -24.5912  -30.7082   25.7782 H   0  0  0  0  0  0
  -24.8931  -32.2922   26.4858 H   0  0  0  0  0  0
  -25.8087  -30.8929   27.0224 H   0  0  0  0  0  0
  -26.2950  -29.6728   24.1197 H   0  0  0  0  0  0
  -27.3973  -29.7298   25.4775 H   0  0  0  0  0  0
  -27.8849  -30.4248   23.9478 H   0  0  0  0  0  0
  -27.2685  -33.3580   26.2115 H   0  0  0  0  0  0
  -28.3894  -32.6853   25.0340 H   0  0  0  0  0  0
  -28.0708  -31.8367   26.5399 H   0  0  0  0  0  0
  -28.2576  -38.0127   24.7474 H   0  0  0  0  0  0
  -28.1102  -36.2648   24.6303 H   0  0  0  0  0  0
  -27.2301  -37.1468   25.8857 H   0  0  0  0  0  0
  -20.9289  -29.8892   21.6895 H   0  0  0  0  0  0
  -26.0174  -38.2844   24.1363 H   0  0  0  0  0  0
  -29.5827  -21.9303   21.7200 H   0  0  0  0  0  0
  -27.4070  -23.2019   22.3171 H   0  0  0  0  0  0
  -27.3028  -24.9390   22.1053 H   0  0  0  0  0  0
  -28.8802  -24.1627   22.1865 H   0  0  0  0  0  0
  -24.1196  -19.4602   18.8013 H   0  0  0  0  0  0
  -23.8497  -20.6953   17.5734 H   0  0  0  0  0  0
  -24.8028  -21.0614   19.0146 H   0  0  0  0  0  0
  -24.8344  -18.9507   15.8196 H   0  0  0  0  0  0
  -25.0828  -17.8157   17.1475 H   0  0  0  0  0  0
  -26.4239  -18.2637   16.1152 H   0  0  0  0  0  0
  -31.2342  -21.5369   15.5235 H   0  0  0  0  0  0
  -30.2633  -22.1294   16.8621 H   0  0  0  0  0  0
  -29.4871  -21.3078   15.5035 H   0  0  0  0  0  0
  -31.6325  -19.0718   15.2039 H   0  0  0  0  0  0
  -29.9129  -18.6774   15.2081 H   0  0  0  0  0  0
  -30.9959  -17.8916   16.3392 H   0  0  0  0  0  0
  -32.3070  -18.5432   18.8515 H   0  0  0  0  0  0
  -31.2803  -17.1536   18.5218 H   0  0  0  0  0  0
  -32.6831  -17.0112   19.5490 H   0  0  0  0  0  0
  -32.6840  -18.3696   21.8405 H   0  0  0  0  0  0
  -32.2601  -16.6755   21.7558 H   0  0  0  0  0  0
  -31.2658  -17.7648   22.7036 H   0  0  0  0  0  0
  -30.7479  -19.8074   21.6821 H   0  0  0  0  0  0
  -31.7043  -20.0671   20.3113 H   0  0  0  0  0  0
  -27.9563  -22.5813   16.8320 H   0  0  0  0  0  0
  -26.6077  -22.7929   17.8652 H   0  0  0  0  0  0
  -27.2353  -20.5323   16.0424 H   0  0  0  0  0  0
  -25.8112  -21.4545   16.1278 H   0  0  0  0  0  0
  -29.5763  -18.6448   18.2656 H   0  0  0  0  0  0
  -28.4690  -19.3478   17.2083 H   0  0  0  0  0  0
  -29.1445  -17.1134   19.6614 H   0  0  0  0  0  0
  -29.0375  -17.4509   21.3441 H   0  0  0  0  0  0
  -29.4879  -24.9595   19.4897 H   0  0  0  0  0  0
  -28.1088  -25.1956   18.4909 H   0  0  0  0  0  0
  -26.7472  -23.8387   20.0434 H   0  0  0  0  0  0
  -26.5287  -19.4406   18.3150 H   0  0  0  0  0  0
  -31.4145  -20.0461   17.4904 H   0  0  0  0  0  0
  -29.0163  -15.2300   21.3608 H   0  0  0  0  0  0
  1 25  1  0  0  0
  1 30  2  0  0  0
  1 93  1  0  0  0
  2  3  1  0  0  0
  2 25  1  0  0  0
  2 94  1  0  0  0
  2 95  1  0  0  0
  3  4  1  0  0  0
  3 96  1  0  0  0
  3 97  1  0  0  0
  4  5  1  0  0  0
  4 98  1  0  0  0
  4 99  1  0  0  0
  5  6  1  0  0  0
  5 26  1  0  0  0
  5100  1  0  0  0
  6 25  1  0  0  0
  6101  1  0  0  0
  6102  1  0  0  0
  7  8  2  0  0  0
  7 26  1  0  0  0
  7 29  1  0  0  0
  8  9  1  0  0  0
  8 22  1  0  0  0
  9 10  1  0  0  0
  9 27  2  0  0  0
 10 11  2  0  0  0
 10 15  1  0  0  0
 11 12  1  0  0  0
 11103  1  0  0  0
 12 13  2  0  0  0
 12104  1  0  0  0
 13 14  1  0  0  0
 13 31  1  0  0  0
 14 15  2  0  0  0
 14105  1  0  0  0
 15106  1  0  0  0
 16 17  2  0  0  0
 16 21  1  0  0  0
 16 31  1  0  0  0
 17 18  1  0  0  0
 17107  1  0  0  0
 18 19  2  0  0  0
 18108  1  0  0  0
 19 20  1  0  0  0
 19 24  1  0  0  0
 20 21  2  0  0  0
 20109  1  0  0  0
 21 23  1  0  0  0
 22 28  1  0  0  0
 22 32  2  0  0  0
 26 27  1  0  0  0
 28110  1  0  0  0
 28111  1  0  0  0
 29112  1  0  0  0
 29113  1  0  0  0
 33 34  1  0  0  0
 33 66  1  0  0  0
 33 70  2  0  0  0
 34 36  1  0  0  0
 34 59  1  0  0  0
 34114  1  0  0  0
 35 44  2  0  0  0
 35 45  1  0  0  0
 35 68  1  0  0  0
 36 56  1  0  0  0
 36115  1  0  0  0
 37 39  1  0  0  0
 37 47  1  0  0  0
 37 66  1  0  0  0
 37116  1  0  0  0
 38 43  2  0  0  0
 38 46  1  0  0  0
 38 47  1  0  0  0
 39 64  1  0  0  0
 39 67  2  0  0  0
 40 52  1  0  0  0
 40 53  2  0  0  0
 40 58  1  0  0  0
 41117  1  0  0  0
 41118  1  0  0  0
 41119  1  0  0  0
 41 48  1  0  0  0
 42 43  1  0  0  0
 42 66  1  0  0  0
 42120  1  0  0  0
 42121  1  0  0  0
 43 44  1  0  0  0
 44122  1  0  0  0
 45 46  2  0  0  0
 45123  1  0  0  0
 46124  1  0  0  0
 47125  1  0  0  0
 47126  1  0  0  0
 48 56  1  0  0  0
 48 65  1  0  0  0
 48127  1  0  0  0
 49 50  1  0  0  0
 49 53  1  0  0  0
 49 64  1  0  0  0
 49128  1  0  0  0
 50 51  1  0  0  0
 50129  1  0  0  0
 50130  1  0  0  0
 51 52  1  0  0  0
 51131  1  0  0  0
 51132  1  0  0  0
 52133  1  0  0  0
 52134  1  0  0  0
 53 54  1  0  0  0
 54 55  2  0  0  0
 54135  1  0  0  0
 55 57  1  0  0  0
 55136  1  0  0  0
 56 69  2  0  0  0
 57 58  2  0  0  0
 57137  1  0  0  0
 58138  1  0  0  0
 59 60  1  0  0  0
 59 61  1  0  0  0
 59 62  1  0  0  0
 60139  1  0  0  0
 60140  1  0  0  0
 60141  1  0  0  0
 61142  1  0  0  0
 61143  1  0  0  0
 61144  1  0  0  0
 62145  1  0  0  0
 62146  1  0  0  0
 62147  1  0  0  0
 63 65  1  0  0  0
 63148  1  0  0  0
 63149  1  0  0  0
 63150  1  0  0  0
 64151  1  0  0  0
 65152  1  0  0  0
 68 87  1  0  0  0
 71 72  1  0  0  0
 71 73  2  0  0  0
 71153  1  0  0  0
 72 74  2  0  0  0
 72 88  1  0  0  0
 73 82  1  0  0  0
 73 92  1  0  0  0
 74 83  1  0  0  0
 74 92  1  0  0  0
 75154  1  0  0  0
 75155  1  0  0  0
 75156  1  0  0  0
 75 88  1  0  0  0
 76157  1  0  0  0
 76158  1  0  0  0
 76159  1  0  0  0
 76 89  1  0  0  0
 77 89  1  0  0  0
 77160  1  0  0  0
 77161  1  0  0  0
 77162  1  0  0  0
 78163  1  0  0  0
 78164  1  0  0  0
 78165  1  0  0  0
 78 90  1  0  0  0
 79 90  1  0  0  0
 79166  1  0  0  0
 79167  1  0  0  0
 79168  1  0  0  0
 80169  1  0  0  0
 80170  1  0  0  0
 80171  1  0  0  0
 80 91  1  0  0  0
 81 91  1  0  0  0
 81172  1  0  0  0
 81173  1  0  0  0
 81174  1  0  0  0
 82 91  1  0  0  0
 82175  1  0  0  0
 82176  1  0  0  0
 83 84  1  0  0  0
 83177  1  0  0  0
 83178  1  0  0  0
 84 89  1  0  0  0
 84179  1  0  0  0
 84180  1  0  0  0
 85 90  1  0  0  0
 85 92  1  0  0  0
 85181  1  0  0  0
 85182  1  0  0  0
 86 91  1  0  0  0
 86 93  1  0  0  0
 86183  1  0  0  0
 86184  1  0  0  0
 87 88  1  0  0  0
 87185  1  0  0  0
 87186  1  0  0  0
 88187  1  0  0  0
 89188  1  0  0  0
 90189  1  0  0  0
 93190  1  0  0  0
M  ISO  4   1 100  68 101  87 101  93 100
M  END
> <chiral flag>
0

> <version>
0

> <s_m_source_file>
/data/baiqing/PycharmProjects/Reinvent-master-3.2/result/LINK_invent/BTK/process_docking_weight1_custom_sum_contain_oxygen_bond_distance_aromatic_linkinvent_7_9_3/rearranged_h_0090.sdf

> <i_m_source_file_index>
76

> <r_mmod_Potential_Energy-OPLS-2005>
154.974456787109

> <r_mmod_Stretch_Energy-OPLS-2005>
81.957893371582

> <r_mmod_Bend_Energy-OPLS-2005>
244.07975769043

> <r_mmod_Torsional_Energy-OPLS-2005>
259.619110107422

> <r_mmod_Improper_Torsional_Energy-OPLS-2005>
7.5598578453064

> <r_mmod_Van_der_Waal_Energy-OPLS-2005>
119.557693481445

> <r_mmod_Electrostatic_Energy-OPLS-2005>
-409.448608398438

> <r_mmod_Solvation_Energy-OPLS-2005>
-185.550598144531

> <b_mmod_Minimization_Converged-OPLS-2005>
0

> <r_mmod_RMS_Derivative-OPLS-2005>
6.42502355575562

$$$$
77
                    3D
 Structure written by MMmdl.
171179  0  0  1  0            999 V2000
  -30.6459  -14.7110   20.5164 C   0  0  0  0  0  0
  -30.4402  -12.4246   19.4925 C   0  0  0  0  0  0
  -29.5399  -12.5271   18.2429 C   0  0  0  0  0  0
  -28.0539  -12.3752   18.6318 C   0  0  0  0  0  0
  -27.6578  -13.2481   19.8589 C   0  0  2  0  0  0
  -28.6977  -13.1448   21.0002 C   0  0  0  0  0  0
  -25.2558  -13.8233   20.5740 C   0  0  0  0  0  0
  -24.1805  -13.0450   20.9226 C   0  0  0  0  0  0
  -24.6401  -11.6944   20.8674 C   0  0  0  0  0  0
  -23.9037  -10.4313   21.0327 C   0  0  0  0  0  0
  -24.3581   -9.4263   21.9136 C   0  0  0  0  0  0
  -23.6277   -8.2279   22.0718 C   0  0  0  0  0  0
  -22.4276   -8.0279   21.3507 C   0  0  0  0  0  0
  -21.9883   -9.0248   20.4623 C   0  0  0  0  0  0
  -22.7186  -10.2140   20.3025 C   0  0  0  0  0  0
  -21.6869   -6.0709   22.5270 C   0  0  0  0  0  0
  -21.4036   -6.5601   23.8212 C   0  0  0  0  0  0
  -21.3686   -5.6753   24.9184 C   0  0  0  0  0  0
  -21.6071   -4.3018   24.7215 C   0  0  0  0  0  0
  -21.8799   -3.8110   23.4332 C   0  0  0  0  0  0
  -21.9177   -4.6926   22.3397 C   0  0  0  0  0  0
  -22.7827  -13.5279   21.1874 C   0  0  0  0  0  0
  -22.1647   -4.2103   21.0973 F   0  0  0  0  0  0
  -21.5656   -3.4521   25.7733 F   0  0  0  0  0  0
  -30.0079  -13.4881   20.4335 N   0  0  0  0  0  0
  -26.3017  -12.9473   20.3295 N   0  0  0  0  0  0
  -25.9353  -11.6581   20.5641 N   0  0  0  0  0  0
  -22.0363  -12.8332   22.0420 N   0  0  0  0  0  0
  -25.4126  -15.1939   20.4211 N   0  0  0  0  0  0
  -31.8200  -14.8110   20.1608 O   0  0  0  0  0  0
  -21.6633   -6.8869   21.4233 O   0  0  0  0  0  0
  -22.3509  -14.5526   20.6630 O   0  0  0  0  0  0
  -24.6364  -31.8516   23.1914 C   0  0  0  0  0  0
  -25.9213  -32.4676   23.8229 C   0  0  1  0  0  0
  -27.1955  -27.2379   20.1095 C   0  0  0  0  0  0
  -25.5982  -33.8474   24.2131 N   0  0  0  0  0  0
  -23.4316  -30.4855   21.5260 C   0  0  2  0  0  0
  -24.8705  -28.9236   20.0964 C   0  0  0  0  0  0
  -22.7467  -29.4701   22.4735 C   0  0  0  0  0  0
  -18.0321  -28.1418   22.8478 C   0  0  0  0  0  0
  -24.1491  -36.7281   23.2625 C   0  0  0  0  0  0
  -25.9794  -30.7528   21.3766 C   0  0  0  0  0  0
  -26.0433  -29.3788   20.7099 C   0  0  0  0  0  0
  -27.2114  -28.5468   20.7089 C   0  0  0  0  0  0
  -26.0080  -26.8730   19.4379 C   0  0  0  0  0  0
  -24.8561  -27.6811   19.4518 C   0  0  0  0  0  0
  -23.6500  -29.8214   20.1423 C   0  0  0  0  0  0
  -25.4117  -36.2972   24.0263 C   0  0  1  0  0  0
  -20.5910  -28.3796   23.1110 C   0  0  2  0  0  0
  -20.6773  -26.9486   22.5346 C   0  0  0  0  0  0
  -19.5771  -26.6419   21.5125 C   0  0  0  0  0  0
  -18.1975  -26.7972   22.1581 C   0  0  0  0  0  0
  -19.1574  -28.8912   23.2822 C   0  0  0  0  0  0
  -18.9524  -30.1489   23.8883 C   0  0  0  0  0  0
  -17.6523  -30.6608   24.0585 C   0  0  0  0  0  0
  -25.9083  -34.9360   23.4980 C   0  0  0  0  0  0
  -16.5407  -29.9129   23.6322 C   0  0  0  0  0  0
  -16.7304  -28.6530   23.0368 C   0  0  0  0  0  0
  -26.4575  -31.6557   25.0685 C   0  0  0  0  0  0
  -25.3767  -31.3852   26.1407 C   0  0  0  0  0  0
  -27.0429  -30.2905   24.6330 C   0  0  0  0  0  0
  -27.6037  -32.4373   25.7542 C   0  0  0  0  0  0
  -27.5548  -37.1799   24.8429 C   0  0  0  0  0  0
  -21.4169  -29.3161   22.3481 N   0  0  0  0  0  0
  -26.4234  -37.3714   23.9403 N   0  0  0  0  0  0
  -24.6995  -31.0493   22.0854 N   0  0  0  0  0  0
  -23.4157  -28.8220   23.2815 O   0  0  0  0  0  0
  -28.2646  -26.3106   20.1936 O   0  0  0  0  0  0
  -26.5653  -34.8846   22.4554 O   0  0  0  0  0  0
  -23.5514  -32.1340   23.7215 O   0  0  0  0  0  0
  -28.6464  -21.7742   23.0149 C   0  0  0  0  0  0
  -30.4726  -19.7158   22.9386 C   0  0  0  0  0  0
  -28.9524  -21.1922   21.7553 C   0  0  0  0  0  0
  -29.2449  -21.3628   24.2181 C   0  0  0  0  0  0
  -29.6740  -19.9067   21.7735 C   0  0  0  0  0  0
  -30.3209  -20.4511   24.1369 C   0  0  0  0  0  0
  -28.0718  -20.8059   26.4151 C   0  0  0  0  0  0
  -32.6410  -20.9019   25.1115 C   0  0  0  0  0  0
  -31.4583  -18.7281   25.6456 C   0  0  0  0  0  0
  -28.7182  -21.9102   25.5479 C   0  0  0  0  0  0
  -28.4569  -22.1011   20.5589 C   0  0  0  0  0  0
  -29.6404  -18.6583   20.7506 C   0  0  0  0  0  0
  -28.8700  -23.6831   20.6492 C   0  0  0  0  0  0
  -30.4167  -17.2609   21.1586 C   0  0  0  0  0  0
  -28.0207  -24.8454   19.9136 C   0  0  0  0  0  0
  -31.2796  -20.2174   25.3174 C   0  0  0  0  0  0
  -29.9175  -15.8447   20.8427 N   0  0  0  0  0  0
  -31.4967  -12.5035   19.2324 H   0  0  0  0  0  0
  -30.3313  -11.4342   19.9388 H   0  0  0  0  0  0
  -29.8263  -11.7728   17.5087 H   0  0  0  0  0  0
  -29.7089  -13.4900   17.7604 H   0  0  0  0  0  0
  -27.9045  -11.3225   18.8677 H   0  0  0  0  0  0
  -27.4176  -12.5935   17.7723 H   0  0  0  0  0  0
  -27.6709  -14.2829   19.5116 H   0  0  0  0  0  0
  -28.7127  -12.1402   21.4307 H   0  0  0  0  0  0
  -28.4362  -13.8072   21.8232 H   0  0  0  0  0  0
  -25.2714   -9.5786   22.4717 H   0  0  0  0  0  0
  -23.9986   -7.4704   22.7460 H   0  0  0  0  0  0
  -21.0821   -8.8746   19.8952 H   0  0  0  0  0  0
  -22.3605  -10.9649   19.6127 H   0  0  0  0  0  0
  -21.2026   -7.6102   23.9732 H   0  0  0  0  0  0
  -21.1559   -6.0465   25.9094 H   0  0  0  0  0  0
  -22.0536   -2.7554   23.2829 H   0  0  0  0  0  0
  -22.3876  -12.0092   22.5026 H   0  0  0  0  0  0
  -21.0918  -13.1340   22.2360 H   0  0  0  0  0  0
  -24.6315  -15.8290   20.5516 H   0  0  0  0  0  0
  -26.2624  -15.6634   20.1271 H   0  0  0  0  0  0
  -26.7296  -32.5316   23.0966 H   0  0  0  0  0  0
  -25.0126  -33.9610   25.0267 H   0  0  0  0  0  0
  -22.7332  -31.3123   21.3757 H   0  0  0  0  0  0
  -23.3636  -35.9722   23.3245 H   0  0  0  0  0  0
  -24.3575  -36.9003   22.2052 H   0  0  0  0  0  0
  -23.7376  -37.6505   23.6724 H   0  0  0  0  0  0
  -26.1431  -31.5161   20.6150 H   0  0  0  0  0  0
  -26.8440  -30.7807   22.0287 H   0  0  0  0  0  0
  -28.1081  -28.8908   21.2025 H   0  0  0  0  0  0
  -25.9328  -25.9415   18.8953 H   0  0  0  0  0  0
  -23.9609  -27.3377   18.9521 H   0  0  0  0  0  0
  -23.7964  -30.5933   19.3860 H   0  0  0  0  0  0
  -22.7626  -29.2707   19.8255 H   0  0  0  0  0  0
  -25.1314  -36.1717   25.0742 H   0  0  0  0  0  0
  -21.0100  -28.3446   24.1167 H   0  0  0  0  0  0
  -20.5562  -26.2471   23.3618 H   0  0  0  0  0  0
  -21.6671  -26.7444   22.1233 H   0  0  0  0  0  0
  -19.6935  -25.6294   21.1251 H   0  0  0  0  0  0
  -19.6657  -27.3123   20.6556 H   0  0  0  0  0  0
  -17.4224  -26.6664   21.4013 H   0  0  0  0  0  0
  -18.0444  -26.0090   22.8967 H   0  0  0  0  0  0
  -19.8016  -30.7306   24.2221 H   0  0  0  0  0  0
  -17.5106  -31.6264   24.5251 H   0  0  0  0  0  0
  -15.5427  -30.3066   23.7628 H   0  0  0  0  0  0
  -15.8701  -28.0843   22.7093 H   0  0  0  0  0  0
  -24.5880  -30.7257   25.7799 H   0  0  0  0  0  0
  -24.9061  -32.3102   26.4728 H   0  0  0  0  0  0
  -25.8069  -30.9124   27.0242 H   0  0  0  0  0  0
  -26.3060  -29.6626   24.1320 H   0  0  0  0  0  0
  -27.3935  -29.7247   25.4981 H   0  0  0  0  0  0
  -27.8999  -30.4029   23.9679 H   0  0  0  0  0  0
  -27.2494  -33.3637   26.2061 H   0  0  0  0  0  0
  -28.3909  -32.7047   25.0482 H   0  0  0  0  0  0
  -28.0600  -31.8572   26.5574 H   0  0  0  0  0  0
  -28.2515  -38.0146   24.7462 H   0  0  0  0  0  0
  -28.1097  -36.2670   24.6206 H   0  0  0  0  0  0
  -27.2289  -37.1383   25.8841 H   0  0  0  0  0  0
  -20.9307  -29.8896   21.6717 H   0  0  0  0  0  0
  -26.0025  -38.2736   24.1455 H   0  0  0  0  0  0
  -27.9678  -22.6157   23.0698 H   0  0  0  0  0  0
  -31.2255  -18.9492   22.9470 H   0  0  0  0  0  0
  -27.6266  -21.2149   27.3228 H   0  0  0  0  0  0
  -28.8019  -20.0668   26.7377 H   0  0  0  0  0  0
  -27.2906  -20.2675   25.8759 H   0  0  0  0  0  0
  -32.5213  -21.9662   24.9060 H   0  0  0  0  0  0
  -33.1925  -20.4701   24.2760 H   0  0  0  0  0  0
  -33.2685  -20.8178   26.0023 H   0  0  0  0  0  0
  -30.4853  -18.2580   25.7618 H   0  0  0  0  0  0
  -31.9894  -18.5764   26.5866 H   0  0  0  0  0  0
  -32.0088  -18.1957   24.8669 H   0  0  0  0  0  0
  -27.9697  -22.6869   25.3665 H   0  0  0  0  0  0
  -29.5126  -22.4058   26.1057 H   0  0  0  0  0  0
  -27.3673  -22.0444   20.5581 H   0  0  0  0  0  0
  -28.7586  -21.6511   19.6109 H   0  0  0  0  0  0
  -30.0585  -19.0188   19.8068 H   0  0  0  0  0  0
  -28.6035  -18.4119   20.5063 H   0  0  0  0  0  0
  -29.9162  -23.7507   20.3526 H   0  0  0  0  0  0
  -28.8733  -23.9757   21.6959 H   0  0  0  0  0  0
  -30.4533  -17.1855   22.2425 H   0  0  0  0  0  0
  -31.4612  -17.3519   20.8437 H   0  0  0  0  0  0
  -28.1184  -24.7054   18.8339 H   0  0  0  0  0  0
  -26.9848  -24.6042   20.1510 H   0  0  0  0  0  0
  -30.8749  -20.6937   26.2097 H   0  0  0  0  0  0
  -28.9638  -15.6652   21.1138 H   0  0  0  0  0  0
  1 25  1  0  0  0
  1 30  2  0  0  0
  1 87  1  0  0  0
  2  3  1  0  0  0
  2 25  1  0  0  0
  2 88  1  0  0  0
  2 89  1  0  0  0
  3  4  1  0  0  0
  3 90  1  0  0  0
  3 91  1  0  0  0
  4  5  1  0  0  0
  4 92  1  0  0  0
  4 93  1  0  0  0
  5  6  1  0  0  0
  5 26  1  0  0  0
  5 94  1  0  0  0
  6 25  1  0  0  0
  6 95  1  0  0  0
  6 96  1  0  0  0
  7  8  2  0  0  0
  7 26  1  0  0  0
  7 29  1  0  0  0
  8  9  1  0  0  0
  8 22  1  0  0  0
  9 10  1  0  0  0
  9 27  2  0  0  0
 10 11  2  0  0  0
 10 15  1  0  0  0
 11 12  1  0  0  0
 11 97  1  0  0  0
 12 13  2  0  0  0
 12 98  1  0  0  0
 13 14  1  0  0  0
 13 31  1  0  0  0
 14 15  2  0  0  0
 14 99  1  0  0  0
 15100  1  0  0  0
 16 17  2  0  0  0
 16 21  1  0  0  0
 16 31  1  0  0  0
 17 18  1  0  0  0
 17101  1  0  0  0
 18 19  2  0  0  0
 18102  1  0  0  0
 19 20  1  0  0  0
 19 24  1  0  0  0
 20 21  2  0  0  0
 20103  1  0  0  0
 21 23  1  0  0  0
 22 28  1  0  0  0
 22 32  2  0  0  0
 26 27  1  0  0  0
 28104  1  0  0  0
 28105  1  0  0  0
 29106  1  0  0  0
 29107  1  0  0  0
 33 34  1  0  0  0
 33 66  1  0  0  0
 33 70  2  0  0  0
 34 36  1  0  0  0
 34 59  1  0  0  0
 34108  1  0  0  0
 35 44  2  0  0  0
 35 45  1  0  0  0
 35 68  1  0  0  0
 36 56  1  0  0  0
 36109  1  0  0  0
 37 39  1  0  0  0
 37 47  1  0  0  0
 37 66  1  0  0  0
 37110  1  0  0  0
 38 43  2  0  0  0
 38 46  1  0  0  0
 38 47  1  0  0  0
 39 64  1  0  0  0
 39 67  2  0  0  0
 40 52  1  0  0  0
 40 53  2  0  0  0
 40 58  1  0  0  0
 41111  1  0  0  0
 41112  1  0  0  0
 41113  1  0  0  0
 41 48  1  0  0  0
 42 43  1  0  0  0
 42 66  1  0  0  0
 42114  1  0  0  0
 42115  1  0  0  0
 43 44  1  0  0  0
 44116  1  0  0  0
 45 46  2  0  0  0
 45117  1  0  0  0
 46118  1  0  0  0
 47119  1  0  0  0
 47120  1  0  0  0
 48 56  1  0  0  0
 48 65  1  0  0  0
 48121  1  0  0  0
 49 50  1  0  0  0
 49 53  1  0  0  0
 49 64  1  0  0  0
 49122  1  0  0  0
 50 51  1  0  0  0
 50123  1  0  0  0
 50124  1  0  0  0
 51 52  1  0  0  0
 51125  1  0  0  0
 51126  1  0  0  0
 52127  1  0  0  0
 52128  1  0  0  0
 53 54  1  0  0  0
 54 55  2  0  0  0
 54129  1  0  0  0
 55 57  1  0  0  0
 55130  1  0  0  0
 56 69  2  0  0  0
 57 58  2  0  0  0
 57131  1  0  0  0
 58132  1  0  0  0
 59 60  1  0  0  0
 59 61  1  0  0  0
 59 62  1  0  0  0
 60133  1  0  0  0
 60134  1  0  0  0
 60135  1  0  0  0
 61136  1  0  0  0
 61137  1  0  0  0
 61138  1  0  0  0
 62139  1  0  0  0
 62140  1  0  0  0
 62141  1  0  0  0
 63 65  1  0  0  0
 63142  1  0  0  0
 63143  1  0  0  0
 63144  1  0  0  0
 64145  1  0  0  0
 65146  1  0  0  0
 68 85  1  0  0  0
 71 73  2  0  0  0
 71 74  1  0  0  0
 71147  1  0  0  0
 72 75  2  0  0  0
 72 76  1  0  0  0
 72148  1  0  0  0
 73 75  1  0  0  0
 73 81  1  0  0  0
 74 76  2  0  0  0
 74 80  1  0  0  0
 75 82  1  0  0  0
 76 86  1  0  0  0
 77 80  1  0  0  0
 77149  1  0  0  0
 77150  1  0  0  0
 77151  1  0  0  0
 78152  1  0  0  0
 78153  1  0  0  0
 78154  1  0  0  0
 78 86  1  0  0  0
 79 86  1  0  0  0
 79155  1  0  0  0
 79156  1  0  0  0
 79157  1  0  0  0
 80158  1  0  0  0
 80159  1  0  0  0
 81 83  1  0  0  0
 81160  1  0  0  0
 81161  1  0  0  0
 82 84  1  0  0  0
 82162  1  0  0  0
 82163  1  0  0  0
 83 85  1  0  0  0
 83164  1  0  0  0
 83165  1  0  0  0
 84 87  1  0  0  0
 84166  1  0  0  0
 84167  1  0  0  0
 85168  1  0  0  0
 85169  1  0  0  0
 86170  1  0  0  0
 87171  1  0  0  0
M  ISO  4   1 100  68 101  85 101  87 100
M  END
> <chiral flag>
0

> <version>
0

> <s_m_source_file>
/data/baiqing/PycharmProjects/Reinvent-master-3.2/result/LINK_invent/BTK/process_docking_weight1_custom_sum_contain_oxygen_bond_distance_aromatic_linkinvent_7_9_3/rearranged_h_0090.sdf

> <i_m_source_file_index>
77

> <r_mmod_Potential_Energy-OPLS-2005>
259.222717285156

> <r_mmod_Stretch_Energy-OPLS-2005>
151.227813720703

> <r_mmod_Bend_Energy-OPLS-2005>
207.16227722168

> <r_mmod_Torsional_Energy-OPLS-2005>
278.486602783203

> <r_mmod_Improper_Torsional_Energy-OPLS-2005>
4.17054319381714

> <r_mmod_Van_der_Waal_Energy-OPLS-2005>
153.244049072266

> <r_mmod_Electrostatic_Energy-OPLS-2005>
-417.551452636719

> <r_mmod_Solvation_Energy-OPLS-2005>
-204.652496337891

> <b_mmod_Minimization_Converged-OPLS-2005>
0

> <r_mmod_RMS_Derivative-OPLS-2005>
9.13664150238037

$$$$
78
                    3D
 Structure written by MMmdl.
159167  0  0  1  0            999 V2000
  -30.7723  -14.3635   20.6831 C   0  0  0  0  0  0
  -30.4150  -12.2960   19.3880 C   0  0  0  0  0  0
  -29.4763  -12.5251   18.1896 C   0  0  0  0  0  0
  -28.0032  -12.3662   18.6106 C   0  0  0  0  0  0
  -27.6609  -13.1959   19.8745 C   0  0  2  0  0  0
  -28.7027  -12.9483   20.9884 C   0  0  0  0  0  0
  -25.2576  -13.8131   20.5668 C   0  0  0  0  0  0
  -24.1813  -13.0430   20.9168 C   0  0  0  0  0  0
  -24.6359  -11.6891   20.8751 C   0  0  0  0  0  0
  -23.9022  -10.4289   21.0425 C   0  0  0  0  0  0
  -24.3588   -9.4206   21.9199 C   0  0  0  0  0  0
  -23.6280   -8.2229   22.0753 C   0  0  0  0  0  0
  -22.4267   -8.0265   21.3530 C   0  0  0  0  0  0
  -21.9889   -9.0240   20.4638 C   0  0  0  0  0  0
  -22.7200  -10.2130   20.3060 C   0  0  0  0  0  0
  -21.6839   -6.0732   22.5279 C   0  0  0  0  0  0
  -21.4005   -6.5640   23.8217 C   0  0  0  0  0  0
  -21.3659   -5.6794   24.9176 C   0  0  0  0  0  0
  -21.6050   -4.3058   24.7226 C   0  0  0  0  0  0
  -21.8817   -3.8146   23.4352 C   0  0  0  0  0  0
  -21.9184   -4.6962   22.3405 C   0  0  0  0  0  0
  -22.7835  -13.5234   21.1855 C   0  0  0  0  0  0
  -22.1663   -4.2153   21.0984 F   0  0  0  0  0  0
  -21.5637   -3.4541   25.7740 F   0  0  0  0  0  0
  -30.0438  -13.2414   20.4502 N   0  0  0  0  0  0
  -26.3007  -12.9284   20.3374 N   0  0  0  0  0  0
  -25.9277  -11.6454   20.5767 N   0  0  0  0  0  0
  -22.0484  -12.8227   22.0423 N   0  0  0  0  0  0
  -25.4331  -15.1854   20.4106 N   0  0  0  0  0  0
  -31.8208  -14.6324   20.0933 O   0  0  0  0  0  0
  -21.6632   -6.8866   21.4230 O   0  0  0  0  0  0
  -22.3533  -14.5555   20.6725 O   0  0  0  0  0  0
  -24.6114  -31.8719   23.2134 C   0  0  0  0  0  0
  -25.9026  -32.4834   23.8422 C   0  0  1  0  0  0
  -27.2414  -27.4681   20.0702 C   0  0  0  0  0  0
  -25.5892  -33.8630   24.2350 N   0  0  0  0  0  0
  -23.3961  -30.4971   21.5545 C   0  0  2  0  0  0
  -24.8390  -28.9633   20.1199 C   0  0  0  0  0  0
  -22.7392  -29.4695   22.5025 C   0  0  0  0  0  0
  -18.0280  -28.1350   22.8555 C   0  0  0  0  0  0
  -24.1488  -36.7322   23.2640 C   0  0  0  0  0  0
  -25.9227  -30.8440   21.3624 C   0  0  0  0  0  0
  -25.9977  -29.4793   20.7115 C   0  0  0  0  0  0
  -27.1962  -28.7364   20.6872 C   0  0  0  0  0  0
  -26.0590  -26.9558   19.4850 C   0  0  0  0  0  0
  -24.8628  -27.6973   19.5101 C   0  0  0  0  0  0
  -23.6010  -29.8289   20.1697 C   0  0  0  0  0  0
  -25.4105  -36.3122   24.0349 C   0  0  1  0  0  0
  -20.5867  -28.3630   23.1341 C   0  0  2  0  0  0
  -20.6817  -26.9400   22.5342 C   0  0  0  0  0  0
  -19.5708  -26.6389   21.5222 C   0  0  0  0  0  0
  -18.1931  -26.7881   22.1738 C   0  0  0  0  0  0
  -19.1531  -28.8807   23.2944 C   0  0  0  0  0  0
  -18.9466  -30.1444   23.8889 C   0  0  0  0  0  0
  -17.6460  -30.6565   24.0563 C   0  0  0  0  0  0
  -25.9029  -34.9485   23.5145 C   0  0  0  0  0  0
  -16.5349  -29.9057   23.6359 C   0  0  0  0  0  0
  -16.7273  -28.6479   23.0386 C   0  0  0  0  0  0
  -26.4453  -31.6594   25.0740 C   0  0  0  0  0  0
  -25.3722  -31.3674   26.1493 C   0  0  0  0  0  0
  -27.0295  -30.3051   24.6079 C   0  0  0  0  0  0
  -27.6038  -32.4305   25.7483 C   0  0  0  0  0  0
  -27.5586  -37.1816   24.8469 C   0  0  0  0  0  0
  -21.4110  -29.3059   22.3803 N   0  0  0  0  0  0
  -26.4300  -37.3799   23.9414 N   0  0  0  0  0  0
  -24.6615  -31.0859   22.1014 N   0  0  0  0  0  0
  -23.4190  -28.8244   23.3049 O   0  0  0  0  0  0
  -28.4526  -26.8087   20.0597 O   0  0  0  0  0  0
  -26.5585  -34.8933   22.4702 O   0  0  0  0  0  0
  -23.5315  -32.1455   23.7552 O   0  0  0  0  0  0
  -29.1423  -19.9410   21.4398 C   0  0  0  0  0  0
  -28.0497  -20.6087   20.9609 C   0  0  0  0  0  0
  -27.3593  -19.6234   20.1981 C   0  0  0  0  0  0
  -26.0833  -19.7781   19.4227 C   0  0  0  0  0  0
  -27.6635  -22.0423   21.2062 C   0  0  0  0  0  0
  -28.2641  -23.0073   20.1725 C   0  0  0  0  0  0
  -28.0003  -24.4700   20.5624 C   0  0  0  0  0  0
  -30.0113  -17.5570   21.2481 C   0  0  0  0  0  0
  -29.3523  -16.1790   21.4730 C   0  0  0  0  0  0
  -28.5458  -25.4840   19.5447 C   0  0  0  0  0  0
  -27.9786  -18.4509   20.2150 N   0  0  0  0  0  0
  -29.0594  -18.6341   21.0095 N   0  0  0  0  0  0
  -30.3578  -15.1356   21.6910 N   0  0  0  0  0  0
  -31.4559  -12.4012   19.0783 H   0  0  0  0  0  0
  -30.3245  -11.2737   19.7587 H   0  0  0  0  0  0
  -29.7121  -11.8257   17.3872 H   0  0  0  0  0  0
  -29.6344  -13.5255   17.7833 H   0  0  0  0  0  0
  -27.8188  -11.3079   18.7994 H   0  0  0  0  0  0
  -27.3457  -12.6454   17.7876 H   0  0  0  0  0  0
  -27.7079  -14.2430   19.5832 H   0  0  0  0  0  0
  -28.6704  -11.9065   21.3088 H   0  0  0  0  0  0
  -28.4555  -13.5297   21.8764 H   0  0  0  0  0  0
  -25.2730   -9.5694   22.4772 H   0  0  0  0  0  0
  -24.0011   -7.4609   22.7454 H   0  0  0  0  0  0
  -21.0831   -8.8744   19.8928 H   0  0  0  0  0  0
  -22.3659  -10.9678   19.6176 H   0  0  0  0  0  0
  -21.1998   -7.6149   23.9727 H   0  0  0  0  0  0
  -21.1487   -6.0521   25.9088 H   0  0  0  0  0  0
  -22.0599   -2.7610   23.2844 H   0  0  0  0  0  0
  -22.4100  -11.9864   22.4767 H   0  0  0  0  0  0
  -21.1104  -13.1251   22.2678 H   0  0  0  0  0  0
  -24.6762  -15.8486   20.5281 H   0  0  0  0  0  0
  -26.2992  -15.6255   20.1257 H   0  0  0  0  0  0
  -26.7095  -32.5559   23.1188 H   0  0  0  0  0  0
  -25.0052  -33.9784   25.0503 H   0  0  0  0  0  0
  -22.6812  -31.3107   21.4176 H   0  0  0  0  0  0
  -23.3749  -35.9658   23.3315 H   0  0  0  0  0  0
  -24.3575  -36.8919   22.2050 H   0  0  0  0  0  0
  -23.7239  -37.6535   23.6637 H   0  0  0  0  0  0
  -26.0329  -31.6132   20.5962 H   0  0  0  0  0  0
  -26.8092  -30.8943   21.9828 H   0  0  0  0  0  0
  -28.0933  -29.1401   21.1355 H   0  0  0  0  0  0
  -26.0370  -25.9938   18.9959 H   0  0  0  0  0  0
  -23.9707  -27.2942   19.0504 H   0  0  0  0  0  0
  -23.7069  -30.6039   19.4090 H   0  0  0  0  0  0
  -22.7238  -29.2495   19.8755 H   0  0  0  0  0  0
  -25.1278  -36.1992   25.0842 H   0  0  0  0  0  0
  -20.9955  -28.3117   24.1459 H   0  0  0  0  0  0
  -20.5901  -26.2176   23.3476 H   0  0  0  0  0  0
  -21.6652  -26.7578   22.0982 H   0  0  0  0  0  0
  -19.6547  -27.3231   20.6769 H   0  0  0  0  0  0
  -19.6843  -25.6337   21.1146 H   0  0  0  0  0  0
  -17.4124  -26.6521   21.4239 H   0  0  0  0  0  0
  -18.0407  -26.0080   22.9211 H   0  0  0  0  0  0
  -19.7932  -30.7297   24.2204 H   0  0  0  0  0  0
  -17.5017  -31.6263   24.5110 H   0  0  0  0  0  0
  -15.5351  -30.2971   23.7656 H   0  0  0  0  0  0
  -15.8682  -28.0814   22.7047 H   0  0  0  0  0  0
  -24.5891  -30.7019   25.7835 H   0  0  0  0  0  0
  -24.8915  -32.2821   26.4976 H   0  0  0  0  0  0
  -25.8089  -30.8822   27.0230 H   0  0  0  0  0  0
  -26.2849  -29.6804   24.1129 H   0  0  0  0  0  0
  -27.4095  -29.7278   25.4519 H   0  0  0  0  0  0
  -27.8663  -30.4410   23.9220 H   0  0  0  0  0  0
  -27.2665  -33.3593   26.2090 H   0  0  0  0  0  0
  -28.3814  -32.6867   25.0277 H   0  0  0  0  0  0
  -28.0736  -31.8404   26.5359 H   0  0  0  0  0  0
  -28.2612  -38.0106   24.7507 H   0  0  0  0  0  0
  -28.1070  -36.2634   24.6303 H   0  0  0  0  0  0
  -27.2301  -37.1483   25.8872 H   0  0  0  0  0  0
  -20.9218  -29.8781   21.7065 H   0  0  0  0  0  0
  -26.0197  -38.2889   24.1382 H   0  0  0  0  0  0
  -29.9598  -20.2858   22.0572 H   0  0  0  0  0  0
  -25.6267  -18.8143   19.1999 H   0  0  0  0  0  0
  -26.2625  -20.2915   18.4776 H   0  0  0  0  0  0
  -25.3489  -20.3602   19.9774 H   0  0  0  0  0  0
  -27.9891  -22.3468   22.2016 H   0  0  0  0  0  0
  -26.5780  -22.1530   21.2069 H   0  0  0  0  0  0
  -27.8519  -22.8019   19.1833 H   0  0  0  0  0  0
  -29.3406  -22.8452   20.0991 H   0  0  0  0  0  0
  -28.4618  -24.6670   21.5312 H   0  0  0  0  0  0
  -26.9301  -24.6202   20.7046 H   0  0  0  0  0  0
  -30.6976  -17.5241   20.4007 H   0  0  0  0  0  0
  -30.6089  -17.8245   22.1220 H   0  0  0  0  0  0
  -28.7263  -15.9321   20.6155 H   0  0  0  0  0  0
  -28.6849  -16.2168   22.3341 H   0  0  0  0  0  0
  -29.6053  -25.2873   19.3748 H   0  0  0  0  0  0
  -28.0686  -25.3879   18.5694 H   0  0  0  0  0  0
  -31.1400  -15.4983   22.2160 H   0  0  0  0  0  0
  1 25  1  0  0  0
  1 30  2  0  0  0
  1 83  1  0  0  0
  2  3  1  0  0  0
  2 25  1  0  0  0
  2 84  1  0  0  0
  2 85  1  0  0  0
  3  4  1  0  0  0
  3 86  1  0  0  0
  3 87  1  0  0  0
  4  5  1  0  0  0
  4 88  1  0  0  0
  4 89  1  0  0  0
  5  6  1  0  0  0
  5 26  1  0  0  0
  5 90  1  0  0  0
  6 25  1  0  0  0
  6 91  1  0  0  0
  6 92  1  0  0  0
  7  8  2  0  0  0
  7 26  1  0  0  0
  7 29  1  0  0  0
  8  9  1  0  0  0
  8 22  1  0  0  0
  9 10  1  0  0  0
  9 27  2  0  0  0
 10 11  2  0  0  0
 10 15  1  0  0  0
 11 12  1  0  0  0
 11 93  1  0  0  0
 12 13  2  0  0  0
 12 94  1  0  0  0
 13 14  1  0  0  0
 13 31  1  0  0  0
 14 15  2  0  0  0
 14 95  1  0  0  0
 15 96  1  0  0  0
 16 17  2  0  0  0
 16 21  1  0  0  0
 16 31  1  0  0  0
 17 18  1  0  0  0
 17 97  1  0  0  0
 18 19  2  0  0  0
 18 98  1  0  0  0
 19 20  1  0  0  0
 19 24  1  0  0  0
 20 21  2  0  0  0
 20 99  1  0  0  0
 21 23  1  0  0  0
 22 28  1  0  0  0
 22 32  2  0  0  0
 26 27  1  0  0  0
 28100  1  0  0  0
 28101  1  0  0  0
 29102  1  0  0  0
 29103  1  0  0  0
 33 34  1  0  0  0
 33 66  1  0  0  0
 33 70  2  0  0  0
 34 36  1  0  0  0
 34 59  1  0  0  0
 34104  1  0  0  0
 35 44  2  0  0  0
 35 45  1  0  0  0
 35 68  1  0  0  0
 36 56  1  0  0  0
 36105  1  0  0  0
 37 39  1  0  0  0
 37 47  1  0  0  0
 37 66  1  0  0  0
 37106  1  0  0  0
 38 43  2  0  0  0
 38 46  1  0  0  0
 38 47  1  0  0  0
 39 64  1  0  0  0
 39 67  2  0  0  0
 40 52  1  0  0  0
 40 53  2  0  0  0
 40 58  1  0  0  0
 41107  1  0  0  0
 41108  1  0  0  0
 41109  1  0  0  0
 41 48  1  0  0  0
 42 43  1  0  0  0
 42 66  1  0  0  0
 42110  1  0  0  0
 42111  1  0  0  0
 43 44  1  0  0  0
 44112  1  0  0  0
 45 46  2  0  0  0
 45113  1  0  0  0
 46114  1  0  0  0
 47115  1  0  0  0
 47116  1  0  0  0
 48 56  1  0  0  0
 48 65  1  0  0  0
 48117  1  0  0  0
 49 50  1  0  0  0
 49 53  1  0  0  0
 49 64  1  0  0  0
 49118  1  0  0  0
 50 51  1  0  0  0
 50119  1  0  0  0
 50120  1  0  0  0
 51 52  1  0  0  0
 51121  1  0  0  0
 51122  1  0  0  0
 52123  1  0  0  0
 52124  1  0  0  0
 53 54  1  0  0  0
 54 55  2  0  0  0
 54125  1  0  0  0
 55 57  1  0  0  0
 55126  1  0  0  0
 56 69  2  0  0  0
 57 58  2  0  0  0
 57127  1  0  0  0
 58128  1  0  0  0
 59 60  1  0  0  0
 59 61  1  0  0  0
 59 62  1  0  0  0
 60129  1  0  0  0
 60130  1  0  0  0
 60131  1  0  0  0
 61132  1  0  0  0
 61133  1  0  0  0
 61134  1  0  0  0
 62135  1  0  0  0
 62136  1  0  0  0
 62137  1  0  0  0
 63 65  1  0  0  0
 63138  1  0  0  0
 63139  1  0  0  0
 63140  1  0  0  0
 64141  1  0  0  0
 65142  1  0  0  0
 68 80  1  0  0  0
 71 72  2  0  0  0
 71 82  1  0  0  0
 71143  1  0  0  0
 72 73  1  0  0  0
 72 75  1  0  0  0
 73 74  1  0  0  0
 73 81  2  0  0  0
 74144  1  0  0  0
 74145  1  0  0  0
 74146  1  0  0  0
 75 76  1  0  0  0
 75147  1  0  0  0
 75148  1  0  0  0
 76 77  1  0  0  0
 76149  1  0  0  0
 76150  1  0  0  0
 77 80  1  0  0  0
 77151  1  0  0  0
 77152  1  0  0  0
 78 79  1  0  0  0
 78 82  1  0  0  0
 78153  1  0  0  0
 78154  1  0  0  0
 79 83  1  0  0  0
 79155  1  0  0  0
 79156  1  0  0  0
 80157  1  0  0  0
 80158  1  0  0  0
 81 82  1  0  0  0
 83159  1  0  0  0
M  ISO  4   1 100  68 101  80 101  83 100
M  END
> <chiral flag>
0

> <version>
0

> <s_m_source_file>
/data/baiqing/PycharmProjects/Reinvent-master-3.2/result/LINK_invent/BTK/process_docking_weight1_custom_sum_contain_oxygen_bond_distance_aromatic_linkinvent_7_9_3/rearranged_h_0090.sdf

> <i_m_source_file_index>
78

> <r_mmod_Potential_Energy-OPLS-2005>
-99.3492889404297

> <r_mmod_Stretch_Energy-OPLS-2005>
30.0498332977295

> <r_mmod_Bend_Energy-OPLS-2005>
99.7300033569336

> <r_mmod_Torsional_Energy-OPLS-2005>
248.545776367188

> <r_mmod_Improper_Torsional_Energy-OPLS-2005>
7.09808540344238

> <r_mmod_Van_der_Waal_Energy-OPLS-2005>
125.831840515137

> <r_mmod_Electrostatic_Energy-OPLS-2005>
-408.575836181641

> <r_mmod_Solvation_Energy-OPLS-2005>
-210.432098388672

> <b_mmod_Minimization_Converged-OPLS-2005>
0

> <r_mmod_RMS_Derivative-OPLS-2005>
2.51480627059937

$$$$
79
                    3D
 Structure written by MMmdl.
167175  0  0  1  0            999 V2000
  -30.6236  -14.7317   20.4339 C   0  0  0  0  0  0
  -30.4278  -12.4433   19.4587 C   0  0  0  0  0  0
  -29.5006  -12.4921   18.2252 C   0  0  0  0  0  0
  -28.0289  -12.3213   18.6476 C   0  0  0  0  0  0
  -27.6391  -13.2301   19.8435 C   0  0  2  0  0  0
  -28.6885  -13.1743   20.9744 C   0  0  0  0  0  0
  -25.2515  -13.8199   20.5698 C   0  0  0  0  0  0
  -24.1805  -13.0443   20.9219 C   0  0  0  0  0  0
  -24.6391  -11.6919   20.8773 C   0  0  0  0  0  0
  -23.9071  -10.4293   21.0420 C   0  0  0  0  0  0
  -24.3622   -9.4205   21.9195 C   0  0  0  0  0  0
  -23.6298   -8.2236   22.0754 C   0  0  0  0  0  0
  -22.4280   -8.0282   21.3538 C   0  0  0  0  0  0
  -21.9920   -9.0257   20.4645 C   0  0  0  0  0  0
  -22.7247  -10.2133   20.3063 C   0  0  0  0  0  0
  -21.6852   -6.0739   22.5278 C   0  0  0  0  0  0
  -21.4011   -6.5643   23.8212 C   0  0  0  0  0  0
  -21.3659   -5.6797   24.9180 C   0  0  0  0  0  0
  -21.6040   -4.3056   24.7230 C   0  0  0  0  0  0
  -21.8823   -3.8151   23.4351 C   0  0  0  0  0  0
  -21.9192   -4.6968   22.3406 C   0  0  0  0  0  0
  -22.7825  -13.5222   21.1886 C   0  0  0  0  0  0
  -22.1663   -4.2152   21.0984 F   0  0  0  0  0  0
  -21.5630   -3.4544   25.7744 F   0  0  0  0  0  0
  -29.9881  -13.5133   20.3810 N   0  0  0  0  0  0
  -26.2934  -12.9402   20.3281 N   0  0  0  0  0  0
  -25.9316  -11.6546   20.5765 N   0  0  0  0  0  0
  -22.0481  -12.8194   22.0437 N   0  0  0  0  0  0
  -25.4211  -15.1922   20.4098 N   0  0  0  0  0  0
  -31.8229  -14.8154   20.1619 O   0  0  0  0  0  0
  -21.6636   -6.8881   21.4234 O   0  0  0  0  0  0
  -22.3504  -14.5530   20.6742 O   0  0  0  0  0  0
  -24.6325  -31.8561   23.1996 C   0  0  0  0  0  0
  -25.9153  -32.4750   23.8339 C   0  0  1  0  0  0
  -27.2199  -27.2687   20.1064 C   0  0  0  0  0  0
  -25.5953  -33.8554   24.2261 N   0  0  0  0  0  0
  -23.4276  -30.4787   21.5441 C   0  0  2  0  0  0
  -24.8738  -28.9311   20.1091 C   0  0  0  0  0  0
  -22.7507  -29.4595   22.4918 C   0  0  0  0  0  0
  -18.0294  -28.1374   22.8454 C   0  0  0  0  0  0
  -24.1499  -36.7288   23.2632 C   0  0  0  0  0  0
  -25.9759  -30.7674   21.3820 C   0  0  0  0  0  0
  -26.0484  -29.3936   20.7163 C   0  0  0  0  0  0
  -27.2251  -28.5756   20.7021 C   0  0  0  0  0  0
  -26.0170  -26.8748   19.4769 C   0  0  0  0  0  0
  -24.8631  -27.6794   19.4796 C   0  0  0  0  0  0
  -23.6459  -29.8173   20.1592 C   0  0  0  0  0  0
  -25.4128  -36.3068   24.0316 C   0  0  1  0  0  0
  -20.5899  -28.3694   23.1256 C   0  0  2  0  0  0
  -20.6790  -26.9411   22.5396 C   0  0  0  0  0  0
  -19.5771  -26.6373   21.5195 C   0  0  0  0  0  0
  -18.1944  -26.7912   22.1596 C   0  0  0  0  0  0
  -19.1544  -28.8847   23.2845 C   0  0  0  0  0  0
  -18.9471  -30.1448   23.8874 C   0  0  0  0  0  0
  -17.6469  -30.6574   24.0553 C   0  0  0  0  0  0
  -25.9070  -34.9437   23.5086 C   0  0  0  0  0  0
  -16.5362  -29.9067   23.6331 C   0  0  0  0  0  0
  -16.7277  -28.6489   23.0334 C   0  0  0  0  0  0
  -26.4516  -31.6571   25.0729 C   0  0  0  0  0  0
  -25.3733  -31.3711   26.1445 C   0  0  0  0  0  0
  -27.0367  -30.2992   24.6219 C   0  0  0  0  0  0
  -27.6073  -32.4320   25.7493 C   0  0  0  0  0  0
  -27.5581  -37.1793   24.8457 C   0  0  0  0  0  0
  -21.4211  -29.3041   22.3656 N   0  0  0  0  0  0
  -26.4298  -37.3770   23.9396 N   0  0  0  0  0  0
  -24.6975  -31.0512   22.0982 N   0  0  0  0  0  0
  -23.4206  -28.8122   23.3011 O   0  0  0  0  0  0
  -28.3181  -26.3757   20.1493 O   0  0  0  0  0  0
  -26.5627  -34.8905   22.4651 O   0  0  0  0  0  0
  -23.5476  -32.1384   23.7295 O   0  0  0  0  0  0
  -28.2868  -21.8018   22.3015 C   0  0  0  0  0  0
  -28.0149  -21.0769   23.4649 C   0  0  0  0  0  0
  -28.8008  -21.1773   21.1390 C   0  0  0  0  0  0
  -28.2571  -19.7042   23.4643 C   0  0  0  0  0  0
  -29.0192  -19.7137   21.2310 C   0  0  0  0  0  0
  -29.2421  -18.3142   25.3418 C   0  0  0  0  0  0
  -26.9681  -17.7211   24.3574 C   0  0  0  0  0  0
  -29.7801  -19.1345   18.8113 C   0  0  0  0  0  0
  -28.9723  -22.1972   19.9406 C   0  0  0  0  0  0
  -29.2018  -23.7950   20.2266 C   0  0  0  0  0  0
  -30.3139  -17.3395   20.6287 C   0  0  0  0  0  0
  -28.0688  -24.9056   19.9444 C   0  0  0  0  0  0
  -27.9589  -18.8487   24.6891 C   0  0  0  0  0  0
  -29.3369  -18.5699   20.1682 C   0  0  1  0  0  0
  -28.7405  -19.0688   22.3858 N   0  0  0  0  0  0
  -29.8585  -15.8768   20.5757 N   0  0  0  0  0  0
  -31.4681  -12.5614   19.1521 H   0  0  0  0  0  0
  -30.3677  -11.4703   19.9489 H   0  0  0  0  0  0
  -29.7754  -11.7118   17.5143 H   0  0  0  0  0  0
  -29.6246  -13.4414   17.7021 H   0  0  0  0  0  0
  -27.8880  -11.2745   18.9205 H   0  0  0  0  0  0
  -27.3661  -12.5037   17.8003 H   0  0  0  0  0  0
  -27.6293  -14.2482   19.4531 H   0  0  0  0  0  0
  -28.7216  -12.1830   21.4292 H   0  0  0  0  0  0
  -28.4322  -13.8704   21.7741 H   0  0  0  0  0  0
  -25.2766   -9.5678   22.4773 H   0  0  0  0  0  0
  -24.0013   -7.4626   22.7467 H   0  0  0  0  0  0
  -21.0857   -8.8775   19.8947 H   0  0  0  0  0  0
  -22.3715  -10.9675   19.6175 H   0  0  0  0  0  0
  -21.1997   -7.6150   23.9716 H   0  0  0  0  0  0
  -21.1477   -6.0529   25.9081 H   0  0  0  0  0  0
  -22.0600   -2.7611   23.2853 H   0  0  0  0  0  0
  -22.4107  -11.9846   22.4801 H   0  0  0  0  0  0
  -21.1093  -13.1196   22.2661 H   0  0  0  0  0  0
  -24.6545  -15.8469   20.5224 H   0  0  0  0  0  0
  -26.2687  -15.6296   20.0739 H   0  0  0  0  0  0
  -26.7205  -32.5408   23.1070 H   0  0  0  0  0  0
  -25.0150  -33.9711   25.0432 H   0  0  0  0  0  0
  -22.7240  -31.3007   21.3984 H   0  0  0  0  0  0
  -23.3767  -35.9612   23.3298 H   0  0  0  0  0  0
  -24.3600  -36.8931   22.2047 H   0  0  0  0  0  0
  -23.7256  -37.6483   23.6676 H   0  0  0  0  0  0
  -26.1182  -31.5316   20.6172 H   0  0  0  0  0  0
  -26.8511  -30.8095   22.0182 H   0  0  0  0  0  0
  -28.1254  -28.9230   21.1875 H   0  0  0  0  0  0
  -25.9282  -25.9208   18.9803 H   0  0  0  0  0  0
  -23.9640  -27.3215   18.9961 H   0  0  0  0  0  0
  -23.7752  -30.5962   19.4075 H   0  0  0  0  0  0
  -22.7631  -29.2558   19.8481 H   0  0  0  0  0  0
  -25.1307  -36.1913   25.0806 H   0  0  0  0  0  0
  -20.9971  -28.3276   24.1384 H   0  0  0  0  0  0
  -20.5711  -26.2295   23.3598 H   0  0  0  0  0  0
  -21.6660  -26.7454   22.1182 H   0  0  0  0  0  0
  -19.6958  -25.6282   21.1237 H   0  0  0  0  0  0
  -19.6723  -27.3170   20.6714 H   0  0  0  0  0  0
  -17.4221  -26.6652   21.3994 H   0  0  0  0  0  0
  -18.0356  -26.0042   22.8984 H   0  0  0  0  0  0
  -19.7951  -30.7250   24.2251 H   0  0  0  0  0  0
  -17.5029  -31.6255   24.5147 H   0  0  0  0  0  0
  -15.5362  -30.2955   23.7675 H   0  0  0  0  0  0
  -15.8679  -28.0810   22.7051 H   0  0  0  0  0  0
  -24.5935  -30.7029   25.7767 H   0  0  0  0  0  0
  -24.8887  -32.2864   26.4849 H   0  0  0  0  0  0
  -25.8051  -30.8904   27.0235 H   0  0  0  0  0  0
  -26.2949  -29.6715   24.1267 H   0  0  0  0  0  0
  -27.4069  -29.7275   25.4741 H   0  0  0  0  0  0
  -27.8814  -30.4263   23.9450 H   0  0  0  0  0  0
  -27.2704  -33.3658   26.2018 H   0  0  0  0  0  0
  -28.3899  -32.6840   25.0314 H   0  0  0  0  0  0
  -28.0719  -31.8479   26.5443 H   0  0  0  0  0  0
  -28.2573  -38.0107   24.7530 H   0  0  0  0  0  0
  -28.1107  -36.2647   24.6269 H   0  0  0  0  0  0
  -27.2309  -37.1426   25.8860 H   0  0  0  0  0  0
  -20.9422  -29.8768   21.6852 H   0  0  0  0  0  0
  -26.0180  -38.2839   24.1409 H   0  0  0  0  0  0
  -28.0548  -22.8559   22.3154 H   0  0  0  0  0  0
  -27.6098  -21.5725   24.3369 H   0  0  0  0  0  0
  -29.9125  -19.1301   25.6125 H   0  0  0  0  0  0
  -29.7819  -17.6494   24.6662 H   0  0  0  0  0  0
  -29.0158  -17.7550   26.2500 H   0  0  0  0  0  0
  -26.0590  -18.1226   23.9095 H   0  0  0  0  0  0
  -26.6853  -17.1650   25.2517 H   0  0  0  0  0  0
  -27.4002  -17.0137   23.6497 H   0  0  0  0  0  0
  -29.0125  -19.7812   18.3868 H   0  0  0  0  0  0
  -29.9575  -18.3348   18.0913 H   0  0  0  0  0  0
  -30.7012  -19.7088   18.9062 H   0  0  0  0  0  0
  -28.1197  -22.0756   19.2714 H   0  0  0  0  0  0
  -29.8338  -21.8547   19.3696 H   0  0  0  0  0  0
  -30.0233  -24.0841   19.5704 H   0  0  0  0  0  0
  -29.6231  -23.9473   21.2192 H   0  0  0  0  0  0
  -30.6480  -17.5147   21.6510 H   0  0  0  0  0  0
  -31.2353  -17.4140   20.0488 H   0  0  0  0  0  0
  -27.1995  -24.6312   20.5443 H   0  0  0  0  0  0
  -27.7743  -24.7730   18.9029 H   0  0  0  0  0  0
  -27.4717  -19.4941   25.4221 H   0  0  0  0  0  0
  -28.3635  -18.1126   19.9833 H   0  0  0  0  0  0
  -28.8737  -15.7209   20.7268 H   0  0  0  0  0  0
  1 25  1  0  0  0
  1 30  2  0  0  0
  1 86  1  0  0  0
  2  3  1  0  0  0
  2 25  1  0  0  0
  2 87  1  0  0  0
  2 88  1  0  0  0
  3  4  1  0  0  0
  3 89  1  0  0  0
  3 90  1  0  0  0
  4  5  1  0  0  0
  4 91  1  0  0  0
  4 92  1  0  0  0
  5  6  1  0  0  0
  5 26  1  0  0  0
  5 93  1  0  0  0
  6 25  1  0  0  0
  6 94  1  0  0  0
  6 95  1  0  0  0
  7  8  2  0  0  0
  7 26  1  0  0  0
  7 29  1  0  0  0
  8  9  1  0  0  0
  8 22  1  0  0  0
  9 10  1  0  0  0
  9 27  2  0  0  0
 10 11  2  0  0  0
 10 15  1  0  0  0
 11 12  1  0  0  0
 11 96  1  0  0  0
 12 13  2  0  0  0
 12 97  1  0  0  0
 13 14  1  0  0  0
 13 31  1  0  0  0
 14 15  2  0  0  0
 14 98  1  0  0  0
 15 99  1  0  0  0
 16 17  2  0  0  0
 16 21  1  0  0  0
 16 31  1  0  0  0
 17 18  1  0  0  0
 17100  1  0  0  0
 18 19  2  0  0  0
 18101  1  0  0  0
 19 20  1  0  0  0
 19 24  1  0  0  0
 20 21  2  0  0  0
 20102  1  0  0  0
 21 23  1  0  0  0
 22 28  1  0  0  0
 22 32  2  0  0  0
 26 27  1  0  0  0
 28103  1  0  0  0
 28104  1  0  0  0
 29105  1  0  0  0
 29106  1  0  0  0
 33 34  1  0  0  0
 33 66  1  0  0  0
 33 70  2  0  0  0
 34 36  1  0  0  0
 34 59  1  0  0  0
 34107  1  0  0  0
 35 44  2  0  0  0
 35 45  1  0  0  0
 35 68  1  0  0  0
 36 56  1  0  0  0
 36108  1  0  0  0
 37 39  1  0  0  0
 37 47  1  0  0  0
 37 66  1  0  0  0
 37109  1  0  0  0
 38 43  2  0  0  0
 38 46  1  0  0  0
 38 47  1  0  0  0
 39 64  1  0  0  0
 39 67  2  0  0  0
 40 52  1  0  0  0
 40 53  2  0  0  0
 40 58  1  0  0  0
 41110  1  0  0  0
 41111  1  0  0  0
 41112  1  0  0  0
 41 48  1  0  0  0
 42 43  1  0  0  0
 42 66  1  0  0  0
 42113  1  0  0  0
 42114  1  0  0  0
 43 44  1  0  0  0
 44115  1  0  0  0
 45 46  2  0  0  0
 45116  1  0  0  0
 46117  1  0  0  0
 47118  1  0  0  0
 47119  1  0  0  0
 48 56  1  0  0  0
 48 65  1  0  0  0
 48120  1  0  0  0
 49 50  1  0  0  0
 49 53  1  0  0  0
 49 64  1  0  0  0
 49121  1  0  0  0
 50 51  1  0  0  0
 50122  1  0  0  0
 50123  1  0  0  0
 51 52  1  0  0  0
 51124  1  0  0  0
 51125  1  0  0  0
 52126  1  0  0  0
 52127  1  0  0  0
 53 54  1  0  0  0
 54 55  2  0  0  0
 54128  1  0  0  0
 55 57  1  0  0  0
 55129  1  0  0  0
 56 69  2  0  0  0
 57 58  2  0  0  0
 57130  1  0  0  0
 58131  1  0  0  0
 59 60  1  0  0  0
 59 61  1  0  0  0
 59 62  1  0  0  0
 60132  1  0  0  0
 60133  1  0  0  0
 60134  1  0  0  0
 61135  1  0  0  0
 61136  1  0  0  0
 61137  1  0  0  0
 62138  1  0  0  0
 62139  1  0  0  0
 62140  1  0  0  0
 63 65  1  0  0  0
 63141  1  0  0  0
 63142  1  0  0  0
 63143  1  0  0  0
 64144  1  0  0  0
 65145  1  0  0  0
 68 82  1  0  0  0
 71 72  2  0  0  0
 71 73  1  0  0  0
 71146  1  0  0  0
 72 74  1  0  0  0
 72147  1  0  0  0
 73 75  2  0  0  0
 73 79  1  0  0  0
 74 83  1  0  0  0
 74 85  2  0  0  0
 75 84  1  0  0  0
 75 85  1  0  0  0
 76148  1  0  0  0
 76149  1  0  0  0
 76150  1  0  0  0
 76 83  1  0  0  0
 77 83  1  0  0  0
 77151  1  0  0  0
 77152  1  0  0  0
 77153  1  0  0  0
 78154  1  0  0  0
 78155  1  0  0  0
 78156  1  0  0  0
 78 84  1  0  0  0
 79 80  1  0  0  0
 79157  1  0  0  0
 79158  1  0  0  0
 80 82  1  0  0  0
 80159  1  0  0  0
 80160  1  0  0  0
 81 84  1  0  0  0
 81 86  1  0  0  0
 81161  1  0  0  0
 81162  1  0  0  0
 82163  1  0  0  0
 82164  1  0  0  0
 83165  1  0  0  0
 84166  1  0  0  0
 86167  1  0  0  0
M  ISO  4   1 100  68 101  82 101  86 100
M  END
> <chiral flag>
0

> <version>
0

> <s_m_source_file>
/data/baiqing/PycharmProjects/Reinvent-master-3.2/result/LINK_invent/BTK/process_docking_weight1_custom_sum_contain_oxygen_bond_distance_aromatic_linkinvent_7_9_3/rearranged_h_0090.sdf

> <i_m_source_file_index>
79

> <r_mmod_Potential_Energy-OPLS-2005>
39.6607971191406

> <r_mmod_Stretch_Energy-OPLS-2005>
134.892562866211

> <r_mmod_Bend_Energy-OPLS-2005>
207.180892944336

> <r_mmod_Torsional_Energy-OPLS-2005>
224.684173583984

> <r_mmod_Improper_Torsional_Energy-OPLS-2005>
5.54101133346558

> <r_mmod_Van_der_Waal_Energy-OPLS-2005>
144.430587768555

> <r_mmod_Electrostatic_Energy-OPLS-2005>
-550.877319335938

> <r_mmod_Solvation_Energy-OPLS-2005>
-208.711441040039

> <b_mmod_Minimization_Converged-OPLS-2005>
0

> <r_mmod_RMS_Derivative-OPLS-2005>
1.98070907592773

$$$$
80
                    3D
 Structure written by MMmdl.
172180  0  0  1  0            999 V2000
  -30.6469  -14.5963   20.5091 C   0  0  0  0  0  0
  -30.4259  -12.3833   19.4421 C   0  0  0  0  0  0
  -29.4961  -12.4886   18.2156 C   0  0  0  0  0  0
  -28.0174  -12.3466   18.6268 C   0  0  0  0  0  0
  -27.6382  -13.2269   19.8479 C   0  0  2  0  0  0
  -28.6769  -13.0932   20.9805 C   0  0  0  0  0  0
  -25.2491  -13.8248   20.5734 C   0  0  0  0  0  0
  -24.1768  -13.0483   20.9231 C   0  0  0  0  0  0
  -24.6335  -11.6949   20.8765 C   0  0  0  0  0  0
  -23.9018  -10.4326   21.0435 C   0  0  0  0  0  0
  -24.3578   -9.4241   21.9198 C   0  0  0  0  0  0
  -23.6264   -8.2270   22.0751 C   0  0  0  0  0  0
  -22.4256   -8.0286   21.3530 C   0  0  0  0  0  0
  -21.9884   -9.0272   20.4648 C   0  0  0  0  0  0
  -22.7208  -10.2154   20.3074 C   0  0  0  0  0  0
  -21.6865   -6.0733   22.5294 C   0  0  0  0  0  0
  -21.4019   -6.5625   23.8234 C   0  0  0  0  0  0
  -21.3648   -5.6768   24.9191 C   0  0  0  0  0  0
  -21.6038   -4.3031   24.7238 C   0  0  0  0  0  0
  -21.8821   -3.8129   23.4359 C   0  0  0  0  0  0
  -21.9192   -4.6954   22.3414 C   0  0  0  0  0  0
  -22.7787  -13.5274   21.1884 C   0  0  0  0  0  0
  -22.1662   -4.2138   21.0993 F   0  0  0  0  0  0
  -21.5621   -3.4508   25.7742 F   0  0  0  0  0  0
  -29.9927  -13.4071   20.4102 N   0  0  0  0  0  0
  -26.2877  -12.9429   20.3236 N   0  0  0  0  0  0
  -25.9241  -11.6571   20.5698 N   0  0  0  0  0  0
  -22.0374  -12.8293   22.0417 N   0  0  0  0  0  0
  -25.4186  -15.1991   20.4196 N   0  0  0  0  0  0
  -31.8360  -14.7035   20.1994 O   0  0  0  0  0  0
  -21.6624   -6.8877   21.4252 O   0  0  0  0  0  0
  -22.3486  -14.5566   20.6715 O   0  0  0  0  0  0
  -24.6200  -31.8639   23.2065 C   0  0  0  0  0  0
  -25.9085  -32.4789   23.8404 C   0  0  1  0  0  0
  -27.2443  -27.3599   20.1130 C   0  0  0  0  0  0
  -25.5916  -33.8591   24.2331 N   0  0  0  0  0  0
  -23.4150  -30.4823   21.5496 C   0  0  2  0  0  0
  -24.8646  -28.9297   20.1206 C   0  0  0  0  0  0
  -22.7451  -29.4737   22.5100 C   0  0  0  0  0  0
  -18.0344  -28.1425   22.8563 C   0  0  0  0  0  0
  -24.1488  -36.7293   23.2646 C   0  0  0  0  0  0
  -25.9501  -30.8017   21.3776 C   0  0  0  0  0  0
  -26.0242  -29.4295   20.7213 C   0  0  0  0  0  0
  -27.2133  -28.6538   20.7105 C   0  0  0  0  0  0
  -26.0630  -26.8952   19.4960 C   0  0  0  0  0  0
  -24.8836  -27.6662   19.4983 C   0  0  0  0  0  0
  -23.6276  -29.7984   20.1714 C   0  0  0  0  0  0
  -25.4121  -36.3094   24.0332 C   0  0  1  0  0  0
  -20.5956  -28.3796   23.1428 C   0  0  2  0  0  0
  -20.6954  -26.9668   22.5241 C   0  0  0  0  0  0
  -19.5837  -26.6900   21.5050 C   0  0  0  0  0  0
  -18.2096  -26.8018   22.1703 C   0  0  0  0  0  0
  -19.1554  -28.8902   23.3063 C   0  0  0  0  0  0
  -18.9350  -30.1448   23.9150 C   0  0  0  0  0  0
  -17.6319  -30.6571   24.0632 C   0  0  0  0  0  0
  -25.9045  -34.9456   23.5123 C   0  0  0  0  0  0
  -16.5298  -29.9133   23.6104 C   0  0  0  0  0  0
  -16.7295  -28.6550   23.0197 C   0  0  0  0  0  0
  -26.4508  -31.6584   25.0761 C   0  0  0  0  0  0
  -25.3811  -31.3631   26.1532 C   0  0  0  0  0  0
  -27.0339  -30.3003   24.6218 C   0  0  0  0  0  0
  -27.6056  -32.4350   25.7510 C   0  0  0  0  0  0
  -27.5568  -37.1797   24.8467 C   0  0  0  0  0  0
  -21.4181  -29.3264   22.3880 N   0  0  0  0  0  0
  -26.4308  -37.3757   23.9383 N   0  0  0  0  0  0
  -24.6794  -31.0692   22.0979 N   0  0  0  0  0  0
  -23.4181  -28.8264   23.3192 O   0  0  0  0  0  0
  -28.4153  -26.6037   20.1682 O   0  0  0  0  0  0
  -26.5574  -34.8910   22.4683 O   0  0  0  0  0  0
  -23.5365  -32.1426   23.7385 O   0  0  0  0  0  0
  -29.5017  -19.0312   20.4553 C   0  0  0  0  0  0
  -28.9285  -17.9878   21.1665 C   0  0  0  0  0  0
  -27.5940  -19.8081   21.2703 C   0  0  0  0  0  0
  -20.8902  -21.4029   18.8814 C   0  0  0  0  0  0
  -29.3360  -16.5408   21.5116 C   0  0  0  0  0  0
  -26.3840  -20.6395   21.5890 C   0  0  0  0  0  0
  -22.4183  -21.2584   18.9154 C   0  0  0  0  0  0
  -25.2109  -20.5032   20.5938 C   0  0  0  0  0  0
  -23.0161  -21.8392   20.2039 C   0  0  0  0  0  0
  -24.5562  -21.8627   20.2625 C   0  0  0  0  0  0
  -29.0110  -22.7953   20.8663 C   0  0  0  0  0  0
  -28.0671  -24.0514   20.6165 C   0  0  0  0  0  0
  -28.8953  -21.5193   19.9380 C   0  0  0  0  0  0
  -28.5264  -25.2287   19.6718 C   0  0  0  0  0  0
  -28.6931  -20.1607   20.5716 N   0  0  0  0  0  0
  -27.7569  -18.5309   21.6419 N   0  3  0  0  0  0
  -29.8857  -15.7169   20.4148 N   0  0  0  0  0  0
  -31.4635  -12.5216   19.1266 H   0  0  0  0  0  0
  -30.3757  -11.3950   19.8971 H   0  0  0  0  0  0
  -29.7513  -11.7160   17.4880 H   0  0  0  0  0  0
  -29.6490  -13.4464   17.7161 H   0  0  0  0  0  0
  -27.8495  -11.2981   18.8689 H   0  0  0  0  0  0
  -27.3658  -12.5700   17.7787 H   0  0  0  0  0  0
  -27.6517  -14.2600   19.4946 H   0  0  0  0  0  0
  -28.6751  -12.0846   21.3958 H   0  0  0  0  0  0
  -28.4308  -13.7655   21.8027 H   0  0  0  0  0  0
  -25.2733   -9.5729   22.4758 H   0  0  0  0  0  0
  -23.9984   -7.4674   22.7473 H   0  0  0  0  0  0
  -21.0825   -8.8806   19.8945 H   0  0  0  0  0  0
  -22.3695  -10.9688   19.6164 H   0  0  0  0  0  0
  -21.2016   -7.6128   23.9753 H   0  0  0  0  0  0
  -21.1460   -6.0476   25.9088 H   0  0  0  0  0  0
  -22.0606   -2.7590   23.2872 H   0  0  0  0  0  0
  -22.3850  -11.9913   22.4855 H   0  0  0  0  0  0
  -21.1005  -13.1400   22.2567 H   0  0  0  0  0  0
  -24.6400  -15.8455   20.5033 H   0  0  0  0  0  0
  -26.2491  -15.6290   20.0367 H   0  0  0  0  0  0
  -26.7153  -32.5486   23.1159 H   0  0  0  0  0  0
  -25.0134  -33.9770   25.0514 H   0  0  0  0  0  0
  -22.7057  -31.3010   21.3989 H   0  0  0  0  0  0
  -23.3733  -35.9633   23.3342 H   0  0  0  0  0  0
  -24.3572  -36.8870   22.2045 H   0  0  0  0  0  0
  -23.7258  -37.6517   23.6648 H   0  0  0  0  0  0
  -26.0852  -31.5682   20.6132 H   0  0  0  0  0  0
  -26.8280  -30.8476   22.0106 H   0  0  0  0  0  0
  -28.1107  -29.0371   21.1754 H   0  0  0  0  0  0
  -26.0329  -25.9267   19.0218 H   0  0  0  0  0  0
  -23.9944  -27.2762   19.0235 H   0  0  0  0  0  0
  -23.7397  -30.5627   19.4029 H   0  0  0  0  0  0
  -22.7561  -29.2122   19.8780 H   0  0  0  0  0  0
  -25.1292  -36.1966   25.0810 H   0  0  0  0  0  0
  -21.0198  -28.3221   24.1479 H   0  0  0  0  0  0
  -20.6181  -26.2229   23.3143 H   0  0  0  0  0  0
  -21.6833  -26.8088   22.0895 H   0  0  0  0  0  0
  -19.7000  -25.7098   21.0447 H   0  0  0  0  0  0
  -19.6628  -27.4256   20.7031 H   0  0  0  0  0  0
  -17.4240  -26.6614   21.4259 H   0  0  0  0  0  0
  -18.0816  -26.0070   22.9066 H   0  0  0  0  0  0
  -19.7712  -30.7270   24.2792 H   0  0  0  0  0  0
  -17.4794  -31.6178   24.5329 H   0  0  0  0  0  0
  -15.5278  -30.3102   23.7095 H   0  0  0  0  0  0
  -15.8788  -28.0912   22.6610 H   0  0  0  0  0  0
  -24.6041  -30.6898   25.7900 H   0  0  0  0  0  0
  -24.8956  -32.2728   26.5058 H   0  0  0  0  0  0
  -25.8262  -30.8800   27.0250 H   0  0  0  0  0  0
  -26.2863  -29.6739   24.1336 H   0  0  0  0  0  0
  -27.4077  -29.7292   25.4729 H   0  0  0  0  0  0
  -27.8741  -30.4241   23.9394 H   0  0  0  0  0  0
  -27.2647  -33.3653   26.2086 H   0  0  0  0  0  0
  -28.3865  -32.6923   25.0339 H   0  0  0  0  0  0
  -28.0768  -31.8526   26.5443 H   0  0  0  0  0  0
  -28.2604  -38.0062   24.7471 H   0  0  0  0  0  0
  -28.1050  -36.2596   24.6373 H   0  0  0  0  0  0
  -27.2281  -37.1527   25.8867 H   0  0  0  0  0  0
  -20.9413  -29.8951   21.7008 H   0  0  0  0  0  0
  -26.0202  -38.2841   24.1340 H   0  0  0  0  0  0
  -30.4258  -19.0492   19.8946 H   0  0  0  0  0  0
  -20.4174  -20.8496   19.6910 H   0  0  0  0  0  0
  -20.4819  -21.0183   17.9466 H   0  0  0  0  0  0
  -20.5931  -22.4478   18.9744 H   0  0  0  0  0  0
  -30.0520  -16.5861   22.3334 H   0  0  0  0  0  0
  -28.4615  -16.0373   21.9199 H   0  0  0  0  0  0
  -26.7130  -21.6685   21.6782 H   0  0  0  0  0  0
  -26.0517  -20.3435   22.5843 H   0  0  0  0  0  0
  -22.8297  -21.7771   18.0514 H   0  0  0  0  0  0
  -22.6923  -20.2057   18.8063 H   0  0  0  0  0  0
  -24.4737  -19.8218   21.0231 H   0  0  0  0  0  0
  -25.5397  -20.0201   19.6719 H   0  0  0  0  0  0
  -22.6216  -21.3130   21.0755 H   0  0  0  0  0  0
  -22.6603  -22.8633   20.3048 H   0  0  0  0  0  0
  -24.9786  -22.2713   19.3408 H   0  0  0  0  0  0
  -24.8178  -22.5792   21.0418 H   0  0  0  0  0  0
  -28.8593  -22.4589   21.8913 H   0  0  0  0  0  0
  -30.0467  -23.1360   20.8714 H   0  0  0  0  0  0
  -27.0950  -23.6937   20.2747 H   0  0  0  0  0  0
  -27.8716  -24.5005   21.5916 H   0  0  0  0  0  0
  -29.8249  -21.4426   19.3714 H   0  0  0  0  0  0
  -28.1006  -21.6578   19.2026 H   0  0  0  0  0  0
  -28.0549  -25.1289   18.6934 H   0  0  0  0  0  0
  -29.5923  -25.1050   19.4712 H   0  0  0  0  0  0
  -27.0913  -18.0368   22.2282 H   0  0  0  0  0  0
  -30.3344  -16.3377   19.7611 H   0  0  0  0  0  0
  1 25  1  0  0  0
  1 30  2  0  0  0
  1 87  1  0  0  0
  2  3  1  0  0  0
  2 25  1  0  0  0
  2 88  1  0  0  0
  2 89  1  0  0  0
  3  4  1  0  0  0
  3 90  1  0  0  0
  3 91  1  0  0  0
  4  5  1  0  0  0
  4 92  1  0  0  0
  4 93  1  0  0  0
  5  6  1  0  0  0
  5 26  1  0  0  0
  5 94  1  0  0  0
  6 25  1  0  0  0
  6 95  1  0  0  0
  6 96  1  0  0  0
  7  8  2  0  0  0
  7 26  1  0  0  0
  7 29  1  0  0  0
  8  9  1  0  0  0
  8 22  1  0  0  0
  9 10  1  0  0  0
  9 27  2  0  0  0
 10 11  2  0  0  0
 10 15  1  0  0  0
 11 12  1  0  0  0
 11 97  1  0  0  0
 12 13  2  0  0  0
 12 98  1  0  0  0
 13 14  1  0  0  0
 13 31  1  0  0  0
 14 15  2  0  0  0
 14 99  1  0  0  0
 15100  1  0  0  0
 16 17  2  0  0  0
 16 21  1  0  0  0
 16 31  1  0  0  0
 17 18  1  0  0  0
 17101  1  0  0  0
 18 19  2  0  0  0
 18102  1  0  0  0
 19 20  1  0  0  0
 19 24  1  0  0  0
 20 21  2  0  0  0
 20103  1  0  0  0
 21 23  1  0  0  0
 22 28  1  0  0  0
 22 32  2  0  0  0
 26 27  1  0  0  0
 28104  1  0  0  0
 28105  1  0  0  0
 29106  1  0  0  0
 29107  1  0  0  0
 33 34  1  0  0  0
 33 66  1  0  0  0
 33 70  2  0  0  0
 34 36  1  0  0  0
 34 59  1  0  0  0
 34108  1  0  0  0
 35 44  2  0  0  0
 35 45  1  0  0  0
 35 68  1  0  0  0
 36 56  1  0  0  0
 36109  1  0  0  0
 37 39  1  0  0  0
 37 47  1  0  0  0
 37 66  1  0  0  0
 37110  1  0  0  0
 38 43  2  0  0  0
 38 46  1  0  0  0
 38 47  1  0  0  0
 39 64  1  0  0  0
 39 67  2  0  0  0
 40 52  1  0  0  0
 40 53  2  0  0  0
 40 58  1  0  0  0
 41111  1  0  0  0
 41112  1  0  0  0
 41113  1  0  0  0
 41 48  1  0  0  0
 42 43  1  0  0  0
 42 66  1  0  0  0
 42114  1  0  0  0
 42115  1  0  0  0
 43 44  1  0  0  0
 44116  1  0  0  0
 45 46  2  0  0  0
 45117  1  0  0  0
 46118  1  0  0  0
 47119  1  0  0  0
 47120  1  0  0  0
 48 56  1  0  0  0
 48 65  1  0  0  0
 48121  1  0  0  0
 49 50  1  0  0  0
 49 53  1  0  0  0
 49 64  1  0  0  0
 49122  1  0  0  0
 50 51  1  0  0  0
 50123  1  0  0  0
 50124  1  0  0  0
 51 52  1  0  0  0
 51125  1  0  0  0
 51126  1  0  0  0
 52127  1  0  0  0
 52128  1  0  0  0
 53 54  1  0  0  0
 54 55  2  0  0  0
 54129  1  0  0  0
 55 57  1  0  0  0
 55130  1  0  0  0
 56 69  2  0  0  0
 57 58  2  0  0  0
 57131  1  0  0  0
 58132  1  0  0  0
 59 60  1  0  0  0
 59 61  1  0  0  0
 59 62  1  0  0  0
 60133  1  0  0  0
 60134  1  0  0  0
 60135  1  0  0  0
 61136  1  0  0  0
 61137  1  0  0  0
 61138  1  0  0  0
 62139  1  0  0  0
 62140  1  0  0  0
 62141  1  0  0  0
 63 65  1  0  0  0
 63142  1  0  0  0
 63143  1  0  0  0
 63144  1  0  0  0
 64145  1  0  0  0
 65146  1  0  0  0
 68 84  1  0  0  0
 71 72  2  0  0  0
 71 85  1  0  0  0
 71147  1  0  0  0
 72 75  1  0  0  0
 72 86  1  0  0  0
 73 76  1  0  0  0
 73 85  1  0  0  0
 73 86  2  0  0  0
 74 77  1  0  0  0
 74148  1  0  0  0
 74149  1  0  0  0
 74150  1  0  0  0
 75 87  1  0  0  0
 75151  1  0  0  0
 75152  1  0  0  0
 76 78  1  0  0  0
 76153  1  0  0  0
 76154  1  0  0  0
 77 79  1  0  0  0
 77155  1  0  0  0
 77156  1  0  0  0
 78 80  1  0  0  0
 78157  1  0  0  0
 78158  1  0  0  0
 79 80  1  0  0  0
 79159  1  0  0  0
 79160  1  0  0  0
 80161  1  0  0  0
 80162  1  0  0  0
 81 82  1  0  0  0
 81 83  1  0  0  0
 81163  1  0  0  0
 81164  1  0  0  0
 82 84  1  0  0  0
 82165  1  0  0  0
 82166  1  0  0  0
 83 85  1  0  0  0
 83167  1  0  0  0
 83168  1  0  0  0
 84169  1  0  0  0
 84170  1  0  0  0
 86171  1  0  0  0
 87172  1  0  0  0
M  CHG  1  86   1
M  ISO  4   1 100  68 101  84 101  87 100
M  END
> <chiral flag>
0

> <version>
0

> <s_m_source_file>
/data/baiqing/PycharmProjects/Reinvent-master-3.2/result/LINK_invent/BTK/process_docking_weight1_custom_sum_contain_oxygen_bond_distance_aromatic_linkinvent_7_9_3/rearranged_h_0090.sdf

> <i_m_source_file_index>
80

> <r_mmod_Potential_Energy-OPLS-2005>
11.1796054840088

> <r_mmod_Stretch_Energy-OPLS-2005>
60.7794952392578

> <r_mmod_Bend_Energy-OPLS-2005>
154.395324707031

> <r_mmod_Torsional_Energy-OPLS-2005>
321.898742675781

> <r_mmod_Improper_Torsional_Energy-OPLS-2005>
23.1594753265381

> <r_mmod_Van_der_Waal_Energy-OPLS-2005>
105.988777160645

> <r_mmod_Electrostatic_Energy-OPLS-2005>
-265.583587646484

> <r_mmod_Solvation_Energy-OPLS-2005>
-427.50830078125

> <b_mmod_Minimization_Converged-OPLS-2005>
0

> <r_mmod_RMS_Derivative-OPLS-2005>
6.79667043685913

$$$$
81
                    3D
 Structure written by MMmdl.
157165  0  0  1  0            999 V2000
  -30.5502  -14.7159   20.4818 C   0  0  0  0  0  0
  -30.4484  -12.4326   19.4542 C   0  0  0  0  0  0
  -29.5133  -12.5081   18.2236 C   0  0  0  0  0  0
  -28.0348  -12.3327   18.6351 C   0  0  0  0  0  0
  -27.6489  -13.2066   19.8568 C   0  0  2  0  0  0
  -28.6974  -13.0709   20.9849 C   0  0  0  0  0  0
  -25.2574  -13.8139   20.5694 C   0  0  0  0  0  0
  -24.1826  -13.0418   20.9209 C   0  0  0  0  0  0
  -24.6365  -11.6890   20.8734 C   0  0  0  0  0  0
  -23.9017  -10.4288   21.0412 C   0  0  0  0  0  0
  -24.3577   -9.4209   21.9185 C   0  0  0  0  0  0
  -23.6269   -8.2237   22.0759 C   0  0  0  0  0  0
  -22.4260   -8.0266   21.3547 C   0  0  0  0  0  0
  -21.9869   -9.0240   20.4652 C   0  0  0  0  0  0
  -22.7181  -10.2128   20.3064 C   0  0  0  0  0  0
  -21.6849   -6.0720   22.5273 C   0  0  0  0  0  0
  -21.4020   -6.5626   23.8206 C   0  0  0  0  0  0
  -21.3663   -5.6779   24.9170 C   0  0  0  0  0  0
  -21.6044   -4.3040   24.7222 C   0  0  0  0  0  0
  -21.8816   -3.8133   23.4343 C   0  0  0  0  0  0
  -21.9199   -4.6951   22.3400 C   0  0  0  0  0  0
  -22.7853  -13.5255   21.1842 C   0  0  0  0  0  0
  -22.1668   -4.2128   21.0980 F   0  0  0  0  0  0
  -21.5628   -3.4536   25.7742 F   0  0  0  0  0  0
  -30.0005  -13.4563   20.4201 N   0  0  0  0  0  0
  -26.2960  -12.9280   20.3292 N   0  0  0  0  0  0
  -25.9287  -11.6451   20.5747 N   0  0  0  0  0  0
  -22.0470  -12.8288   22.0416 N   0  0  0  0  0  0
  -25.4281  -15.1861   20.4075 N   0  0  0  0  0  0
  -31.7200  -14.9178   20.1344 O   0  0  0  0  0  0
  -21.6635   -6.8860   21.4234 O   0  0  0  0  0  0
  -22.3563  -14.5541   20.6649 O   0  0  0  0  0  0
  -24.6325  -31.8555   23.1971 C   0  0  0  0  0  0
  -25.9152  -32.4750   23.8322 C   0  0  1  0  0  0
  -27.2255  -27.2537   20.1343 C   0  0  0  0  0  0
  -25.5961  -33.8557   24.2261 N   0  0  0  0  0  0
  -23.4313  -30.4744   21.5414 C   0  0  2  0  0  0
  -24.8821  -28.9147   20.1185 C   0  0  0  0  0  0
  -22.7535  -29.4579   22.4936 C   0  0  0  0  0  0
  -18.0323  -28.1414   22.8465 C   0  0  0  0  0  0
  -24.1499  -36.7262   23.2629 C   0  0  0  0  0  0
  -25.9780  -30.7635   21.3814 C   0  0  0  0  0  0
  -26.0556  -29.3845   20.7244 C   0  0  0  0  0  0
  -27.2349  -28.5686   20.7145 C   0  0  0  0  0  0
  -26.0325  -26.8544   19.4965 C   0  0  0  0  0  0
  -24.8761  -27.6586   19.4930 C   0  0  0  0  0  0
  -23.6548  -29.8046   20.1602 C   0  0  0  0  0  0
  -25.4127  -36.3057   24.0320 C   0  0  1  0  0  0
  -20.5924  -28.3701   23.1303 C   0  0  2  0  0  0
  -20.6815  -26.9444   22.5378 C   0  0  0  0  0  0
  -19.5800  -26.6486   21.5148 C   0  0  0  0  0  0
  -18.1958  -26.8008   22.1519 C   0  0  0  0  0  0
  -19.1572  -28.8867   23.2892 C   0  0  0  0  0  0
  -18.9484  -30.1450   23.8936 C   0  0  0  0  0  0
  -17.6481  -30.6567   24.0630 C   0  0  0  0  0  0
  -25.9061  -34.9434   23.5081 C   0  0  0  0  0  0
  -16.5369  -29.9079   23.6356 C   0  0  0  0  0  0
  -16.7299  -28.6529   23.0315 C   0  0  0  0  0  0
  -26.4531  -31.6570   25.0708 C   0  0  0  0  0  0
  -25.3715  -31.3751   26.1397 C   0  0  0  0  0  0
  -27.0392  -30.2977   24.6213 C   0  0  0  0  0  0
  -27.6098  -32.4316   25.7463 C   0  0  0  0  0  0
  -27.5585  -37.1786   24.8465 C   0  0  0  0  0  0
  -21.4233  -29.3071   22.3717 N   0  0  0  0  0  0
  -26.4301  -37.3758   23.9404 N   0  0  0  0  0  0
  -24.6990  -31.0500   22.0957 N   0  0  0  0  0  0
  -23.4234  -28.8108   23.3026 O   0  0  0  0  0  0
  -28.3189  -26.3551   20.1343 O   0  0  0  0  0  0
  -26.5630  -34.8914   22.4640 O   0  0  0  0  0  0
  -23.5467  -32.1395   23.7240 O   0  0  0  0  0  0
  -29.9580  -18.2541   20.0722 C   0  0  0  0  0  0
  -29.6236  -17.1869   20.9113 C   0  0  0  0  0  0
  -28.8708  -19.1073   21.8152 C   0  0  0  0  0  0
  -28.1872  -19.9853   22.8127 C   0  0  0  0  0  0
  -28.4596  -25.0588   22.1393 C   0  0  0  0  0  0
  -28.7058  -22.1732   20.5887 C   0  0  0  0  0  0
  -28.9089  -23.6768   19.9978 C   0  0  0  0  0  0
  -29.6399  -20.9166   20.1315 C   0  0  0  0  0  0
  -28.1222  -24.9492   20.6451 C   0  0  1  0  0  0
  -29.4696  -19.4549   20.6503 N   0  0  0  0  0  0
  -28.9600  -17.7683   21.9568 N   0  3  0  0  0  0
  -29.6390  -15.7159   20.7518 N   0  0  0  0  0  0
  -31.4887  -12.5750   19.1576 H   0  0  0  0  0  0
  -30.3984  -11.4418   19.9089 H   0  0  0  0  0  0
  -29.7872  -11.7457   17.4932 H   0  0  0  0  0  0
  -29.6426  -13.4690   17.7228 H   0  0  0  0  0  0
  -27.8786  -11.2802   18.8753 H   0  0  0  0  0  0
  -27.3782  -12.5484   17.7916 H   0  0  0  0  0  0
  -27.6581  -14.2357   19.5008 H   0  0  0  0  0  0
  -28.7335  -12.0441   21.3541 H   0  0  0  0  0  0
  -28.4325  -13.6808   21.8484 H   0  0  0  0  0  0
  -25.2715   -9.5703   22.4769 H   0  0  0  0  0  0
  -23.9975   -7.4637   22.7479 H   0  0  0  0  0  0
  -21.0800   -8.8750   19.8972 H   0  0  0  0  0  0
  -22.3613  -10.9673   19.6190 H   0  0  0  0  0  0
  -21.2014   -7.6133   23.9703 H   0  0  0  0  0  0
  -21.1485   -6.0512   25.9068 H   0  0  0  0  0  0
  -22.0591   -2.7594   23.2851 H   0  0  0  0  0  0
  -22.4042  -11.9963   22.4870 H   0  0  0  0  0  0
  -21.1101  -13.1381   22.2589 H   0  0  0  0  0  0
  -24.6412  -15.8228   20.4763 H   0  0  0  0  0  0
  -26.2419  -15.6154   19.9865 H   0  0  0  0  0  0
  -26.7217  -32.5410   23.1062 H   0  0  0  0  0  0
  -25.0153  -33.9704   25.0441 H   0  0  0  0  0  0
  -22.7258  -31.2946   21.3923 H   0  0  0  0  0  0
  -23.3761  -35.9588   23.3290 H   0  0  0  0  0  0
  -24.3571  -36.8879   22.2035 H   0  0  0  0  0  0
  -23.7263  -37.6466   23.6652 H   0  0  0  0  0  0
  -26.1256  -31.5280   20.6181 H   0  0  0  0  0  0
  -26.8512  -30.8110   22.0198 H   0  0  0  0  0  0
  -28.1383  -28.9239   21.1911 H   0  0  0  0  0  0
  -25.9879  -25.8946   19.0010 H   0  0  0  0  0  0
  -23.9788  -27.2960   19.0132 H   0  0  0  0  0  0
  -23.7897  -30.5785   19.4051 H   0  0  0  0  0  0
  -22.7748  -29.2400   19.8470 H   0  0  0  0  0  0
  -25.1306  -36.1897   25.0814 H   0  0  0  0  0  0
  -21.0005  -28.3232   24.1435 H   0  0  0  0  0  0
  -20.5750  -26.2285   23.3537 H   0  0  0  0  0  0
  -21.6695  -26.7518   22.1157 H   0  0  0  0  0  0
  -19.6963  -25.6441   21.1073 H   0  0  0  0  0  0
  -19.6735  -27.3404   20.6759 H   0  0  0  0  0  0
  -17.4266  -26.6866   21.3859 H   0  0  0  0  0  0
  -18.0336  -26.0079   22.8832 H   0  0  0  0  0  0
  -19.7962  -30.7259   24.2330 H   0  0  0  0  0  0
  -17.5023  -31.6201   24.5308 H   0  0  0  0  0  0
  -15.5362  -30.2986   23.7675 H   0  0  0  0  0  0
  -15.8703  -28.0875   22.6967 H   0  0  0  0  0  0
  -24.5893  -30.7131   25.7678 H   0  0  0  0  0  0
  -24.8913  -32.2934   26.4773 H   0  0  0  0  0  0
  -25.7970  -30.8925   27.0201 H   0  0  0  0  0  0
  -26.2992  -29.6692   24.1254 H   0  0  0  0  0  0
  -27.4086  -29.7288   25.4754 H   0  0  0  0  0  0
  -27.8864  -30.4236   23.9472 H   0  0  0  0  0  0
  -27.2732  -33.3621   26.2041 H   0  0  0  0  0  0
  -28.3888  -32.6869   25.0268 H   0  0  0  0  0  0
  -28.0790  -31.8443   26.5358 H   0  0  0  0  0  0
  -28.2605  -38.0083   24.7504 H   0  0  0  0  0  0
  -28.1093  -36.2612   24.6309 H   0  0  0  0  0  0
  -27.2298  -37.1450   25.8870 H   0  0  0  0  0  0
  -20.9435  -29.8820   21.6932 H   0  0  0  0  0  0
  -26.0171  -38.2834   24.1397 H   0  0  0  0  0  0
  -30.4607  -18.2501   19.1151 H   0  0  0  0  0  0
  -27.4355  -20.5833   22.3018 H   0  0  0  0  0  0
  -28.9318  -20.6164   23.2979 H   0  0  0  0  0  0
  -27.6855  -19.3610   23.5514 H   0  0  0  0  0  0
  -29.5307  -25.2037   22.2891 H   0  0  0  0  0  0
  -28.1593  -24.1661   22.6885 H   0  0  0  0  0  0
  -27.9519  -25.9055   22.5992 H   0  0  0  0  0  0
  -27.6651  -21.8974   20.4109 H   0  0  0  0  0  0
  -28.8173  -22.2683   21.6651 H   0  0  0  0  0  0
  -29.9762  -23.9001   20.0150 H   0  0  0  0  0  0
  -28.6371  -23.6371   18.9425 H   0  0  0  0  0  0
  -30.6672  -21.1788   20.3839 H   0  0  0  0  0  0
  -29.6177  -20.8456   19.0432 H   0  0  0  0  0  0
  -27.0641  -24.6943   20.5845 H   0  0  0  0  0  0
  -28.5671  -17.2664   22.7445 H   0  0  0  0  0  0
  -28.7569  -15.2918   20.9935 H   0  0  0  0  0  0
  1 25  1  0  0  0
  1 30  2  0  0  0
  1 82  1  0  0  0
  2  3  1  0  0  0
  2 25  1  0  0  0
  2 83  1  0  0  0
  2 84  1  0  0  0
  3  4  1  0  0  0
  3 85  1  0  0  0
  3 86  1  0  0  0
  4  5  1  0  0  0
  4 87  1  0  0  0
  4 88  1  0  0  0
  5  6  1  0  0  0
  5 26  1  0  0  0
  5 89  1  0  0  0
  6 25  1  0  0  0
  6 90  1  0  0  0
  6 91  1  0  0  0
  7  8  2  0  0  0
  7 26  1  0  0  0
  7 29  1  0  0  0
  8  9  1  0  0  0
  8 22  1  0  0  0
  9 10  1  0  0  0
  9 27  2  0  0  0
 10 11  2  0  0  0
 10 15  1  0  0  0
 11 12  1  0  0  0
 11 92  1  0  0  0
 12 13  2  0  0  0
 12 93  1  0  0  0
 13 14  1  0  0  0
 13 31  1  0  0  0
 14 15  2  0  0  0
 14 94  1  0  0  0
 15 95  1  0  0  0
 16 17  2  0  0  0
 16 21  1  0  0  0
 16 31  1  0  0  0
 17 18  1  0  0  0
 17 96  1  0  0  0
 18 19  2  0  0  0
 18 97  1  0  0  0
 19 20  1  0  0  0
 19 24  1  0  0  0
 20 21  2  0  0  0
 20 98  1  0  0  0
 21 23  1  0  0  0
 22 28  1  0  0  0
 22 32  2  0  0  0
 26 27  1  0  0  0
 28 99  1  0  0  0
 28100  1  0  0  0
 29101  1  0  0  0
 29102  1  0  0  0
 33 34  1  0  0  0
 33 66  1  0  0  0
 33 70  2  0  0  0
 34 36  1  0  0  0
 34 59  1  0  0  0
 34103  1  0  0  0
 35 44  2  0  0  0
 35 45  1  0  0  0
 35 68  1  0  0  0
 36 56  1  0  0  0
 36104  1  0  0  0
 37 39  1  0  0  0
 37 47  1  0  0  0
 37 66  1  0  0  0
 37105  1  0  0  0
 38 43  2  0  0  0
 38 46  1  0  0  0
 38 47  1  0  0  0
 39 64  1  0  0  0
 39 67  2  0  0  0
 40 52  1  0  0  0
 40 53  2  0  0  0
 40 58  1  0  0  0
 41106  1  0  0  0
 41107  1  0  0  0
 41108  1  0  0  0
 41 48  1  0  0  0
 42 43  1  0  0  0
 42 66  1  0  0  0
 42109  1  0  0  0
 42110  1  0  0  0
 43 44  1  0  0  0
 44111  1  0  0  0
 45 46  2  0  0  0
 45112  1  0  0  0
 46113  1  0  0  0
 47114  1  0  0  0
 47115  1  0  0  0
 48 56  1  0  0  0
 48 65  1  0  0  0
 48116  1  0  0  0
 49 50  1  0  0  0
 49 53  1  0  0  0
 49 64  1  0  0  0
 49117  1  0  0  0
 50 51  1  0  0  0
 50118  1  0  0  0
 50119  1  0  0  0
 51 52  1  0  0  0
 51120  1  0  0  0
 51121  1  0  0  0
 52122  1  0  0  0
 52123  1  0  0  0
 53 54  1  0  0  0
 54 55  2  0  0  0
 54124  1  0  0  0
 55 57  1  0  0  0
 55125  1  0  0  0
 56 69  2  0  0  0
 57 58  2  0  0  0
 57126  1  0  0  0
 58127  1  0  0  0
 59 60  1  0  0  0
 59 61  1  0  0  0
 59 62  1  0  0  0
 60128  1  0  0  0
 60129  1  0  0  0
 60130  1  0  0  0
 61131  1  0  0  0
 61132  1  0  0  0
 61133  1  0  0  0
 62134  1  0  0  0
 62135  1  0  0  0
 62136  1  0  0  0
 63 65  1  0  0  0
 63137  1  0  0  0
 63138  1  0  0  0
 63139  1  0  0  0
 64140  1  0  0  0
 65141  1  0  0  0
 68 79  1  0  0  0
 71 72  2  0  0  0
 71 80  1  0  0  0
 71142  1  0  0  0
 72 81  1  0  0  0
 72 82  1  0  0  0
 73 74  1  0  0  0
 73 80  1  0  0  0
 73 81  2  0  0  0
 74143  1  0  0  0
 74144  1  0  0  0
 74145  1  0  0  0
 75146  1  0  0  0
 75147  1  0  0  0
 75148  1  0  0  0
 75 79  1  0  0  0
 76 77  1  0  0  0
 76 78  1  0  0  0
 76149  1  0  0  0
 76150  1  0  0  0
 77 79  1  0  0  0
 77151  1  0  0  0
 77152  1  0  0  0
 78 80  1  0  0  0
 78153  1  0  0  0
 78154  1  0  0  0
 79155  1  0  0  0
 81156  1  0  0  0
 82157  1  0  0  0
M  CHG  1  81   1
M  ISO  4   1 100  68 101  79 101  82 100
M  END
> <chiral flag>
0

> <version>
0

> <s_m_source_file>
/data/baiqing/PycharmProjects/Reinvent-master-3.2/result/LINK_invent/BTK/process_docking_weight1_custom_sum_contain_oxygen_bond_distance_aromatic_linkinvent_7_9_3/rearranged_h_0090.sdf

> <i_m_source_file_index>
81

> <r_mmod_Potential_Energy-OPLS-2005>
110.346015930176

> <r_mmod_Stretch_Energy-OPLS-2005>
124.429229736328

> <r_mmod_Bend_Energy-OPLS-2005>
197.027786254883

> <r_mmod_Torsional_Energy-OPLS-2005>
256.085021972656

> <r_mmod_Improper_Torsional_Energy-OPLS-2005>
7.54072523117065

> <r_mmod_Van_der_Waal_Energy-OPLS-2005>
116.481063842773

> <r_mmod_Electrostatic_Energy-OPLS-2005>
-236.742492675781

> <r_mmod_Solvation_Energy-OPLS-2005>
-435.328430175781

> <b_mmod_Minimization_Converged-OPLS-2005>
0

> <r_mmod_RMS_Derivative-OPLS-2005>
3.36475205421448

$$$$
82
                    3D
 Structure written by MMmdl.
176184  0  0  1  0            999 V2000
  -30.8161  -14.3658   20.6854 C   0  0  0  0  0  0
  -30.4056  -12.2887   19.4132 C   0  0  0  0  0  0
  -29.4897  -12.5234   18.1977 C   0  0  0  0  0  0
  -28.0128  -12.3728   18.6003 C   0  0  0  0  0  0
  -27.6625  -13.1962   19.8636 C   0  0  2  0  0  0
  -28.6977  -12.9730   20.9889 C   0  0  0  0  0  0
  -25.2606  -13.8134   20.5567 C   0  0  0  0  0  0
  -24.1873  -13.0441   20.9238 C   0  0  0  0  0  0
  -24.6399  -11.6901   20.8767 C   0  0  0  0  0  0
  -23.9056  -10.4293   21.0420 C   0  0  0  0  0  0
  -24.3610   -9.4207   21.9192 C   0  0  0  0  0  0
  -23.6290   -8.2230   22.0747 C   0  0  0  0  0  0
  -22.4263   -8.0278   21.3549 C   0  0  0  0  0  0
  -21.9907   -9.0247   20.4636 C   0  0  0  0  0  0
  -22.7227  -10.2137   20.3072 C   0  0  0  0  0  0
  -21.6840   -6.0722   22.5270 C   0  0  0  0  0  0
  -21.3988   -6.5617   23.8205 C   0  0  0  0  0  0
  -21.3669   -5.6772   24.9172 C   0  0  0  0  0  0
  -21.6072   -4.3041   24.7218 C   0  0  0  0  0  0
  -21.8824   -3.8129   23.4334 C   0  0  0  0  0  0
  -21.9182   -4.6950   22.3390 C   0  0  0  0  0  0
  -22.7905  -13.5274   21.1874 C   0  0  0  0  0  0
  -22.1643   -4.2133   21.0970 F   0  0  0  0  0  0
  -21.5665   -3.4526   25.7736 F   0  0  0  0  0  0
  -30.0472  -13.2577   20.4679 N   0  0  0  0  0  0
  -26.3005  -12.9264   20.3230 N   0  0  0  0  0  0
  -25.9293  -11.6455   20.5679 N   0  0  0  0  0  0
  -22.0491  -12.8280   22.0390 N   0  0  0  0  0  0
  -25.4336  -15.1819   20.3719 N   0  0  0  0  0  0
  -31.8012  -14.5989   19.9809 O   0  0  0  0  0  0
  -21.6643   -6.8863   21.4227 O   0  0  0  0  0  0
  -22.3631  -14.5579   20.6675 O   0  0  0  0  0  0
  -24.6149  -31.8707   23.2125 C   0  0  0  0  0  0
  -25.9031  -32.4857   23.8437 C   0  0  1  0  0  0
  -27.2330  -27.4514   20.0933 C   0  0  0  0  0  0
  -25.5895  -33.8652   24.2374 N   0  0  0  0  0  0
  -23.4030  -30.4965   21.5528 C   0  0  2  0  0  0
  -24.8472  -28.9703   20.1149 C   0  0  0  0  0  0
  -22.7438  -29.4671   22.4992 C   0  0  0  0  0  0
  -18.0279  -28.1379   22.8500 C   0  0  0  0  0  0
  -24.1487  -36.7335   23.2644 C   0  0  0  0  0  0
  -25.9315  -30.8460   21.3591 C   0  0  0  0  0  0
  -26.0089  -29.4814   20.7064 C   0  0  0  0  0  0
  -27.2063  -28.7326   20.6873 C   0  0  0  0  0  0
  -26.0499  -26.9537   19.4976 C   0  0  0  0  0  0
  -24.8625  -27.7053   19.5055 C   0  0  0  0  0  0
  -23.6087  -29.8341   20.1666 C   0  0  0  0  0  0
  -25.4101  -36.3139   24.0362 C   0  0  1  0  0  0
  -20.5888  -28.3663   23.1336 C   0  0  2  0  0  0
  -20.6777  -26.9398   22.5431 C   0  0  0  0  0  0
  -19.5739  -26.6382   21.5245 C   0  0  0  0  0  0
  -18.1917  -26.7926   22.1645 C   0  0  0  0  0  0
  -19.1538  -28.8829   23.2914 C   0  0  0  0  0  0
  -18.9464  -30.1442   23.8918 C   0  0  0  0  0  0
  -17.6463  -30.6582   24.0570 C   0  0  0  0  0  0
  -25.9033  -34.9502   23.5170 C   0  0  0  0  0  0
  -16.5355  -29.9090   23.6313 C   0  0  0  0  0  0
  -16.7272  -28.6511   23.0330 C   0  0  0  0  0  0
  -26.4454  -31.6627   25.0761 C   0  0  0  0  0  0
  -25.3718  -31.3727   26.1522 C   0  0  0  0  0  0
  -27.0266  -30.3079   24.6075 C   0  0  0  0  0  0
  -27.6043  -32.4334   25.7505 C   0  0  0  0  0  0
  -27.5583  -37.1824   24.8461 C   0  0  0  0  0  0
  -21.4165  -29.3038   22.3749 N   0  0  0  0  0  0
  -26.4292  -37.3816   23.9412 N   0  0  0  0  0  0
  -24.6690  -31.0838   22.1008 N   0  0  0  0  0  0
  -23.4226  -28.8186   23.3000 O   0  0  0  0  0  0
  -28.4002  -26.7161   20.1103 O   0  0  0  0  0  0
  -26.5582  -34.8941   22.4722 O   0  0  0  0  0  0
  -23.5342  -32.1449   23.7515 O   0  0  0  0  0  0
  -31.6314  -22.1413   20.5982 C   0  0  0  0  0  0
  -30.2334  -22.0854   20.4065 C   0  0  0  0  0  0
  -31.8745  -20.1962   19.3756 C   0  0  0  0  0  0
  -30.4640  -20.1177   19.1994 C   0  0  0  0  0  0
  -32.8339  -19.1908   18.7657 C   0  0  0  0  0  0
  -29.9628  -14.9689   23.1457 C   0  0  0  0  0  0
  -27.3190  -19.3675   18.2912 C   0  0  0  0  0  0
  -28.2293  -17.0870   18.0002 C   0  0  0  0  0  0
  -29.3070  -23.1184   21.0265 C   0  0  0  0  0  0
  -29.8150  -19.0247   18.3377 C   0  0  0  0  0  0
  -29.5512  -24.5713   20.5622 C   0  0  0  0  0  0
  -30.1335  -16.8076   21.2742 C   0  0  0  0  0  0
  -28.2712  -18.1929   20.3145 C   0  0  0  0  0  0
  -28.2253  -25.3206   20.3739 C   0  0  0  0  0  0
  -30.5723  -15.4153   21.8005 C   0  0  1  0  0  0
  -28.4401  -18.4158   18.7729 C   0  0  0  0  0  0
  -32.4536  -21.2002   20.0773 N   0  0  0  0  0  0
  -29.6548  -21.0946   19.6847 N   0  0  0  0  0  0
  -28.7294  -16.8716   20.8085 N   0  3  0  0  0  0
  -31.4550  -12.3470   19.1142 H   0  0  0  0  0  0
  -30.2730  -11.2714   19.7876 H   0  0  0  0  0  0
  -29.7333  -11.8204   17.4007 H   0  0  0  0  0  0
  -29.6674  -13.5199   17.7905 H   0  0  0  0  0  0
  -27.8190  -11.3148   18.7776 H   0  0  0  0  0  0
  -27.3660  -12.6652   17.7715 H   0  0  0  0  0  0
  -27.7094  -14.2449   19.5739 H   0  0  0  0  0  0
  -28.6549  -11.9394   21.3356 H   0  0  0  0  0  0
  -28.4045  -13.5701   21.8411 H   0  0  0  0  0  0
  -25.2751   -9.5691   22.4779 H   0  0  0  0  0  0
  -24.0015   -7.4607   22.7445 H   0  0  0  0  0  0
  -21.0854   -8.8763   19.8907 H   0  0  0  0  0  0
  -22.3679  -10.9693   19.6205 H   0  0  0  0  0  0
  -21.1932   -7.6113   23.9707 H   0  0  0  0  0  0
  -21.1516   -6.0496   25.9088 H   0  0  0  0  0  0
  -22.0593   -2.7587   23.2836 H   0  0  0  0  0  0
  -22.4084  -11.9970   22.4860 H   0  0  0  0  0  0
  -21.1093  -13.1335   22.2502 H   0  0  0  0  0  0
  -24.5613  -15.7016   20.3870 H   0  0  0  0  0  0
  -25.9686  -15.4240   19.5484 H   0  0  0  0  0  0
  -26.7118  -32.5578   23.1229 H   0  0  0  0  0  0
  -25.0077  -33.9833   25.0535 H   0  0  0  0  0  0
  -22.6910  -31.3131   21.4173 H   0  0  0  0  0  0
  -23.3757  -35.9660   23.3312 H   0  0  0  0  0  0
  -24.3586  -36.8937   22.2055 H   0  0  0  0  0  0
  -23.7228  -37.6547   23.6633 H   0  0  0  0  0  0
  -26.0412  -31.6129   20.5904 H   0  0  0  0  0  0
  -26.8227  -30.9010   21.9719 H   0  0  0  0  0  0
  -28.1027  -29.1254   21.1455 H   0  0  0  0  0  0
  -26.0239  -25.9899   19.0125 H   0  0  0  0  0  0
  -23.9695  -27.3097   19.0408 H   0  0  0  0  0  0
  -23.7140  -30.6122   19.4095 H   0  0  0  0  0  0
  -22.7342  -29.2537   19.8666 H   0  0  0  0  0  0
  -25.1262  -36.2039   25.0856 H   0  0  0  0  0  0
  -20.9978  -28.3218   24.1458 H   0  0  0  0  0  0
  -20.5729  -26.2257   23.3611 H   0  0  0  0  0  0
  -21.6635  -26.7454   22.1191 H   0  0  0  0  0  0
  -19.6908  -25.6301   21.1247 H   0  0  0  0  0  0
  -19.6683  -27.3217   20.6798 H   0  0  0  0  0  0
  -17.4201  -26.6714   21.4026 H   0  0  0  0  0  0
  -18.0271  -26.0061   22.9027 H   0  0  0  0  0  0
  -19.7934  -30.7255   24.2299 H   0  0  0  0  0  0
  -17.5010  -31.6255   24.5179 H   0  0  0  0  0  0
  -15.5349  -30.2996   23.7614 H   0  0  0  0  0  0
  -15.8680  -28.0843   22.7009 H   0  0  0  0  0  0
  -24.5891  -30.7069   25.7876 H   0  0  0  0  0  0
  -24.8904  -32.2877   26.4976 H   0  0  0  0  0  0
  -25.8085  -30.8909   27.0281 H   0  0  0  0  0  0
  -26.2797  -29.6883   24.1107 H   0  0  0  0  0  0
  -27.4054  -29.7268   25.4491 H   0  0  0  0  0  0
  -27.8615  -30.4446   23.9204 H   0  0  0  0  0  0
  -27.2685  -33.3633   26.2103 H   0  0  0  0  0  0
  -28.3823  -32.6910   25.0306 H   0  0  0  0  0  0
  -28.0733  -31.8453   26.5400 H   0  0  0  0  0  0
  -28.2614  -38.0115   24.7515 H   0  0  0  0  0  0
  -28.1082  -36.2652   24.6274 H   0  0  0  0  0  0
  -27.2311  -37.1457   25.8873 H   0  0  0  0  0  0
  -20.9317  -29.8798   21.7013 H   0  0  0  0  0  0
  -26.0210  -38.2915   24.1389 H   0  0  0  0  0  0
  -32.0854  -22.9398   21.1667 H   0  0  0  0  0  0
  -32.6067  -19.0255   17.7119 H   0  0  0  0  0  0
  -32.7738  -18.2363   19.2900 H   0  0  0  0  0  0
  -33.8662  -19.5406   18.8221 H   0  0  0  0  0  0
  -30.4111  -15.5305   23.9658 H   0  0  0  0  0  0
  -30.1532  -13.9138   23.3445 H   0  0  0  0  0  0
  -28.8913  -15.1497   23.2052 H   0  0  0  0  0  0
  -27.4061  -19.5881   17.2254 H   0  0  0  0  0  0
  -27.3306  -20.3208   18.8187 H   0  0  0  0  0  0
  -26.3293  -18.9354   18.4436 H   0  0  0  0  0  0
  -28.2489  -17.2564   16.9229 H   0  0  0  0  0  0
  -27.2635  -16.6338   18.2255 H   0  0  0  0  0  0
  -29.0055  -16.3469   18.2040 H   0  0  0  0  0  0
  -29.3988  -23.0584   22.1123 H   0  0  0  0  0  0
  -28.2801  -22.8245   20.8004 H   0  0  0  0  0  0
  -30.5177  -18.1949   18.2929 H   0  0  0  0  0  0
  -29.7607  -19.3970   17.3154 H   0  0  0  0  0  0
  -30.0968  -24.5878   19.6196 H   0  0  0  0  0  0
  -30.1789  -25.0845   21.2923 H   0  0  0  0  0  0
  -30.7833  -17.1006   20.4493 H   0  0  0  0  0  0
  -30.2953  -17.5531   22.0545 H   0  0  0  0  0  0
  -27.2051  -18.2219   20.5499 H   0  0  0  0  0  0
  -28.7022  -18.9976   20.9102 H   0  0  0  0  0  0
  -27.6161  -25.2043   21.2737 H   0  0  0  0  0  0
  -27.6978  -24.8383   19.5517 H   0  0  0  0  0  0
  -31.6057  -15.5997   22.1028 H   0  0  0  0  0  0
  -28.1287  -16.6273   21.5815 H   0  0  0  0  0  0
  -28.5699  -16.2149   20.0638 H   0  0  0  0  0  0
  1 25  1  0  0  0
  1 30  2  0  0  0
  1 85  1  0  0  0
  2  3  1  0  0  0
  2 25  1  0  0  0
  2 90  1  0  0  0
  2 91  1  0  0  0
  3  4  1  0  0  0
  3 92  1  0  0  0
  3 93  1  0  0  0
  4  5  1  0  0  0
  4 94  1  0  0  0
  4 95  1  0  0  0
  5  6  1  0  0  0
  5 26  1  0  0  0
  5 96  1  0  0  0
  6 25  1  0  0  0
  6 97  1  0  0  0
  6 98  1  0  0  0
  7  8  2  0  0  0
  7 26  1  0  0  0
  7 29  1  0  0  0
  8  9  1  0  0  0
  8 22  1  0  0  0
  9 10  1  0  0  0
  9 27  2  0  0  0
 10 11  2  0  0  0
 10 15  1  0  0  0
 11 12  1  0  0  0
 11 99  1  0  0  0
 12 13  2  0  0  0
 12100  1  0  0  0
 13 14  1  0  0  0
 13 31  1  0  0  0
 14 15  2  0  0  0
 14101  1  0  0  0
 15102  1  0  0  0
 16 17  2  0  0  0
 16 21  1  0  0  0
 16 31  1  0  0  0
 17 18  1  0  0  0
 17103  1  0  0  0
 18 19  2  0  0  0
 18104  1  0  0  0
 19 20  1  0  0  0
 19 24  1  0  0  0
 20 21  2  0  0  0
 20105  1  0  0  0
 21 23  1  0  0  0
 22 28  1  0  0  0
 22 32  2  0  0  0
 26 27  1  0  0  0
 28106  1  0  0  0
 28107  1  0  0  0
 29108  1  0  0  0
 29109  1  0  0  0
 33 34  1  0  0  0
 33 66  1  0  0  0
 33 70  2  0  0  0
 34 36  1  0  0  0
 34 59  1  0  0  0
 34110  1  0  0  0
 35 44  2  0  0  0
 35 45  1  0  0  0
 35 68  1  0  0  0
 36 56  1  0  0  0
 36111  1  0  0  0
 37 39  1  0  0  0
 37 47  1  0  0  0
 37 66  1  0  0  0
 37112  1  0  0  0
 38 43  2  0  0  0
 38 46  1  0  0  0
 38 47  1  0  0  0
 39 64  1  0  0  0
 39 67  2  0  0  0
 40 52  1  0  0  0
 40 53  2  0  0  0
 40 58  1  0  0  0
 41113  1  0  0  0
 41114  1  0  0  0
 41115  1  0  0  0
 41 48  1  0  0  0
 42 43  1  0  0  0
 42 66  1  0  0  0
 42116  1  0  0  0
 42117  1  0  0  0
 43 44  1  0  0  0
 44118  1  0  0  0
 45 46  2  0  0  0
 45119  1  0  0  0
 46120  1  0  0  0
 47121  1  0  0  0
 47122  1  0  0  0
 48 56  1  0  0  0
 48 65  1  0  0  0
 48123  1  0  0  0
 49 50  1  0  0  0
 49 53  1  0  0  0
 49 64  1  0  0  0
 49124  1  0  0  0
 50 51  1  0  0  0
 50125  1  0  0  0
 50126  1  0  0  0
 51 52  1  0  0  0
 51127  1  0  0  0
 51128  1  0  0  0
 52129  1  0  0  0
 52130  1  0  0  0
 53 54  1  0  0  0
 54 55  2  0  0  0
 54131  1  0  0  0
 55 57  1  0  0  0
 55132  1  0  0  0
 56 69  2  0  0  0
 57 58  2  0  0  0
 57133  1  0  0  0
 58134  1  0  0  0
 59 60  1  0  0  0
 59 61  1  0  0  0
 59 62  1  0  0  0
 60135  1  0  0  0
 60136  1  0  0  0
 60137  1  0  0  0
 61138  1  0  0  0
 61139  1  0  0  0
 61140  1  0  0  0
 62141  1  0  0  0
 62142  1  0  0  0
 62143  1  0  0  0
 63 65  1  0  0  0
 63144  1  0  0  0
 63145  1  0  0  0
 63146  1  0  0  0
 64147  1  0  0  0
 65148  1  0  0  0
 68 84  1  0  0  0
 71 72  2  0  0  0
 71 87  1  0  0  0
 71149  1  0  0  0
 72 79  1  0  0  0
 72 88  1  0  0  0
 73 74  1  0  0  0
 73 75  1  0  0  0
 73 87  2  0  0  0
 74 80  1  0  0  0
 74 88  2  0  0  0
 75150  1  0  0  0
 75151  1  0  0  0
 75152  1  0  0  0
 76153  1  0  0  0
 76154  1  0  0  0
 76155  1  0  0  0
 76 85  1  0  0  0
 77156  1  0  0  0
 77157  1  0  0  0
 77158  1  0  0  0
 77 86  1  0  0  0
 78 86  1  0  0  0
 78159  1  0  0  0
 78160  1  0  0  0
 78161  1  0  0  0
 79 81  1  0  0  0
 79162  1  0  0  0
 79163  1  0  0  0
 80 86  1  0  0  0
 80164  1  0  0  0
 80165  1  0  0  0
 81 84  1  0  0  0
 81166  1  0  0  0
 81167  1  0  0  0
 82 85  1  0  0  0
 82 89  1  0  0  0
 82168  1  0  0  0
 82169  1  0  0  0
 83 86  1  0  0  0
 83 89  1  0  0  0
 83170  1  0  0  0
 83171  1  0  0  0
 84172  1  0  0  0
 84173  1  0  0  0
 85174  1  0  0  0
 89175  1  0  0  0
 89176  1  0  0  0
M  CHG  1  89   1
M  ISO  4   1 100  68 101  84 101  85 100
M  END
> <chiral flag>
0

> <version>
0

> <s_m_source_file>
/data/baiqing/PycharmProjects/Reinvent-master-3.2/result/LINK_invent/BTK/process_docking_weight1_custom_sum_contain_oxygen_bond_distance_aromatic_linkinvent_7_9_3/rearranged_h_0090.sdf

> <i_m_source_file_index>
82

> <r_mmod_Potential_Energy-OPLS-2005>
-82.9102554321289

> <r_mmod_Stretch_Energy-OPLS-2005>
42.4477958679199

> <r_mmod_Bend_Energy-OPLS-2005>
135.779510498047

> <r_mmod_Torsional_Energy-OPLS-2005>
230.586013793945

> <r_mmod_Improper_Torsional_Energy-OPLS-2005>
7.43482494354248

> <r_mmod_Van_der_Waal_Energy-OPLS-2005>
154.214874267578

> <r_mmod_Electrostatic_Energy-OPLS-2005>
-236.255493164062

> <r_mmod_Solvation_Energy-OPLS-2005>
-427.229278564453

> <b_mmod_Minimization_Converged-OPLS-2005>
0

> <r_mmod_RMS_Derivative-OPLS-2005>
3.10726284980774

$$$$
83
                    3D
 Structure written by MMmdl.
170178  0  0  1  0            999 V2000
  -30.7054  -14.4128   20.6654 C   0  0  0  0  0  0
  -30.4326  -12.3010   19.4025 C   0  0  0  0  0  0
  -29.5030  -12.5338   18.1961 C   0  0  0  0  0  0
  -28.0215  -12.3866   18.6043 C   0  0  0  0  0  0
  -27.6708  -13.2011   19.8760 C   0  0  2  0  0  0
  -28.7028  -12.9218   20.9902 C   0  0  0  0  0  0
  -25.2645  -13.8171   20.5632 C   0  0  0  0  0  0
  -24.1878  -13.0453   20.9111 C   0  0  0  0  0  0
  -24.6422  -11.6926   20.8671 C   0  0  0  0  0  0
  -23.9083  -10.4308   21.0373 C   0  0  0  0  0  0
  -24.3642   -9.4236   21.9162 C   0  0  0  0  0  0
  -23.6321   -8.2274   22.0756 C   0  0  0  0  0  0
  -22.4294   -8.0296   21.3554 C   0  0  0  0  0  0
  -21.9913   -9.0275   20.4656 C   0  0  0  0  0  0
  -22.7254  -10.2146   20.3036 C   0  0  0  0  0  0
  -21.6865   -6.0748   22.5288 C   0  0  0  0  0  0
  -21.4031   -6.5651   23.8214 C   0  0  0  0  0  0
  -21.3651   -5.6790   24.9167 C   0  0  0  0  0  0
  -21.6025   -4.3056   24.7221 C   0  0  0  0  0  0
  -21.8822   -3.8161   23.4342 C   0  0  0  0  0  0
  -21.9202   -4.6981   22.3402 C   0  0  0  0  0  0
  -22.7888  -13.5251   21.1790 C   0  0  0  0  0  0
  -22.1667   -4.2172   21.0976 F   0  0  0  0  0  0
  -21.5627   -3.4534   25.7741 F   0  0  0  0  0  0
  -30.0431  -13.2424   20.4619 N   0  0  0  0  0  0
  -26.3069  -12.9329   20.3305 N   0  0  0  0  0  0
  -25.9331  -11.6486   20.5655 N   0  0  0  0  0  0
  -22.0529  -12.8246   22.0347 N   0  0  0  0  0  0
  -25.4403  -15.1899   20.4091 N   0  0  0  0  0  0
  -31.7609  -14.7057   20.0934 O   0  0  0  0  0  0
  -21.6659   -6.8896   21.4245 O   0  0  0  0  0  0
  -22.3558  -14.5556   20.6653 O   0  0  0  0  0  0
  -24.6152  -31.8696   23.2116 C   0  0  0  0  0  0
  -25.9047  -32.4850   23.8424 C   0  0  1  0  0  0
  -27.2334  -27.4398   20.0873 C   0  0  0  0  0  0
  -25.5922  -33.8645   24.2361 N   0  0  0  0  0  0
  -23.4011  -30.4925   21.5546 C   0  0  2  0  0  0
  -24.8430  -28.9566   20.1190 C   0  0  0  0  0  0
  -22.7416  -29.4657   22.5026 C   0  0  0  0  0  0
  -18.0274  -28.1366   22.8493 C   0  0  0  0  0  0
  -24.1485  -36.7304   23.2632 C   0  0  0  0  0  0
  -25.9291  -30.8362   21.3625 C   0  0  0  0  0  0
  -26.0023  -29.4708   20.7078 C   0  0  0  0  0  0
  -27.1973  -28.7191   20.6871 C   0  0  0  0  0  0
  -26.0470  -26.9283   19.5105 C   0  0  0  0  0  0
  -24.8592  -27.6838   19.5204 C   0  0  0  0  0  0
  -23.6066  -29.8245   20.1683 C   0  0  0  0  0  0
  -25.4110  -36.3134   24.0347 C   0  0  1  0  0  0
  -20.5866  -28.3641   23.1339 C   0  0  2  0  0  0
  -20.6758  -26.9382   22.5417 C   0  0  0  0  0  0
  -19.5739  -26.6382   21.5204 C   0  0  0  0  0  0
  -18.1919  -26.7923   22.1615 C   0  0  0  0  0  0
  -19.1523  -28.8823   23.2913 C   0  0  0  0  0  0
  -18.9443  -30.1433   23.8914 C   0  0  0  0  0  0
  -17.6443  -30.6576   24.0561 C   0  0  0  0  0  0
  -25.9031  -34.9494   23.5142 C   0  0  0  0  0  0
  -16.5338  -29.9070   23.6322 C   0  0  0  0  0  0
  -16.7265  -28.6490   23.0345 C   0  0  0  0  0  0
  -26.4454  -31.6642   25.0758 C   0  0  0  0  0  0
  -25.3720  -31.3760   26.1523 C   0  0  0  0  0  0
  -27.0247  -30.3090   24.6113 C   0  0  0  0  0  0
  -27.6068  -32.4342   25.7491 C   0  0  0  0  0  0
  -27.5603  -37.1802   24.8455 C   0  0  0  0  0  0
  -21.4143  -29.3025   22.3768 N   0  0  0  0  0  0
  -26.4292  -37.3827   23.9427 N   0  0  0  0  0  0
  -24.6674  -31.0805   22.1018 N   0  0  0  0  0  0
  -23.4196  -28.8187   23.3055 O   0  0  0  0  0  0
  -28.4397  -26.7694   20.0789 O   0  0  0  0  0  0
  -26.5568  -34.8923   22.4689 O   0  0  0  0  0  0
  -23.5355  -32.1450   23.7518 O   0  0  0  0  0  0
  -31.2464  -22.1571   22.4027 C   0  0  0  0  0  0
  -32.4985  -20.1588   22.8662 C   0  0  0  0  0  0
  -32.4614  -21.5603   22.7891 C   0  0  0  0  0  0
  -30.1239  -21.3530   22.1078 C   0  0  0  0  0  0
  -30.2708  -19.9394   22.2096 C   0  0  0  0  0  0
  -33.7846  -22.5959   24.6751 C   0  0  0  0  0  0
  -33.8220  -23.7093   22.4050 C   0  0  0  0  0  0
  -28.8097  -22.0886   21.8089 C   0  0  0  0  0  0
  -29.1196  -18.9365   22.0677 C   0  0  0  0  0  0
  -28.8769  -23.0210   20.5741 C   0  0  0  0  0  0
  -29.3965  -17.6391   21.2580 C   0  0  0  0  0  0
  -28.2762  -24.4256   20.8199 C   0  0  0  0  0  0
  -30.4186  -16.6360   21.8568 C   0  0  0  0  0  0
  -28.5348  -25.4050   19.6572 C   0  0  0  0  0  0
  -33.7030  -22.3730   23.1593 C   0  0  0  0  0  0
  -31.4354  -19.3807   22.6024 N   0  0  0  0  0  0
  -30.0880  -15.2505   21.5117 N   0  0  0  0  0  0
  -31.4775  -12.4147   19.1089 H   0  0  0  0  0  0
  -30.3387  -11.2758   19.7642 H   0  0  0  0  0  0
  -29.7461  -11.8340   17.3945 H   0  0  0  0  0  0
  -29.6783  -13.5310   17.7880 H   0  0  0  0  0  0
  -27.8257  -11.3281   18.7802 H   0  0  0  0  0  0
  -27.3741  -12.6824   17.7793 H   0  0  0  0  0  0
  -27.7353  -14.2566   19.6069 H   0  0  0  0  0  0
  -28.6694  -11.8678   21.2775 H   0  0  0  0  0  0
  -28.4442  -13.4628   21.8978 H   0  0  0  0  0  0
  -25.2796   -9.5748   22.4697 H   0  0  0  0  0  0
  -24.0055   -7.4674   22.7476 H   0  0  0  0  0  0
  -21.0842   -8.8817   19.8956 H   0  0  0  0  0  0
  -22.3741  -10.9683   19.6134 H   0  0  0  0  0  0
  -21.2039   -7.6162   23.9725 H   0  0  0  0  0  0
  -21.1449   -6.0519   25.9065 H   0  0  0  0  0  0
  -22.0609   -2.7633   23.2827 H   0  0  0  0  0  0
  -22.4145  -11.9928   22.4767 H   0  0  0  0  0  0
  -21.1145  -13.1283   22.2544 H   0  0  0  0  0  0
  -24.6868  -15.8566   20.5260 H   0  0  0  0  0  0
  -26.3053  -15.6246   20.1122 H   0  0  0  0  0  0
  -26.7120  -32.5544   23.1185 H   0  0  0  0  0  0
  -25.0141  -33.9830   25.0557 H   0  0  0  0  0  0
  -22.6899  -31.3096   21.4193 H   0  0  0  0  0  0
  -23.3781  -35.9596   23.3267 H   0  0  0  0  0  0
  -24.3599  -36.8945   22.2055 H   0  0  0  0  0  0
  -23.7178  -37.6481   23.6638 H   0  0  0  0  0  0
  -26.0424  -31.6052   20.5974 H   0  0  0  0  0  0
  -26.8178  -30.8884   21.9789 H   0  0  0  0  0  0
  -28.0981  -29.1206   21.1299 H   0  0  0  0  0  0
  -26.0119  -25.9539   19.0479 H   0  0  0  0  0  0
  -23.9626  -27.2809   19.0703 H   0  0  0  0  0  0
  -23.7149  -30.5992   19.4092 H   0  0  0  0  0  0
  -22.7283  -29.2473   19.8746 H   0  0  0  0  0  0
  -25.1276  -36.2009   25.0843 H   0  0  0  0  0  0
  -20.9957  -28.3179   24.1459 H   0  0  0  0  0  0
  -20.5646  -26.2239   23.3589 H   0  0  0  0  0  0
  -21.6637  -26.7419   22.1229 H   0  0  0  0  0  0
  -19.6880  -25.6296   21.1221 H   0  0  0  0  0  0
  -19.6677  -27.3196   20.6735 H   0  0  0  0  0  0
  -17.4196  -26.6693   21.4009 H   0  0  0  0  0  0
  -18.0295  -26.0059   22.9005 H   0  0  0  0  0  0
  -19.7911  -30.7249   24.2302 H   0  0  0  0  0  0
  -17.4989  -31.6257   24.5159 H   0  0  0  0  0  0
  -15.5333  -30.2963   23.7637 H   0  0  0  0  0  0
  -15.8672  -28.0802   22.7047 H   0  0  0  0  0  0
  -24.5850  -30.7156   25.7864 H   0  0  0  0  0  0
  -24.8936  -32.2914   26.5024 H   0  0  0  0  0  0
  -25.8078  -30.8885   27.0255 H   0  0  0  0  0  0
  -26.2770  -29.6915   24.1126 H   0  0  0  0  0  0
  -27.3977  -29.7293   25.4566 H   0  0  0  0  0  0
  -27.8629  -30.4428   23.9269 H   0  0  0  0  0  0
  -27.2743  -33.3652   26.2095 H   0  0  0  0  0  0
  -28.3841  -32.6913   25.0278 H   0  0  0  0  0  0
  -28.0758  -31.8442   26.5374 H   0  0  0  0  0  0
  -28.2598  -38.0129   24.7609 H   0  0  0  0  0  0
  -28.1129  -36.2684   24.6146 H   0  0  0  0  0  0
  -27.2338  -37.1307   25.8856 H   0  0  0  0  0  0
  -20.9283  -29.8783   21.7032 H   0  0  0  0  0  0
  -26.0191  -38.2898   24.1477 H   0  0  0  0  0  0
  -31.1518  -23.2316   22.3511 H   0  0  0  0  0  0
  -33.3954  -19.6391   23.1727 H   0  0  0  0  0  0
  -33.7197  -21.6543   25.2221 H   0  0  0  0  0  0
  -32.9795  -23.2418   25.0290 H   0  0  0  0  0  0
  -34.7309  -23.0641   24.9498 H   0  0  0  0  0  0
  -33.7732  -23.5634   21.3260 H   0  0  0  0  0  0
  -34.7764  -24.1902   22.6264 H   0  0  0  0  0  0
  -33.0395  -24.4152   22.6883 H   0  0  0  0  0  0
  -28.6017  -22.6844   22.6985 H   0  0  0  0  0  0
  -27.9446  -21.4352   21.7215 H   0  0  0  0  0  0
  -28.2753  -19.4099   21.5772 H   0  0  0  0  0  0
  -28.7616  -18.6856   23.0667 H   0  0  0  0  0  0
  -28.3916  -22.5391   19.7238 H   0  0  0  0  0  0
  -29.9154  -23.1550   20.2697 H   0  0  0  0  0  0
  -29.6894  -17.9002   20.2418 H   0  0  0  0  0  0
  -28.4347  -17.1319   21.1668 H   0  0  0  0  0  0
  -28.7377  -24.8424   21.7167 H   0  0  0  0  0  0
  -27.2072  -24.3585   21.0284 H   0  0  0  0  0  0
  -30.4180  -16.7065   22.9450 H   0  0  0  0  0  0
  -31.4305  -16.8904   21.5359 H   0  0  0  0  0  0
  -27.9384  -25.1671   18.7773 H   0  0  0  0  0  0
  -29.5659  -25.2780   19.3290 H   0  0  0  0  0  0
  -34.5689  -21.7732   22.8717 H   0  0  0  0  0  0
  -29.2621  -14.8697   21.9526 H   0  0  0  0  0  0
  1 25  1  0  0  0
  1 30  2  0  0  0
  1 87  1  0  0  0
  2  3  1  0  0  0
  2 25  1  0  0  0
  2 88  1  0  0  0
  2 89  1  0  0  0
  3  4  1  0  0  0
  3 90  1  0  0  0
  3 91  1  0  0  0
  4  5  1  0  0  0
  4 92  1  0  0  0
  4 93  1  0  0  0
  5  6  1  0  0  0
  5 26  1  0  0  0
  5 94  1  0  0  0
  6 25  1  0  0  0
  6 95  1  0  0  0
  6 96  1  0  0  0
  7  8  2  0  0  0
  7 26  1  0  0  0
  7 29  1  0  0  0
  8  9  1  0  0  0
  8 22  1  0  0  0
  9 10  1  0  0  0
  9 27  2  0  0  0
 10 11  2  0  0  0
 10 15  1  0  0  0
 11 12  1  0  0  0
 11 97  1  0  0  0
 12 13  2  0  0  0
 12 98  1  0  0  0
 13 14  1  0  0  0
 13 31  1  0  0  0
 14 15  2  0  0  0
 14 99  1  0  0  0
 15100  1  0  0  0
 16 17  2  0  0  0
 16 21  1  0  0  0
 16 31  1  0  0  0
 17 18  1  0  0  0
 17101  1  0  0  0
 18 19  2  0  0  0
 18102  1  0  0  0
 19 20  1  0  0  0
 19 24  1  0  0  0
 20 21  2  0  0  0
 20103  1  0  0  0
 21 23  1  0  0  0
 22 28  1  0  0  0
 22 32  2  0  0  0
 26 27  1  0  0  0
 28104  1  0  0  0
 28105  1  0  0  0
 29106  1  0  0  0
 29107  1  0  0  0
 33 34  1  0  0  0
 33 66  1  0  0  0
 33 70  2  0  0  0
 34 36  1  0  0  0
 34 59  1  0  0  0
 34108  1  0  0  0
 35 44  2  0  0  0
 35 45  1  0  0  0
 35 68  1  0  0  0
 36 56  1  0  0  0
 36109  1  0  0  0
 37 39  1  0  0  0
 37 47  1  0  0  0
 37 66  1  0  0  0
 37110  1  0  0  0
 38 43  2  0  0  0
 38 46  1  0  0  0
 38 47  1  0  0  0
 39 64  1  0  0  0
 39 67  2  0  0  0
 40 52  1  0  0  0
 40 53  2  0  0  0
 40 58  1  0  0  0
 41111  1  0  0  0
 41112  1  0  0  0
 41113  1  0  0  0
 41 48  1  0  0  0
 42 43  1  0  0  0
 42 66  1  0  0  0
 42114  1  0  0  0
 42115  1  0  0  0
 43 44  1  0  0  0
 44116  1  0  0  0
 45 46  2  0  0  0
 45117  1  0  0  0
 46118  1  0  0  0
 47119  1  0  0  0
 47120  1  0  0  0
 48 56  1  0  0  0
 48 65  1  0  0  0
 48121  1  0  0  0
 49 50  1  0  0  0
 49 53  1  0  0  0
 49 64  1  0  0  0
 49122  1  0  0  0
 50 51  1  0  0  0
 50123  1  0  0  0
 50124  1  0  0  0
 51 52  1  0  0  0
 51125  1  0  0  0
 51126  1  0  0  0
 52127  1  0  0  0
 52128  1  0  0  0
 53 54  1  0  0  0
 54 55  2  0  0  0
 54129  1  0  0  0
 55 57  1  0  0  0
 55130  1  0  0  0
 56 69  2  0  0  0
 57 58  2  0  0  0
 57131  1  0  0  0
 58132  1  0  0  0
 59 60  1  0  0  0
 59 61  1  0  0  0
 59 62  1  0  0  0
 60133  1  0  0  0
 60134  1  0  0  0
 60135  1  0  0  0
 61136  1  0  0  0
 61137  1  0  0  0
 61138  1  0  0  0
 62139  1  0  0  0
 62140  1  0  0  0
 62141  1  0  0  0
 63 65  1  0  0  0
 63142  1  0  0  0
 63143  1  0  0  0
 63144  1  0  0  0
 64145  1  0  0  0
 65146  1  0  0  0
 68 84  1  0  0  0
 71 73  2  0  0  0
 71 74  1  0  0  0
 71147  1  0  0  0
 72 73  1  0  0  0
 72 86  2  0  0  0
 72148  1  0  0  0
 73 85  1  0  0  0
 74 75  2  0  0  0
 74 78  1  0  0  0
 75 79  1  0  0  0
 75 86  1  0  0  0
 76149  1  0  0  0
 76150  1  0  0  0
 76151  1  0  0  0
 76 85  1  0  0  0
 77 85  1  0  0  0
 77152  1  0  0  0
 77153  1  0  0  0
 77154  1  0  0  0
 78 80  1  0  0  0
 78155  1  0  0  0
 78156  1  0  0  0
 79 81  1  0  0  0
 79157  1  0  0  0
 79158  1  0  0  0
 80 82  1  0  0  0
 80159  1  0  0  0
 80160  1  0  0  0
 81 83  1  0  0  0
 81161  1  0  0  0
 81162  1  0  0  0
 82 84  1  0  0  0
 82163  1  0  0  0
 82164  1  0  0  0
 83 87  1  0  0  0
 83165  1  0  0  0
 83166  1  0  0  0
 84167  1  0  0  0
 84168  1  0  0  0
 85169  1  0  0  0
 87170  1  0  0  0
M  ISO  4   1 100  68 101  84 101  87 100
M  END
> <chiral flag>
0

> <version>
0

> <s_m_source_file>
/data/baiqing/PycharmProjects/Reinvent-master-3.2/result/LINK_invent/BTK/process_docking_weight1_custom_sum_contain_oxygen_bond_distance_aromatic_linkinvent_7_9_3/rearranged_h_0090.sdf

> <i_m_source_file_index>
83

> <r_mmod_Potential_Energy-OPLS-2005>
-205.867324829102

> <r_mmod_Stretch_Energy-OPLS-2005>
37.4486465454102

> <r_mmod_Bend_Energy-OPLS-2005>
119.898857116699

> <r_mmod_Torsional_Energy-OPLS-2005>
200.464401245117

> <r_mmod_Improper_Torsional_Energy-OPLS-2005>
2.75460338592529

> <r_mmod_Van_der_Waal_Energy-OPLS-2005>
162.117004394531

> <r_mmod_Electrostatic_Energy-OPLS-2005>
-518.858154296875

> <r_mmod_Solvation_Energy-OPLS-2005>
-219.357452392578

> <b_mmod_Minimization_Converged-OPLS-2005>
0

> <r_mmod_RMS_Derivative-OPLS-2005>
3.45609283447266

$$$$
84
                    3D
 Structure written by MMmdl.
160168  0  0  1  0            999 V2000
  -30.6929  -14.5064   20.5573 C   0  0  0  0  0  0
  -30.4234  -12.3264   19.4303 C   0  0  0  0  0  0
  -29.4966  -12.5063   18.2105 C   0  0  0  0  0  0
  -28.0190  -12.3582   18.6235 C   0  0  0  0  0  0
  -27.6585  -13.2096   19.8706 C   0  0  2  0  0  0
  -28.7008  -13.0180   20.9955 C   0  0  0  0  0  0
  -25.2580  -13.8166   20.5680 C   0  0  0  0  0  0
  -24.1834  -13.0442   20.9180 C   0  0  0  0  0  0
  -24.6389  -11.6910   20.8734 C   0  0  0  0  0  0
  -23.9054  -10.4296   21.0404 C   0  0  0  0  0  0
  -24.3609   -9.4212   21.9182 C   0  0  0  0  0  0
  -23.6291   -8.2244   22.0751 C   0  0  0  0  0  0
  -22.4272   -8.0280   21.3544 C   0  0  0  0  0  0
  -21.9903   -9.0252   20.4647 C   0  0  0  0  0  0
  -22.7226  -10.2136   20.3056 C   0  0  0  0  0  0
  -21.6854   -6.0736   22.5280 C   0  0  0  0  0  0
  -21.4013   -6.5640   23.8215 C   0  0  0  0  0  0
  -21.3658   -5.6791   24.9175 C   0  0  0  0  0  0
  -21.6045   -4.3055   24.7225 C   0  0  0  0  0  0
  -21.8819   -3.8147   23.4346 C   0  0  0  0  0  0
  -21.9193   -4.6964   22.3403 C   0  0  0  0  0  0
  -22.7860  -13.5244   21.1844 C   0  0  0  0  0  0
  -22.1662   -4.2150   21.0979 F   0  0  0  0  0  0
  -21.5628   -3.4537   25.7738 F   0  0  0  0  0  0
  -30.0279  -13.3237   20.4387 N   0  0  0  0  0  0
  -26.3010  -12.9337   20.3349 N   0  0  0  0  0  0
  -25.9316  -11.6495   20.5760 N   0  0  0  0  0  0
  -22.0492  -12.8246   22.0403 N   0  0  0  0  0  0
  -25.4305  -15.1885   20.4093 N   0  0  0  0  0  0
  -31.8294  -14.6730   20.1075 O   0  0  0  0  0  0
  -21.6637   -6.8878   21.4242 O   0  0  0  0  0  0
  -22.3552  -14.5553   20.6691 O   0  0  0  0  0  0
  -24.6170  -31.8664   23.2086 C   0  0  0  0  0  0
  -25.9053  -32.4815   23.8390 C   0  0  1  0  0  0
  -27.2293  -27.4117   20.1074 C   0  0  0  0  0  0
  -25.5898  -33.8613   24.2319 N   0  0  0  0  0  0
  -23.4070  -30.4902   21.5491 C   0  0  2  0  0  0
  -24.8548  -28.9556   20.1120 C   0  0  0  0  0  0
  -22.7426  -29.4653   22.4973 C   0  0  0  0  0  0
  -18.0278  -28.1380   22.8495 C   0  0  0  0  0  0
  -24.1487  -36.7314   23.2640 C   0  0  0  0  0  0
  -25.9384  -30.8264   21.3654 C   0  0  0  0  0  0
  -26.0172  -29.4601   20.7105 C   0  0  0  0  0  0
  -27.2115  -28.6974   20.7019 C   0  0  0  0  0  0
  -26.0543  -26.9326   19.4913 C   0  0  0  0  0  0
  -24.8696  -27.6924   19.4961 C   0  0  0  0  0  0
  -23.6170  -29.8241   20.1634 C   0  0  0  0  0  0
  -25.4108  -36.3106   24.0337 C   0  0  1  0  0  0
  -20.5870  -28.3670   23.1309 C   0  0  2  0  0  0
  -20.6767  -26.9405   22.5415 C   0  0  0  0  0  0
  -19.5745  -26.6388   21.5213 C   0  0  0  0  0  0
  -18.1924  -26.7926   22.1625 C   0  0  0  0  0  0
  -19.1528  -28.8841   23.2901 C   0  0  0  0  0  0
  -18.9454  -30.1445   23.8914 C   0  0  0  0  0  0
  -17.6457  -30.6586   24.0566 C   0  0  0  0  0  0
  -25.9036  -34.9472   23.5127 C   0  0  0  0  0  0
  -16.5349  -29.9087   23.6326 C   0  0  0  0  0  0
  -16.7266  -28.6502   23.0351 C   0  0  0  0  0  0
  -26.4475  -31.6601   25.0725 C   0  0  0  0  0  0
  -25.3738  -31.3717   26.1474 C   0  0  0  0  0  0
  -27.0307  -30.3038   24.6115 C   0  0  0  0  0  0
  -27.6049  -32.4325   25.7484 C   0  0  0  0  0  0
  -27.5580  -37.1812   24.8465 C   0  0  0  0  0  0
  -21.4149  -29.3035   22.3710 N   0  0  0  0  0  0
  -26.4295  -37.3790   23.9407 N   0  0  0  0  0  0
  -24.6724  -31.0753   22.0993 N   0  0  0  0  0  0
  -23.4186  -28.8194   23.3023 O   0  0  0  0  0  0
  -28.3537  -26.6083   20.1312 O   0  0  0  0  0  0
  -26.5602  -34.8924   22.4690 O   0  0  0  0  0  0
  -23.5356  -32.1422   23.7468 O   0  0  0  0  0  0
  -29.1880  -20.5360   20.2626 C   0  0  0  0  0  0
  -29.7093  -21.8195   19.9278 C   0  0  0  0  0  0
  -30.0274  -19.3930   20.1403 C   0  0  0  0  0  0
  -31.0641  -21.8403   19.5072 C   0  0  0  0  0  0
  -31.7657  -23.0998   19.0373 C   0  0  0  0  0  0
  -29.2030  -17.3893   18.8370 C   0  0  0  0  0  0
  -28.8049  -23.0769   19.9076 C   0  0  0  0  0  0
  -29.2549  -24.3024   20.7637 C   0  0  0  0  0  0
  -30.3958  -16.9703   21.0820 C   0  0  0  0  0  0
  -28.1925  -25.4274   20.9518 C   0  0  0  0  0  0
  -29.4935  -17.9428   20.2452 C   0  0  1  0  0  0
  -31.3158  -19.5208   19.7383 N   0  0  0  0  0  0
  -31.8272  -20.7207   19.4515 N   0  0  0  0  0  0
  -29.9801  -15.5433   21.0508 N   0  0  0  0  0  0
  -31.4676  -12.4264   19.1289 H   0  0  0  0  0  0
  -30.3278  -11.3201   19.8409 H   0  0  0  0  0  0
  -29.7445  -11.7771   17.4381 H   0  0  0  0  0  0
  -29.6580  -13.4899   17.7663 H   0  0  0  0  0  0
  -27.8400  -11.3029   18.8325 H   0  0  0  0  0  0
  -27.3660  -12.6162   17.7889 H   0  0  0  0  0  0
  -27.6937  -14.2529   19.5579 H   0  0  0  0  0  0
  -28.6839  -11.9897   21.3600 H   0  0  0  0  0  0
  -28.4606  -13.6395   21.8590 H   0  0  0  0  0  0
  -25.2754   -9.5693   22.4755 H   0  0  0  0  0  0
  -24.0003   -7.4637   22.7471 H   0  0  0  0  0  0
  -21.0833   -8.8771   19.8955 H   0  0  0  0  0  0
  -22.3682  -10.9674   19.6167 H   0  0  0  0  0  0
  -21.2002   -7.6148   23.9721 H   0  0  0  0  0  0
  -21.1482   -6.0518   25.9080 H   0  0  0  0  0  0
  -22.0599   -2.7608   23.2844 H   0  0  0  0  0  0
  -22.4094  -11.9909   22.4805 H   0  0  0  0  0  0
  -21.1112  -13.1288   22.2602 H   0  0  0  0  0  0
  -24.6626  -15.8427   20.5138 H   0  0  0  0  0  0
  -26.2814  -15.6271   20.0809 H   0  0  0  0  0  0
  -26.7125  -32.5524   23.1154 H   0  0  0  0  0  0
  -25.0044  -33.9771   25.0462 H   0  0  0  0  0  0
  -22.6967  -31.3080   21.4100 H   0  0  0  0  0  0
  -23.3738  -35.9657   23.3317 H   0  0  0  0  0  0
  -24.3578  -36.8914   22.2051 H   0  0  0  0  0  0
  -23.7250  -37.6528   23.6645 H   0  0  0  0  0  0
  -26.0552  -31.5927   20.5977 H   0  0  0  0  0  0
  -26.8241  -30.8779   21.9868 H   0  0  0  0  0  0
  -28.1071  -29.0786   21.1724 H   0  0  0  0  0  0
  -26.0519  -25.9614   19.0171 H   0  0  0  0  0  0
  -23.9779  -27.2993   19.0274 H   0  0  0  0  0  0
  -23.7263  -30.6004   19.4052 H   0  0  0  0  0  0
  -22.7406  -29.2455   19.8664 H   0  0  0  0  0  0
  -25.1286  -36.1973   25.0831 H   0  0  0  0  0  0
  -20.9969  -28.3238   24.1426 H   0  0  0  0  0  0
  -20.5672  -26.2278   23.3604 H   0  0  0  0  0  0
  -21.6638  -26.7448   22.1207 H   0  0  0  0  0  0
  -19.6907  -25.6301   21.1233 H   0  0  0  0  0  0
  -19.6683  -27.3206   20.6749 H   0  0  0  0  0  0
  -17.4196  -26.6679   21.4025 H   0  0  0  0  0  0
  -18.0326  -26.0062   22.9016 H   0  0  0  0  0  0
  -19.7931  -30.7255   24.2293 H   0  0  0  0  0  0
  -17.5013  -31.6267   24.5165 H   0  0  0  0  0  0
  -15.5349  -30.2996   23.7639 H   0  0  0  0  0  0
  -15.8667  -28.0824   22.7060 H   0  0  0  0  0  0
  -24.5892  -30.7088   25.7808 H   0  0  0  0  0  0
  -24.8953  -32.2879   26.4942 H   0  0  0  0  0  0
  -25.8084  -30.8862   27.0221 H   0  0  0  0  0  0
  -26.2857  -29.6797   24.1165 H   0  0  0  0  0  0
  -27.4067  -29.7278   25.4581 H   0  0  0  0  0  0
  -27.8697  -30.4353   23.9278 H   0  0  0  0  0  0
  -27.2666  -33.3613   26.2091 H   0  0  0  0  0  0
  -28.3838  -32.6910   25.0298 H   0  0  0  0  0  0
  -28.0743  -31.8436   26.5374 H   0  0  0  0  0  0
  -28.2611  -38.0096   24.7496 H   0  0  0  0  0  0
  -28.1062  -36.2627   24.6310 H   0  0  0  0  0  0
  -27.2298  -37.1487   25.8870 H   0  0  0  0  0  0
  -20.9311  -29.8756   21.6931 H   0  0  0  0  0  0
  -26.0184  -38.2872   24.1393 H   0  0  0  0  0  0
  -28.1501  -20.4161   20.5381 H   0  0  0  0  0  0
  -32.1323  -23.6686   19.8911 H   0  0  0  0  0  0
  -31.1001  -23.7294   18.4481 H   0  0  0  0  0  0
  -32.6228  -22.8597   18.4076 H   0  0  0  0  0  0
  -28.5464  -18.0616   18.2843 H   0  0  0  0  0  0
  -28.7111  -16.4184   18.8717 H   0  0  0  0  0  0
  -30.1222  -17.2776   18.2617 H   0  0  0  0  0  0
  -27.8121  -22.7713   20.2394 H   0  0  0  0  0  0
  -28.6790  -23.3907   18.8708 H   0  0  0  0  0  0
  -30.1744  -24.7489   20.3927 H   0  0  0  0  0  0
  -29.4965  -23.9200   21.7562 H   0  0  0  0  0  0
  -30.4122  -17.3010   22.1209 H   0  0  0  0  0  0
  -31.4271  -17.0546   20.7363 H   0  0  0  0  0  0
  -28.2562  -25.7746   21.9845 H   0  0  0  0  0  0
  -27.1962  -24.9935   20.8611 H   0  0  0  0  0  0
  -28.5359  -18.0079   20.7635 H   0  0  0  0  0  0
  -29.0507  -15.3289   21.3799 H   0  0  0  0  0  0
  1 25  1  0  0  0
  1 30  2  0  0  0
  1 84  1  0  0  0
  2  3  1  0  0  0
  2 25  1  0  0  0
  2 85  1  0  0  0
  2 86  1  0  0  0
  3  4  1  0  0  0
  3 87  1  0  0  0
  3 88  1  0  0  0
  4  5  1  0  0  0
  4 89  1  0  0  0
  4 90  1  0  0  0
  5  6  1  0  0  0
  5 26  1  0  0  0
  5 91  1  0  0  0
  6 25  1  0  0  0
  6 92  1  0  0  0
  6 93  1  0  0  0
  7  8  2  0  0  0
  7 26  1  0  0  0
  7 29  1  0  0  0
  8  9  1  0  0  0
  8 22  1  0  0  0
  9 10  1  0  0  0
  9 27  2  0  0  0
 10 11  2  0  0  0
 10 15  1  0  0  0
 11 12  1  0  0  0
 11 94  1  0  0  0
 12 13  2  0  0  0
 12 95  1  0  0  0
 13 14  1  0  0  0
 13 31  1  0  0  0
 14 15  2  0  0  0
 14 96  1  0  0  0
 15 97  1  0  0  0
 16 17  2  0  0  0
 16 21  1  0  0  0
 16 31  1  0  0  0
 17 18  1  0  0  0
 17 98  1  0  0  0
 18 19  2  0  0  0
 18 99  1  0  0  0
 19 20  1  0  0  0
 19 24  1  0  0  0
 20 21  2  0  0  0
 20100  1  0  0  0
 21 23  1  0  0  0
 22 28  1  0  0  0
 22 32  2  0  0  0
 26 27  1  0  0  0
 28101  1  0  0  0
 28102  1  0  0  0
 29103  1  0  0  0
 29104  1  0  0  0
 33 34  1  0  0  0
 33 66  1  0  0  0
 33 70  2  0  0  0
 34 36  1  0  0  0
 34 59  1  0  0  0
 34105  1  0  0  0
 35 44  2  0  0  0
 35 45  1  0  0  0
 35 68  1  0  0  0
 36 56  1  0  0  0
 36106  1  0  0  0
 37 39  1  0  0  0
 37 47  1  0  0  0
 37 66  1  0  0  0
 37107  1  0  0  0
 38 43  2  0  0  0
 38 46  1  0  0  0
 38 47  1  0  0  0
 39 64  1  0  0  0
 39 67  2  0  0  0
 40 52  1  0  0  0
 40 53  2  0  0  0
 40 58  1  0  0  0
 41108  1  0  0  0
 41109  1  0  0  0
 41110  1  0  0  0
 41 48  1  0  0  0
 42 43  1  0  0  0
 42 66  1  0  0  0
 42111  1  0  0  0
 42112  1  0  0  0
 43 44  1  0  0  0
 44113  1  0  0  0
 45 46  2  0  0  0
 45114  1  0  0  0
 46115  1  0  0  0
 47116  1  0  0  0
 47117  1  0  0  0
 48 56  1  0  0  0
 48 65  1  0  0  0
 48118  1  0  0  0
 49 50  1  0  0  0
 49 53  1  0  0  0
 49 64  1  0  0  0
 49119  1  0  0  0
 50 51  1  0  0  0
 50120  1  0  0  0
 50121  1  0  0  0
 51 52  1  0  0  0
 51122  1  0  0  0
 51123  1  0  0  0
 52124  1  0  0  0
 52125  1  0  0  0
 53 54  1  0  0  0
 54 55  2  0  0  0
 54126  1  0  0  0
 55 57  1  0  0  0
 55127  1  0  0  0
 56 69  2  0  0  0
 57 58  2  0  0  0
 57128  1  0  0  0
 58129  1  0  0  0
 59 60  1  0  0  0
 59 61  1  0  0  0
 59 62  1  0  0  0
 60130  1  0  0  0
 60131  1  0  0  0
 60132  1  0  0  0
 61133  1  0  0  0
 61134  1  0  0  0
 61135  1  0  0  0
 62136  1  0  0  0
 62137  1  0  0  0
 62138  1  0  0  0
 63 65  1  0  0  0
 63139  1  0  0  0
 63140  1  0  0  0
 63141  1  0  0  0
 64142  1  0  0  0
 65143  1  0  0  0
 68 80  1  0  0  0
 71 72  2  0  0  0
 71 73  1  0  0  0
 71144  1  0  0  0
 72 74  1  0  0  0
 72 77  1  0  0  0
 73 81  1  0  0  0
 73 82  2  0  0  0
 74 75  1  0  0  0
 74 83  2  0  0  0
 75145  1  0  0  0
 75146  1  0  0  0
 75147  1  0  0  0
 76148  1  0  0  0
 76149  1  0  0  0
 76150  1  0  0  0
 76 81  1  0  0  0
 77 78  1  0  0  0
 77151  1  0  0  0
 77152  1  0  0  0
 78 80  1  0  0  0
 78153  1  0  0  0
 78154  1  0  0  0
 79 81  1  0  0  0
 79 84  1  0  0  0
 79155  1  0  0  0
 79156  1  0  0  0
 80157  1  0  0  0
 80158  1  0  0  0
 81159  1  0  0  0
 82 83  1  0  0  0
 84160  1  0  0  0
M  ISO  4   1 100  68 101  80 101  84 100
M  END
> <chiral flag>
0

> <version>
0

> <s_m_source_file>
/data/baiqing/PycharmProjects/Reinvent-master-3.2/result/LINK_invent/BTK/process_docking_weight1_custom_sum_contain_oxygen_bond_distance_aromatic_linkinvent_7_9_3/rearranged_h_0090.sdf

> <i_m_source_file_index>
84

> <r_mmod_Potential_Energy-OPLS-2005>
-66.4621505737305

> <r_mmod_Stretch_Energy-OPLS-2005>
47.4930686950684

> <r_mmod_Bend_Energy-OPLS-2005>
104.653221130371

> <r_mmod_Torsional_Energy-OPLS-2005>
222.670669555664

> <r_mmod_Improper_Torsional_Energy-OPLS-2005>
4.70126533508301

> <r_mmod_Van_der_Waal_Energy-OPLS-2005>
150.874938964844

> <r_mmod_Electrostatic_Energy-OPLS-2005>
-375.48388671875

> <r_mmod_Solvation_Energy-OPLS-2005>
-239.830322265625

> <b_mmod_Minimization_Converged-OPLS-2005>
0

> <r_mmod_RMS_Derivative-OPLS-2005>
0.506883859634399

$$$$
85
                    3D
 Structure written by MMmdl.
157165  0  0  1  0            999 V2000
  -30.6356  -14.7185   20.4521 C   0  0  0  0  0  0
  -30.4272  -12.4394   19.4609 C   0  0  0  0  0  0
  -29.5045  -12.4974   18.2244 C   0  0  0  0  0  0
  -28.0272  -12.3384   18.6361 C   0  0  0  0  0  0
  -27.6397  -13.2314   19.8458 C   0  0  2  0  0  0
  -28.6896  -13.1631   20.9769 C   0  0  0  0  0  0
  -25.2495  -13.8193   20.5686 C   0  0  0  0  0  0
  -24.1794  -13.0437   20.9208 C   0  0  0  0  0  0
  -24.6371  -11.6912   20.8719 C   0  0  0  0  0  0
  -23.9041  -10.4294   21.0371 C   0  0  0  0  0  0
  -24.3599   -9.4219   21.9149 C   0  0  0  0  0  0
  -23.6281   -8.2249   22.0738 C   0  0  0  0  0  0
  -22.4263   -8.0270   21.3534 C   0  0  0  0  0  0
  -21.9887   -9.0241   20.4636 C   0  0  0  0  0  0
  -22.7207  -10.2125   20.3025 C   0  0  0  0  0  0
  -21.6859   -6.0713   22.5269 C   0  0  0  0  0  0
  -21.4025   -6.5628   23.8200 C   0  0  0  0  0  0
  -21.3660   -5.6785   24.9166 C   0  0  0  0  0  0
  -21.6048   -4.3048   24.7221 C   0  0  0  0  0  0
  -21.8825   -3.8131   23.4346 C   0  0  0  0  0  0
  -21.9198   -4.6943   22.3399 C   0  0  0  0  0  0
  -22.7824  -13.5211   21.1869 C   0  0  0  0  0  0
  -22.1659   -4.2126   21.0980 F   0  0  0  0  0  0
  -21.5634   -3.4537   25.7733 F   0  0  0  0  0  0
  -29.9870  -13.5077   20.3843 N   0  0  0  0  0  0
  -26.2926  -12.9396   20.3258 N   0  0  0  0  0  0
  -25.9300  -11.6539   20.5721 N   0  0  0  0  0  0
  -22.0474  -12.8204   22.0438 N   0  0  0  0  0  0
  -25.4188  -15.1921   20.4097 N   0  0  0  0  0  0
  -31.8339  -14.7849   20.1698 O   0  0  0  0  0  0
  -21.6651   -6.8848   21.4222 O   0  0  0  0  0  0
  -22.3503  -14.5505   20.6699 O   0  0  0  0  0  0
  -24.6310  -31.8552   23.1989 C   0  0  0  0  0  0
  -25.9137  -32.4754   23.8342 C   0  0  1  0  0  0
  -27.2176  -27.2607   20.1368 C   0  0  0  0  0  0
  -25.5927  -33.8559   24.2252 N   0  0  0  0  0  0
  -23.4285  -30.4775   21.5410 C   0  0  2  0  0  0
  -24.8762  -28.9206   20.1144 C   0  0  0  0  0  0
  -22.7497  -29.4610   22.4910 C   0  0  0  0  0  0
  -18.0291  -28.1392   22.8491 C   0  0  0  0  0  0
  -24.1481  -36.7281   23.2647 C   0  0  0  0  0  0
  -25.9755  -30.7652   21.3822 C   0  0  0  0  0  0
  -26.0478  -29.3889   20.7234 C   0  0  0  0  0  0
  -27.2245  -28.5723   20.7225 C   0  0  0  0  0  0
  -26.0269  -26.8588   19.4974 C   0  0  0  0  0  0
  -24.8699  -27.6632   19.4905 C   0  0  0  0  0  0
  -23.6477  -29.8095   20.1585 C   0  0  0  0  0  0
  -25.4114  -36.3073   24.0329 C   0  0  1  0  0  0
  -20.5894  -28.3710   23.1270 C   0  0  2  0  0  0
  -20.6783  -26.9424   22.5412 C   0  0  0  0  0  0
  -19.5749  -26.6383   21.5227 C   0  0  0  0  0  0
  -18.1933  -26.7929   22.1637 C   0  0  0  0  0  0
  -19.1547  -28.8867   23.2876 C   0  0  0  0  0  0
  -18.9466  -30.1470   23.8892 C   0  0  0  0  0  0
  -17.6466  -30.6596   24.0564 C   0  0  0  0  0  0
  -25.9054  -34.9444   23.5097 C   0  0  0  0  0  0
  -16.5355  -29.9089   23.6341 C   0  0  0  0  0  0
  -16.7280  -28.6503   23.0368 C   0  0  0  0  0  0
  -26.4490  -31.6602   25.0751 C   0  0  0  0  0  0
  -25.3696  -31.3780   26.1460 C   0  0  0  0  0  0
  -27.0364  -30.3012   24.6297 C   0  0  0  0  0  0
  -27.6032  -32.4361   25.7521 C   0  0  0  0  0  0
  -27.5575  -37.1798   24.8462 C   0  0  0  0  0  0
  -21.4203  -29.3049   22.3651 N   0  0  0  0  0  0
  -26.4285  -37.3775   23.9409 N   0  0  0  0  0  0
  -24.6974  -31.0513   22.0964 N   0  0  0  0  0  0
  -23.4193  -28.8164   23.3026 O   0  0  0  0  0  0
  -28.3056  -26.3575   20.1511 O   0  0  0  0  0  0
  -26.5633  -34.8919   22.4668 O   0  0  0  0  0  0
  -23.5460  -32.1380   23.7275 O   0  0  0  0  0  0
  -29.6089  -19.8328   21.1890 C   0  0  0  0  0  0
  -29.7356  -18.6341   20.4743 C   0  0  0  0  0  0
  -28.7415  -20.2485   19.2136 C   0  0  0  0  0  0
  -28.0652  -20.8865   18.0449 C   0  0  0  0  0  0
  -28.3963  -25.1391   22.2096 C   0  0  0  0  0  0
  -30.4779  -17.2776   20.8018 C   0  0  0  0  0  0
  -28.8157  -23.6419   20.1264 C   0  0  0  0  0  0
  -28.5033  -22.2252   20.8616 C   0  0  0  0  0  0
  -28.0828  -24.9775   20.7125 C   0  0  2  0  0  0
  -28.9979  -20.8245   20.4062 N   0  0  0  0  0  0
  -29.1858  -18.9664   19.2549 N   0  3  0  0  0  0
  -29.9016  -15.8786   20.6343 N   0  0  0  0  0  0
  -31.4679  -12.5565   19.1518 H   0  0  0  0  0  0
  -30.3673  -11.4657   19.9493 H   0  0  0  0  0  0
  -29.7782  -11.7169   17.5129 H   0  0  0  0  0  0
  -29.6460  -13.4479   17.7074 H   0  0  0  0  0  0
  -27.8666  -11.2890   18.8852 H   0  0  0  0  0  0
  -27.3739  -12.5505   17.7879 H   0  0  0  0  0  0
  -27.6329  -14.2557   19.4721 H   0  0  0  0  0  0
  -28.7244  -12.1653   21.4171 H   0  0  0  0  0  0
  -28.4364  -13.8492   21.7874 H   0  0  0  0  0  0
  -25.2735   -9.5730   22.4727 H   0  0  0  0  0  0
  -24.0006   -7.4652   22.7460 H   0  0  0  0  0  0
  -21.0812   -8.8736   19.8949 H   0  0  0  0  0  0
  -22.3625  -10.9655   19.6146 H   0  0  0  0  0  0
  -21.2020   -7.6138   23.9694 H   0  0  0  0  0  0
  -21.1476   -6.0517   25.9067 H   0  0  0  0  0  0
  -22.0603   -2.7590   23.2853 H   0  0  0  0  0  0
  -22.4081  -11.9885   22.4868 H   0  0  0  0  0  0
  -21.1081  -13.1212   22.2597 H   0  0  0  0  0  0
  -24.6521  -15.8453   20.5314 H   0  0  0  0  0  0
  -26.2571  -15.6339   20.0563 H   0  0  0  0  0  0
  -26.7202  -32.5390   23.1083 H   0  0  0  0  0  0
  -25.0034  -33.9698   25.0369 H   0  0  0  0  0  0
  -22.7255  -31.2997   21.3935 H   0  0  0  0  0  0
  -23.3748  -35.9606   23.3303 H   0  0  0  0  0  0
  -24.3567  -36.8912   22.2062 H   0  0  0  0  0  0
  -23.7224  -37.6477   23.6672 H   0  0  0  0  0  0
  -26.1226  -31.5280   20.6164 H   0  0  0  0  0  0
  -26.8493  -30.8073   22.0220 H   0  0  0  0  0  0
  -28.1219  -28.9242   21.2112 H   0  0  0  0  0  0
  -25.9781  -25.8957   19.0084 H   0  0  0  0  0  0
  -23.9739  -27.3001   19.0073 H   0  0  0  0  0  0
  -23.7706  -30.5839   19.3998 H   0  0  0  0  0  0
  -22.7659  -29.2417   19.8556 H   0  0  0  0  0  0
  -25.1297  -36.1923   25.0822 H   0  0  0  0  0  0
  -20.9991  -28.3296   24.1391 H   0  0  0  0  0  0
  -20.5702  -26.2324   23.3627 H   0  0  0  0  0  0
  -21.6650  -26.7454   22.1194 H   0  0  0  0  0  0
  -19.6914  -25.6290   21.1275 H   0  0  0  0  0  0
  -19.6692  -27.3179   20.6750 H   0  0  0  0  0  0
  -17.4207  -26.6690   21.4036 H   0  0  0  0  0  0
  -18.0320  -26.0075   22.9037 H   0  0  0  0  0  0
  -19.7950  -30.7293   24.2247 H   0  0  0  0  0  0
  -17.5026  -31.6277   24.5164 H   0  0  0  0  0  0
  -15.5357  -30.2993   23.7677 H   0  0  0  0  0  0
  -15.8677  -28.0824   22.7094 H   0  0  0  0  0  0
  -24.5820  -30.7197   25.7772 H   0  0  0  0  0  0
  -24.8949  -32.2970   26.4908 H   0  0  0  0  0  0
  -25.7977  -30.8910   27.0228 H   0  0  0  0  0  0
  -26.2990  -29.6743   24.1263 H   0  0  0  0  0  0
  -27.3953  -29.7306   25.4875 H   0  0  0  0  0  0
  -27.8899  -30.4278   23.9631 H   0  0  0  0  0  0
  -27.2611  -33.3643   26.2109 H   0  0  0  0  0  0
  -28.3822  -32.6957   25.0342 H   0  0  0  0  0  0
  -28.0717  -31.8491   26.5429 H   0  0  0  0  0  0
  -28.2590  -38.0097   24.7508 H   0  0  0  0  0  0
  -28.1070  -36.2629   24.6277 H   0  0  0  0  0  0
  -27.2295  -37.1432   25.8865 H   0  0  0  0  0  0
  -20.9395  -29.8752   21.6831 H   0  0  0  0  0  0
  -26.0165  -38.2850   24.1405 H   0  0  0  0  0  0
  -29.9142  -20.0457   22.2057 H   0  0  0  0  0  0
  -28.7530  -21.6005   17.5932 H   0  0  0  0  0  0
  -27.1637  -21.3925   18.3887 H   0  0  0  0  0  0
  -27.7996  -20.1167   17.3201 H   0  0  0  0  0  0
  -28.0939  -24.2667   22.7869 H   0  0  0  0  0  0
  -27.8691  -25.9929   22.6362 H   0  0  0  0  0  0
  -29.4617  -25.2968   22.3729 H   0  0  0  0  0  0
  -30.7855  -17.3354   21.8464 H   0  0  0  0  0  0
  -31.4141  -17.3151   20.2448 H   0  0  0  0  0  0
  -28.5490  -23.5544   19.0739 H   0  0  0  0  0  0
  -29.8939  -23.8026   20.1395 H   0  0  0  0  0  0
  -27.4199  -22.1282   20.9310 H   0  0  0  0  0  0
  -28.8362  -22.3163   21.8952 H   0  0  0  0  0  0
  -27.0182  -24.7538   20.6524 H   0  0  0  0  0  0
  -29.1389  -18.3320   18.4654 H   0  0  0  0  0  0
  -28.9100  -15.7799   20.7818 H   0  0  0  0  0  0
  1 25  1  0  0  0
  1 30  2  0  0  0
  1 82  1  0  0  0
  2  3  1  0  0  0
  2 25  1  0  0  0
  2 83  1  0  0  0
  2 84  1  0  0  0
  3  4  1  0  0  0
  3 85  1  0  0  0
  3 86  1  0  0  0
  4  5  1  0  0  0
  4 87  1  0  0  0
  4 88  1  0  0  0
  5  6  1  0  0  0
  5 26  1  0  0  0
  5 89  1  0  0  0
  6 25  1  0  0  0
  6 90  1  0  0  0
  6 91  1  0  0  0
  7  8  2  0  0  0
  7 26  1  0  0  0
  7 29  1  0  0  0
  8  9  1  0  0  0
  8 22  1  0  0  0
  9 10  1  0  0  0
  9 27  2  0  0  0
 10 11  2  0  0  0
 10 15  1  0  0  0
 11 12  1  0  0  0
 11 92  1  0  0  0
 12 13  2  0  0  0
 12 93  1  0  0  0
 13 14  1  0  0  0
 13 31  1  0  0  0
 14 15  2  0  0  0
 14 94  1  0  0  0
 15 95  1  0  0  0
 16 17  2  0  0  0
 16 21  1  0  0  0
 16 31  1  0  0  0
 17 18  1  0  0  0
 17 96  1  0  0  0
 18 19  2  0  0  0
 18 97  1  0  0  0
 19 20  1  0  0  0
 19 24  1  0  0  0
 20 21  2  0  0  0
 20 98  1  0  0  0
 21 23  1  0  0  0
 22 28  1  0  0  0
 22 32  2  0  0  0
 26 27  1  0  0  0
 28 99  1  0  0  0
 28100  1  0  0  0
 29101  1  0  0  0
 29102  1  0  0  0
 33 34  1  0  0  0
 33 66  1  0  0  0
 33 70  2  0  0  0
 34 36  1  0  0  0
 34 59  1  0  0  0
 34103  1  0  0  0
 35 44  2  0  0  0
 35 45  1  0  0  0
 35 68  1  0  0  0
 36 56  1  0  0  0
 36104  1  0  0  0
 37 39  1  0  0  0
 37 47  1  0  0  0
 37 66  1  0  0  0
 37105  1  0  0  0
 38 43  2  0  0  0
 38 46  1  0  0  0
 38 47  1  0  0  0
 39 64  1  0  0  0
 39 67  2  0  0  0
 40 52  1  0  0  0
 40 53  2  0  0  0
 40 58  1  0  0  0
 41106  1  0  0  0
 41107  1  0  0  0
 41108  1  0  0  0
 41 48  1  0  0  0
 42 43  1  0  0  0
 42 66  1  0  0  0
 42109  1  0  0  0
 42110  1  0  0  0
 43 44  1  0  0  0
 44111  1  0  0  0
 45 46  2  0  0  0
 45112  1  0  0  0
 46113  1  0  0  0
 47114  1  0  0  0
 47115  1  0  0  0
 48 56  1  0  0  0
 48 65  1  0  0  0
 48116  1  0  0  0
 49 50  1  0  0  0
 49 53  1  0  0  0
 49 64  1  0  0  0
 49117  1  0  0  0
 50 51  1  0  0  0
 50118  1  0  0  0
 50119  1  0  0  0
 51 52  1  0  0  0
 51120  1  0  0  0
 51121  1  0  0  0
 52122  1  0  0  0
 52123  1  0  0  0
 53 54  1  0  0  0
 54 55  2  0  0  0
 54124  1  0  0  0
 55 57  1  0  0  0
 55125  1  0  0  0
 56 69  2  0  0  0
 57 58  2  0  0  0
 57126  1  0  0  0
 58127  1  0  0  0
 59 60  1  0  0  0
 59 61  1  0  0  0
 59 62  1  0  0  0
 60128  1  0  0  0
 60129  1  0  0  0
 60130  1  0  0  0
 61131  1  0  0  0
 61132  1  0  0  0
 61133  1  0  0  0
 62134  1  0  0  0
 62135  1  0  0  0
 62136  1  0  0  0
 63 65  1  0  0  0
 63137  1  0  0  0
 63138  1  0  0  0
 63139  1  0  0  0
 64140  1  0  0  0
 65141  1  0  0  0
 68 79  1  0  0  0
 71 72  2  0  0  0
 71 80  1  0  0  0
 71142  1  0  0  0
 72 76  1  0  0  0
 72 81  1  0  0  0
 73 74  1  0  0  0
 73 80  1  0  0  0
 73 81  2  0  0  0
 74143  1  0  0  0
 74144  1  0  0  0
 74145  1  0  0  0
 75146  1  0  0  0
 75147  1  0  0  0
 75148  1  0  0  0
 75 79  1  0  0  0
 76 82  1  0  0  0
 76149  1  0  0  0
 76150  1  0  0  0
 77 78  1  0  0  0
 77 79  1  0  0  0
 77151  1  0  0  0
 77152  1  0  0  0
 78 80  1  0  0  0
 78153  1  0  0  0
 78154  1  0  0  0
 79155  1  0  0  0
 81156  1  0  0  0
 82157  1  0  0  0
M  CHG  1  81   1
M  ISO  4   1 100  68 101  79 101  82 100
M  END
> <chiral flag>
0

> <version>
0

> <s_m_source_file>
/data/baiqing/PycharmProjects/Reinvent-master-3.2/result/LINK_invent/BTK/process_docking_weight1_custom_sum_contain_oxygen_bond_distance_aromatic_linkinvent_7_9_3/rearranged_h_0090.sdf

> <i_m_source_file_index>
85

> <r_mmod_Potential_Energy-OPLS-2005>
-8.95675945281982

> <r_mmod_Stretch_Energy-OPLS-2005>
118.016525268555

> <r_mmod_Bend_Energy-OPLS-2005>
174.654556274414

> <r_mmod_Torsional_Energy-OPLS-2005>
235.874465942383

> <r_mmod_Improper_Torsional_Energy-OPLS-2005>
6.10603046417236

> <r_mmod_Van_der_Waal_Energy-OPLS-2005>
114.202476501465

> <r_mmod_Electrostatic_Energy-OPLS-2005>
-307.869293212891

> <r_mmod_Solvation_Energy-OPLS-2005>
-430.995361328125

> <b_mmod_Minimization_Converged-OPLS-2005>
0

> <r_mmod_RMS_Derivative-OPLS-2005>
1.91204249858856

$$$$
86
                    3D
 Structure written by MMmdl.
175183  0  0  1  0            999 V2000
  -30.6878  -14.4848   20.5450 C   0  0  0  0  0  0
  -30.4243  -12.3038   19.4381 C   0  0  0  0  0  0
  -29.5017  -12.4774   18.2112 C   0  0  0  0  0  0
  -28.0220  -12.3425   18.6205 C   0  0  0  0  0  0
  -27.6569  -13.2052   19.8589 C   0  0  2  0  0  0
  -28.6927  -13.0126   20.9889 C   0  0  0  0  0  0
  -25.2588  -13.8152   20.5631 C   0  0  0  0  0  0
  -24.1835  -13.0423   20.9157 C   0  0  0  0  0  0
  -24.6376  -11.6897   20.8684 C   0  0  0  0  0  0
  -23.9034  -10.4288   21.0363 C   0  0  0  0  0  0
  -24.3591   -9.4213   21.9155 C   0  0  0  0  0  0
  -23.6271   -8.2260   22.0747 C   0  0  0  0  0  0
  -22.4262   -8.0280   21.3545 C   0  0  0  0  0  0
  -21.9889   -9.0234   20.4647 C   0  0  0  0  0  0
  -22.7195  -10.2114   20.3029 C   0  0  0  0  0  0
  -21.6856   -6.0727   22.5283 C   0  0  0  0  0  0
  -21.3995   -6.5632   23.8207 C   0  0  0  0  0  0
  -21.3659   -5.6782   24.9179 C   0  0  0  0  0  0
  -21.6047   -4.3051   24.7217 C   0  0  0  0  0  0
  -21.8825   -3.8140   23.4351 C   0  0  0  0  0  0
  -21.9185   -4.6960   22.3397 C   0  0  0  0  0  0
  -22.7877  -13.5255   21.1825 C   0  0  0  0  0  0
  -22.1662   -4.2150   21.0976 F   0  0  0  0  0  0
  -21.5635   -3.4531   25.7735 F   0  0  0  0  0  0
  -30.0215  -13.3067   20.4368 N   0  0  0  0  0  0
  -26.2995  -12.9314   20.3287 N   0  0  0  0  0  0
  -25.9298  -11.6468   20.5691 N   0  0  0  0  0  0
  -22.0502  -12.8254   22.0382 N   0  0  0  0  0  0
  -25.4366  -15.1860   20.4122 N   0  0  0  0  0  0
  -31.8442  -14.6288   20.1320 O   0  0  0  0  0  0
  -21.6628   -6.8880   21.4258 O   0  0  0  0  0  0
  -22.3576  -14.5558   20.6697 O   0  0  0  0  0  0
  -24.6120  -31.8705   23.2109 C   0  0  0  0  0  0
  -25.8995  -32.4873   23.8421 C   0  0  1  0  0  0
  -27.2488  -27.4593   20.1150 C   0  0  0  0  0  0
  -25.5920  -33.8661   24.2382 N   0  0  0  0  0  0
  -23.4083  -30.4931   21.5438 C   0  0  2  0  0  0
  -24.8564  -28.9558   20.1237 C   0  0  0  0  0  0
  -22.7414  -29.4711   22.4935 C   0  0  0  0  0  0
  -18.0337  -28.1343   22.8501 C   0  0  0  0  0  0
  -24.1487  -36.7200   23.2576 C   0  0  0  0  0  0
  -25.9362  -30.8376   21.3711 C   0  0  0  0  0  0
  -26.0095  -29.4741   20.7240 C   0  0  0  0  0  0
  -27.2111  -28.7310   20.7165 C   0  0  0  0  0  0
  -26.0834  -26.9447   19.5076 C   0  0  0  0  0  0
  -24.8865  -27.6867   19.5150 C   0  0  0  0  0  0
  -23.6176  -29.8171   20.1645 C   0  0  0  0  0  0
  -25.4113  -36.3099   24.0328 C   0  0  1  0  0  0
  -20.5936  -28.3747   23.1345 C   0  0  2  0  0  0
  -20.6839  -26.9450   22.5532 C   0  0  0  0  0  0
  -19.5838  -26.6268   21.5332 C   0  0  0  0  0  0
  -18.1978  -26.7874   22.1643 C   0  0  0  0  0  0
  -19.1582  -28.8827   23.2920 C   0  0  0  0  0  0
  -18.9497  -30.1429   23.8922 C   0  0  0  0  0  0
  -17.6498  -30.6620   24.0493 C   0  0  0  0  0  0
  -25.9033  -34.9466   23.5118 C   0  0  0  0  0  0
  -16.5403  -29.9127   23.6245 C   0  0  0  0  0  0
  -16.7329  -28.6510   23.0345 C   0  0  0  0  0  0
  -26.4337  -31.6623   25.0750 C   0  0  0  0  0  0
  -25.3569  -31.3737   26.1473 C   0  0  0  0  0  0
  -27.0106  -30.3079   24.6071 C   0  0  0  0  0  0
  -27.5905  -32.4272   25.7603 C   0  0  0  0  0  0
  -27.5571  -37.1869   24.8456 C   0  0  0  0  0  0
  -21.4106  -29.3181   22.3690 N   0  0  0  0  0  0
  -26.4265  -37.3828   23.9412 N   0  0  0  0  0  0
  -24.6693  -31.0833   22.0992 N   0  0  0  0  0  0
  -23.4166  -28.8196   23.2932 O   0  0  0  0  0  0
  -28.4288  -26.7636   20.0169 O   0  0  0  0  0  0
  -26.5541  -34.8897   22.4617 O   0  0  0  0  0  0
  -23.5314  -32.1363   23.7556 O   0  0  0  0  0  0
  -28.0877  -20.0280   22.2881 C   0  0  0  0  0  0
  -29.4776  -20.1376   22.2024 C   0  0  0  0  0  0
  -27.4908  -18.8699   21.7773 C   0  0  0  0  0  0
  -29.5604  -18.0322   21.2605 C   0  0  0  0  0  0
  -22.5683  -22.0705   22.8803 C   0  0  0  0  0  0
  -24.7438  -23.1995   22.6326 C   0  0  0  0  0  0
  -30.2064  -21.4008   22.6742 C   0  0  0  0  0  0
  -25.9752  -18.7273   21.7188 C   0  0  0  0  0  0
  -30.4088  -16.9266   20.6335 C   0  0  0  0  0  0
  -29.4777  -22.7562   22.4084 C   0  0  0  0  0  0
  -25.2265  -20.0531   21.4534 C   0  0  0  0  0  0
  -29.9644  -23.5435   21.1760 C   0  0  0  0  0  0
  -28.8997  -24.4764   20.5425 C   0  0  0  0  0  0
  -24.6315  -20.7207   22.7071 C   0  0  0  0  0  0
  -28.7593  -25.9042   21.1091 C   0  0  0  0  0  0
  -30.2076  -19.1184   21.6925 N   0  0  0  0  0  0
  -28.2390  -17.8602   21.2806 N   0  0  0  0  0  0
  -29.9638  -15.5546   20.9059 N   0  0  0  0  0  0
  -23.9427  -21.9866   22.3413 N   0  3  0  0  0  0
  -31.4711  -12.4007   19.1354 H   0  0  0  0  0  0
  -30.3268  -11.3006   19.8551 H   0  0  0  0  0  0
  -29.7491  -11.7291   17.4553 H   0  0  0  0  0  0
  -29.6760  -13.4512   17.7465 H   0  0  0  0  0  0
  -27.8451  -11.2913   18.8456 H   0  0  0  0  0  0
  -27.3724  -12.5886   17.7802 H   0  0  0  0  0  0
  -27.6942  -14.2474   19.5359 H   0  0  0  0  0  0
  -28.6664  -11.9866   21.3541 H   0  0  0  0  0  0
  -28.4563  -13.6436   21.8467 H   0  0  0  0  0  0
  -25.2743   -9.5707   22.4708 H   0  0  0  0  0  0
  -23.9984   -7.4663   22.7470 H   0  0  0  0  0  0
  -21.0822   -8.8736   19.8961 H   0  0  0  0  0  0
  -22.3641  -10.9642   19.6122 H   0  0  0  0  0  0
  -21.1975   -7.6134   23.9729 H   0  0  0  0  0  0
  -21.1480   -6.0501   25.9083 H   0  0  0  0  0  0
  -22.0600   -2.7610   23.2836 H   0  0  0  0  0  0
  -22.4087  -11.9894   22.4769 H   0  0  0  0  0  0
  -21.1119  -13.1331   22.2542 H   0  0  0  0  0  0
  -24.6776  -15.8456   20.5300 H   0  0  0  0  0  0
  -26.3107  -15.6326   20.1615 H   0  0  0  0  0  0
  -26.7079  -32.5650   23.1207 H   0  0  0  0  0  0
  -25.0508  -33.9889   25.0831 H   0  0  0  0  0  0
  -22.7057  -31.3159   21.3937 H   0  0  0  0  0  0
  -23.3795  -35.9480   23.3267 H   0  0  0  0  0  0
  -24.3618  -36.8747   22.1986 H   0  0  0  0  0  0
  -23.7094  -37.6375   23.6504 H   0  0  0  0  0  0
  -26.8182  -30.8785   22.0011 H   0  0  0  0  0  0
  -26.0732  -31.6033   20.6023 H   0  0  0  0  0  0
  -28.1125  -29.1404   21.1450 H   0  0  0  0  0  0
  -26.1074  -25.9818   19.0193 H   0  0  0  0  0  0
  -24.0050  -27.2808   19.0364 H   0  0  0  0  0  0
  -23.7282  -30.5811   19.3953 H   0  0  0  0  0  0
  -22.7449  -29.2252   19.8781 H   0  0  0  0  0  0
  -25.1284  -36.2032   25.0830 H   0  0  0  0  0  0
  -21.0137  -28.3410   24.1419 H   0  0  0  0  0  0
  -20.5574  -26.2386   23.3739 H   0  0  0  0  0  0
  -21.6754  -26.7414   22.1443 H   0  0  0  0  0  0
  -19.7138  -25.6147   21.1463 H   0  0  0  0  0  0
  -19.6760  -27.2984   20.6824 H   0  0  0  0  0  0
  -17.4194  -26.6490   21.4090 H   0  0  0  0  0  0
  -18.0411  -26.0078   22.9090 H   0  0  0  0  0  0
  -19.7987  -30.7246   24.2217 H   0  0  0  0  0  0
  -17.5074  -31.6283   24.5107 H   0  0  0  0  0  0
  -15.5409  -30.3024   23.7576 H   0  0  0  0  0  0
  -15.8691  -28.0857   22.7125 H   0  0  0  0  0  0
  -24.5971  -30.6762   25.7957 H   0  0  0  0  0  0
  -24.8332  -32.2761   26.4598 H   0  0  0  0  0  0
  -25.7967  -30.9465   27.0489 H   0  0  0  0  0  0
  -26.2868  -29.7173   24.0481 H   0  0  0  0  0  0
  -27.2893  -29.6872   25.4584 H   0  0  0  0  0  0
  -27.8877  -30.4422   23.9701 H   0  0  0  0  0  0
  -27.2577  -33.3582   26.2229 H   0  0  0  0  0  0
  -28.3841  -32.6746   25.0528 H   0  0  0  0  0  0
  -28.0380  -31.8280   26.5548 H   0  0  0  0  0  0
  -28.2652  -38.0145   24.7523 H   0  0  0  0  0  0
  -28.1006  -36.2690   24.6197 H   0  0  0  0  0  0
  -27.2337  -37.1454   25.8884 H   0  0  0  0  0  0
  -20.9174  -29.8933   21.6986 H   0  0  0  0  0  0
  -26.0110  -38.2873   24.1445 H   0  0  0  0  0  0
  -27.4894  -20.8250   22.7001 H   0  0  0  0  0  0
  -22.0253  -22.9224   22.4605 H   0  0  0  0  0  0
  -22.5678  -22.1365   23.9680 H   0  0  0  0  0  0
  -22.0149  -21.1762   22.6132 H   0  0  0  0  0  0
  -24.2525  -24.0959   22.2501 H   0  0  0  0  0  0
  -25.7228  -23.1397   22.1506 H   0  0  0  0  0  0
  -24.9109  -23.3114   23.7046 H   0  0  0  0  0  0
  -31.2029  -21.4377   22.2408 H   0  0  0  0  0  0
  -30.3789  -21.2863   23.7461 H   0  0  0  0  0  0
  -25.7311  -18.0400   20.9091 H   0  0  0  0  0  0
  -25.6169  -18.2501   22.6284 H   0  0  0  0  0  0
  -30.3823  -17.0790   19.5533 H   0  0  0  0  0  0
  -31.4543  -17.0475   20.9283 H   0  0  0  0  0  0
  -29.6593  -23.3935   23.2726 H   0  0  0  0  0  0
  -28.3984  -22.6451   22.3643 H   0  0  0  0  0  0
  -24.3938  -19.8271   20.7880 H   0  0  0  0  0  0
  -25.8555  -20.7599   20.9045 H   0  0  0  0  0  0
  -30.8839  -24.0820   21.4173 H   0  0  0  0  0  0
  -30.2589  -22.8182   20.4153 H   0  0  0  0  0  0
  -27.9182  -23.9993   20.5354 H   0  0  0  0  0  0
  -29.1756  -24.5660   19.4942 H   0  0  0  0  0  0
  -25.3896  -20.8960   23.4688 H   0  0  0  0  0  0
  -23.9372  -20.0312   23.1864 H   0  0  0  0  0  0
  -29.7095  -26.2481   21.5125 H   0  0  0  0  0  0
  -28.0398  -25.9501   21.9305 H   0  0  0  0  0  0
  -28.9926  -15.4521   21.1614 H   0  0  0  0  0  0
  -23.8360  -21.9589   21.3376 H   0  0  0  0  0  0
  1 25  1  0  0  0
  1 30  2  0  0  0
  1 88  1  0  0  0
  2  3  1  0  0  0
  2 25  1  0  0  0
  2 90  1  0  0  0
  2 91  1  0  0  0
  3  4  1  0  0  0
  3 92  1  0  0  0
  3 93  1  0  0  0
  4  5  1  0  0  0
  4 94  1  0  0  0
  4 95  1  0  0  0
  5  6  1  0  0  0
  5 26  1  0  0  0
  5 96  1  0  0  0
  6 25  1  0  0  0
  6 97  1  0  0  0
  6 98  1  0  0  0
  7  8  2  0  0  0
  7 26  1  0  0  0
  7 29  1  0  0  0
  8  9  1  0  0  0
  8 22  1  0  0  0
  9 10  1  0  0  0
  9 27  2  0  0  0
 10 11  2  0  0  0
 10 15  1  0  0  0
 11 12  1  0  0  0
 11 99  1  0  0  0
 12 13  2  0  0  0
 12100  1  0  0  0
 13 14  1  0  0  0
 13 31  1  0  0  0
 14 15  2  0  0  0
 14101  1  0  0  0
 15102  1  0  0  0
 16 17  2  0  0  0
 16 21  1  0  0  0
 16 31  1  0  0  0
 17 18  1  0  0  0
 17103  1  0  0  0
 18 19  2  0  0  0
 18104  1  0  0  0
 19 20  1  0  0  0
 19 24  1  0  0  0
 20 21  2  0  0  0
 20105  1  0  0  0
 21 23  1  0  0  0
 22 28  1  0  0  0
 22 32  2  0  0  0
 26 27  1  0  0  0
 28106  1  0  0  0
 28107  1  0  0  0
 29108  1  0  0  0
 29109  1  0  0  0
 33 34  1  0  0  0
 33 66  1  0  0  0
 33 70  2  0  0  0
 34 36  1  0  0  0
 34 59  1  0  0  0
 34110  1  0  0  0
 35 44  2  0  0  0
 35 45  1  0  0  0
 35 68  1  0  0  0
 36 56  1  0  0  0
 36111  1  0  0  0
 37 39  1  0  0  0
 37 47  1  0  0  0
 37 66  1  0  0  0
 37112  1  0  0  0
 38 43  2  0  0  0
 38 46  1  0  0  0
 38 47  1  0  0  0
 39 64  1  0  0  0
 39 67  2  0  0  0
 40 52  1  0  0  0
 40 53  2  0  0  0
 40 58  1  0  0  0
 41113  1  0  0  0
 41114  1  0  0  0
 41115  1  0  0  0
 41 48  1  0  0  0
 42 43  1  0  0  0
 42 66  1  0  0  0
 42116  1  0  0  0
 42117  1  0  0  0
 43 44  1  0  0  0
 44118  1  0  0  0
 45 46  2  0  0  0
 45119  1  0  0  0
 46120  1  0  0  0
 47121  1  0  0  0
 47122  1  0  0  0
 48 56  1  0  0  0
 48 65  1  0  0  0
 48123  1  0  0  0
 49 50  1  0  0  0
 49 53  1  0  0  0
 49 64  1  0  0  0
 49124  1  0  0  0
 50 51  1  0  0  0
 50125  1  0  0  0
 50126  1  0  0  0
 51 52  1  0  0  0
 51127  1  0  0  0
 51128  1  0  0  0
 52129  1  0  0  0
 52130  1  0  0  0
 53 54  1  0  0  0
 54 55  2  0  0  0
 54131  1  0  0  0
 55 57  1  0  0  0
 55132  1  0  0  0
 56 69  2  0  0  0
 57 58  2  0  0  0
 57133  1  0  0  0
 58134  1  0  0  0
 59 60  1  0  0  0
 59 61  1  0  0  0
 59 62  1  0  0  0
 60135  1  0  0  0
 60136  1  0  0  0
 60137  1  0  0  0
 61138  1  0  0  0
 61139  1  0  0  0
 61140  1  0  0  0
 62141  1  0  0  0
 62142  1  0  0  0
 62143  1  0  0  0
 63 65  1  0  0  0
 63144  1  0  0  0
 63145  1  0  0  0
 63146  1  0  0  0
 64147  1  0  0  0
 65148  1  0  0  0
 68 85  1  0  0  0
 71 72  2  0  0  0
 71 73  1  0  0  0
 71149  1  0  0  0
 72 77  1  0  0  0
 72 86  1  0  0  0
 73 78  1  0  0  0
 73 87  2  0  0  0
 74 79  1  0  0  0
 74 86  2  0  0  0
 74 87  1  0  0  0
 75150  1  0  0  0
 75151  1  0  0  0
 75152  1  0  0  0
 75 89  1  0  0  0
 76 89  1  0  0  0
 76153  1  0  0  0
 76154  1  0  0  0
 76155  1  0  0  0
 77 80  1  0  0  0
 77156  1  0  0  0
 77157  1  0  0  0
 78 81  1  0  0  0
 78158  1  0  0  0
 78159  1  0  0  0
 79 88  1  0  0  0
 79160  1  0  0  0
 79161  1  0  0  0
 80 82  1  0  0  0
 80162  1  0  0  0
 80163  1  0  0  0
 81 84  1  0  0  0
 81164  1  0  0  0
 81165  1  0  0  0
 82 83  1  0  0  0
 82166  1  0  0  0
 82167  1  0  0  0
 83 85  1  0  0  0
 83168  1  0  0  0
 83169  1  0  0  0
 84 89  1  0  0  0
 84170  1  0  0  0
 84171  1  0  0  0
 85172  1  0  0  0
 85173  1  0  0  0
 88174  1  0  0  0
 89175  1  0  0  0
M  CHG  1  89   1
M  ISO  4   1 100  68 101  85 101  88 100
M  END
> <chiral flag>
0

> <version>
0

> <s_m_source_file>
/data/baiqing/PycharmProjects/Reinvent-master-3.2/result/LINK_invent/BTK/process_docking_weight1_custom_sum_contain_oxygen_bond_distance_aromatic_linkinvent_7_9_3/rearranged_h_0090.sdf

> <i_m_source_file_index>
86

> <r_mmod_Potential_Energy-OPLS-2005>
-729.960510253906

> <r_mmod_Stretch_Energy-OPLS-2005>
35.3404769897461

> <r_mmod_Bend_Energy-OPLS-2005>
108.354629516602

> <r_mmod_Torsional_Energy-OPLS-2005>
271.521087646484

> <r_mmod_Improper_Torsional_Energy-OPLS-2005>
5.99735403060913

> <r_mmod_Van_der_Waal_Energy-OPLS-2005>
154.897644042969

> <r_mmod_Electrostatic_Energy-OPLS-2005>
-839.954772949219

> <r_mmod_Solvation_Energy-OPLS-2005>
-480.168151855469

> <b_mmod_Minimization_Converged-OPLS-2005>
0

> <r_mmod_RMS_Derivative-OPLS-2005>
8.80596351623535

$$$$
87
                    3D
 Structure written by MMmdl.
180188  0  0  1  0            999 V2000
  -30.7293  -14.3857   20.6543 C   0  0  0  0  0  0
  -30.4295  -12.2932   19.3890 C   0  0  0  0  0  0
  -29.4855  -12.5192   18.1922 C   0  0  0  0  0  0
  -28.0059  -12.3895   18.6045 C   0  0  0  0  0  0
  -27.6688  -13.1970   19.8852 C   0  0  2  0  0  0
  -28.7111  -12.9158   20.9912 C   0  0  0  0  0  0
  -25.2648  -13.8173   20.5685 C   0  0  0  0  0  0
  -24.1886  -13.0457   20.9207 C   0  0  0  0  0  0
  -24.6395  -11.6915   20.8768 C   0  0  0  0  0  0
  -23.9037  -10.4311   21.0427 C   0  0  0  0  0  0
  -24.3604   -9.4213   21.9190 C   0  0  0  0  0  0
  -23.6292   -8.2232   22.0718 C   0  0  0  0  0  0
  -22.4274   -8.0279   21.3523 C   0  0  0  0  0  0
  -21.9922   -9.0268   20.4618 C   0  0  0  0  0  0
  -22.7228  -10.2156   20.3050 C   0  0  0  0  0  0
  -21.6841   -6.0737   22.5271 C   0  0  0  0  0  0
  -21.3997   -6.5637   23.8203 C   0  0  0  0  0  0
  -21.3665   -5.6794   24.9166 C   0  0  0  0  0  0
  -21.6056   -4.3062   24.7210 C   0  0  0  0  0  0
  -21.8829   -3.8147   23.4335 C   0  0  0  0  0  0
  -21.9194   -4.6967   22.3397 C   0  0  0  0  0  0
  -22.7903  -13.5280   21.1887 C   0  0  0  0  0  0
  -22.1648   -4.2150   21.0970 F   0  0  0  0  0  0
  -21.5644   -3.4543   25.7716 F   0  0  0  0  0  0
  -30.0527  -13.2262   20.4584 N   0  0  0  0  0  0
  -26.3056  -12.9276   20.3421 N   0  0  0  0  0  0
  -25.9309  -11.6445   20.5795 N   0  0  0  0  0  0
  -22.0521  -12.8285   22.0422 N   0  0  0  0  0  0
  -25.4511  -15.1827   20.3972 N   0  0  0  0  0  0
  -31.7733  -14.6801   20.0610 O   0  0  0  0  0  0
  -21.6630   -6.8893   21.4222 O   0  0  0  0  0  0
  -22.3560  -14.5557   20.6703 O   0  0  0  0  0  0
  -24.6113  -31.8738   23.2143 C   0  0  0  0  0  0
  -25.9038  -32.4853   23.8398 C   0  0  1  0  0  0
  -27.2087  -27.4704   20.0940 C   0  0  0  0  0  0
  -25.5978  -33.8651   24.2373 N   0  0  0  0  0  0
  -23.3930  -30.5010   21.5544 C   0  0  2  0  0  0
  -24.8330  -28.9855   20.0969 C   0  0  0  0  0  0
  -22.7371  -29.4731   22.5026 C   0  0  0  0  0  0
  -18.0256  -28.1376   22.8495 C   0  0  0  0  0  0
  -24.1514  -36.7325   23.2633 C   0  0  0  0  0  0
  -25.9139  -30.8588   21.3527 C   0  0  0  0  0  0
  -25.9913  -29.4968   20.6953 C   0  0  0  0  0  0
  -27.1856  -28.7468   20.6946 C   0  0  0  0  0  0
  -26.0434  -26.9818   19.4631 C   0  0  0  0  0  0
  -24.8567  -27.7297   19.4667 C   0  0  0  0  0  0
  -23.5879  -29.8368   20.1636 C   0  0  0  0  0  0
  -25.4138  -36.3134   24.0333 C   0  0  1  0  0  0
  -20.5839  -28.3687   23.1316 C   0  0  2  0  0  0
  -20.6769  -26.9436   22.5393 C   0  0  0  0  0  0
  -19.5741  -26.6403   21.5190 C   0  0  0  0  0  0
  -18.1931  -26.7932   22.1594 C   0  0  0  0  0  0
  -19.1510  -28.8830   23.2904 C   0  0  0  0  0  0
  -18.9456  -30.1442   23.8886 C   0  0  0  0  0  0
  -17.6464  -30.6584   24.0574 C   0  0  0  0  0  0
  -25.9058  -34.9488   23.5123 C   0  0  0  0  0  0
  -16.5341  -29.9085   23.6333 C   0  0  0  0  0  0
  -16.7244  -28.6494   23.0351 C   0  0  0  0  0  0
  -26.4498  -31.6592   25.0691 C   0  0  0  0  0  0
  -25.3803  -31.3602   26.1455 C   0  0  0  0  0  0
  -27.0330  -30.3070   24.5971 C   0  0  0  0  0  0
  -27.6108  -32.4259   25.7462 C   0  0  0  0  0  0
  -27.5602  -37.1816   24.8469 C   0  0  0  0  0  0
  -21.4105  -29.3054   22.3739 N   0  0  0  0  0  0
  -26.4339  -37.3811   23.9389 N   0  0  0  0  0  0
  -24.6593  -31.0883   22.1002 N   0  0  0  0  0  0
  -23.4159  -28.8272   23.3051 O   0  0  0  0  0  0
  -28.3324  -26.6880   20.1527 O   0  0  0  0  0  0
  -26.5572  -34.8922   22.4656 O   0  0  0  0  0  0
  -23.5320  -32.1446   23.7590 O   0  0  0  0  0  0
  -26.4205  -21.7545   18.6052 C   0  0  0  0  0  0
  -28.7047  -21.3875   19.2901 C   0  0  0  0  0  0
  -27.6477  -22.2839   19.0336 C   0  0  0  0  0  0
  -26.2879  -20.3646   18.4669 C   0  0  0  0  0  0
  -28.4842  -20.0031   19.1388 C   0  0  0  0  0  0
  -24.1874  -16.3666   24.8239 C   0  0  0  0  0  0
  -27.7750  -23.7877   19.2160 C   0  0  0  0  0  0
  -24.9551  -19.7713   18.0382 C   0  0  0  0  0  0
  -23.4176  -17.0652   23.6960 C   0  0  0  0  0  0
  -28.6548  -24.2489   20.3958 C   0  0  0  0  0  0
  -23.9903  -19.4623   19.2018 C   0  0  0  0  0  0
  -24.3639  -17.7171   22.6814 C   0  0  0  0  0  0
  -24.6498  -18.7797   20.4089 C   0  0  0  0  0  0
  -23.6489  -18.2055   21.4154 C   0  0  0  0  0  0
  -29.3342  -17.5661   21.2213 C   0  0  0  0  0  0
  -30.4618  -16.6364   21.7329 C   0  0  0  0  0  0
  -28.1648  -25.5626   21.0269 C   0  0  0  0  0  0
  -29.2759  -17.7567   19.6879 C   0  0  0  0  0  0
  -27.2960  -19.5024   18.7329 N   0  0  0  0  0  0
  -30.1385  -15.2292   21.5063 N   0  0  0  0  0  0
  -29.5311  -19.1307   19.3647 O   0  0  0  0  0  0
  -31.4636  -12.4279   19.0675 H   0  0  0  0  0  0
  -30.3614  -11.2650   19.7445 H   0  0  0  0  0  0
  -29.7159  -11.8146   17.3910 H   0  0  0  0  0  0
  -29.6576  -13.5149   17.7819 H   0  0  0  0  0  0
  -27.7925  -11.3315   18.7643 H   0  0  0  0  0  0
  -27.3620  -12.7089   17.7869 H   0  0  0  0  0  0
  -27.7312  -14.2554   19.6317 H   0  0  0  0  0  0
  -28.6769  -11.8605   21.2708 H   0  0  0  0  0  0
  -28.4624  -13.4575   21.9032 H   0  0  0  0  0  0
  -25.2741   -9.5690   22.4773 H   0  0  0  0  0  0
  -24.0017   -7.4608   22.7417 H   0  0  0  0  0  0
  -21.0857   -8.8799   19.8920 H   0  0  0  0  0  0
  -22.3700  -10.9710   19.6169 H   0  0  0  0  0  0
  -21.1956   -7.6136   23.9720 H   0  0  0  0  0  0
  -21.1489   -6.0504   25.9089 H   0  0  0  0  0  0
  -22.0614   -2.7602   23.2825 H   0  0  0  0  0  0
  -22.4087  -11.9944   22.4875 H   0  0  0  0  0  0
  -21.1102  -13.1293   22.2538 H   0  0  0  0  0  0
  -24.7204  -15.8669   20.5514 H   0  0  0  0  0  0
  -26.3293  -15.5936   20.1061 H   0  0  0  0  0  0
  -26.7134  -32.5559   23.1192 H   0  0  0  0  0  0
  -25.0276  -33.9868   25.0604 H   0  0  0  0  0  0
  -22.6789  -31.3188   21.4237 H   0  0  0  0  0  0
  -23.3797  -35.9647   23.3294 H   0  0  0  0  0  0
  -24.3634  -36.8916   22.2052 H   0  0  0  0  0  0
  -23.7216  -37.6516   23.6614 H   0  0  0  0  0  0
  -26.0150  -31.6371   20.5963 H   0  0  0  0  0  0
  -26.8092  -30.9120   21.9592 H   0  0  0  0  0  0
  -28.0756  -29.1350   21.1710 H   0  0  0  0  0  0
  -26.0415  -26.0271   18.9669 H   0  0  0  0  0  0
  -23.9751  -27.3416   18.9746 H   0  0  0  0  0  0
  -23.6594  -30.6135   19.3991 H   0  0  0  0  0  0
  -22.7157  -29.2384   19.8874 H   0  0  0  0  0  0
  -25.1319  -36.2063   25.0840 H   0  0  0  0  0  0
  -20.9888  -28.3255   24.1446 H   0  0  0  0  0  0
  -20.5708  -26.2305   23.3582 H   0  0  0  0  0  0
  -21.6670  -26.7536   22.1185 H   0  0  0  0  0  0
  -19.6941  -25.6315   21.1236 H   0  0  0  0  0  0
  -19.6677  -27.3202   20.6719 H   0  0  0  0  0  0
  -17.4213  -26.6671   21.3983 H   0  0  0  0  0  0
  -18.0336  -26.0062   22.8973 H   0  0  0  0  0  0
  -19.7947  -30.7270   24.2228 H   0  0  0  0  0  0
  -17.5024  -31.6253   24.5229 H   0  0  0  0  0  0
  -15.5342  -30.2984   23.7678 H   0  0  0  0  0  0
  -15.8650  -28.0812   22.7055 H   0  0  0  0  0  0
  -24.6079  -30.6856   25.7772 H   0  0  0  0  0  0
  -24.8895  -32.2674   26.4946 H   0  0  0  0  0  0
  -25.8241  -30.8772   27.0162 H   0  0  0  0  0  0
  -26.2802  -29.6793   24.1214 H   0  0  0  0  0  0
  -27.4344  -29.7371   25.4352 H   0  0  0  0  0  0
  -27.8511  -30.4455   23.8921 H   0  0  0  0  0  0
  -27.2837  -33.3605   26.2031 H   0  0  0  0  0  0
  -28.3946  -32.6725   25.0291 H   0  0  0  0  0  0
  -28.0733  -31.8338   26.5361 H   0  0  0  0  0  0
  -28.2640  -38.0106   24.7563 H   0  0  0  0  0  0
  -28.1072  -36.2636   24.6262 H   0  0  0  0  0  0
  -27.2297  -37.1431   25.8867 H   0  0  0  0  0  0
  -20.9236  -29.8803   21.7014 H   0  0  0  0  0  0
  -26.0242  -38.2907   24.1363 H   0  0  0  0  0  0
  -25.5766  -22.3997   18.3941 H   0  0  0  0  0  0
  -29.6714  -21.7502   19.6079 H   0  0  0  0  0  0
  -23.5041  -15.9484   25.5633 H   0  0  0  0  0  0
  -24.8536  -17.0582   25.3410 H   0  0  0  0  0  0
  -24.7954  -15.5485   24.4349 H   0  0  0  0  0  0
  -26.7622  -24.1345   19.3851 H   0  0  0  0  0  0
  -28.1082  -24.2518   18.2890 H   0  0  0  0  0  0
  -25.1419  -18.8661   17.4598 H   0  0  0  0  0  0
  -24.4630  -20.4636   17.3524 H   0  0  0  0  0  0
  -22.7501  -17.8219   24.1110 H   0  0  0  0  0  0
  -22.7788  -16.3346   23.1957 H   0  0  0  0  0  0
  -29.6950  -24.3354   20.0842 H   0  0  0  0  0  0
  -28.6313  -23.4929   21.1826 H   0  0  0  0  0  0
  -23.1625  -18.8603   18.8240 H   0  0  0  0  0  0
  -23.5502  -20.3992   19.5455 H   0  0  0  0  0  0
  -25.1430  -17.0078   22.4046 H   0  0  0  0  0  0
  -24.8788  -18.5548   23.1533 H   0  0  0  0  0  0
  -25.2902  -19.5056   20.9134 H   0  0  0  0  0  0
  -25.3083  -17.9820   20.0657 H   0  0  0  0  0  0
  -22.9011  -18.9548   21.6769 H   0  0  0  0  0  0
  -23.1083  -17.3791   20.9530 H   0  0  0  0  0  0
  -29.4504  -18.5413   21.6930 H   0  0  0  0  0  0
  -28.3686  -17.2034   21.5752 H   0  0  0  0  0  0
  -30.5767  -16.7617   22.8113 H   0  0  0  0  0  0
  -31.4251  -16.9184   21.2978 H   0  0  0  0  0  0
  -28.7264  -25.7528   21.9424 H   0  0  0  0  0  0
  -27.1305  -25.4289   21.3518 H   0  0  0  0  0  0
  -28.3446  -17.3592   19.2861 H   0  0  0  0  0  0
  -30.0550  -17.1599   19.2137 H   0  0  0  0  0  0
  -29.3441  -14.8595   22.0077 H   0  0  0  0  0  0
  1 25  1  0  0  0
  1 30  2  0  0  0
  1 90  1  0  0  0
  2  3  1  0  0  0
  2 25  1  0  0  0
  2 92  1  0  0  0
  2 93  1  0  0  0
  3  4  1  0  0  0
  3 94  1  0  0  0
  3 95  1  0  0  0
  4  5  1  0  0  0
  4 96  1  0  0  0
  4 97  1  0  0  0
  5  6  1  0  0  0
  5 26  1  0  0  0
  5 98  1  0  0  0
  6 25  1  0  0  0
  6 99  1  0  0  0
  6100  1  0  0  0
  7  8  2  0  0  0
  7 26  1  0  0  0
  7 29  1  0  0  0
  8  9  1  0  0  0
  8 22  1  0  0  0
  9 10  1  0  0  0
  9 27  2  0  0  0
 10 11  2  0  0  0
 10 15  1  0  0  0
 11 12  1  0  0  0
 11101  1  0  0  0
 12 13  2  0  0  0
 12102  1  0  0  0
 13 14  1  0  0  0
 13 31  1  0  0  0
 14 15  2  0  0  0
 14103  1  0  0  0
 15104  1  0  0  0
 16 17  2  0  0  0
 16 21  1  0  0  0
 16 31  1  0  0  0
 17 18  1  0  0  0
 17105  1  0  0  0
 18 19  2  0  0  0
 18106  1  0  0  0
 19 20  1  0  0  0
 19 24  1  0  0  0
 20 21  2  0  0  0
 20107  1  0  0  0
 21 23  1  0  0  0
 22 28  1  0  0  0
 22 32  2  0  0  0
 26 27  1  0  0  0
 28108  1  0  0  0
 28109  1  0  0  0
 29110  1  0  0  0
 29111  1  0  0  0
 33 34  1  0  0  0
 33 66  1  0  0  0
 33 70  2  0  0  0
 34 36  1  0  0  0
 34 59  1  0  0  0
 34112  1  0  0  0
 35 44  2  0  0  0
 35 45  1  0  0  0
 35 68  1  0  0  0
 36 56  1  0  0  0
 36113  1  0  0  0
 37 39  1  0  0  0
 37 47  1  0  0  0
 37 66  1  0  0  0
 37114  1  0  0  0
 38 43  2  0  0  0
 38 46  1  0  0  0
 38 47  1  0  0  0
 39 64  1  0  0  0
 39 67  2  0  0  0
 40 52  1  0  0  0
 40 53  2  0  0  0
 40 58  1  0  0  0
 41115  1  0  0  0
 41116  1  0  0  0
 41117  1  0  0  0
 41 48  1  0  0  0
 42 43  1  0  0  0
 42 66  1  0  0  0
 42118  1  0  0  0
 42119  1  0  0  0
 43 44  1  0  0  0
 44120  1  0  0  0
 45 46  2  0  0  0
 45121  1  0  0  0
 46122  1  0  0  0
 47123  1  0  0  0
 47124  1  0  0  0
 48 56  1  0  0  0
 48 65  1  0  0  0
 48125  1  0  0  0
 49 50  1  0  0  0
 49 53  1  0  0  0
 49 64  1  0  0  0
 49126  1  0  0  0
 50 51  1  0  0  0
 50127  1  0  0  0
 50128  1  0  0  0
 51 52  1  0  0  0
 51129  1  0  0  0
 51130  1  0  0  0
 52131  1  0  0  0
 52132  1  0  0  0
 53 54  1  0  0  0
 54 55  2  0  0  0
 54133  1  0  0  0
 55 57  1  0  0  0
 55134  1  0  0  0
 56 69  2  0  0  0
 57 58  2  0  0  0
 57135  1  0  0  0
 58136  1  0  0  0
 59 60  1  0  0  0
 59 61  1  0  0  0
 59 62  1  0  0  0
 60137  1  0  0  0
 60138  1  0  0  0
 60139  1  0  0  0
 61140  1  0  0  0
 61141  1  0  0  0
 61142  1  0  0  0
 62143  1  0  0  0
 62144  1  0  0  0
 62145  1  0  0  0
 63 65  1  0  0  0
 63146  1  0  0  0
 63147  1  0  0  0
 63148  1  0  0  0
 64149  1  0  0  0
 65150  1  0  0  0
 68 87  1  0  0  0
 71 73  2  0  0  0
 71 74  1  0  0  0
 71151  1  0  0  0
 72 73  1  0  0  0
 72 75  2  0  0  0
 72152  1  0  0  0
 73 77  1  0  0  0
 74 78  1  0  0  0
 74 89  2  0  0  0
 75 89  1  0  0  0
 75 91  1  0  0  0
 76 79  1  0  0  0
 76153  1  0  0  0
 76154  1  0  0  0
 76155  1  0  0  0
 77 80  1  0  0  0
 77156  1  0  0  0
 77157  1  0  0  0
 78 81  1  0  0  0
 78158  1  0  0  0
 78159  1  0  0  0
 79 82  1  0  0  0
 79160  1  0  0  0
 79161  1  0  0  0
 80 87  1  0  0  0
 80162  1  0  0  0
 80163  1  0  0  0
 81 83  1  0  0  0
 81164  1  0  0  0
 81165  1  0  0  0
 82 84  1  0  0  0
 82166  1  0  0  0
 82167  1  0  0  0
 83 84  1  0  0  0
 83168  1  0  0  0
 83169  1  0  0  0
 84170  1  0  0  0
 84171  1  0  0  0
 85 86  1  0  0  0
 85 88  1  0  0  0
 85172  1  0  0  0
 85173  1  0  0  0
 86 90  1  0  0  0
 86174  1  0  0  0
 86175  1  0  0  0
 87176  1  0  0  0
 87177  1  0  0  0
 88 91  1  0  0  0
 88178  1  0  0  0
 88179  1  0  0  0
 90180  1  0  0  0
M  ISO  4   1 100  68 101  87 101  90 100
M  END
> <chiral flag>
0

> <version>
0

> <s_m_source_file>
/data/baiqing/PycharmProjects/Reinvent-master-3.2/result/LINK_invent/BTK/process_docking_weight1_custom_sum_contain_oxygen_bond_distance_aromatic_linkinvent_7_9_3/rearranged_h_0090.sdf

> <i_m_source_file_index>
87

> <r_mmod_Potential_Energy-OPLS-2005>
-213.056076049805

> <r_mmod_Stretch_Energy-OPLS-2005>
33.5139503479004

> <r_mmod_Bend_Energy-OPLS-2005>
104.276916503906

> <r_mmod_Torsional_Energy-OPLS-2005>
235.491729736328

> <r_mmod_Improper_Torsional_Energy-OPLS-2005>
2.19876766204834

> <r_mmod_Van_der_Waal_Energy-OPLS-2005>
144.302886962891

> <r_mmod_Electrostatic_Energy-OPLS-2005>
-542.563354492188

> <r_mmod_Solvation_Energy-OPLS-2005>
-200.595336914062

> <b_mmod_Minimization_Converged-OPLS-2005>
0

> <r_mmod_RMS_Derivative-OPLS-2005>
5.19518661499023

$$$$
88
                    3D
 Structure written by MMmdl.
164172  0  0  1  0            999 V2000
  -30.5868  -14.7570   20.4450 C   0  0  0  0  0  0
  -30.4365  -12.4646   19.4686 C   0  0  0  0  0  0
  -29.5100  -12.5176   18.2324 C   0  0  0  0  0  0
  -28.0368  -12.3395   18.6460 C   0  0  0  0  0  0
  -27.6431  -13.2308   19.8529 C   0  0  2  0  0  0
  -28.6886  -13.1475   20.9873 C   0  0  0  0  0  0
  -25.2522  -13.8144   20.5714 C   0  0  0  0  0  0
  -24.1801  -13.0389   20.9205 C   0  0  0  0  0  0
  -24.6397  -11.6883   20.8727 C   0  0  0  0  0  0
  -23.9068  -10.4260   21.0388 C   0  0  0  0  0  0
  -24.3613   -9.4171   21.9162 C   0  0  0  0  0  0
  -23.6278   -8.2222   22.0747 C   0  0  0  0  0  0
  -22.4247   -8.0272   21.3551 C   0  0  0  0  0  0
  -21.9881   -9.0247   20.4658 C   0  0  0  0  0  0
  -22.7238  -10.2110   20.3054 C   0  0  0  0  0  0
  -21.6841   -6.0707   22.5273 C   0  0  0  0  0  0
  -21.4011   -6.5614   23.8211 C   0  0  0  0  0  0
  -21.3663   -5.6780   24.9182 C   0  0  0  0  0  0
  -21.6037   -4.3038   24.7237 C   0  0  0  0  0  0
  -21.8823   -3.8119   23.4364 C   0  0  0  0  0  0
  -21.9196   -4.6933   22.3413 C   0  0  0  0  0  0
  -22.7831  -13.5196   21.1860 C   0  0  0  0  0  0
  -22.1653   -4.2112   21.0994 F   0  0  0  0  0  0
  -21.5633   -3.4532   25.7758 F   0  0  0  0  0  0
  -29.9884  -13.5154   20.4137 N   0  0  0  0  0  0
  -26.2948  -12.9377   20.3272 N   0  0  0  0  0  0
  -25.9340  -11.6509   20.5729 N   0  0  0  0  0  0
  -22.0441  -12.8192   22.0396 N   0  0  0  0  0  0
  -25.4201  -15.1846   20.4191 N   0  0  0  0  0  0
  -31.7622  -14.8759   20.0907 O   0  0  0  0  0  0
  -21.6631   -6.8854   21.4235 O   0  0  0  0  0  0
  -22.3555  -14.5535   20.6737 O   0  0  0  0  0  0
  -24.6304  -31.8558   23.1969 C   0  0  0  0  0  0
  -25.9131  -32.4762   23.8321 C   0  0  1  0  0  0
  -27.2275  -27.2660   20.1470 C   0  0  0  0  0  0
  -25.5930  -33.8564   24.2257 N   0  0  0  0  0  0
  -23.4277  -30.4749   21.5399 C   0  0  2  0  0  0
  -24.8777  -28.9173   20.1157 C   0  0  0  0  0  0
  -22.7493  -29.4605   22.4920 C   0  0  0  0  0  0
  -18.0281  -28.1395   22.8476 C   0  0  0  0  0  0
  -24.1485  -36.7287   23.2639 C   0  0  0  0  0  0
  -25.9711  -30.7727   21.3734 C   0  0  0  0  0  0
  -26.0474  -29.3933   20.7212 C   0  0  0  0  0  0
  -27.2277  -28.5824   20.7188 C   0  0  0  0  0  0
  -26.0379  -26.8553   19.5085 C   0  0  0  0  0  0
  -24.8776  -27.6561   19.4990 C   0  0  0  0  0  0
  -23.6466  -29.8030   20.1582 C   0  0  0  0  0  0
  -25.4109  -36.3080   24.0330 C   0  0  1  0  0  0
  -20.5886  -28.3700   23.1272 C   0  0  2  0  0  0
  -20.6770  -26.9416   22.5411 C   0  0  0  0  0  0
  -19.5756  -26.6388   21.5207 C   0  0  0  0  0  0
  -18.1934  -26.7934   22.1618 C   0  0  0  0  0  0
  -19.1532  -28.8859   23.2871 C   0  0  0  0  0  0
  -18.9460  -30.1458   23.8892 C   0  0  0  0  0  0
  -17.6462  -30.6589   24.0566 C   0  0  0  0  0  0
  -25.9053  -34.9451   23.5103 C   0  0  0  0  0  0
  -16.5357  -29.9093   23.6339 C   0  0  0  0  0  0
  -16.7264  -28.6518   23.0349 C   0  0  0  0  0  0
  -26.4505  -31.6575   25.0701 C   0  0  0  0  0  0
  -25.3723  -31.3735   26.1419 C   0  0  0  0  0  0
  -27.0333  -30.2990   24.6164 C   0  0  0  0  0  0
  -27.6064  -32.4304   25.7474 C   0  0  0  0  0  0
  -27.5582  -37.1801   24.8467 C   0  0  0  0  0  0
  -21.4205  -29.3047   22.3653 N   0  0  0  0  0  0
  -26.4291  -37.3769   23.9413 N   0  0  0  0  0  0
  -24.6950  -31.0519   22.0945 N   0  0  0  0  0  0
  -23.4200  -28.8140   23.3016 O   0  0  0  0  0  0
  -28.3335  -26.3884   20.1643 O   0  0  0  0  0  0
  -26.5615  -34.8927   22.4670 O   0  0  0  0  0  0
  -23.5451  -32.1377   23.7264 O   0  0  0  0  0  0
  -27.0769  -21.5743   19.4398 C   0  0  0  0  0  0
  -26.0570  -20.7082   19.0462 C   0  0  0  0  0  0
  -28.2568  -21.0866   20.0488 C   0  0  0  0  0  0
  -26.2195  -19.3429   19.2764 C   0  0  0  0  0  0
  -28.3922  -19.6137   20.1520 C   0  0  0  0  0  0
  -25.3165  -17.5281   17.7500 C   0  0  0  0  0  0
  -29.1555  -18.3878   22.2796 C   0  0  0  0  0  0
  -29.1798  -22.2533   20.5838 C   0  0  0  0  0  0
  -25.0837  -18.3817   19.0001 C   0  0  0  0  0  0
  -29.0737  -23.7786   19.9871 C   0  0  0  0  0  0
  -29.9330  -17.2902   20.0425 C   0  0  0  0  0  0
  -28.1429  -24.9570   20.5931 C   0  0  0  0  0  0
  -29.5005  -18.6767   20.8104 C   0  0  1  0  0  0
  -27.3505  -18.8256   19.7897 N   0  0  0  0  0  0
  -29.7896  -15.8778   20.6398 N   0  0  0  0  0  0
  -31.4734  -12.6027   19.1588 H   0  0  0  0  0  0
  -30.3993  -11.4819   19.9401 H   0  0  0  0  0  0
  -29.7905  -11.7454   17.5139 H   0  0  0  0  0  0
  -29.6339  -13.4717   17.7192 H   0  0  0  0  0  0
  -27.8907  -11.2907   18.9007 H   0  0  0  0  0  0
  -27.3805  -12.5409   17.7983 H   0  0  0  0  0  0
  -27.6395  -14.2547   19.4815 H   0  0  0  0  0  0
  -28.7285  -12.1391   21.4025 H   0  0  0  0  0  0
  -28.4262  -13.8098   21.8132 H   0  0  0  0  0  0
  -25.2757   -9.5631   22.4729 H   0  0  0  0  0  0
  -23.9965   -7.4612   22.7473 H   0  0  0  0  0  0
  -21.0797   -8.8793   19.8985 H   0  0  0  0  0  0
  -22.3701  -10.9652   19.6164 H   0  0  0  0  0  0
  -21.1993   -7.6121   23.9705 H   0  0  0  0  0  0
  -21.1480   -6.0509   25.9085 H   0  0  0  0  0  0
  -22.0597   -2.7577   23.2894 H   0  0  0  0  0  0
  -22.4005  -11.9823   22.4763 H   0  0  0  0  0  0
  -21.1040  -13.1216   22.2521 H   0  0  0  0  0  0
  -24.6390  -15.8206   20.5201 H   0  0  0  0  0  0
  -26.2558  -15.6356   20.0657 H   0  0  0  0  0  0
  -26.7185  -32.5434   23.1053 H   0  0  0  0  0  0
  -25.0073  -33.9688   25.0399 H   0  0  0  0  0  0
  -22.7233  -31.2953   21.3908 H   0  0  0  0  0  0
  -23.3754  -35.9616   23.3301 H   0  0  0  0  0  0
  -24.3573  -36.8904   22.2055 H   0  0  0  0  0  0
  -23.7224  -37.6487   23.6652 H   0  0  0  0  0  0
  -26.0993  -31.5286   20.5981 H   0  0  0  0  0  0
  -26.8518  -30.8322   22.0017 H   0  0  0  0  0  0
  -28.1267  -28.9433   21.1965 H   0  0  0  0  0  0
  -25.9930  -25.8928   19.0185 H   0  0  0  0  0  0
  -23.9826  -27.2869   19.0177 H   0  0  0  0  0  0
  -23.7754  -30.5770   19.4010 H   0  0  0  0  0  0
  -22.7657  -29.2347   19.8537 H   0  0  0  0  0  0
  -25.1284  -36.1938   25.0818 H   0  0  0  0  0  0
  -20.9977  -28.3286   24.1398 H   0  0  0  0  0  0
  -20.5665  -26.2307   23.3611 H   0  0  0  0  0  0
  -21.6640  -26.7443   22.1213 H   0  0  0  0  0  0
  -19.6930  -25.6300   21.1239 H   0  0  0  0  0  0
  -19.6706  -27.3190   20.6730 H   0  0  0  0  0  0
  -17.4205  -26.6665   21.4026 H   0  0  0  0  0  0
  -18.0353  -26.0071   22.9010 H   0  0  0  0  0  0
  -19.7933  -30.7261   24.2284 H   0  0  0  0  0  0
  -17.5019  -31.6270   24.5154 H   0  0  0  0  0  0
  -15.5360  -30.2998   23.7648 H   0  0  0  0  0  0
  -15.8669  -28.0826   22.7080 H   0  0  0  0  0  0
  -24.5912  -30.7057   25.7763 H   0  0  0  0  0  0
  -24.8898  -32.2906   26.4817 H   0  0  0  0  0  0
  -25.8054  -30.8953   27.0210 H   0  0  0  0  0  0
  -26.2913  -29.6753   24.1165 H   0  0  0  0  0  0
  -27.3988  -29.7240   25.4679 H   0  0  0  0  0  0
  -27.8801  -30.4256   23.9410 H   0  0  0  0  0  0
  -27.2684  -33.3614   26.2034 H   0  0  0  0  0  0
  -28.3893  -32.6841   25.0313 H   0  0  0  0  0  0
  -28.0698  -31.8425   26.5400 H   0  0  0  0  0  0
  -28.2604  -38.0092   24.7506 H   0  0  0  0  0  0
  -28.1074  -36.2631   24.6305 H   0  0  0  0  0  0
  -27.2307  -37.1457   25.8869 H   0  0  0  0  0  0
  -20.9390  -29.8769   21.6851 H   0  0  0  0  0  0
  -26.0187  -38.2852   24.1408 H   0  0  0  0  0  0
  -26.9018  -22.6296   19.3103 H   0  0  0  0  0  0
  -25.1417  -21.0977   18.6223 H   0  0  0  0  0  0
  -24.4651  -16.8740   17.5659 H   0  0  0  0  0  0
  -26.2026  -16.9043   17.8650 H   0  0  0  0  0  0
  -25.4573  -18.1587   16.8727 H   0  0  0  0  0  0
  -29.0372  -19.3144   22.8417 H   0  0  0  0  0  0
  -29.9429  -17.8067   22.7610 H   0  0  0  0  0  0
  -28.2262  -17.8255   22.3559 H   0  0  0  0  0  0
  -30.2011  -21.9110   20.4138 H   0  0  0  0  0  0
  -29.0719  -22.2912   21.6681 H   0  0  0  0  0  0
  -24.1534  -18.9414   18.8953 H   0  0  0  0  0  0
  -24.9460  -17.7525   19.8788 H   0  0  0  0  0  0
  -28.9326  -23.7330   18.9074 H   0  0  0  0  0  0
  -30.0831  -24.1783   20.0960 H   0  0  0  0  0  0
  -30.9785  -17.4049   19.7503 H   0  0  0  0  0  0
  -29.4112  -17.2666   19.0837 H   0  0  0  0  0  0
  -28.3045  -24.9665   21.6724 H   0  0  0  0  0  0
  -27.1022  -24.6554   20.4840 H   0  0  0  0  0  0
  -30.3972  -19.2994   20.8201 H   0  0  0  0  0  0
  -28.8674  -15.6662   20.9872 H   0  0  0  0  0  0
  1 25  1  0  0  0
  1 30  2  0  0  0
  1 85  1  0  0  0
  2  3  1  0  0  0
  2 25  1  0  0  0
  2 86  1  0  0  0
  2 87  1  0  0  0
  3  4  1  0  0  0
  3 88  1  0  0  0
  3 89  1  0  0  0
  4  5  1  0  0  0
  4 90  1  0  0  0
  4 91  1  0  0  0
  5  6  1  0  0  0
  5 26  1  0  0  0
  5 92  1  0  0  0
  6 25  1  0  0  0
  6 93  1  0  0  0
  6 94  1  0  0  0
  7  8  2  0  0  0
  7 26  1  0  0  0
  7 29  1  0  0  0
  8  9  1  0  0  0
  8 22  1  0  0  0
  9 10  1  0  0  0
  9 27  2  0  0  0
 10 11  2  0  0  0
 10 15  1  0  0  0
 11 12  1  0  0  0
 11 95  1  0  0  0
 12 13  2  0  0  0
 12 96  1  0  0  0
 13 14  1  0  0  0
 13 31  1  0  0  0
 14 15  2  0  0  0
 14 97  1  0  0  0
 15 98  1  0  0  0
 16 17  2  0  0  0
 16 21  1  0  0  0
 16 31  1  0  0  0
 17 18  1  0  0  0
 17 99  1  0  0  0
 18 19  2  0  0  0
 18100  1  0  0  0
 19 20  1  0  0  0
 19 24  1  0  0  0
 20 21  2  0  0  0
 20101  1  0  0  0
 21 23  1  0  0  0
 22 28  1  0  0  0
 22 32  2  0  0  0
 26 27  1  0  0  0
 28102  1  0  0  0
 28103  1  0  0  0
 29104  1  0  0  0
 29105  1  0  0  0
 33 34  1  0  0  0
 33 66  1  0  0  0
 33 70  2  0  0  0
 34 36  1  0  0  0
 34 59  1  0  0  0
 34106  1  0  0  0
 35 44  2  0  0  0
 35 45  1  0  0  0
 35 68  1  0  0  0
 36 56  1  0  0  0
 36107  1  0  0  0
 37 39  1  0  0  0
 37 47  1  0  0  0
 37 66  1  0  0  0
 37108  1  0  0  0
 38 43  2  0  0  0
 38 46  1  0  0  0
 38 47  1  0  0  0
 39 64  1  0  0  0
 39 67  2  0  0  0
 40 52  1  0  0  0
 40 53  2  0  0  0
 40 58  1  0  0  0
 41109  1  0  0  0
 41110  1  0  0  0
 41111  1  0  0  0
 41 48  1  0  0  0
 42 43  1  0  0  0
 42 66  1  0  0  0
 42112  1  0  0  0
 42113  1  0  0  0
 43 44  1  0  0  0
 44114  1  0  0  0
 45 46  2  0  0  0
 45115  1  0  0  0
 46116  1  0  0  0
 47117  1  0  0  0
 47118  1  0  0  0
 48 56  1  0  0  0
 48 65  1  0  0  0
 48119  1  0  0  0
 49 50  1  0  0  0
 49 53  1  0  0  0
 49 64  1  0  0  0
 49120  1  0  0  0
 50 51  1  0  0  0
 50121  1  0  0  0
 50122  1  0  0  0
 51 52  1  0  0  0
 51123  1  0  0  0
 51124  1  0  0  0
 52125  1  0  0  0
 52126  1  0  0  0
 53 54  1  0  0  0
 54 55  2  0  0  0
 54127  1  0  0  0
 55 57  1  0  0  0
 55128  1  0  0  0
 56 69  2  0  0  0
 57 58  2  0  0  0
 57129  1  0  0  0
 58130  1  0  0  0
 59 60  1  0  0  0
 59 61  1  0  0  0
 59 62  1  0  0  0
 60131  1  0  0  0
 60132  1  0  0  0
 60133  1  0  0  0
 61134  1  0  0  0
 61135  1  0  0  0
 61136  1  0  0  0
 62137  1  0  0  0
 62138  1  0  0  0
 62139  1  0  0  0
 63 65  1  0  0  0
 63140  1  0  0  0
 63141  1  0  0  0
 63142  1  0  0  0
 64143  1  0  0  0
 65144  1  0  0  0
 68 82  1  0  0  0
 71 72  2  0  0  0
 71 73  1  0  0  0
 71145  1  0  0  0
 72 74  1  0  0  0
 72146  1  0  0  0
 73 75  2  0  0  0
 73 78  1  0  0  0
 74 79  1  0  0  0
 74 84  2  0  0  0
 75 83  1  0  0  0
 75 84  1  0  0  0
 76 79  1  0  0  0
 76147  1  0  0  0
 76148  1  0  0  0
 76149  1  0  0  0
 77150  1  0  0  0
 77151  1  0  0  0
 77152  1  0  0  0
 77 83  1  0  0  0
 78 80  1  0  0  0
 78153  1  0  0  0
 78154  1  0  0  0
 79155  1  0  0  0
 79156  1  0  0  0
 80 82  1  0  0  0
 80157  1  0  0  0
 80158  1  0  0  0
 81 83  1  0  0  0
 81 85  1  0  0  0
 81159  1  0  0  0
 81160  1  0  0  0
 82161  1  0  0  0
 82162  1  0  0  0
 83163  1  0  0  0
 85164  1  0  0  0
M  ISO  4   1 100  68 101  82 101  85 100
M  END
> <chiral flag>
0

> <version>
0

> <s_m_source_file>
/data/baiqing/PycharmProjects/Reinvent-master-3.2/result/LINK_invent/BTK/process_docking_weight1_custom_sum_contain_oxygen_bond_distance_aromatic_linkinvent_7_9_3/rearranged_h_0090.sdf

> <i_m_source_file_index>
88

> <r_mmod_Potential_Energy-OPLS-2005>
60.3457984924316

> <r_mmod_Stretch_Energy-OPLS-2005>
140.915771484375

> <r_mmod_Bend_Energy-OPLS-2005>
209.984848022461

> <r_mmod_Torsional_Energy-OPLS-2005>
240.517135620117

> <r_mmod_Improper_Torsional_Energy-OPLS-2005>
7.52275848388672

> <r_mmod_Van_der_Waal_Energy-OPLS-2005>
130.519989013672

> <r_mmod_Electrostatic_Energy-OPLS-2005>
-550.321350097656

> <r_mmod_Solvation_Energy-OPLS-2005>
-203.016571044922

> <b_mmod_Minimization_Converged-OPLS-2005>
0

> <r_mmod_RMS_Derivative-OPLS-2005>
3.50461411476135

$$$$
89
                    3D
 Structure written by MMmdl.
182190  0  0  1  0            999 V2000
  -30.6477  -14.7400   20.4406 C   0  0  0  0  0  0
  -30.4306  -12.4522   19.4746 C   0  0  0  0  0  0
  -29.5108  -12.4933   18.2373 C   0  0  0  0  0  0
  -28.0345  -12.3299   18.6496 C   0  0  0  0  0  0
  -27.6429  -13.2363   19.8464 C   0  0  2  0  0  0
  -28.6900  -13.1932   20.9793 C   0  0  0  0  0  0
  -25.2532  -13.8193   20.5723 C   0  0  0  0  0  0
  -24.1820  -13.0434   20.9256 C   0  0  0  0  0  0
  -24.6418  -11.6916   20.8788 C   0  0  0  0  0  0
  -23.9055  -10.4297   21.0458 C   0  0  0  0  0  0
  -24.3614   -9.4194   21.9223 C   0  0  0  0  0  0
  -23.6298   -8.2236   22.0777 C   0  0  0  0  0  0
  -22.4296   -8.0273   21.3564 C   0  0  0  0  0  0
  -21.9924   -9.0233   20.4668 C   0  0  0  0  0  0
  -22.7229  -10.2124   20.3087 C   0  0  0  0  0  0
  -21.6844   -6.0713   22.5282 C   0  0  0  0  0  0
  -21.3975   -6.5601   23.8202 C   0  0  0  0  0  0
  -21.3687   -5.6766   24.9178 C   0  0  0  0  0  0
  -21.6088   -4.3027   24.7225 C   0  0  0  0  0  0
  -21.8812   -3.8102   23.4347 C   0  0  0  0  0  0
  -21.9178   -4.6928   22.3402 C   0  0  0  0  0  0
  -22.7849  -13.5199   21.1890 C   0  0  0  0  0  0
  -22.1647   -4.2099   21.0979 F   0  0  0  0  0  0
  -21.5690   -3.4514   25.7747 F   0  0  0  0  0  0
  -29.9884  -13.5342   20.3828 N   0  0  0  0  0  0
  -26.2961  -12.9405   20.3261 N   0  0  0  0  0  0
  -25.9334  -11.6541   20.5754 N   0  0  0  0  0  0
  -22.0472  -12.8176   22.0419 N   0  0  0  0  0  0
  -25.4172  -15.1908   20.4094 N   0  0  0  0  0  0
  -31.8541  -14.7662   20.1878 O   0  0  0  0  0  0
  -21.6650   -6.8870   21.4254 O   0  0  0  0  0  0
  -22.3527  -14.5497   20.6718 O   0  0  0  0  0  0
  -24.6295  -31.8564   23.1974 C   0  0  0  0  0  0
  -25.9117  -32.4755   23.8321 C   0  0  1  0  0  0
  -27.2371  -27.2614   20.1262 C   0  0  0  0  0  0
  -25.5934  -33.8563   24.2242 N   0  0  0  0  0  0
  -23.4275  -30.4739   21.5419 C   0  0  2  0  0  0
  -24.8787  -28.9152   20.1151 C   0  0  0  0  0  0
  -22.7509  -29.4605   22.4934 C   0  0  0  0  0  0
  -18.0300  -28.1386   22.8491 C   0  0  0  0  0  0
  -24.1489  -36.7267   23.2644 C   0  0  0  0  0  0
  -25.9745  -30.7645   21.3832 C   0  0  0  0  0  0
  -26.0485  -29.3861   20.7230 C   0  0  0  0  0  0
  -27.2268  -28.5704   20.7206 C   0  0  0  0  0  0
  -26.0430  -26.8628   19.4829 C   0  0  0  0  0  0
  -24.8817  -27.6595   19.4859 C   0  0  0  0  0  0
  -23.6471  -29.8017   20.1601 C   0  0  0  0  0  0
  -25.4121  -36.3071   24.0327 C   0  0  1  0  0  0
  -20.5908  -28.3690   23.1290 C   0  0  2  0  0  0
  -20.6800  -26.9418   22.5412 C   0  0  0  0  0  0
  -19.5773  -26.6384   21.5234 C   0  0  0  0  0  0
  -18.1954  -26.7936   22.1640 C   0  0  0  0  0  0
  -19.1555  -28.8866   23.2873 C   0  0  0  0  0  0
  -18.9469  -30.1477   23.8877 C   0  0  0  0  0  0
  -17.6459  -30.6592   24.0580 C   0  0  0  0  0  0
  -25.9055  -34.9442   23.5085 C   0  0  0  0  0  0
  -16.5349  -29.9078   23.6361 C   0  0  0  0  0  0
  -16.7285  -28.6504   23.0367 C   0  0  0  0  0  0
  -26.4491  -31.6579   25.0717 C   0  0  0  0  0  0
  -25.3712  -31.3744   26.1440 C   0  0  0  0  0  0
  -27.0338  -30.2992   24.6227 C   0  0  0  0  0  0
  -27.6040  -32.4340   25.7470 C   0  0  0  0  0  0
  -27.5583  -37.1794   24.8470 C   0  0  0  0  0  0
  -21.4233  -29.3029   22.3677 N   0  0  0  0  0  0
  -26.4292  -37.3766   23.9403 N   0  0  0  0  0  0
  -24.6958  -31.0503   22.0961 N   0  0  0  0  0  0
  -23.4195  -28.8213   23.3078 O   0  0  0  0  0  0
  -28.3459  -26.3756   20.1833 O   0  0  0  0  0  0
  -26.5638  -34.8904   22.4665 O   0  0  0  0  0  0
  -23.5438  -32.1396   23.7253 O   0  0  0  0  0  0
  -29.8131  -21.8651   18.1706 C   0  0  0  0  0  0
  -29.9908  -21.1628   16.9690 C   0  0  0  0  0  0
  -29.4316  -21.2102   19.3658 C   0  0  0  0  0  0
  -29.6548  -19.7997   16.9645 C   0  0  0  0  0  0
  -29.4144  -19.7345   19.3103 C   0  0  0  0  0  0
  -27.5476  -18.7141   13.8496 C   0  0  0  0  0  0
  -34.1559  -21.7517   18.6896 C   0  0  0  0  0  0
  -31.6665  -17.7042   19.8705 C   0  0  0  0  0  0
  -30.4755  -21.8970   15.7188 C   0  0  0  0  0  0
  -29.0138  -22.1916   20.5354 C   0  0  0  0  0  0
  -29.3648  -19.0490   15.6710 C   0  0  0  0  0  0
  -29.2498  -18.6191   20.4324 C   0  0  0  0  0  0
  -27.9707  -19.4389   15.1312 C   0  0  0  0  0  0
  -33.3264  -21.1455   17.5538 C   0  0  0  0  0  0
  -31.9750  -21.6735   15.4148 C   0  0  0  0  0  0
  -29.2537  -23.8162   20.4570 C   0  0  0  0  0  0
  -32.9460  -22.1945   16.4949 C   0  0  0  0  0  0
  -28.1505  -24.8968   19.9564 C   0  0  0  0  0  0
  -30.3491  -17.4105   20.6215 C   0  0  1  0  0  0
  -29.4123  -19.1197   18.1024 N   0  0  0  0  0  0
  -29.9190  -15.9202   20.5705 N   0  0  0  0  0  0
  -31.4714  -12.5642   19.1590 H   0  0  0  0  0  0
  -30.3723  -11.4855   19.9754 H   0  0  0  0  0  0
  -29.7907  -11.7062   17.5353 H   0  0  0  0  0  0
  -29.6481  -13.4366   17.7065 H   0  0  0  0  0  0
  -27.8807  -11.2846   18.9177 H   0  0  0  0  0  0
  -27.3781  -12.5226   17.7971 H   0  0  0  0  0  0
  -27.6369  -14.2566   19.4638 H   0  0  0  0  0  0
  -28.7224  -12.2096   21.4472 H   0  0  0  0  0  0
  -28.4277  -13.9049   21.7635 H   0  0  0  0  0  0
  -25.2756   -9.5654   22.4789 H   0  0  0  0  0  0
  -23.9989   -7.4601   22.7449 H   0  0  0  0  0  0
  -21.0876   -8.8707   19.8965 H   0  0  0  0  0  0
  -22.3662  -10.9652   19.6198 H   0  0  0  0  0  0
  -21.1902   -7.6098   23.9652 H   0  0  0  0  0  0
  -21.1591   -6.0550   25.9088 H   0  0  0  0  0  0
  -22.0586   -2.7559   23.2878 H   0  0  0  0  0  0
  -22.4065  -11.9863   22.4900 H   0  0  0  0  0  0
  -21.1127  -13.1279   22.2598 H   0  0  0  0  0  0
  -24.6286  -15.8257   20.4771 H   0  0  0  0  0  0
  -26.2314  -15.6103   19.9794 H   0  0  0  0  0  0
  -26.7189  -32.5400   23.1059 H   0  0  0  0  0  0
  -25.0056  -33.9690   25.0371 H   0  0  0  0  0  0
  -22.7200  -31.2915   21.3915 H   0  0  0  0  0  0
  -23.3763  -35.9586   23.3300 H   0  0  0  0  0  0
  -24.3588  -36.8900   22.2062 H   0  0  0  0  0  0
  -23.7219  -37.6460   23.6665 H   0  0  0  0  0  0
  -26.1196  -31.5301   20.6201 H   0  0  0  0  0  0
  -26.8485  -30.8087   22.0209 H   0  0  0  0  0  0
  -28.1183  -28.9270   21.2166 H   0  0  0  0  0  0
  -25.9791  -25.9095   18.9809 H   0  0  0  0  0  0
  -23.9884  -27.2908   18.9999 H   0  0  0  0  0  0
  -23.7627  -30.5738   19.3987 H   0  0  0  0  0  0
  -22.7678  -29.2282   19.8628 H   0  0  0  0  0  0
  -25.1302  -36.1906   25.0821 H   0  0  0  0  0  0
  -20.9971  -28.3273   24.1429 H   0  0  0  0  0  0
  -20.5757  -26.2313   23.3615 H   0  0  0  0  0  0
  -21.6670  -26.7489   22.1197 H   0  0  0  0  0  0
  -19.6927  -25.6310   21.1268 H   0  0  0  0  0  0
  -19.6704  -27.3200   20.6774 H   0  0  0  0  0  0
  -17.4241  -26.6725   21.4021 H   0  0  0  0  0  0
  -18.0303  -26.0063   22.9012 H   0  0  0  0  0  0
  -19.7927  -30.7324   24.2223 H   0  0  0  0  0  0
  -17.5003  -31.6277   24.5180 H   0  0  0  0  0  0
  -15.5359  -30.2971   23.7684 H   0  0  0  0  0  0
  -15.8692  -28.0815   22.7069 H   0  0  0  0  0  0
  -24.5846  -30.7144   25.7775 H   0  0  0  0  0  0
  -24.8947  -32.2927   26.4883 H   0  0  0  0  0  0
  -25.8022  -30.8896   27.0207 H   0  0  0  0  0  0
  -26.2941  -29.6745   24.1227 H   0  0  0  0  0  0
  -27.3989  -29.7251   25.4749 H   0  0  0  0  0  0
  -27.8817  -30.4260   23.9496 H   0  0  0  0  0  0
  -27.2628  -33.3635   26.2034 H   0  0  0  0  0  0
  -28.3828  -32.6933   25.0285 H   0  0  0  0  0  0
  -28.0724  -31.8486   26.5392 H   0  0  0  0  0  0
  -28.2603  -38.0089   24.7538 H   0  0  0  0  0  0
  -28.1080  -36.2638   24.6268 H   0  0  0  0  0  0
  -27.2315  -37.1398   25.8874 H   0  0  0  0  0  0
  -20.9423  -29.8685   21.6828 H   0  0  0  0  0  0
  -26.0176  -38.2836   24.1415 H   0  0  0  0  0  0
  -29.9336  -22.9348   18.1394 H   0  0  0  0  0  0
  -26.5755  -19.0799   13.5179 H   0  0  0  0  0  0
  -27.4543  -17.6410   14.0099 H   0  0  0  0  0  0
  -28.2596  -18.8847   13.0408 H   0  0  0  0  0  0
  -34.3481  -21.0160   19.4705 H   0  0  0  0  0  0
  -33.6268  -22.5910   19.1416 H   0  0  0  0  0  0
  -35.1189  -22.1118   18.3289 H   0  0  0  0  0  0
  -31.9276  -18.7615   19.9422 H   0  0  0  0  0  0
  -31.5974  -17.4515   18.8114 H   0  0  0  0  0  0
  -32.5125  -17.1656   20.2953 H   0  0  0  0  0  0
  -30.2815  -22.9653   15.8252 H   0  0  0  0  0  0
  -29.8910  -21.5969   14.8510 H   0  0  0  0  0  0
  -29.5469  -21.8284   21.4142 H   0  0  0  0  0  0
  -27.9638  -22.0095   20.7615 H   0  0  0  0  0  0
  -29.4006  -17.9755   15.8678 H   0  0  0  0  0  0
  -30.1422  -19.2467   14.9333 H   0  0  0  0  0  0
  -28.2677  -18.1666   20.3057 H   0  0  0  0  0  0
  -29.1758  -19.1555   21.3766 H   0  0  0  0  0  0
  -27.2252  -19.2551   15.9028 H   0  0  0  0  0  0
  -27.9374  -20.5131   14.9466 H   0  0  0  0  0  0
  -32.4358  -20.6875   17.9828 H   0  0  0  0  0  0
  -33.8837  -20.3351   17.0806 H   0  0  0  0  0  0
  -32.2009  -22.1904   14.4819 H   0  0  0  0  0  0
  -32.1719  -20.6204   15.2057 H   0  0  0  0  0  0
  -30.2146  -24.0191   19.9852 H   0  0  0  0  0  0
  -29.4282  -24.1098   21.4922 H   0  0  0  0  0  0
  -33.8671  -22.5312   16.0128 H   0  0  0  0  0  0
  -32.5174  -23.0799   16.9685 H   0  0  0  0  0  0
  -27.2000  -24.6091   20.4100 H   0  0  0  0  0  0
  -28.0196  -24.7578   18.8836 H   0  0  0  0  0  0
  -30.6298  -17.5079   21.6720 H   0  0  0  0  0  0
  -28.9293  -15.7605   20.6746 H   0  0  0  0  0  0
  1 25  1  0  0  0
  1 30  2  0  0  0
  1 91  1  0  0  0
  2  3  1  0  0  0
  2 25  1  0  0  0
  2 92  1  0  0  0
  2 93  1  0  0  0
  3  4  1  0  0  0
  3 94  1  0  0  0
  3 95  1  0  0  0
  4  5  1  0  0  0
  4 96  1  0  0  0
  4 97  1  0  0  0
  5  6  1  0  0  0
  5 26  1  0  0  0
  5 98  1  0  0  0
  6 25  1  0  0  0
  6 99  1  0  0  0
  6100  1  0  0  0
  7  8  2  0  0  0
  7 26  1  0  0  0
  7 29  1  0  0  0
  8  9  1  0  0  0
  8 22  1  0  0  0
  9 10  1  0  0  0
  9 27  2  0  0  0
 10 11  2  0  0  0
 10 15  1  0  0  0
 11 12  1  0  0  0
 11101  1  0  0  0
 12 13  2  0  0  0
 12102  1  0  0  0
 13 14  1  0  0  0
 13 31  1  0  0  0
 14 15  2  0  0  0
 14103  1  0  0  0
 15104  1  0  0  0
 16 17  2  0  0  0
 16 21  1  0  0  0
 16 31  1  0  0  0
 17 18  1  0  0  0
 17105  1  0  0  0
 18 19  2  0  0  0
 18106  1  0  0  0
 19 20  1  0  0  0
 19 24  1  0  0  0
 20 21  2  0  0  0
 20107  1  0  0  0
 21 23  1  0  0  0
 22 28  1  0  0  0
 22 32  2  0  0  0
 26 27  1  0  0  0
 28108  1  0  0  0
 28109  1  0  0  0
 29110  1  0  0  0
 29111  1  0  0  0
 33 34  1  0  0  0
 33 66  1  0  0  0
 33 70  2  0  0  0
 34 36  1  0  0  0
 34 59  1  0  0  0
 34112  1  0  0  0
 35 44  2  0  0  0
 35 45  1  0  0  0
 35 68  1  0  0  0
 36 56  1  0  0  0
 36113  1  0  0  0
 37 39  1  0  0  0
 37 47  1  0  0  0
 37 66  1  0  0  0
 37114  1  0  0  0
 38 43  2  0  0  0
 38 46  1  0  0  0
 38 47  1  0  0  0
 39 64  1  0  0  0
 39 67  2  0  0  0
 40 52  1  0  0  0
 40 53  2  0  0  0
 40 58  1  0  0  0
 41115  1  0  0  0
 41116  1  0  0  0
 41117  1  0  0  0
 41 48  1  0  0  0
 42 43  1  0  0  0
 42 66  1  0  0  0
 42118  1  0  0  0
 42119  1  0  0  0
 43 44  1  0  0  0
 44120  1  0  0  0
 45 46  2  0  0  0
 45121  1  0  0  0
 46122  1  0  0  0
 47123  1  0  0  0
 47124  1  0  0  0
 48 56  1  0  0  0
 48 65  1  0  0  0
 48125  1  0  0  0
 49 50  1  0  0  0
 49 53  1  0  0  0
 49 64  1  0  0  0
 49126  1  0  0  0
 50 51  1  0  0  0
 50127  1  0  0  0
 50128  1  0  0  0
 51 52  1  0  0  0
 51129  1  0  0  0
 51130  1  0  0  0
 52131  1  0  0  0
 52132  1  0  0  0
 53 54  1  0  0  0
 54 55  2  0  0  0
 54133  1  0  0  0
 55 57  1  0  0  0
 55134  1  0  0  0
 56 69  2  0  0  0
 57 58  2  0  0  0
 57135  1  0  0  0
 58136  1  0  0  0
 59 60  1  0  0  0
 59 61  1  0  0  0
 59 62  1  0  0  0
 60137  1  0  0  0
 60138  1  0  0  0
 60139  1  0  0  0
 61140  1  0  0  0
 61141  1  0  0  0
 61142  1  0  0  0
 62143  1  0  0  0
 62144  1  0  0  0
 62145  1  0  0  0
 63 65  1  0  0  0
 63146  1  0  0  0
 63147  1  0  0  0
 63148  1  0  0  0
 64149  1  0  0  0
 65150  1  0  0  0
 68 88  1  0  0  0
 71 72  2  0  0  0
 71 73  1  0  0  0
 71151  1  0  0  0
 72 74  1  0  0  0
 72 79  1  0  0  0
 73 75  2  0  0  0
 73 80  1  0  0  0
 74 81  1  0  0  0
 74 90  2  0  0  0
 75 82  1  0  0  0
 75 90  1  0  0  0
 76 83  1  0  0  0
 76152  1  0  0  0
 76153  1  0  0  0
 76154  1  0  0  0
 77 84  1  0  0  0
 77155  1  0  0  0
 77156  1  0  0  0
 77157  1  0  0  0
 78158  1  0  0  0
 78159  1  0  0  0
 78160  1  0  0  0
 78 89  1  0  0  0
 79 85  1  0  0  0
 79161  1  0  0  0
 79162  1  0  0  0
 80 86  1  0  0  0
 80163  1  0  0  0
 80164  1  0  0  0
 81 83  1  0  0  0
 81165  1  0  0  0
 81166  1  0  0  0
 82 89  1  0  0  0
 82167  1  0  0  0
 82168  1  0  0  0
 83169  1  0  0  0
 83170  1  0  0  0
 84 87  1  0  0  0
 84171  1  0  0  0
 84172  1  0  0  0
 85 87  1  0  0  0
 85173  1  0  0  0
 85174  1  0  0  0
 86 88  1  0  0  0
 86175  1  0  0  0
 86176  1  0  0  0
 87177  1  0  0  0
 87178  1  0  0  0
 88179  1  0  0  0
 88180  1  0  0  0
 89 91  1  0  0  0
 89181  1  0  0  0
 91182  1  0  0  0
M  ISO  4   1 100  68 101  88 101  91 100
M  END
> <chiral flag>
0

> <version>
0

> <s_m_source_file>
/data/baiqing/PycharmProjects/Reinvent-master-3.2/result/LINK_invent/BTK/process_docking_weight1_custom_sum_contain_oxygen_bond_distance_aromatic_linkinvent_7_9_3/rearranged_h_0090.sdf

> <i_m_source_file_index>
89

> <r_mmod_Potential_Energy-OPLS-2005>
190.14192199707

> <r_mmod_Stretch_Energy-OPLS-2005>
149.138168334961

> <r_mmod_Bend_Energy-OPLS-2005>
223.321441650391

> <r_mmod_Torsional_Energy-OPLS-2005>
242.003631591797

> <r_mmod_Improper_Torsional_Energy-OPLS-2005>
6.17040491104126

> <r_mmod_Van_der_Waal_Energy-OPLS-2005>
134.571258544922

> <r_mmod_Electrostatic_Energy-OPLS-2005>
-439.166046142578

> <r_mmod_Solvation_Energy-OPLS-2005>
-212.028244018555

> <b_mmod_Minimization_Converged-OPLS-2005>
0

> <r_mmod_RMS_Derivative-OPLS-2005>
5.5687050819397

$$$$
90
                    3D
 Structure written by MMmdl.
163171  0  0  1  0            999 V2000
  -30.6299  -14.7336   20.4502 C   0  0  0  0  0  0
  -30.4237  -12.4439   19.4820 C   0  0  0  0  0  0
  -29.5045  -12.4991   18.2418 C   0  0  0  0  0  0
  -28.0331  -12.3202   18.6582 C   0  0  0  0  0  0
  -27.6382  -13.2314   19.8509 C   0  0  2  0  0  0
  -28.6829  -13.1785   20.9885 C   0  0  0  0  0  0
  -25.2490  -13.8198   20.5712 C   0  0  0  0  0  0
  -24.1776  -13.0442   20.9210 C   0  0  0  0  0  0
  -24.6371  -11.6925   20.8750 C   0  0  0  0  0  0
  -23.9051  -10.4297   21.0413 C   0  0  0  0  0  0
  -24.3601   -9.4217   21.9187 C   0  0  0  0  0  0
  -23.6290   -8.2244   22.0761 C   0  0  0  0  0  0
  -22.4274   -8.0272   21.3551 C   0  0  0  0  0  0
  -21.9903   -9.0239   20.4650 C   0  0  0  0  0  0
  -22.7221  -10.2128   20.3064 C   0  0  0  0  0  0
  -21.6848   -6.0727   22.5277 C   0  0  0  0  0  0
  -21.4006   -6.5635   23.8205 C   0  0  0  0  0  0
  -21.3665   -5.6795   24.9174 C   0  0  0  0  0  0
  -21.6055   -4.3060   24.7227 C   0  0  0  0  0  0
  -21.8815   -3.8144   23.4349 C   0  0  0  0  0  0
  -21.9188   -4.6956   22.3404 C   0  0  0  0  0  0
  -22.7803  -13.5225   21.1875 C   0  0  0  0  0  0
  -22.1661   -4.2141   21.0982 F   0  0  0  0  0  0
  -21.5639   -3.4546   25.7743 F   0  0  0  0  0  0
  -29.9868  -13.5163   20.4052 N   0  0  0  0  0  0
  -26.2915  -12.9405   20.3303 N   0  0  0  0  0  0
  -25.9299  -11.6549   20.5779 N   0  0  0  0  0  0
  -22.0456  -12.8210   22.0427 N   0  0  0  0  0  0
  -25.4173  -15.1924   20.4126 N   0  0  0  0  0  0
  -31.8181  -14.8062   20.1278 O   0  0  0  0  0  0
  -21.6644   -6.8868   21.4241 O   0  0  0  0  0  0
  -22.3491  -14.5530   20.6725 O   0  0  0  0  0  0
  -24.6308  -31.8551   23.1989 C   0  0  0  0  0  0
  -25.9136  -32.4759   23.8343 C   0  0  1  0  0  0
  -27.2192  -27.2736   20.1282 C   0  0  0  0  0  0
  -25.5929  -33.8569   24.2256 N   0  0  0  0  0  0
  -23.4282  -30.4793   21.5419 C   0  0  2  0  0  0
  -24.8762  -28.9260   20.1110 C   0  0  0  0  0  0
  -22.7493  -29.4615   22.4912 C   0  0  0  0  0  0
  -18.0279  -28.1364   22.8473 C   0  0  0  0  0  0
  -24.1494  -36.7290   23.2635 C   0  0  0  0  0  0
  -25.9737  -30.7731   21.3760 C   0  0  0  0  0  0
  -26.0483  -29.3966   20.7172 C   0  0  0  0  0  0
  -27.2271  -28.5837   20.7116 C   0  0  0  0  0  0
  -26.0283  -26.8683   19.4902 C   0  0  0  0  0  0
  -24.8696  -27.6694   19.4861 C   0  0  0  0  0  0
  -23.6449  -29.8104   20.1590 C   0  0  0  0  0  0
  -25.4127  -36.3082   24.0316 C   0  0  1  0  0  0
  -20.5895  -28.3704   23.1251 C   0  0  2  0  0  0
  -20.6777  -26.9420   22.5402 C   0  0  0  0  0  0
  -19.5766  -26.6374   21.5198 C   0  0  0  0  0  0
  -18.1930  -26.7905   22.1598 C   0  0  0  0  0  0
  -19.1530  -28.8836   23.2863 C   0  0  0  0  0  0
  -18.9465  -30.1412   23.8921 C   0  0  0  0  0  0
  -17.6474  -30.6581   24.0541 C   0  0  0  0  0  0
  -25.9082  -34.9448   23.5100 C   0  0  0  0  0  0
  -16.5359  -29.9091   23.6311 C   0  0  0  0  0  0
  -16.7269  -28.6483   23.0384 C   0  0  0  0  0  0
  -26.4502  -31.6597   25.0739 C   0  0  0  0  0  0
  -25.3707  -31.3713   26.1440 C   0  0  0  0  0  0
  -27.0352  -30.3019   24.6229 C   0  0  0  0  0  0
  -27.6068  -32.4334   25.7504 C   0  0  0  0  0  0
  -27.5585  -37.1792   24.8452 C   0  0  0  0  0  0
  -21.4201  -29.3060   22.3639 N   0  0  0  0  0  0
  -26.4300  -37.3785   23.9400 N   0  0  0  0  0  0
  -24.6965  -31.0527   22.0956 N   0  0  0  0  0  0
  -23.4172  -28.8161   23.3032 O   0  0  0  0  0  0
  -28.3024  -26.3706   20.1488 O   0  0  0  0  0  0
  -26.5668  -34.8909   22.4684 O   0  0  0  0  0  0
  -23.5469  -32.1371   23.7312 O   0  0  0  0  0  0
  -29.4965  -19.9266   20.3256 C   0  0  0  0  0  0
  -28.8928  -20.8446   21.2846 C   0  0  0  0  0  0
  -29.6494  -18.6293   20.8372 C   0  0  0  0  0  0
  -28.6502  -20.0166   22.3715 C   0  0  0  0  0  0
  -26.3890  -20.3583   23.4695 C   0  0  0  0  0  0
  -28.4127  -21.5262   24.4624 C   0  0  0  0  0  0
  -29.2859  -17.6561   23.1292 C   0  0  0  0  0  0
  -28.5080  -22.4070   21.3216 C   0  0  0  0  0  0
  -30.3172  -17.3139   20.2536 C   0  0  0  0  0  0
  -28.7044  -23.6047   20.2612 C   0  0  0  0  0  0
  -28.0620  -25.0177   20.7546 C   0  0  0  0  0  0
  -27.9120  -20.3037   23.6760 C   0  0  0  0  0  0
  -29.1924  -18.7341   22.1440 N   0  0  0  0  0  0
  -29.8856  -15.8908   20.6181 N   0  0  0  0  0  0
  -31.4674  -12.5507   19.1826 H   0  0  0  0  0  0
  -30.3532  -11.4717   19.9731 H   0  0  0  0  0  0
  -29.7860  -11.7255   17.5266 H   0  0  0  0  0  0
  -29.6260  -13.4545   17.7291 H   0  0  0  0  0  0
  -27.8978  -11.2743   18.9368 H   0  0  0  0  0  0
  -27.3711  -12.4967   17.8096 H   0  0  0  0  0  0
  -27.6295  -14.2483   19.4586 H   0  0  0  0  0  0
  -28.7139  -12.1875   21.4435 H   0  0  0  0  0  0
  -28.4201  -13.8750   21.7862 H   0  0  0  0  0  0
  -25.2738   -9.5705   22.4774 H   0  0  0  0  0  0
  -23.9994   -7.4646   22.7492 H   0  0  0  0  0  0
  -21.0828   -8.8755   19.8959 H   0  0  0  0  0  0
  -22.3662  -10.9670   19.6183 H   0  0  0  0  0  0
  -21.1990   -7.6140   23.9704 H   0  0  0  0  0  0
  -21.1504   -6.0531   25.9077 H   0  0  0  0  0  0
  -22.0589   -2.7604   23.2855 H   0  0  0  0  0  0
  -22.4066  -11.9847   22.4777 H   0  0  0  0  0  0
  -21.1089  -13.1257   22.2683 H   0  0  0  0  0  0
  -24.6470  -15.8435   20.5220 H   0  0  0  0  0  0
  -26.2627  -15.6365   20.0793 H   0  0  0  0  0  0
  -26.7203  -32.5401   23.1086 H   0  0  0  0  0  0
  -25.0011  -33.9725   25.0349 H   0  0  0  0  0  0
  -22.7265  -31.3033   21.3949 H   0  0  0  0  0  0
  -23.3767  -35.9611   23.3292 H   0  0  0  0  0  0
  -24.3570  -36.8943   22.2045 H   0  0  0  0  0  0
  -23.7245  -37.6480   23.6693 H   0  0  0  0  0  0
  -26.1112  -31.5357   20.6076 H   0  0  0  0  0  0
  -26.8504  -30.8224   22.0113 H   0  0  0  0  0  0
  -28.1282  -28.9389   21.1922 H   0  0  0  0  0  0
  -25.9853  -25.9032   19.0064 H   0  0  0  0  0  0
  -23.9707  -27.3084   19.0056 H   0  0  0  0  0  0
  -23.7648  -30.5856   19.4012 H   0  0  0  0  0  0
  -22.7623  -29.2420   19.8603 H   0  0  0  0  0  0
  -25.1309  -36.1927   25.0805 H   0  0  0  0  0  0
  -20.9972  -28.3305   24.1388 H   0  0  0  0  0  0
  -20.5662  -26.2328   23.3621 H   0  0  0  0  0  0
  -21.6650  -26.7451   22.1211 H   0  0  0  0  0  0
  -19.6965  -25.6288   21.1235 H   0  0  0  0  0  0
  -19.6712  -27.3173   20.6714 H   0  0  0  0  0  0
  -17.4213  -26.6636   21.3990 H   0  0  0  0  0  0
  -18.0334  -26.0034   22.8976 H   0  0  0  0  0  0
  -19.7950  -30.7163   24.2367 H   0  0  0  0  0  0
  -17.5054  -31.6284   24.5110 H   0  0  0  0  0  0
  -15.5369  -30.3013   23.7632 H   0  0  0  0  0  0
  -15.8652  -28.0786   22.7178 H   0  0  0  0  0  0
  -24.5968  -30.6982   25.7730 H   0  0  0  0  0  0
  -24.8775  -32.2838   26.4799 H   0  0  0  0  0  0
  -25.7993  -30.8946   27.0264 H   0  0  0  0  0  0
  -26.2940  -29.6750   24.1260 H   0  0  0  0  0  0
  -27.4031  -29.7310   25.4758 H   0  0  0  0  0  0
  -27.8815  -30.4283   23.9476 H   0  0  0  0  0  0
  -27.2739  -33.3676   26.2051 H   0  0  0  0  0  0
  -28.3899  -32.6834   25.0329 H   0  0  0  0  0  0
  -28.0730  -31.8472   26.5438 H   0  0  0  0  0  0
  -28.2586  -38.0100   24.7544 H   0  0  0  0  0  0
  -28.1098  -36.2639   24.6248 H   0  0  0  0  0  0
  -27.2294  -37.1404   25.8847 H   0  0  0  0  0  0
  -20.9395  -29.8767   21.6822 H   0  0  0  0  0  0
  -26.0175  -38.2852   24.1431 H   0  0  0  0  0  0
  -29.8207  -20.2044   19.3315 H   0  0  0  0  0  0
  -26.0201  -19.4354   23.0207 H   0  0  0  0  0  0
  -26.0895  -21.1808   22.8218 H   0  0  0  0  0  0
  -25.8706  -20.4848   24.4209 H   0  0  0  0  0  0
  -29.5021  -21.5479   24.5171 H   0  0  0  0  0  0
  -28.0386  -21.4975   25.4866 H   0  0  0  0  0  0
  -28.0638  -22.4674   24.0419 H   0  0  0  0  0  0
  -30.1112  -16.9880   22.8958 H   0  0  0  0  0  0
  -28.3579  -17.0860   23.1637 H   0  0  0  0  0  0
  -29.5208  -18.0410   24.1198 H   0  0  0  0  0  0
  -29.0609  -22.7712   22.1836 H   0  0  0  0  0  0
  -27.4583  -22.4407   21.6062 H   0  0  0  0  0  0
  -31.3861  -17.3841   20.4596 H   0  0  0  0  0  0
  -30.2478  -17.3718   19.1670 H   0  0  0  0  0  0
  -28.2567  -23.3289   19.3067 H   0  0  0  0  0  0
  -29.7694  -23.7376   20.0734 H   0  0  0  0  0  0
  -28.3821  -25.1472   21.7887 H   0  0  0  0  0  0
  -26.9885  -24.8486   20.8379 H   0  0  0  0  0  0
  -28.0474  -19.4809   24.3716 H   0  0  0  0  0  0
  -28.9089  -15.7660   20.8330 H   0  0  0  0  0  0
  1 25  1  0  0  0
  1 30  2  0  0  0
  1 84  1  0  0  0
  2  3  1  0  0  0
  2 25  1  0  0  0
  2 85  1  0  0  0
  2 86  1  0  0  0
  3  4  1  0  0  0
  3 87  1  0  0  0
  3 88  1  0  0  0
  4  5  1  0  0  0
  4 89  1  0  0  0
  4 90  1  0  0  0
  5  6  1  0  0  0
  5 26  1  0  0  0
  5 91  1  0  0  0
  6 25  1  0  0  0
  6 92  1  0  0  0
  6 93  1  0  0  0
  7  8  2  0  0  0
  7 26  1  0  0  0
  7 29  1  0  0  0
  8  9  1  0  0  0
  8 22  1  0  0  0
  9 10  1  0  0  0
  9 27  2  0  0  0
 10 11  2  0  0  0
 10 15  1  0  0  0
 11 12  1  0  0  0
 11 94  1  0  0  0
 12 13  2  0  0  0
 12 95  1  0  0  0
 13 14  1  0  0  0
 13 31  1  0  0  0
 14 15  2  0  0  0
 14 96  1  0  0  0
 15 97  1  0  0  0
 16 17  2  0  0  0
 16 21  1  0  0  0
 16 31  1  0  0  0
 17 18  1  0  0  0
 17 98  1  0  0  0
 18 19  2  0  0  0
 18 99  1  0  0  0
 19 20  1  0  0  0
 19 24  1  0  0  0
 20 21  2  0  0  0
 20100  1  0  0  0
 21 23  1  0  0  0
 22 28  1  0  0  0
 22 32  2  0  0  0
 26 27  1  0  0  0
 28101  1  0  0  0
 28102  1  0  0  0
 29103  1  0  0  0
 29104  1  0  0  0
 33 34  1  0  0  0
 33 66  1  0  0  0
 33 70  2  0  0  0
 34 36  1  0  0  0
 34 59  1  0  0  0
 34105  1  0  0  0
 35 44  2  0  0  0
 35 45  1  0  0  0
 35 68  1  0  0  0
 36 56  1  0  0  0
 36106  1  0  0  0
 37 39  1  0  0  0
 37 47  1  0  0  0
 37 66  1  0  0  0
 37107  1  0  0  0
 38 43  2  0  0  0
 38 46  1  0  0  0
 38 47  1  0  0  0
 39 64  1  0  0  0
 39 67  2  0  0  0
 40 52  1  0  0  0
 40 53  2  0  0  0
 40 58  1  0  0  0
 41108  1  0  0  0
 41109  1  0  0  0
 41110  1  0  0  0
 41 48  1  0  0  0
 42 43  1  0  0  0
 42 66  1  0  0  0
 42111  1  0  0  0
 42112  1  0  0  0
 43 44  1  0  0  0
 44113  1  0  0  0
 45 46  2  0  0  0
 45114  1  0  0  0
 46115  1  0  0  0
 47116  1  0  0  0
 47117  1  0  0  0
 48 56  1  0  0  0
 48 65  1  0  0  0
 48118  1  0  0  0
 49 50  1  0  0  0
 49 53  1  0  0  0
 49 64  1  0  0  0
 49119  1  0  0  0
 50 51  1  0  0  0
 50120  1  0  0  0
 50121  1  0  0  0
 51 52  1  0  0  0
 51122  1  0  0  0
 51123  1  0  0  0
 52124  1  0  0  0
 52125  1  0  0  0
 53 54  1  0  0  0
 54 55  2  0  0  0
 54126  1  0  0  0
 55 57  1  0  0  0
 55127  1  0  0  0
 56 69  2  0  0  0
 57 58  2  0  0  0
 57128  1  0  0  0
 58129  1  0  0  0
 59 60  1  0  0  0
 59 61  1  0  0  0
 59 62  1  0  0  0
 60130  1  0  0  0
 60131  1  0  0  0
 60132  1  0  0  0
 61133  1  0  0  0
 61134  1  0  0  0
 61135  1  0  0  0
 62136  1  0  0  0
 62137  1  0  0  0
 62138  1  0  0  0
 63 65  1  0  0  0
 63139  1  0  0  0
 63140  1  0  0  0
 63141  1  0  0  0
 64142  1  0  0  0
 65143  1  0  0  0
 68 81  1  0  0  0
 71 72  1  0  0  0
 71 73  2  0  0  0
 71144  1  0  0  0
 72 74  2  0  0  0
 72 78  1  0  0  0
 73 79  1  0  0  0
 73 83  1  0  0  0
 74 82  1  0  0  0
 74 83  1  0  0  0
 75145  1  0  0  0
 75146  1  0  0  0
 75147  1  0  0  0
 75 82  1  0  0  0
 76 82  1  0  0  0
 76148  1  0  0  0
 76149  1  0  0  0
 76150  1  0  0  0
 77 83  1  0  0  0
 77151  1  0  0  0
 77152  1  0  0  0
 77153  1  0  0  0
 78 80  1  0  0  0
 78154  1  0  0  0
 78155  1  0  0  0
 79 84  1  0  0  0
 79156  1  0  0  0
 79157  1  0  0  0
 80 81  1  0  0  0
 80158  1  0  0  0
 80159  1  0  0  0
 81160  1  0  0  0
 81161  1  0  0  0
 82162  1  0  0  0
 84163  1  0  0  0
M  ISO  4   1 100  68 101  81 101  84 100
M  END
> <chiral flag>
0

> <version>
0

> <s_m_source_file>
/data/baiqing/PycharmProjects/Reinvent-master-3.2/result/LINK_invent/BTK/process_docking_weight1_custom_sum_contain_oxygen_bond_distance_aromatic_linkinvent_7_9_3/rearranged_h_0090.sdf

> <i_m_source_file_index>
90

> <r_mmod_Potential_Energy-OPLS-2005>
118.370475769043

> <r_mmod_Stretch_Energy-OPLS-2005>
122.233734130859

> <r_mmod_Bend_Energy-OPLS-2005>
210.364624023438

> <r_mmod_Torsional_Energy-OPLS-2005>
237.068161010742

> <r_mmod_Improper_Torsional_Energy-OPLS-2005>
6.11776161193848

> <r_mmod_Van_der_Waal_Energy-OPLS-2005>
125.84236907959

> <r_mmod_Electrostatic_Energy-OPLS-2005>
-457.935180664062

> <r_mmod_Solvation_Energy-OPLS-2005>
-206.286163330078

> <b_mmod_Minimization_Converged-OPLS-2005>
0

> <r_mmod_RMS_Derivative-OPLS-2005>
2.12559723854065

$$$$
91
                    3D
 Structure written by MMmdl.
181189  0  0  1  0            999 V2000
  -28.7334  -18.0457   20.7313 C   0  0  0  0  0  0
  -29.8029  -15.0252   19.6931 C   0  0  0  0  0  0
  -29.4678  -13.7237   18.6767 C   0  0  0  0  0  0
  -28.3784  -12.7703   19.1556 C   0  0  0  0  0  0
  -27.4985  -13.7139   19.9638 C   0  0  2  0  0  0
  -28.1667  -14.8124   20.9885 C   0  0  0  0  0  0
  -25.1353  -13.8950   20.6151 C   0  0  0  0  0  0
  -24.1276  -13.0507   20.9427 C   0  0  0  0  0  0
  -24.6614  -11.7244   20.8743 C   0  0  0  0  0  0
  -23.9472  -10.4395   21.0254 C   0  0  0  0  0  0
  -24.3879   -9.4286   21.9090 C   0  0  0  0  0  0
  -23.6453   -8.2358   22.0755 C   0  0  0  0  0  0
  -22.4417   -8.0384   21.3556 C   0  0  0  0  0  0
  -22.0125   -9.0353   20.4608 C   0  0  0  0  0  0
  -22.7591  -10.2183   20.2938 C   0  0  0  0  0  0
  -21.6920   -6.0786   22.5281 C   0  0  0  0  0  0
  -21.4075   -6.5669   23.8205 C   0  0  0  0  0  0
  -21.3664   -5.6824   24.9161 C   0  0  0  0  0  0
  -21.6043   -4.3071   24.7228 C   0  0  0  0  0  0
  -21.8811   -3.8169   23.4331 C   0  0  0  0  0  0
  -21.9224   -4.7010   22.3397 C   0  0  0  0  0  0
  -22.7211  -13.4878   21.1960 C   0  0  0  0  0  0
  -22.1675   -4.2186   21.0973 F   0  0  0  0  0  0
  -21.5615   -3.4547   25.7718 F   0  0  0  0  0  0
  -28.7230  -16.2303   20.3848 N   0  0  0  0  0  0
  -26.2465  -13.1209   20.4147 N   0  0  0  0  0  0
  -25.9775  -11.7811   20.5851 N   0  0  0  0  0  0
  -22.0044  -12.7765   22.0535 N   0  0  0  0  0  0
  -25.1923  -15.2746   20.4441 N   0  0  0  0  0  0
  -30.0332  -17.6962   20.7073 O   0  0  0  0  0  0
  -21.6743   -6.8974   21.4247 O   0  0  0  0  0  0
  -22.2772  -14.5162   20.6843 O   0  0  0  0  0  0
  -24.6573  -31.2268   23.6625 C   0  0  0  0  0  0
  -25.8186  -32.1776   24.0400 C   0  0  1  0  0  0
  -28.6602  -27.3047   18.6048 C   0  0  0  0  0  0
  -25.9498  -33.5352   23.4782 N   0  0  0  0  0  0
  -23.0406  -29.2328   22.0370 C   0  0  2  0  0  0
  -25.3906  -26.6444   19.4432 C   0  0  0  0  0  0
  -22.3528  -28.9489   23.1530 C   0  0  0  0  0  0
  -17.8396  -28.1099   22.8378 C   0  0  0  0  0  0
  -24.1207  -36.5939   23.4867 C   0  0  0  0  0  0
  -26.7124  -29.4149   22.2297 C   0  0  0  0  0  0
  -27.1674  -27.8240   20.7487 C   0  0  0  0  0  0
  -28.4842  -28.0094   20.0416 C   0  0  0  0  0  0
  -27.4350  -26.5234   17.6259 C   0  0  0  0  0  0
  -25.8680  -26.2340   18.0616 C   0  0  0  0  0  0
  -23.1764  -27.3030   20.2337 C   0  0  0  0  0  0
  -25.4165  -36.0752   24.1642 C   0  0  1  0  0  0
  -20.2564  -28.1146   23.4551 C   0  0  2  0  0  0
  -20.4291  -26.7748   22.7079 C   0  0  0  0  0  0
  -19.4547  -26.6213   21.5489 C   0  0  0  0  0  0
  -18.0299  -26.7862   22.1033 C   0  0  0  0  0  0
  -18.9286  -28.7764   23.4096 C   0  0  0  0  0  0
  -18.7937  -30.0609   23.9817 C   0  0  0  0  0  0
  -17.5325  -30.6585   24.0547 C   0  0  0  0  0  0
  -25.9594  -34.8646   23.3411 C   0  0  0  0  0  0
  -16.4136  -29.9520   23.5741 C   0  0  0  0  0  0
  -16.5669  -28.6895   22.9616 C   0  0  0  0  0  0
  -26.5599  -31.7347   25.3011 C   0  0  0  0  0  0
  -25.5266  -31.4722   26.4131 C   0  0  0  0  0  0
  -27.3316  -30.4300   25.0303 C   0  0  0  0  0  0
  -27.5904  -32.7450   25.8186 C   0  0  0  0  0  0
  -27.5606  -36.9910   24.9617 C   0  0  0  0  0  0
  -21.0951  -29.0455   22.8857 N   0  0  0  0  0  0
  -26.3713  -37.2244   24.1445 N   0  0  0  0  0  0
  -24.8204  -29.9417   23.0920 N   0  0  0  0  0  0
  -22.9298  -28.5378   24.1458 O   0  0  0  0  0  0
  -29.7236  -26.5834   18.9616 O   0  0  0  0  0  0
  -26.5157  -35.1455   22.2918 O   0  0  0  0  0  0
  -23.5650  -31.6684   23.9810 O   0  0  0  0  0  0
  -24.9185  -28.5999   20.6755 C   0  0  0  0  0  0
  -25.1663  -27.1769   21.5179 C   0  0  0  0  0  0
  -24.9174  -28.0823   21.7818 C   0  0  0  0  0  0
  -25.7546  -25.3312   21.6407 C   0  0  0  0  0  0
  -21.6771  -33.6022   23.8980 C   0  0  0  0  0  0
  -28.4186  -25.5037   21.1978 C   0  0  0  0  0  0
  -25.6775  -26.5132   23.9562 C   0  0  0  0  0  0
  -26.4724  -19.6060   20.3007 C   0  0  0  0  0  0
  -25.5536  -28.8328   19.5434 C   0  0  0  0  0  0
  -24.8060  -30.5169   20.9596 C   0  0  0  0  0  0
  -26.8722  -22.5777   21.4993 C   0  0  0  0  0  0
  -21.7246  -33.2314   22.3747 C   0  0  0  0  0  0
  -26.6121  -28.4053   18.6196 C   0  0  0  0  0  0
  -23.5492  -31.6873   20.8031 C   0  0  0  0  0  0
  -23.1179  -33.0044   21.6426 C   0  0  0  0  0  0
  -28.4343  -24.6094   19.0488 C   0  0  0  0  0  0
  -29.7217  -25.2442   18.5057 C   0  0  0  0  0  0
  -27.5167  -25.7267   19.8127 C   0  0  1  0  0  0
  -25.4963  -26.6405   22.4977 N   0  0  0  0  0  0
  -27.6908  -20.0033   20.9634 N   0  0  0  0  0  0
  -30.4577  -15.6482   19.0807 H   0  0  0  0  0  0
  -30.5179  -14.6847   20.4500 H   0  0  0  0  0  0
  -30.3696  -13.1553   18.4550 H   0  0  0  0  0  0
  -29.1303  -14.1306   17.7204 H   0  0  0  0  0  0
  -28.7893  -11.9847   19.7994 H   0  0  0  0  0  0
  -27.8365  -12.2925   18.3304 H   0  0  0  0  0  0
  -27.1502  -14.3664   19.1577 H   0  0  0  0  0  0
  -28.8525  -14.3140   21.6771 H   0  0  0  0  0  0
  -27.4073  -15.1312   21.6950 H   0  0  0  0  0  0
  -25.2950   -9.5790   22.4786 H   0  0  0  0  0  0
  -24.0100   -7.4785   22.7558 H   0  0  0  0  0  0
  -21.1036   -8.8919   19.8937 H   0  0  0  0  0  0
  -22.3990  -10.9714   19.6083 H   0  0  0  0  0  0
  -21.2089   -7.6183   23.9728 H   0  0  0  0  0  0
  -21.1473   -6.0534   25.9064 H   0  0  0  0  0  0
  -22.0576   -2.7635   23.2826 H   0  0  0  0  0  0
  -22.3844  -11.9538   22.4963 H   0  0  0  0  0  0
  -21.0619  -13.0640   22.2751 H   0  0  0  0  0  0
  -24.3567  -15.8464   20.4953 H   0  0  0  0  0  0
  -26.0114  -15.7708   20.1115 H   0  0  0  0  0  0
  -26.4840  -31.8219   23.2688 H   0  0  0  0  0  0
  -26.2922  -33.3222   22.5493 H   0  0  0  0  0  0
  -22.4333  -29.9828   21.6022 H   0  0  0  0  0  0
  -23.2942  -35.8894   23.6140 H   0  0  0  0  0  0
  -24.2252  -36.7695   22.4173 H   0  0  0  0  0  0
  -23.8182  -37.5448   23.9417 H   0  0  0  0  0  0
  -27.2908  -30.2592   21.9056 H   0  0  0  0  0  0
  -27.3447  -29.0310   23.0206 H   0  0  0  0  0  0
  -29.3220  -28.4392   20.5750 H   0  0  0  0  0  0
  -27.7291  -26.1251   16.6709 H   0  0  0  0  0  0
  -25.1662  -25.7698   17.3797 H   0  0  0  0  0  0
  -22.5118  -27.5389   19.3879 H   0  0  0  0  0  0
  -22.7490  -26.4011   20.6548 H   0  0  0  0  0  0
  -25.2095  -35.7771   25.1962 H   0  0  0  0  0  0
  -20.4589  -27.9595   24.5173 H   0  0  0  0  0  0
  -20.1881  -25.9863   23.4182 H   0  0  0  0  0  0
  -21.4577  -26.5644   22.4217 H   0  0  0  0  0  0
  -19.5567  -25.6353   21.0930 H   0  0  0  0  0  0
  -19.6589  -27.3457   20.7557 H   0  0  0  0  0  0
  -17.3120  -26.7127   21.2818 H   0  0  0  0  0  0
  -17.7989  -25.9716   22.7925 H   0  0  0  0  0  0
  -19.6411  -30.5787   24.4067 H   0  0  0  0  0  0
  -17.4239  -31.6306   24.5079 H   0  0  0  0  0  0
  -15.4331  -30.4052   23.6491 H   0  0  0  0  0  0
  -15.6910  -28.1879   22.5655 H   0  0  0  0  0  0
  -24.8783  -30.6046   26.2527 H   0  0  0  0  0  0
  -24.8843  -32.3430   26.5165 H   0  0  0  0  0  0
  -25.9989  -31.3442   27.3878 H   0  0  0  0  0  0
  -26.7113  -29.5374   24.9555 H   0  0  0  0  0  0
  -28.0173  -30.2371   25.8600 H   0  0  0  0  0  0
  -28.0088  -30.5497   24.1869 H   0  0  0  0  0  0
  -28.1252  -32.3421   26.6861 H   0  0  0  0  0  0
  -27.0904  -33.6625   26.1397 H   0  0  0  0  0  0
  -28.3581  -33.0193   25.0931 H   0  0  0  0  0  0
  -28.3175  -37.7511   24.8090 H   0  0  0  0  0  0
  -28.0211  -36.0357   24.7192 H   0  0  0  0  0  0
  -27.3383  -36.9488   26.0277 H   0  0  0  0  0  0
  -20.8055  -29.4381   22.0052 H   0  0  0  0  0  0
  -25.9152  -38.0655   24.4868 H   0  0  0  0  0  0
  -23.8591  -29.1193   20.2046 H   0  0  0  0  0  0
  -21.3773  -32.7606   24.5410 H   0  0  0  0  0  0
  -20.9795  -34.4016   24.1053 H   0  0  0  0  0  0
  -22.5950  -34.0330   24.2910 H   0  0  0  0  0  0
  -28.1595  -26.0912   22.0798 H   0  0  0  0  0  0
  -29.4859  -25.6876   21.0938 H   0  0  0  0  0  0
  -28.3702  -24.4986   21.5885 H   0  0  0  0  0  0
  -25.0079  -27.1766   24.4836 H   0  0  0  0  0  0
  -26.6800  -26.8177   24.2322 H   0  0  0  0  0  0
  -25.4487  -25.4951   24.2693 H   0  0  0  0  0  0
  -25.9411  -19.7920   21.2367 H   0  0  0  0  0  0
  -25.6669  -20.2916   20.0576 H   0  0  0  0  0  0
  -26.8034  -20.1810   19.4306 H   0  0  0  0  0  0
  -24.8309  -28.9961   18.6573 H   0  0  0  0  0  0
  -26.3101  -29.6949   19.6079 H   0  0  0  0  0  0
  -24.7814  -30.7743   19.8860 H   0  0  0  0  0  0
  -25.6537  -31.1733   21.1408 H   0  0  0  0  0  0
  -27.4472  -22.6497   22.4275 H   0  0  0  0  0  0
  -25.9047  -22.1672   21.8079 H   0  0  0  0  0  0
  -21.1437  -33.9981   21.8490 H   0  0  0  0  0  0
  -21.0974  -32.3629   22.2605 H   0  0  0  0  0  0
  -27.3751  -29.1797   18.2989 H   0  0  0  0  0  0
  -26.2188  -28.4804   17.5829 H   0  0  0  0  0  0
  -22.6426  -31.3288   20.3048 H   0  0  0  0  0  0
  -23.9295  -32.3152   19.9956 H   0  0  0  0  0  0
  -23.9322  -33.4325   22.1998 H   0  0  0  0  0  0
  -22.9993  -33.7431   20.8476 H   0  0  0  0  0  0
  -28.7015  -23.7450   19.6607 H   0  0  0  0  0  0
  -27.8812  -24.1335   18.2342 H   0  0  0  0  0  0
  -29.7632  -25.2191   17.4193 H   0  0  0  0  0  0
  -30.6191  -24.7444   18.8751 H   0  0  0  0  0  0
  -26.7988  -24.9010   19.7504 H   0  0  0  0  0  0
  1 25  1  0  0  0
  1 30  2  0  0  0
  1 90  1  0  0  0
  2  3  1  0  0  0
  2 25  1  0  0  0
  2 91  1  0  0  0
  2 92  1  0  0  0
  3  4  1  0  0  0
  3 93  1  0  0  0
  3 94  1  0  0  0
  4  5  1  0  0  0
  4 95  1  0  0  0
  4 96  1  0  0  0
  5  6  1  0  0  0
  5 26  1  0  0  0
  5 97  1  0  0  0
  6 25  1  0  0  0
  6 98  1  0  0  0
  6 99  1  0  0  0
  7  8  2  0  0  0
  7 26  1  0  0  0
  7 29  1  0  0  0
  8  9  1  0  0  0
  8 22  1  0  0  0
  9 10  1  0  0  0
  9 27  2  0  0  0
 10 11  2  0  0  0
 10 15  1  0  0  0
 11 12  1  0  0  0
 11100  1  0  0  0
 12 13  2  0  0  0
 12101  1  0  0  0
 13 14  1  0  0  0
 13 31  1  0  0  0
 14 15  2  0  0  0
 14102  1  0  0  0
 15103  1  0  0  0
 16 17  2  0  0  0
 16 21  1  0  0  0
 16 31  1  0  0  0
 17 18  1  0  0  0
 17104  1  0  0  0
 18 19  2  0  0  0
 18105  1  0  0  0
 19 20  1  0  0  0
 19 24  1  0  0  0
 20 21  2  0  0  0
 20106  1  0  0  0
 21 23  1  0  0  0
 22 28  1  0  0  0
 22 32  2  0  0  0
 26 27  1  0  0  0
 28107  1  0  0  0
 28108  1  0  0  0
 29109  1  0  0  0
 29110  1  0  0  0
 33 34  1  0  0  0
 33 66  1  0  0  0
 33 70  2  0  0  0
 34 36  1  0  0  0
 34 59  1  0  0  0
 34111  1  0  0  0
 35 44  2  0  0  0
 35 45  1  0  0  0
 35 68  1  0  0  0
 36 56  1  0  0  0
 36112  1  0  0  0
 37 39  1  0  0  0
 37 47  1  0  0  0
 37 66  1  0  0  0
 37113  1  0  0  0
 38 43  2  0  0  0
 38 46  1  0  0  0
 38 47  1  0  0  0
 39 64  1  0  0  0
 39 67  2  0  0  0
 40 52  1  0  0  0
 40 53  2  0  0  0
 40 58  1  0  0  0
 41114  1  0  0  0
 41115  1  0  0  0
 41116  1  0  0  0
 41 48  1  0  0  0
 42 43  1  0  0  0
 42 66  1  0  0  0
 42117  1  0  0  0
 42118  1  0  0  0
 43 44  1  0  0  0
 44119  1  0  0  0
 45 46  2  0  0  0
 45120  1  0  0  0
 46121  1  0  0  0
 47122  1  0  0  0
 47123  1  0  0  0
 48 56  1  0  0  0
 48 65  1  0  0  0
 48124  1  0  0  0
 49 50  1  0  0  0
 49 53  1  0  0  0
 49 64  1  0  0  0
 49125  1  0  0  0
 50 51  1  0  0  0
 50126  1  0  0  0
 50127  1  0  0  0
 51 52  1  0  0  0
 51128  1  0  0  0
 51129  1  0  0  0
 52130  1  0  0  0
 52131  1  0  0  0
 53 54  1  0  0  0
 54 55  2  0  0  0
 54132  1  0  0  0
 55 57  1  0  0  0
 55133  1  0  0  0
 56 69  2  0  0  0
 57 58  2  0  0  0
 57134  1  0  0  0
 58135  1  0  0  0
 59 60  1  0  0  0
 59 61  1  0  0  0
 59 62  1  0  0  0
 60136  1  0  0  0
 60137  1  0  0  0
 60138  1  0  0  0
 61139  1  0  0  0
 61140  1  0  0  0
 61141  1  0  0  0
 62142  1  0  0  0
 62143  1  0  0  0
 62144  1  0  0  0
 63 65  1  0  0  0
 63145  1  0  0  0
 63146  1  0  0  0
 63147  1  0  0  0
 64148  1  0  0  0
 65149  1  0  0  0
 68 87  1  0  0  0
 71 72  1  0  0  0
 71 73  2  0  0  0
 71150  1  0  0  0
 72 74  2  0  0  0
 72 79  1  0  0  0
 73 80  1  0  0  0
 73 89  1  0  0  0
 74 81  1  0  0  0
 74 89  1  0  0  0
 75 82  1  0  0  0
 75151  1  0  0  0
 75152  1  0  0  0
 75153  1  0  0  0
 76154  1  0  0  0
 76155  1  0  0  0
 76156  1  0  0  0
 76 88  1  0  0  0
 77 89  1  0  0  0
 77157  1  0  0  0
 77158  1  0  0  0
 77159  1  0  0  0
 78 90  1  0  0  0
 78160  1  0  0  0
 78161  1  0  0  0
 78162  1  0  0  0
 79 83  1  0  0  0
 79163  1  0  0  0
 79164  1  0  0  0
 80 84  1  0  0  0
 80165  1  0  0  0
 80166  1  0  0  0
 81 90  1  0  0  0
 81167  1  0  0  0
 81168  1  0  0  0
 82 85  1  0  0  0
 82169  1  0  0  0
 82170  1  0  0  0
 83 88  1  0  0  0
 83171  1  0  0  0
 83172  1  0  0  0
 84 85  1  0  0  0
 84173  1  0  0  0
 84174  1  0  0  0
 85175  1  0  0  0
 85176  1  0  0  0
 86 87  1  0  0  0
 86 88  1  0  0  0
 86177  1  0  0  0
 86178  1  0  0  0
 87179  1  0  0  0
 87180  1  0  0  0
 88181  1  0  0  0
M  ISO  4   1 100  68 101  87 101  90 100
M  END
> <chiral flag>
0

> <version>
0

> <s_m_source_file>
/data/baiqing/PycharmProjects/Reinvent-master-3.2/result/LINK_invent/BTK/process_docking_weight1_custom_sum_contain_oxygen_bond_distance_aromatic_linkinvent_7_9_3/rearranged_h_0090.sdf

> <i_m_source_file_index>
91

> <r_mmod_Potential_Energy-OPLS-2005>
44946.35546875

> <r_mmod_Stretch_Energy-OPLS-2005>
22130.658203125

> <r_mmod_Bend_Energy-OPLS-2005>
5311.7861328125

> <r_mmod_Torsional_Energy-OPLS-2005>
716.174560546875

> <r_mmod_Improper_Torsional_Energy-OPLS-2005>
85.5067977905273

> <r_mmod_Van_der_Waal_Energy-OPLS-2005>
6487.71875

> <r_mmod_Electrostatic_Energy-OPLS-2005>
-252.568923950195

> <r_mmod_Solvation_Energy-OPLS-2005>
-221.742416381836

> <b_mmod_Minimization_Converged-OPLS-2005>
0

> <r_mmod_RMS_Derivative-OPLS-2005>
36.1504135131836

$$$$
93
                    3D
 Structure written by MMmdl.
155163  0  0  1  0            999 V2000
  -30.7084  -14.4924   20.5993 C   0  0  0  0  0  0
  -30.4243  -12.3260   19.4322 C   0  0  0  0  0  0
  -29.4966  -12.5107   18.2133 C   0  0  0  0  0  0
  -28.0180  -12.3589   18.6195 C   0  0  0  0  0  0
  -27.6575  -13.2048   19.8681 C   0  0  2  0  0  0
  -28.6931  -12.9935   20.9909 C   0  0  0  0  0  0
  -25.2572  -13.8156   20.5667 C   0  0  0  0  0  0
  -24.1822  -13.0444   20.9168 C   0  0  0  0  0  0
  -24.6364  -11.6910   20.8713 C   0  0  0  0  0  0
  -23.9029  -10.4299   21.0385 C   0  0  0  0  0  0
  -24.3590   -9.4226   21.9169 C   0  0  0  0  0  0
  -23.6284   -8.2251   22.0740 C   0  0  0  0  0  0
  -22.4268   -8.0273   21.3533 C   0  0  0  0  0  0
  -21.9889   -9.0236   20.4631 C   0  0  0  0  0  0
  -22.7198  -10.2128   20.3039 C   0  0  0  0  0  0
  -21.6856   -6.0734   22.5283 C   0  0  0  0  0  0
  -21.4018   -6.5637   23.8219 C   0  0  0  0  0  0
  -21.3662   -5.6788   24.9178 C   0  0  0  0  0  0
  -21.6040   -4.3049   24.7227 C   0  0  0  0  0  0
  -21.8823   -3.8141   23.4349 C   0  0  0  0  0  0
  -21.9199   -4.6963   22.3406 C   0  0  0  0  0  0
  -22.7850  -13.5249   21.1856 C   0  0  0  0  0  0
  -22.1664   -4.2153   21.0981 F   0  0  0  0  0  0
  -21.5623   -3.4532   25.7740 F   0  0  0  0  0  0
  -30.0306  -13.3126   20.4545 N   0  0  0  0  0  0
  -26.2987  -12.9312   20.3307 N   0  0  0  0  0  0
  -25.9287  -11.6478   20.5726 N   0  0  0  0  0  0
  -22.0492  -12.8233   22.0408 N   0  0  0  0  0  0
  -25.4321  -15.1872   20.4091 N   0  0  0  0  0  0
  -31.8023  -14.6924   20.0596 O   0  0  0  0  0  0
  -21.6639   -6.8869   21.4238 O   0  0  0  0  0  0
  -22.3533  -14.5562   20.6725 O   0  0  0  0  0  0
  -24.6166  -31.8658   23.2097 C   0  0  0  0  0  0
  -25.9056  -32.4810   23.8393 C   0  0  1  0  0  0
  -27.2337  -27.4054   20.1090 C   0  0  0  0  0  0
  -25.5913  -33.8611   24.2318 N   0  0  0  0  0  0
  -23.4060  -30.4885   21.5508 C   0  0  2  0  0  0
  -24.8546  -28.9543   20.1154 C   0  0  0  0  0  0
  -22.7428  -29.4628   22.4986 C   0  0  0  0  0  0
  -18.0271  -28.1356   22.8479 C   0  0  0  0  0  0
  -24.1480  -36.7300   23.2639 C   0  0  0  0  0  0
  -25.9385  -30.8224   21.3711 C   0  0  0  0  0  0
  -26.0170  -29.4571   20.7141 C   0  0  0  0  0  0
  -27.2109  -28.6923   20.7033 C   0  0  0  0  0  0
  -26.0533  -26.9338   19.4889 C   0  0  0  0  0  0
  -24.8696  -27.6935   19.4977 C   0  0  0  0  0  0
  -23.6179  -29.8244   20.1647 C   0  0  0  0  0  0
  -25.4110  -36.3098   24.0328 C   0  0  1  0  0  0
  -20.5867  -28.3639   23.1307 C   0  0  2  0  0  0
  -20.6758  -26.9373   22.5414 C   0  0  0  0  0  0
  -19.5742  -26.6368   21.5196 C   0  0  0  0  0  0
  -18.1920  -26.7903   22.1606 C   0  0  0  0  0  0
  -19.1526  -28.8814   23.2879 C   0  0  0  0  0  0
  -18.9459  -30.1427   23.8877 C   0  0  0  0  0  0
  -17.6465  -30.6570   24.0551 C   0  0  0  0  0  0
  -25.9041  -34.9466   23.5119 C   0  0  0  0  0  0
  -16.5349  -29.9072   23.6329 C   0  0  0  0  0  0
  -16.7260  -28.6488   23.0345 C   0  0  0  0  0  0
  -26.4473  -31.6616   25.0744 C   0  0  0  0  0  0
  -25.3733  -31.3732   26.1493 C   0  0  0  0  0  0
  -27.0333  -30.3052   24.6168 C   0  0  0  0  0  0
  -27.6044  -32.4351   25.7506 C   0  0  0  0  0  0
  -27.5577  -37.1804   24.8464 C   0  0  0  0  0  0
  -21.4153  -29.3014   22.3725 N   0  0  0  0  0  0
  -26.4288  -37.3790   23.9411 N   0  0  0  0  0  0
  -24.6712  -31.0738   22.1015 N   0  0  0  0  0  0
  -23.4189  -28.8169   23.3031 O   0  0  0  0  0  0
  -28.3879  -26.6383   20.1105 O   0  0  0  0  0  0
  -26.5610  -34.8920   22.4681 O   0  0  0  0  0  0
  -23.5348  -32.1441   23.7466 O   0  0  0  0  0  0
  -29.7948  -19.3143   19.9663 C   0  0  0  0  0  0
  -30.1647  -18.1155   20.6858 C   0  0  0  0  0  0
  -30.3777  -20.4582   20.4620 C   0  0  0  0  0  0
  -29.8899  -15.6156   22.6033 C   0  0  0  0  0  0
  -29.6515  -16.7178   20.3236 C   0  0  0  0  0  0
  -30.3539  -21.8919   19.9595 C   0  0  0  0  0  0
  -29.2669  -22.8421   20.5406 C   0  0  0  0  0  0
  -29.4052  -24.3350   20.0930 C   0  0  0  0  0  0
  -28.2470  -25.2648   20.5526 C   0  0  0  0  0  0
  -30.9982  -18.3300   21.6856 N   0  0  0  0  0  0
  -30.0138  -15.5233   21.1430 N   0  0  0  0  0  0
  -31.3328  -19.9775   21.8257 S   0  0  0  0  0  0
  -31.4677  -12.4313   19.1288 H   0  0  0  0  0  0
  -30.3347  -11.3155   19.8339 H   0  0  0  0  0  0
  -29.7457  -11.7884   17.4353 H   0  0  0  0  0  0
  -29.6550  -13.4978   17.7783 H   0  0  0  0  0  0
  -27.8347  -11.3029   18.8220 H   0  0  0  0  0  0
  -27.3667  -12.6250   17.7861 H   0  0  0  0  0  0
  -27.6994  -14.2523   19.5676 H   0  0  0  0  0  0
  -28.6734  -11.9600   21.3399 H   0  0  0  0  0  0
  -28.4101  -13.5903   21.8550 H   0  0  0  0  0  0
  -25.2734   -9.5728   22.4741 H   0  0  0  0  0  0
  -24.0013   -7.4647   22.7454 H   0  0  0  0  0  0
  -21.0825   -8.8727   19.8932 H   0  0  0  0  0  0
  -22.3629  -10.9656   19.6144 H   0  0  0  0  0  0
  -21.2011   -7.6147   23.9729 H   0  0  0  0  0  0
  -21.1471   -6.0511   25.9086 H   0  0  0  0  0  0
  -22.0601   -2.7606   23.2844 H   0  0  0  0  0  0
  -22.4106  -11.9884   22.4782 H   0  0  0  0  0  0
  -21.1110  -13.1247   22.2633 H   0  0  0  0  0  0
  -24.6705  -15.8483   20.5209 H   0  0  0  0  0  0
  -26.2910  -15.6207   20.0966 H   0  0  0  0  0  0
  -26.7131  -32.5500   23.1162 H   0  0  0  0  0  0
  -25.0062  -33.9777   25.0458 H   0  0  0  0  0  0
  -22.6949  -31.3049   21.4127 H   0  0  0  0  0  0
  -23.3746  -35.9630   23.3309 H   0  0  0  0  0  0
  -24.3562  -36.8920   22.2050 H   0  0  0  0  0  0
  -23.7243  -37.6504   23.6659 H   0  0  0  0  0  0
  -26.0649  -31.5919   20.6084 H   0  0  0  0  0  0
  -26.8191  -30.8666   22.0002 H   0  0  0  0  0  0
  -28.1076  -29.0764   21.1699 H   0  0  0  0  0  0
  -26.0352  -25.9795   18.9830 H   0  0  0  0  0  0
  -23.9801  -27.3033   19.0219 H   0  0  0  0  0  0
  -23.7293  -30.6016   19.4071 H   0  0  0  0  0  0
  -22.7403  -29.2477   19.8666 H   0  0  0  0  0  0
  -25.1292  -36.1950   25.0821 H   0  0  0  0  0  0
  -20.9936  -28.3200   24.1435 H   0  0  0  0  0  0
  -20.5643  -26.2244   23.3599 H   0  0  0  0  0  0
  -21.6633  -26.7406   22.1222 H   0  0  0  0  0  0
  -19.6906  -25.6281   21.1221 H   0  0  0  0  0  0
  -19.6694  -27.3172   20.6718 H   0  0  0  0  0  0
  -17.4196  -26.6634   21.4005 H   0  0  0  0  0  0
  -18.0319  -26.0036   22.8990 H   0  0  0  0  0  0
  -19.7946  -30.7229   24.2245 H   0  0  0  0  0  0
  -17.5036  -31.6253   24.5146 H   0  0  0  0  0  0
  -15.5355  -30.2968   23.7679 H   0  0  0  0  0  0
  -15.8652  -28.0811   22.7069 H   0  0  0  0  0  0
  -24.5904  -30.7079   25.7833 H   0  0  0  0  0  0
  -24.8922  -32.2885   26.4940 H   0  0  0  0  0  0
  -25.8080  -30.8903   27.0260 H   0  0  0  0  0  0
  -26.2905  -29.6791   24.1207 H   0  0  0  0  0  0
  -27.4078  -29.7312   25.4659 H   0  0  0  0  0  0
  -27.8743  -30.4360   23.9358 H   0  0  0  0  0  0
  -27.2673  -33.3665   26.2068 H   0  0  0  0  0  0
  -28.3858  -32.6903   25.0335 H   0  0  0  0  0  0
  -28.0710  -31.8495   26.5437 H   0  0  0  0  0  0
  -28.2599  -38.0097   24.7526 H   0  0  0  0  0  0
  -28.1076  -36.2633   24.6280 H   0  0  0  0  0  0
  -27.2294  -37.1446   25.8868 H   0  0  0  0  0  0
  -20.9315  -29.8764   21.6974 H   0  0  0  0  0  0
  -26.0168  -38.2862   24.1438 H   0  0  0  0  0  0
  -29.1380  -19.2830   19.1074 H   0  0  0  0  0  0
  -29.8735  -14.6364   23.0848 H   0  0  0  0  0  0
  -28.9786  -16.1440   22.8837 H   0  0  0  0  0  0
  -30.7416  -16.1410   23.0320 H   0  0  0  0  0  0
  -28.5622  -16.7498   20.3080 H   0  0  0  0  0  0
  -29.9221  -16.5219   19.2841 H   0  0  0  0  0  0
  -30.2769  -21.8837   18.8718 H   0  0  0  0  0  0
  -31.3295  -22.3337   20.1674 H   0  0  0  0  0  0
  -29.2972  -22.7994   21.6306 H   0  0  0  0  0  0
  -28.2852  -22.4660   20.2503 H   0  0  0  0  0  0
  -29.4692  -24.3750   19.0051 H   0  0  0  0  0  0
  -30.3496  -24.7340   20.4658 H   0  0  0  0  0  0
  -28.2002  -25.2707   21.6427 H   0  0  0  0  0  0
  -27.3147  -24.8122   20.2199 H   0  0  0  0  0  0
  1 25  1  0  0  0
  1 30  2  0  0  0
  1 81  1  0  0  0
  2  3  1  0  0  0
  2 25  1  0  0  0
  2 83  1  0  0  0
  2 84  1  0  0  0
  3  4  1  0  0  0
  3 85  1  0  0  0
  3 86  1  0  0  0
  4  5  1  0  0  0
  4 87  1  0  0  0
  4 88  1  0  0  0
  5  6  1  0  0  0
  5 26  1  0  0  0
  5 89  1  0  0  0
  6 25  1  0  0  0
  6 90  1  0  0  0
  6 91  1  0  0  0
  7  8  2  0  0  0
  7 26  1  0  0  0
  7 29  1  0  0  0
  8  9  1  0  0  0
  8 22  1  0  0  0
  9 10  1  0  0  0
  9 27  2  0  0  0
 10 11  2  0  0  0
 10 15  1  0  0  0
 11 12  1  0  0  0
 11 92  1  0  0  0
 12 13  2  0  0  0
 12 93  1  0  0  0
 13 14  1  0  0  0
 13 31  1  0  0  0
 14 15  2  0  0  0
 14 94  1  0  0  0
 15 95  1  0  0  0
 16 17  2  0  0  0
 16 21  1  0  0  0
 16 31  1  0  0  0
 17 18  1  0  0  0
 17 96  1  0  0  0
 18 19  2  0  0  0
 18 97  1  0  0  0
 19 20  1  0  0  0
 19 24  1  0  0  0
 20 21  2  0  0  0
 20 98  1  0  0  0
 21 23  1  0  0  0
 22 28  1  0  0  0
 22 32  2  0  0  0
 26 27  1  0  0  0
 28 99  1  0  0  0
 28100  1  0  0  0
 29101  1  0  0  0
 29102  1  0  0  0
 33 34  1  0  0  0
 33 66  1  0  0  0
 33 70  2  0  0  0
 34 36  1  0  0  0
 34 59  1  0  0  0
 34103  1  0  0  0
 35 44  2  0  0  0
 35 45  1  0  0  0
 35 68  1  0  0  0
 36 56  1  0  0  0
 36104  1  0  0  0
 37 39  1  0  0  0
 37 47  1  0  0  0
 37 66  1  0  0  0
 37105  1  0  0  0
 38 43  2  0  0  0
 38 46  1  0  0  0
 38 47  1  0  0  0
 39 64  1  0  0  0
 39 67  2  0  0  0
 40 52  1  0  0  0
 40 53  2  0  0  0
 40 58  1  0  0  0
 41106  1  0  0  0
 41107  1  0  0  0
 41108  1  0  0  0
 41 48  1  0  0  0
 42 43  1  0  0  0
 42 66  1  0  0  0
 42109  1  0  0  0
 42110  1  0  0  0
 43 44  1  0  0  0
 44111  1  0  0  0
 45 46  2  0  0  0
 45112  1  0  0  0
 46113  1  0  0  0
 47114  1  0  0  0
 47115  1  0  0  0
 48 56  1  0  0  0
 48 65  1  0  0  0
 48116  1  0  0  0
 49 50  1  0  0  0
 49 53  1  0  0  0
 49 64  1  0  0  0
 49117  1  0  0  0
 50 51  1  0  0  0
 50118  1  0  0  0
 50119  1  0  0  0
 51 52  1  0  0  0
 51120  1  0  0  0
 51121  1  0  0  0
 52122  1  0  0  0
 52123  1  0  0  0
 53 54  1  0  0  0
 54 55  2  0  0  0
 54124  1  0  0  0
 55 57  1  0  0  0
 55125  1  0  0  0
 56 69  2  0  0  0
 57 58  2  0  0  0
 57126  1  0  0  0
 58127  1  0  0  0
 59 60  1  0  0  0
 59 61  1  0  0  0
 59 62  1  0  0  0
 60128  1  0  0  0
 60129  1  0  0  0
 60130  1  0  0  0
 61131  1  0  0  0
 61132  1  0  0  0
 61133  1  0  0  0
 62134  1  0  0  0
 62135  1  0  0  0
 62136  1  0  0  0
 63 65  1  0  0  0
 63137  1  0  0  0
 63138  1  0  0  0
 63139  1  0  0  0
 64140  1  0  0  0
 65141  1  0  0  0
 68 79  1  0  0  0
 71 72  1  0  0  0
 71 73  2  0  0  0
 71142  1  0  0  0
 72 75  1  0  0  0
 72 80  2  0  0  0
 73 76  1  0  0  0
 73 82  1  0  0  0
 74 81  1  0  0  0
 74143  1  0  0  0
 74144  1  0  0  0
 74145  1  0  0  0
 75 81  1  0  0  0
 75146  1  0  0  0
 75147  1  0  0  0
 76 77  1  0  0  0
 76148  1  0  0  0
 76149  1  0  0  0
 77 78  1  0  0  0
 77150  1  0  0  0
 77151  1  0  0  0
 78 79  1  0  0  0
 78152  1  0  0  0
 78153  1  0  0  0
 79154  1  0  0  0
 79155  1  0  0  0
 80 82  1  0  0  0
M  ISO  4   1 100  68 101  79 101  81 100
M  END
> <chiral flag>
0

> <version>
0

> <s_m_source_file>
/data/baiqing/PycharmProjects/Reinvent-master-3.2/result/LINK_invent/BTK/process_docking_weight1_custom_sum_contain_oxygen_bond_distance_aromatic_linkinvent_7_9_3/rearranged_h_0090.sdf

> <i_m_source_file_index>
92

> <r_mmod_Potential_Energy-OPLS-2005>
22.5521793365479

> <r_mmod_Stretch_Energy-OPLS-2005>
45.5299072265625

> <r_mmod_Bend_Energy-OPLS-2005>
108.391876220703

> <r_mmod_Torsional_Energy-OPLS-2005>
270.339447021484

> <r_mmod_Improper_Torsional_Energy-OPLS-2005>
6.39867448806763

> <r_mmod_Van_der_Waal_Energy-OPLS-2005>
127.316223144531

> <r_mmod_Electrostatic_Energy-OPLS-2005>
-343.767730712891

> <r_mmod_Solvation_Energy-OPLS-2005>
-206.990051269531

> <b_mmod_Minimization_Converged-OPLS-2005>
0

> <r_mmod_RMS_Derivative-OPLS-2005>
1.65290319919586

$$$$
94
                    3D
 Structure written by MMmdl.
146153  0  0  1  0            999 V2000
  -30.3353  -15.5562   20.3341 C   0  0  0  0  0  0
  -30.4279  -13.0226   19.5348 C   0  0  0  0  0  0
  -29.5466  -12.6364   18.3145 C   0  0  0  0  0  0
  -28.1138  -12.2981   18.7546 C   0  0  0  0  0  0
  -27.5979  -13.3005   19.8126 C   0  0  2  0  0  0
  -28.6193  -13.6034   20.9334 C   0  0  0  0  0  0
  -25.2335  -13.8277   20.5784 C   0  0  0  0  0  0
  -24.1716  -13.0436   20.9284 C   0  0  0  0  0  0
  -24.6405  -11.6943   20.8764 C   0  0  0  0  0  0
  -23.9107  -10.4293   21.0394 C   0  0  0  0  0  0
  -24.3646   -9.4205   21.9175 C   0  0  0  0  0  0
  -23.6311   -8.2246   22.0750 C   0  0  0  0  0  0
  -22.4292   -8.0284   21.3542 C   0  0  0  0  0  0
  -21.9935   -9.0256   20.4640 C   0  0  0  0  0  0
  -22.7274  -10.2129   20.3045 C   0  0  0  0  0  0
  -21.6859   -6.0737   22.5276 C   0  0  0  0  0  0
  -21.4018   -6.5639   23.8211 C   0  0  0  0  0  0
  -21.3664   -5.6792   24.9173 C   0  0  0  0  0  0
  -21.6046   -4.3054   24.7222 C   0  0  0  0  0  0
  -21.8819   -3.8146   23.4344 C   0  0  0  0  0  0
  -21.9193   -4.6963   22.3400 C   0  0  0  0  0  0
  -22.7729  -13.5169   21.1919 C   0  0  0  0  0  0
  -22.1661   -4.2149   21.0978 F   0  0  0  0  0  0
  -21.5630   -3.4538   25.7735 F   0  0  0  0  0  0
  -29.8047  -14.2018   20.2813 N   0  0  0  0  0  0
  -26.2775  -12.9592   20.3223 N   0  0  0  0  0  0
  -25.9348  -11.6672   20.5700 N   0  0  0  0  0  0
  -22.0394  -12.8147   22.0473 N   0  0  0  0  0  0
  -25.3933  -15.2017   20.4221 N   0  0  0  0  0  0
  -31.5684  -15.5043   20.1728 O   0  0  0  0  0  0
  -21.6650   -6.8883   21.4242 O   0  0  0  0  0  0
  -22.3401  -14.5464   20.6749 O   0  0  0  0  0  0
  -24.6803  -31.8038   23.1541 C   0  0  0  0  0  0
  -25.9401  -32.4488   23.8074 C   0  0  1  0  0  0
  -27.2259  -26.7402   20.2115 C   0  0  0  0  0  0
  -25.5994  -33.8311   24.1964 N   0  0  0  0  0  0
  -23.5041  -30.4070   21.5078 C   0  0  2  0  0  0
  -24.9605  -28.7537   20.1187 C   0  0  0  0  0  0
  -22.7746  -29.4338   22.4726 C   0  0  0  0  0  0
  -18.0333  -28.1416   22.8456 C   0  0  0  0  0  0
  -24.1496  -36.7161   23.2651 C   0  0  0  0  0  0
  -26.0831  -30.5496   21.4121 C   0  0  0  0  0  0
  -26.1493  -29.1180   20.7621 C   0  0  0  0  0  0
  -27.2691  -28.1388   20.7747 C   0  0  0  0  0  0
  -26.0038  -26.5737   19.5143 C   0  0  0  0  0  0
  -24.9245  -27.5062   19.4716 C   0  0  0  0  0  0
  -23.7553  -29.7051   20.1423 C   0  0  0  0  0  0
  -25.4146  -36.2906   24.0282 C   0  0  1  0  0  0
  -20.5968  -28.3775   23.1151 C   0  0  2  0  0  0
  -20.6802  -26.9438   22.5405 C   0  0  0  0  0  0
  -19.5778  -26.6369   21.5217 C   0  0  0  0  0  0
  -18.1960  -26.7944   22.1620 C   0  0  0  0  0  0
  -19.1599  -28.8919   23.2785 C   0  0  0  0  0  0
  -18.9506  -30.1503   23.8829 C   0  0  0  0  0  0
  -17.6497  -30.6601   24.0550 C   0  0  0  0  0  0
  -25.9124  -34.9297   23.4958 C   0  0  0  0  0  0
  -16.5386  -29.9084   23.6350 C   0  0  0  0  0  0
  -16.7314  -28.6505   23.0366 C   0  0  0  0  0  0
  -26.4587  -31.6507   25.0681 C   0  0  0  0  0  0
  -25.3662  -31.3817   26.1301 C   0  0  0  0  0  0
  -27.0514  -30.2850   24.6555 C   0  0  0  0  0  0
  -27.6041  -32.4357   25.7501 C   0  0  0  0  0  0
  -27.5565  -37.1738   24.8464 C   0  0  0  0  0  0
  -21.4398  -29.3030   22.3476 N   0  0  0  0  0  0
  -26.4272  -37.3665   23.9405 N   0  0  0  0  0  0
  -24.7791  -30.9519   22.0775 N   0  0  0  0  0  0
  -23.4207  -28.7937   23.3058 O   0  0  0  0  0  0
  -28.2052  -25.5483   20.2787 O   0  0  0  0  0  0
  -26.5763  -34.8869   22.4572 O   0  0  0  0  0  0
  -23.5831  -32.1095   23.6520 O   0  0  0  0  0  0
  -27.6811  -20.0104   21.3620 C   0  0  0  0  0  0
  -28.9989  -22.1692   20.3090 C   0  0  0  0  0  0
  -29.8038  -18.6546   20.3248 C   0  0  0  0  0  0
  -28.0061  -23.8158   20.1960 C   0  0  0  0  0  0
  -28.7486  -20.2597   20.2923 C   0  0  1  0  0  0
  -29.5784  -16.9059   20.3774 N   0  0  0  0  0  0
  -31.4266  -13.2730   19.1751 H   0  0  0  0  0  0
  -30.5707  -12.1676   20.1977 H   0  0  0  0  0  0
  -29.9853  -11.7953   17.7758 H   0  0  0  0  0  0
  -29.5217  -13.4718   17.6134 H   0  0  0  0  0  0
  -28.1246  -11.2939   19.1796 H   0  0  0  0  0  0
  -27.4444  -12.2613   17.8943 H   0  0  0  0  0  0
  -27.4697  -14.2303   19.2571 H   0  0  0  0  0  0
  -28.8619  -12.7115   21.5128 H   0  0  0  0  0  0
  -28.2017  -14.3248   21.6374 H   0  0  0  0  0  0
  -25.2783   -9.5683   22.4758 H   0  0  0  0  0  0
  -24.0014   -7.4639   22.7474 H   0  0  0  0  0  0
  -21.0865   -8.8777   19.8947 H   0  0  0  0  0  0
  -22.3727  -10.9668   19.6157 H   0  0  0  0  0  0
  -21.2010   -7.6147   23.9715 H   0  0  0  0  0  0
  -21.1490   -6.0521   25.9077 H   0  0  0  0  0  0
  -22.0594   -2.7608   23.2843 H   0  0  0  0  0  0
  -22.4039  -11.9830   22.4878 H   0  0  0  0  0  0
  -21.0996  -13.1134   22.2661 H   0  0  0  0  0  0
  -24.6208  -15.8494   20.5346 H   0  0  0  0  0  0
  -26.2311  -15.6431   20.0676 H   0  0  0  0  0  0
  -26.7480  -32.4970   23.0787 H   0  0  0  0  0  0
  -25.0055  -33.9356   25.0058 H   0  0  0  0  0  0
  -22.8278  -31.2436   21.3207 H   0  0  0  0  0  0
  -23.3776  -35.9472   23.3266 H   0  0  0  0  0  0
  -24.3566  -36.8869   22.2075 H   0  0  0  0  0  0
  -23.7241  -37.6322   23.6757 H   0  0  0  0  0  0
  -26.2824  -31.2774   20.6243 H   0  0  0  0  0  0
  -26.9357  -30.6156   22.0758 H   0  0  0  0  0  0
  -28.1662  -28.4244   21.3057 H   0  0  0  0  0  0
  -25.8451  -25.6273   19.0172 H   0  0  0  0  0  0
  -24.0260  -27.2187   18.9429 H   0  0  0  0  0  0
  -23.9272  -30.4661   19.3802 H   0  0  0  0  0  0
  -22.8606  -29.1696   19.8198 H   0  0  0  0  0  0
  -25.1356  -36.1672   25.0774 H   0  0  0  0  0  0
  -21.0050  -28.3397   24.1276 H   0  0  0  0  0  0
  -20.5667  -26.2399   23.3664 H   0  0  0  0  0  0
  -21.6665  -26.7385   22.1223 H   0  0  0  0  0  0
  -19.6938  -25.6262   21.1290 H   0  0  0  0  0  0
  -19.6721  -27.3144   20.6718 H   0  0  0  0  0  0
  -17.4231  -26.6685   21.4023 H   0  0  0  0  0  0
  -18.0350  -26.0101   22.9031 H   0  0  0  0  0  0
  -19.7983  -30.7335   24.2169 H   0  0  0  0  0  0
  -17.5049  -31.6275   24.5164 H   0  0  0  0  0  0
  -15.5384  -30.2965   23.7712 H   0  0  0  0  0  0
  -15.8715  -28.0801   22.7123 H   0  0  0  0  0  0
  -24.5868  -30.7144   25.7601 H   0  0  0  0  0  0
  -24.8827  -32.3037   26.4536 H   0  0  0  0  0  0
  -25.7844  -30.9103   27.0204 H   0  0  0  0  0  0
  -26.3224  -29.6472   24.1547 H   0  0  0  0  0  0
  -27.3957  -29.7284   25.5281 H   0  0  0  0  0  0
  -27.9198  -30.3982   24.0063 H   0  0  0  0  0  0
  -27.2585  -33.3721   26.1890 H   0  0  0  0  0  0
  -28.3952  -32.6817   25.0405 H   0  0  0  0  0  0
  -28.0599  -31.8612   26.5573 H   0  0  0  0  0  0
  -28.2551  -38.0062   24.7516 H   0  0  0  0  0  0
  -28.1092  -36.2586   24.6286 H   0  0  0  0  0  0
  -27.2278  -37.1369   25.8865 H   0  0  0  0  0  0
  -20.9693  -29.8688   21.6550 H   0  0  0  0  0  0
  -26.0101  -38.2712   24.1421 H   0  0  0  0  0  0
  -26.8716  -20.7373   21.2913 H   0  0  0  0  0  0
  -28.1079  -20.0822   22.3625 H   0  0  0  0  0  0
  -27.2420  -19.0176   21.2581 H   0  0  0  0  0  0
  -29.5642  -22.3138   21.2299 H   0  0  0  0  0  0
  -29.7504  -22.3067   19.5314 H   0  0  0  0  0  0
  -30.4649  -18.8095   21.1779 H   0  0  0  0  0  0
  -30.4711  -18.7702   19.4697 H   0  0  0  0  0  0
  -27.2265  -23.6667   20.9432 H   0  0  0  0  0  0
  -27.4734  -23.7089   19.2512 H   0  0  0  0  0  0
  -28.2292  -20.1382   19.3408 H   0  0  0  0  0  0
  -28.5930  -16.7001   20.4603 H   0  0  0  0  0  0
  1 25  1  0  0  0
  1 30  2  0  0  0
  1 76  1  0  0  0
  2  3  1  0  0  0
  2 25  1  0  0  0
  2 77  1  0  0  0
  2 78  1  0  0  0
  3  4  1  0  0  0
  3 79  1  0  0  0
  3 80  1  0  0  0
  4  5  1  0  0  0
  4 81  1  0  0  0
  4 82  1  0  0  0
  5  6  1  0  0  0
  5 26  1  0  0  0
  5 83  1  0  0  0
  6 25  1  0  0  0
  6 84  1  0  0  0
  6 85  1  0  0  0
  7  8  2  0  0  0
  7 26  1  0  0  0
  7 29  1  0  0  0
  8  9  1  0  0  0
  8 22  1  0  0  0
  9 10  1  0  0  0
  9 27  2  0  0  0
 10 11  2  0  0  0
 10 15  1  0  0  0
 11 12  1  0  0  0
 11 86  1  0  0  0
 12 13  2  0  0  0
 12 87  1  0  0  0
 13 14  1  0  0  0
 13 31  1  0  0  0
 14 15  2  0  0  0
 14 88  1  0  0  0
 15 89  1  0  0  0
 16 17  2  0  0  0
 16 21  1  0  0  0
 16 31  1  0  0  0
 17 18  1  0  0  0
 17 90  1  0  0  0
 18 19  2  0  0  0
 18 91  1  0  0  0
 19 20  1  0  0  0
 19 24  1  0  0  0
 20 21  2  0  0  0
 20 92  1  0  0  0
 21 23  1  0  0  0
 22 28  1  0  0  0
 22 32  2  0  0  0
 26 27  1  0  0  0
 28 93  1  0  0  0
 28 94  1  0  0  0
 29 95  1  0  0  0
 29 96  1  0  0  0
 33 34  1  0  0  0
 33 66  1  0  0  0
 33 70  2  0  0  0
 34 36  1  0  0  0
 34 59  1  0  0  0
 34 97  1  0  0  0
 35 44  2  0  0  0
 35 45  1  0  0  0
 35 68  1  0  0  0
 36 56  1  0  0  0
 36 98  1  0  0  0
 37 39  1  0  0  0
 37 47  1  0  0  0
 37 66  1  0  0  0
 37 99  1  0  0  0
 38 43  2  0  0  0
 38 46  1  0  0  0
 38 47  1  0  0  0
 39 64  1  0  0  0
 39 67  2  0  0  0
 40 52  1  0  0  0
 40 53  2  0  0  0
 40 58  1  0  0  0
 41100  1  0  0  0
 41101  1  0  0  0
 41102  1  0  0  0
 41 48  1  0  0  0
 42 43  1  0  0  0
 42 66  1  0  0  0
 42103  1  0  0  0
 42104  1  0  0  0
 43 44  1  0  0  0
 44105  1  0  0  0
 45 46  2  0  0  0
 45106  1  0  0  0
 46107  1  0  0  0
 47108  1  0  0  0
 47109  1  0  0  0
 48 56  1  0  0  0
 48 65  1  0  0  0
 48110  1  0  0  0
 49 50  1  0  0  0
 49 53  1  0  0  0
 49 64  1  0  0  0
 49111  1  0  0  0
 50 51  1  0  0  0
 50112  1  0  0  0
 50113  1  0  0  0
 51 52  1  0  0  0
 51114  1  0  0  0
 51115  1  0  0  0
 52116  1  0  0  0
 52117  1  0  0  0
 53 54  1  0  0  0
 54 55  2  0  0  0
 54118  1  0  0  0
 55 57  1  0  0  0
 55119  1  0  0  0
 56 69  2  0  0  0
 57 58  2  0  0  0
 57120  1  0  0  0
 58121  1  0  0  0
 59 60  1  0  0  0
 59 61  1  0  0  0
 59 62  1  0  0  0
 60122  1  0  0  0
 60123  1  0  0  0
 60124  1  0  0  0
 61125  1  0  0  0
 61126  1  0  0  0
 61127  1  0  0  0
 62128  1  0  0  0
 62129  1  0  0  0
 62130  1  0  0  0
 63 65  1  0  0  0
 63131  1  0  0  0
 63132  1  0  0  0
 63133  1  0  0  0
 64134  1  0  0  0
 65135  1  0  0  0
 68 74  1  0  0  0
 71136  1  0  0  0
 71137  1  0  0  0
 71138  1  0  0  0
 71 75  1  0  0  0
 72 74  1  0  0  0
 72 75  1  0  0  0
 72139  1  0  0  0
 72140  1  0  0  0
 73 75  1  0  0  0
 73 76  1  0  0  0
 73141  1  0  0  0
 73142  1  0  0  0
 74143  1  0  0  0
 74144  1  0  0  0
 75145  1  0  0  0
 76146  1  0  0  0
M  ISO  4   1 100  68 101  74 101  76 100
M  END
> <chiral flag>
0

> <version>
0

> <s_m_source_file>
/data/baiqing/PycharmProjects/Reinvent-master-3.2/result/LINK_invent/BTK/process_docking_weight1_custom_sum_contain_oxygen_bond_distance_aromatic_linkinvent_7_9_3/rearranged_h_0090.sdf

> <i_m_source_file_index>
93

> <r_mmod_Potential_Energy-OPLS-2005>
2244.23120117188

> <r_mmod_Stretch_Energy-OPLS-2005>
1092.11193847656

> <r_mmod_Bend_Energy-OPLS-2005>
602.333374023438

> <r_mmod_Torsional_Energy-OPLS-2005>
216.579360961914

> <r_mmod_Improper_Torsional_Energy-OPLS-2005>
3.69115424156189

> <r_mmod_Van_der_Waal_Energy-OPLS-2005>
107.59400177002

> <r_mmod_Electrostatic_Energy-OPLS-2005>
-366.014221191406

> <r_mmod_Solvation_Energy-OPLS-2005>
-212.271621704102

> <b_mmod_Minimization_Converged-OPLS-2005>
0

> <r_mmod_RMS_Derivative-OPLS-2005>
0.475570291280746

$$$$
95
                    3D
 Structure written by MMmdl.
180188  0  0  1  0            999 V2000
  -30.6659  -14.4435   20.5555 C   0  0  0  0  0  0
  -30.4327  -12.2864   19.3957 C   0  0  0  0  0  0
  -29.4963  -12.5033   18.1874 C   0  0  0  0  0  0
  -28.0161  -12.3645   18.6020 C   0  0  0  0  0  0
  -27.6649  -13.1865   19.8715 C   0  0  2  0  0  0
  -28.7064  -12.9224   20.9833 C   0  0  0  0  0  0
  -25.2604  -13.8093   20.5620 C   0  0  0  0  0  0
  -24.1824  -13.0417   20.9124 C   0  0  0  0  0  0
  -24.6337  -11.6865   20.8649 C   0  0  0  0  0  0
  -23.9000  -10.4265   21.0369 C   0  0  0  0  0  0
  -24.3574   -9.4210   21.9165 C   0  0  0  0  0  0
  -23.6262   -8.2241   22.0757 C   0  0  0  0  0  0
  -22.4240   -8.0251   21.3553 C   0  0  0  0  0  0
  -21.9857   -9.0213   20.4662 C   0  0  0  0  0  0
  -22.7164  -10.2099   20.3039 C   0  0  0  0  0  0
  -21.6843   -6.0707   22.5272 C   0  0  0  0  0  0
  -21.4030   -6.5627   23.8199 C   0  0  0  0  0  0
  -21.3656   -5.6781   24.9159 C   0  0  0  0  0  0
  -21.6027   -4.3044   24.7218 C   0  0  0  0  0  0
  -21.8820   -3.8134   23.4347 C   0  0  0  0  0  0
  -21.9215   -4.6949   22.3398 C   0  0  0  0  0  0
  -22.7866  -13.5272   21.1804 C   0  0  0  0  0  0
  -22.1680   -4.2136   21.0969 F   0  0  0  0  0  0
  -21.5621   -3.4529   25.7741 F   0  0  0  0  0  0
  -30.0395  -13.2442   20.4366 N   0  0  0  0  0  0
  -26.3019  -12.9231   20.3281 N   0  0  0  0  0  0
  -25.9252  -11.6408   20.5628 N   0  0  0  0  0  0
  -22.0487  -12.8274   22.0347 N   0  0  0  0  0  0
  -25.4368  -15.1809   20.4077 N   0  0  0  0  0  0
  -31.7885  -14.6839   20.0981 O   0  0  0  0  0  0
  -21.6637   -6.8836   21.4217 O   0  0  0  0  0  0
  -22.3573  -14.5594   20.6670 O   0  0  0  0  0  0
  -24.6121  -31.8682   23.2114 C   0  0  0  0  0  0
  -25.9038  -32.4825   23.8378 C   0  0  1  0  0  0
  -27.2525  -27.4598   20.0732 C   0  0  0  0  0  0
  -25.5914  -33.8612   24.2324 N   0  0  0  0  0  0
  -23.4016  -30.4893   21.5538 C   0  0  2  0  0  0
  -24.8514  -28.9571   20.1173 C   0  0  0  0  0  0
  -22.7398  -29.4644   22.5022 C   0  0  0  0  0  0
  -18.0266  -28.1377   22.8493 C   0  0  0  0  0  0
  -24.1490  -36.7299   23.2636 C   0  0  0  0  0  0
  -25.9289  -30.8359   21.3675 C   0  0  0  0  0  0
  -26.0099  -29.4721   20.7156 C   0  0  0  0  0  0
  -27.2142  -28.7315   20.6992 C   0  0  0  0  0  0
  -26.0712  -26.9463   19.5046 C   0  0  0  0  0  0
  -24.8758  -27.6898   19.5130 C   0  0  0  0  0  0
  -23.6087  -29.8191   20.1693 C   0  0  0  0  0  0
  -25.4113  -36.3093   24.0331 C   0  0  1  0  0  0
  -20.5858  -28.3640   23.1345 C   0  0  2  0  0  0
  -20.6753  -26.9380   22.5430 C   0  0  0  0  0  0
  -19.5726  -26.6381   21.5220 C   0  0  0  0  0  0
  -18.1909  -26.7932   22.1629 C   0  0  0  0  0  0
  -19.1517  -28.8830   23.2914 C   0  0  0  0  0  0
  -18.9437  -30.1453   23.8901 C   0  0  0  0  0  0
  -17.6437  -30.6577   24.0569 C   0  0  0  0  0  0
  -25.9037  -34.9470   23.5125 C   0  0  0  0  0  0
  -16.5330  -29.9073   23.6347 C   0  0  0  0  0  0
  -16.7257  -28.6505   23.0339 C   0  0  0  0  0  0
  -26.4483  -31.6584   25.0689 C   0  0  0  0  0  0
  -25.3750  -31.3692   26.1436 C   0  0  0  0  0  0
  -27.0310  -30.3019   24.6073 C   0  0  0  0  0  0
  -27.6068  -32.4291   25.7453 C   0  0  0  0  0  0
  -27.5591  -37.1788   24.8465 C   0  0  0  0  0  0
  -21.4129  -29.3013   22.3756 N   0  0  0  0  0  0
  -26.4299  -37.3775   23.9408 N   0  0  0  0  0  0
  -24.6657  -31.0773   22.1041 N   0  0  0  0  0  0
  -23.4159  -28.8210   23.3091 O   0  0  0  0  0  0
  -28.3686  -26.6552   19.9827 O   0  0  0  0  0  0
  -26.5578  -34.8920   22.4672 O   0  0  0  0  0  0
  -23.5318  -32.1455   23.7513 O   0  0  0  0  0  0
  -30.3897  -23.9739   18.4646 C   0  0  0  0  0  0
  -30.8471  -25.0968   19.1066 C   0  0  0  0  0  0
  -31.8034  -24.5803   20.0297 C   0  0  0  0  0  0
  -34.4580  -25.7266   19.1078 C   0  0  0  0  0  0
  -29.9769  -26.7756   17.4254 C   0  0  0  0  0  0
  -32.4729  -24.9207   22.4298 C   0  0  0  0  0  0
  -29.6381  -21.0145   21.1575 C   0  0  0  0  0  0
  -34.1850  -25.2988   20.5608 C   0  0  0  0  0  0
  -29.8102  -17.5248   19.6753 C   0  0  0  0  0  0
  -31.0372  -21.4979   18.4868 C   0  0  0  0  0  0
  -30.1062  -16.8616   21.0459 C   0  0  0  0  0  0
  -29.3265  -18.9966   19.7548 C   0  0  0  0  0  0
  -31.4069  -20.3926   19.5163 C   0  0  0  0  0  0
  -29.6553  -27.2578   19.9124 C   0  0  0  0  0  0
  -30.5379  -26.5654   18.8407 C   0  0  1  0  0  0
  -32.6972  -25.3542   20.9737 C   0  0  1  0  0  0
  -31.9296  -23.2595   19.9395 N   0  0  0  0  0  0
  -31.0640  -22.8802   18.9735 N   0  0  0  0  0  0
  -29.8809  -15.4149   21.0452 N   0  0  0  0  0  0
  -30.2990  -19.9265   20.3979 N   0  3  1  0  0  0
  -31.4755  -12.4007   19.0935 H   0  0  0  0  0  0
  -30.3463  -11.2644   19.7682 H   0  0  0  0  0  0
  -29.7301  -11.7856   17.3989 H   0  0  0  0  0  0
  -29.6710  -13.4903   17.7537 H   0  0  0  0  0  0
  -27.8253  -11.3056   18.7788 H   0  0  0  0  0  0
  -27.3685  -12.6550   17.7748 H   0  0  0  0  0  0
  -27.7263  -14.2368   19.5919 H   0  0  0  0  0  0
  -28.6739  -11.8718   21.2847 H   0  0  0  0  0  0
  -28.4689  -13.4856   21.8853 H   0  0  0  0  0  0
  -25.2736   -9.5707   22.4708 H   0  0  0  0  0  0
  -24.0001   -7.4640   22.7462 H   0  0  0  0  0  0
  -21.0803   -8.8699   19.8969 H   0  0  0  0  0  0
  -22.3623  -10.9612   19.6125 H   0  0  0  0  0  0
  -21.2028   -7.6139   23.9701 H   0  0  0  0  0  0
  -21.1469   -6.0507   25.9053 H   0  0  0  0  0  0
  -22.0612   -2.7603   23.2839 H   0  0  0  0  0  0
  -22.4145  -12.0014   22.4842 H   0  0  0  0  0  0
  -21.1079  -13.1278   22.2471 H   0  0  0  0  0  0
  -24.6697  -15.8326   20.5309 H   0  0  0  0  0  0
  -26.2804  -15.6252   20.0715 H   0  0  0  0  0  0
  -26.7102  -32.5552   23.1137 H   0  0  0  0  0  0
  -25.0092  -33.9792   25.0491 H   0  0  0  0  0  0
  -22.6877  -31.3034   21.4126 H   0  0  0  0  0  0
  -23.3748  -35.9636   23.3311 H   0  0  0  0  0  0
  -24.3598  -36.8890   22.2048 H   0  0  0  0  0  0
  -23.7225  -37.6503   23.6641 H   0  0  0  0  0  0
  -26.0395  -31.6037   20.5997 H   0  0  0  0  0  0
  -26.8193  -30.8931   21.9834 H   0  0  0  0  0  0
  -28.0998  -29.1342   21.1700 H   0  0  0  0  0  0
  -26.0850  -25.9726   19.0357 H   0  0  0  0  0  0
  -23.9884  -27.2810   19.0472 H   0  0  0  0  0  0
  -23.7057  -30.5921   19.4054 H   0  0  0  0  0  0
  -22.7362  -29.2299   19.8783 H   0  0  0  0  0  0
  -25.1274  -36.1989   25.0815 H   0  0  0  0  0  0
  -20.9948  -28.3211   24.1463 H   0  0  0  0  0  0
  -20.5668  -26.2229   23.3597 H   0  0  0  0  0  0
  -21.6623  -26.7438   22.1215 H   0  0  0  0  0  0
  -19.6885  -25.6298   21.1226 H   0  0  0  0  0  0
  -19.6689  -27.3224   20.6777 H   0  0  0  0  0  0
  -17.4181  -26.6701   21.4031 H   0  0  0  0  0  0
  -18.0302  -26.0074   22.9017 H   0  0  0  0  0  0
  -19.7902  -30.7282   24.2257 H   0  0  0  0  0  0
  -17.4977  -31.6257   24.5147 H   0  0  0  0  0  0
  -15.5325  -30.2945   23.7671 H   0  0  0  0  0  0
  -15.8667  -28.0820   22.7018 H   0  0  0  0  0  0
  -24.5927  -30.7050   25.7751 H   0  0  0  0  0  0
  -24.8951  -32.2856   26.4875 H   0  0  0  0  0  0
  -25.8099  -30.8836   27.0184 H   0  0  0  0  0  0
  -26.2846  -29.6773   24.1157 H   0  0  0  0  0  0
  -27.4095  -29.7263   25.4530 H   0  0  0  0  0  0
  -27.8676  -30.4302   23.9202 H   0  0  0  0  0  0
  -27.2700  -33.3579   26.2070 H   0  0  0  0  0  0
  -28.3873  -32.6866   25.0280 H   0  0  0  0  0  0
  -28.0759  -31.8386   26.5340 H   0  0  0  0  0  0
  -28.2586  -38.0107   24.7527 H   0  0  0  0  0  0
  -28.1101  -36.2629   24.6273 H   0  0  0  0  0  0
  -27.2313  -37.1426   25.8870 H   0  0  0  0  0  0
  -20.9275  -29.8708   21.6969 H   0  0  0  0  0  0
  -26.0195  -38.2843   24.1448 H   0  0  0  0  0  0
  -29.6916  -23.8665   17.6451 H   0  0  0  0  0  0
  -35.5292  -25.7682   18.9065 H   0  0  0  0  0  0
  -34.0424  -26.7125   18.8984 H   0  0  0  0  0  0
  -34.0194  -25.0237   18.3986 H   0  0  0  0  0  0
  -30.6539  -26.3657   16.6730 H   0  0  0  0  0  0
  -29.8443  -27.8366   17.2053 H   0  0  0  0  0  0
  -29.0059  -26.2975   17.2961 H   0  0  0  0  0  0
  -31.4259  -25.0319   22.7135 H   0  0  0  0  0  0
  -33.0706  -25.5203   23.1149 H   0  0  0  0  0  0
  -32.7485  -23.8772   22.5796 H   0  0  0  0  0  0
  -28.9697  -20.5978   21.9118 H   0  0  0  0  0  0
  -29.0435  -21.6598   20.5099 H   0  0  0  0  0  0
  -30.3709  -21.6295   21.6808 H   0  0  0  0  0  0
  -34.7630  -25.9372   21.2291 H   0  0  0  0  0  0
  -34.5650  -24.2865   20.7032 H   0  0  0  0  0  0
  -29.0237  -16.9617   19.1706 H   0  0  0  0  0  0
  -30.6808  -17.4446   19.0248 H   0  0  0  0  0  0
  -30.0711  -21.3001   18.0234 H   0  0  0  0  0  0
  -31.7630  -21.4467   17.6746 H   0  0  0  0  0  0
  -29.4381  -17.2726   21.8026 H   0  0  0  0  0  0
  -31.1232  -17.0829   21.3751 H   0  0  0  0  0  0
  -28.3904  -19.0021   20.3154 H   0  0  0  0  0  0
  -29.0611  -19.3643   18.7615 H   0  0  0  0  0  0
  -32.2456  -20.7092   20.1349 H   0  0  0  0  0  0
  -31.7903  -19.5302   18.9719 H   0  0  0  0  0  0
  -29.5872  -28.3149   19.6528 H   0  0  0  0  0  0
  -30.1217  -27.2033   20.8982 H   0  0  0  0  0  0
  -31.4847  -27.1083   18.8568 H   0  0  0  0  0  0
  -32.4073  -26.4035   20.9267 H   0  0  0  0  0  0
  -28.9835  -15.1050   21.3900 H   0  0  0  0  0  0
  -30.7559  -19.3737   21.1069 H   0  0  0  0  0  0
  1 25  1  0  0  0
  1 30  2  0  0  0
  1 89  1  0  0  0
  2  3  1  0  0  0
  2 25  1  0  0  0
  2 91  1  0  0  0
  2 92  1  0  0  0
  3  4  1  0  0  0
  3 93  1  0  0  0
  3 94  1  0  0  0
  4  5  1  0  0  0
  4 95  1  0  0  0
  4 96  1  0  0  0
  5  6  1  0  0  0
  5 26  1  0  0  0
  5 97  1  0  0  0
  6 25  1  0  0  0
  6 98  1  0  0  0
  6 99  1  0  0  0
  7  8  2  0  0  0
  7 26  1  0  0  0
  7 29  1  0  0  0
  8  9  1  0  0  0
  8 22  1  0  0  0
  9 10  1  0  0  0
  9 27  2  0  0  0
 10 11  2  0  0  0
 10 15  1  0  0  0
 11 12  1  0  0  0
 11100  1  0  0  0
 12 13  2  0  0  0
 12101  1  0  0  0
 13 14  1  0  0  0
 13 31  1  0  0  0
 14 15  2  0  0  0
 14102  1  0  0  0
 15103  1  0  0  0
 16 17  2  0  0  0
 16 21  1  0  0  0
 16 31  1  0  0  0
 17 18  1  0  0  0
 17104  1  0  0  0
 18 19  2  0  0  0
 18105  1  0  0  0
 19 20  1  0  0  0
 19 24  1  0  0  0
 20 21  2  0  0  0
 20106  1  0  0  0
 21 23  1  0  0  0
 22 28  1  0  0  0
 22 32  2  0  0  0
 26 27  1  0  0  0
 28107  1  0  0  0
 28108  1  0  0  0
 29109  1  0  0  0
 29110  1  0  0  0
 33 34  1  0  0  0
 33 66  1  0  0  0
 33 70  2  0  0  0
 34 36  1  0  0  0
 34 59  1  0  0  0
 34111  1  0  0  0
 35 44  2  0  0  0
 35 45  1  0  0  0
 35 68  1  0  0  0
 36 56  1  0  0  0
 36112  1  0  0  0
 37 39  1  0  0  0
 37 47  1  0  0  0
 37 66  1  0  0  0
 37113  1  0  0  0
 38 43  2  0  0  0
 38 46  1  0  0  0
 38 47  1  0  0  0
 39 64  1  0  0  0
 39 67  2  0  0  0
 40 52  1  0  0  0
 40 53  2  0  0  0
 40 58  1  0  0  0
 41114  1  0  0  0
 41115  1  0  0  0
 41116  1  0  0  0
 41 48  1  0  0  0
 42 43  1  0  0  0
 42 66  1  0  0  0
 42117  1  0  0  0
 42118  1  0  0  0
 43 44  1  0  0  0
 44119  1  0  0  0
 45 46  2  0  0  0
 45120  1  0  0  0
 46121  1  0  0  0
 47122  1  0  0  0
 47123  1  0  0  0
 48 56  1  0  0  0
 48 65  1  0  0  0
 48124  1  0  0  0
 49 50  1  0  0  0
 49 53  1  0  0  0
 49 64  1  0  0  0
 49125  1  0  0  0
 50 51  1  0  0  0
 50126  1  0  0  0
 50127  1  0  0  0
 51 52  1  0  0  0
 51128  1  0  0  0
 51129  1  0  0  0
 52130  1  0  0  0
 52131  1  0  0  0
 53 54  1  0  0  0
 54 55  2  0  0  0
 54132  1  0  0  0
 55 57  1  0  0  0
 55133  1  0  0  0
 56 69  2  0  0  0
 57 58  2  0  0  0
 57134  1  0  0  0
 58135  1  0  0  0
 59 60  1  0  0  0
 59 61  1  0  0  0
 59 62  1  0  0  0
 60136  1  0  0  0
 60137  1  0  0  0
 60138  1  0  0  0
 61139  1  0  0  0
 61140  1  0  0  0
 61141  1  0  0  0
 62142  1  0  0  0
 62143  1  0  0  0
 62144  1  0  0  0
 63 65  1  0  0  0
 63145  1  0  0  0
 63146  1  0  0  0
 63147  1  0  0  0
 64148  1  0  0  0
 65149  1  0  0  0
 68 84  1  0  0  0
 71 72  2  0  0  0
 71 88  1  0  0  0
 71150  1  0  0  0
 72 73  1  0  0  0
 72 85  1  0  0  0
 73 86  1  0  0  0
 73 87  2  0  0  0
 74 78  1  0  0  0
 74151  1  0  0  0
 74152  1  0  0  0
 74153  1  0  0  0
 75154  1  0  0  0
 75155  1  0  0  0
 75156  1  0  0  0
 75 85  1  0  0  0
 76157  1  0  0  0
 76158  1  0  0  0
 76159  1  0  0  0
 76 86  1  0  0  0
 77160  1  0  0  0
 77161  1  0  0  0
 77162  1  0  0  0
 77 90  1  0  0  0
 78 86  1  0  0  0
 78163  1  0  0  0
 78164  1  0  0  0
 79 81  1  0  0  0
 79 82  1  0  0  0
 79165  1  0  0  0
 79166  1  0  0  0
 80 83  1  0  0  0
 80 88  1  0  0  0
 80167  1  0  0  0
 80168  1  0  0  0
 81 89  1  0  0  0
 81169  1  0  0  0
 81170  1  0  0  0
 82 90  1  0  0  0
 82171  1  0  0  0
 82172  1  0  0  0
 83 90  1  0  0  0
 83173  1  0  0  0
 83174  1  0  0  0
 84 85  1  0  0  0
 84175  1  0  0  0
 84176  1  0  0  0
 85177  1  0  0  0
 86178  1  0  0  0
 87 88  1  0  0  0
 89179  1  0  0  0
 90180  1  0  0  0
M  CHG  1  90   1
M  ISO  4   1 100  68 101  84 101  89 100
M  END
> <chiral flag>
0

> <version>
0

> <s_m_source_file>
/data/baiqing/PycharmProjects/Reinvent-master-3.2/result/LINK_invent/BTK/process_docking_weight1_custom_sum_contain_oxygen_bond_distance_aromatic_linkinvent_7_9_3/rearranged_h_0090.sdf

> <i_m_source_file_index>
94

> <r_mmod_Potential_Energy-OPLS-2005>
-224.278091430664

> <r_mmod_Stretch_Energy-OPLS-2005>
36.1978569030762

> <r_mmod_Bend_Energy-OPLS-2005>
116.557266235352

> <r_mmod_Torsional_Energy-OPLS-2005>
226.151702880859

> <r_mmod_Improper_Torsional_Energy-OPLS-2005>
5.50607252120972

> <r_mmod_Van_der_Waal_Energy-OPLS-2005>
118.401588439941

> <r_mmod_Electrostatic_Energy-OPLS-2005>
-306.810241699219

> <r_mmod_Solvation_Energy-OPLS-2005>
-431.320159912109

> <b_mmod_Minimization_Converged-OPLS-2005>
0

> <r_mmod_RMS_Derivative-OPLS-2005>
3.57547736167908

$$$$
96
                    3D
 Structure written by MMmdl.
153161  0  0  1  0            999 V2000
  -30.6273  -14.5830   20.5001 C   0  0  0  0  0  0
  -30.4291  -12.3610   19.4256 C   0  0  0  0  0  0
  -29.4898  -12.4993   18.2078 C   0  0  0  0  0  0
  -28.0153  -12.3417   18.6264 C   0  0  0  0  0  0
  -27.6506  -13.2028   19.8634 C   0  0  2  0  0  0
  -28.6979  -13.0267   20.9847 C   0  0  0  0  0  0
  -25.2557  -13.8132   20.5682 C   0  0  0  0  0  0
  -24.1803  -13.0418   20.9193 C   0  0  0  0  0  0
  -24.6350  -11.6896   20.8733 C   0  0  0  0  0  0
  -23.9020  -10.4282   21.0427 C   0  0  0  0  0  0
  -24.3586   -9.4204   21.9195 C   0  0  0  0  0  0
  -23.6276   -8.2234   22.0759 C   0  0  0  0  0  0
  -22.4272   -8.0266   21.3546 C   0  0  0  0  0  0
  -21.9887   -9.0229   20.4654 C   0  0  0  0  0  0
  -22.7195  -10.2117   20.3071 C   0  0  0  0  0  0
  -21.6841   -6.0714   22.5274 C   0  0  0  0  0  0
  -21.4020   -6.5629   23.8214 C   0  0  0  0  0  0
  -21.3663   -5.6790   24.9173 C   0  0  0  0  0  0
  -21.6047   -4.3046   24.7229 C   0  0  0  0  0  0
  -21.8828   -3.8140   23.4352 C   0  0  0  0  0  0
  -21.9202   -4.6947   22.3409 C   0  0  0  0  0  0
  -22.7836  -13.5233   21.1866 C   0  0  0  0  0  0
  -22.1666   -4.2131   21.0981 F   0  0  0  0  0  0
  -21.5625   -3.4542   25.7740 F   0  0  0  0  0  0
  -30.0118  -13.3658   20.4164 N   0  0  0  0  0  0
  -26.2967  -12.9288   20.3328 N   0  0  0  0  0  0
  -25.9277  -11.6460   20.5755 N   0  0  0  0  0  0
  -22.0494  -12.8199   22.0425 N   0  0  0  0  0  0
  -25.4320  -15.1843   20.4056 N   0  0  0  0  0  0
  -31.7968  -14.7568   20.1524 O   0  0  0  0  0  0
  -21.6647   -6.8848   21.4236 O   0  0  0  0  0  0
  -22.3535  -14.5557   20.6749 O   0  0  0  0  0  0
  -24.6204  -31.8598   23.2055 C   0  0  0  0  0  0
  -25.9074  -32.4772   23.8337 C   0  0  1  0  0  0
  -27.2385  -27.3706   20.1322 C   0  0  0  0  0  0
  -25.5882  -33.8568   24.2239 N   0  0  0  0  0  0
  -23.4156  -30.4835   21.5437 C   0  0  2  0  0  0
  -24.8661  -28.9447   20.1170 C   0  0  0  0  0  0
  -22.7442  -29.4631   22.4917 C   0  0  0  0  0  0
  -18.0291  -28.1371   22.8495 C   0  0  0  0  0  0
  -24.1474  -36.7304   23.2642 C   0  0  0  0  0  0
  -25.9494  -30.8140   21.3674 C   0  0  0  0  0  0
  -26.0308  -29.4436   20.7147 C   0  0  0  0  0  0
  -27.2208  -28.6675   20.7121 C   0  0  0  0  0  0
  -26.0511  -26.9040   19.5210 C   0  0  0  0  0  0
  -24.8744  -27.6755   19.5174 C   0  0  0  0  0  0
  -23.6307  -29.8159   20.1591 C   0  0  0  0  0  0
  -25.4106  -36.3068   24.0316 C   0  0  1  0  0  0
  -20.5899  -28.3674   23.1283 C   0  0  2  0  0  0
  -20.6791  -26.9391   22.5435 C   0  0  0  0  0  0
  -19.5767  -26.6370   21.5236 C   0  0  0  0  0  0
  -18.1941  -26.7926   22.1622 C   0  0  0  0  0  0
  -19.1546  -28.8837   23.2891 C   0  0  0  0  0  0
  -18.9466  -30.1449   23.8892 C   0  0  0  0  0  0
  -17.6464  -30.6581   24.0573 C   0  0  0  0  0  0
  -25.9049  -34.9441   23.5080 C   0  0  0  0  0  0
  -16.5360  -29.9088   23.6324 C   0  0  0  0  0  0
  -16.7291  -28.6510   23.0335 C   0  0  0  0  0  0
  -26.4475  -31.6576   25.0688 C   0  0  0  0  0  0
  -25.3708  -31.3725   26.1423 C   0  0  0  0  0  0
  -27.0321  -30.2992   24.6136 C   0  0  0  0  0  0
  -27.6018  -32.4344   25.7448 C   0  0  0  0  0  0
  -27.5572  -37.1806   24.8461 C   0  0  0  0  0  0
  -21.4154  -29.3034   22.3643 N   0  0  0  0  0  0
  -26.4278  -37.3765   23.9414 N   0  0  0  0  0  0
  -24.6807  -31.0651   22.0988 N   0  0  0  0  0  0
  -23.4183  -28.8163   23.2984 O   0  0  0  0  0  0
  -28.3800  -26.5744   20.1729 O   0  0  0  0  0  0
  -26.5599  -34.8895   22.4641 O   0  0  0  0  0  0
  -23.5379  -32.1361   23.7436 O   0  0  0  0  0  0
  -29.6330  -20.3926   20.9475 C   0  0  0  0  0  0
  -28.4250  -21.5026   19.5306 C   0  0  0  0  0  0
  -29.1256  -19.4912   20.0192 C   0  0  0  0  0  0
  -29.2110  -17.9581   19.8490 C   0  0  0  0  0  0
  -29.4966  -24.3377   20.6855 C   0  0  0  0  0  0
  -29.4089  -22.9299   21.4053 C   0  0  0  0  0  0
  -30.0719  -17.0972   20.8463 C   0  0  0  0  0  0
  -28.1816  -25.1524   20.4509 C   0  0  0  0  0  0
  -28.3622  -20.2357   19.1130 N   0  0  0  0  0  0
  -29.1809  -21.6891   20.6227 N   0  0  0  0  0  0
  -29.8029  -15.6238   20.7903 N   0  0  0  0  0  0
  -31.4699  -12.4853   19.1226 H   0  0  0  0  0  0
  -30.3569  -11.3592   19.8528 H   0  0  0  0  0  0
  -29.7412  -11.7524   17.4535 H   0  0  0  0  0  0
  -29.6293  -13.4742   17.7367 H   0  0  0  0  0  0
  -27.8420  -11.2869   18.8418 H   0  0  0  0  0  0
  -27.3568  -12.5869   17.7931 H   0  0  0  0  0  0
  -27.6788  -14.2421   19.5377 H   0  0  0  0  0  0
  -28.6982  -11.9964   21.3482 H   0  0  0  0  0  0
  -28.4537  -13.6429   21.8515 H   0  0  0  0  0  0
  -25.2738   -9.5682   22.4752 H   0  0  0  0  0  0
  -24.0005   -7.4624   22.7470 H   0  0  0  0  0  0
  -21.0829   -8.8737   19.8943 H   0  0  0  0  0  0
  -22.3671  -10.9646   19.6176 H   0  0  0  0  0  0
  -21.2020   -7.6141   23.9698 H   0  0  0  0  0  0
  -21.1469   -6.0526   25.9069 H   0  0  0  0  0  0
  -22.0606   -2.7601   23.2864 H   0  0  0  0  0  0
  -22.4146  -11.9840   22.4748 H   0  0  0  0  0  0
  -21.1132  -13.1199   22.2697 H   0  0  0  0  0  0
  -24.6657  -15.8400   20.5121 H   0  0  0  0  0  0
  -26.2737  -15.6137   20.0427 H   0  0  0  0  0  0
  -26.7137  -32.5468   23.1095 H   0  0  0  0  0  0
  -25.0018  -33.9693   25.0365 H   0  0  0  0  0  0
  -22.7113  -31.3028   21.3979 H   0  0  0  0  0  0
  -23.3684  -35.9677   23.3317 H   0  0  0  0  0  0
  -24.3574  -36.8922   22.2058 H   0  0  0  0  0  0
  -23.7274  -37.6531   23.6652 H   0  0  0  0  0  0
  -26.0694  -31.5769   20.5969 H   0  0  0  0  0  0
  -26.8322  -30.8679   21.9922 H   0  0  0  0  0  0
  -28.1181  -29.0438   21.1865 H   0  0  0  0  0  0
  -26.0070  -25.9382   19.0429 H   0  0  0  0  0  0
  -23.9801  -27.2780   19.0589 H   0  0  0  0  0  0
  -23.7516  -30.5862   19.3991 H   0  0  0  0  0  0
  -22.7515  -29.2438   19.8562 H   0  0  0  0  0  0
  -25.1305  -36.1944   25.0802 H   0  0  0  0  0  0
  -21.0020  -28.3272   24.1391 H   0  0  0  0  0  0
  -20.5733  -26.2265   23.3638 H   0  0  0  0  0  0
  -21.6650  -26.7468   22.1193 H   0  0  0  0  0  0
  -19.6913  -25.6287   21.1244 H   0  0  0  0  0  0
  -19.6680  -27.3179   20.6763 H   0  0  0  0  0  0
  -17.4219  -26.6675   21.4009 H   0  0  0  0  0  0
  -18.0324  -26.0060   22.8998 H   0  0  0  0  0  0
  -19.7954  -30.7260   24.2242 H   0  0  0  0  0  0
  -17.5046  -31.6274   24.5155 H   0  0  0  0  0  0
  -15.5375  -30.2987   23.7667 H   0  0  0  0  0  0
  -15.8692  -28.0864   22.7009 H   0  0  0  0  0  0
  -24.5885  -30.7064   25.7763 H   0  0  0  0  0  0
  -24.8876  -32.2898   26.4788 H   0  0  0  0  0  0
  -25.8028  -30.8956   27.0233 H   0  0  0  0  0  0
  -26.2899  -29.6721   24.1181 H   0  0  0  0  0  0
  -27.4033  -29.7274   25.4647 H   0  0  0  0  0  0
  -27.8732  -30.4262   23.9328 H   0  0  0  0  0  0
  -27.2606  -33.3653   26.1977 H   0  0  0  0  0  0
  -28.3828  -32.6904   25.0284 H   0  0  0  0  0  0
  -28.0657  -31.8517   26.5410 H   0  0  0  0  0  0
  -28.2591  -38.0104   24.7524 H   0  0  0  0  0  0
  -28.1065  -36.2637   24.6275 H   0  0  0  0  0  0
  -27.2293  -37.1492   25.8862 H   0  0  0  0  0  0
  -20.9327  -29.8772   21.6865 H   0  0  0  0  0  0
  -26.0140  -38.2812   24.1435 H   0  0  0  0  0  0
  -30.2509  -20.2168   21.8191 H   0  0  0  0  0  0
  -27.8970  -22.3024   19.0342 H   0  0  0  0  0  0
  -29.5657  -17.7523   18.8376 H   0  0  0  0  0  0
  -28.1948  -17.5628   19.8545 H   0  0  0  0  0  0
  -30.0927  -24.9607   21.3515 H   0  0  0  0  0  0
  -30.0852  -24.2867   19.7702 H   0  0  0  0  0  0
  -28.6631  -22.9611   22.2006 H   0  0  0  0  0  0
  -30.3604  -22.7820   21.9217 H   0  0  0  0  0  0
  -29.8492  -17.4079   21.8685 H   0  0  0  0  0  0
  -31.1303  -17.3131   20.6969 H   0  0  0  0  0  0
  -27.5666  -25.0696   21.3486 H   0  0  0  0  0  0
  -27.6382  -24.6721   19.6386 H   0  0  0  0  0  0
  -28.8533  -15.3441   20.9888 H   0  0  0  0  0  0
  1 25  1  0  0  0
  1 30  2  0  0  0
  1 81  1  0  0  0
  2  3  1  0  0  0
  2 25  1  0  0  0
  2 82  1  0  0  0
  2 83  1  0  0  0
  3  4  1  0  0  0
  3 84  1  0  0  0
  3 85  1  0  0  0
  4  5  1  0  0  0
  4 86  1  0  0  0
  4 87  1  0  0  0
  5  6  1  0  0  0
  5 26  1  0  0  0
  5 88  1  0  0  0
  6 25  1  0  0  0
  6 89  1  0  0  0
  6 90  1  0  0  0
  7  8  2  0  0  0
  7 26  1  0  0  0
  7 29  1  0  0  0
  8  9  1  0  0  0
  8 22  1  0  0  0
  9 10  1  0  0  0
  9 27  2  0  0  0
 10 11  2  0  0  0
 10 15  1  0  0  0
 11 12  1  0  0  0
 11 91  1  0  0  0
 12 13  2  0  0  0
 12 92  1  0  0  0
 13 14  1  0  0  0
 13 31  1  0  0  0
 14 15  2  0  0  0
 14 93  1  0  0  0
 15 94  1  0  0  0
 16 17  2  0  0  0
 16 21  1  0  0  0
 16 31  1  0  0  0
 17 18  1  0  0  0
 17 95  1  0  0  0
 18 19  2  0  0  0
 18 96  1  0  0  0
 19 20  1  0  0  0
 19 24  1  0  0  0
 20 21  2  0  0  0
 20 97  1  0  0  0
 21 23  1  0  0  0
 22 28  1  0  0  0
 22 32  2  0  0  0
 26 27  1  0  0  0
 28 98  1  0  0  0
 28 99  1  0  0  0
 29100  1  0  0  0
 29101  1  0  0  0
 33 34  1  0  0  0
 33 66  1  0  0  0
 33 70  2  0  0  0
 34 36  1  0  0  0
 34 59  1  0  0  0
 34102  1  0  0  0
 35 44  2  0  0  0
 35 45  1  0  0  0
 35 68  1  0  0  0
 36 56  1  0  0  0
 36103  1  0  0  0
 37 39  1  0  0  0
 37 47  1  0  0  0
 37 66  1  0  0  0
 37104  1  0  0  0
 38 43  2  0  0  0
 38 46  1  0  0  0
 38 47  1  0  0  0
 39 64  1  0  0  0
 39 67  2  0  0  0
 40 52  1  0  0  0
 40 53  2  0  0  0
 40 58  1  0  0  0
 41105  1  0  0  0
 41106  1  0  0  0
 41107  1  0  0  0
 41 48  1  0  0  0
 42 43  1  0  0  0
 42 66  1  0  0  0
 42108  1  0  0  0
 42109  1  0  0  0
 43 44  1  0  0  0
 44110  1  0  0  0
 45 46  2  0  0  0
 45111  1  0  0  0
 46112  1  0  0  0
 47113  1  0  0  0
 47114  1  0  0  0
 48 56  1  0  0  0
 48 65  1  0  0  0
 48115  1  0  0  0
 49 50  1  0  0  0
 49 53  1  0  0  0
 49 64  1  0  0  0
 49116  1  0  0  0
 50 51  1  0  0  0
 50117  1  0  0  0
 50118  1  0  0  0
 51 52  1  0  0  0
 51119  1  0  0  0
 51120  1  0  0  0
 52121  1  0  0  0
 52122  1  0  0  0
 53 54  1  0  0  0
 54 55  2  0  0  0
 54123  1  0  0  0
 55 57  1  0  0  0
 55124  1  0  0  0
 56 69  2  0  0  0
 57 58  2  0  0  0
 57125  1  0  0  0
 58126  1  0  0  0
 59 60  1  0  0  0
 59 61  1  0  0  0
 59 62  1  0  0  0
 60127  1  0  0  0
 60128  1  0  0  0
 60129  1  0  0  0
 61130  1  0  0  0
 61131  1  0  0  0
 61132  1  0  0  0
 62133  1  0  0  0
 62134  1  0  0  0
 62135  1  0  0  0
 63 65  1  0  0  0
 63136  1  0  0  0
 63137  1  0  0  0
 63138  1  0  0  0
 64139  1  0  0  0
 65140  1  0  0  0
 68 78  1  0  0  0
 71 73  2  0  0  0
 71 80  1  0  0  0
 71141  1  0  0  0
 72 79  2  0  0  0
 72 80  1  0  0  0
 72142  1  0  0  0
 73 74  1  0  0  0
 73 79  1  0  0  0
 74 77  1  0  0  0
 74143  1  0  0  0
 74144  1  0  0  0
 75 76  1  0  0  0
 75 78  1  0  0  0
 75145  1  0  0  0
 75146  1  0  0  0
 76 80  1  0  0  0
 76147  1  0  0  0
 76148  1  0  0  0
 77 81  1  0  0  0
 77149  1  0  0  0
 77150  1  0  0  0
 78151  1  0  0  0
 78152  1  0  0  0
 81153  1  0  0  0
M  ISO  4   1 100  68 101  78 101  81 100
M  END
> <chiral flag>
0

> <version>
0

> <s_m_source_file>
/data/baiqing/PycharmProjects/Reinvent-master-3.2/result/LINK_invent/BTK/process_docking_weight1_custom_sum_contain_oxygen_bond_distance_aromatic_linkinvent_7_9_3/rearranged_h_0090.sdf

> <i_m_source_file_index>
95

> <r_mmod_Potential_Energy-OPLS-2005>
-28.1470050811768

> <r_mmod_Stretch_Energy-OPLS-2005>
55.7792778015137

> <r_mmod_Bend_Energy-OPLS-2005>
130.426956176758

> <r_mmod_Torsional_Energy-OPLS-2005>
224.046081542969

> <r_mmod_Improper_Torsional_Energy-OPLS-2005>
5.12237644195557

> <r_mmod_Van_der_Waal_Energy-OPLS-2005>
120.239929199219

> <r_mmod_Electrostatic_Energy-OPLS-2005>
-363.947479248047

> <r_mmod_Solvation_Energy-OPLS-2005>
-232.146301269531

> <b_mmod_Minimization_Converged-OPLS-2005>
0

> <r_mmod_RMS_Derivative-OPLS-2005>
4.67773389816284

$$$$
97
                    3D
 Structure written by MMmdl.
159167  0  0  1  0            999 V2000
  -30.0015  -15.9411   20.4534 C   0  0  0  0  0  0
  -30.3732  -13.3319   19.6269 C   0  0  0  0  0  0
  -29.5640  -12.7700   18.4075 C   0  0  0  0  0  0
  -28.1516  -12.3338   18.8248 C   0  0  0  0  0  0
  -27.5701  -13.3356   19.8431 C   0  0  2  0  0  0
  -28.5328  -13.7280   20.9875 C   0  0  0  0  0  0
  -25.2147  -13.8338   20.5852 C   0  0  0  0  0  0
  -24.1595  -13.0438   20.9321 C   0  0  0  0  0  0
  -24.6341  -11.6952   20.8796 C   0  0  0  0  0  0
  -23.9083  -10.4281   21.0395 C   0  0  0  0  0  0
  -24.3655   -9.4203   21.9162 C   0  0  0  0  0  0
  -23.6324   -8.2245   22.0736 C   0  0  0  0  0  0
  -22.4291   -8.0284   21.3557 C   0  0  0  0  0  0
  -21.9931   -9.0242   20.4647 C   0  0  0  0  0  0
  -22.7260  -10.2116   20.3038 C   0  0  0  0  0  0
  -21.6866   -6.0747   22.5273 C   0  0  0  0  0  0
  -21.4019   -6.5646   23.8205 C   0  0  0  0  0  0
  -21.3649   -5.6800   24.9169 C   0  0  0  0  0  0
  -21.6043   -4.3061   24.7226 C   0  0  0  0  0  0
  -21.8825   -3.8154   23.4346 C   0  0  0  0  0  0
  -21.9195   -4.6973   22.3401 C   0  0  0  0  0  0
  -22.7617  -13.5156   21.1952 C   0  0  0  0  0  0
  -22.1668   -4.2164   21.0979 F   0  0  0  0  0  0
  -21.5618   -3.4530   25.7731 F   0  0  0  0  0  0
  -29.6319  -14.4922   20.3649 N   0  0  0  0  0  0
  -26.2578  -12.9693   20.3288 N   0  0  0  0  0  0
  -25.9298  -11.6738   20.5748 N   0  0  0  0  0  0
  -22.0323  -12.8096   22.0505 N   0  0  0  0  0  0
  -25.3698  -15.2094   20.4300 N   0  0  0  0  0  0
  -31.2359  -15.9156   20.2097 O   0  0  0  0  0  0
  -21.6648   -6.8895   21.4244 O   0  0  0  0  0  0
  -22.3273  -14.5449   20.6779 O   0  0  0  0  0  0
  -24.6434  -31.7727   23.1599 C   0  0  0  0  0  0
  -25.9138  -32.4275   23.7993 C   0  0  1  0  0  0
  -27.8435  -26.8358   19.8796 C   0  0  0  0  0  0
  -25.5795  -33.8181   24.1809 N   0  0  0  0  0  0
  -23.4732  -30.2806   21.5381 C   0  0  2  0  0  0
  -24.7795  -28.2171   20.4157 C   0  0  0  0  0  0
  -22.7263  -29.4141   22.5550 C   0  0  0  0  0  0
  -18.0170  -28.1392   22.8470 C   0  0  0  0  0  0
  -24.1476  -36.7122   23.2661 C   0  0  0  0  0  0
  -26.0022  -30.3072   21.6019 C   0  0  0  0  0  0
  -26.0599  -28.7524   21.2611 C   0  0  0  0  0  0
  -27.5527  -28.0543   21.0730 C   0  0  0  0  0  0
  -26.4590  -26.2628   18.9063 C   0  0  0  0  0  0
  -24.9081  -26.9831   19.2811 C   0  0  0  0  0  0
  -23.7025  -29.3501   20.2837 C   0  0  0  0  0  0
  -25.4116  -36.2819   24.0262 C   0  0  1  0  0  0
  -20.5684  -28.3584   23.1445 C   0  0  2  0  0  0
  -20.6631  -26.9331   22.5543 C   0  0  0  0  0  0
  -19.5677  -26.6364   21.5264 C   0  0  0  0  0  0
  -18.1824  -26.7941   22.1600 C   0  0  0  0  0  0
  -19.1410  -28.8843   23.2905 C   0  0  0  0  0  0
  -18.9387  -30.1452   23.8914 C   0  0  0  0  0  0
  -17.6410  -30.6621   24.0572 C   0  0  0  0  0  0
  -25.9071  -34.9199   23.4894 C   0  0  0  0  0  0
  -16.5291  -29.9148   23.6316 C   0  0  0  0  0  0
  -16.7180  -28.6561   23.0334 C   0  0  0  0  0  0
  -26.4527  -31.6502   25.0699 C   0  0  0  0  0  0
  -25.3622  -31.3831   26.1327 C   0  0  0  0  0  0
  -27.0603  -30.2809   24.6925 C   0  0  0  0  0  0
  -27.5951  -32.4537   25.7408 C   0  0  0  0  0  0
  -27.5514  -37.1685   24.8434 C   0  0  0  0  0  0
  -21.4054  -29.2817   22.3890 N   0  0  0  0  0  0
  -26.4218  -37.3583   23.9386 N   0  0  0  0  0  0
  -24.7234  -30.8516   22.1342 N   0  0  0  0  0  0
  -23.3506  -28.8194   23.4321 O   0  0  0  0  0  0
  -29.0666  -26.7754   19.4240 O   0  0  0  0  0  0
  -26.5832  -34.8789   22.4588 O   0  0  0  0  0  0
  -23.5504  -32.1273   23.6293 O   0  0  0  0  0  0
  -25.3618  -26.2185   22.3322 C   0  0  0  0  0  0
  -25.3547  -24.9612   22.9756 C   0  0  0  0  0  0
  -26.0900  -26.1732   21.1497 C   0  0  0  0  0  0
  -24.6462  -24.6266   24.2540 C   0  0  0  0  0  0
  -26.6248  -28.5136   18.9970 C   0  0  0  0  0  0
  -28.0957  -28.8663   18.4397 C   0  0  0  0  0  0
  -27.8679  -20.9089   20.9821 C   0  0  0  0  0  0
  -27.5278  -22.9379   20.6083 C   0  0  0  0  0  0
  -28.9580  -19.1961   20.4800 C   0  0  0  0  0  0
  -29.0430  -27.6255   18.2659 C   0  0  0  0  0  0
  -26.0464  -24.0232   22.3694 N   0  0  0  0  0  0
  -26.6043  -24.4846   21.2272 N   0  0  0  0  0  0
  -29.1219  -17.3159   20.6431 N   0  0  0  0  0  0
  -31.3442  -13.6754   19.2702 H   0  0  0  0  0  0
  -30.6267  -12.5334   20.3248 H   0  0  0  0  0  0
  -30.0960  -11.9441   17.9332 H   0  0  0  0  0  0
  -29.4854  -13.5607   17.6598 H   0  0  0  0  0  0
  -28.2135  -11.3467   19.2854 H   0  0  0  0  0  0
  -27.4993  -12.2352   17.9560 H   0  0  0  0  0  0
  -27.4149  -14.2387   19.2492 H   0  0  0  0  0  0
  -28.8754  -12.8623   21.5553 H   0  0  0  0  0  0
  -28.0409  -14.3801   21.7109 H   0  0  0  0  0  0
  -25.2798   -9.5682   22.4738 H   0  0  0  0  0  0
  -24.0024   -7.4642   22.7442 H   0  0  0  0  0  0
  -21.0865   -8.8797   19.8957 H   0  0  0  0  0  0
  -22.3728  -10.9679   19.6156 H   0  0  0  0  0  0
  -21.2017   -7.6150   23.9729 H   0  0  0  0  0  0
  -21.1457   -6.0512   25.9078 H   0  0  0  0  0  0
  -22.0613   -2.7614   23.2836 H   0  0  0  0  0  0
  -22.4019  -11.9776   22.4872 H   0  0  0  0  0  0
  -21.0940  -13.1070   22.2776 H   0  0  0  0  0  0
  -24.5968  -15.8538   20.5496 H   0  0  0  0  0  0
  -26.1901  -15.6492   20.0347 H   0  0  0  0  0  0
  -26.7128  -32.4713   23.0596 H   0  0  0  0  0  0
  -24.9716  -33.9272   24.9800 H   0  0  0  0  0  0
  -22.8203  -31.1048   21.2439 H   0  0  0  0  0  0
  -23.3723  -35.9454   23.3223 H   0  0  0  0  0  0
  -24.3550  -36.8884   22.2090 H   0  0  0  0  0  0
  -23.7239  -37.6277   23.6814 H   0  0  0  0  0  0
  -26.1978  -30.8875   20.7033 H   0  0  0  0  0  0
  -26.8693  -30.5295   22.2059 H   0  0  0  0  0  0
  -28.4073  -28.5477   21.5125 H   0  0  0  0  0  0
  -26.5909  -25.6039   18.0628 H   0  0  0  0  0  0
  -24.0661  -26.7560   18.6443 H   0  0  0  0  0  0
  -23.9763  -29.9769   19.4357 H   0  0  0  0  0  0
  -22.7647  -28.8760   19.9843 H   0  0  0  0  0  0
  -25.1316  -36.1545   25.0742 H   0  0  0  0  0  0
  -20.9586  -28.3111   24.1635 H   0  0  0  0  0  0
  -20.5458  -26.2185   23.3704 H   0  0  0  0  0  0
  -21.6537  -26.7374   22.1404 H   0  0  0  0  0  0
  -19.6821  -25.6273   21.1294 H   0  0  0  0  0  0
  -19.6695  -27.3183   20.6799 H   0  0  0  0  0  0
  -17.4133  -26.6750   21.3951 H   0  0  0  0  0  0
  -18.0137  -26.0088   22.8982 H   0  0  0  0  0  0
  -19.7897  -30.7237   24.2273 H   0  0  0  0  0  0
  -17.5003  -31.6299   24.5185 H   0  0  0  0  0  0
  -15.5310  -30.3088   23.7636 H   0  0  0  0  0  0
  -15.8557  -28.0927   22.7024 H   0  0  0  0  0  0
  -24.6064  -30.6847   25.7727 H   0  0  0  0  0  0
  -24.8460  -32.2969   26.4263 H   0  0  0  0  0  0
  -25.7821  -30.9461   27.0394 H   0  0  0  0  0  0
  -26.3480  -29.6291   24.1845 H   0  0  0  0  0  0
  -27.3799  -29.7378   25.5823 H   0  0  0  0  0  0
  -27.9524  -30.3882   24.0749 H   0  0  0  0  0  0
  -27.2475  -33.3974   26.1636 H   0  0  0  0  0  0
  -28.3873  -32.6854   25.0279 H   0  0  0  0  0  0
  -28.0527  -31.8964   26.5580 H   0  0  0  0  0  0
  -28.2458  -38.0049   24.7476 H   0  0  0  0  0  0
  -28.1089  -36.2554   24.6249 H   0  0  0  0  0  0
  -27.2249  -37.1286   25.8849 H   0  0  0  0  0  0
  -20.9586  -29.8078   21.6533 H   0  0  0  0  0  0
  -26.0032  -38.2608   24.1450 H   0  0  0  0  0  0
  -24.8495  -27.0775   22.7234 H   0  0  0  0  0  0
  -23.7724  -24.0004   24.0697 H   0  0  0  0  0  0
  -24.2976  -25.5292   24.7542 H   0  0  0  0  0  0
  -25.3010  -24.0974   24.9476 H   0  0  0  0  0  0
  -26.2425  -29.5336   19.1179 H   0  0  0  0  0  0
  -26.1572  -28.4026   18.0038 H   0  0  0  0  0  0
  -28.5764  -29.5524   19.1381 H   0  0  0  0  0  0
  -28.0316  -29.4220   17.5041 H   0  0  0  0  0  0
  -26.8553  -20.5293   20.8529 H   0  0  0  0  0  0
  -27.9866  -20.9042   22.0675 H   0  0  0  0  0  0
  -27.1320  -22.8654   19.5960 H   0  0  0  0  0  0
  -28.5363  -23.3217   20.4537 H   0  0  0  0  0  0
  -29.9831  -19.5021   20.7038 H   0  0  0  0  0  0
  -28.9059  -19.2514   19.3935 H   0  0  0  0  0  0
  -30.0566  -27.9581   18.0398 H   0  0  0  0  0  0
  -28.7154  -27.0389   17.4069 H   0  0  0  0  0  0
  -28.2131  -17.0004   20.9528 H   0  0  0  0  0  0
  1 25  1  0  0  0
  1 30  2  0  0  0
  1 83  1  0  0  0
  2  3  1  0  0  0
  2 25  1  0  0  0
  2 84  1  0  0  0
  2 85  1  0  0  0
  3  4  1  0  0  0
  3 86  1  0  0  0
  3 87  1  0  0  0
  4  5  1  0  0  0
  4 88  1  0  0  0
  4 89  1  0  0  0
  5  6  1  0  0  0
  5 26  1  0  0  0
  5 90  1  0  0  0
  6 25  1  0  0  0
  6 91  1  0  0  0
  6 92  1  0  0  0
  7  8  2  0  0  0
  7 26  1  0  0  0
  7 29  1  0  0  0
  8  9  1  0  0  0
  8 22  1  0  0  0
  9 10  1  0  0  0
  9 27  2  0  0  0
 10 11  2  0  0  0
 10 15  1  0  0  0
 11 12  1  0  0  0
 11 93  1  0  0  0
 12 13  2  0  0  0
 12 94  1  0  0  0
 13 14  1  0  0  0
 13 31  1  0  0  0
 14 15  2  0  0  0
 14 95  1  0  0  0
 15 96  1  0  0  0
 16 17  2  0  0  0
 16 21  1  0  0  0
 16 31  1  0  0  0
 17 18  1  0  0  0
 17 97  1  0  0  0
 18 19  2  0  0  0
 18 98  1  0  0  0
 19 20  1  0  0  0
 19 24  1  0  0  0
 20 21  2  0  0  0
 20 99  1  0  0  0
 21 23  1  0  0  0
 22 28  1  0  0  0
 22 32  2  0  0  0
 26 27  1  0  0  0
 28100  1  0  0  0
 28101  1  0  0  0
 29102  1  0  0  0
 29103  1  0  0  0
 33 34  1  0  0  0
 33 66  1  0  0  0
 33 70  2  0  0  0
 34 36  1  0  0  0
 34 59  1  0  0  0
 34104  1  0  0  0
 35 44  2  0  0  0
 35 45  1  0  0  0
 35 68  1  0  0  0
 36 56  1  0  0  0
 36105  1  0  0  0
 37 39  1  0  0  0
 37 47  1  0  0  0
 37 66  1  0  0  0
 37106  1  0  0  0
 38 43  2  0  0  0
 38 46  1  0  0  0
 38 47  1  0  0  0
 39 64  1  0  0  0
 39 67  2  0  0  0
 40 52  1  0  0  0
 40 53  2  0  0  0
 40 58  1  0  0  0
 41107  1  0  0  0
 41108  1  0  0  0
 41109  1  0  0  0
 41 48  1  0  0  0
 42 43  1  0  0  0
 42 66  1  0  0  0
 42110  1  0  0  0
 42111  1  0  0  0
 43 44  1  0  0  0
 44112  1  0  0  0
 45 46  2  0  0  0
 45113  1  0  0  0
 46114  1  0  0  0
 47115  1  0  0  0
 47116  1  0  0  0
 48 56  1  0  0  0
 48 65  1  0  0  0
 48117  1  0  0  0
 49 50  1  0  0  0
 49 53  1  0  0  0
 49 64  1  0  0  0
 49118  1  0  0  0
 50 51  1  0  0  0
 50119  1  0  0  0
 50120  1  0  0  0
 51 52  1  0  0  0
 51121  1  0  0  0
 51122  1  0  0  0
 52123  1  0  0  0
 52124  1  0  0  0
 53 54  1  0  0  0
 54 55  2  0  0  0
 54125  1  0  0  0
 55 57  1  0  0  0
 55126  1  0  0  0
 56 69  2  0  0  0
 57 58  2  0  0  0
 57127  1  0  0  0
 58128  1  0  0  0
 59 60  1  0  0  0
 59 61  1  0  0  0
 59 62  1  0  0  0
 60129  1  0  0  0
 60130  1  0  0  0
 60131  1  0  0  0
 61132  1  0  0  0
 61133  1  0  0  0
 61134  1  0  0  0
 62135  1  0  0  0
 62136  1  0  0  0
 62137  1  0  0  0
 63 65  1  0  0  0
 63138  1  0  0  0
 63139  1  0  0  0
 63140  1  0  0  0
 64141  1  0  0  0
 65142  1  0  0  0
 68 80  1  0  0  0
 71 72  1  0  0  0
 71 73  2  0  0  0
 71143  1  0  0  0
 72 74  1  0  0  0
 72 81  2  0  0  0
 73 75  1  0  0  0
 73 82  1  0  0  0
 74144  1  0  0  0
 74145  1  0  0  0
 74146  1  0  0  0
 75 76  1  0  0  0
 75147  1  0  0  0
 75148  1  0  0  0
 76 80  1  0  0  0
 76149  1  0  0  0
 76150  1  0  0  0
 77 78  1  0  0  0
 77 79  1  0  0  0
 77151  1  0  0  0
 77152  1  0  0  0
 78 82  1  0  0  0
 78153  1  0  0  0
 78154  1  0  0  0
 79 83  1  0  0  0
 79155  1  0  0  0
 79156  1  0  0  0
 80157  1  0  0  0
 80158  1  0  0  0
 81 82  1  0  0  0
 83159  1  0  0  0
M  ISO  4   1 100  68 101  80 101  83 100
M  END
> <chiral flag>
0

> <version>
0

> <s_m_source_file>
/data/baiqing/PycharmProjects/Reinvent-master-3.2/result/LINK_invent/BTK/process_docking_weight1_custom_sum_contain_oxygen_bond_distance_aromatic_linkinvent_7_9_3/rearranged_h_0090.sdf

> <i_m_source_file_index>
96

> <r_mmod_Potential_Energy-OPLS-2005>
10910.96875

> <r_mmod_Stretch_Energy-OPLS-2005>
6726.826171875

> <r_mmod_Bend_Energy-OPLS-2005>
840.678527832031

> <r_mmod_Torsional_Energy-OPLS-2005>
309.136352539062

> <r_mmod_Improper_Torsional_Energy-OPLS-2005>
26.8928127288818

> <r_mmod_Van_der_Waal_Energy-OPLS-2005>
2112.3232421875

> <r_mmod_Electrostatic_Energy-OPLS-2005>
-402.125823974609

> <r_mmod_Solvation_Energy-OPLS-2005>
-233.205520629883

> <b_mmod_Minimization_Converged-OPLS-2005>
0

> <r_mmod_RMS_Derivative-OPLS-2005>
7.5241813659668

$$$$
