0
                    3D
 Structure written by MMmdl.
160168  0  0  1  0            999 V2000
  -30.6366  -14.5932   20.4308 C   0  0  0  0  0  0
  -30.4467  -12.3280   19.4710 C   0  0  0  0  0  0
  -29.5208  -12.4142   18.2345 C   0  0  0  0  0  0
  -28.0302  -12.3209   18.6353 C   0  0  0  0  0  0
  -27.6544  -13.1972   19.8615 C   0  0  2  0  0  0
  -28.7052  -13.0569   20.9865 C   0  0  0  0  0  0
  -25.2588  -13.8111   20.5695 C   0  0  0  0  0  0
  -24.1832  -13.0410   20.9195 C   0  0  0  0  0  0
  -24.6376  -11.6873   20.8753 C   0  0  0  0  0  0
  -23.9039  -10.4269   21.0422 C   0  0  0  0  0  0
  -24.3591   -9.4181   21.9197 C   0  0  0  0  0  0
  -23.6268   -8.2215   22.0753 C   0  0  0  0  0  0
  -22.4251   -8.0261   21.3538 C   0  0  0  0  0  0
  -21.9894   -9.0238   20.4641 C   0  0  0  0  0  0
  -22.7218  -10.2116   20.3061 C   0  0  0  0  0  0
  -21.6842   -6.0718   22.5278 C   0  0  0  0  0  0
  -21.4007   -6.5623   23.8212 C   0  0  0  0  0  0
  -21.3663   -5.6786   24.9182 C   0  0  0  0  0  0
  -21.6048   -4.3048   24.7229 C   0  0  0  0  0  0
  -21.8815   -3.8130   23.4353 C   0  0  0  0  0  0
  -21.9183   -4.6947   22.3407 C   0  0  0  0  0  0
  -22.7850  -13.5212   21.1862 C   0  0  0  0  0  0
  -22.1648   -4.2133   21.0985 F   0  0  0  0  0  0
  -21.5645   -3.4533   25.7739 F   0  0  0  0  0  0
  -30.0309  -13.3659   20.4301 N   0  0  0  0  0  0
  -26.3002  -12.9249   20.3346 N   0  0  0  0  0  0
  -25.9302  -11.6434   20.5803 N   0  0  0  0  0  0
  -22.0480  -12.8214   22.0418 N   0  0  0  0  0  0
  -25.4320  -15.1835   20.4089 N   0  0  0  0  0  0
  -31.8395  -14.7106   20.1802 O   0  0  0  0  0  0
  -21.6622   -6.8855   21.4231 O   0  0  0  0  0  0
  -22.3551  -14.5523   20.6708 O   0  0  0  0  0  0
  -24.6170  -31.8652   23.2068 C   0  0  0  0  0  0
  -25.9048  -32.4808   23.8382 C   0  0  1  0  0  0
  -27.2424  -27.4090   20.1167 C   0  0  0  0  0  0
  -25.5903  -33.8609   24.2317 N   0  0  0  0  0  0
  -23.4085  -30.4841   21.5481 C   0  0  2  0  0  0
  -24.8604  -28.9452   20.1167 C   0  0  0  0  0  0
  -22.7431  -29.4628   22.4990 C   0  0  0  0  0  0
  -18.0272  -28.1358   22.8500 C   0  0  0  0  0  0
  -24.1493  -36.7300   23.2641 C   0  0  0  0  0  0
  -25.9384  -30.8254   21.3627 C   0  0  0  0  0  0
  -26.0209  -29.4563   20.7126 C   0  0  0  0  0  0
  -27.2177  -28.6969   20.7062 C   0  0  0  0  0  0
  -26.0675  -26.9169   19.5122 C   0  0  0  0  0  0
  -24.8794  -27.6748   19.5128 C   0  0  0  0  0  0
  -23.6197  -29.8102   20.1657 C   0  0  0  0  0  0
  -25.4112  -36.3096   24.0333 C   0  0  1  0  0  0
  -20.5867  -28.3650   23.1307 C   0  0  2  0  0  0
  -20.6756  -26.9386   22.5406 C   0  0  0  0  0  0
  -19.5735  -26.6373   21.5206 C   0  0  0  0  0  0
  -18.1911  -26.7909   22.1616 C   0  0  0  0  0  0
  -19.1525  -28.8819   23.2895 C   0  0  0  0  0  0
  -18.9447  -30.1436   23.8894 C   0  0  0  0  0  0
  -17.6452  -30.6572   24.0558 C   0  0  0  0  0  0
  -25.9040  -34.9465   23.5121 C   0  0  0  0  0  0
  -16.5340  -29.9067   23.6331 C   0  0  0  0  0  0
  -16.7262  -28.6485   23.0360 C   0  0  0  0  0  0
  -26.4480  -31.6597   25.0720 C   0  0  0  0  0  0
  -25.3737  -31.3672   26.1457 C   0  0  0  0  0  0
  -27.0347  -30.3057   24.6089 C   0  0  0  0  0  0
  -27.6046  -32.4337   25.7484 C   0  0  0  0  0  0
  -27.5579  -37.1798   24.8465 C   0  0  0  0  0  0
  -21.4155  -29.3020   22.3723 N   0  0  0  0  0  0
  -26.4296  -37.3780   23.9407 N   0  0  0  0  0  0
  -24.6728  -31.0731   22.0976 N   0  0  0  0  0  0
  -23.4184  -28.8180   23.3047 O   0  0  0  0  0  0
  -28.3811  -26.6236   20.1268 O   0  0  0  0  0  0
  -26.5600  -34.8916   22.4680 O   0  0  0  0  0  0
  -23.5351  -32.1429   23.7430 O   0  0  0  0  0  0
  -31.0617  -18.7457   22.2941 C   0  0  0  0  0  0
  -30.9926  -17.3883   22.0937 C   0  0  0  0  0  0
  -30.3059  -19.3315   21.2351 C   0  0  0  0  0  0
  -29.4049  -16.1509   18.8645 C   0  0  0  0  0  0
  -27.8056  -21.0167   19.7643 C   0  0  0  0  0  0
  -30.0808  -20.8277   20.9289 C   0  0  0  0  0  0
  -28.3290  -25.4848   21.0263 C   0  0  0  0  0  0
  -29.7421  -15.8914   20.3560 C   0  0  2  0  0  0
  -28.6104  -21.3722   21.0291 C   0  0  1  0  0  0
  -28.6601  -24.0716   20.4228 C   0  0  0  0  0  0
  -28.4241  -22.8915   21.4421 C   0  0  0  0  0  0
  -29.8377  -18.3690   20.4422 N   0  0  0  0  0  0
  -30.2569  -17.1613   20.9469 N   0  0  0  0  0  0
  -28.0487  -20.6950   22.0368 F   0  0  0  0  0  0
  -29.9319  -24.0465   20.0207 F   0  0  0  0  0  0
  -27.8791  -23.9005   19.3559 F   0  0  0  0  0  0
  -27.1482  -23.0200   21.8199 F   0  0  0  0  0  0
  -29.1745  -23.1290   22.5198 F   0  0  0  0  0  0
  -31.4915  -12.4320   19.1727 H   0  0  0  0  0  0
  -30.3695  -11.3444   19.9358 H   0  0  0  0  0  0
  -29.7599  -11.6015   17.5471 H   0  0  0  0  0  0
  -29.7207  -13.3228   17.6716 H   0  0  0  0  0  0
  -27.8333  -11.2742   18.8700 H   0  0  0  0  0  0
  -27.3912  -12.5642   17.7854 H   0  0  0  0  0  0
  -27.6499  -14.2254   19.5178 H   0  0  0  0  0  0
  -28.7013  -12.0390   21.3805 H   0  0  0  0  0  0
  -28.4690  -13.6987   21.8360 H   0  0  0  0  0  0
  -25.2736   -9.5650   22.4774 H   0  0  0  0  0  0
  -23.9975   -7.4599   22.7468 H   0  0  0  0  0  0
  -21.0836   -8.8759   19.8930 H   0  0  0  0  0  0
  -22.3697  -10.9658   19.6168 H   0  0  0  0  0  0
  -21.1993   -7.6131   23.9714 H   0  0  0  0  0  0
  -21.1503   -6.0519   25.9093 H   0  0  0  0  0  0
  -22.0587   -2.7589   23.2864 H   0  0  0  0  0  0
  -22.4081  -11.9877   22.4827 H   0  0  0  0  0  0
  -21.1092  -13.1247   22.2600 H   0  0  0  0  0  0
  -24.6704  -15.8415   20.5297 H   0  0  0  0  0  0
  -26.2879  -15.6246   20.0986 H   0  0  0  0  0  0
  -26.7120  -32.5525   23.1153 H   0  0  0  0  0  0
  -25.0086  -33.9778   25.0482 H   0  0  0  0  0  0
  -22.6981  -31.3001   21.4038 H   0  0  0  0  0  0
  -23.3759  -35.9628   23.3302 H   0  0  0  0  0  0
  -24.3595  -36.8925   22.2058 H   0  0  0  0  0  0
  -23.7244  -37.6497   23.6670 H   0  0  0  0  0  0
  -26.0487  -31.5888   20.5910 H   0  0  0  0  0  0
  -26.8251  -30.8840   21.9818 H   0  0  0  0  0  0
  -28.1136  -29.0863   21.1706 H   0  0  0  0  0  0
  -26.0711  -25.9398   19.0489 H   0  0  0  0  0  0
  -23.9861  -27.2718   19.0557 H   0  0  0  0  0  0
  -23.7193  -30.5819   19.4021 H   0  0  0  0  0  0
  -22.7472  -29.2221   19.8769 H   0  0  0  0  0  0
  -25.1288  -36.1956   25.0824 H   0  0  0  0  0  0
  -20.9943  -28.3200   24.1434 H   0  0  0  0  0  0
  -20.5662  -26.2248   23.3587 H   0  0  0  0  0  0
  -21.6619  -26.7418   22.1193 H   0  0  0  0  0  0
  -19.6891  -25.6288   21.1221 H   0  0  0  0  0  0
  -19.6674  -27.3195   20.6747 H   0  0  0  0  0  0
  -17.4181  -26.6677   21.4010 H   0  0  0  0  0  0
  -18.0303  -26.0036   22.8995 H   0  0  0  0  0  0
  -19.7927  -30.7257   24.2250 H   0  0  0  0  0  0
  -17.5006  -31.6260   24.5150 H   0  0  0  0  0  0
  -15.5343  -30.2962   23.7667 H   0  0  0  0  0  0
  -15.8663  -28.0806   22.7070 H   0  0  0  0  0  0
  -24.5912  -30.7031   25.7769 H   0  0  0  0  0  0
  -24.8919  -32.2809   26.4943 H   0  0  0  0  0  0
  -25.8074  -30.8803   27.0199 H   0  0  0  0  0  0
  -26.2902  -29.6785   24.1170 H   0  0  0  0  0  0
  -27.4188  -29.7318   25.4530 H   0  0  0  0  0  0
  -27.8692  -30.4423   23.9206 H   0  0  0  0  0  0
  -27.2672  -33.3650   26.2044 H   0  0  0  0  0  0
  -28.3852  -32.6878   25.0302 H   0  0  0  0  0  0
  -28.0719  -31.8477   26.5411 H   0  0  0  0  0  0
  -28.2569  -38.0120   24.7543 H   0  0  0  0  0  0
  -28.1101  -36.2646   24.6262 H   0  0  0  0  0  0
  -27.2294  -37.1408   25.8867 H   0  0  0  0  0  0
  -20.9315  -29.8771   21.6970 H   0  0  0  0  0  0
  -26.0180  -38.2853   24.1416 H   0  0  0  0  0  0
  -31.5781  -19.2519   23.0974 H   0  0  0  0  0  0
  -31.4004  -16.5747   22.6771 H   0  0  0  0  0  0
  -28.5430  -16.8099   18.7639 H   0  0  0  0  0  0
  -29.1626  -15.2510   18.3129 H   0  0  0  0  0  0
  -30.2465  -16.6154   18.3485 H   0  0  0  0  0  0
  -28.2681  -21.4382   18.8727 H   0  0  0  0  0  0
  -26.7837  -21.3914   19.8192 H   0  0  0  0  0  0
  -27.7465  -19.9382   19.6196 H   0  0  0  0  0  0
  -30.4898  -21.0713   19.9482 H   0  0  0  0  0  0
  -30.6954  -21.3950   21.6267 H   0  0  0  0  0  0
  -29.0268  -25.6904   21.8387 H   0  0  0  0  0  0
  -27.3499  -25.4362   21.5071 H   0  0  0  0  0  0
  -28.8159  -15.6913   20.8898 H   0  0  0  0  0  0
  1 25  1  0  0  0
  1 30  2  0  0  0
  1 78  1  0  0  0
  2  3  1  0  0  0
  2 25  1  0  0  0
  2 89  1  0  0  0
  2 90  1  0  0  0
  3  4  1  0  0  0
  3 91  1  0  0  0
  3 92  1  0  0  0
  4  5  1  0  0  0
  4 93  1  0  0  0
  4 94  1  0  0  0
  5  6  1  0  0  0
  5 26  1  0  0  0
  5 95  1  0  0  0
  6 25  1  0  0  0
  6 96  1  0  0  0
  6 97  1  0  0  0
  7  8  2  0  0  0
  7 26  1  0  0  0
  7 29  1  0  0  0
  8  9  1  0  0  0
  8 22  1  0  0  0
  9 10  1  0  0  0
  9 27  2  0  0  0
 10 11  2  0  0  0
 10 15  1  0  0  0
 11 12  1  0  0  0
 11 98  1  0  0  0
 12 13  2  0  0  0
 12 99  1  0  0  0
 13 14  1  0  0  0
 13 31  1  0  0  0
 14 15  2  0  0  0
 14100  1  0  0  0
 15101  1  0  0  0
 16 17  2  0  0  0
 16 21  1  0  0  0
 16 31  1  0  0  0
 17 18  1  0  0  0
 17102  1  0  0  0
 18 19  2  0  0  0
 18103  1  0  0  0
 19 20  1  0  0  0
 19 24  1  0  0  0
 20 21  2  0  0  0
 20104  1  0  0  0
 21 23  1  0  0  0
 22 28  1  0  0  0
 22 32  2  0  0  0
 26 27  1  0  0  0
 28105  1  0  0  0
 28106  1  0  0  0
 29107  1  0  0  0
 29108  1  0  0  0
 33 34  1  0  0  0
 33 66  1  0  0  0
 33 70  2  0  0  0
 34 36  1  0  0  0
 34 59  1  0  0  0
 34109  1  0  0  0
 35 44  2  0  0  0
 35 45  1  0  0  0
 35 68  1  0  0  0
 36 56  1  0  0  0
 36110  1  0  0  0
 37 39  1  0  0  0
 37 47  1  0  0  0
 37 66  1  0  0  0
 37111  1  0  0  0
 38 43  2  0  0  0
 38 46  1  0  0  0
 38 47  1  0  0  0
 39 64  1  0  0  0
 39 67  2  0  0  0
 40 52  1  0  0  0
 40 53  2  0  0  0
 40 58  1  0  0  0
 41112  1  0  0  0
 41113  1  0  0  0
 41114  1  0  0  0
 41 48  1  0  0  0
 42 43  1  0  0  0
 42 66  1  0  0  0
 42115  1  0  0  0
 42116  1  0  0  0
 43 44  1  0  0  0
 44117  1  0  0  0
 45 46  2  0  0  0
 45118  1  0  0  0
 46119  1  0  0  0
 47120  1  0  0  0
 47121  1  0  0  0
 48 56  1  0  0  0
 48 65  1  0  0  0
 48122  1  0  0  0
 49 50  1  0  0  0
 49 53  1  0  0  0
 49 64  1  0  0  0
 49123  1  0  0  0
 50 51  1  0  0  0
 50124  1  0  0  0
 50125  1  0  0  0
 51 52  1  0  0  0
 51126  1  0  0  0
 51127  1  0  0  0
 52128  1  0  0  0
 52129  1  0  0  0
 53 54  1  0  0  0
 54 55  2  0  0  0
 54130  1  0  0  0
 55 57  1  0  0  0
 55131  1  0  0  0
 56 69  2  0  0  0
 57 58  2  0  0  0
 57132  1  0  0  0
 58133  1  0  0  0
 59 60  1  0  0  0
 59 61  1  0  0  0
 59 62  1  0  0  0
 60134  1  0  0  0
 60135  1  0  0  0
 60136  1  0  0  0
 61137  1  0  0  0
 61138  1  0  0  0
 61139  1  0  0  0
 62140  1  0  0  0
 62141  1  0  0  0
 62142  1  0  0  0
 63 65  1  0  0  0
 63143  1  0  0  0
 63144  1  0  0  0
 63145  1  0  0  0
 64146  1  0  0  0
 65147  1  0  0  0
 68 77  1  0  0  0
 71 72  2  0  0  0
 71 73  1  0  0  0
 71148  1  0  0  0
 72 83  1  0  0  0
 72149  1  0  0  0
 73 76  1  0  0  0
 73 82  2  0  0  0
 74150  1  0  0  0
 74151  1  0  0  0
 74152  1  0  0  0
 74 78  1  0  0  0
 75153  1  0  0  0
 75154  1  0  0  0
 75155  1  0  0  0
 75 79  1  0  0  0
 76 79  1  0  0  0
 76156  1  0  0  0
 76157  1  0  0  0
 77 80  1  0  0  0
 77158  1  0  0  0
 77159  1  0  0  0
 78 83  1  0  0  0
 78160  1  0  0  0
 79 81  1  0  0  0
 79 84  1  0  0  0
 80 81  1  0  0  0
 80 85  1  0  0  0
 80 86  1  0  0  0
 81 87  1  0  0  0
 81 88  1  0  0  0
 82 83  1  0  0  0
M  ISO  4   1 100  68 101  77 101  78 100
M  END
> <chiral flag>
0

> <version>
0

> <s_m_source_file>
/data/baiqing/PycharmProjects/Reinvent-master-3.2/result/LINK_invent/BTK/process_docking_weight1_custom_sum_contain_oxygen_bond_distance_aromatic_linkinvent_7_9_3/rearranged_h_0069.sdf

> <i_m_source_file_index>
1

> <r_mmod_Potential_Energy-OPLS-2005>
123.695503234863

> <r_mmod_Stretch_Energy-OPLS-2005>
56.8966598510742

> <r_mmod_Bend_Energy-OPLS-2005>
119.655151367188

> <r_mmod_Torsional_Energy-OPLS-2005>
227.217910766602

> <r_mmod_Improper_Torsional_Energy-OPLS-2005>
9.92131233215332

> <r_mmod_Van_der_Waal_Energy-OPLS-2005>
130.464767456055

> <r_mmod_Electrostatic_Energy-OPLS-2005>
-261.132507324219

> <r_mmod_Solvation_Energy-OPLS-2005>
-192.20133972168

> <b_mmod_Minimization_Converged-OPLS-2005>
0

> <r_mmod_RMS_Derivative-OPLS-2005>
1.68417978286743

$$$$
1
                    3D
 Structure written by MMmdl.
183191  0  0  1  0            999 V2000
  -30.7528  -14.4547   20.4461 C   0  0  0  0  0  0
  -30.3988  -12.2601   19.4528 C   0  0  0  0  0  0
  -29.4949  -12.4548   18.2160 C   0  0  0  0  0  0
  -28.0124  -12.3385   18.6178 C   0  0  0  0  0  0
  -27.6469  -13.2190   19.8422 C   0  0  2  0  0  0
  -28.6887  -13.0885   20.9731 C   0  0  0  0  0  0
  -25.2534  -13.8187   20.5658 C   0  0  0  0  0  0
  -24.1811  -13.0445   20.9187 C   0  0  0  0  0  0
  -24.6387  -11.6920   20.8737 C   0  0  0  0  0  0
  -23.9063  -10.4298   21.0414 C   0  0  0  0  0  0
  -24.3616   -9.4208   21.9186 C   0  0  0  0  0  0
  -23.6286   -8.2243   22.0760 C   0  0  0  0  0  0
  -22.4269   -8.0278   21.3548 C   0  0  0  0  0  0
  -21.9912   -9.0252   20.4649 C   0  0  0  0  0  0
  -22.7241  -10.2130   20.3057 C   0  0  0  0  0  0
  -21.6853   -6.0727   22.5277 C   0  0  0  0  0  0
  -21.4015   -6.5638   23.8209 C   0  0  0  0  0  0
  -21.3660   -5.6793   24.9174 C   0  0  0  0  0  0
  -21.6042   -4.3055   24.7221 C   0  0  0  0  0  0
  -21.8818   -3.8140   23.4348 C   0  0  0  0  0  0
  -21.9193   -4.6954   22.3404 C   0  0  0  0  0  0
  -22.7838  -13.5234   21.1864 C   0  0  0  0  0  0
  -22.1667   -4.2139   21.0980 F   0  0  0  0  0  0
  -21.5627   -3.4544   25.7739 F   0  0  0  0  0  0
  -30.0287  -13.3066   20.4173 N   0  0  0  0  0  0
  -26.2952  -12.9384   20.3226 N   0  0  0  0  0  0
  -25.9307  -11.6540   20.5716 N   0  0  0  0  0  0
  -22.0490  -12.8205   22.0420 N   0  0  0  0  0  0
  -25.4248  -15.1907   20.4093 N   0  0  0  0  0  0
  -31.9650  -14.4280   20.2535 O   0  0  0  0  0  0
  -21.6635   -6.8870   21.4241 O   0  0  0  0  0  0
  -22.3518  -14.5543   20.6726 O   0  0  0  0  0  0
  -24.6171  -31.8715   23.2153 C   0  0  0  0  0  0
  -25.9068  -32.4838   23.8433 C   0  0  1  0  0  0
  -27.2119  -27.4329   20.0777 C   0  0  0  0  0  0
  -25.5928  -33.8639   24.2360 N   0  0  0  0  0  0
  -23.4001  -30.5042   21.5584 C   0  0  2  0  0  0
  -24.8353  -28.9823   20.1182 C   0  0  0  0  0  0
  -22.7410  -29.4701   22.5001 C   0  0  0  0  0  0
  -18.0278  -28.1372   22.8494 C   0  0  0  0  0  0
  -24.1492  -36.7328   23.2635 C   0  0  0  0  0  0
  -25.9335  -30.8411   21.3651 C   0  0  0  0  0  0
  -26.0052  -29.4796   20.7049 C   0  0  0  0  0  0
  -27.1974  -28.7164   20.6756 C   0  0  0  0  0  0
  -26.0049  -26.9573   19.5165 C   0  0  0  0  0  0
  -24.8294  -27.7170   19.5226 C   0  0  0  0  0  0
  -23.6035  -29.8518   20.1689 C   0  0  0  0  0  0
  -25.4109  -36.3120   24.0337 C   0  0  1  0  0  0
  -20.5871  -28.3666   23.1313 C   0  0  2  0  0  0
  -20.6771  -26.9403   22.5407 C   0  0  0  0  0  0
  -19.5745  -26.6382   21.5210 C   0  0  0  0  0  0
  -18.1926  -26.7921   22.1626 C   0  0  0  0  0  0
  -19.1525  -28.8834   23.2904 C   0  0  0  0  0  0
  -18.9450  -30.1440   23.8916 C   0  0  0  0  0  0
  -17.6451  -30.6578   24.0566 C   0  0  0  0  0  0
  -25.9034  -34.9484   23.5133 C   0  0  0  0  0  0
  -16.5343  -29.9080   23.6325 C   0  0  0  0  0  0
  -16.7267  -28.6497   23.0350 C   0  0  0  0  0  0
  -26.4486  -31.6602   25.0750 C   0  0  0  0  0  0
  -25.3750  -31.3693   26.1489 C   0  0  0  0  0  0
  -27.0312  -30.3049   24.6106 C   0  0  0  0  0  0
  -27.6067  -32.4310   25.7513 C   0  0  0  0  0  0
  -27.5583  -37.1822   24.8463 C   0  0  0  0  0  0
  -21.4140  -29.3055   22.3732 N   0  0  0  0  0  0
  -26.4300  -37.3800   23.9400 N   0  0  0  0  0  0
  -24.6697  -31.0844   22.1047 N   0  0  0  0  0  0
  -23.4189  -28.8224   23.3023 O   0  0  0  0  0  0
  -28.3931  -26.7035   20.0640 O   0  0  0  0  0  0
  -26.5581  -34.8925   22.4684 O   0  0  0  0  0  0
  -23.5362  -32.1465   23.7550 O   0  0  0  0  0  0
  -28.0645  -22.3146   18.3818 C   0  0  0  0  0  0
  -29.1642  -20.5283   18.7327 C   0  0  0  0  0  0
  -30.5102  -21.8710   15.8825 C   0  0  0  0  0  0
  -25.9644  -23.6519   17.9845 C   0  0  0  0  0  0
  -27.6275  -23.6185   16.2400 C   0  0  0  0  0  0
  -29.6259  -18.7189   17.1491 C   0  0  0  0  0  0
  -31.5510  -19.7944   18.5914 C   0  0  0  0  0  0
  -29.8709  -24.9029   20.1588 C   0  0  0  0  0  0
  -27.5304  -24.5677   20.8870 C   0  0  0  0  0  0
  -31.6965  -16.6691   18.7224 C   0  0  0  0  0  0
  -30.1091  -15.8637   20.5525 C   0  0  0  0  0  0
  -28.1486  -24.9607   18.3057 C   0  0  0  0  0  0
  -30.3817  -22.3492   17.3409 C   0  0  0  0  0  0
  -29.8787  -18.1981   19.6429 C   0  0  0  0  0  0
  -27.5065  -23.6197   17.7856 C   0  0  0  0  0  0
  -30.0736  -19.3060   18.5187 C   0  0  0  0  0  0
  -28.4126  -25.2729   19.8274 C   0  0  0  0  0  0
  -27.3254  -21.5600   19.2055 N   0  0  0  0  0  0
  -28.0172  -20.4056   19.4070 N   0  0  0  0  0  0
  -29.2785  -21.7516   18.1125 N   0  0  0  0  0  0
  -30.3518  -16.7883   19.3700 N   0  3  1  0  0  0
  -31.4504  -12.2932   19.1596 H   0  0  0  0  0  0
  -30.2442  -11.2727   19.8919 H   0  0  0  0  0  0
  -29.7338  -11.7089   17.4572 H   0  0  0  0  0  0
  -29.6809  -13.4267   17.7569 H   0  0  0  0  0  0
  -27.8214  -11.2901   18.8473 H   0  0  0  0  0  0
  -27.3698  -12.5844   17.7720 H   0  0  0  0  0  0
  -27.6632  -14.2489   19.4884 H   0  0  0  0  0  0
  -28.6416  -12.0951   21.4225 H   0  0  0  0  0  0
  -28.4755  -13.7909   21.7800 H   0  0  0  0  0  0
  -25.2765   -9.5671   22.4755 H   0  0  0  0  0  0
  -23.9991   -7.4633   22.7479 H   0  0  0  0  0  0
  -21.0849   -8.8764   19.8952 H   0  0  0  0  0  0
  -22.3703  -10.9663   19.6157 H   0  0  0  0  0  0
  -21.2017   -7.6150   23.9710 H   0  0  0  0  0  0
  -21.1490   -6.0528   25.9076 H   0  0  0  0  0  0
  -22.0601   -2.7601   23.2849 H   0  0  0  0  0  0
  -22.4114  -11.9853   22.4776 H   0  0  0  0  0  0
  -21.1116  -13.1220   22.2662 H   0  0  0  0  0  0
  -24.6577  -15.8443   20.5241 H   0  0  0  0  0  0
  -26.2742  -15.6345   20.0882 H   0  0  0  0  0  0
  -26.7142  -32.5547   23.1203 H   0  0  0  0  0  0
  -25.0115  -33.9807   25.0525 H   0  0  0  0  0  0
  -22.6894  -31.3229   21.4280 H   0  0  0  0  0  0
  -23.3745  -35.9670   23.3305 H   0  0  0  0  0  0
  -24.3586  -36.8931   22.2048 H   0  0  0  0  0  0
  -23.7252  -37.6539   23.6643 H   0  0  0  0  0  0
  -26.0458  -31.6128   20.6020 H   0  0  0  0  0  0
  -26.8221  -30.8876   21.9828 H   0  0  0  0  0  0
  -28.1034  -29.1035   21.1207 H   0  0  0  0  0  0
  -25.9221  -25.9878   19.0726 H   0  0  0  0  0  0
  -23.9272  -27.3180   19.0795 H   0  0  0  0  0  0
  -23.7179  -30.6324   19.4162 H   0  0  0  0  0  0
  -22.7243  -29.2802   19.8666 H   0  0  0  0  0  0
  -25.1282  -36.1996   25.0832 H   0  0  0  0  0  0
  -20.9965  -28.3225   24.1432 H   0  0  0  0  0  0
  -20.5683  -26.2271   23.3592 H   0  0  0  0  0  0
  -21.6641  -26.7454   22.1192 H   0  0  0  0  0  0
  -19.6904  -25.6296   21.1234 H   0  0  0  0  0  0
  -19.6677  -27.3198   20.6743 H   0  0  0  0  0  0
  -17.4194  -26.6673   21.4031 H   0  0  0  0  0  0
  -18.0324  -26.0057   22.9015 H   0  0  0  0  0  0
  -19.7922  -30.7249   24.2296 H   0  0  0  0  0  0
  -17.5005  -31.6260   24.5163 H   0  0  0  0  0  0
  -15.5344  -30.2986   23.7633 H   0  0  0  0  0  0
  -15.8668  -28.0816   22.7059 H   0  0  0  0  0  0
  -24.5934  -30.7030   25.7818 H   0  0  0  0  0  0
  -24.8931  -32.2843   26.4949 H   0  0  0  0  0  0
  -25.8106  -30.8856   27.0240 H   0  0  0  0  0  0
  -26.2852  -29.6816   24.1162 H   0  0  0  0  0  0
  -27.4091  -29.7277   25.4555 H   0  0  0  0  0  0
  -27.8685  -30.4372   23.9247 H   0  0  0  0  0  0
  -27.2696  -33.3596   26.2126 H   0  0  0  0  0  0
  -28.3865  -32.6882   25.0334 H   0  0  0  0  0  0
  -28.0749  -31.8409   26.5400 H   0  0  0  0  0  0
  -28.2603  -38.0119   24.7508 H   0  0  0  0  0  0
  -28.1077  -36.2649   24.6294 H   0  0  0  0  0  0
  -27.2297  -37.1472   25.8866 H   0  0  0  0  0  0
  -20.9281  -29.8815   21.6999 H   0  0  0  0  0  0
  -26.0192  -38.2879   24.1398 H   0  0  0  0  0  0
  -31.0410  -22.6155   15.2886 H   0  0  0  0  0  0
  -29.5415  -21.7102   15.4113 H   0  0  0  0  0  0
  -31.0803  -20.9498   15.7920 H   0  0  0  0  0  0
  -25.4944  -22.7733   17.5397 H   0  0  0  0  0  0
  -25.5036  -24.5164   17.5073 H   0  0  0  0  0  0
  -25.6699  -23.6575   19.0312 H   0  0  0  0  0  0
  -27.2537  -22.6898   15.8070 H   0  0  0  0  0  0
  -28.6427  -23.7672   15.8854 H   0  0  0  0  0  0
  -27.0554  -24.4333   15.7952 H   0  0  0  0  0  0
  -29.5891  -19.4733   16.3698 H   0  0  0  0  0  0
  -28.6070  -18.3360   17.2186 H   0  0  0  0  0  0
  -30.2373  -17.9140   16.7547 H   0  0  0  0  0  0
  -31.9234  -20.1529   17.6365 H   0  0  0  0  0  0
  -32.2799  -19.0718   18.9354 H   0  0  0  0  0  0
  -31.6490  -20.5930   19.3277 H   0  0  0  0  0  0
  -30.0505  -23.8347   20.0383 H   0  0  0  0  0  0
  -30.1205  -25.1589   21.1894 H   0  0  0  0  0  0
  -30.5795  -25.4319   19.5204 H   0  0  0  0  0  0
  -27.6998  -23.4939   20.9058 H   0  0  0  0  0  0
  -26.4623  -24.7235   20.7692 H   0  0  0  0  0  0
  -27.7789  -24.9289   21.8851 H   0  0  0  0  0  0
  -31.8263  -15.6951   18.2528 H   0  0  0  0  0  0
  -32.5035  -16.8279   19.4387 H   0  0  0  0  0  0
  -31.8680  -17.3276   17.8802 H   0  0  0  0  0  0
  -29.0374  -15.7854   20.7266 H   0  0  0  0  0  0
  -30.5259  -16.3239   21.4482 H   0  0  0  0  0  0
  -27.5918  -25.7746   17.8491 H   0  0  0  0  0  0
  -29.1021  -25.0991   17.8026 H   0  0  0  0  0  0
  -30.2552  -23.4237   17.3337 H   0  0  0  0  0  0
  -31.3210  -22.2474   17.8774 H   0  0  0  0  0  0
  -28.8158  -18.0753   19.8508 H   0  0  0  0  0  0
  -30.3170  -18.5560   20.5758 H   0  0  0  0  0  0
  -29.7284  -16.4481   18.6533 H   0  0  0  0  0  0
  1 25  1  0  0  0
  1 30  2  0  0  0
  1 81  1  0  0  0
  2  3  1  0  0  0
  2 25  1  0  0  0
  2 92  1  0  0  0
  2 93  1  0  0  0
  3  4  1  0  0  0
  3 94  1  0  0  0
  3 95  1  0  0  0
  4  5  1  0  0  0
  4 96  1  0  0  0
  4 97  1  0  0  0
  5  6  1  0  0  0
  5 26  1  0  0  0
  5 98  1  0  0  0
  6 25  1  0  0  0
  6 99  1  0  0  0
  6100  1  0  0  0
  7  8  2  0  0  0
  7 26  1  0  0  0
  7 29  1  0  0  0
  8  9  1  0  0  0
  8 22  1  0  0  0
  9 10  1  0  0  0
  9 27  2  0  0  0
 10 11  2  0  0  0
 10 15  1  0  0  0
 11 12  1  0  0  0
 11101  1  0  0  0
 12 13  2  0  0  0
 12102  1  0  0  0
 13 14  1  0  0  0
 13 31  1  0  0  0
 14 15  2  0  0  0
 14103  1  0  0  0
 15104  1  0  0  0
 16 17  2  0  0  0
 16 21  1  0  0  0
 16 31  1  0  0  0
 17 18  1  0  0  0
 17105  1  0  0  0
 18 19  2  0  0  0
 18106  1  0  0  0
 19 20  1  0  0  0
 19 24  1  0  0  0
 20 21  2  0  0  0
 20107  1  0  0  0
 21 23  1  0  0  0
 22 28  1  0  0  0
 22 32  2  0  0  0
 26 27  1  0  0  0
 28108  1  0  0  0
 28109  1  0  0  0
 29110  1  0  0  0
 29111  1  0  0  0
 33 34  1  0  0  0
 33 66  1  0  0  0
 33 70  2  0  0  0
 34 36  1  0  0  0
 34 59  1  0  0  0
 34112  1  0  0  0
 35 44  2  0  0  0
 35 45  1  0  0  0
 35 68  1  0  0  0
 36 56  1  0  0  0
 36113  1  0  0  0
 37 39  1  0  0  0
 37 47  1  0  0  0
 37 66  1  0  0  0
 37114  1  0  0  0
 38 43  2  0  0  0
 38 46  1  0  0  0
 38 47  1  0  0  0
 39 64  1  0  0  0
 39 67  2  0  0  0
 40 52  1  0  0  0
 40 53  2  0  0  0
 40 58  1  0  0  0
 41115  1  0  0  0
 41116  1  0  0  0
 41117  1  0  0  0
 41 48  1  0  0  0
 42 43  1  0  0  0
 42 66  1  0  0  0
 42118  1  0  0  0
 42119  1  0  0  0
 43 44  1  0  0  0
 44120  1  0  0  0
 45 46  2  0  0  0
 45121  1  0  0  0
 46122  1  0  0  0
 47123  1  0  0  0
 47124  1  0  0  0
 48 56  1  0  0  0
 48 65  1  0  0  0
 48125  1  0  0  0
 49 50  1  0  0  0
 49 53  1  0  0  0
 49 64  1  0  0  0
 49126  1  0  0  0
 50 51  1  0  0  0
 50127  1  0  0  0
 50128  1  0  0  0
 51 52  1  0  0  0
 51129  1  0  0  0
 51130  1  0  0  0
 52131  1  0  0  0
 52132  1  0  0  0
 53 54  1  0  0  0
 54 55  2  0  0  0
 54133  1  0  0  0
 55 57  1  0  0  0
 55134  1  0  0  0
 56 69  2  0  0  0
 57 58  2  0  0  0
 57135  1  0  0  0
 58136  1  0  0  0
 59 60  1  0  0  0
 59 61  1  0  0  0
 59 62  1  0  0  0
 60137  1  0  0  0
 60138  1  0  0  0
 60139  1  0  0  0
 61140  1  0  0  0
 61141  1  0  0  0
 61142  1  0  0  0
 62143  1  0  0  0
 62144  1  0  0  0
 62145  1  0  0  0
 63 65  1  0  0  0
 63146  1  0  0  0
 63147  1  0  0  0
 63148  1  0  0  0
 64149  1  0  0  0
 65150  1  0  0  0
 68 87  1  0  0  0
 71 85  1  0  0  0
 71 88  2  0  0  0
 71 90  1  0  0  0
 72 86  1  0  0  0
 72 89  2  0  0  0
 72 90  1  0  0  0
 73 83  1  0  0  0
 73151  1  0  0  0
 73152  1  0  0  0
 73153  1  0  0  0
 74154  1  0  0  0
 74155  1  0  0  0
 74156  1  0  0  0
 74 85  1  0  0  0
 75 85  1  0  0  0
 75157  1  0  0  0
 75158  1  0  0  0
 75159  1  0  0  0
 76160  1  0  0  0
 76161  1  0  0  0
 76162  1  0  0  0
 76 86  1  0  0  0
 77 86  1  0  0  0
 77163  1  0  0  0
 77164  1  0  0  0
 77165  1  0  0  0
 78166  1  0  0  0
 78167  1  0  0  0
 78168  1  0  0  0
 78 87  1  0  0  0
 79 87  1  0  0  0
 79169  1  0  0  0
 79170  1  0  0  0
 79171  1  0  0  0
 80172  1  0  0  0
 80173  1  0  0  0
 80174  1  0  0  0
 80 91  1  0  0  0
 81 91  1  0  0  0
 81175  1  0  0  0
 81176  1  0  0  0
 82 85  1  0  0  0
 82 87  1  0  0  0
 82177  1  0  0  0
 82178  1  0  0  0
 83 90  1  0  0  0
 83179  1  0  0  0
 83180  1  0  0  0
 84 86  1  0  0  0
 84 91  1  0  0  0
 84181  1  0  0  0
 84182  1  0  0  0
 88 89  1  0  0  0
 91183  1  0  0  0
M  CHG  1  91   1
M  ISO  4   1 100  68 101  81 100  87 101
M  END
> <chiral flag>
0

> <version>
0

> <s_m_source_file>
/data/baiqing/PycharmProjects/Reinvent-master-3.2/result/LINK_invent/BTK/process_docking_weight1_custom_sum_contain_oxygen_bond_distance_aromatic_linkinvent_7_9_3/rearranged_h_0069.sdf

> <i_m_source_file_index>
2

> <r_mmod_Potential_Energy-OPLS-2005>
-17.2016658782959

> <r_mmod_Stretch_Energy-OPLS-2005>
64.7543640136719

> <r_mmod_Bend_Energy-OPLS-2005>
198.928283691406

> <r_mmod_Torsional_Energy-OPLS-2005>
279.723236083984

> <r_mmod_Improper_Torsional_Energy-OPLS-2005>
4.57827138900757

> <r_mmod_Van_der_Waal_Energy-OPLS-2005>
193.001663208008

> <r_mmod_Electrostatic_Energy-OPLS-2005>
-355.102508544922

> <r_mmod_Solvation_Energy-OPLS-2005>
-435.655578613281

> <b_mmod_Minimization_Converged-OPLS-2005>
0

> <r_mmod_RMS_Derivative-OPLS-2005>
1.15563344955444

$$$$
2
                    3D
 Structure written by MMmdl.
168176  0  0  1  0            999 V2000
  -30.6430  -14.5373   20.5628 C   0  0  0  0  0  0
  -30.4340  -12.3468   19.4215 C   0  0  0  0  0  0
  -29.5033  -12.5106   18.2024 C   0  0  0  0  0  0
  -28.0202  -12.3659   18.6058 C   0  0  0  0  0  0
  -27.6579  -13.1965   19.8645 C   0  0  2  0  0  0
  -28.6983  -12.9877   20.9831 C   0  0  0  0  0  0
  -25.2633  -13.8145   20.5628 C   0  0  0  0  0  0
  -24.1854  -13.0456   20.9123 C   0  0  0  0  0  0
  -24.6348  -11.6912   20.8656 C   0  0  0  0  0  0
  -23.8982  -10.4324   21.0348 C   0  0  0  0  0  0
  -24.3585   -9.4265   21.9150 C   0  0  0  0  0  0
  -23.6307   -8.2259   22.0719 C   0  0  0  0  0  0
  -22.4303   -8.0264   21.3511 C   0  0  0  0  0  0
  -21.9899   -9.0209   20.4613 C   0  0  0  0  0  0
  -22.7161  -10.2124   20.3015 C   0  0  0  0  0  0
  -21.6882   -6.0719   22.5255 C   0  0  0  0  0  0
  -21.4009   -6.5624   23.8186 C   0  0  0  0  0  0
  -21.3674   -5.6793   24.9150 C   0  0  0  0  0  0
  -21.6044   -4.3035   24.7226 C   0  0  0  0  0  0
  -21.8835   -3.8129   23.4333 C   0  0  0  0  0  0
  -21.9204   -4.6936   22.3402 C   0  0  0  0  0  0
  -22.7891  -13.5256   21.1795 C   0  0  0  0  0  0
  -22.1673   -4.2120   21.0977 F   0  0  0  0  0  0
  -21.5644   -3.4510   25.7732 F   0  0  0  0  0  0
  -30.0174  -13.3358   20.4265 N   0  0  0  0  0  0
  -26.2988  -12.9254   20.3254 N   0  0  0  0  0  0
  -25.9277  -11.6427   20.5692 N   0  0  0  0  0  0
  -22.0527  -12.8250   22.0351 N   0  0  0  0  0  0
  -25.4462  -15.1862   20.4070 N   0  0  0  0  0  0
  -31.8116  -14.7176   20.2183 O   0  0  0  0  0  0
  -21.6679   -6.8843   21.4212 O   0  0  0  0  0  0
  -22.3599  -14.5568   20.6630 O   0  0  0  0  0  0
  -24.6176  -31.8639   23.2034 C   0  0  0  0  0  0
  -25.9051  -32.4808   23.8364 C   0  0  1  0  0  0
  -27.2542  -27.3865   20.1119 C   0  0  0  0  0  0
  -25.5894  -33.8606   24.2294 N   0  0  0  0  0  0
  -23.4101  -30.4802   21.5474 C   0  0  2  0  0  0
  -24.8611  -28.9379   20.1095 C   0  0  0  0  0  0
  -22.7441  -29.4613   22.5021 C   0  0  0  0  0  0
  -18.0266  -28.1370   22.8525 C   0  0  0  0  0  0
  -24.1472  -36.7303   23.2660 C   0  0  0  0  0  0
  -25.9417  -30.8109   21.3626 C   0  0  0  0  0  0
  -26.0167  -29.4387   20.7160 C   0  0  0  0  0  0
  -27.2075  -28.6703   20.7158 C   0  0  0  0  0  0
  -26.0757  -26.9072   19.4939 C   0  0  0  0  0  0
  -24.8899  -27.6755   19.4906 C   0  0  0  0  0  0
  -23.6162  -29.8028   20.1653 C   0  0  0  0  0  0
  -25.4091  -36.3116   24.0354 C   0  0  1  0  0  0
  -20.5863  -28.3640   23.1354 C   0  0  2  0  0  0
  -20.6754  -26.9376   22.5439 C   0  0  0  0  0  0
  -19.5718  -26.6374   21.5253 C   0  0  0  0  0  0
  -18.1900  -26.7924   22.1659 C   0  0  0  0  0  0
  -19.1521  -28.8823   23.2935 C   0  0  0  0  0  0
  -18.9438  -30.1447   23.8920 C   0  0  0  0  0  0
  -17.6440  -30.6587   24.0551 C   0  0  0  0  0  0
  -25.9038  -34.9477   23.5136 C   0  0  0  0  0  0
  -16.5336  -29.9081   23.6332 C   0  0  0  0  0  0
  -16.7258  -28.6494   23.0372 C   0  0  0  0  0  0
  -26.4445  -31.6618   25.0721 C   0  0  0  0  0  0
  -25.3684  -31.3735   26.1453 C   0  0  0  0  0  0
  -27.0269  -30.3061   24.6112 C   0  0  0  0  0  0
  -27.6039  -32.4324   25.7453 C   0  0  0  0  0  0
  -27.5578  -37.1794   24.8468 C   0  0  0  0  0  0
  -21.4163  -29.2996   22.3756 N   0  0  0  0  0  0
  -26.4289  -37.3790   23.9431 N   0  0  0  0  0  0
  -24.6755  -31.0684   22.0958 N   0  0  0  0  0  0
  -23.4211  -28.8194   23.3084 O   0  0  0  0  0  0
  -28.4362  -26.6546   20.1961 O   0  0  0  0  0  0
  -26.5616  -34.8948   22.4708 O   0  0  0  0  0  0
  -23.5359  -32.1411   23.7399 O   0  0  0  0  0  0
  -29.9956  -20.4485   19.5176 C   0  0  0  0  0  0
  -29.8521  -21.3597   21.4660 C   0  0  0  0  0  0
  -30.1428  -19.4484   20.4638 C   0  0  0  0  0  0
  -32.4873  -22.5683   19.4031 C   0  0  0  0  0  0
  -32.1305  -17.9892   20.2576 C   0  0  0  0  0  0
  -30.1310  -17.5813   18.7932 C   0  0  0  0  0  0
  -29.5188  -22.9136   18.0262 C   0  0  0  0  0  0
  -31.3466  -23.5787   19.6551 C   0  0  0  0  0  0
  -28.8927  -24.0976   20.1849 C   0  0  0  0  0  0
  -30.0309  -16.9784   21.2913 C   0  0  0  0  0  0
  -28.7017  -25.4634   19.4139 C   0  0  0  0  0  0
  -30.5848  -17.9919   20.2127 C   0  0  0  0  0  0
  -29.8821  -23.0447   19.5281 C   0  0  1  0  0  0
  -30.0569  -20.0577   21.7208 N   0  0  0  0  0  0
  -29.8367  -21.6872   20.1602 N   0  0  0  0  0  0
  -29.8217  -15.5426   20.9436 N   0  0  0  0  0  0
  -31.4736  -12.4806   19.1235 H   0  0  0  0  0  0
  -30.3528  -11.3360   19.8253 H   0  0  0  0  0  0
  -29.7571  -11.7798   17.4325 H   0  0  0  0  0  0
  -29.6590  -13.4920   17.7480 H   0  0  0  0  0  0
  -27.8181  -11.3099   18.7921 H   0  0  0  0  0  0
  -27.3767  -12.6490   17.7719 H   0  0  0  0  0  0
  -27.6936  -14.2405   19.5667 H   0  0  0  0  0  0
  -28.6974  -11.9460   21.3026 H   0  0  0  0  0  0
  -28.4437  -13.5627   21.8746 H   0  0  0  0  0  0
  -25.2713   -9.5789   22.4722 H   0  0  0  0  0  0
  -24.0032   -7.4679   22.7464 H   0  0  0  0  0  0
  -21.0808   -8.8663   19.8983 H   0  0  0  0  0  0
  -22.3518  -10.9640   19.6139 H   0  0  0  0  0  0
  -21.1975   -7.6142   23.9646 H   0  0  0  0  0  0
  -21.1498   -6.0533   25.9039 H   0  0  0  0  0  0
  -22.0608   -2.7600   23.2848 H   0  0  0  0  0  0
  -22.4145  -11.9965   22.4839 H   0  0  0  0  0  0
  -21.1126  -13.1244   22.2469 H   0  0  0  0  0  0
  -24.6883  -15.8525   20.5082 H   0  0  0  0  0  0
  -26.2982  -15.6097   20.0584 H   0  0  0  0  0  0
  -26.7125  -32.5479   23.1135 H   0  0  0  0  0  0
  -24.9991  -33.9744   25.0403 H   0  0  0  0  0  0
  -22.7003  -31.2990   21.4077 H   0  0  0  0  0  0
  -23.3766  -35.9610   23.3303 H   0  0  0  0  0  0
  -24.3576  -36.8915   22.2076 H   0  0  0  0  0  0
  -23.7173  -37.6498   23.6643 H   0  0  0  0  0  0
  -26.0592  -31.5661   20.5855 H   0  0  0  0  0  0
  -26.8313  -30.8696   21.9783 H   0  0  0  0  0  0
  -28.0957  -29.0566   21.1958 H   0  0  0  0  0  0
  -26.0374  -25.9344   19.0289 H   0  0  0  0  0  0
  -24.0041  -27.2775   19.0157 H   0  0  0  0  0  0
  -23.7072  -30.5752   19.4008 H   0  0  0  0  0  0
  -22.7420  -29.2120   19.8820 H   0  0  0  0  0  0
  -25.1252  -36.2004   25.0853 H   0  0  0  0  0  0
  -20.9965  -28.3188   24.1476 H   0  0  0  0  0  0
  -20.5714  -26.2218   23.3613 H   0  0  0  0  0  0
  -21.6605  -26.7436   22.1179 H   0  0  0  0  0  0
  -19.6869  -25.6302   21.1243 H   0  0  0  0  0  0
  -19.6674  -27.3221   20.6814 H   0  0  0  0  0  0
  -17.4176  -26.6715   21.4051 H   0  0  0  0  0  0
  -18.0285  -26.0059   22.9047 H   0  0  0  0  0  0
  -19.7906  -30.7271   24.2306 H   0  0  0  0  0  0
  -17.4974  -31.6281   24.5132 H   0  0  0  0  0  0
  -15.5325  -30.2979   23.7642 H   0  0  0  0  0  0
  -15.8662  -28.0818   22.7076 H   0  0  0  0  0  0
  -24.5846  -30.7110   25.7762 H   0  0  0  0  0  0
  -24.8884  -32.2889   26.4921 H   0  0  0  0  0  0
  -25.8004  -30.8870   27.0205 H   0  0  0  0  0  0
  -26.2819  -29.6850   24.1130 H   0  0  0  0  0  0
  -27.4008  -29.7271   25.4567 H   0  0  0  0  0  0
  -27.8661  -30.4402   23.9285 H   0  0  0  0  0  0
  -27.2709  -33.3634   26.2047 H   0  0  0  0  0  0
  -28.3820  -32.6869   25.0246 H   0  0  0  0  0  0
  -28.0740  -31.8436   26.5337 H   0  0  0  0  0  0
  -28.2592  -38.0094   24.7539 H   0  0  0  0  0  0
  -28.1069  -36.2631   24.6246 H   0  0  0  0  0  0
  -27.2312  -37.1393   25.8876 H   0  0  0  0  0  0
  -20.9351  -29.8691   21.6938 H   0  0  0  0  0  0
  -26.0195  -38.2884   24.1427 H   0  0  0  0  0  0
  -30.0979  -20.3691   18.4470 H   0  0  0  0  0  0
  -29.7942  -22.1015   22.2521 H   0  0  0  0  0  0
  -33.4574  -23.0577   19.5096 H   0  0  0  0  0  0
  -32.4427  -22.1290   18.4045 H   0  0  0  0  0  0
  -32.4789  -21.7537   20.1307 H   0  0  0  0  0  0
  -32.5405  -18.7909   19.6403 H   0  0  0  0  0  0
  -32.5676  -17.0618   19.8930 H   0  0  0  0  0  0
  -32.5014  -18.1495   21.2697 H   0  0  0  0  0  0
  -30.6143  -18.1895   18.0272 H   0  0  0  0  0  0
  -29.0522  -17.6898   18.6740 H   0  0  0  0  0  0
  -30.3984  -16.5541   18.5571 H   0  0  0  0  0  0
  -29.5753  -23.8642   17.4995 H   0  0  0  0  0  0
  -28.5061  -22.5254   17.8987 H   0  0  0  0  0  0
  -30.1956  -22.2566   17.4821 H   0  0  0  0  0  0
  -31.4900  -24.4384   18.9979 H   0  0  0  0  0  0
  -31.4967  -23.9584   20.6658 H   0  0  0  0  0  0
  -27.9100  -23.6399   20.3178 H   0  0  0  0  0  0
  -29.2430  -24.3264   21.1909 H   0  0  0  0  0  0
  -29.0391  -17.3190   21.5939 H   0  0  0  0  0  0
  -30.6219  -17.0390   22.2061 H   0  0  0  0  0  0
  -28.0156  -25.3304   18.5781 H   0  0  0  0  0  0
  -29.6555  -25.7049   18.9491 H   0  0  0  0  0  0
  -28.8714  -15.2324   21.0803 H   0  0  0  0  0  0
  1 25  1  0  0  0
  1 30  2  0  0  0
  1 86  1  0  0  0
  2  3  1  0  0  0
  2 25  1  0  0  0
  2 87  1  0  0  0
  2 88  1  0  0  0
  3  4  1  0  0  0
  3 89  1  0  0  0
  3 90  1  0  0  0
  4  5  1  0  0  0
  4 91  1  0  0  0
  4 92  1  0  0  0
  5  6  1  0  0  0
  5 26  1  0  0  0
  5 93  1  0  0  0
  6 25  1  0  0  0
  6 94  1  0  0  0
  6 95  1  0  0  0
  7  8  2  0  0  0
  7 26  1  0  0  0
  7 29  1  0  0  0
  8  9  1  0  0  0
  8 22  1  0  0  0
  9 10  1  0  0  0
  9 27  2  0  0  0
 10 11  2  0  0  0
 10 15  1  0  0  0
 11 12  1  0  0  0
 11 96  1  0  0  0
 12 13  2  0  0  0
 12 97  1  0  0  0
 13 14  1  0  0  0
 13 31  1  0  0  0
 14 15  2  0  0  0
 14 98  1  0  0  0
 15 99  1  0  0  0
 16 17  2  0  0  0
 16 21  1  0  0  0
 16 31  1  0  0  0
 17 18  1  0  0  0
 17100  1  0  0  0
 18 19  2  0  0  0
 18101  1  0  0  0
 19 20  1  0  0  0
 19 24  1  0  0  0
 20 21  2  0  0  0
 20102  1  0  0  0
 21 23  1  0  0  0
 22 28  1  0  0  0
 22 32  2  0  0  0
 26 27  1  0  0  0
 28103  1  0  0  0
 28104  1  0  0  0
 29105  1  0  0  0
 29106  1  0  0  0
 33 34  1  0  0  0
 33 66  1  0  0  0
 33 70  2  0  0  0
 34 36  1  0  0  0
 34 59  1  0  0  0
 34107  1  0  0  0
 35 44  2  0  0  0
 35 45  1  0  0  0
 35 68  1  0  0  0
 36 56  1  0  0  0
 36108  1  0  0  0
 37 39  1  0  0  0
 37 47  1  0  0  0
 37 66  1  0  0  0
 37109  1  0  0  0
 38 43  2  0  0  0
 38 46  1  0  0  0
 38 47  1  0  0  0
 39 64  1  0  0  0
 39 67  2  0  0  0
 40 52  1  0  0  0
 40 53  2  0  0  0
 40 58  1  0  0  0
 41110  1  0  0  0
 41111  1  0  0  0
 41112  1  0  0  0
 41 48  1  0  0  0
 42 43  1  0  0  0
 42 66  1  0  0  0
 42113  1  0  0  0
 42114  1  0  0  0
 43 44  1  0  0  0
 44115  1  0  0  0
 45 46  2  0  0  0
 45116  1  0  0  0
 46117  1  0  0  0
 47118  1  0  0  0
 47119  1  0  0  0
 48 56  1  0  0  0
 48 65  1  0  0  0
 48120  1  0  0  0
 49 50  1  0  0  0
 49 53  1  0  0  0
 49 64  1  0  0  0
 49121  1  0  0  0
 50 51  1  0  0  0
 50122  1  0  0  0
 50123  1  0  0  0
 51 52  1  0  0  0
 51124  1  0  0  0
 51125  1  0  0  0
 52126  1  0  0  0
 52127  1  0  0  0
 53 54  1  0  0  0
 54 55  2  0  0  0
 54128  1  0  0  0
 55 57  1  0  0  0
 55129  1  0  0  0
 56 69  2  0  0  0
 57 58  2  0  0  0
 57130  1  0  0  0
 58131  1  0  0  0
 59 60  1  0  0  0
 59 61  1  0  0  0
 59 62  1  0  0  0
 60132  1  0  0  0
 60133  1  0  0  0
 60134  1  0  0  0
 61135  1  0  0  0
 61136  1  0  0  0
 61137  1  0  0  0
 62138  1  0  0  0
 62139  1  0  0  0
 62140  1  0  0  0
 63 65  1  0  0  0
 63141  1  0  0  0
 63142  1  0  0  0
 63143  1  0  0  0
 64144  1  0  0  0
 65145  1  0  0  0
 68 81  1  0  0  0
 71 73  2  0  0  0
 71 85  1  0  0  0
 71146  1  0  0  0
 72 84  2  0  0  0
 72 85  1  0  0  0
 72147  1  0  0  0
 73 82  1  0  0  0
 73 84  1  0  0  0
 74 78  1  0  0  0
 74148  1  0  0  0
 74149  1  0  0  0
 74150  1  0  0  0
 75151  1  0  0  0
 75152  1  0  0  0
 75153  1  0  0  0
 75 82  1  0  0  0
 76 82  1  0  0  0
 76154  1  0  0  0
 76155  1  0  0  0
 76156  1  0  0  0
 77157  1  0  0  0
 77158  1  0  0  0
 77159  1  0  0  0
 77 83  1  0  0  0
 78 83  1  0  0  0
 78160  1  0  0  0
 78161  1  0  0  0
 79 81  1  0  0  0
 79 83  1  0  0  0
 79162  1  0  0  0
 79163  1  0  0  0
 80 82  1  0  0  0
 80 86  1  0  0  0
 80164  1  0  0  0
 80165  1  0  0  0
 81166  1  0  0  0
 81167  1  0  0  0
 83 85  1  0  0  0
 86168  1  0  0  0
M  ISO  4   1 100  68 101  81 101  86 100
M  END
> <chiral flag>
0

> <version>
0

> <s_m_source_file>
/data/baiqing/PycharmProjects/Reinvent-master-3.2/result/LINK_invent/BTK/process_docking_weight1_custom_sum_contain_oxygen_bond_distance_aromatic_linkinvent_7_9_3/rearranged_h_0069.sdf

> <i_m_source_file_index>
3

> <r_mmod_Potential_Energy-OPLS-2005>
-9.78341388702393

> <r_mmod_Stretch_Energy-OPLS-2005>
58.9063720703125

> <r_mmod_Bend_Energy-OPLS-2005>
160.399749755859

> <r_mmod_Torsional_Energy-OPLS-2005>
258.255065917969

> <r_mmod_Improper_Torsional_Energy-OPLS-2005>
6.51617288589478

> <r_mmod_Van_der_Waal_Energy-OPLS-2005>
135.510620117188

> <r_mmod_Electrostatic_Energy-OPLS-2005>
-446.068664550781

> <r_mmod_Solvation_Energy-OPLS-2005>
-209.276885986328

> <b_mmod_Minimization_Converged-OPLS-2005>
0

> <r_mmod_RMS_Derivative-OPLS-2005>
4.91868019104004

$$$$
3
                    3D
 Structure written by MMmdl.
172180  0  0  1  0            999 V2000
  -30.6518  -14.6554   20.5149 C   0  0  0  0  0  0
  -30.4154  -12.4035   19.4825 C   0  0  0  0  0  0
  -29.4975  -12.5296   18.2416 C   0  0  0  0  0  0
  -28.0256  -12.3562   18.6400 C   0  0  0  0  0  0
  -27.6547  -13.2123   19.8785 C   0  0  2  0  0  0
  -28.7016  -13.0775   21.0185 C   0  0  0  0  0  0
  -25.2502  -13.8085   20.5571 C   0  0  0  0  0  0
  -24.1686  -13.0371   20.9126 C   0  0  0  0  0  0
  -24.6214  -11.6880   20.8726 C   0  0  0  0  0  0
  -23.8805  -10.4245   21.0403 C   0  0  0  0  0  0
  -24.3401   -9.4234   21.9212 C   0  0  0  0  0  0
  -23.6227   -8.2167   22.0704 C   0  0  0  0  0  0
  -22.4198   -8.0215   21.3585 C   0  0  0  0  0  0
  -21.9533   -9.0209   20.4892 C   0  0  0  0  0  0
  -22.6982  -10.2068   20.3069 C   0  0  0  0  0  0
  -21.6870   -6.0452   22.5275 C   0  0  0  0  0  0
  -21.3975   -6.5435   23.8195 C   0  0  0  0  0  0
  -21.3641   -5.6696   24.9214 C   0  0  0  0  0  0
  -21.6075   -4.2953   24.7431 C   0  0  0  0  0  0
  -21.8738   -3.7860   23.4616 C   0  0  0  0  0  0
  -21.9135   -4.6551   22.3575 C   0  0  0  0  0  0
  -22.7752  -13.5437   21.1669 C   0  0  0  0  0  0
  -22.1557   -4.1664   21.1193 F   0  0  0  0  0  0
  -21.5830   -3.4602   25.8060 F   0  0  0  0  0  0
  -30.0217  -13.4255   20.4772 N   0  0  0  0  0  0
  -26.2953  -12.9238   20.3360 N   0  0  0  0  0  0
  -25.9188  -11.6426   20.5818 N   0  0  0  0  0  0
  -21.9808  -12.8076   21.9538 N   0  0  0  0  0  0
  -25.4199  -15.1648   20.3918 N   0  0  0  0  0  0
  -31.7607  -14.7802   19.9890 O   0  0  0  0  0  0
  -21.6792   -6.8574   21.4210 O   0  0  0  0  0  0
  -22.3764  -14.5939   20.6936 O   0  0  0  0  0  0
  -24.6282  -31.8579   23.2057 C   0  0  0  0  0  0
  -25.9069  -32.4796   23.8364 C   0  0  1  0  0  0
  -27.2285  -27.2732   20.1049 C   0  0  0  0  0  0
  -25.5882  -33.8596   24.2337 N   0  0  0  0  0  0
  -23.4194  -30.4824   21.5476 C   0  0  2  0  0  0
  -24.8722  -28.9313   20.1128 C   0  0  0  0  0  0
  -22.7481  -29.4620   22.4971 C   0  0  0  0  0  0
  -18.0218  -28.1362   22.8432 C   0  0  0  0  0  0
  -24.1473  -36.7260   23.2654 C   0  0  0  0  0  0
  -25.9765  -30.7536   21.3979 C   0  0  0  0  0  0
  -26.0446  -29.3832   20.7346 C   0  0  0  0  0  0
  -27.2157  -28.5651   20.7294 C   0  0  0  0  0  0
  -26.0292  -26.8957   19.4523 C   0  0  0  0  0  0
  -24.8697  -27.6980   19.4614 C   0  0  0  0  0  0
  -23.6332  -29.8071   20.1657 C   0  0  0  0  0  0
  -25.4128  -36.3150   24.0387 C   0  0  1  0  0  0
  -20.5856  -28.3719   23.1268 C   0  0  2  0  0  0
  -20.6759  -26.9444   22.5414 C   0  0  0  0  0  0
  -19.5725  -26.6344   21.5213 C   0  0  0  0  0  0
  -18.1881  -26.7886   22.1582 C   0  0  0  0  0  0
  -19.1494  -28.8839   23.2807 C   0  0  0  0  0  0
  -18.9436  -30.1421   23.8880 C   0  0  0  0  0  0
  -17.6459  -30.6602   24.0531 C   0  0  0  0  0  0
  -25.9061  -34.9489   23.5192 C   0  0  0  0  0  0
  -16.5333  -29.9124   23.6306 C   0  0  0  0  0  0
  -16.7203  -28.6487   23.0398 C   0  0  0  0  0  0
  -26.4486  -31.6582   25.0729 C   0  0  0  0  0  0
  -25.3651  -31.3697   26.1424 C   0  0  0  0  0  0
  -27.0400  -30.3003   24.6237 C   0  0  0  0  0  0
  -27.6059  -32.4348   25.7449 C   0  0  0  0  0  0
  -27.5611  -37.1814   24.8492 C   0  0  0  0  0  0
  -21.4233  -29.3065   22.3684 N   0  0  0  0  0  0
  -26.4330  -37.3836   23.9435 N   0  0  0  0  0  0
  -24.6895  -31.0582   22.0979 N   0  0  0  0  0  0
  -23.4236  -28.8126   23.2964 O   0  0  0  0  0  0
  -28.3508  -26.4102   20.1612 O   0  0  0  0  0  0
  -26.5660  -34.8977   22.4801 O   0  0  0  0  0  0
  -23.5406  -32.1359   23.7368 O   0  0  0  0  0  0
  -27.1519  -19.4680   21.0757 C   0  0  0  0  0  0
  -28.5606  -19.5096   21.0338 C   0  0  0  0  0  0
  -29.1642  -18.2290   21.4000 C   0  0  0  0  0  0
  -27.1824  -17.6006   22.3834 C   0  0  0  0  0  0
  -29.3540  -20.3715   23.7285 C   0  0  0  0  0  0
  -30.9167  -17.6869   19.4901 C   0  0  0  0  0  0
  -30.7179  -20.9254   20.8586 C   0  0  0  0  0  0
  -26.4585  -16.5783   23.2407 C   0  0  0  0  0  0
  -29.0543  -21.4254   22.6463 C   0  0  0  0  0  0
  -29.0098  -23.7633   20.4615 C   0  0  0  0  0  0
  -28.5429  -22.2127   20.2800 C   0  0  0  0  0  0
  -28.2090  -24.9679   19.7488 C   0  0  0  0  0  0
  -29.7731  -17.1616   20.4044 C   0  0  2  0  0  0
  -29.2062  -20.9829   21.1558 C   0  0  2  0  0  0
  -26.3197  -17.0271   24.7065 C   0  0  0  0  0  0
  -26.4682  -18.5260   21.7516 N   0  0  0  0  0  0
  -28.4917  -17.4501   22.2640 N   0  0  0  0  0  0
  -29.9717  -15.7438   20.9967 N   0  0  0  0  0  0
  -25.4146  -18.0036   24.8337 F   0  0  0  0  0  0
  -27.4881  -17.4612   25.1744 F   0  0  0  0  0  0
  -25.9467  -16.0015   25.4836 F   0  0  0  0  0  0
  -31.4677  -12.4651   19.2013 H   0  0  0  0  0  0
  -30.2788  -11.4065   19.9057 H   0  0  0  0  0  0
  -29.7461  -11.7787   17.4873 H   0  0  0  0  0  0
  -29.6443  -13.4984   17.7646 H   0  0  0  0  0  0
  -27.8410  -11.3036   18.8303 H   0  0  0  0  0  0
  -27.3863  -12.6168   17.7911 H   0  0  0  0  0  0
  -27.6820  -14.2507   19.5497 H   0  0  0  0  0  0
  -28.6926  -12.0574   21.4082 H   0  0  0  0  0  0
  -28.4477  -13.7272   21.8526 H   0  0  0  0  0  0
  -25.2482   -9.5971   22.4783 H   0  0  0  0  0  0
  -24.0080   -7.4371   22.7231 H   0  0  0  0  0  0
  -21.0357   -8.8589   19.9403 H   0  0  0  0  0  0
  -22.3601  -10.9363   19.5833 H   0  0  0  0  0  0
  -21.1935   -7.5946   23.9542 H   0  0  0  0  0  0
  -21.1547   -6.0582   25.9068 H   0  0  0  0  0  0
  -22.0449   -2.7321   23.3505 H   0  0  0  0  0  0
  -22.3142  -11.9765   22.3977 H   0  0  0  0  0  0
  -21.0025  -13.0517   22.0493 H   0  0  0  0  0  0
  -24.5674  -15.6936   20.2753 H   0  0  0  0  0  0
  -26.1976  -15.5219   19.8533 H   0  0  0  0  0  0
  -26.7097  -32.5460   23.1060 H   0  0  0  0  0  0
  -25.0051  -33.9681   25.0496 H   0  0  0  0  0  0
  -22.7125  -31.3079   21.4069 H   0  0  0  0  0  0
  -23.3815  -35.9500   23.3348 H   0  0  0  0  0  0
  -24.3513  -36.8819   22.2040 H   0  0  0  0  0  0
  -23.7099  -37.6448   23.6605 H   0  0  0  0  0  0
  -26.1514  -31.4926   20.6187 H   0  0  0  0  0  0
  -26.8395  -30.7901   22.0472 H   0  0  0  0  0  0
  -28.1049  -28.8934   21.2511 H   0  0  0  0  0  0
  -25.9388  -25.9540   18.9394 H   0  0  0  0  0  0
  -23.9703  -27.3605   18.9641 H   0  0  0  0  0  0
  -23.7517  -30.5748   19.4021 H   0  0  0  0  0  0
  -22.7460  -29.2393   19.8626 H   0  0  0  0  0  0
  -25.1301  -36.2088   25.0875 H   0  0  0  0  0  0
  -20.9852  -28.3316   24.1429 H   0  0  0  0  0  0
  -20.5715  -26.2335   23.3612 H   0  0  0  0  0  0
  -21.6634  -26.7527   22.1198 H   0  0  0  0  0  0
  -19.6991  -25.6259   21.1220 H   0  0  0  0  0  0
  -19.6692  -27.3161   20.6729 H   0  0  0  0  0  0
  -17.4200  -26.6539   21.3965 H   0  0  0  0  0  0
  -18.0352  -26.0059   22.8989 H   0  0  0  0  0  0
  -19.7956  -30.7139   24.2338 H   0  0  0  0  0  0
  -17.5078  -31.6306   24.5119 H   0  0  0  0  0  0
  -15.5376  -30.3092   23.7661 H   0  0  0  0  0  0
  -15.8535  -28.0798   22.7312 H   0  0  0  0  0  0
  -24.5804  -30.7135   25.7667 H   0  0  0  0  0  0
  -24.8865  -32.2849   26.4901 H   0  0  0  0  0  0
  -25.7890  -30.8748   27.0152 H   0  0  0  0  0  0
  -26.3006  -29.6700   24.1300 H   0  0  0  0  0  0
  -27.4137  -29.7364   25.4783 H   0  0  0  0  0  0
  -27.8866  -30.4334   23.9508 H   0  0  0  0  0  0
  -27.2687  -33.3652   26.2033 H   0  0  0  0  0  0
  -28.3820  -32.6887   25.0211 H   0  0  0  0  0  0
  -28.0785  -31.8449   26.5309 H   0  0  0  0  0  0
  -28.2725  -38.0033   24.7630 H   0  0  0  0  0  0
  -28.1045  -36.2617   24.6310 H   0  0  0  0  0  0
  -27.2306  -37.1450   25.8876 H   0  0  0  0  0  0
  -20.9498  -29.8745   21.6807 H   0  0  0  0  0  0
  -26.0285  -38.2955   24.1385 H   0  0  0  0  0  0
  -26.5556  -20.2846   20.7037 H   0  0  0  0  0  0
  -29.3223  -20.8149   24.7264 H   0  0  0  0  0  0
  -30.3194  -19.8839   23.5800 H   0  0  0  0  0  0
  -28.5847  -19.6020   23.7766 H   0  0  0  0  0  0
  -30.5972  -18.5696   18.9177 H   0  0  0  0  0  0
  -31.2057  -16.9657   18.7287 H   0  0  0  0  0  0
  -31.8130  -17.9403   20.0504 H   0  0  0  0  0  0
  -31.2142  -20.2095   21.5153 H   0  0  0  0  0  0
  -31.1918  -21.8805   21.0661 H   0  0  0  0  0  0
  -30.9463  -20.6857   19.8197 H   0  0  0  0  0  0
  -26.9886  -15.6285   23.2128 H   0  0  0  0  0  0
  -25.4843  -16.3780   22.7925 H   0  0  0  0  0  0
  -29.6836  -22.2954   22.8451 H   0  0  0  0  0  0
  -28.0324  -21.7781   22.8049 H   0  0  0  0  0  0
  -30.0541  -23.8029   20.1658 H   0  0  0  0  0  0
  -28.9962  -24.0116   21.5147 H   0  0  0  0  0  0
  -28.6617  -21.9604   19.2226 H   0  0  0  0  0  0
  -27.4642  -22.2430   20.4609 H   0  0  0  0  0  0
  -28.3557  -24.9023   18.6653 H   0  0  0  0  0  0
  -27.1791  -24.6993   19.9348 H   0  0  0  0  0  0
  -28.9400  -17.0449   19.6933 H   0  0  0  0  0  0
  -29.3876  -15.5893   21.8306 H   0  0  0  0  0  0
  1 25  1  0  0  0
  1 30  2  0  0  0
  1 88  1  0  0  0
  2  3  1  0  0  0
  2 25  1  0  0  0
  2 92  1  0  0  0
  2 93  1  0  0  0
  3  4  1  0  0  0
  3 94  1  0  0  0
  3 95  1  0  0  0
  4  5  1  0  0  0
  4 96  1  0  0  0
  4 97  1  0  0  0
  5  6  1  0  0  0
  5 26  1  0  0  0
  5 98  1  0  0  0
  6 25  1  0  0  0
  6 99  1  0  0  0
  6100  1  0  0  0
  7  8  2  0  0  0
  7 26  1  0  0  0
  7 29  1  0  0  0
  8  9  1  0  0  0
  8 22  1  0  0  0
  9 10  1  0  0  0
  9 27  2  0  0  0
 10 11  2  0  0  0
 10 15  1  0  0  0
 11 12  1  0  0  0
 11101  1  0  0  0
 12 13  2  0  0  0
 12102  1  0  0  0
 13 14  1  0  0  0
 13 31  1  0  0  0
 14 15  2  0  0  0
 14103  1  0  0  0
 15104  1  0  0  0
 16 17  2  0  0  0
 16 21  1  0  0  0
 16 31  1  0  0  0
 17 18  1  0  0  0
 17105  1  0  0  0
 18 19  2  0  0  0
 18106  1  0  0  0
 19 20  1  0  0  0
 19 24  1  0  0  0
 20 21  2  0  0  0
 20107  1  0  0  0
 21 23  1  0  0  0
 22 28  1  0  0  0
 22 32  2  0  0  0
 26 27  1  0  0  0
 28108  1  0  0  0
 28109  1  0  0  0
 29110  1  0  0  0
 29111  1  0  0  0
 33 34  1  0  0  0
 33 66  1  0  0  0
 33 70  2  0  0  0
 34 36  1  0  0  0
 34 59  1  0  0  0
 34112  1  0  0  0
 35 44  2  0  0  0
 35 45  1  0  0  0
 35 68  1  0  0  0
 36 56  1  0  0  0
 36113  1  0  0  0
 37 39  1  0  0  0
 37 47  1  0  0  0
 37 66  1  0  0  0
 37114  1  0  0  0
 38 43  2  0  0  0
 38 46  1  0  0  0
 38 47  1  0  0  0
 39 64  1  0  0  0
 39 67  2  0  0  0
 40 52  1  0  0  0
 40 53  2  0  0  0
 40 58  1  0  0  0
 41115  1  0  0  0
 41116  1  0  0  0
 41117  1  0  0  0
 41 48  1  0  0  0
 42 43  1  0  0  0
 42 66  1  0  0  0
 42118  1  0  0  0
 42119  1  0  0  0
 43 44  1  0  0  0
 44120  1  0  0  0
 45 46  2  0  0  0
 45121  1  0  0  0
 46122  1  0  0  0
 47123  1  0  0  0
 47124  1  0  0  0
 48 56  1  0  0  0
 48 65  1  0  0  0
 48125  1  0  0  0
 49 50  1  0  0  0
 49 53  1  0  0  0
 49 64  1  0  0  0
 49126  1  0  0  0
 50 51  1  0  0  0
 50127  1  0  0  0
 50128  1  0  0  0
 51 52  1  0  0  0
 51129  1  0  0  0
 51130  1  0  0  0
 52131  1  0  0  0
 52132  1  0  0  0
 53 54  1  0  0  0
 54 55  2  0  0  0
 54133  1  0  0  0
 55 57  1  0  0  0
 55134  1  0  0  0
 56 69  2  0  0  0
 57 58  2  0  0  0
 57135  1  0  0  0
 58136  1  0  0  0
 59 60  1  0  0  0
 59 61  1  0  0  0
 59 62  1  0  0  0
 60137  1  0  0  0
 60138  1  0  0  0
 60139  1  0  0  0
 61140  1  0  0  0
 61141  1  0  0  0
 61142  1  0  0  0
 62143  1  0  0  0
 62144  1  0  0  0
 62145  1  0  0  0
 63 65  1  0  0  0
 63146  1  0  0  0
 63147  1  0  0  0
 63148  1  0  0  0
 64149  1  0  0  0
 65150  1  0  0  0
 68 82  1  0  0  0
 71 72  2  0  0  0
 71 86  1  0  0  0
 71151  1  0  0  0
 72 73  1  0  0  0
 72 84  1  0  0  0
 73 83  1  0  0  0
 73 87  2  0  0  0
 74 78  1  0  0  0
 74 86  2  0  0  0
 74 87  1  0  0  0
 75 79  1  0  0  0
 75152  1  0  0  0
 75153  1  0  0  0
 75154  1  0  0  0
 76155  1  0  0  0
 76156  1  0  0  0
 76157  1  0  0  0
 76 83  1  0  0  0
 77158  1  0  0  0
 77159  1  0  0  0
 77160  1  0  0  0
 77 84  1  0  0  0
 78 85  1  0  0  0
 78161  1  0  0  0
 78162  1  0  0  0
 79 84  1  0  0  0
 79163  1  0  0  0
 79164  1  0  0  0
 80 81  1  0  0  0
 80 82  1  0  0  0
 80165  1  0  0  0
 80166  1  0  0  0
 81 84  1  0  0  0
 81167  1  0  0  0
 81168  1  0  0  0
 82169  1  0  0  0
 82170  1  0  0  0
 83 88  1  0  0  0
 83171  1  0  0  0
 85 89  1  0  0  0
 85 90  1  0  0  0
 85 91  1  0  0  0
 88172  1  0  0  0
M  ISO  4   1 100  68 101  82 101  88 100
M  END
> <chiral flag>
0

> <version>
0

> <s_m_source_file>
/data/baiqing/PycharmProjects/Reinvent-master-3.2/result/LINK_invent/BTK/process_docking_weight1_custom_sum_contain_oxygen_bond_distance_aromatic_linkinvent_7_9_3/rearranged_h_0069.sdf

> <i_m_source_file_index>
4

> <r_mmod_Potential_Energy-OPLS-2005>
-91.9190902709961

> <r_mmod_Stretch_Energy-OPLS-2005>
145.254806518555

> <r_mmod_Bend_Energy-OPLS-2005>
214.902893066406

> <r_mmod_Torsional_Energy-OPLS-2005>
380.832458496094

> <r_mmod_Improper_Torsional_Energy-OPLS-2005>
26.364221572876

> <r_mmod_Van_der_Waal_Energy-OPLS-2005>
159.766220092773

> <r_mmod_Electrostatic_Energy-OPLS-2005>
-877.473449707031

> <r_mmod_Solvation_Energy-OPLS-2005>
-203.471832275391

> <b_mmod_Minimization_Converged-OPLS-2005>
0

> <r_mmod_RMS_Derivative-OPLS-2005>
19.7182445526123

$$$$
4
                    3D
 Structure written by MMmdl.
165173  0  0  1  0            999 V2000
  -30.7263  -14.6318   20.4457 C   0  0  0  0  0  0
  -30.4084  -12.3783   19.4641 C   0  0  0  0  0  0
  -29.4917  -12.4442   18.2262 C   0  0  0  0  0  0
  -28.0226  -12.2471   18.6428 C   0  0  0  0  0  0
  -27.6192  -13.1718   19.8141 C   0  0  2  0  0  0
  -28.6744  -13.1661   20.9420 C   0  0  0  0  0  0
  -25.2507  -13.8015   20.5652 C   0  0  0  0  0  0
  -24.1768  -13.0353   20.9250 C   0  0  0  0  0  0
  -24.6289  -11.6820   20.8776 C   0  0  0  0  0  0
  -23.8954  -10.4263   21.0490 C   0  0  0  0  0  0
  -24.3554   -9.4194   21.9247 C   0  0  0  0  0  0
  -23.6283   -8.2206   22.0773 C   0  0  0  0  0  0
  -22.4261   -8.0249   21.3562 C   0  0  0  0  0  0
  -21.9888   -9.0197   20.4647 C   0  0  0  0  0  0
  -22.7159  -10.2099   20.3098 C   0  0  0  0  0  0
  -21.6852   -6.0741   22.5299 C   0  0  0  0  0  0
  -21.4003   -6.5652   23.8234 C   0  0  0  0  0  0
  -21.3647   -5.6812   24.9197 C   0  0  0  0  0  0
  -21.6056   -4.3069   24.7245 C   0  0  0  0  0  0
  -21.8815   -3.8166   23.4372 C   0  0  0  0  0  0
  -21.9185   -4.6979   22.3426 C   0  0  0  0  0  0
  -22.7810  -13.5206   21.1860 C   0  0  0  0  0  0
  -22.1659   -4.2170   21.1002 F   0  0  0  0  0  0
  -21.5646   -3.4562   25.7760 F   0  0  0  0  0  0
  -29.9933  -13.4702   20.3718 N   0  0  0  0  0  0
  -26.2814  -12.9079   20.3131 N   0  0  0  0  0  0
  -25.9175  -11.6303   20.5706 N   0  0  0  0  0  0
  -22.0411  -12.8234   22.0419 N   0  0  0  0  0  0
  -25.4189  -15.1720   20.4004 N   0  0  0  0  0  0
  -31.9423  -14.5452   20.2731 O   0  0  0  0  0  0
  -21.6645   -6.8852   21.4249 O   0  0  0  0  0  0
  -22.3532  -14.5488   20.6632 O   0  0  0  0  0  0
  -24.6143  -31.8673   23.2105 C   0  0  0  0  0  0
  -25.9048  -32.4798   23.8372 C   0  0  1  0  0  0
  -27.2318  -27.4092   20.0788 C   0  0  0  0  0  0
  -25.5921  -33.8603   24.2299 N   0  0  0  0  0  0
  -23.4002  -30.4905   21.5544 C   0  0  2  0  0  0
  -24.8424  -28.9553   20.1176 C   0  0  0  0  0  0
  -22.7395  -29.4639   22.5023 C   0  0  0  0  0  0
  -18.0271  -28.1390   22.8495 C   0  0  0  0  0  0
  -24.1492  -36.7297   23.2632 C   0  0  0  0  0  0
  -25.9332  -30.8244   21.3658 C   0  0  0  0  0  0
  -26.0071  -29.4576   20.7107 C   0  0  0  0  0  0
  -27.1989  -28.6915   20.6887 C   0  0  0  0  0  0
  -26.0317  -26.9195   19.5063 C   0  0  0  0  0  0
  -24.8520  -27.6860   19.5184 C   0  0  0  0  0  0
  -23.6058  -29.8245   20.1679 C   0  0  0  0  0  0
  -25.4128  -36.3080   24.0301 C   0  0  1  0  0  0
  -20.5856  -28.3644   23.1355 C   0  0  2  0  0  0
  -20.6768  -26.9396   22.5441 C   0  0  0  0  0  0
  -19.5741  -26.6382   21.5240 C   0  0  0  0  0  0
  -18.1909  -26.7937   22.1624 C   0  0  0  0  0  0
  -19.1521  -28.8848   23.2909 C   0  0  0  0  0  0
  -18.9437  -30.1460   23.8890 C   0  0  0  0  0  0
  -17.6434  -30.6594   24.0565 C   0  0  0  0  0  0
  -25.9057  -34.9457   23.5093 C   0  0  0  0  0  0
  -16.5331  -29.9099   23.6344 C   0  0  0  0  0  0
  -16.7256  -28.6528   23.0337 C   0  0  0  0  0  0
  -26.4491  -31.6578   25.0698 C   0  0  0  0  0  0
  -25.3767  -31.3663   26.1436 C   0  0  0  0  0  0
  -27.0303  -30.3011   24.6081 C   0  0  0  0  0  0
  -27.6064  -32.4304   25.7465 C   0  0  0  0  0  0
  -27.5584  -37.1804   24.8472 C   0  0  0  0  0  0
  -21.4131  -29.2989   22.3749 N   0  0  0  0  0  0
  -26.4310  -37.3773   23.9402 N   0  0  0  0  0  0
  -24.6682  -31.0756   22.1012 N   0  0  0  0  0  0
  -23.4174  -28.8193   23.3061 O   0  0  0  0  0  0
  -28.4312  -26.7102   20.0663 O   0  0  0  0  0  0
  -26.5617  -34.8908   22.4653 O   0  0  0  0  0  0
  -23.5339  -32.1451   23.7497 O   0  0  0  0  0  0
  -27.8746  -18.6342   21.2973 C   0  0  0  0  0  0
  -29.2575  -18.3404   21.4843 C   0  0  0  0  0  0
  -28.9818  -16.1842   22.6860 C   0  0  0  0  0  0
  -31.2184  -17.1382   22.5340 C   0  0  0  0  0  0
  -28.9074  -16.2305   19.4595 C   0  0  0  0  0  0
  -31.2015  -16.9534   19.5309 C   0  0  0  0  0  0
  -28.7348  -22.8107   20.2187 C   0  0  0  0  0  0
  -28.6768  -24.3105   20.6505 C   0  0  0  0  0  0
  -29.1739  -21.8720   21.3851 C   0  0  0  0  0  0
  -28.5434  -25.3714   19.5268 C   0  0  0  0  0  0
  -29.9107  -16.9522   21.7228 C   0  0  0  0  0  0
  -30.1549  -16.1375   20.3628 C   0  0  0  0  0  0
  -27.6804  -19.9213   21.1374 N   0  0  0  0  0  0
  -29.9110  -19.4866   21.3947 N   0  0  0  0  0  0
  -28.9350  -20.4312   21.2137 N   0  0  0  0  0  0
  -31.4534  -12.4431   19.1566 H   0  0  0  0  0  0
  -30.3093  -11.4119   19.9619 H   0  0  0  0  0  0
  -29.7802  -11.6817   17.5039 H   0  0  0  0  0  0
  -29.6068  -13.4020   17.7203 H   0  0  0  0  0  0
  -27.8963  -11.2035   18.9393 H   0  0  0  0  0  0
  -27.3642  -12.4063   17.7886 H   0  0  0  0  0  0
  -27.5545  -14.1389   19.3477 H   0  0  0  0  0  0
  -28.7032  -12.1891   21.4249 H   0  0  0  0  0  0
  -28.3877  -13.8594   21.7221 H   0  0  0  0  0  0
  -25.2695   -9.5735   22.4827 H   0  0  0  0  0  0
  -24.0032   -7.4586   22.7465 H   0  0  0  0  0  0
  -21.0838   -8.8660   19.8932 H   0  0  0  0  0  0
  -22.3598  -10.9641   19.6212 H   0  0  0  0  0  0
  -21.1990   -7.6157   23.9760 H   0  0  0  0  0  0
  -21.1469   -6.0540   25.9102 H   0  0  0  0  0  0
  -22.0604   -2.7634   23.2847 H   0  0  0  0  0  0
  -22.4094  -12.0028   22.4990 H   0  0  0  0  0  0
  -21.0948  -13.1151   22.2403 H   0  0  0  0  0  0
  -24.6365  -15.8088   20.5025 H   0  0  0  0  0  0
  -26.2208  -15.5975   19.9551 H   0  0  0  0  0  0
  -26.7099  -32.5499   23.1108 H   0  0  0  0  0  0
  -25.0113  -33.9788   25.0466 H   0  0  0  0  0  0
  -22.6882  -31.3083   21.4168 H   0  0  0  0  0  0
  -23.3743  -35.9642   23.3322 H   0  0  0  0  0  0
  -24.3589  -36.8901   22.2044 H   0  0  0  0  0  0
  -23.7255  -37.6504   23.6666 H   0  0  0  0  0  0
  -26.0527  -31.5934   20.6011 H   0  0  0  0  0  0
  -26.8203  -30.8732   21.9862 H   0  0  0  0  0  0
  -28.0983  -29.0835   21.1402 H   0  0  0  0  0  0
  -25.9617  -25.9475   19.0461 H   0  0  0  0  0  0
  -23.9509  -27.2898   19.0712 H   0  0  0  0  0  0
  -23.7097  -30.6024   19.4098 H   0  0  0  0  0  0
  -22.7276  -29.2474   19.8724 H   0  0  0  0  0  0
  -25.1297  -36.1946   25.0789 H   0  0  0  0  0  0
  -20.9930  -28.3206   24.1488 H   0  0  0  0  0  0
  -20.5736  -26.2229   23.3605 H   0  0  0  0  0  0
  -21.6626  -26.7494   22.1190 H   0  0  0  0  0  0
  -19.6910  -25.6305   21.1247 H   0  0  0  0  0  0
  -19.6702  -27.3217   20.6799 H   0  0  0  0  0  0
  -17.4199  -26.6690   21.4014 H   0  0  0  0  0  0
  -18.0292  -26.0096   22.9032 H   0  0  0  0  0  0
  -19.7911  -30.7294   24.2230 H   0  0  0  0  0  0
  -17.4995  -31.6279   24.5148 H   0  0  0  0  0  0
  -15.5333  -30.2982   23.7701 H   0  0  0  0  0  0
  -15.8648  -28.0866   22.7027 H   0  0  0  0  0  0
  -24.6008  -30.6916   25.7795 H   0  0  0  0  0  0
  -24.8859  -32.2779   26.4852 H   0  0  0  0  0  0
  -25.8136  -30.8897   27.0212 H   0  0  0  0  0  0
  -26.2817  -29.6772   24.1177 H   0  0  0  0  0  0
  -27.4085  -29.7251   25.4532 H   0  0  0  0  0  0
  -27.8656  -30.4286   23.9188 H   0  0  0  0  0  0
  -27.2706  -33.3637   26.2003 H   0  0  0  0  0  0
  -28.3914  -32.6814   25.0317 H   0  0  0  0  0  0
  -28.0684  -31.8441   26.5413 H   0  0  0  0  0  0
  -28.2598  -38.0104   24.7515 H   0  0  0  0  0  0
  -28.1061  -36.2623   24.6303 H   0  0  0  0  0  0
  -27.2279  -37.1460   25.8866 H   0  0  0  0  0  0
  -20.9307  -29.8666   21.6934 H   0  0  0  0  0  0
  -26.0165  -38.2829   24.1439 H   0  0  0  0  0  0
  -27.0404  -17.9463   21.2929 H   0  0  0  0  0  0
  -28.7584  -16.7839   23.5704 H   0  0  0  0  0  0
  -29.4422  -15.2640   23.0447 H   0  0  0  0  0  0
  -28.0206  -15.9391   22.2361 H   0  0  0  0  0  0
  -31.0181  -17.5881   23.5067 H   0  0  0  0  0  0
  -31.9341  -17.7945   22.0376 H   0  0  0  0  0  0
  -31.7189  -16.1862   22.7161 H   0  0  0  0  0  0
  -28.7730  -17.2289   19.0415 H   0  0  0  0  0  0
  -27.9983  -16.0365   20.0173 H   0  0  0  0  0  0
  -28.9736  -15.5612   18.6044 H   0  0  0  0  0  0
  -30.9063  -17.9909   19.3695 H   0  0  0  0  0  0
  -31.3539  -16.5174   18.5422 H   0  0  0  0  0  0
  -32.1831  -16.9896   20.0005 H   0  0  0  0  0  0
  -29.4300  -22.6864   19.3880 H   0  0  0  0  0  0
  -27.7603  -22.5054   19.8403 H   0  0  0  0  0  0
  -29.5824  -24.5434   21.2121 H   0  0  0  0  0  0
  -27.8515  -24.4372   21.3487 H   0  0  0  0  0  0
  -28.6366  -22.1653   22.2882 H   0  0  0  0  0  0
  -30.2303  -22.0264   21.6022 H   0  0  0  0  0  0
  -27.7812  -25.0959   18.8034 H   0  0  0  0  0  0
  -29.4632  -25.3582   18.9412 H   0  0  0  0  0  0
  1 25  1  0  0  0
  1 30  2  0  0  0
  1 82  1  0  0  0
  2  3  1  0  0  0
  2 25  1  0  0  0
  2 86  1  0  0  0
  2 87  1  0  0  0
  3  4  1  0  0  0
  3 88  1  0  0  0
  3 89  1  0  0  0
  4  5  1  0  0  0
  4 90  1  0  0  0
  4 91  1  0  0  0
  5  6  1  0  0  0
  5 26  1  0  0  0
  5 92  1  0  0  0
  6 25  1  0  0  0
  6 93  1  0  0  0
  6 94  1  0  0  0
  7  8  2  0  0  0
  7 26  1  0  0  0
  7 29  1  0  0  0
  8  9  1  0  0  0
  8 22  1  0  0  0
  9 10  1  0  0  0
  9 27  2  0  0  0
 10 11  2  0  0  0
 10 15  1  0  0  0
 11 12  1  0  0  0
 11 95  1  0  0  0
 12 13  2  0  0  0
 12 96  1  0  0  0
 13 14  1  0  0  0
 13 31  1  0  0  0
 14 15  2  0  0  0
 14 97  1  0  0  0
 15 98  1  0  0  0
 16 17  2  0  0  0
 16 21  1  0  0  0
 16 31  1  0  0  0
 17 18  1  0  0  0
 17 99  1  0  0  0
 18 19  2  0  0  0
 18100  1  0  0  0
 19 20  1  0  0  0
 19 24  1  0  0  0
 20 21  2  0  0  0
 20101  1  0  0  0
 21 23  1  0  0  0
 22 28  1  0  0  0
 22 32  2  0  0  0
 26 27  1  0  0  0
 28102  1  0  0  0
 28103  1  0  0  0
 29104  1  0  0  0
 29105  1  0  0  0
 33 34  1  0  0  0
 33 66  1  0  0  0
 33 70  2  0  0  0
 34 36  1  0  0  0
 34 59  1  0  0  0
 34106  1  0  0  0
 35 44  2  0  0  0
 35 45  1  0  0  0
 35 68  1  0  0  0
 36 56  1  0  0  0
 36107  1  0  0  0
 37 39  1  0  0  0
 37 47  1  0  0  0
 37 66  1  0  0  0
 37108  1  0  0  0
 38 43  2  0  0  0
 38 46  1  0  0  0
 38 47  1  0  0  0
 39 64  1  0  0  0
 39 67  2  0  0  0
 40 52  1  0  0  0
 40 53  2  0  0  0
 40 58  1  0  0  0
 41109  1  0  0  0
 41110  1  0  0  0
 41111  1  0  0  0
 41 48  1  0  0  0
 42 43  1  0  0  0
 42 66  1  0  0  0
 42112  1  0  0  0
 42113  1  0  0  0
 43 44  1  0  0  0
 44114  1  0  0  0
 45 46  2  0  0  0
 45115  1  0  0  0
 46116  1  0  0  0
 47117  1  0  0  0
 47118  1  0  0  0
 48 56  1  0  0  0
 48 65  1  0  0  0
 48119  1  0  0  0
 49 50  1  0  0  0
 49 53  1  0  0  0
 49 64  1  0  0  0
 49120  1  0  0  0
 50 51  1  0  0  0
 50121  1  0  0  0
 50122  1  0  0  0
 51 52  1  0  0  0
 51123  1  0  0  0
 51124  1  0  0  0
 52125  1  0  0  0
 52126  1  0  0  0
 53 54  1  0  0  0
 54 55  2  0  0  0
 54127  1  0  0  0
 55 57  1  0  0  0
 55128  1  0  0  0
 56 69  2  0  0  0
 57 58  2  0  0  0
 57129  1  0  0  0
 58130  1  0  0  0
 59 60  1  0  0  0
 59 61  1  0  0  0
 59 62  1  0  0  0
 60131  1  0  0  0
 60132  1  0  0  0
 60133  1  0  0  0
 61134  1  0  0  0
 61135  1  0  0  0
 61136  1  0  0  0
 62137  1  0  0  0
 62138  1  0  0  0
 62139  1  0  0  0
 63 65  1  0  0  0
 63140  1  0  0  0
 63141  1  0  0  0
 63142  1  0  0  0
 64143  1  0  0  0
 65144  1  0  0  0
 68 80  1  0  0  0
 71 72  1  0  0  0
 71 83  2  0  0  0
 71145  1  0  0  0
 72 81  1  0  0  0
 72 84  2  0  0  0
 73146  1  0  0  0
 73147  1  0  0  0
 73148  1  0  0  0
 73 81  1  0  0  0
 74 81  1  0  0  0
 74149  1  0  0  0
 74150  1  0  0  0
 74151  1  0  0  0
 75152  1  0  0  0
 75153  1  0  0  0
 75154  1  0  0  0
 75 82  1  0  0  0
 76 82  1  0  0  0
 76155  1  0  0  0
 76156  1  0  0  0
 76157  1  0  0  0
 77 78  1  0  0  0
 77 79  1  0  0  0
 77158  1  0  0  0
 77159  1  0  0  0
 78 80  1  0  0  0
 78160  1  0  0  0
 78161  1  0  0  0
 79 85  1  0  0  0
 79162  1  0  0  0
 79163  1  0  0  0
 80164  1  0  0  0
 80165  1  0  0  0
 81 82  1  0  0  0
 83 85  1  0  0  0
 84 85  1  0  0  0
M  ISO  4   1 100  68 101  80 101  82 100
M  END
> <chiral flag>
0

> <version>
0

> <s_m_source_file>
/data/baiqing/PycharmProjects/Reinvent-master-3.2/result/LINK_invent/BTK/process_docking_weight1_custom_sum_contain_oxygen_bond_distance_aromatic_linkinvent_7_9_3/rearranged_h_0069.sdf

> <i_m_source_file_index>
5

> <r_mmod_Potential_Energy-OPLS-2005>
149.39631652832

> <r_mmod_Stretch_Energy-OPLS-2005>
63.5356559753418

> <r_mmod_Bend_Energy-OPLS-2005>
166.366607666016

> <r_mmod_Torsional_Energy-OPLS-2005>
206.925018310547

> <r_mmod_Improper_Torsional_Energy-OPLS-2005>
10.6560621261597

> <r_mmod_Van_der_Waal_Energy-OPLS-2005>
153.317993164062

> <r_mmod_Electrostatic_Energy-OPLS-2005>
-313.140289306641

> <r_mmod_Solvation_Energy-OPLS-2005>
-188.529434204102

> <b_mmod_Minimization_Converged-OPLS-2005>
0

> <r_mmod_RMS_Derivative-OPLS-2005>
3.72805500030518

$$$$
5
                    3D
 Structure written by MMmdl.
166174  0  0  1  0            999 V2000
  -30.6396  -14.6431   20.4948 C   0  0  0  0  0  0
  -30.4344  -12.3949   19.4652 C   0  0  0  0  0  0
  -29.5133  -12.5058   18.2294 C   0  0  0  0  0  0
  -28.0341  -12.3445   18.6384 C   0  0  0  0  0  0
  -27.6514  -13.2210   19.8613 C   0  0  2  0  0  0
  -28.6921  -13.0972   20.9966 C   0  0  0  0  0  0
  -25.2539  -13.8170   20.5641 C   0  0  0  0  0  0
  -24.1785  -13.0452   20.9155 C   0  0  0  0  0  0
  -24.6347  -11.6916   20.8685 C   0  0  0  0  0  0
  -23.9028  -10.4303   21.0393 C   0  0  0  0  0  0
  -24.3589   -9.4235   21.9175 C   0  0  0  0  0  0
  -23.6269   -8.2247   22.0733 C   0  0  0  0  0  0
  -22.4253   -8.0257   21.3535 C   0  0  0  0  0  0
  -21.9876   -9.0234   20.4657 C   0  0  0  0  0  0
  -22.7192  -10.2122   20.3063 C   0  0  0  0  0  0
  -21.6836   -6.0734   22.5259 C   0  0  0  0  0  0
  -21.4022   -6.5635   23.8205 C   0  0  0  0  0  0
  -21.3668   -5.6783   24.9148 C   0  0  0  0  0  0
  -21.6029   -4.3041   24.7208 C   0  0  0  0  0  0
  -21.8820   -3.8148   23.4328 C   0  0  0  0  0  0
  -21.9191   -4.6963   22.3387 C   0  0  0  0  0  0
  -22.7816  -13.5247   21.1822 C   0  0  0  0  0  0
  -22.1661   -4.2174   21.0964 F   0  0  0  0  0  0
  -21.5642   -3.4520   25.7723 F   0  0  0  0  0  0
  -30.0107  -13.4266   20.4362 N   0  0  0  0  0  0
  -26.2959  -12.9355   20.3270 N   0  0  0  0  0  0
  -25.9279  -11.6520   20.5688 N   0  0  0  0  0  0
  -22.0458  -12.8265   22.0390 N   0  0  0  0  0  0
  -25.4334  -15.1857   20.4030 N   0  0  0  0  0  0
  -31.8036  -14.7750   20.1079 O   0  0  0  0  0  0
  -21.6618   -6.8842   21.4216 O   0  0  0  0  0  0
  -22.3500  -14.5555   20.6641 O   0  0  0  0  0  0
  -24.6243  -31.8602   23.1996 C   0  0  0  0  0  0
  -25.9083  -32.4778   23.8335 C   0  0  1  0  0  0
  -27.2351  -27.3357   20.1331 C   0  0  0  0  0  0
  -25.5862  -33.8580   24.2226 N   0  0  0  0  0  0
  -23.4209  -30.4796   21.5417 C   0  0  2  0  0  0
  -24.8725  -28.9279   20.1170 C   0  0  0  0  0  0
  -22.7477  -29.4632   22.4950 C   0  0  0  0  0  0
  -18.0289  -28.1420   22.8488 C   0  0  0  0  0  0
  -24.1478  -36.7305   23.2639 C   0  0  0  0  0  0
  -25.9582  -30.7939   21.3707 C   0  0  0  0  0  0
  -26.0373  -29.4196   20.7211 C   0  0  0  0  0  0
  -27.2255  -28.6326   20.7255 C   0  0  0  0  0  0
  -26.0560  -26.8877   19.5051 C   0  0  0  0  0  0
  -24.8803  -27.6652   19.5018 C   0  0  0  0  0  0
  -23.6366  -29.8043   20.1609 C   0  0  0  0  0  0
  -25.4099  -36.3068   24.0309 C   0  0  1  0  0  0
  -20.5889  -28.3711   23.1281 C   0  0  2  0  0  0
  -20.6768  -26.9425   22.5433 C   0  0  0  0  0  0
  -19.5746  -26.6413   21.5224 C   0  0  0  0  0  0
  -18.1924  -26.7967   22.1613 C   0  0  0  0  0  0
  -19.1540  -28.8880   23.2891 C   0  0  0  0  0  0
  -18.9472  -30.1467   23.8937 C   0  0  0  0  0  0
  -17.6465  -30.6602   24.0591 C   0  0  0  0  0  0
  -25.9041  -34.9446   23.5071 C   0  0  0  0  0  0
  -16.5352  -29.9104   23.6329 C   0  0  0  0  0  0
  -16.7281  -28.6524   23.0346 C   0  0  0  0  0  0
  -26.4455  -31.6621   25.0734 C   0  0  0  0  0  0
  -25.3663  -31.3809   26.1455 C   0  0  0  0  0  0
  -27.0266  -30.3021   24.6222 C   0  0  0  0  0  0
  -27.6045  -32.4365   25.7458 C   0  0  0  0  0  0
  -27.5572  -37.1777   24.8439 C   0  0  0  0  0  0
  -21.4194  -29.3052   22.3675 N   0  0  0  0  0  0
  -26.4270  -37.3766   23.9401 N   0  0  0  0  0  0
  -24.6855  -31.0614   22.0943 N   0  0  0  0  0  0
  -23.4203  -28.8202   23.3055 O   0  0  0  0  0  0
  -28.3283  -26.4667   20.1478 O   0  0  0  0  0  0
  -26.5667  -34.8923   22.4678 O   0  0  0  0  0  0
  -23.5404  -32.1399   23.7317 O   0  0  0  0  0  0
  -29.7544  -22.2223   19.7705 C   0  0  0  0  0  0
  -27.9351  -22.8754   21.6432 C   0  0  0  0  0  0
  -29.0730  -21.1725   20.4820 C   0  0  0  0  0  0
  -28.5724  -23.9263   20.9025 C   0  0  0  0  0  0
  -30.7877  -21.9433   18.6932 C   0  0  0  0  0  0
  -26.9564  -23.1558   22.7686 C   0  0  0  0  0  0
  -29.3704  -25.9731   22.2341 C   0  0  0  0  0  0
  -30.7033  -18.8615   21.9659 C   0  0  0  0  0  0
  -28.3455  -18.0052   21.9202 C   0  0  0  0  0  0
  -29.1070  -19.6384   20.0761 C   0  0  0  0  0  0
  -30.0537  -17.1378   20.2061 C   0  0  0  0  0  0
  -28.3314  -25.4616   21.2214 C   0  0  1  0  0  0
  -29.5509  -18.4211   21.0395 C   0  0  0  0  0  0
  -28.1594  -21.5435   21.4180 N   0  0  0  0  0  0
  -29.5115  -23.5617   19.9823 N   0  0  0  0  0  0
  -29.8609  -15.7416   20.7520 N   0  0  0  0  0  0
  -31.4807  -12.5035   19.1739 H   0  0  0  0  0  0
  -30.3502  -11.4070   19.9158 H   0  0  0  0  0  0
  -29.7830  -11.7547   17.4859 H   0  0  0  0  0  0
  -29.6588  -13.4738   17.7440 H   0  0  0  0  0  0
  -27.8658  -11.2898   18.8679 H   0  0  0  0  0  0
  -27.3855  -12.5766   17.7941 H   0  0  0  0  0  0
  -27.6654  -14.2520   19.5060 H   0  0  0  0  0  0
  -28.6975  -12.0825   21.3929 H   0  0  0  0  0  0
  -28.4389  -13.7492   21.8341 H   0  0  0  0  0  0
  -25.2741   -9.5717   22.4740 H   0  0  0  0  0  0
  -24.0019   -7.4614   22.7408 H   0  0  0  0  0  0
  -21.0822   -8.8721   19.8945 H   0  0  0  0  0  0
  -22.3626  -10.9637   19.6163 H   0  0  0  0  0  0
  -21.2019   -7.6145   23.9710 H   0  0  0  0  0  0
  -21.1495   -6.0511   25.9057 H   0  0  0  0  0  0
  -22.0606   -2.7616   23.2804 H   0  0  0  0  0  0
  -22.4069  -11.9979   22.4878 H   0  0  0  0  0  0
  -21.1060  -13.1293   22.2598 H   0  0  0  0  0  0
  -24.6795  -15.8562   20.5087 H   0  0  0  0  0  0
  -26.2841  -15.6038   20.0517 H   0  0  0  0  0  0
  -26.7172  -32.5462   23.1114 H   0  0  0  0  0  0
  -24.9866  -33.9710   25.0263 H   0  0  0  0  0  0
  -22.7129  -31.2976   21.3918 H   0  0  0  0  0  0
  -23.3728  -35.9648   23.3274 H   0  0  0  0  0  0
  -24.3591  -36.8981   22.2069 H   0  0  0  0  0  0
  -23.7251  -37.6490   23.6722 H   0  0  0  0  0  0
  -26.0850  -31.5515   20.5965 H   0  0  0  0  0  0
  -26.8400  -30.8526   21.9969 H   0  0  0  0  0  0
  -28.1192  -29.0014   21.2081 H   0  0  0  0  0  0
  -26.0430  -25.9145   19.0355 H   0  0  0  0  0  0
  -23.9858  -27.2786   19.0316 H   0  0  0  0  0  0
  -23.7457  -30.5720   19.3938 H   0  0  0  0  0  0
  -22.7612  -29.2222   19.8697 H   0  0  0  0  0  0
  -25.1281  -36.1895   25.0796 H   0  0  0  0  0  0
  -20.9977  -28.3302   24.1395 H   0  0  0  0  0  0
  -20.5635  -26.2323   23.3642 H   0  0  0  0  0  0
  -21.6640  -26.7443   22.1243 H   0  0  0  0  0  0
  -19.6898  -25.6321   21.1254 H   0  0  0  0  0  0
  -19.6683  -27.3222   20.6754 H   0  0  0  0  0  0
  -17.4188  -26.6744   21.4016 H   0  0  0  0  0  0
  -18.0296  -26.0122   22.9007 H   0  0  0  0  0  0
  -19.7933  -30.7298   24.2335 H   0  0  0  0  0  0
  -17.5006  -31.6265   24.5193 H   0  0  0  0  0  0
  -15.5364  -30.3018   23.7635 H   0  0  0  0  0  0
  -15.8668  -28.0864   22.7041 H   0  0  0  0  0  0
  -24.5794  -30.7213   25.7763 H   0  0  0  0  0  0
  -24.8898  -32.3007   26.4871 H   0  0  0  0  0  0
  -25.7936  -30.8960   27.0240 H   0  0  0  0  0  0
  -26.2826  -29.6811   24.1220 H   0  0  0  0  0  0
  -27.3883  -29.7270   25.4754 H   0  0  0  0  0  0
  -27.8743  -30.4262   23.9483 H   0  0  0  0  0  0
  -27.2673  -33.3660   26.2056 H   0  0  0  0  0  0
  -28.3796  -32.6952   25.0230 H   0  0  0  0  0  0
  -28.0785  -31.8501   26.5336 H   0  0  0  0  0  0
  -28.2566  -38.0092   24.7496 H   0  0  0  0  0  0
  -28.1079  -36.2630   24.6207 H   0  0  0  0  0  0
  -27.2323  -37.1363   25.8850 H   0  0  0  0  0  0
  -20.9388  -29.8720   21.6824 H   0  0  0  0  0  0
  -26.0141  -38.2826   24.1446 H   0  0  0  0  0  0
  -31.7214  -21.6011   19.1425 H   0  0  0  0  0  0
  -31.0047  -22.8434   18.1158 H   0  0  0  0  0  0
  -30.4488  -21.1917   17.9811 H   0  0  0  0  0  0
  -27.3131  -23.9574   23.4147 H   0  0  0  0  0  0
  -26.8260  -22.2756   23.4000 H   0  0  0  0  0  0
  -25.9782  -23.4338   22.3751 H   0  0  0  0  0  0
  -29.3867  -25.3612   23.1350 H   0  0  0  0  0  0
  -29.1561  -27.0000   22.5347 H   0  0  0  0  0  0
  -30.3747  -25.9612   21.8106 H   0  0  0  0  0  0
  -30.4298  -19.7128   22.5909 H   0  0  0  0  0  0
  -31.5914  -19.1461   21.3957 H   0  0  0  0  0  0
  -30.9990  -18.0511   22.6336 H   0  0  0  0  0  0
  -27.9617  -18.8466   22.4994 H   0  0  0  0  0  0
  -28.6140  -17.2287   22.6406 H   0  0  0  0  0  0
  -27.5139  -17.6196   21.3274 H   0  0  0  0  0  0
  -29.7302  -19.5598   19.1904 H   0  0  0  0  0  0
  -28.1088  -19.4132   19.6985 H   0  0  0  0  0  0
  -31.1041  -17.2740   19.9391 H   0  0  0  0  0  0
  -29.5305  -17.1336   19.2493 H   0  0  0  0  0  0
  -27.3567  -25.5150   21.7094 H   0  0  0  0  0  0
  -28.9306  -15.5324   21.0705 H   0  0  0  0  0  0
  1 25  1  0  0  0
  1 30  2  0  0  0
  1 86  1  0  0  0
  2  3  1  0  0  0
  2 25  1  0  0  0
  2 87  1  0  0  0
  2 88  1  0  0  0
  3  4  1  0  0  0
  3 89  1  0  0  0
  3 90  1  0  0  0
  4  5  1  0  0  0
  4 91  1  0  0  0
  4 92  1  0  0  0
  5  6  1  0  0  0
  5 26  1  0  0  0
  5 93  1  0  0  0
  6 25  1  0  0  0
  6 94  1  0  0  0
  6 95  1  0  0  0
  7  8  2  0  0  0
  7 26  1  0  0  0
  7 29  1  0  0  0
  8  9  1  0  0  0
  8 22  1  0  0  0
  9 10  1  0  0  0
  9 27  2  0  0  0
 10 11  2  0  0  0
 10 15  1  0  0  0
 11 12  1  0  0  0
 11 96  1  0  0  0
 12 13  2  0  0  0
 12 97  1  0  0  0
 13 14  1  0  0  0
 13 31  1  0  0  0
 14 15  2  0  0  0
 14 98  1  0  0  0
 15 99  1  0  0  0
 16 17  2  0  0  0
 16 21  1  0  0  0
 16 31  1  0  0  0
 17 18  1  0  0  0
 17100  1  0  0  0
 18 19  2  0  0  0
 18101  1  0  0  0
 19 20  1  0  0  0
 19 24  1  0  0  0
 20 21  2  0  0  0
 20102  1  0  0  0
 21 23  1  0  0  0
 22 28  1  0  0  0
 22 32  2  0  0  0
 26 27  1  0  0  0
 28103  1  0  0  0
 28104  1  0  0  0
 29105  1  0  0  0
 29106  1  0  0  0
 33 34  1  0  0  0
 33 66  1  0  0  0
 33 70  2  0  0  0
 34 36  1  0  0  0
 34 59  1  0  0  0
 34107  1  0  0  0
 35 44  2  0  0  0
 35 45  1  0  0  0
 35 68  1  0  0  0
 36 56  1  0  0  0
 36108  1  0  0  0
 37 39  1  0  0  0
 37 47  1  0  0  0
 37 66  1  0  0  0
 37109  1  0  0  0
 38 43  2  0  0  0
 38 46  1  0  0  0
 38 47  1  0  0  0
 39 64  1  0  0  0
 39 67  2  0  0  0
 40 52  1  0  0  0
 40 53  2  0  0  0
 40 58  1  0  0  0
 41110  1  0  0  0
 41111  1  0  0  0
 41112  1  0  0  0
 41 48  1  0  0  0
 42 43  1  0  0  0
 42 66  1  0  0  0
 42113  1  0  0  0
 42114  1  0  0  0
 43 44  1  0  0  0
 44115  1  0  0  0
 45 46  2  0  0  0
 45116  1  0  0  0
 46117  1  0  0  0
 47118  1  0  0  0
 47119  1  0  0  0
 48 56  1  0  0  0
 48 65  1  0  0  0
 48120  1  0  0  0
 49 50  1  0  0  0
 49 53  1  0  0  0
 49 64  1  0  0  0
 49121  1  0  0  0
 50 51  1  0  0  0
 50122  1  0  0  0
 50123  1  0  0  0
 51 52  1  0  0  0
 51124  1  0  0  0
 51125  1  0  0  0
 52126  1  0  0  0
 52127  1  0  0  0
 53 54  1  0  0  0
 54 55  2  0  0  0
 54128  1  0  0  0
 55 57  1  0  0  0
 55129  1  0  0  0
 56 69  2  0  0  0
 57 58  2  0  0  0
 57130  1  0  0  0
 58131  1  0  0  0
 59 60  1  0  0  0
 59 61  1  0  0  0
 59 62  1  0  0  0
 60132  1  0  0  0
 60133  1  0  0  0
 60134  1  0  0  0
 61135  1  0  0  0
 61136  1  0  0  0
 61137  1  0  0  0
 62138  1  0  0  0
 62139  1  0  0  0
 62140  1  0  0  0
 63 65  1  0  0  0
 63141  1  0  0  0
 63142  1  0  0  0
 63143  1  0  0  0
 64144  1  0  0  0
 65145  1  0  0  0
 68 82  1  0  0  0
 71 73  2  0  0  0
 71 75  1  0  0  0
 71 85  1  0  0  0
 72 74  1  0  0  0
 72 76  1  0  0  0
 72 84  2  0  0  0
 73 80  1  0  0  0
 73 84  1  0  0  0
 74 82  1  0  0  0
 74 85  2  0  0  0
 75146  1  0  0  0
 75147  1  0  0  0
 75148  1  0  0  0
 76149  1  0  0  0
 76150  1  0  0  0
 76151  1  0  0  0
 77152  1  0  0  0
 77153  1  0  0  0
 77154  1  0  0  0
 77 82  1  0  0  0
 78155  1  0  0  0
 78156  1  0  0  0
 78157  1  0  0  0
 78 83  1  0  0  0
 79 83  1  0  0  0
 79158  1  0  0  0
 79159  1  0  0  0
 79160  1  0  0  0
 80 83  1  0  0  0
 80161  1  0  0  0
 80162  1  0  0  0
 81 83  1  0  0  0
 81 86  1  0  0  0
 81163  1  0  0  0
 81164  1  0  0  0
 82165  1  0  0  0
 86166  1  0  0  0
M  ISO  4   1 100  68 101  82 101  86 100
M  END
> <chiral flag>
0

> <version>
0

> <s_m_source_file>
/data/baiqing/PycharmProjects/Reinvent-master-3.2/result/LINK_invent/BTK/process_docking_weight1_custom_sum_contain_oxygen_bond_distance_aromatic_linkinvent_7_9_3/rearranged_h_0069.sdf

> <i_m_source_file_index>
6

> <r_mmod_Potential_Energy-OPLS-2005>
110.057792663574

> <r_mmod_Stretch_Energy-OPLS-2005>
93.606330871582

> <r_mmod_Bend_Energy-OPLS-2005>
151.953002929688

> <r_mmod_Torsional_Energy-OPLS-2005>
248.185852050781

> <r_mmod_Improper_Torsional_Energy-OPLS-2005>
8.66816520690918

> <r_mmod_Van_der_Waal_Energy-OPLS-2005>
137.519805908203

> <r_mmod_Electrostatic_Energy-OPLS-2005>
-362.156799316406

> <r_mmod_Solvation_Energy-OPLS-2005>
-215.995849609375

> <b_mmod_Minimization_Converged-OPLS-2005>
0

> <r_mmod_RMS_Derivative-OPLS-2005>
4.786048412323

$$$$
6
                    3D
 Structure written by MMmdl.
157165  0  0  1  0            999 V2000
  -30.6692  -14.8285   20.4942 C   0  0  0  0  0  0
  -30.4238  -12.5190   19.5142 C   0  0  0  0  0  0
  -29.5135  -12.5127   18.2680 C   0  0  0  0  0  0
  -28.0487  -12.3002   18.6859 C   0  0  0  0  0  0
  -27.6343  -13.2304   19.8531 C   0  0  2  0  0  0
  -28.6795  -13.2510   20.9997 C   0  0  0  0  0  0
  -25.2285  -13.8054   20.5555 C   0  0  0  0  0  0
  -24.1686  -13.0292   20.9220 C   0  0  0  0  0  0
  -24.6375  -11.6827   20.8818 C   0  0  0  0  0  0
  -23.9077  -10.4218   21.0444 C   0  0  0  0  0  0
  -24.3633   -9.4140   21.9215 C   0  0  0  0  0  0
  -23.6281   -8.2202   22.0787 C   0  0  0  0  0  0
  -22.4266   -8.0269   21.3559 C   0  0  0  0  0  0
  -21.9909   -9.0238   20.4654 C   0  0  0  0  0  0
  -22.7260  -10.2096   20.3071 C   0  0  0  0  0  0
  -21.6846   -6.0737   22.5275 C   0  0  0  0  0  0
  -21.4020   -6.5640   23.8211 C   0  0  0  0  0  0
  -21.3659   -5.6791   24.9168 C   0  0  0  0  0  0
  -21.6044   -4.3057   24.7221 C   0  0  0  0  0  0
  -21.8834   -3.8155   23.4345 C   0  0  0  0  0  0
  -21.9195   -4.6968   22.3399 C   0  0  0  0  0  0
  -22.7717  -13.5077   21.1865 C   0  0  0  0  0  0
  -22.1667   -4.2162   21.0975 F   0  0  0  0  0  0
  -21.5629   -3.4539   25.7734 F   0  0  0  0  0  0
  -29.9839  -13.6177   20.4268 N   0  0  0  0  0  0
  -26.2864  -12.9368   20.3320 N   0  0  0  0  0  0
  -25.9325  -11.6508   20.5895 N   0  0  0  0  0  0
  -22.0394  -12.8094   22.0456 N   0  0  0  0  0  0
  -25.3436  -15.1742   20.3645 N   0  0  0  0  0  0
  -31.8023  -14.8556   20.0002 O   0  0  0  0  0  0
  -21.6625   -6.8880   21.4242 O   0  0  0  0  0  0
  -22.3406  -14.5399   20.6730 O   0  0  0  0  0  0
  -24.6302  -31.8525   23.1920 C   0  0  0  0  0  0
  -25.9134  -32.4728   23.8273 C   0  0  1  0  0  0
  -27.2350  -27.2420   20.1369 C   0  0  0  0  0  0
  -25.5949  -33.8532   24.2216 N   0  0  0  0  0  0
  -23.4300  -30.4680   21.5346 C   0  0  2  0  0  0
  -24.8826  -28.9065   20.1035 C   0  0  0  0  0  0
  -22.7501  -29.4575   22.4882 C   0  0  0  0  0  0
  -18.0305  -28.1400   22.8479 C   0  0  0  0  0  0
  -24.1509  -36.7268   23.2635 C   0  0  0  0  0  0
  -25.9727  -30.7573   21.3759 C   0  0  0  0  0  0
  -26.0477  -29.3759   20.7207 C   0  0  0  0  0  0
  -27.2180  -28.5522   20.7320 C   0  0  0  0  0  0
  -26.0513  -26.8411   19.4824 C   0  0  0  0  0  0
  -24.8908  -27.6489   19.4733 C   0  0  0  0  0  0
  -23.6515  -29.7943   20.1520 C   0  0  0  0  0  0
  -25.4136  -36.3039   24.0312 C   0  0  1  0  0  0
  -20.5899  -28.3719   23.1268 C   0  0  2  0  0  0
  -20.6799  -26.9438   22.5420 C   0  0  0  0  0  0
  -19.5779  -26.6392   21.5223 C   0  0  0  0  0  0
  -18.1950  -26.7940   22.1617 C   0  0  0  0  0  0
  -19.1551  -28.8876   23.2868 C   0  0  0  0  0  0
  -18.9469  -30.1471   23.8891 C   0  0  0  0  0  0
  -17.6467  -30.6590   24.0571 C   0  0  0  0  0  0
  -25.9074  -34.9416   23.5060 C   0  0  0  0  0  0
  -16.5365  -29.9092   23.6321 C   0  0  0  0  0  0
  -16.7291  -28.6518   23.0329 C   0  0  0  0  0  0
  -26.4517  -31.6540   25.0656 C   0  0  0  0  0  0
  -25.3739  -31.3678   26.1369 C   0  0  0  0  0  0
  -27.0376  -30.2953   24.6146 C   0  0  0  0  0  0
  -27.6069  -32.4278   25.7439 C   0  0  0  0  0  0
  -27.5586  -37.1778   24.8460 C   0  0  0  0  0  0
  -21.4206  -29.3040   22.3624 N   0  0  0  0  0  0
  -26.4302  -37.3753   23.9403 N   0  0  0  0  0  0
  -24.6962  -31.0460   22.0900 N   0  0  0  0  0  0
  -23.4188  -28.8153   23.3022 O   0  0  0  0  0  0
  -28.3477  -26.3707   20.2568 O   0  0  0  0  0  0
  -26.5647  -34.8906   22.4629 O   0  0  0  0  0  0
  -23.5454  -32.1364   23.7198 O   0  0  0  0  0  0
  -30.5161  -19.6300   18.4532 C   0  0  0  0  0  0
  -30.0598  -20.8943   18.8810 C   0  0  0  0  0  0
  -29.4341  -20.9713   20.1347 C   0  0  0  0  0  0
  -29.7476  -18.5727   20.3424 C   0  0  0  0  0  0
  -28.0394  -16.7104   20.2541 C   0  0  0  0  0  0
  -31.2491  -16.3984   22.2178 C   0  0  0  0  0  0
  -29.1439  -22.4295   20.7529 C   0  0  0  0  0  0
  -28.1038  -23.5345   20.1390 C   0  0  0  0  0  0
  -28.5149  -25.0236   19.5938 C   0  0  0  0  0  0
  -29.3075  -17.1578   20.9560 C   0  0  2  0  0  0
  -30.3694  -18.4946   19.1739 N   0  0  0  0  0  0
  -29.2727  -19.7714   20.8399 N   0  0  0  0  0  0
  -30.2489  -15.9495   21.2351 N   0  0  0  0  0  0
  -30.2639  -22.0028   18.1267 F   0  0  0  0  0  0
  -31.4672  -12.6143   19.2088 H   0  0  0  0  0  0
  -30.3678  -11.5608   20.0325 H   0  0  0  0  0  0
  -29.8253  -11.7238   17.5821 H   0  0  0  0  0  0
  -29.6133  -13.4537   17.7256 H   0  0  0  0  0  0
  -27.9377  -11.2591   18.9926 H   0  0  0  0  0  0
  -27.3830  -12.4382   17.8327 H   0  0  0  0  0  0
  -27.5974  -14.2176   19.4030 H   0  0  0  0  0  0
  -28.7352  -12.2752   21.4853 H   0  0  0  0  0  0
  -28.3940  -13.9579   21.7786 H   0  0  0  0  0  0
  -25.2790   -9.5592   22.4778 H   0  0  0  0  0  0
  -23.9983   -7.4582   22.7503 H   0  0  0  0  0  0
  -21.0854   -8.8757   19.8942 H   0  0  0  0  0  0
  -22.3739  -10.9644   19.6183 H   0  0  0  0  0  0
  -21.2023   -7.6149   23.9715 H   0  0  0  0  0  0
  -21.1464   -6.0519   25.9068 H   0  0  0  0  0  0
  -22.0614   -2.7621   23.2828 H   0  0  0  0  0  0
  -22.4007  -11.9732   22.4798 H   0  0  0  0  0  0
  -21.1055  -13.1169   22.2761 H   0  0  0  0  0  0
  -24.5385  -15.7861   20.4446 H   0  0  0  0  0  0
  -26.1628  -15.6400   19.9979 H   0  0  0  0  0  0
  -26.7191  -32.5380   23.1002 H   0  0  0  0  0  0
  -25.0109  -33.9684   25.0369 H   0  0  0  0  0  0
  -22.7275  -31.2887   21.3821 H   0  0  0  0  0  0
  -23.3772  -35.9593   23.3272 H   0  0  0  0  0  0
  -24.3598  -36.8931   22.2056 H   0  0  0  0  0  0
  -23.7263  -37.6455   23.6691 H   0  0  0  0  0  0
  -26.1139  -31.5173   20.6058 H   0  0  0  0  0  0
  -26.8473  -30.8070   22.0122 H   0  0  0  0  0  0
  -28.1054  -28.9043   21.2386 H   0  0  0  0  0  0
  -25.9991  -25.8744   19.0044 H   0  0  0  0  0  0
  -23.9983  -27.2840   18.9843 H   0  0  0  0  0  0
  -23.7766  -30.5686   19.3945 H   0  0  0  0  0  0
  -22.7693  -29.2286   19.8464 H   0  0  0  0  0  0
  -25.1318  -36.1863   25.0803 H   0  0  0  0  0  0
  -21.0000  -28.3318   24.1385 H   0  0  0  0  0  0
  -20.5721  -26.2339   23.3630 H   0  0  0  0  0  0
  -21.6661  -26.7483   22.1194 H   0  0  0  0  0  0
  -19.6950  -25.6298   21.1259 H   0  0  0  0  0  0
  -19.6702  -27.3196   20.6749 H   0  0  0  0  0  0
  -17.4221  -26.6690   21.4016 H   0  0  0  0  0  0
  -18.0341  -26.0088   22.9023 H   0  0  0  0  0  0
  -19.7947  -30.7294   24.2243 H   0  0  0  0  0  0
  -17.5025  -31.6261   24.5187 H   0  0  0  0  0  0
  -15.5361  -30.2995   23.7648 H   0  0  0  0  0  0
  -15.8699  -28.0854   22.7016 H   0  0  0  0  0  0
  -24.5939  -30.7016   25.7664 H   0  0  0  0  0  0
  -24.8913  -32.2850   26.4750 H   0  0  0  0  0  0
  -25.8051  -30.8865   27.0155 H   0  0  0  0  0  0
  -26.2947  -29.6661   24.1231 H   0  0  0  0  0  0
  -27.4138  -29.7243   25.4643 H   0  0  0  0  0  0
  -27.8790  -30.4222   23.9328 H   0  0  0  0  0  0
  -27.2684  -33.3598   26.1972 H   0  0  0  0  0  0
  -28.3901  -32.6798   25.0274 H   0  0  0  0  0  0
  -28.0709  -31.8426   26.5390 H   0  0  0  0  0  0
  -28.2565  -38.0113   24.7530 H   0  0  0  0  0  0
  -28.1123  -36.2635   24.6252 H   0  0  0  0  0  0
  -27.2305  -37.1379   25.8866 H   0  0  0  0  0  0
  -20.9393  -29.8731   21.6796 H   0  0  0  0  0  0
  -26.0163  -38.2815   24.1409 H   0  0  0  0  0  0
  -31.0243  -19.5290   17.5055 H   0  0  0  0  0  0
  -28.2241  -16.4183   19.2201 H   0  0  0  0  0  0
  -27.2843  -17.4974   20.2581 H   0  0  0  0  0  0
  -27.6437  -15.8789   20.8222 H   0  0  0  0  0  0
  -31.8358  -15.5725   22.6265 H   0  0  0  0  0  0
  -30.7888  -16.8946   23.0743 H   0  0  0  0  0  0
  -31.9461  -17.1000   21.7558 H   0  0  0  0  0  0
  -30.1173  -22.9147   20.8238 H   0  0  0  0  0  0
  -28.8557  -22.2636   21.7916 H   0  0  0  0  0  0
  -27.2868  -23.6637   20.8480 H   0  0  0  0  0  0
  -27.6218  -23.0331   19.2990 H   0  0  0  0  0  0
  -28.0845  -25.1259   18.5966 H   0  0  0  0  0  0
  -29.5834  -24.9635   19.3866 H   0  0  0  0  0  0
  -28.9567  -17.4359   21.9507 H   0  0  0  0  0  0
  1 25  1  0  0  0
  1 30  2  0  0  0
  1 83  1  0  0  0
  2  3  1  0  0  0
  2 25  1  0  0  0
  2 85  1  0  0  0
  2 86  1  0  0  0
  3  4  1  0  0  0
  3 87  1  0  0  0
  3 88  1  0  0  0
  4  5  1  0  0  0
  4 89  1  0  0  0
  4 90  1  0  0  0
  5  6  1  0  0  0
  5 26  1  0  0  0
  5 91  1  0  0  0
  6 25  1  0  0  0
  6 92  1  0  0  0
  6 93  1  0  0  0
  7  8  2  0  0  0
  7 26  1  0  0  0
  7 29  1  0  0  0
  8  9  1  0  0  0
  8 22  1  0  0  0
  9 10  1  0  0  0
  9 27  2  0  0  0
 10 11  2  0  0  0
 10 15  1  0  0  0
 11 12  1  0  0  0
 11 94  1  0  0  0
 12 13  2  0  0  0
 12 95  1  0  0  0
 13 14  1  0  0  0
 13 31  1  0  0  0
 14 15  2  0  0  0
 14 96  1  0  0  0
 15 97  1  0  0  0
 16 17  2  0  0  0
 16 21  1  0  0  0
 16 31  1  0  0  0
 17 18  1  0  0  0
 17 98  1  0  0  0
 18 19  2  0  0  0
 18 99  1  0  0  0
 19 20  1  0  0  0
 19 24  1  0  0  0
 20 21  2  0  0  0
 20100  1  0  0  0
 21 23  1  0  0  0
 22 28  1  0  0  0
 22 32  2  0  0  0
 26 27  1  0  0  0
 28101  1  0  0  0
 28102  1  0  0  0
 29103  1  0  0  0
 29104  1  0  0  0
 33 34  1  0  0  0
 33 66  1  0  0  0
 33 70  2  0  0  0
 34 36  1  0  0  0
 34 59  1  0  0  0
 34105  1  0  0  0
 35 44  2  0  0  0
 35 45  1  0  0  0
 35 68  1  0  0  0
 36 56  1  0  0  0
 36106  1  0  0  0
 37 39  1  0  0  0
 37 47  1  0  0  0
 37 66  1  0  0  0
 37107  1  0  0  0
 38 43  2  0  0  0
 38 46  1  0  0  0
 38 47  1  0  0  0
 39 64  1  0  0  0
 39 67  2  0  0  0
 40 52  1  0  0  0
 40 53  2  0  0  0
 40 58  1  0  0  0
 41108  1  0  0  0
 41109  1  0  0  0
 41110  1  0  0  0
 41 48  1  0  0  0
 42 43  1  0  0  0
 42 66  1  0  0  0
 42111  1  0  0  0
 42112  1  0  0  0
 43 44  1  0  0  0
 44113  1  0  0  0
 45 46  2  0  0  0
 45114  1  0  0  0
 46115  1  0  0  0
 47116  1  0  0  0
 47117  1  0  0  0
 48 56  1  0  0  0
 48 65  1  0  0  0
 48118  1  0  0  0
 49 50  1  0  0  0
 49 53  1  0  0  0
 49 64  1  0  0  0
 49119  1  0  0  0
 50 51  1  0  0  0
 50120  1  0  0  0
 50121  1  0  0  0
 51 52  1  0  0  0
 51122  1  0  0  0
 51123  1  0  0  0
 52124  1  0  0  0
 52125  1  0  0  0
 53 54  1  0  0  0
 54 55  2  0  0  0
 54126  1  0  0  0
 55 57  1  0  0  0
 55127  1  0  0  0
 56 69  2  0  0  0
 57 58  2  0  0  0
 57128  1  0  0  0
 58129  1  0  0  0
 59 60  1  0  0  0
 59 61  1  0  0  0
 59 62  1  0  0  0
 60130  1  0  0  0
 60131  1  0  0  0
 60132  1  0  0  0
 61133  1  0  0  0
 61134  1  0  0  0
 61135  1  0  0  0
 62136  1  0  0  0
 62137  1  0  0  0
 62138  1  0  0  0
 63 65  1  0  0  0
 63139  1  0  0  0
 63140  1  0  0  0
 63141  1  0  0  0
 64142  1  0  0  0
 65143  1  0  0  0
 68 79  1  0  0  0
 71 72  2  0  0  0
 71 81  1  0  0  0
 71144  1  0  0  0
 72 73  1  0  0  0
 72 84  1  0  0  0
 73 77  1  0  0  0
 73 82  2  0  0  0
 74 80  1  0  0  0
 74 81  2  0  0  0
 74 82  1  0  0  0
 75145  1  0  0  0
 75146  1  0  0  0
 75147  1  0  0  0
 75 80  1  0  0  0
 76 83  1  0  0  0
 76148  1  0  0  0
 76149  1  0  0  0
 76150  1  0  0  0
 77 78  1  0  0  0
 77151  1  0  0  0
 77152  1  0  0  0
 78 79  1  0  0  0
 78153  1  0  0  0
 78154  1  0  0  0
 79155  1  0  0  0
 79156  1  0  0  0
 80 83  1  0  0  0
 80157  1  0  0  0
M  ISO  4   1 100  68 101  79 101  83 100
M  END
> <chiral flag>
0

> <version>
0

> <s_m_source_file>
/data/baiqing/PycharmProjects/Reinvent-master-3.2/result/LINK_invent/BTK/process_docking_weight1_custom_sum_contain_oxygen_bond_distance_aromatic_linkinvent_7_9_3/rearranged_h_0069.sdf

> <i_m_source_file_index>
7

> <r_mmod_Potential_Energy-OPLS-2005>
39.3235969543457

> <r_mmod_Stretch_Energy-OPLS-2005>
157.705276489258

> <r_mmod_Bend_Energy-OPLS-2005>
272.714477539062

> <r_mmod_Torsional_Energy-OPLS-2005>
264.769836425781

> <r_mmod_Improper_Torsional_Energy-OPLS-2005>
9.14521408081055

> <r_mmod_Van_der_Waal_Energy-OPLS-2005>
147.488998413086

> <r_mmod_Electrostatic_Energy-OPLS-2005>
-712.295654296875

> <r_mmod_Solvation_Energy-OPLS-2005>
-213.596618652344

> <b_mmod_Minimization_Converged-OPLS-2005>
0

> <r_mmod_RMS_Derivative-OPLS-2005>
2.0820198059082

$$$$
7
                    3D
 Structure written by MMmdl.
167175  0  0  1  0            999 V2000
  -30.6748  -14.6160   20.6359 C   0  0  0  0  0  0
  -30.4370  -12.4233   19.4447 C   0  0  0  0  0  0
  -29.5050  -12.5530   18.2185 C   0  0  0  0  0  0
  -28.0259  -12.3806   18.6195 C   0  0  0  0  0  0
  -27.6579  -13.2156   19.8731 C   0  0  2  0  0  0
  -28.7010  -12.9914   20.9850 C   0  0  0  0  0  0
  -25.2559  -13.8167   20.5665 C   0  0  0  0  0  0
  -24.1827  -13.0430   20.9187 C   0  0  0  0  0  0
  -24.6401  -11.6906   20.8738 C   0  0  0  0  0  0
  -23.9073  -10.4293   21.0399 C   0  0  0  0  0  0
  -24.3627   -9.4210   21.9177 C   0  0  0  0  0  0
  -23.6297   -8.2246   22.0757 C   0  0  0  0  0  0
  -22.4274   -8.0288   21.3549 C   0  0  0  0  0  0
  -21.9914   -9.0259   20.4644 C   0  0  0  0  0  0
  -22.7248  -10.2136   20.3048 C   0  0  0  0  0  0
  -21.6856   -6.0748   22.5286 C   0  0  0  0  0  0
  -21.4016   -6.5649   23.8224 C   0  0  0  0  0  0
  -21.3656   -5.6798   24.9185 C   0  0  0  0  0  0
  -21.6037   -4.3058   24.7231 C   0  0  0  0  0  0
  -21.8819   -3.8156   23.4351 C   0  0  0  0  0  0
  -21.9194   -4.6975   22.3409 C   0  0  0  0  0  0
  -22.7851  -13.5228   21.1842 C   0  0  0  0  0  0
  -22.1658   -4.2162   21.0984 F   0  0  0  0  0  0
  -21.5625   -3.4536   25.7739 F   0  0  0  0  0  0
  -30.0127  -13.4136   20.4683 N   0  0  0  0  0  0
  -26.3004  -12.9350   20.3345 N   0  0  0  0  0  0
  -25.9328  -11.6503   20.5742 N   0  0  0  0  0  0
  -22.0488  -12.8223   22.0398 N   0  0  0  0  0  0
  -25.4244  -15.1882   20.4025 N   0  0  0  0  0  0
  -31.7343  -14.7873   20.0201 O   0  0  0  0  0  0
  -21.6640   -6.8881   21.4242 O   0  0  0  0  0  0
  -22.3534  -14.5523   20.6679 O   0  0  0  0  0  0
  -24.6245  -31.8614   23.2024 C   0  0  0  0  0  0
  -25.9102  -32.4791   23.8352 C   0  0  1  0  0  0
  -27.2277  -27.3309   20.1183 C   0  0  0  0  0  0
  -25.5920  -33.8592   24.2282 N   0  0  0  0  0  0
  -23.4179  -30.4826   21.5460 C   0  0  2  0  0  0
  -24.8653  -28.9362   20.1139 C   0  0  0  0  0  0
  -22.7468  -29.4619   22.4952 C   0  0  0  0  0  0
  -18.0286  -28.1379   22.8486 C   0  0  0  0  0  0
  -24.1491  -36.7296   23.2637 C   0  0  0  0  0  0
  -25.9573  -30.7938   21.3726 C   0  0  0  0  0  0
  -26.0330  -29.4216   20.7162 C   0  0  0  0  0  0
  -27.2185  -28.6309   20.7074 C   0  0  0  0  0  0
  -26.0423  -26.8977   19.4858 C   0  0  0  0  0  0
  -24.8711  -27.6789   19.4890 C   0  0  0  0  0  0
  -23.6323  -29.8147   20.1624 C   0  0  0  0  0  0
  -25.4115  -36.3092   24.0328 C   0  0  1  0  0  0
  -20.5881  -28.3688   23.1287 C   0  0  2  0  0  0
  -20.6777  -26.9415   22.5412 C   0  0  0  0  0  0
  -19.5757  -26.6388   21.5209 C   0  0  0  0  0  0
  -18.1935  -26.7926   22.1619 C   0  0  0  0  0  0
  -19.1535  -28.8849   23.2883 C   0  0  0  0  0  0
  -18.9463  -30.1449   23.8906 C   0  0  0  0  0  0
  -17.6465  -30.6591   24.0557 C   0  0  0  0  0  0
  -25.9047  -34.9461   23.5103 C   0  0  0  0  0  0
  -16.5355  -29.9088   23.6328 C   0  0  0  0  0  0
  -16.7271  -28.6499   23.0355 C   0  0  0  0  0  0
  -26.4484  -31.6596   25.0718 C   0  0  0  0  0  0
  -25.3713  -31.3726   26.1441 C   0  0  0  0  0  0
  -27.0329  -30.3025   24.6161 C   0  0  0  0  0  0
  -27.6045  -32.4328   25.7486 C   0  0  0  0  0  0
  -27.5587  -37.1799   24.8459 C   0  0  0  0  0  0
  -21.4184  -29.3040   22.3686 N   0  0  0  0  0  0
  -26.4296  -37.3783   23.9406 N   0  0  0  0  0  0
  -24.6855  -31.0622   22.0977 N   0  0  0  0  0  0
  -23.4200  -28.8162   23.3029 O   0  0  0  0  0  0
  -28.3591  -26.5068   20.1318 O   0  0  0  0  0  0
  -26.5627  -34.8929   22.4678 O   0  0  0  0  0  0
  -23.5408  -32.1415   23.7352 O   0  0  0  0  0  0
  -28.8520  -17.9373   20.8047 C   0  0  0  0  0  0
  -31.1877  -18.1742   20.8851 C   0  0  0  0  0  0
  -30.0970  -17.2972   20.9819 C   0  0  0  0  0  0
  -29.8128  -20.0584   20.7237 C   0  0  0  0  0  0
  -29.3928  -21.1987   23.5914 C   0  0  0  0  0  0
  -29.0051  -24.3765   18.1448 C   0  0  0  0  0  0
  -31.0667  -22.2456   21.2233 C   0  0  0  0  0  0
  -28.8426  -21.8495   22.3078 C   0  0  0  0  0  0
  -28.9577  -22.4622   19.8386 C   0  0  0  0  0  0
  -28.1917  -25.0647   20.4265 C   0  0  0  0  0  0
  -30.2608  -15.8422   21.5738 C   0  0  1  0  0  0
  -29.1354  -24.0578   19.6452 C   0  0  2  0  0  0
  -29.6601  -21.6267   21.0016 C   0  0  2  0  0  0
  -29.3316  -15.6367   22.7943 C   0  0  0  0  0  0
  -28.7202  -19.2888   20.6740 N   0  0  0  0  0  0
  -31.0382  -19.5180   20.7638 N   0  0  0  0  0  0
  -29.6611  -14.5448   23.4850 F   0  0  0  0  0  0
  -29.4778  -16.6783   23.6163 F   0  0  0  0  0  0
  -28.0468  -15.5885   22.4447 F   0  0  0  0  0  0
  -31.4756  -12.5524   19.1355 H   0  0  0  0  0  0
  -30.3906  -11.4116   19.8512 H   0  0  0  0  0  0
  -29.7748  -11.8189   17.4585 H   0  0  0  0  0  0
  -29.6464  -13.5335   17.7603 H   0  0  0  0  0  0
  -27.8528  -11.3221   18.8162 H   0  0  0  0  0  0
  -27.3752  -12.6445   17.7851 H   0  0  0  0  0  0
  -27.6982  -14.2658   19.5858 H   0  0  0  0  0  0
  -28.7312  -11.9312   21.2414 H   0  0  0  0  0  0
  -28.3948  -13.4537   21.9074 H   0  0  0  0  0  0
  -25.2781   -9.5685   22.4743 H   0  0  0  0  0  0
  -24.0015   -7.4639   22.7480 H   0  0  0  0  0  0
  -21.0850   -8.8776   19.8944 H   0  0  0  0  0  0
  -22.3715  -10.9672   19.6152 H   0  0  0  0  0  0
  -21.2004   -7.6158   23.9727 H   0  0  0  0  0  0
  -21.1474   -6.0532   25.9090 H   0  0  0  0  0  0
  -22.0596   -2.7619   23.2851 H   0  0  0  0  0  0
  -22.4114  -11.9911   22.4822 H   0  0  0  0  0  0
  -21.1094  -13.1241   22.2560 H   0  0  0  0  0  0
  -24.6574  -15.8425   20.5115 H   0  0  0  0  0  0
  -26.2763  -15.6239   20.0772 H   0  0  0  0  0  0
  -26.7174  -32.5471   23.1106 H   0  0  0  0  0  0
  -25.0051  -33.9733   25.0418 H   0  0  0  0  0  0
  -22.7102  -31.3021   21.4024 H   0  0  0  0  0  0
  -23.3765  -35.9617   23.3286 H   0  0  0  0  0  0
  -24.3582  -36.8924   22.2051 H   0  0  0  0  0  0
  -23.7229  -37.6487   23.6671 H   0  0  0  0  0  0
  -26.0861  -31.5570   20.6043 H   0  0  0  0  0  0
  -26.8378  -30.8444   22.0013 H   0  0  0  0  0  0
  -28.1181  -29.0010   21.1796 H   0  0  0  0  0  0
  -26.0102  -25.9468   18.9753 H   0  0  0  0  0  0
  -23.9794  -27.3043   19.0045 H   0  0  0  0  0  0
  -23.7490  -30.5899   19.4038 H   0  0  0  0  0  0
  -22.7539  -29.2401   19.8634 H   0  0  0  0  0  0
  -25.1295  -36.1942   25.0820 H   0  0  0  0  0  0
  -20.9966  -28.3266   24.1410 H   0  0  0  0  0  0
  -20.5684  -26.2297   23.3609 H   0  0  0  0  0  0
  -21.6646  -26.7458   22.1202 H   0  0  0  0  0  0
  -19.6924  -25.6299   21.1244 H   0  0  0  0  0  0
  -19.6694  -27.3194   20.6733 H   0  0  0  0  0  0
  -17.4205  -26.6671   21.4021 H   0  0  0  0  0  0
  -18.0330  -26.0068   22.9012 H   0  0  0  0  0  0
  -19.7938  -30.7251   24.2290 H   0  0  0  0  0  0
  -17.5026  -31.6271   24.5158 H   0  0  0  0  0  0
  -15.5357  -30.2995   23.7649 H   0  0  0  0  0  0
  -15.8666  -28.0820   22.7072 H   0  0  0  0  0  0
  -24.5901  -30.7063   25.7765 H   0  0  0  0  0  0
  -24.8887  -32.2886   26.4860 H   0  0  0  0  0  0
  -25.8034  -30.8914   27.0225 H   0  0  0  0  0  0
  -26.2902  -29.6775   24.1192 H   0  0  0  0  0  0
  -27.4038  -29.7277   25.4658 H   0  0  0  0  0  0
  -27.8765  -30.4314   23.9376 H   0  0  0  0  0  0
  -27.2665  -33.3635   26.2062 H   0  0  0  0  0  0
  -28.3859  -32.6878   25.0314 H   0  0  0  0  0  0
  -28.0720  -31.8457   26.5401 H   0  0  0  0  0  0
  -28.2589  -38.0114   24.7547 H   0  0  0  0  0  0
  -28.1101  -36.2649   24.6247 H   0  0  0  0  0  0
  -27.2310  -37.1390   25.8862 H   0  0  0  0  0  0
  -20.9365  -29.8757   21.6889 H   0  0  0  0  0  0
  -26.0182  -38.2854   24.1430 H   0  0  0  0  0  0
  -27.9266  -17.3860   20.8680 H   0  0  0  0  0  0
  -32.1991  -17.8235   21.0332 H   0  0  0  0  0  0
  -28.7240  -21.3873   24.4313 H   0  0  0  0  0  0
  -30.3677  -21.5995   23.8659 H   0  0  0  0  0  0
  -29.4889  -20.1183   23.4889 H   0  0  0  0  0  0
  -29.7234  -23.8102   17.5517 H   0  0  0  0  0  0
  -29.1944  -25.4318   17.9432 H   0  0  0  0  0  0
  -28.0065  -24.1434   17.7734 H   0  0  0  0  0  0
  -31.6429  -21.7015   21.9710 H   0  0  0  0  0  0
  -31.0135  -23.2721   21.5823 H   0  0  0  0  0  0
  -31.6498  -22.2366   20.3021 H   0  0  0  0  0  0
  -28.7318  -22.9168   22.4922 H   0  0  0  0  0  0
  -27.8300  -21.4744   22.1506 H   0  0  0  0  0  0
  -29.3500  -22.0052   18.9297 H   0  0  0  0  0  0
  -27.8965  -22.2124   19.8136 H   0  0  0  0  0  0
  -28.3839  -24.9563   21.4932 H   0  0  0  0  0  0
  -27.1643  -24.7279   20.3009 H   0  0  0  0  0  0
  -31.2131  -15.9454   22.0964 H   0  0  0  0  0  0
  -30.1581  -24.3308   19.8949 H   0  0  0  0  0  0
  1 25  1  0  0  0
  1 30  2  0  0  0
  1 81  1  0  0  0
  2  3  1  0  0  0
  2 25  1  0  0  0
  2 90  1  0  0  0
  2 91  1  0  0  0
  3  4  1  0  0  0
  3 92  1  0  0  0
  3 93  1  0  0  0
  4  5  1  0  0  0
  4 94  1  0  0  0
  4 95  1  0  0  0
  5  6  1  0  0  0
  5 26  1  0  0  0
  5 96  1  0  0  0
  6 25  1  0  0  0
  6 97  1  0  0  0
  6 98  1  0  0  0
  7  8  2  0  0  0
  7 26  1  0  0  0
  7 29  1  0  0  0
  8  9  1  0  0  0
  8 22  1  0  0  0
  9 10  1  0  0  0
  9 27  2  0  0  0
 10 11  2  0  0  0
 10 15  1  0  0  0
 11 12  1  0  0  0
 11 99  1  0  0  0
 12 13  2  0  0  0
 12100  1  0  0  0
 13 14  1  0  0  0
 13 31  1  0  0  0
 14 15  2  0  0  0
 14101  1  0  0  0
 15102  1  0  0  0
 16 17  2  0  0  0
 16 21  1  0  0  0
 16 31  1  0  0  0
 17 18  1  0  0  0
 17103  1  0  0  0
 18 19  2  0  0  0
 18104  1  0  0  0
 19 20  1  0  0  0
 19 24  1  0  0  0
 20 21  2  0  0  0
 20105  1  0  0  0
 21 23  1  0  0  0
 22 28  1  0  0  0
 22 32  2  0  0  0
 26 27  1  0  0  0
 28106  1  0  0  0
 28107  1  0  0  0
 29108  1  0  0  0
 29109  1  0  0  0
 33 34  1  0  0  0
 33 66  1  0  0  0
 33 70  2  0  0  0
 34 36  1  0  0  0
 34 59  1  0  0  0
 34110  1  0  0  0
 35 44  2  0  0  0
 35 45  1  0  0  0
 35 68  1  0  0  0
 36 56  1  0  0  0
 36111  1  0  0  0
 37 39  1  0  0  0
 37 47  1  0  0  0
 37 66  1  0  0  0
 37112  1  0  0  0
 38 43  2  0  0  0
 38 46  1  0  0  0
 38 47  1  0  0  0
 39 64  1  0  0  0
 39 67  2  0  0  0
 40 52  1  0  0  0
 40 53  2  0  0  0
 40 58  1  0  0  0
 41113  1  0  0  0
 41114  1  0  0  0
 41115  1  0  0  0
 41 48  1  0  0  0
 42 43  1  0  0  0
 42 66  1  0  0  0
 42116  1  0  0  0
 42117  1  0  0  0
 43 44  1  0  0  0
 44118  1  0  0  0
 45 46  2  0  0  0
 45119  1  0  0  0
 46120  1  0  0  0
 47121  1  0  0  0
 47122  1  0  0  0
 48 56  1  0  0  0
 48 65  1  0  0  0
 48123  1  0  0  0
 49 50  1  0  0  0
 49 53  1  0  0  0
 49 64  1  0  0  0
 49124  1  0  0  0
 50 51  1  0  0  0
 50125  1  0  0  0
 50126  1  0  0  0
 51 52  1  0  0  0
 51127  1  0  0  0
 51128  1  0  0  0
 52129  1  0  0  0
 52130  1  0  0  0
 53 54  1  0  0  0
 54 55  2  0  0  0
 54131  1  0  0  0
 55 57  1  0  0  0
 55132  1  0  0  0
 56 69  2  0  0  0
 57 58  2  0  0  0
 57133  1  0  0  0
 58134  1  0  0  0
 59 60  1  0  0  0
 59 61  1  0  0  0
 59 62  1  0  0  0
 60135  1  0  0  0
 60136  1  0  0  0
 60137  1  0  0  0
 61138  1  0  0  0
 61139  1  0  0  0
 61140  1  0  0  0
 62141  1  0  0  0
 62142  1  0  0  0
 62143  1  0  0  0
 63 65  1  0  0  0
 63144  1  0  0  0
 63145  1  0  0  0
 63146  1  0  0  0
 64147  1  0  0  0
 65148  1  0  0  0
 68 80  1  0  0  0
 71 73  2  0  0  0
 71 85  1  0  0  0
 71149  1  0  0  0
 72 73  1  0  0  0
 72 86  2  0  0  0
 72150  1  0  0  0
 73 81  1  0  0  0
 74 83  1  0  0  0
 74 85  2  0  0  0
 74 86  1  0  0  0
 75 78  1  0  0  0
 75151  1  0  0  0
 75152  1  0  0  0
 75153  1  0  0  0
 76154  1  0  0  0
 76155  1  0  0  0
 76156  1  0  0  0
 76 82  1  0  0  0
 77157  1  0  0  0
 77158  1  0  0  0
 77159  1  0  0  0
 77 83  1  0  0  0
 78 83  1  0  0  0
 78160  1  0  0  0
 78161  1  0  0  0
 79 82  1  0  0  0
 79 83  1  0  0  0
 79162  1  0  0  0
 79163  1  0  0  0
 80 82  1  0  0  0
 80164  1  0  0  0
 80165  1  0  0  0
 81 84  1  0  0  0
 81166  1  0  0  0
 82167  1  0  0  0
 84 87  1  0  0  0
 84 88  1  0  0  0
 84 89  1  0  0  0
M  ISO  4   1 100  68 101  80 101  81 100
M  END
> <chiral flag>
0

> <version>
0

> <s_m_source_file>
/data/baiqing/PycharmProjects/Reinvent-master-3.2/result/LINK_invent/BTK/process_docking_weight1_custom_sum_contain_oxygen_bond_distance_aromatic_linkinvent_7_9_3/rearranged_h_0069.sdf

> <i_m_source_file_index>
8

> <r_mmod_Potential_Energy-OPLS-2005>
-317.048217773438

> <r_mmod_Stretch_Energy-OPLS-2005>
93.5448989868164

> <r_mmod_Bend_Energy-OPLS-2005>
201.221771240234

> <r_mmod_Torsional_Energy-OPLS-2005>
207.928436279297

> <r_mmod_Improper_Torsional_Energy-OPLS-2005>
5.57332849502563

> <r_mmod_Van_der_Waal_Energy-OPLS-2005>
165.617645263672

> <r_mmod_Electrostatic_Energy-OPLS-2005>
-842.479248046875

> <r_mmod_Solvation_Energy-OPLS-2005>
-186.746017456055

> <b_mmod_Minimization_Converged-OPLS-2005>
0

> <r_mmod_RMS_Derivative-OPLS-2005>
1.30386126041412

$$$$
8
                    3D
 Structure written by MMmdl.
175183  0  0  1  0            999 V2000
  -30.7714  -14.3885   20.5615 C   0  0  0  0  0  0
  -30.3978  -12.2507   19.4176 C   0  0  0  0  0  0
  -29.4853  -12.4902   18.2000 C   0  0  0  0  0  0
  -28.0049  -12.3744   18.6082 C   0  0  0  0  0  0
  -27.6629  -13.2082   19.8742 C   0  0  2  0  0  0
  -28.7057  -12.9870   20.9949 C   0  0  0  0  0  0
  -25.2543  -13.8109   20.5577 C   0  0  0  0  0  0
  -24.1834  -13.0422   20.9191 C   0  0  0  0  0  0
  -24.6389  -11.6890   20.8734 C   0  0  0  0  0  0
  -23.9040  -10.4287   21.0401 C   0  0  0  0  0  0
  -24.3585   -9.4222   21.9201 C   0  0  0  0  0  0
  -23.6295   -8.2239   22.0760 C   0  0  0  0  0  0
  -22.4277   -8.0249   21.3532 C   0  0  0  0  0  0
  -21.9882   -9.0234   20.4644 C   0  0  0  0  0  0
  -22.7187  -10.2136   20.3070 C   0  0  0  0  0  0
  -21.6869   -6.0711   22.5283 C   0  0  0  0  0  0
  -21.4030   -6.5634   23.8212 C   0  0  0  0  0  0
  -21.3663   -5.6793   24.9185 C   0  0  0  0  0  0
  -21.6074   -4.3052   24.7251 C   0  0  0  0  0  0
  -21.8823   -3.8131   23.4366 C   0  0  0  0  0  0
  -21.9201   -4.6941   22.3418 C   0  0  0  0  0  0
  -22.7844  -13.5216   21.1837 C   0  0  0  0  0  0
  -22.1664   -4.2121   21.0994 F   0  0  0  0  0  0
  -21.5638   -3.4532   25.7764 F   0  0  0  0  0  0
  -30.0420  -13.2508   20.4333 N   0  0  0  0  0  0
  -26.3033  -12.9329   20.3365 N   0  0  0  0  0  0
  -25.9321  -11.6484   20.5789 N   0  0  0  0  0  0
  -22.0489  -12.8233   22.0416 N   0  0  0  0  0  0
  -25.4151  -15.1783   20.3742 N   0  0  0  0  0  0
  -31.8910  -14.5212   20.0632 O   0  0  0  0  0  0
  -21.6649   -6.8833   21.4233 O   0  0  0  0  0  0
  -22.3527  -14.5535   20.6673 O   0  0  0  0  0  0
  -24.6169  -31.8718   23.2096 C   0  0  0  0  0  0
  -25.9097  -32.4835   23.8375 C   0  0  1  0  0  0
  -27.2346  -27.4701   20.0754 C   0  0  0  0  0  0
  -25.5957  -33.8620   24.2331 N   0  0  0  0  0  0
  -23.3983  -30.4952   21.5513 C   0  0  2  0  0  0
  -24.8426  -28.9594   20.1219 C   0  0  0  0  0  0
  -22.7388  -29.4680   22.4997 C   0  0  0  0  0  0
  -18.0242  -28.1373   22.8486 C   0  0  0  0  0  0
  -24.1491  -36.7312   23.2627 C   0  0  0  0  0  0
  -25.9264  -30.8439   21.3598 C   0  0  0  0  0  0
  -26.0028  -29.4815   20.7059 C   0  0  0  0  0  0
  -27.2046  -28.7433   20.6793 C   0  0  0  0  0  0
  -26.0551  -26.9472   19.5045 C   0  0  0  0  0  0
  -24.8607  -27.6882   19.5233 C   0  0  0  0  0  0
  -23.6062  -29.8240   20.1687 C   0  0  0  0  0  0
  -25.4109  -36.3103   24.0333 C   0  0  1  0  0  0
  -20.5834  -28.3688   23.1320 C   0  0  2  0  0  0
  -20.6779  -26.9428   22.5415 C   0  0  0  0  0  0
  -19.5740  -26.6361   21.5269 C   0  0  0  0  0  0
  -18.1909  -26.7898   22.1661 C   0  0  0  0  0  0
  -19.1482  -28.8842   23.2899 C   0  0  0  0  0  0
  -18.9397  -30.1451   23.8892 C   0  0  0  0  0  0
  -17.6407  -30.6603   24.0505 C   0  0  0  0  0  0
  -25.9041  -34.9479   23.5133 C   0  0  0  0  0  0
  -16.5301  -29.9106   23.6248 C   0  0  0  0  0  0
  -16.7224  -28.6496   23.0320 C   0  0  0  0  0  0
  -26.4501  -31.6610   25.0705 C   0  0  0  0  0  0
  -25.3772  -31.3767   26.1473 C   0  0  0  0  0  0
  -27.0337  -30.3048   24.6085 C   0  0  0  0  0  0
  -27.6055  -32.4340   25.7496 C   0  0  0  0  0  0
  -27.5579  -37.1811   24.8452 C   0  0  0  0  0  0
  -21.4109  -29.3086   22.3772 N   0  0  0  0  0  0
  -26.4293  -37.3790   23.9407 N   0  0  0  0  0  0
  -24.6649  -31.0819   22.1010 N   0  0  0  0  0  0
  -23.4185  -28.8185   23.2987 O   0  0  0  0  0  0
  -28.4091  -26.7642   20.0280 O   0  0  0  0  0  0
  -26.5566  -34.8939   22.4663 O   0  0  0  0  0  0
  -23.5359  -32.1472   23.7504 O   0  0  0  0  0  0
  -28.5381  -20.7933   22.5844 C   0  0  0  0  0  0
  -28.0877  -19.6580   21.8556 C   0  0  0  0  0  0
  -27.2238  -22.1746   21.2917 C   0  0  0  0  0  0
  -26.7506  -21.0497   20.5670 C   0  0  0  0  0  0
  -24.3239  -21.1859   19.8081 C   0  0  0  0  0  0
  -27.5629  -17.2151   22.1880 C   0  0  0  0  0  0
  -29.4976  -18.1856   23.3496 C   0  0  0  0  0  0
  -28.9038  -17.5054   19.5017 C   0  0  0  0  0  0
  -30.5094  -19.1705   20.4020 C   0  0  0  0  0  0
  -26.8463  -23.6030   20.9532 C   0  0  0  0  0  0
  -25.8009  -21.1514   19.3841 C   0  0  0  0  0  0
  -27.9827  -24.3333   20.2011 C   0  0  0  0  0  0
  -30.7178  -16.7941   21.0778 C   0  0  0  0  0  0
  -28.4470  -25.6329   20.8921 C   0  0  0  0  0  0
  -28.7071  -18.2464   22.0136 C   0  0  0  0  0  0
  -29.6766  -17.9170   20.7858 C   0  0  0  0  0  0
  -28.0975  -22.0429   22.3168 N   0  0  0  0  0  0
  -27.1598  -19.7998   20.8738 N   0  0  0  0  0  0
  -30.1607  -15.4352   21.1230 N   0  0  0  0  0  0
  -31.4451  -12.2949   19.1204 H   0  0  0  0  0  0
  -30.2545  -11.2447   19.8194 H   0  0  0  0  0  0
  -29.7181  -11.7689   17.4154 H   0  0  0  0  0  0
  -29.6759  -13.4769   17.7755 H   0  0  0  0  0  0
  -27.8055  -11.3175   18.7947 H   0  0  0  0  0  0
  -27.3619  -12.6606   17.7732 H   0  0  0  0  0  0
  -27.7097  -14.2560   19.5796 H   0  0  0  0  0  0
  -28.6613  -11.9573   21.3515 H   0  0  0  0  0  0
  -28.4827  -13.6063   21.8650 H   0  0  0  0  0  0
  -25.2716   -9.5761   22.4762 H   0  0  0  0  0  0
  -24.0044   -7.4643   22.7472 H   0  0  0  0  0  0
  -21.0811   -8.8722   19.8933 H   0  0  0  0  0  0
  -22.3608  -10.9672   19.6173 H   0  0  0  0  0  0
  -21.2021   -7.6141   23.9711 H   0  0  0  0  0  0
  -21.1486   -6.0523   25.9096 H   0  0  0  0  0  0
  -22.0596   -2.7589   23.2891 H   0  0  0  0  0  0
  -22.4060  -11.9897   22.4849 H   0  0  0  0  0  0
  -21.1126  -13.1302   22.2603 H   0  0  0  0  0  0
  -24.6293  -15.8166   20.4314 H   0  0  0  0  0  0
  -26.2517  -15.6101   20.0061 H   0  0  0  0  0  0
  -26.7213  -32.5555   23.1177 H   0  0  0  0  0  0
  -25.0178  -33.9765   25.0526 H   0  0  0  0  0  0
  -22.6879  -31.3125   21.4102 H   0  0  0  0  0  0
  -23.3751  -35.9653   23.3293 H   0  0  0  0  0  0
  -24.3550  -36.8906   22.2031 H   0  0  0  0  0  0
  -23.7292  -37.6536   23.6636 H   0  0  0  0  0  0
  -26.0346  -31.6152   20.5943 H   0  0  0  0  0  0
  -26.8153  -30.8948   21.9754 H   0  0  0  0  0  0
  -28.1063  -29.1489   21.1178 H   0  0  0  0  0  0
  -26.0532  -25.9802   19.0260 H   0  0  0  0  0  0
  -23.9682  -27.2775   19.0719 H   0  0  0  0  0  0
  -23.7237  -30.5941   19.4059 H   0  0  0  0  0  0
  -22.7292  -29.2442   19.8704 H   0  0  0  0  0  0
  -25.1301  -36.1941   25.0830 H   0  0  0  0  0  0
  -20.9885  -28.3280   24.1453 H   0  0  0  0  0  0
  -20.5742  -26.2311   23.3612 H   0  0  0  0  0  0
  -21.6640  -26.7498   22.1162 H   0  0  0  0  0  0
  -19.6909  -25.6250   21.1352 H   0  0  0  0  0  0
  -19.6687  -27.3144   20.6778 H   0  0  0  0  0  0
  -17.4169  -26.6646   21.4077 H   0  0  0  0  0  0
  -18.0313  -26.0024   22.9051 H   0  0  0  0  0  0
  -19.7865  -30.7260   24.2342 H   0  0  0  0  0  0
  -17.4987  -31.6280   24.5108 H   0  0  0  0  0  0
  -15.5311  -30.3033   23.7592 H   0  0  0  0  0  0
  -15.8628  -28.0782   22.7057 H   0  0  0  0  0  0
  -24.5916  -30.7129   25.7843 H   0  0  0  0  0  0
  -24.9009  -32.2947   26.4910 H   0  0  0  0  0  0
  -25.8103  -30.8961   27.0252 H   0  0  0  0  0  0
  -26.2887  -29.6794   24.1142 H   0  0  0  0  0  0
  -27.4117  -29.7290   25.4544 H   0  0  0  0  0  0
  -27.8704  -30.4346   23.9219 H   0  0  0  0  0  0
  -27.2640  -33.3620   26.2110 H   0  0  0  0  0  0
  -28.3857  -32.6953   25.0332 H   0  0  0  0  0  0
  -28.0760  -31.8477   26.5402 H   0  0  0  0  0  0
  -28.2604  -38.0096   24.7491 H   0  0  0  0  0  0
  -28.1076  -36.2632   24.6307 H   0  0  0  0  0  0
  -27.2275  -37.1492   25.8845 H   0  0  0  0  0  0
  -20.9246  -29.8962   21.7150 H   0  0  0  0  0  0
  -26.0169  -38.2854   24.1442 H   0  0  0  0  0  0
  -29.2958  -20.7356   23.3518 H   0  0  0  0  0  0
  -23.6729  -21.2804   18.9393 H   0  0  0  0  0  0
  -24.1122  -22.0265   20.4698 H   0  0  0  0  0  0
  -24.0465  -20.2701   20.3305 H   0  0  0  0  0  0
  -26.9590  -17.4466   23.0651 H   0  0  0  0  0  0
  -27.9206  -16.1952   22.3186 H   0  0  0  0  0  0
  -26.8785  -17.2162   21.3431 H   0  0  0  0  0  0
  -28.8910  -18.5128   24.1930 H   0  0  0  0  0  0
  -30.3959  -18.8013   23.3313 H   0  0  0  0  0  0
  -29.8158  -17.1737   23.5903 H   0  0  0  0  0  0
  -29.5913  -17.2408   18.6964 H   0  0  0  0  0  0
  -28.2794  -18.3085   19.1167 H   0  0  0  0  0  0
  -28.2619  -16.6392   19.6496 H   0  0  0  0  0  0
  -31.2088  -18.9592   19.5916 H   0  0  0  0  0  0
  -31.0993  -19.5385   21.2421 H   0  0  0  0  0  0
  -29.8902  -19.9950   20.0465 H   0  0  0  0  0  0
  -26.5932  -24.0959   21.8913 H   0  0  0  0  0  0
  -25.9245  -23.6340   20.3745 H   0  0  0  0  0  0
  -25.9617  -20.2866   18.7366 H   0  0  0  0  0  0
  -26.0561  -22.0175   18.7743 H   0  0  0  0  0  0
  -27.6872  -24.5191   19.1694 H   0  0  0  0  0  0
  -28.8457  -23.6699   20.1131 H   0  0  0  0  0  0
  -31.2972  -16.9748   21.9823 H   0  0  0  0  0  0
  -31.4670  -16.8564   20.2842 H   0  0  0  0  0  0
  -29.4800  -25.5059   21.2209 H   0  0  0  0  0  0
  -27.8839  -25.8413   21.8039 H   0  0  0  0  0  0
  -29.2271  -15.3075   21.4783 H   0  0  0  0  0  0
  1 25  1  0  0  0
  1 30  2  0  0  0
  1 89  1  0  0  0
  2  3  1  0  0  0
  2 25  1  0  0  0
  2 90  1  0  0  0
  2 91  1  0  0  0
  3  4  1  0  0  0
  3 92  1  0  0  0
  3 93  1  0  0  0
  4  5  1  0  0  0
  4 94  1  0  0  0
  4 95  1  0  0  0
  5  6  1  0  0  0
  5 26  1  0  0  0
  5 96  1  0  0  0
  6 25  1  0  0  0
  6 97  1  0  0  0
  6 98  1  0  0  0
  7  8  2  0  0  0
  7 26  1  0  0  0
  7 29  1  0  0  0
  8  9  1  0  0  0
  8 22  1  0  0  0
  9 10  1  0  0  0
  9 27  2  0  0  0
 10 11  2  0  0  0
 10 15  1  0  0  0
 11 12  1  0  0  0
 11 99  1  0  0  0
 12 13  2  0  0  0
 12100  1  0  0  0
 13 14  1  0  0  0
 13 31  1  0  0  0
 14 15  2  0  0  0
 14101  1  0  0  0
 15102  1  0  0  0
 16 17  2  0  0  0
 16 21  1  0  0  0
 16 31  1  0  0  0
 17 18  1  0  0  0
 17103  1  0  0  0
 18 19  2  0  0  0
 18104  1  0  0  0
 19 20  1  0  0  0
 19 24  1  0  0  0
 20 21  2  0  0  0
 20105  1  0  0  0
 21 23  1  0  0  0
 22 28  1  0  0  0
 22 32  2  0  0  0
 26 27  1  0  0  0
 28106  1  0  0  0
 28107  1  0  0  0
 29108  1  0  0  0
 29109  1  0  0  0
 33 34  1  0  0  0
 33 66  1  0  0  0
 33 70  2  0  0  0
 34 36  1  0  0  0
 34 59  1  0  0  0
 34110  1  0  0  0
 35 44  2  0  0  0
 35 45  1  0  0  0
 35 68  1  0  0  0
 36 56  1  0  0  0
 36111  1  0  0  0
 37 39  1  0  0  0
 37 47  1  0  0  0
 37 66  1  0  0  0
 37112  1  0  0  0
 38 43  2  0  0  0
 38 46  1  0  0  0
 38 47  1  0  0  0
 39 64  1  0  0  0
 39 67  2  0  0  0
 40 52  1  0  0  0
 40 53  2  0  0  0
 40 58  1  0  0  0
 41113  1  0  0  0
 41114  1  0  0  0
 41115  1  0  0  0
 41 48  1  0  0  0
 42 43  1  0  0  0
 42 66  1  0  0  0
 42116  1  0  0  0
 42117  1  0  0  0
 43 44  1  0  0  0
 44118  1  0  0  0
 45 46  2  0  0  0
 45119  1  0  0  0
 46120  1  0  0  0
 47121  1  0  0  0
 47122  1  0  0  0
 48 56  1  0  0  0
 48 65  1  0  0  0
 48123  1  0  0  0
 49 50  1  0  0  0
 49 53  1  0  0  0
 49 64  1  0  0  0
 49124  1  0  0  0
 50 51  1  0  0  0
 50125  1  0  0  0
 50126  1  0  0  0
 51 52  1  0  0  0
 51127  1  0  0  0
 51128  1  0  0  0
 52129  1  0  0  0
 52130  1  0  0  0
 53 54  1  0  0  0
 54 55  2  0  0  0
 54131  1  0  0  0
 55 57  1  0  0  0
 55132  1  0  0  0
 56 69  2  0  0  0
 57 58  2  0  0  0
 57133  1  0  0  0
 58134  1  0  0  0
 59 60  1  0  0  0
 59 61  1  0  0  0
 59 62  1  0  0  0
 60135  1  0  0  0
 60136  1  0  0  0
 60137  1  0  0  0
 61138  1  0  0  0
 61139  1  0  0  0
 61140  1  0  0  0
 62141  1  0  0  0
 62142  1  0  0  0
 62143  1  0  0  0
 63 65  1  0  0  0
 63144  1  0  0  0
 63145  1  0  0  0
 63146  1  0  0  0
 64147  1  0  0  0
 65148  1  0  0  0
 68 84  1  0  0  0
 71 72  2  0  0  0
 71 87  1  0  0  0
 71149  1  0  0  0
 72 85  1  0  0  0
 72 88  1  0  0  0
 73 74  1  0  0  0
 73 80  1  0  0  0
 73 87  2  0  0  0
 74 81  1  0  0  0
 74 88  2  0  0  0
 75 81  1  0  0  0
 75150  1  0  0  0
 75151  1  0  0  0
 75152  1  0  0  0
 76153  1  0  0  0
 76154  1  0  0  0
 76155  1  0  0  0
 76 85  1  0  0  0
 77 85  1  0  0  0
 77156  1  0  0  0
 77157  1  0  0  0
 77158  1  0  0  0
 78159  1  0  0  0
 78160  1  0  0  0
 78161  1  0  0  0
 78 86  1  0  0  0
 79 86  1  0  0  0
 79162  1  0  0  0
 79163  1  0  0  0
 79164  1  0  0  0
 80 82  1  0  0  0
 80165  1  0  0  0
 80166  1  0  0  0
 81167  1  0  0  0
 81168  1  0  0  0
 82 84  1  0  0  0
 82169  1  0  0  0
 82170  1  0  0  0
 83 86  1  0  0  0
 83 89  1  0  0  0
 83171  1  0  0  0
 83172  1  0  0  0
 84173  1  0  0  0
 84174  1  0  0  0
 85 86  1  0  0  0
 89175  1  0  0  0
M  ISO  4   1 100  68 101  84 101  89 100
M  END
> <chiral flag>
0

> <version>
0

> <s_m_source_file>
/data/baiqing/PycharmProjects/Reinvent-master-3.2/result/LINK_invent/BTK/process_docking_weight1_custom_sum_contain_oxygen_bond_distance_aromatic_linkinvent_7_9_3/rearranged_h_0069.sdf

> <i_m_source_file_index>
9

> <r_mmod_Potential_Energy-OPLS-2005>
29.8287715911865

> <r_mmod_Stretch_Energy-OPLS-2005>
44.8297309875488

> <r_mmod_Bend_Energy-OPLS-2005>
114.069618225098

> <r_mmod_Torsional_Energy-OPLS-2005>
247.470153808594

> <r_mmod_Improper_Torsional_Energy-OPLS-2005>
4.37179136276245

> <r_mmod_Van_der_Waal_Energy-OPLS-2005>
180.727462768555

> <r_mmod_Electrostatic_Energy-OPLS-2005>
-376.520050048828

> <r_mmod_Solvation_Energy-OPLS-2005>
-197.180404663086

> <b_mmod_Minimization_Converged-OPLS-2005>
0

> <r_mmod_RMS_Derivative-OPLS-2005>
4.47162199020386

$$$$
9
                    3D
 Structure written by MMmdl.
179187  0  0  1  0            999 V2000
  -30.7326  -14.6601   20.1585 C   0  0  0  0  0  0
  -30.4413  -12.3482   19.3750 C   0  0  0  0  0  0
  -29.4586  -12.1775   18.1947 C   0  0  0  0  0  0
  -27.9760  -12.2275   18.6186 C   0  0  0  0  0  0
  -27.6333  -13.1939   19.7827 C   0  0  2  0  0  0
  -28.7337  -13.2062   20.8649 C   0  0  0  0  0  0
  -25.2470  -13.8038   20.5728 C   0  0  0  0  0  0
  -24.1781  -13.0343   20.9223 C   0  0  0  0  0  0
  -24.6398  -11.6851   20.8828 C   0  0  0  0  0  0
  -23.9091  -10.4253   21.0437 C   0  0  0  0  0  0
  -24.3631   -9.4155   21.9188 C   0  0  0  0  0  0
  -23.6277   -8.2241   22.0773 C   0  0  0  0  0  0
  -22.4258   -8.0283   21.3549 C   0  0  0  0  0  0
  -21.9921   -9.0268   20.4646 C   0  0  0  0  0  0
  -22.7298  -10.2129   20.3053 C   0  0  0  0  0  0
  -21.6888   -6.0723   22.5273 C   0  0  0  0  0  0
  -21.4042   -6.5636   23.8202 C   0  0  0  0  0  0
  -21.3648   -5.6777   24.9161 C   0  0  0  0  0  0
  -21.6005   -4.3029   24.7218 C   0  0  0  0  0  0
  -21.8844   -3.8146   23.4350 C   0  0  0  0  0  0
  -21.9218   -4.6954   22.3405 C   0  0  0  0  0  0
  -22.7804  -13.5151   21.1818 C   0  0  0  0  0  0
  -22.1699   -4.2135   21.0983 F   0  0  0  0  0  0
  -21.5589   -3.4525   25.7751 F   0  0  0  0  0  0
  -30.0075  -13.4912   20.1869 N   0  0  0  0  0  0
  -26.2982  -12.9300   20.3250 N   0  0  0  0  0  0
  -25.9358  -11.6484   20.5967 N   0  0  0  0  0  0
  -22.0470  -12.8134   22.0338 N   0  0  0  0  0  0
  -25.3866  -15.1741   20.4215 N   0  0  0  0  0  0
  -31.9163  -14.5904   20.4755 O   0  0  0  0  0  0
  -21.6614   -6.8878   21.4244 O   0  0  0  0  0  0
  -22.3484  -14.5479   20.6680 O   0  0  0  0  0  0
  -24.6081  -31.8675   23.2146 C   0  0  0  0  0  0
  -25.8985  -32.4836   23.8435 C   0  0  1  0  0  0
  -27.2462  -27.4543   20.1147 C   0  0  0  0  0  0
  -25.5847  -33.8631   24.2385 N   0  0  0  0  0  0
  -23.3993  -30.4897   21.5526 C   0  0  2  0  0  0
  -24.8560  -28.9566   20.1215 C   0  0  0  0  0  0
  -22.7386  -29.4647   22.5019 C   0  0  0  0  0  0
  -18.0227  -28.1361   22.8478 C   0  0  0  0  0  0
  -24.1480  -36.7298   23.2641 C   0  0  0  0  0  0
  -25.9239  -30.8442   21.3616 C   0  0  0  0  0  0
  -26.0137  -29.4775   20.7131 C   0  0  0  0  0  0
  -27.2155  -28.7355   20.7064 C   0  0  0  0  0  0
  -26.0779  -26.9385   19.5221 C   0  0  0  0  0  0
  -24.8777  -27.6830   19.5243 C   0  0  0  0  0  0
  -23.6137  -29.8184   20.1669 C   0  0  0  0  0  0
  -25.4100  -36.3132   24.0365 C   0  0  1  0  0  0
  -20.5828  -28.3639   23.1319 C   0  0  2  0  0  0
  -20.6733  -26.9386   22.5426 C   0  0  0  0  0  0
  -19.5732  -26.6377   21.5205 C   0  0  0  0  0  0
  -18.1896  -26.7908   22.1614 C   0  0  0  0  0  0
  -19.1493  -28.8820   23.2871 C   0  0  0  0  0  0
  -18.9444  -30.1420   23.8908 C   0  0  0  0  0  0
  -17.6461  -30.6583   24.0567 C   0  0  0  0  0  0
  -25.9015  -34.9485   23.5189 C   0  0  0  0  0  0
  -16.5336  -29.9108   23.6341 C   0  0  0  0  0  0
  -16.7226  -28.6513   23.0375 C   0  0  0  0  0  0
  -26.4493  -31.6597   25.0720 C   0  0  0  0  0  0
  -25.3773  -31.3621   26.1467 C   0  0  0  0  0  0
  -27.0372  -30.3086   24.6013 C   0  0  0  0  0  0
  -27.6083  -32.4305   25.7455 C   0  0  0  0  0  0
  -27.5599  -37.1783   24.8458 C   0  0  0  0  0  0
  -21.4131  -29.3016   22.3739 N   0  0  0  0  0  0
  -26.4285  -37.3823   23.9442 N   0  0  0  0  0  0
  -24.6631  -31.0781   22.1042 N   0  0  0  0  0  0
  -23.4157  -28.8130   23.3028 O   0  0  0  0  0  0
  -28.4210  -26.7415   20.0827 O   0  0  0  0  0  0
  -26.5586  -34.8940   22.4752 O   0  0  0  0  0  0
  -23.5294  -32.1439   23.7563 O   0  0  0  0  0  0
  -30.3345  -20.3631   21.9801 C   0  0  0  0  0  0
  -29.8286  -20.5515   20.6860 C   0  0  0  0  0  0
  -30.6846  -19.0432   22.3395 C   0  0  0  0  0  0
  -30.0099  -18.2779   20.2857 C   0  0  0  0  0  0
  -30.2765  -17.5013   24.2688 C   0  0  0  0  0  0
  -31.1531  -19.7884   24.7335 C   0  0  0  0  0  0
  -32.6404  -18.0965   23.6094 C   0  0  0  0  0  0
  -28.6638  -17.6145   18.2539 C   0  0  0  0  0  0
  -28.2090  -16.6398   20.4451 C   0  0  0  0  0  0
  -31.7822  -16.6018   18.8115 C   0  0  0  0  0  0
  -30.1060  -15.2857   17.7437 C   0  0  0  0  0  0
  -29.3542  -21.8811   20.0869 C   0  0  0  0  0  0
  -29.3048  -23.1380   20.9824 C   0  0  0  0  0  0
  -28.8004  -24.3508   20.1558 C   0  0  0  0  0  0
  -28.5000  -25.6191   20.9665 C   0  0  0  0  0  0
  -31.1921  -18.6220   23.7227 C   0  0  0  0  0  0
  -29.3765  -17.0669   19.5498 C   0  0  0  0  0  0
  -30.4214  -15.8850   19.1407 C   0  0  0  0  0  0
  -29.6789  -19.4995   19.8677 N   0  0  0  0  0  0
  -30.5352  -18.0257   21.4730 N   0  0  0  0  0  0
  -31.4463  -12.4925   18.9719 H   0  0  0  0  0  0
  -30.4816  -11.4391   19.9808 H   0  0  0  0  0  0
  -29.6435  -11.2006   17.7436 H   0  0  0  0  0  0
  -29.6431  -12.8383   17.3615 H   0  0  0  0  0  0
  -27.7026  -11.2076   18.8907 H   0  0  0  0  0  0
  -27.3595  -12.4671   17.7515 H   0  0  0  0  0  0
  -27.5992  -14.1648   19.3053 H   0  0  0  0  0  0
  -28.7809  -12.2410   21.3724 H   0  0  0  0  0  0
  -28.5238  -13.9491   21.6324 H   0  0  0  0  0  0
  -25.2833   -9.5571   22.4696 H   0  0  0  0  0  0
  -23.9959   -7.4612   22.7496 H   0  0  0  0  0  0
  -21.0887   -8.8834   19.8910 H   0  0  0  0  0  0
  -22.3858  -10.9653   19.6096 H   0  0  0  0  0  0
  -21.2081   -7.6147   23.9707 H   0  0  0  0  0  0
  -21.1417   -6.0500   25.9040 H   0  0  0  0  0  0
  -22.0642   -2.7606   23.2876 H   0  0  0  0  0  0
  -22.4243  -11.9830   22.4637 H   0  0  0  0  0  0
  -21.1103  -13.1108   22.2628 H   0  0  0  0  0  0
  -24.6302  -15.8375   20.5338 H   0  0  0  0  0  0
  -26.2667  -15.6200   20.2116 H   0  0  0  0  0  0
  -26.7002  -32.5630   23.1172 H   0  0  0  0  0  0
  -25.0084  -33.9777   25.0590 H   0  0  0  0  0  0
  -22.6883  -31.3040   21.4105 H   0  0  0  0  0  0
  -23.3801  -35.9572   23.3269 H   0  0  0  0  0  0
  -24.3587  -36.8964   22.2064 H   0  0  0  0  0  0
  -23.7162  -37.6460   23.6681 H   0  0  0  0  0  0
  -26.0102  -31.6089   20.5865 H   0  0  0  0  0  0
  -26.8159  -30.9149   21.9719 H   0  0  0  0  0  0
  -28.1167  -29.1357   21.1526 H   0  0  0  0  0  0
  -26.0976  -25.9655   19.0542 H   0  0  0  0  0  0
  -23.9846  -27.2722   19.0723 H   0  0  0  0  0  0
  -23.7121  -30.5932   19.4056 H   0  0  0  0  0  0
  -22.7423  -29.2305   19.8753 H   0  0  0  0  0  0
  -25.1262  -36.2036   25.0862 H   0  0  0  0  0  0
  -20.9869  -28.3197   24.1458 H   0  0  0  0  0  0
  -20.5661  -26.2241   23.3602 H   0  0  0  0  0  0
  -21.6606  -26.7441   22.1237 H   0  0  0  0  0  0
  -19.6936  -25.6289   21.1241 H   0  0  0  0  0  0
  -19.6708  -27.3188   20.6736 H   0  0  0  0  0  0
  -17.4186  -26.6624   21.4002 H   0  0  0  0  0  0
  -18.0285  -26.0038   22.9004 H   0  0  0  0  0  0
  -19.7927  -30.7175   24.2358 H   0  0  0  0  0  0
  -17.5046  -31.6296   24.5108 H   0  0  0  0  0  0
  -15.5361  -30.3042   23.7677 H   0  0  0  0  0  0
  -15.8598  -28.0845   22.7145 H   0  0  0  0  0  0
  -24.5958  -30.6961   25.7789 H   0  0  0  0  0  0
  -24.8914  -32.2724   26.4987 H   0  0  0  0  0  0
  -25.8137  -30.8749   27.0192 H   0  0  0  0  0  0
  -26.2911  -29.6735   24.1223 H   0  0  0  0  0  0
  -27.4412  -29.7407   25.4403 H   0  0  0  0  0  0
  -27.8600  -30.4494   23.8993 H   0  0  0  0  0  0
  -27.2767  -33.3637   26.2032 H   0  0  0  0  0  0
  -28.3897  -32.6813   25.0259 H   0  0  0  0  0  0
  -28.0751  -31.8414   26.5374 H   0  0  0  0  0  0
  -28.2554  -38.0140   24.7670 H   0  0  0  0  0  0
  -28.1167  -36.2700   24.6123 H   0  0  0  0  0  0
  -27.2311  -37.1211   25.8842 H   0  0  0  0  0  0
  -20.9283  -29.8779   21.6992 H   0  0  0  0  0  0
  -26.0207  -38.2895   24.1550 H   0  0  0  0  0  0
  -30.4212  -21.1911   22.6658 H   0  0  0  0  0  0
  -29.2323  -17.8186   24.2632 H   0  0  0  0  0  0
  -30.5408  -17.2157   25.2876 H   0  0  0  0  0  0
  -30.3394  -16.5973   23.6591 H   0  0  0  0  0  0
  -30.1325  -20.1466   24.8747 H   0  0  0  0  0  0
  -31.7634  -20.6332   24.4112 H   0  0  0  0  0  0
  -31.5265  -19.4692   25.7076 H   0  0  0  0  0  0
  -32.7015  -17.2183   22.9631 H   0  0  0  0  0  0
  -33.0361  -17.8015   24.5818 H   0  0  0  0  0  0
  -33.3090  -18.8498   23.1895 H   0  0  0  0  0  0
  -27.9165  -18.3784   18.4824 H   0  0  0  0  0  0
  -28.1101  -16.8619   17.6981 H   0  0  0  0  0  0
  -29.3751  -18.0810   17.5697 H   0  0  0  0  0  0
  -27.6844  -17.5066   20.8572 H   0  0  0  0  0  0
  -28.5147  -16.0384   21.2961 H   0  0  0  0  0  0
  -27.4971  -16.1189   19.8389 H   0  0  0  0  0  0
  -31.6472  -17.4591   18.1478 H   0  0  0  0  0  0
  -32.4806  -15.9386   18.2983 H   0  0  0  0  0  0
  -32.2907  -16.9735   19.7034 H   0  0  0  0  0  0
  -30.2059  -16.0102   16.9350 H   0  0  0  0  0  0
  -29.0981  -14.8834   17.6876 H   0  0  0  0  0  0
  -30.8305  -14.5128   17.4841 H   0  0  0  0  0  0
  -28.3406  -21.7110   19.7196 H   0  0  0  0  0  0
  -29.9746  -22.0882   19.2119 H   0  0  0  0  0  0
  -30.2935  -23.3534   21.3962 H   0  0  0  0  0  0
  -28.6467  -22.9551   21.8308 H   0  0  0  0  0  0
  -27.8916  -24.0809   19.6129 H   0  0  0  0  0  0
  -29.5476  -24.5828   19.3964 H   0  0  0  0  0  0
  -29.3112  -25.7966   21.6750 H   0  0  0  0  0  0
  -27.5897  -25.4835   21.5559 H   0  0  0  0  0  0
  1 25  1  0  0  0
  1 30  2  0  0  0
  1 88  1  0  0  0
  2  3  1  0  0  0
  2 25  1  0  0  0
  2 91  1  0  0  0
  2 92  1  0  0  0
  3  4  1  0  0  0
  3 93  1  0  0  0
  3 94  1  0  0  0
  4  5  1  0  0  0
  4 95  1  0  0  0
  4 96  1  0  0  0
  5  6  1  0  0  0
  5 26  1  0  0  0
  5 97  1  0  0  0
  6 25  1  0  0  0
  6 98  1  0  0  0
  6 99  1  0  0  0
  7  8  2  0  0  0
  7 26  1  0  0  0
  7 29  1  0  0  0
  8  9  1  0  0  0
  8 22  1  0  0  0
  9 10  1  0  0  0
  9 27  2  0  0  0
 10 11  2  0  0  0
 10 15  1  0  0  0
 11 12  1  0  0  0
 11100  1  0  0  0
 12 13  2  0  0  0
 12101  1  0  0  0
 13 14  1  0  0  0
 13 31  1  0  0  0
 14 15  2  0  0  0
 14102  1  0  0  0
 15103  1  0  0  0
 16 17  2  0  0  0
 16 21  1  0  0  0
 16 31  1  0  0  0
 17 18  1  0  0  0
 17104  1  0  0  0
 18 19  2  0  0  0
 18105  1  0  0  0
 19 20  1  0  0  0
 19 24  1  0  0  0
 20 21  2  0  0  0
 20106  1  0  0  0
 21 23  1  0  0  0
 22 28  1  0  0  0
 22 32  2  0  0  0
 26 27  1  0  0  0
 28107  1  0  0  0
 28108  1  0  0  0
 29109  1  0  0  0
 29110  1  0  0  0
 33 34  1  0  0  0
 33 66  1  0  0  0
 33 70  2  0  0  0
 34 36  1  0  0  0
 34 59  1  0  0  0
 34111  1  0  0  0
 35 44  2  0  0  0
 35 45  1  0  0  0
 35 68  1  0  0  0
 36 56  1  0  0  0
 36112  1  0  0  0
 37 39  1  0  0  0
 37 47  1  0  0  0
 37 66  1  0  0  0
 37113  1  0  0  0
 38 43  2  0  0  0
 38 46  1  0  0  0
 38 47  1  0  0  0
 39 64  1  0  0  0
 39 67  2  0  0  0
 40 52  1  0  0  0
 40 53  2  0  0  0
 40 58  1  0  0  0
 41114  1  0  0  0
 41115  1  0  0  0
 41116  1  0  0  0
 41 48  1  0  0  0
 42 43  1  0  0  0
 42 66  1  0  0  0
 42117  1  0  0  0
 42118  1  0  0  0
 43 44  1  0  0  0
 44119  1  0  0  0
 45 46  2  0  0  0
 45120  1  0  0  0
 46121  1  0  0  0
 47122  1  0  0  0
 47123  1  0  0  0
 48 56  1  0  0  0
 48 65  1  0  0  0
 48124  1  0  0  0
 49 50  1  0  0  0
 49 53  1  0  0  0
 49 64  1  0  0  0
 49125  1  0  0  0
 50 51  1  0  0  0
 50126  1  0  0  0
 50127  1  0  0  0
 51 52  1  0  0  0
 51128  1  0  0  0
 51129  1  0  0  0
 52130  1  0  0  0
 52131  1  0  0  0
 53 54  1  0  0  0
 54 55  2  0  0  0
 54132  1  0  0  0
 55 57  1  0  0  0
 55133  1  0  0  0
 56 69  2  0  0  0
 57 58  2  0  0  0
 57134  1  0  0  0
 58135  1  0  0  0
 59 60  1  0  0  0
 59 61  1  0  0  0
 59 62  1  0  0  0
 60136  1  0  0  0
 60137  1  0  0  0
 60138  1  0  0  0
 61139  1  0  0  0
 61140  1  0  0  0
 61141  1  0  0  0
 62142  1  0  0  0
 62143  1  0  0  0
 62144  1  0  0  0
 63 65  1  0  0  0
 63145  1  0  0  0
 63146  1  0  0  0
 63147  1  0  0  0
 64148  1  0  0  0
 65149  1  0  0  0
 68 85  1  0  0  0
 71 72  2  0  0  0
 71 73  1  0  0  0
 71150  1  0  0  0
 72 82  1  0  0  0
 72 89  1  0  0  0
 73 86  1  0  0  0
 73 90  2  0  0  0
 74 87  1  0  0  0
 74 89  2  0  0  0
 74 90  1  0  0  0
 75151  1  0  0  0
 75152  1  0  0  0
 75153  1  0  0  0
 75 86  1  0  0  0
 76 86  1  0  0  0
 76154  1  0  0  0
 76155  1  0  0  0
 76156  1  0  0  0
 77 86  1  0  0  0
 77157  1  0  0  0
 77158  1  0  0  0
 77159  1  0  0  0
 78160  1  0  0  0
 78161  1  0  0  0
 78162  1  0  0  0
 78 87  1  0  0  0
 79 87  1  0  0  0
 79163  1  0  0  0
 79164  1  0  0  0
 79165  1  0  0  0
 80166  1  0  0  0
 80167  1  0  0  0
 80168  1  0  0  0
 80 88  1  0  0  0
 81 88  1  0  0  0
 81169  1  0  0  0
 81170  1  0  0  0
 81171  1  0  0  0
 82 83  1  0  0  0
 82172  1  0  0  0
 82173  1  0  0  0
 83 84  1  0  0  0
 83174  1  0  0  0
 83175  1  0  0  0
 84 85  1  0  0  0
 84176  1  0  0  0
 84177  1  0  0  0
 85178  1  0  0  0
 85179  1  0  0  0
 87 88  1  0  0  0
M  ISO  4   1 100  68 101  85 101  88 100
M  END
> <chiral flag>
0

> <version>
0

> <s_m_source_file>
/data/baiqing/PycharmProjects/Reinvent-master-3.2/result/LINK_invent/BTK/process_docking_weight1_custom_sum_contain_oxygen_bond_distance_aromatic_linkinvent_7_9_3/rearranged_h_0069.sdf

> <i_m_source_file_index>
10

> <r_mmod_Potential_Energy-OPLS-2005>
-156.267791748047

> <r_mmod_Stretch_Energy-OPLS-2005>
69.121467590332

> <r_mmod_Bend_Energy-OPLS-2005>
170.630172729492

> <r_mmod_Torsional_Energy-OPLS-2005>
275.553344726562

> <r_mmod_Improper_Torsional_Energy-OPLS-2005>
25.6925659179688

> <r_mmod_Van_der_Waal_Energy-OPLS-2005>
212.077484130859

> <r_mmod_Electrostatic_Energy-OPLS-2005>
-825.671081542969

> <r_mmod_Solvation_Energy-OPLS-2005>
-187.235855102539

> <b_mmod_Minimization_Converged-OPLS-2005>
0

> <r_mmod_RMS_Derivative-OPLS-2005>
6.33309650421143

$$$$
10
                    3D
 Structure written by MMmdl.
169177  0  0  1  0            999 V2000
  -30.6374  -14.6936   20.5030 C   0  0  0  0  0  0
  -30.4284  -12.4222   19.4692 C   0  0  0  0  0  0
  -29.5083  -12.5103   18.2268 C   0  0  0  0  0  0
  -28.0393  -12.3380   18.6404 C   0  0  0  0  0  0
  -27.6498  -13.2179   19.8544 C   0  0  2  0  0  0
  -28.6899  -13.1267   20.9940 C   0  0  0  0  0  0
  -25.2599  -13.8164   20.5670 C   0  0  0  0  0  0
  -24.1832  -13.0417   20.9170 C   0  0  0  0  0  0
  -24.6416  -11.6893   20.8712 C   0  0  0  0  0  0
  -23.9060  -10.4300   21.0430 C   0  0  0  0  0  0
  -24.3626   -9.4267   21.9223 C   0  0  0  0  0  0
  -23.6285   -8.2316   22.0797 C   0  0  0  0  0  0
  -22.4295   -8.0285   21.3572 C   0  0  0  0  0  0
  -21.9940   -9.0246   20.4639 C   0  0  0  0  0  0
  -22.7271  -10.2127   20.3075 C   0  0  0  0  0  0
  -21.6844   -6.0747   22.5306 C   0  0  0  0  0  0
  -21.4025   -6.5648   23.8238 C   0  0  0  0  0  0
  -21.3679   -5.6809   24.9210 C   0  0  0  0  0  0
  -21.6038   -4.3067   24.7264 C   0  0  0  0  0  0
  -21.8806   -3.8165   23.4381 C   0  0  0  0  0  0
  -21.9203   -4.6977   22.3441 C   0  0  0  0  0  0
  -22.7909  -13.5235   21.1817 C   0  0  0  0  0  0
  -22.1685   -4.2193   21.1020 F   0  0  0  0  0  0
  -21.5626   -3.4538   25.7777 F   0  0  0  0  0  0
  -30.0042  -13.4705   20.4324 N   0  0  0  0  0  0
  -26.2965  -12.9315   20.3267 N   0  0  0  0  0  0
  -25.9333  -11.6450   20.5673 N   0  0  0  0  0  0
  -22.0547  -12.8198   22.0342 N   0  0  0  0  0  0
  -25.4305  -15.1884   20.4135 N   0  0  0  0  0  0
  -31.7935  -14.8173   20.0858 O   0  0  0  0  0  0
  -21.6639   -6.8888   21.4264 O   0  0  0  0  0  0
  -22.3619  -14.5546   20.6706 O   0  0  0  0  0  0
  -24.6312  -31.8558   23.1980 C   0  0  0  0  0  0
  -25.9152  -32.4763   23.8321 C   0  0  1  0  0  0
  -27.2064  -27.2634   20.0865 C   0  0  0  0  0  0
  -25.5925  -33.8554   24.2223 N   0  0  0  0  0  0
  -23.4259  -30.4817   21.5441 C   0  0  2  0  0  0
  -24.8675  -28.9343   20.1128 C   0  0  0  0  0  0
  -22.7509  -29.4604   22.4920 C   0  0  0  0  0  0
  -18.0284  -28.1393   22.8491 C   0  0  0  0  0  0
  -24.1507  -36.7294   23.2626 C   0  0  0  0  0  0
  -25.9749  -30.7669   21.3824 C   0  0  0  0  0  0
  -26.0435  -29.3902   20.7205 C   0  0  0  0  0  0
  -27.2133  -28.5620   20.7081 C   0  0  0  0  0  0
  -26.0028  -26.8959   19.4441 C   0  0  0  0  0  0
  -24.8511  -27.6953   19.4680 C   0  0  0  0  0  0
  -23.6442  -29.8227   20.1589 C   0  0  0  0  0  0
  -25.4145  -36.3074   24.0310 C   0  0  1  0  0  0
  -20.5904  -28.3685   23.1282 C   0  0  2  0  0  0
  -20.6777  -26.9397   22.5407 C   0  0  0  0  0  0
  -19.5751  -26.6383   21.5224 C   0  0  0  0  0  0
  -18.1932  -26.7930   22.1636 C   0  0  0  0  0  0
  -19.1541  -28.8860   23.2892 C   0  0  0  0  0  0
  -18.9458  -30.1463   23.8912 C   0  0  0  0  0  0
  -17.6458  -30.6584   24.0568 C   0  0  0  0  0  0
  -25.9087  -34.9449   23.5070 C   0  0  0  0  0  0
  -16.5354  -29.9088   23.6313 C   0  0  0  0  0  0
  -16.7279  -28.6508   23.0339 C   0  0  0  0  0  0
  -26.4474  -31.6563   25.0700 C   0  0  0  0  0  0
  -25.3648  -31.3705   26.1369 C   0  0  0  0  0  0
  -27.0245  -30.2957   24.6164 C   0  0  0  0  0  0
  -27.6012  -32.4259   25.7515 C   0  0  0  0  0  0
  -27.5610  -37.1800   24.8457 C   0  0  0  0  0  0
  -21.4218  -29.3042   22.3685 N   0  0  0  0  0  0
  -26.4298  -37.3772   23.9398 N   0  0  0  0  0  0
  -24.6971  -31.0532   22.0976 N   0  0  0  0  0  0
  -23.4221  -28.8105   23.2989 O   0  0  0  0  0  0
  -28.3031  -26.3605   20.1209 O   0  0  0  0  0  0
  -26.5656  -34.8911   22.4656 O   0  0  0  0  0  0
  -23.5472  -32.1390   23.7289 O   0  0  0  0  0  0
  -29.6766  -24.0563   21.5654 C   0  0  0  0  0  0
  -30.2405  -22.9766   22.2566 C   0  0  0  0  0  0
  -28.8613  -23.7655   20.4674 C   0  0  0  0  0  0
  -29.2920  -21.4205   20.8341 C   0  0  0  0  0  0
  -29.0394  -19.8032   18.8503 C   0  0  0  0  0  0
  -28.2858  -26.0884   17.2316 C   0  0  0  0  0  0
  -28.1256  -23.6234   17.3406 C   0  0  0  0  0  0
  -31.4467  -18.9424   21.2148 C   0  0  0  0  0  0
  -29.3971  -18.2921   22.5201 C   0  0  0  0  0  0
  -29.9052  -17.2034   20.2273 C   0  0  0  0  0  0
  -28.1749  -24.9340   19.6195 C   0  0  2  0  0  0
  -29.0659  -19.8748   20.4136 C   0  0  1  0  0  0
  -28.6362  -24.8695   18.1100 C   0  0  0  0  0  0
  -29.9267  -18.5998   21.0803 C   0  0  0  0  0  0
  -30.0391  -21.6889   21.9007 N   0  0  0  0  0  0
  -28.6556  -22.4281   20.1674 N   0  0  0  0  0  0
  -29.8796  -15.8015   20.8348 N   0  0  0  0  0  0
  -31.4738  -12.5350   19.1842 H   0  0  0  0  0  0
  -30.3359  -11.4331   19.9191 H   0  0  0  0  0  0
  -29.7696  -11.7413   17.4969 H   0  0  0  0  0  0
  -29.6460  -13.4664   17.7231 H   0  0  0  0  0  0
  -27.8932  -11.2815   18.8764 H   0  0  0  0  0  0
  -27.3811  -12.5511   17.7995 H   0  0  0  0  0  0
  -27.6519  -14.2384   19.4780 H   0  0  0  0  0  0
  -28.7105  -12.1232   21.4273 H   0  0  0  0  0  0
  -28.4151  -13.8003   21.8070 H   0  0  0  0  0  0
  -25.2779   -9.5721   22.4764 H   0  0  0  0  0  0
  -24.0004   -7.4690   22.7498 H   0  0  0  0  0  0
  -21.0926   -8.8730   19.8843 H   0  0  0  0  0  0
  -22.3791  -10.9632   19.6125 H   0  0  0  0  0  0
  -21.2043   -7.6159   23.9756 H   0  0  0  0  0  0
  -21.1486   -6.0558   25.9094 H   0  0  0  0  0  0
  -22.0562   -2.7622   23.2904 H   0  0  0  0  0  0
  -22.4228  -11.9823   22.4578 H   0  0  0  0  0  0
  -21.1143  -13.1186   22.2466 H   0  0  0  0  0  0
  -24.6402  -15.8268   20.4508 H   0  0  0  0  0  0
  -26.2854  -15.6344   20.1019 H   0  0  0  0  0  0
  -26.7203  -32.5391   23.1045 H   0  0  0  0  0  0
  -24.9986  -33.9669   25.0306 H   0  0  0  0  0  0
  -22.7214  -31.3051   21.4005 H   0  0  0  0  0  0
  -23.3777  -35.9613   23.3245 H   0  0  0  0  0  0
  -24.3595  -36.8973   22.2056 H   0  0  0  0  0  0
  -23.7259  -37.6466   23.6694 H   0  0  0  0  0  0
  -26.1139  -31.5234   20.6107 H   0  0  0  0  0  0
  -26.8543  -30.8153   22.0110 H   0  0  0  0  0  0
  -28.1161  -28.9015   21.1985 H   0  0  0  0  0  0
  -25.8976  -25.9803   18.8889 H   0  0  0  0  0  0
  -23.9514  -27.3482   18.9764 H   0  0  0  0  0  0
  -23.7767  -30.6011   19.4054 H   0  0  0  0  0  0
  -22.7608  -29.2617   19.8490 H   0  0  0  0  0  0
  -25.1343  -36.1899   25.0788 H   0  0  0  0  0  0
  -20.9994  -28.3235   24.1414 H   0  0  0  0  0  0
  -20.5693  -26.2276   23.3599 H   0  0  0  0  0  0
  -21.6640  -26.7400   22.1206 H   0  0  0  0  0  0
  -19.6879  -25.6291   21.1272 H   0  0  0  0  0  0
  -19.6697  -27.3191   20.6762 H   0  0  0  0  0  0
  -17.4186  -26.6669   21.4049 H   0  0  0  0  0  0
  -18.0318  -26.0093   22.9054 H   0  0  0  0  0  0
  -19.7927  -30.7284   24.2298 H   0  0  0  0  0  0
  -17.4990  -31.6274   24.5164 H   0  0  0  0  0  0
  -15.5346  -30.2995   23.7622 H   0  0  0  0  0  0
  -15.8680  -28.0843   22.7026 H   0  0  0  0  0  0
  -24.5893  -30.6993   25.7660 H   0  0  0  0  0  0
  -24.8753  -32.2859   26.4706 H   0  0  0  0  0  0
  -25.7939  -30.8932   27.0192 H   0  0  0  0  0  0
  -26.2755  -29.6753   24.1224 H   0  0  0  0  0  0
  -27.3909  -29.7198   25.4675 H   0  0  0  0  0  0
  -27.8682  -30.4173   23.9360 H   0  0  0  0  0  0
  -27.2622  -33.3568   26.2079 H   0  0  0  0  0  0
  -28.3883  -32.6794   25.0393 H   0  0  0  0  0  0
  -28.0598  -31.8357   26.5459 H   0  0  0  0  0  0
  -28.2567  -38.0154   24.7563 H   0  0  0  0  0  0
  -28.1155  -36.2682   24.6219 H   0  0  0  0  0  0
  -27.2294  -37.1385   25.8836 H   0  0  0  0  0  0
  -20.9368  -29.8808   21.6939 H   0  0  0  0  0  0
  -26.0186  -38.2813   24.1435 H   0  0  0  0  0  0
  -29.8719  -25.0789   21.8666 H   0  0  0  0  0  0
  -30.8912  -23.1467   23.1016 H   0  0  0  0  0  0
  -28.3873  -20.5625   18.4133 H   0  0  0  0  0  0
  -28.6223  -18.8807   18.4569 H   0  0  0  0  0  0
  -30.0254  -19.9476   18.4015 H   0  0  0  0  0  0
  -28.7032  -25.9753   16.2285 H   0  0  0  0  0  0
  -28.6966  -27.0163   17.6277 H   0  0  0  0  0  0
  -27.2108  -26.2115   17.1040 H   0  0  0  0  0  0
  -28.3372  -23.6925   16.2736 H   0  0  0  0  0  0
  -27.0475  -23.4935   17.4561 H   0  0  0  0  0  0
  -28.6116  -22.7065   17.6689 H   0  0  0  0  0  0
  -32.0377  -18.0714   21.5034 H   0  0  0  0  0  0
  -31.6577  -19.6937   21.9767 H   0  0  0  0  0  0
  -31.8630  -19.3199   20.2778 H   0  0  0  0  0  0
  -30.0067  -17.5396   23.0286 H   0  0  0  0  0  0
  -28.3769  -17.9066   22.5155 H   0  0  0  0  0  0
  -29.4016  -19.1680   23.1757 H   0  0  0  0  0  0
  -30.6954  -17.2305   19.4747 H   0  0  0  0  0  0
  -28.9788  -17.1978   19.6577 H   0  0  0  0  0  0
  -27.1378  -24.6328   19.6858 H   0  0  0  0  0  0
  -28.0311  -19.6800   20.7043 H   0  0  0  0  0  0
  -29.7260  -24.8142   18.1205 H   0  0  0  0  0  0
  -28.9803  -15.5589   21.2283 H   0  0  0  0  0  0
  1 25  1  0  0  0
  1 30  2  0  0  0
  1 87  1  0  0  0
  2  3  1  0  0  0
  2 25  1  0  0  0
  2 88  1  0  0  0
  2 89  1  0  0  0
  3  4  1  0  0  0
  3 90  1  0  0  0
  3 91  1  0  0  0
  4  5  1  0  0  0
  4 92  1  0  0  0
  4 93  1  0  0  0
  5  6  1  0  0  0
  5 26  1  0  0  0
  5 94  1  0  0  0
  6 25  1  0  0  0
  6 95  1  0  0  0
  6 96  1  0  0  0
  7  8  2  0  0  0
  7 26  1  0  0  0
  7 29  1  0  0  0
  8  9  1  0  0  0
  8 22  1  0  0  0
  9 10  1  0  0  0
  9 27  2  0  0  0
 10 11  2  0  0  0
 10 15  1  0  0  0
 11 12  1  0  0  0
 11 97  1  0  0  0
 12 13  2  0  0  0
 12 98  1  0  0  0
 13 14  1  0  0  0
 13 31  1  0  0  0
 14 15  2  0  0  0
 14 99  1  0  0  0
 15100  1  0  0  0
 16 17  2  0  0  0
 16 21  1  0  0  0
 16 31  1  0  0  0
 17 18  1  0  0  0
 17101  1  0  0  0
 18 19  2  0  0  0
 18102  1  0  0  0
 19 20  1  0  0  0
 19 24  1  0  0  0
 20 21  2  0  0  0
 20103  1  0  0  0
 21 23  1  0  0  0
 22 28  1  0  0  0
 22 32  2  0  0  0
 26 27  1  0  0  0
 28104  1  0  0  0
 28105  1  0  0  0
 29106  1  0  0  0
 29107  1  0  0  0
 33 34  1  0  0  0
 33 66  1  0  0  0
 33 70  2  0  0  0
 34 36  1  0  0  0
 34 59  1  0  0  0
 34108  1  0  0  0
 35 44  2  0  0  0
 35 45  1  0  0  0
 35 68  1  0  0  0
 36 56  1  0  0  0
 36109  1  0  0  0
 37 39  1  0  0  0
 37 47  1  0  0  0
 37 66  1  0  0  0
 37110  1  0  0  0
 38 43  2  0  0  0
 38 46  1  0  0  0
 38 47  1  0  0  0
 39 64  1  0  0  0
 39 67  2  0  0  0
 40 52  1  0  0  0
 40 53  2  0  0  0
 40 58  1  0  0  0
 41111  1  0  0  0
 41112  1  0  0  0
 41113  1  0  0  0
 41 48  1  0  0  0
 42 43  1  0  0  0
 42 66  1  0  0  0
 42114  1  0  0  0
 42115  1  0  0  0
 43 44  1  0  0  0
 44116  1  0  0  0
 45 46  2  0  0  0
 45117  1  0  0  0
 46118  1  0  0  0
 47119  1  0  0  0
 47120  1  0  0  0
 48 56  1  0  0  0
 48 65  1  0  0  0
 48121  1  0  0  0
 49 50  1  0  0  0
 49 53  1  0  0  0
 49 64  1  0  0  0
 49122  1  0  0  0
 50 51  1  0  0  0
 50123  1  0  0  0
 50124  1  0  0  0
 51 52  1  0  0  0
 51125  1  0  0  0
 51126  1  0  0  0
 52127  1  0  0  0
 52128  1  0  0  0
 53 54  1  0  0  0
 54 55  2  0  0  0
 54129  1  0  0  0
 55 57  1  0  0  0
 55130  1  0  0  0
 56 69  2  0  0  0
 57 58  2  0  0  0
 57131  1  0  0  0
 58132  1  0  0  0
 59 60  1  0  0  0
 59 61  1  0  0  0
 59 62  1  0  0  0
 60133  1  0  0  0
 60134  1  0  0  0
 60135  1  0  0  0
 61136  1  0  0  0
 61137  1  0  0  0
 61138  1  0  0  0
 62139  1  0  0  0
 62140  1  0  0  0
 62141  1  0  0  0
 63 65  1  0  0  0
 63142  1  0  0  0
 63143  1  0  0  0
 63144  1  0  0  0
 64145  1  0  0  0
 65146  1  0  0  0
 68 81  1  0  0  0
 71 72  2  0  0  0
 71 73  1  0  0  0
 71147  1  0  0  0
 72 85  1  0  0  0
 72148  1  0  0  0
 73 81  1  0  0  0
 73 86  2  0  0  0
 74 82  1  0  0  0
 74 85  2  0  0  0
 74 86  1  0  0  0
 75149  1  0  0  0
 75150  1  0  0  0
 75151  1  0  0  0
 75 82  1  0  0  0
 76152  1  0  0  0
 76153  1  0  0  0
 76154  1  0  0  0
 76 83  1  0  0  0
 77 83  1  0  0  0
 77155  1  0  0  0
 77156  1  0  0  0
 77157  1  0  0  0
 78158  1  0  0  0
 78159  1  0  0  0
 78160  1  0  0  0
 78 84  1  0  0  0
 79 84  1  0  0  0
 79161  1  0  0  0
 79162  1  0  0  0
 79163  1  0  0  0
 80 84  1  0  0  0
 80 87  1  0  0  0
 80164  1  0  0  0
 80165  1  0  0  0
 81 83  1  0  0  0
 81166  1  0  0  0
 82 84  1  0  0  0
 82167  1  0  0  0
 83168  1  0  0  0
 87169  1  0  0  0
M  ISO  4   1 100  68 101  81 101  87 100
M  END
> <chiral flag>
0

> <version>
0

> <s_m_source_file>
/data/baiqing/PycharmProjects/Reinvent-master-3.2/result/LINK_invent/BTK/process_docking_weight1_custom_sum_contain_oxygen_bond_distance_aromatic_linkinvent_7_9_3/rearranged_h_0069.sdf

> <i_m_source_file_index>
11

> <r_mmod_Potential_Energy-OPLS-2005>
-90.8788299560547

> <r_mmod_Stretch_Energy-OPLS-2005>
153.656433105469

> <r_mmod_Bend_Energy-OPLS-2005>
199.005554199219

> <r_mmod_Torsional_Energy-OPLS-2005>
257.662933349609

> <r_mmod_Improper_Torsional_Energy-OPLS-2005>
7.12426662445068

> <r_mmod_Van_der_Waal_Energy-OPLS-2005>
159.218734741211

> <r_mmod_Electrostatic_Energy-OPLS-2005>
-725.489135742188

> <r_mmod_Solvation_Energy-OPLS-2005>
-213.279266357422

> <b_mmod_Minimization_Converged-OPLS-2005>
0

> <r_mmod_RMS_Derivative-OPLS-2005>
9.32032108306885

$$$$
11
                    3D
 Structure written by MMmdl.
189198  0  0  1  0            999 V2000
  -30.7771  -14.4881   20.2747 C   0  0  0  0  0  0
  -30.3982  -12.2274   19.4656 C   0  0  0  0  0  0
  -29.4801  -12.2577   18.2255 C   0  0  0  0  0  0
  -27.9877  -12.2628   18.6338 C   0  0  0  0  0  0
  -27.6296  -13.1801   19.8378 C   0  0  2  0  0  0
  -28.7077  -13.1559   20.9474 C   0  0  0  0  0  0
  -25.2514  -13.8041   20.5725 C   0  0  0  0  0  0
  -24.1772  -13.0398   20.9288 C   0  0  0  0  0  0
  -24.6306  -11.6860   20.8916 C   0  0  0  0  0  0
  -23.8948  -10.4282   21.0548 C   0  0  0  0  0  0
  -24.3525   -9.4204   21.9312 C   0  0  0  0  0  0
  -23.6201   -8.2252   22.0831 C   0  0  0  0  0  0
  -22.4209   -8.0308   21.3602 C   0  0  0  0  0  0
  -21.9826   -9.0283   20.4731 C   0  0  0  0  0  0
  -22.7136  -10.2158   20.3154 C   0  0  0  0  0  0
  -21.6841   -6.0701   22.5268 C   0  0  0  0  0  0
  -21.4016   -6.5609   23.8191 C   0  0  0  0  0  0
  -21.3641   -5.6774   24.9165 C   0  0  0  0  0  0
  -21.6027   -4.3029   24.7232 C   0  0  0  0  0  0
  -21.8832   -3.8114   23.4358 C   0  0  0  0  0  0
  -21.9181   -4.6923   22.3404 C   0  0  0  0  0  0
  -22.7825  -13.5279   21.1916 C   0  0  0  0  0  0
  -22.1636   -4.2077   21.0984 F   0  0  0  0  0  0
  -21.5612   -3.4540   25.7759 F   0  0  0  0  0  0
  -30.0233  -13.3566   20.3268 N   0  0  0  0  0  0
  -26.2912  -12.9163   20.3474 N   0  0  0  0  0  0
  -25.9254  -11.6381   20.6075 N   0  0  0  0  0  0
  -22.0416  -12.8286   22.0415 N   0  0  0  0  0  0
  -25.4240  -15.1714   20.3965 N   0  0  0  0  0  0
  -32.0037  -14.3916   20.3296 O   0  0  0  0  0  0
  -21.6661   -6.8860   21.4237 O   0  0  0  0  0  0
  -22.3513  -14.5611   20.6806 O   0  0  0  0  0  0
  -24.6145  -31.8705   23.2101 C   0  0  0  0  0  0
  -25.9038  -32.4829   23.8399 C   0  0  1  0  0  0
  -27.2417  -27.4583   20.0560 C   0  0  0  0  0  0
  -25.5917  -33.8626   24.2344 N   0  0  0  0  0  0
  -23.4032  -30.4885   21.5561 C   0  0  2  0  0  0
  -24.8418  -28.9592   20.1207 C   0  0  0  0  0  0
  -22.7392  -29.4641   22.5007 C   0  0  0  0  0  0
  -18.0279  -28.1398   22.8504 C   0  0  0  0  0  0
  -24.1509  -36.7300   23.2648 C   0  0  0  0  0  0
  -25.9333  -30.8320   21.3616 C   0  0  0  0  0  0
  -26.0057  -29.4727   20.6992 C   0  0  0  0  0  0
  -27.2097  -28.7309   20.6605 C   0  0  0  0  0  0
  -26.0477  -26.9394   19.5008 C   0  0  0  0  0  0
  -24.8583  -27.6855   19.5245 C   0  0  0  0  0  0
  -23.6057  -29.8255   20.1726 C   0  0  0  0  0  0
  -25.4144  -36.3122   24.0334 C   0  0  1  0  0  0
  -20.5875  -28.3667   23.1370 C   0  0  2  0  0  0
  -20.6796  -26.9403   22.5470 C   0  0  0  0  0  0
  -19.5778  -26.6407   21.5265 C   0  0  0  0  0  0
  -18.1936  -26.7955   22.1634 C   0  0  0  0  0  0
  -19.1531  -28.8844   23.2940 C   0  0  0  0  0  0
  -18.9447  -30.1469   23.8908 C   0  0  0  0  0  0
  -17.6452  -30.6598   24.0592 C   0  0  0  0  0  0
  -25.9057  -34.9476   23.5151 C   0  0  0  0  0  0
  -16.5339  -29.9089   23.6377 C   0  0  0  0  0  0
  -16.7270  -28.6537   23.0325 C   0  0  0  0  0  0
  -26.4443  -31.6592   25.0702 C   0  0  0  0  0  0
  -25.3673  -31.3688   26.1434 C   0  0  0  0  0  0
  -27.0334  -30.3055   24.6089 C   0  0  0  0  0  0
  -27.6062  -32.4291   25.7430 C   0  0  0  0  0  0
  -27.5609  -37.1817   24.8463 C   0  0  0  0  0  0
  -21.4106  -29.2996   22.3709 N   0  0  0  0  0  0
  -26.4331  -37.3801   23.9397 N   0  0  0  0  0  0
  -24.6709  -31.0762   22.1020 N   0  0  0  0  0  0
  -23.4142  -28.8200   23.3088 O   0  0  0  0  0  0
  -28.4316  -26.7655   19.9873 O   0  0  0  0  0  0
  -26.5613  -34.8929   22.4701 O   0  0  0  0  0  0
  -23.5343  -32.1482   23.7446 O   0  0  0  0  0  0
  -28.4002  -18.8915   21.1524 C   0  0  0  0  0  0
  -29.7912  -17.9464   22.9174 C   0  0  0  0  0  0
  -28.6673  -17.7738   20.3396 C   0  0  0  0  0  0
  -30.0580  -16.8300   22.1044 C   0  0  0  0  0  0
  -29.8370  -21.7751   21.1225 C   0  0  0  0  0  0
  -29.0333  -19.0206   22.4063 C   0  0  0  0  0  0
  -29.5671  -16.7775   20.7785 C   0  0  0  0  0  0
  -29.5936  -21.4905   22.4446 C   0  0  0  0  0  0
  -30.6647  -23.4679   22.3170 C   0  0  0  0  0  0
  -29.5249  -15.8040   18.3814 C   0  0  0  0  0  0
  -31.5214  -16.7415   19.3516 C   0  0  0  0  0  0
  -31.8290  -25.8284   21.9850 C   0  0  0  0  0  0
  -32.5791  -24.2429   23.7335 C   0  0  0  0  0  0
  -30.3652  -25.3784   23.9206 C   0  0  0  0  0  0
  -30.6020  -24.8900   17.6395 C   0  0  0  0  0  0
  -29.7157  -22.6233   17.7558 C   0  0  0  0  0  0
  -28.9453  -20.3304   23.1639 C   0  0  0  0  0  0
  -28.5246  -24.4348   19.0303 C   0  0  0  0  0  0
  -30.9590  -23.5952   19.7763 C   0  0  0  0  0  0
  -28.3668  -25.3647   20.2635 C   0  0  0  0  0  0
  -30.2690  -15.8881   19.7399 C   0  0  0  0  0  0
  -31.3482  -24.7072   22.9342 C   0  0  0  0  0  0
  -29.9358  -23.8947   18.6161 C   0  0  0  0  0  0
  -30.4727  -22.9971   21.0515 N   0  0  0  0  0  0
  -30.1187  -22.5535   23.1289 N   0  3  0  0  0  0
  -31.4489  -12.2351   19.1658 H   0  0  0  0  0  0
  -30.2570  -11.2865   20.0001 H   0  0  0  0  0  0
  -29.6698  -11.3528   17.6438 H   0  0  0  0  0  0
  -29.7238  -13.0689   17.5500 H   0  0  0  0  0  0
  -27.7503  -11.2310   18.8908 H   0  0  0  0  0  0
  -27.3601  -12.4968   17.7697 H   0  0  0  0  0  0
  -27.5823  -14.1825   19.4612 H   0  0  0  0  0  0
  -28.6993  -12.2082   21.4922 H   0  0  0  0  0  0
  -28.5182  -13.9351   21.6869 H   0  0  0  0  0  0
  -25.2702   -9.5656   22.4848 H   0  0  0  0  0  0
  -23.9922   -7.4641   22.7495 H   0  0  0  0  0  0
  -21.0790   -8.8787   19.9018 H   0  0  0  0  0  0
  -22.3659  -10.9702   19.6215 H   0  0  0  0  0  0
  -21.2046   -7.6134   23.9632 H   0  0  0  0  0  0
  -21.1433   -6.0560   25.9037 H   0  0  0  0  0  0
  -22.0634   -2.7573   23.2905 H   0  0  0  0  0  0
  -22.3906  -11.9961   22.4920 H   0  0  0  0  0  0
  -21.1066  -13.1414   22.2497 H   0  0  0  0  0  0
  -24.6549  -15.8254   20.4913 H   0  0  0  0  0  0
  -26.2914  -15.6015   20.0955 H   0  0  0  0  0  0
  -26.7064  -32.5530   23.1129 H   0  0  0  0  0  0
  -25.0009  -33.9816   25.0435 H   0  0  0  0  0  0
  -22.6855  -31.2984   21.4189 H   0  0  0  0  0  0
  -23.3792  -35.9620   23.3326 H   0  0  0  0  0  0
  -24.3574  -36.8880   22.2055 H   0  0  0  0  0  0
  -23.7220  -37.6494   23.6625 H   0  0  0  0  0  0
  -26.0608  -31.6037   20.6024 H   0  0  0  0  0  0
  -26.8144  -30.8669   21.9917 H   0  0  0  0  0  0
  -28.1172  -29.1367   21.0848 H   0  0  0  0  0  0
  -26.0340  -25.9727   19.0217 H   0  0  0  0  0  0
  -23.9629  -27.2806   19.0810 H   0  0  0  0  0  0
  -23.7058  -30.6078   19.4172 H   0  0  0  0  0  0
  -22.7305  -29.2433   19.8836 H   0  0  0  0  0  0
  -25.1334  -36.2024   25.0826 H   0  0  0  0  0  0
  -20.9936  -28.3297   24.1517 H   0  0  0  0  0  0
  -20.5850  -26.2232   23.3634 H   0  0  0  0  0  0
  -21.6648  -26.7599   22.1170 H   0  0  0  0  0  0
  -19.6968  -25.6348   21.1247 H   0  0  0  0  0  0
  -19.6752  -27.3266   20.6836 H   0  0  0  0  0  0
  -17.4236  -26.6738   21.3990 H   0  0  0  0  0  0
  -18.0297  -26.0104   22.9035 H   0  0  0  0  0  0
  -19.7919  -30.7321   24.2192 H   0  0  0  0  0  0
  -17.5009  -31.6283   24.5192 H   0  0  0  0  0  0
  -15.5330  -30.2975   23.7724 H   0  0  0  0  0  0
  -15.8666  -28.0898   22.6940 H   0  0  0  0  0  0
  -24.5839  -30.7049   25.7724 H   0  0  0  0  0  0
  -24.8877  -32.2841   26.4934 H   0  0  0  0  0  0
  -25.8017  -30.8793   27.0148 H   0  0  0  0  0  0
  -26.2913  -29.6731   24.1199 H   0  0  0  0  0  0
  -27.4149  -29.7389   25.4581 H   0  0  0  0  0  0
  -27.8694  -30.4398   23.9219 H   0  0  0  0  0  0
  -27.2736  -33.3574   26.2078 H   0  0  0  0  0  0
  -28.3820  -32.6870   25.0200 H   0  0  0  0  0  0
  -28.0768  -31.8347   26.5261 H   0  0  0  0  0  0
  -28.2680  -38.0083   24.7567 H   0  0  0  0  0  0
  -28.1077  -36.2632   24.6274 H   0  0  0  0  0  0
  -27.2305  -37.1429   25.8858 H   0  0  0  0  0  0
  -20.9174  -29.8542   21.6829 H   0  0  0  0  0  0
  -26.0249  -38.2901   24.1354 H   0  0  0  0  0  0
  -27.7984  -19.6943   20.7530 H   0  0  0  0  0  0
  -30.2422  -18.0027   23.9025 H   0  0  0  0  0  0
  -28.2737  -17.7780   19.3324 H   0  0  0  0  0  0
  -30.7425  -16.0780   22.4719 H   0  0  0  0  0  0
  -29.6244  -21.1882   20.2395 H   0  0  0  0  0  0
  -28.4586  -15.6243   18.4392 H   0  0  0  0  0  0
  -29.5972  -16.7549   17.8543 H   0  0  0  0  0  0
  -29.9856  -15.0912   17.7041 H   0  0  0  0  0  0
  -31.2320  -17.7118   18.9522 H   0  0  0  0  0  0
  -32.1492  -16.2466   18.6095 H   0  0  0  0  0  0
  -32.1456  -16.9638   20.2155 H   0  0  0  0  0  0
  -32.6536  -25.5104   21.3505 H   0  0  0  0  0  0
  -32.2233  -26.6697   22.5565 H   0  0  0  0  0  0
  -31.0284  -26.2317   21.3682 H   0  0  0  0  0  0
  -33.3256  -23.8062   23.0687 H   0  0  0  0  0  0
  -32.3236  -23.4974   24.4860 H   0  0  0  0  0  0
  -33.0541  -25.0752   24.2520 H   0  0  0  0  0  0
  -29.4511  -25.7010   23.4200 H   0  0  0  0  0  0
  -30.8058  -26.2639   24.3820 H   0  0  0  0  0  0
  -30.0737  -24.7204   24.7372 H   0  0  0  0  0  0
  -31.5159  -24.4652   17.2209 H   0  0  0  0  0  0
  -30.8683  -25.8384   18.0968 H   0  0  0  0  0  0
  -29.9494  -25.1207   16.7954 H   0  0  0  0  0  0
  -29.2582  -22.8741   16.7973 H   0  0  0  0  0  0
  -29.0807  -21.8768   18.2308 H   0  0  0  0  0  0
  -30.6579  -22.1275   17.5097 H   0  0  0  0  0  0
  -29.4416  -20.1904   24.1233 H   0  0  0  0  0  0
  -27.9012  -20.5652   23.3709 H   0  0  0  0  0  0
  -28.0437  -24.8916   18.1652 H   0  0  0  0  0  0
  -27.8949  -23.5704   19.2406 H   0  0  0  0  0  0
  -31.5102  -24.4980   19.9820 H   0  0  0  0  0  0
  -31.7303  -22.9208   19.4205 H   0  0  0  0  0  0
  -29.1178  -25.1696   21.0188 H   0  0  0  0  0  0
  -27.4366  -25.1168   20.7727 H   0  0  0  0  0  0
  -30.1326  -22.6249   24.1400 H   0  0  0  0  0  0
  1 25  1  0  0  0
  1 30  2  0  0  0
  1 91  1  0  0  0
  2  3  1  0  0  0
  2 25  1  0  0  0
  2 96  1  0  0  0
  2 97  1  0  0  0
  3  4  1  0  0  0
  3 98  1  0  0  0
  3 99  1  0  0  0
  4  5  1  0  0  0
  4100  1  0  0  0
  4101  1  0  0  0
  5  6  1  0  0  0
  5 26  1  0  0  0
  5102  1  0  0  0
  6 25  1  0  0  0
  6103  1  0  0  0
  6104  1  0  0  0
  7  8  2  0  0  0
  7 26  1  0  0  0
  7 29  1  0  0  0
  8  9  1  0  0  0
  8 22  1  0  0  0
  9 10  1  0  0  0
  9 27  2  0  0  0
 10 11  2  0  0  0
 10 15  1  0  0  0
 11 12  1  0  0  0
 11105  1  0  0  0
 12 13  2  0  0  0
 12106  1  0  0  0
 13 14  1  0  0  0
 13 31  1  0  0  0
 14 15  2  0  0  0
 14107  1  0  0  0
 15108  1  0  0  0
 16 17  2  0  0  0
 16 21  1  0  0  0
 16 31  1  0  0  0
 17 18  1  0  0  0
 17109  1  0  0  0
 18 19  2  0  0  0
 18110  1  0  0  0
 19 20  1  0  0  0
 19 24  1  0  0  0
 20 21  2  0  0  0
 20111  1  0  0  0
 21 23  1  0  0  0
 22 28  1  0  0  0
 22 32  2  0  0  0
 26 27  1  0  0  0
 28112  1  0  0  0
 28113  1  0  0  0
 29114  1  0  0  0
 29115  1  0  0  0
 33 34  1  0  0  0
 33 66  1  0  0  0
 33 70  2  0  0  0
 34 36  1  0  0  0
 34 59  1  0  0  0
 34116  1  0  0  0
 35 44  2  0  0  0
 35 45  1  0  0  0
 35 68  1  0  0  0
 36 56  1  0  0  0
 36117  1  0  0  0
 37 39  1  0  0  0
 37 47  1  0  0  0
 37 66  1  0  0  0
 37118  1  0  0  0
 38 43  2  0  0  0
 38 46  1  0  0  0
 38 47  1  0  0  0
 39 64  1  0  0  0
 39 67  2  0  0  0
 40 52  1  0  0  0
 40 53  2  0  0  0
 40 58  1  0  0  0
 41119  1  0  0  0
 41120  1  0  0  0
 41121  1  0  0  0
 41 48  1  0  0  0
 42 43  1  0  0  0
 42 66  1  0  0  0
 42122  1  0  0  0
 42123  1  0  0  0
 43 44  1  0  0  0
 44124  1  0  0  0
 45 46  2  0  0  0
 45125  1  0  0  0
 46126  1  0  0  0
 47127  1  0  0  0
 47128  1  0  0  0
 48 56  1  0  0  0
 48 65  1  0  0  0
 48129  1  0  0  0
 49 50  1  0  0  0
 49 53  1  0  0  0
 49 64  1  0  0  0
 49130  1  0  0  0
 50 51  1  0  0  0
 50131  1  0  0  0
 50132  1  0  0  0
 51 52  1  0  0  0
 51133  1  0  0  0
 51134  1  0  0  0
 52135  1  0  0  0
 52136  1  0  0  0
 53 54  1  0  0  0
 54 55  2  0  0  0
 54137  1  0  0  0
 55 57  1  0  0  0
 55138  1  0  0  0
 56 69  2  0  0  0
 57 58  2  0  0  0
 57139  1  0  0  0
 58140  1  0  0  0
 59 60  1  0  0  0
 59 61  1  0  0  0
 59 62  1  0  0  0
 60141  1  0  0  0
 60142  1  0  0  0
 60143  1  0  0  0
 61144  1  0  0  0
 61145  1  0  0  0
 61146  1  0  0  0
 62147  1  0  0  0
 62148  1  0  0  0
 62149  1  0  0  0
 63 65  1  0  0  0
 63150  1  0  0  0
 63151  1  0  0  0
 63152  1  0  0  0
 64153  1  0  0  0
 65154  1  0  0  0
 68 90  1  0  0  0
 71 73  2  0  0  0
 71 76  1  0  0  0
 71155  1  0  0  0
 72 74  1  0  0  0
 72 76  2  0  0  0
 72156  1  0  0  0
 73 77  1  0  0  0
 73157  1  0  0  0
 74 77  2  0  0  0
 74158  1  0  0  0
 75 78  2  0  0  0
 75 94  1  0  0  0
 75159  1  0  0  0
 76 87  1  0  0  0
 77 91  1  0  0  0
 78 87  1  0  0  0
 78 95  1  0  0  0
 79 92  1  0  0  0
 79 94  1  0  0  0
 79 95  2  0  0  0
 80160  1  0  0  0
 80161  1  0  0  0
 80162  1  0  0  0
 80 91  1  0  0  0
 81 91  1  0  0  0
 81163  1  0  0  0
 81164  1  0  0  0
 81165  1  0  0  0
 82166  1  0  0  0
 82167  1  0  0  0
 82168  1  0  0  0
 82 92  1  0  0  0
 83 92  1  0  0  0
 83169  1  0  0  0
 83170  1  0  0  0
 83171  1  0  0  0
 84 92  1  0  0  0
 84172  1  0  0  0
 84173  1  0  0  0
 84174  1  0  0  0
 85175  1  0  0  0
 85176  1  0  0  0
 85177  1  0  0  0
 85 93  1  0  0  0
 86 93  1  0  0  0
 86178  1  0  0  0
 86179  1  0  0  0
 86180  1  0  0  0
 87181  1  0  0  0
 87182  1  0  0  0
 88 90  1  0  0  0
 88 93  1  0  0  0
 88183  1  0  0  0
 88184  1  0  0  0
 89 93  1  0  0  0
 89 94  1  0  0  0
 89185  1  0  0  0
 89186  1  0  0  0
 90187  1  0  0  0
 90188  1  0  0  0
 95189  1  0  0  0
M  CHG  1  95   1
M  ISO  4   1 100  68 101  90 101  91 100
M  END
> <chiral flag>
0

> <version>
0

> <s_m_source_file>
/data/baiqing/PycharmProjects/Reinvent-master-3.2/result/LINK_invent/BTK/process_docking_weight1_custom_sum_contain_oxygen_bond_distance_aromatic_linkinvent_7_9_3/rearranged_h_0069.sdf

> <i_m_source_file_index>
12

> <r_mmod_Potential_Energy-OPLS-2005>
313.764801025391

> <r_mmod_Stretch_Energy-OPLS-2005>
53.3169403076172

> <r_mmod_Bend_Energy-OPLS-2005>
186.745498657227

> <r_mmod_Torsional_Energy-OPLS-2005>
308.435424804688

> <r_mmod_Improper_Torsional_Energy-OPLS-2005>
13.2947425842285

> <r_mmod_Van_der_Waal_Energy-OPLS-2005>
178.932235717773

> <r_mmod_Electrostatic_Energy-OPLS-2005>
-125.974891662598

> <r_mmod_Solvation_Energy-OPLS-2005>
-365.679351806641

> <b_mmod_Minimization_Converged-OPLS-2005>
0

> <r_mmod_RMS_Derivative-OPLS-2005>
9.28994941711426

$$$$
12
                    3D
 Structure written by MMmdl.
170178  0  0  1  0            999 V2000
  -30.7291  -14.7464   20.2597 C   0  0  0  0  0  0
  -30.4214  -12.4333   19.4292 C   0  0  0  0  0  0
  -29.5012  -12.4065   18.1967 C   0  0  0  0  0  0
  -28.0287  -12.2721   18.6363 C   0  0  0  0  0  0
  -27.6260  -13.2261   19.7929 C   0  0  2  0  0  0
  -28.7002  -13.2406   20.8932 C   0  0  0  0  0  0
  -25.2535  -13.8274   20.5694 C   0  0  0  0  0  0
  -24.1791  -13.0495   20.9276 C   0  0  0  0  0  0
  -24.6398  -11.7001   20.8805 C   0  0  0  0  0  0
  -23.9093  -10.4350   21.0478 C   0  0  0  0  0  0
  -24.3684   -9.4252   21.9227 C   0  0  0  0  0  0
  -23.6358   -8.2283   22.0769 C   0  0  0  0  0  0
  -22.4343   -8.0323   21.3548 C   0  0  0  0  0  0
  -21.9962   -9.0327   20.4669 C   0  0  0  0  0  0
  -22.7291  -10.2207   20.3089 C   0  0  0  0  0  0
  -21.6867   -6.0773   22.5288 C   0  0  0  0  0  0
  -21.3999   -6.5660   23.8214 C   0  0  0  0  0  0
  -21.3669   -5.6792   24.9181 C   0  0  0  0  0  0
  -21.6048   -4.3058   24.7205 C   0  0  0  0  0  0
  -21.8822   -3.8172   23.4332 C   0  0  0  0  0  0
  -21.9201   -4.7009   22.3383 C   0  0  0  0  0  0
  -22.7811  -13.5319   21.1918 C   0  0  0  0  0  0
  -22.1657   -4.2190   21.0962 F   0  0  0  0  0  0
  -21.5657   -3.4523   25.7725 F   0  0  0  0  0  0
  -29.9902  -13.5745   20.2660 N   0  0  0  0  0  0
  -26.2898  -12.9401   20.3124 N   0  0  0  0  0  0
  -25.9313  -11.6586   20.5744 N   0  0  0  0  0  0
  -22.0386  -12.8284   22.0440 N   0  0  0  0  0  0
  -25.4242  -15.1988   20.4239 N   0  0  0  0  0  0
  -31.9434  -14.6031   20.3681 O   0  0  0  0  0  0
  -21.6673   -6.8959   21.4258 O   0  0  0  0  0  0
  -22.3474  -14.5572   20.6745 O   0  0  0  0  0  0
  -24.6268  -31.8646   23.2059 C   0  0  0  0  0  0
  -25.9170  -32.4808   23.8318 C   0  0  1  0  0  0
  -27.2045  -27.2983   20.1996 C   0  0  0  0  0  0
  -25.6002  -33.8578   24.2300 N   0  0  0  0  0  0
  -23.4133  -30.4947   21.5469 C   0  0  2  0  0  0
  -24.8594  -28.9431   20.1105 C   0  0  0  0  0  0
  -22.7432  -29.4724   22.4940 C   0  0  0  0  0  0
  -18.0331  -28.1358   22.8564 C   0  0  0  0  0  0
  -24.1506  -36.7259   23.2630 C   0  0  0  0  0  0
  -25.9489  -30.8029   21.3621 C   0  0  0  0  0  0
  -26.0239  -29.4225   20.7194 C   0  0  0  0  0  0
  -27.2005  -28.6169   20.7506 C   0  0  0  0  0  0
  -26.0319  -26.8849   19.5263 C   0  0  0  0  0  0
  -24.8724  -27.6831   19.4894 C   0  0  0  0  0  0
  -23.6238  -29.8280   20.1599 C   0  0  0  0  0  0
  -25.4131  -36.3110   24.0358 C   0  0  1  0  0  0
  -20.5939  -28.3692   23.1275 C   0  0  2  0  0  0
  -20.6805  -26.9403   22.5391 C   0  0  0  0  0  0
  -19.5772  -26.6392   21.5213 C   0  0  0  0  0  0
  -18.1966  -26.7937   22.1645 C   0  0  0  0  0  0
  -19.1577  -28.8847   23.2950 C   0  0  0  0  0  0
  -18.9478  -30.1462   23.8966 C   0  0  0  0  0  0
  -17.6467  -30.6583   24.0582 C   0  0  0  0  0  0
  -25.9079  -34.9477   23.5123 C   0  0  0  0  0  0
  -16.5374  -29.9072   23.6330 C   0  0  0  0  0  0
  -16.7321  -28.6465   23.0408 C   0  0  0  0  0  0
  -26.4560  -31.6570   25.0627 C   0  0  0  0  0  0
  -25.3776  -31.3578   26.1317 C   0  0  0  0  0  0
  -27.0316  -30.3054   24.5866 C   0  0  0  0  0  0
  -27.6212  -32.4203   25.7336 C   0  0  0  0  0  0
  -27.5591  -37.1789   24.8485 C   0  0  0  0  0  0
  -21.4179  -29.3064   22.3637 N   0  0  0  0  0  0
  -26.4319  -37.3804   23.9422 N   0  0  0  0  0  0
  -24.6842  -31.0677   22.0986 N   0  0  0  0  0  0
  -23.4168  -28.8299   23.3035 O   0  0  0  0  0  0
  -28.2865  -26.4183   20.3578 O   0  0  0  0  0  0
  -26.5615  -34.8969   22.4680 O   0  0  0  0  0  0
  -23.5469  -32.1394   23.7473 O   0  0  0  0  0  0
  -28.9702  -16.9880   21.6916 C   0  0  0  0  0  0
  -29.8272  -17.3527   20.6417 C   0  0  0  0  0  0
  -28.5513  -19.1973   22.2191 C   0  0  0  0  0  0
  -29.3888  -19.6561   21.1658 C   0  0  0  0  0  0
  -27.8048  -20.1410   23.1339 C   0  0  0  0  0  0
  -28.1429  -22.0231   19.2849 C   0  0  0  0  0  0
  -29.2379  -16.1728   18.5604 C   0  0  0  0  0  0
  -31.5921  -16.7711   18.9304 C   0  0  0  0  0  0
  -30.3893  -24.2195   20.2743 C   0  0  0  0  0  0
  -29.1870  -24.1500   22.4589 C   0  0  0  0  0  0
  -29.7498  -21.1928   21.0441 C   0  0  0  0  0  0
  -28.0059  -24.9568   20.3093 C   0  0  0  0  0  0
  -28.6489  -22.3230   20.6979 C   0  0  1  0  0  0
  -30.3152  -16.2261   19.6599 C   0  0  0  0  0  0
  -29.0383  -23.8928   20.9306 C   0  0  0  0  0  0
  -28.3440  -17.8871   22.4757 N   0  0  0  0  0  0
  -30.0046  -18.7087   20.3588 N   0  0  0  0  0  0
  -31.4613  -12.5237   19.1150 H   0  0  0  0  0  0
  -30.3460  -11.4886   19.9757 H   0  0  0  0  0  0
  -29.7660  -11.5728   17.5446 H   0  0  0  0  0  0
  -29.6519  -13.2913   17.5882 H   0  0  0  0  0  0
  -27.9040  -11.2403   18.9676 H   0  0  0  0  0  0
  -27.3662  -12.3958   17.7810 H   0  0  0  0  0  0
  -27.5718  -14.2124   19.3500 H   0  0  0  0  0  0
  -28.7515  -12.2445   21.3331 H   0  0  0  0  0  0
  -28.4422  -13.9078   21.7100 H   0  0  0  0  0  0
  -25.2846   -9.5716   22.4787 H   0  0  0  0  0  0
  -24.0070   -7.4658   22.7445 H   0  0  0  0  0  0
  -21.0895   -8.8898   19.8962 H   0  0  0  0  0  0
  -22.3794  -10.9788   19.6198 H   0  0  0  0  0  0
  -21.1925   -7.6150   23.9729 H   0  0  0  0  0  0
  -21.1497   -6.0516   25.9087 H   0  0  0  0  0  0
  -22.0583   -2.7638   23.2811 H   0  0  0  0  0  0
  -22.4010  -12.0012   22.4902 H   0  0  0  0  0  0
  -21.0994  -13.1301   22.2584 H   0  0  0  0  0  0
  -24.6812  -15.8668   20.6014 H   0  0  0  0  0  0
  -26.2913  -15.6443   20.1553 H   0  0  0  0  0  0
  -26.7185  -32.5517   23.1001 H   0  0  0  0  0  0
  -25.0241  -33.9700   25.0516 H   0  0  0  0  0  0
  -22.7055  -31.3183   21.4131 H   0  0  0  0  0  0
  -23.3847  -35.9518   23.3328 H   0  0  0  0  0  0
  -24.3574  -36.8824   22.2028 H   0  0  0  0  0  0
  -23.7188  -37.6447   23.6608 H   0  0  0  0  0  0
  -26.0471  -31.5606   20.5840 H   0  0  0  0  0  0
  -26.8400  -30.8692   21.9726 H   0  0  0  0  0  0
  -28.0847  -28.9808   21.2535 H   0  0  0  0  0  0
  -25.9652  -25.9184   19.0480 H   0  0  0  0  0  0
  -23.9908  -27.3036   18.9916 H   0  0  0  0  0  0
  -23.7364  -30.6106   19.4091 H   0  0  0  0  0  0
  -22.7325  -29.2731   19.8573 H   0  0  0  0  0  0
  -25.1308  -36.1959   25.0854 H   0  0  0  0  0  0
  -21.0124  -28.3302   24.1374 H   0  0  0  0  0  0
  -20.5716  -26.2300   23.3604 H   0  0  0  0  0  0
  -21.6657  -26.7412   22.1164 H   0  0  0  0  0  0
  -19.6921  -25.6309   21.1241 H   0  0  0  0  0  0
  -19.6716  -27.3211   20.6761 H   0  0  0  0  0  0
  -17.4223  -26.6788   21.4046 H   0  0  0  0  0  0
  -18.0364  -25.9996   22.8953 H   0  0  0  0  0  0
  -19.7940  -30.7289   24.2336 H   0  0  0  0  0  0
  -17.5007  -31.6298   24.5115 H   0  0  0  0  0  0
  -15.5376  -30.2976   23.7601 H   0  0  0  0  0  0
  -15.8746  -28.0775   22.7105 H   0  0  0  0  0  0
  -24.6151  -30.6715   25.7602 H   0  0  0  0  0  0
  -24.8699  -32.2627   26.4667 H   0  0  0  0  0  0
  -25.8126  -30.8851   27.0129 H   0  0  0  0  0  0
  -26.2741  -29.6851   24.1065 H   0  0  0  0  0  0
  -27.4315  -29.7239   25.4171 H   0  0  0  0  0  0
  -27.8509  -30.4436   23.8807 H   0  0  0  0  0  0
  -27.3035  -33.3610   26.1836 H   0  0  0  0  0  0
  -28.4064  -32.6549   25.0130 H   0  0  0  0  0  0
  -28.0833  -31.8303   26.5255 H   0  0  0  0  0  0
  -28.2663  -38.0041   24.7586 H   0  0  0  0  0  0
  -28.1040  -36.2598   24.6306 H   0  0  0  0  0  0
  -27.2285  -37.1424   25.8876 H   0  0  0  0  0  0
  -20.9333  -29.8701   21.6783 H   0  0  0  0  0  0
  -26.0238  -38.2885   24.1472 H   0  0  0  0  0  0
  -28.7001  -15.9630   21.8461 H   0  0  0  0  0  0
  -26.8670  -20.4296   22.6501 H   0  0  0  0  0  0
  -28.4103  -21.0255   23.3249 H   0  0  0  0  0  0
  -27.5648  -19.6891   24.1017 H   0  0  0  0  0  0
  -27.2535  -22.5895   19.0288 H   0  0  0  0  0  0
  -27.8725  -20.9681   19.2133 H   0  0  0  0  0  0
  -28.9045  -22.2340   18.5379 H   0  0  0  0  0  0
  -29.2678  -17.0780   17.9490 H   0  0  0  0  0  0
  -28.2389  -16.1826   18.9847 H   0  0  0  0  0  0
  -29.3424  -15.3307   17.8855 H   0  0  0  0  0  0
  -31.4098  -17.6901   18.3692 H   0  0  0  0  0  0
  -31.9656  -16.0432   18.2092 H   0  0  0  0  0  0
  -32.4074  -17.0037   19.6203 H   0  0  0  0  0  0
  -31.2323  -23.7858   20.8074 H   0  0  0  0  0  0
  -30.5670  -25.2940   20.2744 H   0  0  0  0  0  0
  -30.4274  -23.8856   19.2377 H   0  0  0  0  0  0
  -30.0524  -23.6245   22.8694 H   0  0  0  0  0  0
  -28.3158  -23.8409   23.0420 H   0  0  0  0  0  0
  -29.3374  -25.2052   22.6861 H   0  0  0  0  0  0
  -30.2233  -21.4462   21.9955 H   0  0  0  0  0  0
  -30.5543  -21.2659   20.3122 H   0  0  0  0  0  0
  -27.0254  -24.7367   20.7348 H   0  0  0  0  0  0
  -27.9193  -24.7477   19.2431 H   0  0  0  0  0  0
  -27.7620  -22.1484   21.3117 H   0  0  0  0  0  0
  1 25  1  0  0  0
  1 30  2  0  0  0
  1 84  1  0  0  0
  2  3  1  0  0  0
  2 25  1  0  0  0
  2 88  1  0  0  0
  2 89  1  0  0  0
  3  4  1  0  0  0
  3 90  1  0  0  0
  3 91  1  0  0  0
  4  5  1  0  0  0
  4 92  1  0  0  0
  4 93  1  0  0  0
  5  6  1  0  0  0
  5 26  1  0  0  0
  5 94  1  0  0  0
  6 25  1  0  0  0
  6 95  1  0  0  0
  6 96  1  0  0  0
  7  8  2  0  0  0
  7 26  1  0  0  0
  7 29  1  0  0  0
  8  9  1  0  0  0
  8 22  1  0  0  0
  9 10  1  0  0  0
  9 27  2  0  0  0
 10 11  2  0  0  0
 10 15  1  0  0  0
 11 12  1  0  0  0
 11 97  1  0  0  0
 12 13  2  0  0  0
 12 98  1  0  0  0
 13 14  1  0  0  0
 13 31  1  0  0  0
 14 15  2  0  0  0
 14 99  1  0  0  0
 15100  1  0  0  0
 16 17  2  0  0  0
 16 21  1  0  0  0
 16 31  1  0  0  0
 17 18  1  0  0  0
 17101  1  0  0  0
 18 19  2  0  0  0
 18102  1  0  0  0
 19 20  1  0  0  0
 19 24  1  0  0  0
 20 21  2  0  0  0
 20103  1  0  0  0
 21 23  1  0  0  0
 22 28  1  0  0  0
 22 32  2  0  0  0
 26 27  1  0  0  0
 28104  1  0  0  0
 28105  1  0  0  0
 29106  1  0  0  0
 29107  1  0  0  0
 33 34  1  0  0  0
 33 66  1  0  0  0
 33 70  2  0  0  0
 34 36  1  0  0  0
 34 59  1  0  0  0
 34108  1  0  0  0
 35 44  2  0  0  0
 35 45  1  0  0  0
 35 68  1  0  0  0
 36 56  1  0  0  0
 36109  1  0  0  0
 37 39  1  0  0  0
 37 47  1  0  0  0
 37 66  1  0  0  0
 37110  1  0  0  0
 38 43  2  0  0  0
 38 46  1  0  0  0
 38 47  1  0  0  0
 39 64  1  0  0  0
 39 67  2  0  0  0
 40 52  1  0  0  0
 40 53  2  0  0  0
 40 58  1  0  0  0
 41111  1  0  0  0
 41112  1  0  0  0
 41113  1  0  0  0
 41 48  1  0  0  0
 42 43  1  0  0  0
 42 66  1  0  0  0
 42114  1  0  0  0
 42115  1  0  0  0
 43 44  1  0  0  0
 44116  1  0  0  0
 45 46  2  0  0  0
 45117  1  0  0  0
 46118  1  0  0  0
 47119  1  0  0  0
 47120  1  0  0  0
 48 56  1  0  0  0
 48 65  1  0  0  0
 48121  1  0  0  0
 49 50  1  0  0  0
 49 53  1  0  0  0
 49 64  1  0  0  0
 49122  1  0  0  0
 50 51  1  0  0  0
 50123  1  0  0  0
 50124  1  0  0  0
 51 52  1  0  0  0
 51125  1  0  0  0
 51126  1  0  0  0
 52127  1  0  0  0
 52128  1  0  0  0
 53 54  1  0  0  0
 54 55  2  0  0  0
 54129  1  0  0  0
 55 57  1  0  0  0
 55130  1  0  0  0
 56 69  2  0  0  0
 57 58  2  0  0  0
 57131  1  0  0  0
 58132  1  0  0  0
 59 60  1  0  0  0
 59 61  1  0  0  0
 59 62  1  0  0  0
 60133  1  0  0  0
 60134  1  0  0  0
 60135  1  0  0  0
 61136  1  0  0  0
 61137  1  0  0  0
 61138  1  0  0  0
 62139  1  0  0  0
 62140  1  0  0  0
 62141  1  0  0  0
 63 65  1  0  0  0
 63142  1  0  0  0
 63143  1  0  0  0
 63144  1  0  0  0
 64145  1  0  0  0
 65146  1  0  0  0
 68 82  1  0  0  0
 71 72  2  0  0  0
 71 86  1  0  0  0
 71147  1  0  0  0
 72 84  1  0  0  0
 72 87  1  0  0  0
 73 74  1  0  0  0
 73 75  1  0  0  0
 73 86  2  0  0  0
 74 81  1  0  0  0
 74 87  2  0  0  0
 75148  1  0  0  0
 75149  1  0  0  0
 75150  1  0  0  0
 76151  1  0  0  0
 76152  1  0  0  0
 76153  1  0  0  0
 76 83  1  0  0  0
 77154  1  0  0  0
 77155  1  0  0  0
 77156  1  0  0  0
 77 84  1  0  0  0
 78 84  1  0  0  0
 78157  1  0  0  0
 78158  1  0  0  0
 78159  1  0  0  0
 79160  1  0  0  0
 79161  1  0  0  0
 79162  1  0  0  0
 79 85  1  0  0  0
 80 85  1  0  0  0
 80163  1  0  0  0
 80164  1  0  0  0
 80165  1  0  0  0
 81 83  1  0  0  0
 81166  1  0  0  0
 81167  1  0  0  0
 82 85  1  0  0  0
 82168  1  0  0  0
 82169  1  0  0  0
 83 85  1  0  0  0
 83170  1  0  0  0
M  ISO  4   1 100  68 101  82 101  84 100
M  END
> <chiral flag>
0

> <version>
0

> <s_m_source_file>
/data/baiqing/PycharmProjects/Reinvent-master-3.2/result/LINK_invent/BTK/process_docking_weight1_custom_sum_contain_oxygen_bond_distance_aromatic_linkinvent_7_9_3/rearranged_h_0069.sdf

> <i_m_source_file_index>
13

> <r_mmod_Potential_Energy-OPLS-2005>
423.195373535156

> <r_mmod_Stretch_Energy-OPLS-2005>
126.21656036377

> <r_mmod_Bend_Energy-OPLS-2005>
202.639205932617

> <r_mmod_Torsional_Energy-OPLS-2005>
248.392562866211

> <r_mmod_Improper_Torsional_Energy-OPLS-2005>
15.3185386657715

> <r_mmod_Van_der_Waal_Energy-OPLS-2005>
161.97119140625

> <r_mmod_Electrostatic_Energy-OPLS-2005>
-262.739593505859

> <r_mmod_Solvation_Energy-OPLS-2005>
-187.80778503418

> <b_mmod_Minimization_Converged-OPLS-2005>
0

> <r_mmod_RMS_Derivative-OPLS-2005>
10.1389656066895

$$$$
13
                    3D
 Structure written by MMmdl.
164172  0  0  1  0            999 V2000
  -30.5986  -14.5915   20.6544 C   0  0  0  0  0  0
  -30.4352  -12.4083   19.4232 C   0  0  0  0  0  0
  -29.4854  -12.5888   18.2186 C   0  0  0  0  0  0
  -27.9966  -12.4655   18.6153 C   0  0  0  0  0  0
  -27.6602  -13.2149   19.9285 C   0  0  2  0  0  0
  -28.7126  -12.8661   20.9980 C   0  0  0  0  0  0
  -25.2528  -13.8206   20.5798 C   0  0  0  0  0  0
  -24.1760  -13.0428   20.9248 C   0  0  0  0  0  0
  -24.6359  -11.6919   20.8800 C   0  0  0  0  0  0
  -23.9036  -10.4296   21.0430 C   0  0  0  0  0  0
  -24.3607   -9.4210   21.9206 C   0  0  0  0  0  0
  -23.6291   -8.2235   22.0759 C   0  0  0  0  0  0
  -22.4269   -8.0288   21.3550 C   0  0  0  0  0  0
  -21.9908   -9.0256   20.4647 C   0  0  0  0  0  0
  -22.7222  -10.2140   20.3073 C   0  0  0  0  0  0
  -21.6847   -6.0743   22.5290 C   0  0  0  0  0  0
  -21.3997   -6.5646   23.8225 C   0  0  0  0  0  0
  -21.3654   -5.6795   24.9196 C   0  0  0  0  0  0
  -21.6036   -4.3053   24.7237 C   0  0  0  0  0  0
  -21.8810   -3.8150   23.4351 C   0  0  0  0  0  0
  -21.9193   -4.6969   22.3407 C   0  0  0  0  0  0
  -22.7786  -13.5239   21.1858 C   0  0  0  0  0  0
  -22.1665   -4.2163   21.0979 F   0  0  0  0  0  0
  -21.5626   -3.4531   25.7740 F   0  0  0  0  0  0
  -30.0031  -13.3526   20.4838 N   0  0  0  0  0  0
  -26.2999  -12.9371   20.3696 N   0  0  0  0  0  0
  -25.9313  -11.6503   20.5944 N   0  0  0  0  0  0
  -22.0395  -12.8272   22.0445 N   0  0  0  0  0  0
  -25.4139  -15.1920   20.4105 N   0  0  0  0  0  0
  -31.7084  -14.7576   20.1279 O   0  0  0  0  0  0
  -21.6625   -6.8893   21.4248 O   0  0  0  0  0  0
  -22.3471  -14.5551   20.6723 O   0  0  0  0  0  0
  -24.6349  -31.8544   23.1955 C   0  0  0  0  0  0
  -25.9190  -32.4716   23.8282 C   0  0  1  0  0  0
  -27.2057  -27.2537   20.1347 C   0  0  0  0  0  0
  -25.5993  -33.8526   24.2205 N   0  0  0  0  0  0
  -23.4278  -30.4806   21.5364 C   0  0  2  0  0  0
  -24.8688  -28.9279   20.1067 C   0  0  0  0  0  0
  -22.7489  -29.4606   22.4852 C   0  0  0  0  0  0
  -18.0292  -28.1420   22.8472 C   0  0  0  0  0  0
  -24.1507  -36.7289   23.2632 C   0  0  0  0  0  0
  -25.9725  -30.7674   21.3735 C   0  0  0  0  0  0
  -26.0393  -29.3882   20.7212 C   0  0  0  0  0  0
  -27.2073  -28.5619   20.7247 C   0  0  0  0  0  0
  -26.0143  -26.8691   19.4792 C   0  0  0  0  0  0
  -24.8644  -27.6800   19.4685 C   0  0  0  0  0  0
  -23.6440  -29.8184   20.1509 C   0  0  0  0  0  0
  -25.4131  -36.3019   24.0298 C   0  0  1  0  0  0
  -20.5895  -28.3737   23.1258 C   0  0  2  0  0  0
  -20.6794  -26.9452   22.5413 C   0  0  0  0  0  0
  -19.5756  -26.6409   21.5226 C   0  0  0  0  0  0
  -18.1930  -26.7965   22.1612 C   0  0  0  0  0  0
  -19.1554  -28.8901   23.2866 C   0  0  0  0  0  0
  -18.9463  -30.1484   23.8891 C   0  0  0  0  0  0
  -17.6466  -30.6613   24.0577 C   0  0  0  0  0  0
  -25.9087  -34.9406   23.5052 C   0  0  0  0  0  0
  -16.5360  -29.9116   23.6319 C   0  0  0  0  0  0
  -16.7285  -28.6547   23.0332 C   0  0  0  0  0  0
  -26.4583  -31.6513   25.0649 C   0  0  0  0  0  0
  -25.3827  -31.3665   26.1372 C   0  0  0  0  0  0
  -27.0404  -30.2912   24.6118 C   0  0  0  0  0  0
  -27.6107  -32.4271   25.7454 C   0  0  0  0  0  0
  -27.5566  -37.1792   24.8461 C   0  0  0  0  0  0
  -21.4194  -29.3078   22.3617 N   0  0  0  0  0  0
  -26.4276  -37.3737   23.9401 N   0  0  0  0  0  0
  -24.6969  -31.0534   22.0928 N   0  0  0  0  0  0
  -23.4178  -28.8155   23.2964 O   0  0  0  0  0  0
  -28.3186  -26.3826   20.2234 O   0  0  0  0  0  0
  -26.5633  -34.8901   22.4590 O   0  0  0  0  0  0
  -23.5512  -32.1386   23.7259 O   0  0  0  0  0  0
  -28.8879  -19.3570   19.1260 C   0  0  0  0  0  0
  -29.3804  -17.0849   19.2259 C   0  0  0  0  0  0
  -29.1238  -19.5139   20.5106 C   0  0  0  0  0  0
  -29.6464  -17.1646   20.6148 C   0  0  0  0  0  0
  -28.7597  -15.5667   22.3387 C   0  0  0  0  0  0
  -31.1326  -16.2388   22.4561 C   0  0  0  0  0  0
  -30.0435  -24.0614   21.4869 C   0  0  0  0  0  0
  -27.5910  -23.7904   22.0041 C   0  0  0  0  0  0
  -28.9939  -20.9369   21.1938 C   0  0  0  0  0  0
  -28.7230  -22.2487   20.2846 C   0  0  0  0  0  0
  -28.2832  -24.9258   19.8435 C   0  0  0  0  0  0
  -29.9985  -15.8665   21.4682 C   0  0  0  0  0  0
  -28.6576  -23.7525   20.8936 C   0  0  0  0  0  0
  -29.0077  -18.1639   18.4919 N   0  0  0  0  0  0
  -29.4862  -18.3968   21.2483 N   0  0  0  0  0  0
  -31.4625  -12.5675   19.0897 H   0  0  0  0  0  0
  -30.4090  -11.3748   19.7743 H   0  0  0  0  0  0
  -29.7174  -11.8707   17.4325 H   0  0  0  0  0  0
  -29.6580  -13.5782   17.7917 H   0  0  0  0  0  0
  -27.7598  -11.4115   18.7298 H   0  0  0  0  0  0
  -27.3586  -12.8416   17.8131 H   0  0  0  0  0  0
  -27.7290  -14.2821   19.7273 H   0  0  0  0  0  0
  -28.7264  -11.7834   21.1396 H   0  0  0  0  0  0
  -28.4728  -13.1810   22.0046 H   0  0  0  0  0  0
  -25.2748   -9.5680   22.4803 H   0  0  0  0  0  0
  -23.9997   -7.4641   22.7495 H   0  0  0  0  0  0
  -21.0838   -8.8778   19.8970 H   0  0  0  0  0  0
  -22.3682  -10.9702   19.6201 H   0  0  0  0  0  0
  -21.1972   -7.6152   23.9736 H   0  0  0  0  0  0
  -21.1499   -6.0527   25.9101 H   0  0  0  0  0  0
  -22.0598   -2.7619   23.2853 H   0  0  0  0  0  0
  -22.3918  -11.9914   22.4872 H   0  0  0  0  0  0
  -21.1013  -13.1358   22.2574 H   0  0  0  0  0  0
  -24.6615  -15.8546   20.5676 H   0  0  0  0  0  0
  -26.2662  -15.6377   20.0967 H   0  0  0  0  0  0
  -26.7215  -32.5357   23.0977 H   0  0  0  0  0  0
  -25.0127  -33.9643   25.0350 H   0  0  0  0  0  0
  -22.7258  -31.3026   21.3871 H   0  0  0  0  0  0
  -23.3716  -35.9671   23.3307 H   0  0  0  0  0  0
  -24.3612  -36.8932   22.2048 H   0  0  0  0  0  0
  -23.7339  -37.6515   23.6702 H   0  0  0  0  0  0
  -26.1084  -31.5212   20.5966 H   0  0  0  0  0  0
  -26.8545  -30.8222   21.9988 H   0  0  0  0  0  0
  -28.1029  -28.9080   21.2192 H   0  0  0  0  0  0
  -25.9189  -25.9332   18.9584 H   0  0  0  0  0  0
  -23.9734  -27.3297   18.9614 H   0  0  0  0  0  0
  -23.7757  -30.5967   19.3979 H   0  0  0  0  0  0
  -22.7643  -29.2555   19.8356 H   0  0  0  0  0  0
  -25.1321  -36.1808   25.0793 H   0  0  0  0  0  0
  -20.9991  -28.3363   24.1378 H   0  0  0  0  0  0
  -20.5730  -26.2370   23.3644 H   0  0  0  0  0  0
  -21.6664  -26.7504   22.1184 H   0  0  0  0  0  0
  -19.6947  -25.6330   21.1262 H   0  0  0  0  0  0
  -19.6698  -27.3210   20.6759 H   0  0  0  0  0  0
  -17.4215  -26.6716   21.4004 H   0  0  0  0  0  0
  -18.0299  -26.0117   22.9020 H   0  0  0  0  0  0
  -19.7955  -30.7300   24.2250 H   0  0  0  0  0  0
  -17.5036  -31.6274   24.5207 H   0  0  0  0  0  0
  -15.5371  -30.3028   23.7663 H   0  0  0  0  0  0
  -15.8670  -28.0885   22.7022 H   0  0  0  0  0  0
  -24.6046  -30.6946   25.7743 H   0  0  0  0  0  0
  -24.8970  -32.2826   26.4736 H   0  0  0  0  0  0
  -25.8188  -30.8922   27.0163 H   0  0  0  0  0  0
  -26.2936  -29.6622   24.1250 H   0  0  0  0  0  0
  -27.4185  -29.7211   25.4613 H   0  0  0  0  0  0
  -27.8808  -30.4139   23.9271 H   0  0  0  0  0  0
  -27.2679  -33.3605   26.1927 H   0  0  0  0  0  0
  -28.3994  -32.6759   25.0344 H   0  0  0  0  0  0
  -28.0672  -31.8441   26.5452 H   0  0  0  0  0  0
  -28.2554  -38.0102   24.7454 H   0  0  0  0  0  0
  -28.1054  -36.2619   24.6311 H   0  0  0  0  0  0
  -27.2279  -37.1487   25.8858 H   0  0  0  0  0  0
  -20.9376  -29.8818   21.6835 H   0  0  0  0  0  0
  -26.0115  -38.2791   24.1395 H   0  0  0  0  0  0
  -28.6071  -20.2044   18.5175 H   0  0  0  0  0  0
  -29.4195  -16.1452   18.6964 H   0  0  0  0  0  0
  -27.9018  -15.2278   21.7609 H   0  0  0  0  0  0
  -28.4070  -16.4517   22.8571 H   0  0  0  0  0  0
  -28.9956  -14.8495   23.1261 H   0  0  0  0  0  0
  -30.8328  -17.0223   23.1508 H   0  0  0  0  0  0
  -32.0330  -16.5849   21.9412 H   0  0  0  0  0  0
  -31.4188  -15.3797   23.0649 H   0  0  0  0  0  0
  -30.2545  -23.4469   22.3606 H   0  0  0  0  0  0
  -30.1215  -25.1035   21.7954 H   0  0  0  0  0  0
  -30.8373  -23.8797   20.7606 H   0  0  0  0  0  0
  -27.7396  -23.0124   22.7532 H   0  0  0  0  0  0
  -26.5906  -23.6529   21.5918 H   0  0  0  0  0  0
  -27.6017  -24.7488   22.5241 H   0  0  0  0  0  0
  -29.9105  -21.0815   21.7643 H   0  0  0  0  0  0
  -28.2076  -20.8574   21.9463 H   0  0  0  0  0  0
  -27.7953  -22.0744   19.7431 H   0  0  0  0  0  0
  -29.5024  -22.2520   19.5219 H   0  0  0  0  0  0
  -27.3373  -24.6262   19.4091 H   0  0  0  0  0  0
  -28.9806  -24.8410   19.0095 H   0  0  0  0  0  0
  1 25  1  0  0  0
  1 30  2  0  0  0
  1 82  1  0  0  0
  2  3  1  0  0  0
  2 25  1  0  0  0
  2 86  1  0  0  0
  2 87  1  0  0  0
  3  4  1  0  0  0
  3 88  1  0  0  0
  3 89  1  0  0  0
  4  5  1  0  0  0
  4 90  1  0  0  0
  4 91  1  0  0  0
  5  6  1  0  0  0
  5 26  1  0  0  0
  5 92  1  0  0  0
  6 25  1  0  0  0
  6 93  1  0  0  0
  6 94  1  0  0  0
  7  8  2  0  0  0
  7 26  1  0  0  0
  7 29  1  0  0  0
  8  9  1  0  0  0
  8 22  1  0  0  0
  9 10  1  0  0  0
  9 27  2  0  0  0
 10 11  2  0  0  0
 10 15  1  0  0  0
 11 12  1  0  0  0
 11 95  1  0  0  0
 12 13  2  0  0  0
 12 96  1  0  0  0
 13 14  1  0  0  0
 13 31  1  0  0  0
 14 15  2  0  0  0
 14 97  1  0  0  0
 15 98  1  0  0  0
 16 17  2  0  0  0
 16 21  1  0  0  0
 16 31  1  0  0  0
 17 18  1  0  0  0
 17 99  1  0  0  0
 18 19  2  0  0  0
 18100  1  0  0  0
 19 20  1  0  0  0
 19 24  1  0  0  0
 20 21  2  0  0  0
 20101  1  0  0  0
 21 23  1  0  0  0
 22 28  1  0  0  0
 22 32  2  0  0  0
 26 27  1  0  0  0
 28102  1  0  0  0
 28103  1  0  0  0
 29104  1  0  0  0
 29105  1  0  0  0
 33 34  1  0  0  0
 33 66  1  0  0  0
 33 70  2  0  0  0
 34 36  1  0  0  0
 34 59  1  0  0  0
 34106  1  0  0  0
 35 44  2  0  0  0
 35 45  1  0  0  0
 35 68  1  0  0  0
 36 56  1  0  0  0
 36107  1  0  0  0
 37 39  1  0  0  0
 37 47  1  0  0  0
 37 66  1  0  0  0
 37108  1  0  0  0
 38 43  2  0  0  0
 38 46  1  0  0  0
 38 47  1  0  0  0
 39 64  1  0  0  0
 39 67  2  0  0  0
 40 52  1  0  0  0
 40 53  2  0  0  0
 40 58  1  0  0  0
 41109  1  0  0  0
 41110  1  0  0  0
 41111  1  0  0  0
 41 48  1  0  0  0
 42 43  1  0  0  0
 42 66  1  0  0  0
 42112  1  0  0  0
 42113  1  0  0  0
 43 44  1  0  0  0
 44114  1  0  0  0
 45 46  2  0  0  0
 45115  1  0  0  0
 46116  1  0  0  0
 47117  1  0  0  0
 47118  1  0  0  0
 48 56  1  0  0  0
 48 65  1  0  0  0
 48119  1  0  0  0
 49 50  1  0  0  0
 49 53  1  0  0  0
 49 64  1  0  0  0
 49120  1  0  0  0
 50 51  1  0  0  0
 50121  1  0  0  0
 50122  1  0  0  0
 51 52  1  0  0  0
 51123  1  0  0  0
 51124  1  0  0  0
 52125  1  0  0  0
 52126  1  0  0  0
 53 54  1  0  0  0
 54 55  2  0  0  0
 54127  1  0  0  0
 55 57  1  0  0  0
 55128  1  0  0  0
 56 69  2  0  0  0
 57 58  2  0  0  0
 57129  1  0  0  0
 58130  1  0  0  0
 59 60  1  0  0  0
 59 61  1  0  0  0
 59 62  1  0  0  0
 60131  1  0  0  0
 60132  1  0  0  0
 60133  1  0  0  0
 61134  1  0  0  0
 61135  1  0  0  0
 61136  1  0  0  0
 62137  1  0  0  0
 62138  1  0  0  0
 62139  1  0  0  0
 63 65  1  0  0  0
 63140  1  0  0  0
 63141  1  0  0  0
 63142  1  0  0  0
 64143  1  0  0  0
 65144  1  0  0  0
 68 81  1  0  0  0
 71 73  2  0  0  0
 71 84  1  0  0  0
 71145  1  0  0  0
 72 74  1  0  0  0
 72 84  2  0  0  0
 72146  1  0  0  0
 73 79  1  0  0  0
 73 85  1  0  0  0
 74 82  1  0  0  0
 74 85  2  0  0  0
 75147  1  0  0  0
 75148  1  0  0  0
 75149  1  0  0  0
 75 82  1  0  0  0
 76 82  1  0  0  0
 76150  1  0  0  0
 76151  1  0  0  0
 76152  1  0  0  0
 77153  1  0  0  0
 77154  1  0  0  0
 77155  1  0  0  0
 77 83  1  0  0  0
 78 83  1  0  0  0
 78156  1  0  0  0
 78157  1  0  0  0
 78158  1  0  0  0
 79 80  1  0  0  0
 79159  1  0  0  0
 79160  1  0  0  0
 80 83  1  0  0  0
 80161  1  0  0  0
 80162  1  0  0  0
 81 83  1  0  0  0
 81163  1  0  0  0
 81164  1  0  0  0
M  ISO  4   1 100  68 101  81 101  82 100
M  END
> <chiral flag>
0

> <version>
0

> <s_m_source_file>
/data/baiqing/PycharmProjects/Reinvent-master-3.2/result/LINK_invent/BTK/process_docking_weight1_custom_sum_contain_oxygen_bond_distance_aromatic_linkinvent_7_9_3/rearranged_h_0069.sdf

> <i_m_source_file_index>
14

> <r_mmod_Potential_Energy-OPLS-2005>
299.802795410156

> <r_mmod_Stretch_Energy-OPLS-2005>
130.234130859375

> <r_mmod_Bend_Energy-OPLS-2005>
199.017501831055

> <r_mmod_Torsional_Energy-OPLS-2005>
180.524765014648

> <r_mmod_Improper_Torsional_Energy-OPLS-2005>
2.15275073051453

> <r_mmod_Van_der_Waal_Energy-OPLS-2005>
160.483703613281

> <r_mmod_Electrostatic_Energy-OPLS-2005>
-239.776763916016

> <r_mmod_Solvation_Energy-OPLS-2005>
-190.612701416016

> <b_mmod_Minimization_Converged-OPLS-2005>
0

> <r_mmod_RMS_Derivative-OPLS-2005>
7.33308935165405

$$$$
14
                    3D
 Structure written by MMmdl.
173181  0  0  1  0            999 V2000
  -30.6468  -14.5636   20.4144 C   0  0  0  0  0  0
  -30.4228  -12.3288   19.4170 C   0  0  0  0  0  0
  -29.4871  -12.4771   18.1975 C   0  0  0  0  0  0
  -28.0117  -12.3278   18.6199 C   0  0  0  0  0  0
  -27.6513  -13.1929   19.8568 C   0  0  2  0  0  0
  -28.7081  -13.0513   20.9776 C   0  0  0  0  0  0
  -25.2597  -13.8111   20.5681 C   0  0  0  0  0  0
  -24.1851  -13.0428   20.9210 C   0  0  0  0  0  0
  -24.6373  -11.6880   20.8732 C   0  0  0  0  0  0
  -23.9061  -10.4278   21.0398 C   0  0  0  0  0  0
  -24.3614   -9.4202   21.9176 C   0  0  0  0  0  0
  -23.6296   -8.2238   22.0789 C   0  0  0  0  0  0
  -22.4273   -8.0281   21.3589 C   0  0  0  0  0  0
  -21.9900   -9.0242   20.4680 C   0  0  0  0  0  0
  -22.7220  -10.2115   20.3075 C   0  0  0  0  0  0
  -21.6860   -6.0743   22.5282 C   0  0  0  0  0  0
  -21.4007   -6.5652   23.8220 C   0  0  0  0  0  0
  -21.3655   -5.6807   24.9179 C   0  0  0  0  0  0
  -21.6042   -4.3070   24.7215 C   0  0  0  0  0  0
  -21.8816   -3.8168   23.4341 C   0  0  0  0  0  0
  -21.9205   -4.6983   22.3398 C   0  0  0  0  0  0
  -22.7872  -13.5234   21.1868 C   0  0  0  0  0  0
  -22.1665   -4.2184   21.0968 F   0  0  0  0  0  0
  -21.5642   -3.4550   25.7721 F   0  0  0  0  0  0
  -30.0218  -13.3544   20.3903 N   0  0  0  0  0  0
  -26.3000  -12.9233   20.3338 N   0  0  0  0  0  0
  -25.9307  -11.6424   20.5784 N   0  0  0  0  0  0
  -22.0531  -12.8212   22.0380 N   0  0  0  0  0  0
  -25.4316  -15.1828   20.4004 N   0  0  0  0  0  0
  -31.8439  -14.6988   20.1514 O   0  0  0  0  0  0
  -21.6653   -6.8878   21.4253 O   0  0  0  0  0  0
  -22.3544  -14.5552   20.6720 O   0  0  0  0  0  0
  -24.6196  -31.8608   23.2007 C   0  0  0  0  0  0
  -25.9054  -32.4787   23.8345 C   0  0  1  0  0  0
  -27.2518  -27.3719   20.1033 C   0  0  0  0  0  0
  -25.5898  -33.8581   24.2268 N   0  0  0  0  0  0
  -23.4152  -30.4761   21.5434 C   0  0  2  0  0  0
  -24.8701  -28.9288   20.1186 C   0  0  0  0  0  0
  -22.7459  -29.4580   22.4953 C   0  0  0  0  0  0
  -18.0291  -28.1366   22.8487 C   0  0  0  0  0  0
  -24.1495  -36.7277   23.2639 C   0  0  0  0  0  0
  -25.9505  -30.8048   21.3685 C   0  0  0  0  0  0
  -26.0330  -29.4340   20.7144 C   0  0  0  0  0  0
  -27.2286  -28.6650   20.6955 C   0  0  0  0  0  0
  -26.0656  -26.8922   19.5102 C   0  0  0  0  0  0
  -24.8845  -27.6606   19.5132 C   0  0  0  0  0  0
  -23.6308  -29.7976   20.1629 C   0  0  0  0  0  0
  -25.4131  -36.3071   24.0321 C   0  0  1  0  0  0
  -20.5884  -28.3654   23.1304 C   0  0  2  0  0  0
  -20.6766  -26.9380   22.5415 C   0  0  0  0  0  0
  -19.5755  -26.6370   21.5205 C   0  0  0  0  0  0
  -18.1938  -26.7911   22.1618 C   0  0  0  0  0  0
  -19.1541  -28.8836   23.2887 C   0  0  0  0  0  0
  -18.9461  -30.1439   23.8904 C   0  0  0  0  0  0
  -17.6458  -30.6578   24.0559 C   0  0  0  0  0  0
  -25.9061  -34.9443   23.5103 C   0  0  0  0  0  0
  -16.5352  -29.9073   23.6330 C   0  0  0  0  0  0
  -16.7277  -28.6481   23.0360 C   0  0  0  0  0  0
  -26.4457  -31.6604   25.0711 C   0  0  0  0  0  0
  -25.3695  -31.3775   26.1448 C   0  0  0  0  0  0
  -27.0281  -30.3036   24.6130 C   0  0  0  0  0  0
  -27.6040  -32.4334   25.7462 C   0  0  0  0  0  0
  -27.5584  -37.1801   24.8470 C   0  0  0  0  0  0
  -21.4180  -29.3006   22.3711 N   0  0  0  0  0  0
  -26.4308  -37.3768   23.9400 N   0  0  0  0  0  0
  -24.6798  -31.0629   22.0956 N   0  0  0  0  0  0
  -23.4196  -28.8122   23.3024 O   0  0  0  0  0  0
  -28.4155  -26.6078   20.0661 O   0  0  0  0  0  0
  -26.5616  -34.8908   22.4658 O   0  0  0  0  0  0
  -23.5371  -32.1350   23.7377 O   0  0  0  0  0  0
  -29.2988  -20.1263   19.3614 C   0  0  0  0  0  0
  -30.2380  -19.6050   17.2133 C   0  0  0  0  0  0
  -29.7582  -19.1205   18.4560 C   0  0  0  0  0  0
  -29.3594  -21.5108   19.0096 C   0  0  0  0  0  0
  -30.2495  -20.9827   16.9151 C   0  0  0  0  0  0
  -30.4301  -16.7488   17.6575 C   0  0  0  0  0  0
  -28.1392  -17.2075   18.4936 C   0  0  0  0  0  0
  -29.5902  -22.3831   14.9148 C   0  0  0  0  0  0
  -31.0305  -20.4055   14.5216 C   0  0  0  0  0  0
  -31.9880  -22.3682   15.7122 C   0  0  0  0  0  0
  -28.8911  -22.6393   19.9698 C   0  0  0  0  0  0
  -28.8564  -24.1312   19.4450 C   0  0  0  0  0  0
  -30.1005  -17.0680   20.1278 C   0  0  0  0  0  0
  -28.3561  -25.2069   20.4771 C   0  0  0  0  0  0
  -29.6243  -17.5670   18.7062 C   0  0  0  0  0  0
  -30.7097  -21.5254   15.5421 C   0  0  0  0  0  0
  -29.8419  -21.9092   17.8140 N   0  0  0  0  0  0
  -29.8149  -15.6328   20.4407 N   0  0  0  0  0  0
  -31.4651  -12.4340   19.1085 H   0  0  0  0  0  0
  -30.3346  -11.3326   19.8504 H   0  0  0  0  0  0
  -29.7297  -11.7374   17.4324 H   0  0  0  0  0  0
  -29.6350  -13.4533   17.7349 H   0  0  0  0  0  0
  -27.8320  -11.2721   18.8365 H   0  0  0  0  0  0
  -27.3581  -12.5810   17.7836 H   0  0  0  0  0  0
  -27.6640  -14.2217   19.5086 H   0  0  0  0  0  0
  -28.7098  -12.0415   21.3945 H   0  0  0  0  0  0
  -28.4859  -13.7226   21.8085 H   0  0  0  0  0  0
  -25.2757   -9.5694   22.4738 H   0  0  0  0  0  0
  -24.0054   -7.4614   22.7473 H   0  0  0  0  0  0
  -21.0876   -8.8721   19.8922 H   0  0  0  0  0  0
  -22.3692  -10.9654   19.6185 H   0  0  0  0  0  0
  -21.1988   -7.6154   23.9724 H   0  0  0  0  0  0
  -21.1476   -6.0542   25.9088 H   0  0  0  0  0  0
  -22.0602   -2.7639   23.2823 H   0  0  0  0  0  0
  -22.4180  -11.9859   22.4688 H   0  0  0  0  0  0
  -21.1158  -13.1235   22.2641 H   0  0  0  0  0  0
  -24.6559  -15.8301   20.5009 H   0  0  0  0  0  0
  -26.2679  -15.6220   20.0423 H   0  0  0  0  0  0
  -26.7127  -32.5476   23.1108 H   0  0  0  0  0  0
  -25.0063  -33.9746   25.0418 H   0  0  0  0  0  0
  -22.7083  -31.2937   21.3919 H   0  0  0  0  0  0
  -23.3772  -35.9594   23.3300 H   0  0  0  0  0  0
  -24.3577  -36.8913   22.2055 H   0  0  0  0  0  0
  -23.7228  -37.6470   23.6670 H   0  0  0  0  0  0
  -26.0783  -31.5705   20.6028 H   0  0  0  0  0  0
  -26.8278  -30.8516   21.9991 H   0  0  0  0  0  0
  -28.1280  -29.0529   21.1543 H   0  0  0  0  0  0
  -26.0555  -25.9215   19.0355 H   0  0  0  0  0  0
  -23.9903  -27.2661   19.0491 H   0  0  0  0  0  0
  -23.7423  -30.5614   19.3926 H   0  0  0  0  0  0
  -22.7568  -29.2102   19.8731 H   0  0  0  0  0  0
  -25.1318  -36.1932   25.0816 H   0  0  0  0  0  0
  -20.9977  -28.3200   24.1417 H   0  0  0  0  0  0
  -20.5681  -26.2234   23.3597 H   0  0  0  0  0  0
  -21.6638  -26.7408   22.1210 H   0  0  0  0  0  0
  -19.6920  -25.6282   21.1241 H   0  0  0  0  0  0
  -19.6723  -27.3170   20.6733 H   0  0  0  0  0  0
  -17.4207  -26.6663   21.4021 H   0  0  0  0  0  0
  -18.0347  -26.0047   22.9013 H   0  0  0  0  0  0
  -19.7941  -30.7251   24.2286 H   0  0  0  0  0  0
  -17.5019  -31.6273   24.5135 H   0  0  0  0  0  0
  -15.5357  -30.2977   23.7654 H   0  0  0  0  0  0
  -15.8673  -28.0809   22.7076 H   0  0  0  0  0  0
  -24.5812  -30.7201   25.7769 H   0  0  0  0  0  0
  -24.8944  -32.2966   26.4897 H   0  0  0  0  0  0
  -25.7978  -30.8908   27.0214 H   0  0  0  0  0  0
  -26.2821  -29.6825   24.1159 H   0  0  0  0  0  0
  -27.4007  -29.7272   25.4605 H   0  0  0  0  0  0
  -27.8689  -30.4358   23.9314 H   0  0  0  0  0  0
  -27.2697  -33.3696   26.1956 H   0  0  0  0  0  0
  -28.3880  -32.6799   25.0285 H   0  0  0  0  0  0
  -28.0656  -31.8494   26.5441 H   0  0  0  0  0  0
  -28.2614  -38.0083   24.7489 H   0  0  0  0  0  0
  -28.1065  -36.2607   24.6345 H   0  0  0  0  0  0
  -27.2282  -37.1512   25.8868 H   0  0  0  0  0  0
  -20.9353  -29.8728   21.6927 H   0  0  0  0  0  0
  -26.0193  -38.2849   24.1389 H   0  0  0  0  0  0
  -28.8796  -19.8413   20.3173 H   0  0  0  0  0  0
  -30.5810  -18.9177   16.4616 H   0  0  0  0  0  0
  -30.0452  -16.8752   16.6456 H   0  0  0  0  0  0
  -30.3923  -15.6758   17.8403 H   0  0  0  0  0  0
  -31.4861  -17.0258   17.6536 H   0  0  0  0  0  0
  -27.7842  -17.5671   17.5275 H   0  0  0  0  0  0
  -27.4997  -17.6481   19.2574 H   0  0  0  0  0  0
  -27.9755  -16.1330   18.4974 H   0  0  0  0  0  0
  -28.6865  -21.7914   14.7550 H   0  0  0  0  0  0
  -29.8915  -22.7886   13.9495 H   0  0  0  0  0  0
  -29.3180  -23.2247   15.5507 H   0  0  0  0  0  0
  -30.1620  -19.7705   14.3320 H   0  0  0  0  0  0
  -31.8550  -19.7719   14.8548 H   0  0  0  0  0  0
  -31.3299  -20.8231   13.5596 H   0  0  0  0  0  0
  -31.8266  -23.2172   16.3786 H   0  0  0  0  0  0
  -32.3284  -22.7633   14.7554 H   0  0  0  0  0  0
  -32.8010  -21.7698   16.1285 H   0  0  0  0  0  0
  -29.5299  -22.5944   20.8513 H   0  0  0  0  0  0
  -27.8935  -22.3646   20.3094 H   0  0  0  0  0  0
  -28.2343  -24.1871   18.5516 H   0  0  0  0  0  0
  -29.8635  -24.4011   19.1271 H   0  0  0  0  0  0
  -29.6065  -17.6576   20.8984 H   0  0  0  0  0  0
  -31.1667  -17.2694   20.2443 H   0  0  0  0  0  0
  -28.9959  -25.1369   21.3582 H   0  0  0  0  0  0
  -27.3607  -24.9438   20.8354 H   0  0  0  0  0  0
  -28.8454  -15.4077   20.6049 H   0  0  0  0  0  0
  1 25  1  0  0  0
  1 30  2  0  0  0
  1 88  1  0  0  0
  2  3  1  0  0  0
  2 25  1  0  0  0
  2 89  1  0  0  0
  2 90  1  0  0  0
  3  4  1  0  0  0
  3 91  1  0  0  0
  3 92  1  0  0  0
  4  5  1  0  0  0
  4 93  1  0  0  0
  4 94  1  0  0  0
  5  6  1  0  0  0
  5 26  1  0  0  0
  5 95  1  0  0  0
  6 25  1  0  0  0
  6 96  1  0  0  0
  6 97  1  0  0  0
  7  8  2  0  0  0
  7 26  1  0  0  0
  7 29  1  0  0  0
  8  9  1  0  0  0
  8 22  1  0  0  0
  9 10  1  0  0  0
  9 27  2  0  0  0
 10 11  2  0  0  0
 10 15  1  0  0  0
 11 12  1  0  0  0
 11 98  1  0  0  0
 12 13  2  0  0  0
 12 99  1  0  0  0
 13 14  1  0  0  0
 13 31  1  0  0  0
 14 15  2  0  0  0
 14100  1  0  0  0
 15101  1  0  0  0
 16 17  2  0  0  0
 16 21  1  0  0  0
 16 31  1  0  0  0
 17 18  1  0  0  0
 17102  1  0  0  0
 18 19  2  0  0  0
 18103  1  0  0  0
 19 20  1  0  0  0
 19 24  1  0  0  0
 20 21  2  0  0  0
 20104  1  0  0  0
 21 23  1  0  0  0
 22 28  1  0  0  0
 22 32  2  0  0  0
 26 27  1  0  0  0
 28105  1  0  0  0
 28106  1  0  0  0
 29107  1  0  0  0
 29108  1  0  0  0
 33 34  1  0  0  0
 33 66  1  0  0  0
 33 70  2  0  0  0
 34 36  1  0  0  0
 34 59  1  0  0  0
 34109  1  0  0  0
 35 44  2  0  0  0
 35 45  1  0  0  0
 35 68  1  0  0  0
 36 56  1  0  0  0
 36110  1  0  0  0
 37 39  1  0  0  0
 37 47  1  0  0  0
 37 66  1  0  0  0
 37111  1  0  0  0
 38 43  2  0  0  0
 38 46  1  0  0  0
 38 47  1  0  0  0
 39 64  1  0  0  0
 39 67  2  0  0  0
 40 52  1  0  0  0
 40 53  2  0  0  0
 40 58  1  0  0  0
 41112  1  0  0  0
 41113  1  0  0  0
 41114  1  0  0  0
 41 48  1  0  0  0
 42 43  1  0  0  0
 42 66  1  0  0  0
 42115  1  0  0  0
 42116  1  0  0  0
 43 44  1  0  0  0
 44117  1  0  0  0
 45 46  2  0  0  0
 45118  1  0  0  0
 46119  1  0  0  0
 47120  1  0  0  0
 47121  1  0  0  0
 48 56  1  0  0  0
 48 65  1  0  0  0
 48122  1  0  0  0
 49 50  1  0  0  0
 49 53  1  0  0  0
 49 64  1  0  0  0
 49123  1  0  0  0
 50 51  1  0  0  0
 50124  1  0  0  0
 50125  1  0  0  0
 51 52  1  0  0  0
 51126  1  0  0  0
 51127  1  0  0  0
 52128  1  0  0  0
 52129  1  0  0  0
 53 54  1  0  0  0
 54 55  2  0  0  0
 54130  1  0  0  0
 55 57  1  0  0  0
 55131  1  0  0  0
 56 69  2  0  0  0
 57 58  2  0  0  0
 57132  1  0  0  0
 58133  1  0  0  0
 59 60  1  0  0  0
 59 61  1  0  0  0
 59 62  1  0  0  0
 60134  1  0  0  0
 60135  1  0  0  0
 60136  1  0  0  0
 61137  1  0  0  0
 61138  1  0  0  0
 61139  1  0  0  0
 62140  1  0  0  0
 62141  1  0  0  0
 62142  1  0  0  0
 63 65  1  0  0  0
 63143  1  0  0  0
 63144  1  0  0  0
 63145  1  0  0  0
 64146  1  0  0  0
 65147  1  0  0  0
 68 84  1  0  0  0
 71 73  2  0  0  0
 71 74  1  0  0  0
 71148  1  0  0  0
 72 73  1  0  0  0
 72 75  2  0  0  0
 72149  1  0  0  0
 73 85  1  0  0  0
 74 81  1  0  0  0
 74 87  2  0  0  0
 75 86  1  0  0  0
 75 87  1  0  0  0
 76150  1  0  0  0
 76151  1  0  0  0
 76152  1  0  0  0
 76 85  1  0  0  0
 77 85  1  0  0  0
 77153  1  0  0  0
 77154  1  0  0  0
 77155  1  0  0  0
 78156  1  0  0  0
 78157  1  0  0  0
 78158  1  0  0  0
 78 86  1  0  0  0
 79 86  1  0  0  0
 79159  1  0  0  0
 79160  1  0  0  0
 79161  1  0  0  0
 80 86  1  0  0  0
 80162  1  0  0  0
 80163  1  0  0  0
 80164  1  0  0  0
 81 82  1  0  0  0
 81165  1  0  0  0
 81166  1  0  0  0
 82 84  1  0  0  0
 82167  1  0  0  0
 82168  1  0  0  0
 83 85  1  0  0  0
 83 88  1  0  0  0
 83169  1  0  0  0
 83170  1  0  0  0
 84171  1  0  0  0
 84172  1  0  0  0
 88173  1  0  0  0
M  ISO  4   1 100  68 101  84 101  88 100
M  END
> <chiral flag>
0

> <version>
0

> <s_m_source_file>
/data/baiqing/PycharmProjects/Reinvent-master-3.2/result/LINK_invent/BTK/process_docking_weight1_custom_sum_contain_oxygen_bond_distance_aromatic_linkinvent_7_9_3/rearranged_h_0069.sdf

> <i_m_source_file_index>
15

> <r_mmod_Potential_Energy-OPLS-2005>
-256.385864257812

> <r_mmod_Stretch_Energy-OPLS-2005>
65.5648345947266

> <r_mmod_Bend_Energy-OPLS-2005>
128.327087402344

> <r_mmod_Torsional_Energy-OPLS-2005>
227.963363647461

> <r_mmod_Improper_Torsional_Energy-OPLS-2005>
8.19262599945068

> <r_mmod_Van_der_Waal_Energy-OPLS-2005>
155.797988891602

> <r_mmod_Electrostatic_Energy-OPLS-2005>
-667.058532714844

> <r_mmod_Solvation_Energy-OPLS-2005>
-206.813766479492

> <b_mmod_Minimization_Converged-OPLS-2005>
0

> <r_mmod_RMS_Derivative-OPLS-2005>
4.08996105194092

$$$$
15
                    3D
 Structure written by MMmdl.
151159  0  0  1  0            999 V2000
  -30.5447  -14.9554   20.4110 C   0  0  0  0  0  0
  -30.4370  -12.5878   19.5118 C   0  0  0  0  0  0
  -29.5241  -12.5316   18.2645 C   0  0  0  0  0  0
  -28.0565  -12.3187   18.6782 C   0  0  0  0  0  0
  -27.6307  -13.2513   19.8425 C   0  0  2  0  0  0
  -28.6706  -13.2848   20.9840 C   0  0  0  0  0  0
  -25.2459  -13.8223   20.5717 C   0  0  0  0  0  0
  -24.1777  -13.0442   20.9226 C   0  0  0  0  0  0
  -24.6397  -11.6928   20.8752 C   0  0  0  0  0  0
  -23.9082  -10.4296   21.0404 C   0  0  0  0  0  0
  -24.3629   -9.4210   21.9182 C   0  0  0  0  0  0
  -23.6302   -8.2245   22.0753 C   0  0  0  0  0  0
  -22.4282   -8.0283   21.3544 C   0  0  0  0  0  0
  -21.9921   -9.0258   20.4645 C   0  0  0  0  0  0
  -22.7253  -10.2136   20.3054 C   0  0  0  0  0  0
  -21.6856   -6.0738   22.5279 C   0  0  0  0  0  0
  -21.4017   -6.5641   23.8213 C   0  0  0  0  0  0
  -21.3660   -5.6792   24.9174 C   0  0  0  0  0  0
  -21.6044   -4.3055   24.7224 C   0  0  0  0  0  0
  -21.8819   -3.8147   23.4345 C   0  0  0  0  0  0
  -21.9194   -4.6965   22.3402 C   0  0  0  0  0  0
  -22.7796  -13.5209   21.1881 C   0  0  0  0  0  0
  -22.1662   -4.2150   21.0980 F   0  0  0  0  0  0
  -21.5628   -3.4538   25.7737 F   0  0  0  0  0  0
  -29.9500  -13.6927   20.3907 N   0  0  0  0  0  0
  -26.2890  -12.9462   20.3260 N   0  0  0  0  0  0
  -25.9332  -11.6587   20.5745 N   0  0  0  0  0  0
  -22.0451  -12.8194   22.0437 N   0  0  0  0  0  0
  -25.4120  -15.1953   20.4144 N   0  0  0  0  0  0
  -31.7373  -15.0146   20.0941 O   0  0  0  0  0  0
  -21.6644   -6.8881   21.4241 O   0  0  0  0  0  0
  -22.3477  -14.5512   20.6724 O   0  0  0  0  0  0
  -24.6448  -31.8424   23.1876 C   0  0  0  0  0  0
  -25.9214  -32.4685   23.8268 C   0  0  1  0  0  0
  -27.2143  -27.1153   20.1512 C   0  0  0  0  0  0
  -25.5956  -33.8493   24.2182 N   0  0  0  0  0  0
  -23.4495  -30.4618   21.5330 C   0  0  2  0  0  0
  -24.9001  -28.8887   20.1063 C   0  0  0  0  0  0
  -22.7576  -29.4535   22.4847 C   0  0  0  0  0  0
  -18.0307  -28.1397   22.8476 C   0  0  0  0  0  0
  -24.1492  -36.7251   23.2643 C   0  0  0  0  0  0
  -26.0072  -30.7074   21.3927 C   0  0  0  0  0  0
  -26.0763  -29.3175   20.7336 C   0  0  0  0  0  0
  -27.2311  -28.4448   20.7445 C   0  0  0  0  0  0
  -26.0188  -26.8058   19.4630 C   0  0  0  0  0  0
  -24.8859  -27.6474   19.4550 C   0  0  0  0  0  0
  -23.6773  -29.7924   20.1516 C   0  0  0  0  0  0
  -25.4125  -36.3026   24.0314 C   0  0  1  0  0  0
  -20.5920  -28.3724   23.1230 C   0  0  2  0  0  0
  -20.6789  -26.9425   22.5404 C   0  0  0  0  0  0
  -19.5763  -26.6380   21.5213 C   0  0  0  0  0  0
  -18.1944  -26.7934   22.1624 C   0  0  0  0  0  0
  -19.1564  -28.8879   23.2844 C   0  0  0  0  0  0
  -18.9479  -30.1474   23.8871 C   0  0  0  0  0  0
  -17.6475  -30.6592   24.0559 C   0  0  0  0  0  0
  -25.9077  -34.9402   23.5058 C   0  0  0  0  0  0
  -16.5366  -29.9084   23.6337 C   0  0  0  0  0  0
  -16.7291  -28.6503   23.0357 C   0  0  0  0  0  0
  -26.4530  -31.6562   25.0719 C   0  0  0  0  0  0
  -25.3707  -31.3757   26.1409 C   0  0  0  0  0  0
  -27.0404  -30.2954   24.6324 C   0  0  0  0  0  0
  -27.6054  -32.4336   25.7506 C   0  0  0  0  0  0
  -27.5576  -37.1783   24.8466 C   0  0  0  0  0  0
  -21.4266  -29.3046   22.3598 N   0  0  0  0  0  0
  -26.4287  -37.3741   23.9407 N   0  0  0  0  0  0
  -24.7202  -31.0259   22.0924 N   0  0  0  0  0  0
  -23.4211  -28.8084   23.3005 O   0  0  0  0  0  0
  -28.2495  -26.1063   20.2588 O   0  0  0  0  0  0
  -26.5665  -34.8902   22.4639 O   0  0  0  0  0  0
  -23.5563  -32.1313   23.7082 O   0  0  0  0  0  0
  -27.7616  -20.7880   17.6381 C   0  0  0  0  0  0
  -28.2847  -19.7652   18.4478 C   0  0  0  0  0  0
  -27.9330  -21.9570   18.2994 C   0  0  0  0  0  0
  -28.8074  -20.2726   19.6104 C   0  0  0  0  0  0
  -29.3757  -19.1125   20.6149 C   0  0  0  0  0  0
  -28.7916  -23.1343   20.3310 C   0  0  0  0  0  0
  -30.0428  -17.6362   20.0621 C   0  0  0  0  0  0
  -28.0277  -24.6035   19.8687 C   0  0  0  0  0  0
  -28.5575  -21.7736   19.5351 N   0  0  0  0  0  0
  -29.7808  -16.1508   20.5623 N   0  0  0  0  0  0
  -31.4737  -12.7336   19.2044 H   0  0  0  0  0  0
  -30.4199  -11.6368   20.0466 H   0  0  0  0  0  0
  -29.8448  -11.7328   17.5946 H   0  0  0  0  0  0
  -29.6159  -13.4613   17.7006 H   0  0  0  0  0  0
  -27.9510  -11.2773   18.9845 H   0  0  0  0  0  0
  -27.3956  -12.4523   17.8210 H   0  0  0  0  0  0
  -27.5940  -14.2532   19.4138 H   0  0  0  0  0  0
  -28.7544  -12.3120   21.4705 H   0  0  0  0  0  0
  -28.3684  -13.9928   21.7572 H   0  0  0  0  0  0
  -25.2772   -9.5686   22.4760 H   0  0  0  0  0  0
  -24.0010   -7.4637   22.7473 H   0  0  0  0  0  0
  -21.0852   -8.8779   19.8952 H   0  0  0  0  0  0
  -22.3709  -10.9675   19.6165 H   0  0  0  0  0  0
  -21.2009   -7.6149   23.9717 H   0  0  0  0  0  0
  -21.1482   -6.0522   25.9077 H   0  0  0  0  0  0
  -22.0598   -2.7609   23.2844 H   0  0  0  0  0  0
  -22.4080  -11.9863   22.4828 H   0  0  0  0  0  0
  -21.1064  -13.1206   22.2643 H   0  0  0  0  0  0
  -24.6406  -15.8448   20.5235 H   0  0  0  0  0  0
  -26.2526  -15.6368   20.0651 H   0  0  0  0  0  0
  -26.7277  -32.5283   23.0991 H   0  0  0  0  0  0
  -25.0076  -33.9605   25.0312 H   0  0  0  0  0  0
  -22.7530  -31.2885   21.3784 H   0  0  0  0  0  0
  -23.3760  -35.9577   23.3291 H   0  0  0  0  0  0
  -24.3576  -36.8899   22.2060 H   0  0  0  0  0  0
  -23.7242  -37.6440   23.6690 H   0  0  0  0  0  0
  -26.1680  -31.4607   20.6203 H   0  0  0  0  0  0
  -26.8758  -30.7563   22.0377 H   0  0  0  0  0  0
  -28.1211  -28.7630   21.2692 H   0  0  0  0  0  0
  -25.9159  -25.8686   18.9385 H   0  0  0  0  0  0
  -23.9920  -27.3189   18.9426 H   0  0  0  0  0  0
  -23.8145  -30.5678   19.3971 H   0  0  0  0  0  0
  -22.7917  -29.2356   19.8401 H   0  0  0  0  0  0
  -25.1315  -36.1852   25.0806 H   0  0  0  0  0  0
  -21.0013  -28.3317   24.1351 H   0  0  0  0  0  0
  -20.5680  -26.2338   23.3626 H   0  0  0  0  0  0
  -21.6655  -26.7425   22.1204 H   0  0  0  0  0  0
  -19.6923  -25.6284   21.1259 H   0  0  0  0  0  0
  -19.6700  -27.3176   20.6731 H   0  0  0  0  0  0
  -17.4213  -26.6678   21.4028 H   0  0  0  0  0  0
  -18.0343  -26.0082   22.9026 H   0  0  0  0  0  0
  -19.7955  -30.7298   24.2228 H   0  0  0  0  0  0
  -17.5028  -31.6269   24.5165 H   0  0  0  0  0  0
  -15.5365  -30.2977   23.7676 H   0  0  0  0  0  0
  -15.8691  -28.0813   22.7086 H   0  0  0  0  0  0
  -24.5896  -30.7095   25.7728 H   0  0  0  0  0  0
  -24.8885  -32.2940   26.4769 H   0  0  0  0  0  0
  -25.7984  -30.8974   27.0229 H   0  0  0  0  0  0
  -26.3031  -29.6666   24.1319 H   0  0  0  0  0  0
  -27.3992  -29.7266   25.4913 H   0  0  0  0  0  0
  -27.8950  -30.4183   23.9668 H   0  0  0  0  0  0
  -27.2642  -33.3658   26.2019 H   0  0  0  0  0  0
  -28.3897  -32.6862   25.0357 H   0  0  0  0  0  0
  -28.0686  -31.8505   26.5475 H   0  0  0  0  0  0
  -28.2585  -38.0087   24.7511 H   0  0  0  0  0  0
  -28.1080  -36.2615   24.6296 H   0  0  0  0  0  0
  -27.2291  -37.1431   25.8868 H   0  0  0  0  0  0
  -20.9480  -29.8758   21.6773 H   0  0  0  0  0  0
  -26.0152  -38.2808   24.1409 H   0  0  0  0  0  0
  -27.2909  -20.6788   16.6698 H   0  0  0  0  0  0
  -28.2521  -18.7180   18.1841 H   0  0  0  0  0  0
  -27.6242  -22.9248   17.9420 H   0  0  0  0  0  0
  -28.5520  -18.8466   21.2776 H   0  0  0  0  0  0
  -30.1067  -19.5729   21.2802 H   0  0  0  0  0  0
  -28.5527  -22.9394   21.3764 H   0  0  0  0  0  0
  -29.8669  -23.3106   20.3127 H   0  0  0  0  0  0
  -31.1247  -17.7706   20.0953 H   0  0  0  0  0  0
  -29.8497  -17.5697   18.9939 H   0  0  0  0  0  0
  -26.9735  -24.3925   20.0400 H   0  0  0  0  0  0
  -28.1487  -24.6864   18.7915 H   0  0  0  0  0  0
  -28.8307  -15.9798   20.8574 H   0  0  0  0  0  0
  1 25  1  0  0  0
  1 30  2  0  0  0
  1 80  1  0  0  0
  2  3  1  0  0  0
  2 25  1  0  0  0
  2 81  1  0  0  0
  2 82  1  0  0  0
  3  4  1  0  0  0
  3 83  1  0  0  0
  3 84  1  0  0  0
  4  5  1  0  0  0
  4 85  1  0  0  0
  4 86  1  0  0  0
  5  6  1  0  0  0
  5 26  1  0  0  0
  5 87  1  0  0  0
  6 25  1  0  0  0
  6 88  1  0  0  0
  6 89  1  0  0  0
  7  8  2  0  0  0
  7 26  1  0  0  0
  7 29  1  0  0  0
  8  9  1  0  0  0
  8 22  1  0  0  0
  9 10  1  0  0  0
  9 27  2  0  0  0
 10 11  2  0  0  0
 10 15  1  0  0  0
 11 12  1  0  0  0
 11 90  1  0  0  0
 12 13  2  0  0  0
 12 91  1  0  0  0
 13 14  1  0  0  0
 13 31  1  0  0  0
 14 15  2  0  0  0
 14 92  1  0  0  0
 15 93  1  0  0  0
 16 17  2  0  0  0
 16 21  1  0  0  0
 16 31  1  0  0  0
 17 18  1  0  0  0
 17 94  1  0  0  0
 18 19  2  0  0  0
 18 95  1  0  0  0
 19 20  1  0  0  0
 19 24  1  0  0  0
 20 21  2  0  0  0
 20 96  1  0  0  0
 21 23  1  0  0  0
 22 28  1  0  0  0
 22 32  2  0  0  0
 26 27  1  0  0  0
 28 97  1  0  0  0
 28 98  1  0  0  0
 29 99  1  0  0  0
 29100  1  0  0  0
 33 34  1  0  0  0
 33 66  1  0  0  0
 33 70  2  0  0  0
 34 36  1  0  0  0
 34 59  1  0  0  0
 34101  1  0  0  0
 35 44  2  0  0  0
 35 45  1  0  0  0
 35 68  1  0  0  0
 36 56  1  0  0  0
 36102  1  0  0  0
 37 39  1  0  0  0
 37 47  1  0  0  0
 37 66  1  0  0  0
 37103  1  0  0  0
 38 43  2  0  0  0
 38 46  1  0  0  0
 38 47  1  0  0  0
 39 64  1  0  0  0
 39 67  2  0  0  0
 40 52  1  0  0  0
 40 53  2  0  0  0
 40 58  1  0  0  0
 41104  1  0  0  0
 41105  1  0  0  0
 41106  1  0  0  0
 41 48  1  0  0  0
 42 43  1  0  0  0
 42 66  1  0  0  0
 42107  1  0  0  0
 42108  1  0  0  0
 43 44  1  0  0  0
 44109  1  0  0  0
 45 46  2  0  0  0
 45110  1  0  0  0
 46111  1  0  0  0
 47112  1  0  0  0
 47113  1  0  0  0
 48 56  1  0  0  0
 48 65  1  0  0  0
 48114  1  0  0  0
 49 50  1  0  0  0
 49 53  1  0  0  0
 49 64  1  0  0  0
 49115  1  0  0  0
 50 51  1  0  0  0
 50116  1  0  0  0
 50117  1  0  0  0
 51 52  1  0  0  0
 51118  1  0  0  0
 51119  1  0  0  0
 52120  1  0  0  0
 52121  1  0  0  0
 53 54  1  0  0  0
 54 55  2  0  0  0
 54122  1  0  0  0
 55 57  1  0  0  0
 55123  1  0  0  0
 56 69  2  0  0  0
 57 58  2  0  0  0
 57124  1  0  0  0
 58125  1  0  0  0
 59 60  1  0  0  0
 59 61  1  0  0  0
 59 62  1  0  0  0
 60126  1  0  0  0
 60127  1  0  0  0
 60128  1  0  0  0
 61129  1  0  0  0
 61130  1  0  0  0
 61131  1  0  0  0
 62132  1  0  0  0
 62133  1  0  0  0
 62134  1  0  0  0
 63 65  1  0  0  0
 63135  1  0  0  0
 63136  1  0  0  0
 63137  1  0  0  0
 64138  1  0  0  0
 65139  1  0  0  0
 68 78  1  0  0  0
 71 72  1  0  0  0
 71 73  2  0  0  0
 71140  1  0  0  0
 72 74  2  0  0  0
 72141  1  0  0  0
 73 79  1  0  0  0
 73142  1  0  0  0
 74 75  1  0  0  0
 74 79  1  0  0  0
 75 77  1  0  0  0
 75143  1  0  0  0
 75144  1  0  0  0
 76 78  1  0  0  0
 76 79  1  0  0  0
 76145  1  0  0  0
 76146  1  0  0  0
 77 80  1  0  0  0
 77147  1  0  0  0
 77148  1  0  0  0
 78149  1  0  0  0
 78150  1  0  0  0
 80151  1  0  0  0
M  ISO  4   1 100  68 101  78 101  80 100
M  END
> <chiral flag>
0

> <version>
0

> <s_m_source_file>
/data/baiqing/PycharmProjects/Reinvent-master-3.2/result/LINK_invent/BTK/process_docking_weight1_custom_sum_contain_oxygen_bond_distance_aromatic_linkinvent_7_9_3/rearranged_h_0069.sdf

> <i_m_source_file_index>
16

> <r_mmod_Potential_Energy-OPLS-2005>
642.696899414062

> <r_mmod_Stretch_Energy-OPLS-2005>
317.100250244141

> <r_mmod_Bend_Energy-OPLS-2005>
340.907562255859

> <r_mmod_Torsional_Energy-OPLS-2005>
233.110595703125

> <r_mmod_Improper_Torsional_Energy-OPLS-2005>
5.83965158462524

> <r_mmod_Van_der_Waal_Energy-OPLS-2005>
122.745147705078

> <r_mmod_Electrostatic_Energy-OPLS-2005>
-361.535491943359

> <r_mmod_Solvation_Energy-OPLS-2005>
-222.041015625

> <b_mmod_Minimization_Converged-OPLS-2005>
0

> <r_mmod_RMS_Derivative-OPLS-2005>
0.109757445752621

$$$$
16
                    3D
 Structure written by MMmdl.
169177  0  0  1  0            999 V2000
  -30.6530  -14.6127   20.5258 C   0  0  0  0  0  0
  -30.4340  -12.3829   19.4635 C   0  0  0  0  0  0
  -29.5193  -12.5283   18.2277 C   0  0  0  0  0  0
  -28.0399  -12.3538   18.6284 C   0  0  0  0  0  0
  -27.6511  -13.2197   19.8586 C   0  0  2  0  0  0
  -28.6906  -13.0796   20.9965 C   0  0  0  0  0  0
  -25.2440  -13.8074   20.5491 C   0  0  0  0  0  0
  -24.1766  -13.0349   20.9142 C   0  0  0  0  0  0
  -24.6389  -11.6852   20.8717 C   0  0  0  0  0  0
  -23.9087  -10.4235   21.0400 C   0  0  0  0  0  0
  -24.3649   -9.4157   21.9175 C   0  0  0  0  0  0
  -23.6297   -8.2205   22.0745 C   0  0  0  0  0  0
  -22.4270   -8.0264   21.3543 C   0  0  0  0  0  0
  -21.9930   -9.0244   20.4648 C   0  0  0  0  0  0
  -22.7274  -10.2107   20.3047 C   0  0  0  0  0  0
  -21.6845   -6.0725   22.5277 C   0  0  0  0  0  0
  -21.4018   -6.5634   23.8215 C   0  0  0  0  0  0
  -21.3658   -5.6787   24.9171 C   0  0  0  0  0  0
  -21.6053   -4.3057   24.7223 C   0  0  0  0  0  0
  -21.8818   -3.8145   23.4346 C   0  0  0  0  0  0
  -21.9198   -4.6957   22.3399 C   0  0  0  0  0  0
  -22.7799  -13.5168   21.1856 C   0  0  0  0  0  0
  -22.1646   -4.2145   21.0975 F   0  0  0  0  0  0
  -21.5633   -3.4545   25.7737 F   0  0  0  0  0  0
  -30.0179  -13.4012   20.4438 N   0  0  0  0  0  0
  -26.2945  -12.9321   20.3223 N   0  0  0  0  0  0
  -25.9313  -11.6482   20.5675 N   0  0  0  0  0  0
  -22.0466  -12.8162   22.0459 N   0  0  0  0  0  0
  -25.3882  -15.1745   20.3668 N   0  0  0  0  0  0
  -31.7974  -14.7817   20.0974 O   0  0  0  0  0  0
  -21.6630   -6.8866   21.4231 O   0  0  0  0  0  0
  -22.3456  -14.5476   20.6730 O   0  0  0  0  0  0
  -24.6219  -31.8623   23.2061 C   0  0  0  0  0  0
  -25.9084  -32.4790   23.8375 C   0  0  1  0  0  0
  -27.2271  -27.3516   20.1245 C   0  0  0  0  0  0
  -25.5906  -33.8586   24.2302 N   0  0  0  0  0  0
  -23.4122  -30.4862   21.5471 C   0  0  2  0  0  0
  -24.8581  -28.9378   20.1189 C   0  0  0  0  0  0
  -22.7451  -29.4637   22.4960 C   0  0  0  0  0  0
  -18.0309  -28.1342   22.8475 C   0  0  0  0  0  0
  -24.1480  -36.7298   23.2640 C   0  0  0  0  0  0
  -25.9480  -30.8044   21.3704 C   0  0  0  0  0  0
  -26.0225  -29.4303   20.7192 C   0  0  0  0  0  0
  -27.2069  -28.6462   20.7147 C   0  0  0  0  0  0
  -26.0424  -26.8989   19.5002 C   0  0  0  0  0  0
  -24.8664  -27.6746   19.5041 C   0  0  0  0  0  0
  -23.6266  -29.8168   20.1629 C   0  0  0  0  0  0
  -25.4105  -36.3085   24.0330 C   0  0  1  0  0  0
  -20.5898  -28.3684   23.1286 C   0  0  2  0  0  0
  -20.6835  -26.9436   22.5385 C   0  0  0  0  0  0
  -19.5821  -26.6380   21.5192 C   0  0  0  0  0  0
  -18.1987  -26.7895   22.1578 C   0  0  0  0  0  0
  -19.1549  -28.8834   23.2870 C   0  0  0  0  0  0
  -18.9474  -30.1447   23.8873 C   0  0  0  0  0  0
  -17.6477  -30.6588   24.0503 C   0  0  0  0  0  0
  -25.9043  -34.9459   23.5123 C   0  0  0  0  0  0
  -16.5369  -29.9071   23.6289 C   0  0  0  0  0  0
  -16.7299  -28.6456   23.0361 C   0  0  0  0  0  0
  -26.4496  -31.6583   25.0719 C   0  0  0  0  0  0
  -25.3770  -31.3702   26.1478 C   0  0  0  0  0  0
  -27.0326  -30.3017   24.6121 C   0  0  0  0  0  0
  -27.6053  -32.4311   25.7497 C   0  0  0  0  0  0
  -27.5575  -37.1801   24.8472 C   0  0  0  0  0  0
  -21.4171  -29.3053   22.3703 N   0  0  0  0  0  0
  -26.4285  -37.3778   23.9410 N   0  0  0  0  0  0
  -24.6791  -31.0663   22.0993 N   0  0  0  0  0  0
  -23.4179  -28.8197   23.3056 O   0  0  0  0  0  0
  -28.3952  -26.5887   20.1521 O   0  0  0  0  0  0
  -26.5619  -34.8919   22.4693 O   0  0  0  0  0  0
  -23.5392  -32.1420   23.7410 O   0  0  0  0  0  0
  -29.2600  -20.4229   20.7399 C   0  0  0  0  0  0
  -28.8881  -21.7866   20.5172 C   0  0  0  0  0  0
  -28.9196  -19.4463   19.7662 C   0  0  0  0  0  0
  -27.9663  -21.1664   18.5273 C   0  0  0  0  0  0
  -27.1803  -21.5738   17.3013 C   0  0  0  0  0  0
  -28.8447  -17.1680   18.5918 C   0  0  0  0  0  0
  -27.5988  -17.5909   20.7547 C   0  0  0  0  0  0
  -27.6777  -24.8405   22.5184 C   0  0  0  0  0  0
  -30.0850  -25.1188   21.9842 C   0  0  0  0  0  0
  -28.9914  -22.8518   21.6387 C   0  0  0  0  0  0
  -30.0863  -17.1541   20.7511 C   0  0  0  0  0  0
  -28.3790  -25.1149   20.1277 C   0  0  0  0  0  0
  -28.8973  -17.8747   19.9760 C   0  0  0  0  0  0
  -28.7777  -24.4486   21.5027 C   0  0  0  0  0  0
  -28.2371  -22.1264   19.3965 N   0  0  0  0  0  0
  -28.2540  -19.8777   18.6686 N   0  0  0  0  0  0
  -29.8844  -15.6644   20.9179 N   0  0  0  0  0  0
  -31.4828  -12.4861   19.1814 H   0  0  0  0  0  0
  -30.3358  -11.3850   19.8939 H   0  0  0  0  0  0
  -29.7894  -11.7913   17.4716 H   0  0  0  0  0  0
  -29.6747  -13.5055   17.7664 H   0  0  0  0  0  0
  -27.8894  -11.2976   18.8539 H   0  0  0  0  0  0
  -27.3878  -12.5767   17.7821 H   0  0  0  0  0  0
  -27.6622  -14.2563   19.5244 H   0  0  0  0  0  0
  -28.6841  -12.0636   21.3946 H   0  0  0  0  0  0
  -28.4267  -13.7246   21.8386 H   0  0  0  0  0  0
  -25.2809   -9.5601   22.4737 H   0  0  0  0  0  0
  -24.0018   -7.4587   22.7468 H   0  0  0  0  0  0
  -21.0858   -8.8780   19.8946 H   0  0  0  0  0  0
  -22.3771  -10.9647   19.6157 H   0  0  0  0  0  0
  -21.1991   -7.6148   23.9715 H   0  0  0  0  0  0
  -21.1485   -6.0517   25.9079 H   0  0  0  0  0  0
  -22.0598   -2.7610   23.2849 H   0  0  0  0  0  0
  -22.4159  -11.9877   22.4861 H   0  0  0  0  0  0
  -21.1044  -13.1106   22.2648 H   0  0  0  0  0  0
  -24.5929  -15.7978   20.4351 H   0  0  0  0  0  0
  -26.2038  -15.6202   19.9694 H   0  0  0  0  0  0
  -26.7149  -32.5483   23.1130 H   0  0  0  0  0  0
  -25.0041  -33.9760   25.0435 H   0  0  0  0  0  0
  -22.7039  -31.3055   21.4043 H   0  0  0  0  0  0
  -23.3735  -35.9637   23.3323 H   0  0  0  0  0  0
  -24.3580  -36.8902   22.2053 H   0  0  0  0  0  0
  -23.7248  -37.6508   23.6662 H   0  0  0  0  0  0
  -26.0720  -31.5645   20.5985 H   0  0  0  0  0  0
  -26.8319  -30.8581   21.9939 H   0  0  0  0  0  0
  -28.1022  -29.0218   21.1925 H   0  0  0  0  0  0
  -26.0028  -25.9500   18.9918 H   0  0  0  0  0  0
  -23.9722  -27.2930   19.0290 H   0  0  0  0  0  0
  -23.7476  -30.5935   19.4072 H   0  0  0  0  0  0
  -22.7468  -29.2466   19.8587 H   0  0  0  0  0  0
  -25.1283  -36.1948   25.0820 H   0  0  0  0  0  0
  -20.9995  -28.3233   24.1406 H   0  0  0  0  0  0
  -20.5835  -26.2320   23.3584 H   0  0  0  0  0  0
  -21.6699  -26.7547   22.1143 H   0  0  0  0  0  0
  -19.6996  -25.6289   21.1238 H   0  0  0  0  0  0
  -19.6746  -27.3191   20.6709 H   0  0  0  0  0  0
  -17.4296  -26.6629   21.3942 H   0  0  0  0  0  0
  -18.0347  -26.0030   22.8942 H   0  0  0  0  0  0
  -19.7934  -30.7294   24.2238 H   0  0  0  0  0  0
  -17.5047  -31.6293   24.5053 H   0  0  0  0  0  0
  -15.5357  -30.2968   23.7592 H   0  0  0  0  0  0
  -15.8714  -28.0726   22.7139 H   0  0  0  0  0  0
  -24.5947  -30.7031   25.7856 H   0  0  0  0  0  0
  -24.8962  -32.2850   26.4935 H   0  0  0  0  0  0
  -25.8136  -30.8899   27.0241 H   0  0  0  0  0  0
  -26.2873  -29.6781   24.1168 H   0  0  0  0  0  0
  -27.4084  -29.7247   25.4582 H   0  0  0  0  0  0
  -27.8720  -30.4329   23.9289 H   0  0  0  0  0  0
  -27.2657  -33.3603   26.2088 H   0  0  0  0  0  0
  -28.3864  -32.6879   25.0333 H   0  0  0  0  0  0
  -28.0723  -31.8433   26.5417 H   0  0  0  0  0  0
  -28.2598  -38.0088   24.7491 H   0  0  0  0  0  0
  -28.1052  -36.2618   24.6315 H   0  0  0  0  0  0
  -27.2298  -37.1475   25.8876 H   0  0  0  0  0  0
  -20.9339  -29.8732   21.6873 H   0  0  0  0  0  0
  -26.0168  -38.2849   24.1410 H   0  0  0  0  0  0
  -29.7000  -20.1170   21.6802 H   0  0  0  0  0  0
  -26.3131  -22.1700   17.5880 H   0  0  0  0  0  0
  -26.8203  -20.7060   16.7488 H   0  0  0  0  0  0
  -27.8013  -22.1736   16.6363 H   0  0  0  0  0  0
  -27.9718  -17.4597   18.0067 H   0  0  0  0  0  0
  -28.8013  -16.0836   18.6654 H   0  0  0  0  0  0
  -29.7304  -17.4125   18.0041 H   0  0  0  0  0  0
  -27.5884  -18.1265   21.7041 H   0  0  0  0  0  0
  -27.4726  -16.5386   20.9874 H   0  0  0  0  0  0
  -26.7236  -17.9232   20.1959 H   0  0  0  0  0  0
  -26.7102  -24.4208   22.2397 H   0  0  0  0  0  0
  -27.5544  -25.9207   22.5929 H   0  0  0  0  0  0
  -27.9108  -24.4817   23.5216 H   0  0  0  0  0  0
  -30.3362  -24.8199   23.0030 H   0  0  0  0  0  0
  -30.0162  -26.2060   21.9902 H   0  0  0  0  0  0
  -30.9263  -24.8483   21.3465 H   0  0  0  0  0  0
  -29.9658  -22.6685   22.0923 H   0  0  0  0  0  0
  -28.2993  -22.4786   22.3949 H   0  0  0  0  0  0
  -30.1827  -17.5860   21.7481 H   0  0  0  0  0  0
  -31.0342  -17.3548   20.2498 H   0  0  0  0  0  0
  -27.4308  -24.6967   19.7990 H   0  0  0  0  0  0
  -29.1036  -24.8145   19.3697 H   0  0  0  0  0  0
  -28.9699  -15.3962   21.2488 H   0  0  0  0  0  0
  1 25  1  0  0  0
  1 30  2  0  0  0
  1 87  1  0  0  0
  2  3  1  0  0  0
  2 25  1  0  0  0
  2 88  1  0  0  0
  2 89  1  0  0  0
  3  4  1  0  0  0
  3 90  1  0  0  0
  3 91  1  0  0  0
  4  5  1  0  0  0
  4 92  1  0  0  0
  4 93  1  0  0  0
  5  6  1  0  0  0
  5 26  1  0  0  0
  5 94  1  0  0  0
  6 25  1  0  0  0
  6 95  1  0  0  0
  6 96  1  0  0  0
  7  8  2  0  0  0
  7 26  1  0  0  0
  7 29  1  0  0  0
  8  9  1  0  0  0
  8 22  1  0  0  0
  9 10  1  0  0  0
  9 27  2  0  0  0
 10 11  2  0  0  0
 10 15  1  0  0  0
 11 12  1  0  0  0
 11 97  1  0  0  0
 12 13  2  0  0  0
 12 98  1  0  0  0
 13 14  1  0  0  0
 13 31  1  0  0  0
 14 15  2  0  0  0
 14 99  1  0  0  0
 15100  1  0  0  0
 16 17  2  0  0  0
 16 21  1  0  0  0
 16 31  1  0  0  0
 17 18  1  0  0  0
 17101  1  0  0  0
 18 19  2  0  0  0
 18102  1  0  0  0
 19 20  1  0  0  0
 19 24  1  0  0  0
 20 21  2  0  0  0
 20103  1  0  0  0
 21 23  1  0  0  0
 22 28  1  0  0  0
 22 32  2  0  0  0
 26 27  1  0  0  0
 28104  1  0  0  0
 28105  1  0  0  0
 29106  1  0  0  0
 29107  1  0  0  0
 33 34  1  0  0  0
 33 66  1  0  0  0
 33 70  2  0  0  0
 34 36  1  0  0  0
 34 59  1  0  0  0
 34108  1  0  0  0
 35 44  2  0  0  0
 35 45  1  0  0  0
 35 68  1  0  0  0
 36 56  1  0  0  0
 36109  1  0  0  0
 37 39  1  0  0  0
 37 47  1  0  0  0
 37 66  1  0  0  0
 37110  1  0  0  0
 38 43  2  0  0  0
 38 46  1  0  0  0
 38 47  1  0  0  0
 39 64  1  0  0  0
 39 67  2  0  0  0
 40 52  1  0  0  0
 40 53  2  0  0  0
 40 58  1  0  0  0
 41111  1  0  0  0
 41112  1  0  0  0
 41113  1  0  0  0
 41 48  1  0  0  0
 42 43  1  0  0  0
 42 66  1  0  0  0
 42114  1  0  0  0
 42115  1  0  0  0
 43 44  1  0  0  0
 44116  1  0  0  0
 45 46  2  0  0  0
 45117  1  0  0  0
 46118  1  0  0  0
 47119  1  0  0  0
 47120  1  0  0  0
 48 56  1  0  0  0
 48 65  1  0  0  0
 48121  1  0  0  0
 49 50  1  0  0  0
 49 53  1  0  0  0
 49 64  1  0  0  0
 49122  1  0  0  0
 50 51  1  0  0  0
 50123  1  0  0  0
 50124  1  0  0  0
 51 52  1  0  0  0
 51125  1  0  0  0
 51126  1  0  0  0
 52127  1  0  0  0
 52128  1  0  0  0
 53 54  1  0  0  0
 54 55  2  0  0  0
 54129  1  0  0  0
 55 57  1  0  0  0
 55130  1  0  0  0
 56 69  2  0  0  0
 57 58  2  0  0  0
 57131  1  0  0  0
 58132  1  0  0  0
 59 60  1  0  0  0
 59 61  1  0  0  0
 59 62  1  0  0  0
 60133  1  0  0  0
 60134  1  0  0  0
 60135  1  0  0  0
 61136  1  0  0  0
 61137  1  0  0  0
 61138  1  0  0  0
 62139  1  0  0  0
 62140  1  0  0  0
 62141  1  0  0  0
 63 65  1  0  0  0
 63142  1  0  0  0
 63143  1  0  0  0
 63144  1  0  0  0
 64145  1  0  0  0
 65146  1  0  0  0
 68 82  1  0  0  0
 71 72  2  0  0  0
 71 73  1  0  0  0
 71147  1  0  0  0
 72 80  1  0  0  0
 72 85  1  0  0  0
 73 83  1  0  0  0
 73 86  2  0  0  0
 74 75  1  0  0  0
 74 85  2  0  0  0
 74 86  1  0  0  0
 75148  1  0  0  0
 75149  1  0  0  0
 75150  1  0  0  0
 76151  1  0  0  0
 76152  1  0  0  0
 76153  1  0  0  0
 76 83  1  0  0  0
 77 83  1  0  0  0
 77154  1  0  0  0
 77155  1  0  0  0
 77156  1  0  0  0
 78157  1  0  0  0
 78158  1  0  0  0
 78159  1  0  0  0
 78 84  1  0  0  0
 79 84  1  0  0  0
 79160  1  0  0  0
 79161  1  0  0  0
 79162  1  0  0  0
 80 84  1  0  0  0
 80163  1  0  0  0
 80164  1  0  0  0
 81 83  1  0  0  0
 81 87  1  0  0  0
 81165  1  0  0  0
 81166  1  0  0  0
 82 84  1  0  0  0
 82167  1  0  0  0
 82168  1  0  0  0
 87169  1  0  0  0
M  ISO  4   1 100  68 101  82 101  87 100
M  END
> <chiral flag>
0

> <version>
0

> <s_m_source_file>
/data/baiqing/PycharmProjects/Reinvent-master-3.2/result/LINK_invent/BTK/process_docking_weight1_custom_sum_contain_oxygen_bond_distance_aromatic_linkinvent_7_9_3/rearranged_h_0069.sdf

> <i_m_source_file_index>
17

> <r_mmod_Potential_Energy-OPLS-2005>
-358.658630371094

> <r_mmod_Stretch_Energy-OPLS-2005>
77.3348770141602

> <r_mmod_Bend_Energy-OPLS-2005>
178.473983764648

> <r_mmod_Torsional_Energy-OPLS-2005>
222.664474487305

> <r_mmod_Improper_Torsional_Energy-OPLS-2005>
8.65449714660645

> <r_mmod_Van_der_Waal_Energy-OPLS-2005>
162.281005859375

> <r_mmod_Electrostatic_Energy-OPLS-2005>
-827.875061035156

> <r_mmod_Solvation_Energy-OPLS-2005>
-216.340560913086

> <b_mmod_Minimization_Converged-OPLS-2005>
0

> <r_mmod_RMS_Derivative-OPLS-2005>
3.54303097724915

$$$$
17
                    3D
 Structure written by MMmdl.
164172  0  0  1  0            999 V2000
  -30.6268  -14.5542   20.6492 C   0  0  0  0  0  0
  -30.4414  -12.3858   19.4142 C   0  0  0  0  0  0
  -29.4871  -12.5450   18.2088 C   0  0  0  0  0  0
  -28.0179  -12.3567   18.6349 C   0  0  0  0  0  0
  -27.6652  -13.1829   19.8973 C   0  0  2  0  0  0
  -28.7205  -12.9104   20.9975 C   0  0  0  0  0  0
  -25.2577  -13.8091   20.5714 C   0  0  0  0  0  0
  -24.1816  -13.0378   20.9209 C   0  0  0  0  0  0
  -24.6363  -11.6857   20.8745 C   0  0  0  0  0  0
  -23.9037  -10.4247   21.0392 C   0  0  0  0  0  0
  -24.3582   -9.4171   21.9167 C   0  0  0  0  0  0
  -23.6260   -8.2213   22.0741 C   0  0  0  0  0  0
  -22.4240   -8.0249   21.3558 C   0  0  0  0  0  0
  -21.9887   -9.0208   20.4657 C   0  0  0  0  0  0
  -22.7214  -10.2085   20.3056 C   0  0  0  0  0  0
  -21.6848   -6.0704   22.5269 C   0  0  0  0  0  0
  -21.4016   -6.5618   23.8201 C   0  0  0  0  0  0
  -21.3654   -5.6779   24.9169 C   0  0  0  0  0  0
  -21.6031   -4.3040   24.7221 C   0  0  0  0  0  0
  -21.8816   -3.8127   23.4344 C   0  0  0  0  0  0
  -21.9211   -4.6939   22.3399 C   0  0  0  0  0  0
  -22.7853  -13.5194   21.1842 C   0  0  0  0  0  0
  -22.1694   -4.2135   21.0978 F   0  0  0  0  0  0
  -21.5618   -3.4526   25.7737 F   0  0  0  0  0  0
  -30.0149  -13.3399   20.4609 N   0  0  0  0  0  0
  -26.3028  -12.9222   20.3501 N   0  0  0  0  0  0
  -25.9297  -11.6397   20.5836 N   0  0  0  0  0  0
  -22.0494  -12.8198   22.0421 N   0  0  0  0  0  0
  -25.4174  -15.1801   20.4071 N   0  0  0  0  0  0
  -31.6988  -14.7657   20.0727 O   0  0  0  0  0  0
  -21.6621   -6.8840   21.4229 O   0  0  0  0  0  0
  -22.3565  -14.5506   20.6699 O   0  0  0  0  0  0
  -24.6112  -31.8709   23.2066 C   0  0  0  0  0  0
  -25.9001  -32.4826   23.8363 C   0  0  1  0  0  0
  -27.2400  -27.4062   20.1116 C   0  0  0  0  0  0
  -25.5869  -33.8631   24.2283 N   0  0  0  0  0  0
  -23.4039  -30.4884   21.5506 C   0  0  2  0  0  0
  -24.8521  -28.9503   20.1163 C   0  0  0  0  0  0
  -22.7420  -29.4670   22.5012 C   0  0  0  0  0  0
  -18.0279  -28.1372   22.8514 C   0  0  0  0  0  0
  -24.1501  -36.7317   23.2641 C   0  0  0  0  0  0
  -25.9326  -30.8290   21.3645 C   0  0  0  0  0  0
  -26.0129  -29.4601   20.7102 C   0  0  0  0  0  0
  -27.2071  -28.6994   20.6949 C   0  0  0  0  0  0
  -26.0499  -26.9112   19.5267 C   0  0  0  0  0  0
  -24.8672  -27.6773   19.5207 C   0  0  0  0  0  0
  -23.6099  -29.8132   20.1667 C   0  0  0  0  0  0
  -25.4126  -36.3109   24.0327 C   0  0  1  0  0  0
  -20.5879  -28.3685   23.1325 C   0  0  2  0  0  0
  -20.6763  -26.9415   22.5437 C   0  0  0  0  0  0
  -19.5727  -26.6375   21.5245 C   0  0  0  0  0  0
  -18.1909  -26.7921   22.1648 C   0  0  0  0  0  0
  -19.1539  -28.8839   23.2910 C   0  0  0  0  0  0
  -18.9450  -30.1440   23.8911 C   0  0  0  0  0  0
  -17.6447  -30.6579   24.0567 C   0  0  0  0  0  0
  -25.9036  -34.9481   23.5101 C   0  0  0  0  0  0
  -16.5335  -29.9079   23.6340 C   0  0  0  0  0  0
  -16.7264  -28.6492   23.0371 C   0  0  0  0  0  0
  -26.4440  -31.6638   25.0718 C   0  0  0  0  0  0
  -25.3638  -31.3788   26.1422 C   0  0  0  0  0  0
  -27.0293  -30.3064   24.6156 C   0  0  0  0  0  0
  -27.5989  -32.4397   25.7473 C   0  0  0  0  0  0
  -27.5600  -37.1816   24.8447 C   0  0  0  0  0  0
  -21.4149  -29.3033   22.3726 N   0  0  0  0  0  0
  -26.4315  -37.3786   23.9388 N   0  0  0  0  0  0
  -24.6667  -31.0780   22.0987 N   0  0  0  0  0  0
  -23.4180  -28.8209   23.3075 O   0  0  0  0  0  0
  -28.4313  -26.6934   20.1337 O   0  0  0  0  0  0
  -26.5628  -34.8947   22.4691 O   0  0  0  0  0  0
  -23.5291  -32.1504   23.7431 O   0  0  0  0  0  0
  -29.6043  -18.9881   18.7327 C   0  0  0  0  0  0
  -30.0339  -19.6053   21.3043 C   0  0  0  0  0  0
  -29.6474  -20.5995   20.3586 C   0  0  0  0  0  0
  -30.2310  -18.2753   20.8155 C   0  0  0  0  0  0
  -30.2723  -19.9537   22.7710 C   0  0  0  0  0  0
  -32.3186  -17.0859   21.6962 C   0  0  0  0  0  0
  -28.5155  -15.9947   21.4627 C   0  0  0  0  0  0
  -29.6048  -22.1288   20.6161 C   0  0  0  0  0  0
  -28.1958  -22.7883   20.7093 C   0  0  0  0  0  0
  -28.1619  -24.3297   20.9961 C   0  0  0  0  0  0
  -28.4905  -25.2814   19.8092 C   0  0  0  0  0  0
  -30.7797  -17.0985   21.6773 C   0  0  2  0  0  0
  -30.0339  -15.6879   21.6004 C   0  0  2  0  0  0
  -29.4022  -20.2512   19.0843 N   0  0  0  0  0  0
  -30.0488  -18.0096   19.5097 N   0  0  0  0  0  0
  -31.4722  -12.5407   19.0960 H   0  0  0  0  0  0
  -30.4096  -11.3632   19.7972 H   0  0  0  0  0  0
  -29.7485  -11.8371   17.4234 H   0  0  0  0  0  0
  -29.6056  -13.5387   17.7753 H   0  0  0  0  0  0
  -27.8664  -11.2977   18.8430 H   0  0  0  0  0  0
  -27.3462  -12.6122   17.8140 H   0  0  0  0  0  0
  -27.7191  -14.2244   19.5956 H   0  0  0  0  0  0
  -28.7401  -11.8385   21.2003 H   0  0  0  0  0  0
  -28.5072  -13.3351   21.9725 H   0  0  0  0  0  0
  -25.2720   -9.5652   22.4752 H   0  0  0  0  0  0
  -23.9970   -7.4600   22.7436 H   0  0  0  0  0  0
  -21.0846   -8.8731   19.8951 H   0  0  0  0  0  0
  -22.3675  -10.9619   19.6178 H   0  0  0  0  0  0
  -21.2013   -7.6131   23.9698 H   0  0  0  0  0  0
  -21.1485   -6.0518   25.9078 H   0  0  0  0  0  0
  -22.0607   -2.7595   23.2841 H   0  0  0  0  0  0
  -22.4189  -11.9919   22.4829 H   0  0  0  0  0  0
  -21.1085  -13.1150   22.2590 H   0  0  0  0  0  0
  -24.6386  -15.8196   20.5240 H   0  0  0  0  0  0
  -26.2737  -15.6385   20.1249 H   0  0  0  0  0  0
  -26.7054  -32.5545   23.1114 H   0  0  0  0  0  0
  -24.9910  -33.9759   25.0352 H   0  0  0  0  0  0
  -22.6897  -31.3030   21.4074 H   0  0  0  0  0  0
  -23.3757  -35.9645   23.3295 H   0  0  0  0  0  0
  -24.3566  -36.8963   22.2046 H   0  0  0  0  0  0
  -23.7286  -37.6534   23.6683 H   0  0  0  0  0  0
  -26.0431  -31.6009   20.6014 H   0  0  0  0  0  0
  -26.8180  -30.8795   21.9874 H   0  0  0  0  0  0
  -28.1066  -29.1011   21.1411 H   0  0  0  0  0  0
  -26.0072  -25.9347   19.0707 H   0  0  0  0  0  0
  -23.9728  -27.2746   19.0674 H   0  0  0  0  0  0
  -23.6945  -30.5829   19.3964 H   0  0  0  0  0  0
  -22.7398  -29.2143   19.8911 H   0  0  0  0  0  0
  -25.1325  -36.1975   25.0821 H   0  0  0  0  0  0
  -20.9949  -28.3268   24.1463 H   0  0  0  0  0  0
  -20.5731  -26.2299   23.3644 H   0  0  0  0  0  0
  -21.6634  -26.7480   22.1211 H   0  0  0  0  0  0
  -19.6917  -25.6291   21.1282 H   0  0  0  0  0  0
  -19.6654  -27.3185   20.6775 H   0  0  0  0  0  0
  -17.4210  -26.6690   21.4012 H   0  0  0  0  0  0
  -18.0248  -26.0043   22.9016 H   0  0  0  0  0  0
  -19.7925  -30.7255   24.2278 H   0  0  0  0  0  0
  -17.5016  -31.6261   24.5165 H   0  0  0  0  0  0
  -15.5352  -30.2991   23.7634 H   0  0  0  0  0  0
  -15.8658  -28.0799   22.7100 H   0  0  0  0  0  0
  -24.5748  -30.7250   25.7702 H   0  0  0  0  0  0
  -24.8882  -32.2966   26.4886 H   0  0  0  0  0  0
  -25.7882  -30.8882   27.0182 H   0  0  0  0  0  0
  -26.2888  -29.6821   24.1156 H   0  0  0  0  0  0
  -27.3982  -29.7328   25.4674 H   0  0  0  0  0  0
  -27.8740  -30.4352   23.9377 H   0  0  0  0  0  0
  -27.2578  -33.3670   26.2097 H   0  0  0  0  0  0
  -28.3754  -32.7058   25.0278 H   0  0  0  0  0  0
  -28.0730  -31.8534   26.5357 H   0  0  0  0  0  0
  -28.2614  -38.0122   24.7526 H   0  0  0  0  0  0
  -28.1116  -36.2665   24.6250 H   0  0  0  0  0  0
  -27.2296  -37.1428   25.8842 H   0  0  0  0  0  0
  -20.9324  -29.8683   21.6873 H   0  0  0  0  0  0
  -26.0217  -38.2879   24.1367 H   0  0  0  0  0  0
  -29.4015  -18.7338   17.7033 H   0  0  0  0  0  0
  -29.9159  -20.9459   23.0405 H   0  0  0  0  0  0
  -31.3374  -19.8972   23.0028 H   0  0  0  0  0  0
  -29.7369  -19.2723   23.4336 H   0  0  0  0  0  0
  -32.6966  -18.0327   22.0787 H   0  0  0  0  0  0
  -32.7396  -16.9601   20.7010 H   0  0  0  0  0  0
  -32.7044  -16.2952   22.3396 H   0  0  0  0  0  0
  -28.2513  -16.8890   22.0270 H   0  0  0  0  0  0
  -27.8501  -15.2420   21.8687 H   0  0  0  0  0  0
  -28.2321  -16.1843   20.4295 H   0  0  0  0  0  0
  -30.1435  -22.6008   19.7924 H   0  0  0  0  0  0
  -30.1946  -22.3919   21.4914 H   0  0  0  0  0  0
  -27.6532  -22.2869   21.5131 H   0  0  0  0  0  0
  -27.6301  -22.5763   19.8022 H   0  0  0  0  0  0
  -28.8310  -24.5521   21.8296 H   0  0  0  0  0  0
  -27.1638  -24.5800   21.3567 H   0  0  0  0  0  0
  -27.9050  -25.0309   18.9253 H   0  0  0  0  0  0
  -29.5210  -25.0805   19.5128 H   0  0  0  0  0  0
  -30.5368  -17.3972   22.6939 H   0  0  0  0  0  0
  -30.1725  -15.2514   22.5914 H   0  0  0  0  0  0
  1 25  1  0  0  0
  1 30  2  0  0  0
  1 83  1  0  0  0
  2  3  1  0  0  0
  2 25  1  0  0  0
  2 86  1  0  0  0
  2 87  1  0  0  0
  3  4  1  0  0  0
  3 88  1  0  0  0
  3 89  1  0  0  0
  4  5  1  0  0  0
  4 90  1  0  0  0
  4 91  1  0  0  0
  5  6  1  0  0  0
  5 26  1  0  0  0
  5 92  1  0  0  0
  6 25  1  0  0  0
  6 93  1  0  0  0
  6 94  1  0  0  0
  7  8  2  0  0  0
  7 26  1  0  0  0
  7 29  1  0  0  0
  8  9  1  0  0  0
  8 22  1  0  0  0
  9 10  1  0  0  0
  9 27  2  0  0  0
 10 11  2  0  0  0
 10 15  1  0  0  0
 11 12  1  0  0  0
 11 95  1  0  0  0
 12 13  2  0  0  0
 12 96  1  0  0  0
 13 14  1  0  0  0
 13 31  1  0  0  0
 14 15  2  0  0  0
 14 97  1  0  0  0
 15 98  1  0  0  0
 16 17  2  0  0  0
 16 21  1  0  0  0
 16 31  1  0  0  0
 17 18  1  0  0  0
 17 99  1  0  0  0
 18 19  2  0  0  0
 18100  1  0  0  0
 19 20  1  0  0  0
 19 24  1  0  0  0
 20 21  2  0  0  0
 20101  1  0  0  0
 21 23  1  0  0  0
 22 28  1  0  0  0
 22 32  2  0  0  0
 26 27  1  0  0  0
 28102  1  0  0  0
 28103  1  0  0  0
 29104  1  0  0  0
 29105  1  0  0  0
 33 34  1  0  0  0
 33 66  1  0  0  0
 33 70  2  0  0  0
 34 36  1  0  0  0
 34 59  1  0  0  0
 34106  1  0  0  0
 35 44  2  0  0  0
 35 45  1  0  0  0
 35 68  1  0  0  0
 36 56  1  0  0  0
 36107  1  0  0  0
 37 39  1  0  0  0
 37 47  1  0  0  0
 37 66  1  0  0  0
 37108  1  0  0  0
 38 43  2  0  0  0
 38 46  1  0  0  0
 38 47  1  0  0  0
 39 64  1  0  0  0
 39 67  2  0  0  0
 40 52  1  0  0  0
 40 53  2  0  0  0
 40 58  1  0  0  0
 41109  1  0  0  0
 41110  1  0  0  0
 41111  1  0  0  0
 41 48  1  0  0  0
 42 43  1  0  0  0
 42 66  1  0  0  0
 42112  1  0  0  0
 42113  1  0  0  0
 43 44  1  0  0  0
 44114  1  0  0  0
 45 46  2  0  0  0
 45115  1  0  0  0
 46116  1  0  0  0
 47117  1  0  0  0
 47118  1  0  0  0
 48 56  1  0  0  0
 48 65  1  0  0  0
 48119  1  0  0  0
 49 50  1  0  0  0
 49 53  1  0  0  0
 49 64  1  0  0  0
 49120  1  0  0  0
 50 51  1  0  0  0
 50121  1  0  0  0
 50122  1  0  0  0
 51 52  1  0  0  0
 51123  1  0  0  0
 51124  1  0  0  0
 52125  1  0  0  0
 52126  1  0  0  0
 53 54  1  0  0  0
 54 55  2  0  0  0
 54127  1  0  0  0
 55 57  1  0  0  0
 55128  1  0  0  0
 56 69  2  0  0  0
 57 58  2  0  0  0
 57129  1  0  0  0
 58130  1  0  0  0
 59 60  1  0  0  0
 59 61  1  0  0  0
 59 62  1  0  0  0
 60131  1  0  0  0
 60132  1  0  0  0
 60133  1  0  0  0
 61134  1  0  0  0
 61135  1  0  0  0
 61136  1  0  0  0
 62137  1  0  0  0
 62138  1  0  0  0
 62139  1  0  0  0
 63 65  1  0  0  0
 63140  1  0  0  0
 63141  1  0  0  0
 63142  1  0  0  0
 64143  1  0  0  0
 65144  1  0  0  0
 68 81  1  0  0  0
 71 84  2  0  0  0
 71 85  1  0  0  0
 71145  1  0  0  0
 72 73  2  0  0  0
 72 74  1  0  0  0
 72 75  1  0  0  0
 73 78  1  0  0  0
 73 84  1  0  0  0
 74 82  1  0  0  0
 74 85  2  0  0  0
 75146  1  0  0  0
 75147  1  0  0  0
 75148  1  0  0  0
 76149  1  0  0  0
 76150  1  0  0  0
 76151  1  0  0  0
 76 82  1  0  0  0
 77152  1  0  0  0
 77153  1  0  0  0
 77154  1  0  0  0
 77 83  1  0  0  0
 78 79  1  0  0  0
 78155  1  0  0  0
 78156  1  0  0  0
 79 80  1  0  0  0
 79157  1  0  0  0
 79158  1  0  0  0
 80 81  1  0  0  0
 80159  1  0  0  0
 80160  1  0  0  0
 81161  1  0  0  0
 81162  1  0  0  0
 82 83  1  0  0  0
 82163  1  0  0  0
 83164  1  0  0  0
M  ISO  4   1 100  68 101  81 101  83 100
M  END
> <chiral flag>
0

> <version>
0

> <s_m_source_file>
/data/baiqing/PycharmProjects/Reinvent-master-3.2/result/LINK_invent/BTK/process_docking_weight1_custom_sum_contain_oxygen_bond_distance_aromatic_linkinvent_7_9_3/rearranged_h_0069.sdf

> <i_m_source_file_index>
18

> <r_mmod_Potential_Energy-OPLS-2005>
-376.42138671875

> <r_mmod_Stretch_Energy-OPLS-2005>
60.1861801147461

> <r_mmod_Bend_Energy-OPLS-2005>
156.675521850586

> <r_mmod_Torsional_Energy-OPLS-2005>
156.345840454102

> <r_mmod_Improper_Torsional_Energy-OPLS-2005>
2.4921395778656

> <r_mmod_Van_der_Waal_Energy-OPLS-2005>
167.984176635742

> <r_mmod_Electrostatic_Energy-OPLS-2005>
-734.097045898438

> <r_mmod_Solvation_Energy-OPLS-2005>
-208.043930053711

> <b_mmod_Minimization_Converged-OPLS-2005>
0

> <r_mmod_RMS_Derivative-OPLS-2005>
4.60752487182617

$$$$
18
                    3D
 Structure written by MMmdl.
166174  0  0  1  0            999 V2000
  -30.5700  -14.8881   20.3968 C   0  0  0  0  0  0
  -30.4316  -12.5282   19.5157 C   0  0  0  0  0  0
  -29.5260  -12.5392   18.2625 C   0  0  0  0  0  0
  -28.0537  -12.3414   18.6701 C   0  0  0  0  0  0
  -27.6378  -13.2547   19.8535 C   0  0  2  0  0  0
  -28.6819  -13.2509   20.9946 C   0  0  0  0  0  0
  -25.2483  -13.8219   20.5720 C   0  0  0  0  0  0
  -24.1805  -13.0443   20.9227 C   0  0  0  0  0  0
  -24.6424  -11.6924   20.8759 C   0  0  0  0  0  0
  -23.9084  -10.4306   21.0388 C   0  0  0  0  0  0
  -24.3633   -9.4234   21.9181 C   0  0  0  0  0  0
  -23.6314   -8.2265   22.0739 C   0  0  0  0  0  0
  -22.4292   -8.0292   21.3542 C   0  0  0  0  0  0
  -21.9934   -9.0263   20.4645 C   0  0  0  0  0  0
  -22.7245  -10.2153   20.3050 C   0  0  0  0  0  0
  -21.6864   -6.0755   22.5284 C   0  0  0  0  0  0
  -21.4012   -6.5643   23.8223 C   0  0  0  0  0  0
  -21.3683   -5.6788   24.9185 C   0  0  0  0  0  0
  -21.6049   -4.3046   24.7232 C   0  0  0  0  0  0
  -21.8820   -3.8158   23.4343 C   0  0  0  0  0  0
  -21.9199   -4.6984   22.3409 C   0  0  0  0  0  0
  -22.7833  -13.5210   21.1876 C   0  0  0  0  0  0
  -22.1659   -4.2169   21.0985 F   0  0  0  0  0  0
  -21.5648   -3.4516   25.7741 F   0  0  0  0  0  0
  -29.9752  -13.6310   20.4094 N   0  0  0  0  0  0
  -26.2937  -12.9481   20.3327 N   0  0  0  0  0  0
  -25.9372  -11.6593   20.5794 N   0  0  0  0  0  0
  -22.0485  -12.8205   22.0444 N   0  0  0  0  0  0
  -25.4091  -15.1949   20.4083 N   0  0  0  0  0  0
  -31.7467  -14.9490   20.0377 O   0  0  0  0  0  0
  -21.6653   -6.8885   21.4239 O   0  0  0  0  0  0
  -22.3517  -14.5530   20.6735 O   0  0  0  0  0  0
  -24.6476  -31.8433   23.1899 C   0  0  0  0  0  0
  -25.9228  -32.4693   23.8291 C   0  0  1  0  0  0
  -27.2157  -27.1427   20.1048 C   0  0  0  0  0  0
  -25.5964  -33.8497   24.2202 N   0  0  0  0  0  0
  -23.4491  -30.4647   21.5397 C   0  0  2  0  0  0
  -24.8947  -28.9010   20.1071 C   0  0  0  0  0  0
  -22.7580  -29.4534   22.4901 C   0  0  0  0  0  0
  -18.0292  -28.1415   22.8462 C   0  0  0  0  0  0
  -24.1479  -36.7246   23.2644 C   0  0  0  0  0  0
  -26.0085  -30.7127   21.3909 C   0  0  0  0  0  0
  -26.0777  -29.3283   20.7231 C   0  0  0  0  0  0
  -27.2394  -28.4652   20.7077 C   0  0  0  0  0  0
  -25.9992  -26.8248   19.4547 C   0  0  0  0  0  0
  -24.8678  -27.6601   19.4617 C   0  0  0  0  0  0
  -23.6708  -29.7987   20.1583 C   0  0  0  0  0  0
  -25.4105  -36.3022   24.0323 C   0  0  1  0  0  0
  -20.5908  -28.3713   23.1241 C   0  0  2  0  0  0
  -20.6767  -26.9412   22.5424 C   0  0  0  0  0  0
  -19.5757  -26.6380   21.5223 C   0  0  0  0  0  0
  -18.1926  -26.7954   22.1606 C   0  0  0  0  0  0
  -19.1555  -28.8887   23.2844 C   0  0  0  0  0  0
  -18.9470  -30.1490   23.8857 C   0  0  0  0  0  0
  -17.6463  -30.6598   24.0564 C   0  0  0  0  0  0
  -25.9070  -34.9403   23.5071 C   0  0  0  0  0  0
  -16.5351  -29.9088   23.6355 C   0  0  0  0  0  0
  -16.7273  -28.6522   23.0344 C   0  0  0  0  0  0
  -26.4518  -31.6571   25.0751 C   0  0  0  0  0  0
  -25.3677  -31.3794   26.1440 C   0  0  0  0  0  0
  -27.0381  -30.2950   24.6387 C   0  0  0  0  0  0
  -27.6065  -32.4343   25.7507 C   0  0  0  0  0  0
  -27.5577  -37.1758   24.8450 C   0  0  0  0  0  0
  -21.4278  -29.3037   22.3630 N   0  0  0  0  0  0
  -26.4261  -37.3745   23.9430 N   0  0  0  0  0  0
  -24.7218  -31.0271   22.0946 N   0  0  0  0  0  0
  -23.4217  -28.8097   23.3059 O   0  0  0  0  0  0
  -28.2557  -26.1350   20.1550 O   0  0  0  0  0  0
  -26.5664  -34.8899   22.4651 O   0  0  0  0  0  0
  -23.5580  -32.1316   23.7106 O   0  0  0  0  0  0
  -28.5866  -22.1735   19.0227 C   0  0  0  0  0  0
  -28.6935  -23.2473   19.9662 C   0  0  0  0  0  0
  -29.3375  -22.7485   21.1305 C   0  0  0  0  0  0
  -29.5291  -20.4513   20.3702 C   0  0  0  0  0  0
  -28.4789  -23.8152   23.2691 C   0  0  0  0  0  0
  -32.6001  -17.8927   19.8032 C   0  0  0  0  0  0
  -32.5653  -20.3517   20.3651 C   0  0  0  0  0  0
  -30.4254  -18.7187   22.0737 C   0  0  0  0  0  0
  -27.9088  -24.6810   19.7462 C   0  0  0  0  0  0
  -29.6372  -23.6949   22.2748 C   0  0  0  0  0  0
  -29.6497  -17.5184   19.9925 C   0  0  0  0  0  0
  -31.7143  -19.1534   19.8756 C   0  0  0  0  0  0
  -30.2933  -18.9724   20.5533 C   0  0  1  0  0  0
  -29.0097  -20.8619   19.1990 N   0  0  0  0  0  0
  -29.7143  -21.4233   21.3058 N   0  0  0  0  0  0
  -29.7848  -16.0489   20.5944 N   0  0  0  0  0  0
  -31.4801  -12.6261   19.2334 H   0  0  0  0  0  0
  -30.3547  -11.5661   20.0254 H   0  0  0  0  0  0
  -29.8303  -11.7627   17.5603 H   0  0  0  0  0  0
  -29.6411  -13.4894   17.7399 H   0  0  0  0  0  0
  -27.9319  -11.2949   18.9544 H   0  0  0  0  0  0
  -27.3974  -12.5043   17.8140 H   0  0  0  0  0  0
  -27.6093  -14.2673   19.4501 H   0  0  0  0  0  0
  -28.7452  -12.2696   21.4659 H   0  0  0  0  0  0
  -28.3960  -13.9515   21.7809 H   0  0  0  0  0  0
  -25.2764   -9.5708   22.4775 H   0  0  0  0  0  0
  -24.0050   -7.4651   22.7431 H   0  0  0  0  0  0
  -21.0881   -8.8756   19.8945 H   0  0  0  0  0  0
  -22.3674  -10.9705   19.6181 H   0  0  0  0  0  0
  -21.1966   -7.6139   23.9733 H   0  0  0  0  0  0
  -21.1512   -6.0507   25.9088 H   0  0  0  0  0  0
  -22.0573   -2.7618   23.2829 H   0  0  0  0  0  0
  -22.4060  -11.9855   22.4851 H   0  0  0  0  0  0
  -21.1117  -13.1261   22.2632 H   0  0  0  0  0  0
  -24.6158  -15.8251   20.4356 H   0  0  0  0  0  0
  -26.2477  -15.6334   20.0507 H   0  0  0  0  0  0
  -26.7313  -32.5282   23.1033 H   0  0  0  0  0  0
  -25.0046  -33.9619   25.0307 H   0  0  0  0  0  0
  -22.7516  -31.2899   21.3892 H   0  0  0  0  0  0
  -23.3765  -35.9557   23.3256 H   0  0  0  0  0  0
  -24.3569  -36.8926   22.2069 H   0  0  0  0  0  0
  -23.7202  -37.6413   23.6707 H   0  0  0  0  0  0
  -26.1672  -31.4668   20.6193 H   0  0  0  0  0  0
  -26.8786  -30.7567   22.0336 H   0  0  0  0  0  0
  -28.1416  -28.7877   21.2089 H   0  0  0  0  0  0
  -25.8571  -25.8868   18.9414 H   0  0  0  0  0  0
  -23.9658  -27.3277   18.9682 H   0  0  0  0  0  0
  -23.7931  -30.5735   19.4007 H   0  0  0  0  0  0
  -22.7859  -29.2340   19.8574 H   0  0  0  0  0  0
  -25.1288  -36.1841   25.0815 H   0  0  0  0  0  0
  -20.9970  -28.3293   24.1375 H   0  0  0  0  0  0
  -20.5623  -26.2328   23.3647 H   0  0  0  0  0  0
  -21.6629  -26.7397   22.1242 H   0  0  0  0  0  0
  -19.6897  -25.6289   21.1260 H   0  0  0  0  0  0
  -19.6716  -27.3185   20.6754 H   0  0  0  0  0  0
  -17.4209  -26.6725   21.3997 H   0  0  0  0  0  0
  -18.0285  -26.0108   22.8997 H   0  0  0  0  0  0
  -19.7946  -30.7329   24.2186 H   0  0  0  0  0  0
  -17.5006  -31.6263   24.5195 H   0  0  0  0  0  0
  -15.5348  -30.2959   23.7725 H   0  0  0  0  0  0
  -15.8669  -28.0840   22.7045 H   0  0  0  0  0  0
  -24.5936  -30.7033   25.7780 H   0  0  0  0  0  0
  -24.8764  -32.2970   26.4686 H   0  0  0  0  0  0
  -25.7945  -30.9127   27.0326 H   0  0  0  0  0  0
  -26.3016  -29.6673   24.1355 H   0  0  0  0  0  0
  -27.3900  -29.7268   25.5009 H   0  0  0  0  0  0
  -27.8961  -30.4161   23.9775 H   0  0  0  0  0  0
  -27.2692  -33.3688   26.2004 H   0  0  0  0  0  0
  -28.3889  -32.6831   25.0324 H   0  0  0  0  0  0
  -28.0716  -31.8518   26.5473 H   0  0  0  0  0  0
  -28.2552  -38.0098   24.7545 H   0  0  0  0  0  0
  -28.1114  -36.2630   24.6188 H   0  0  0  0  0  0
  -27.2320  -37.1298   25.8859 H   0  0  0  0  0  0
  -20.9507  -29.8718   21.6778 H   0  0  0  0  0  0
  -26.0126  -38.2800   24.1489 H   0  0  0  0  0  0
  -28.1174  -22.3616   18.0680 H   0  0  0  0  0  0
  -28.6885  -24.5816   24.0157 H   0  0  0  0  0  0
  -28.3109  -22.8725   23.7866 H   0  0  0  0  0  0
  -27.5559  -24.0898   22.7592 H   0  0  0  0  0  0
  -33.6104  -18.1112   19.4537 H   0  0  0  0  0  0
  -32.2011  -17.1871   19.0765 H   0  0  0  0  0  0
  -32.6897  -17.3945   20.7674 H   0  0  0  0  0  0
  -33.5549  -20.3500   19.9069 H   0  0  0  0  0  0
  -32.7110  -20.3491   21.4449 H   0  0  0  0  0  0
  -32.1209  -21.3061   20.0868 H   0  0  0  0  0  0
  -29.4378  -18.6267   22.5256 H   0  0  0  0  0  0
  -30.9396  -19.5257   22.5933 H   0  0  0  0  0  0
  -30.9760  -17.8047   22.2867 H   0  0  0  0  0  0
  -26.9488  -24.4685   20.2146 H   0  0  0  0  0  0
  -27.7104  -24.7153   18.6729 H   0  0  0  0  0  0
  -29.8652  -24.6778   21.8572 H   0  0  0  0  0  0
  -30.5411  -23.3705   22.7894 H   0  0  0  0  0  0
  -29.8516  -17.4508   18.9229 H   0  0  0  0  0  0
  -28.5707  -17.6803   20.0177 H   0  0  0  0  0  0
  -31.4962  -19.3894   18.8311 H   0  0  0  0  0  0
  -28.9130  -15.7747   21.0217 H   0  0  0  0  0  0
  1 25  1  0  0  0
  1 30  2  0  0  0
  1 86  1  0  0  0
  2  3  1  0  0  0
  2 25  1  0  0  0
  2 87  1  0  0  0
  2 88  1  0  0  0
  3  4  1  0  0  0
  3 89  1  0  0  0
  3 90  1  0  0  0
  4  5  1  0  0  0
  4 91  1  0  0  0
  4 92  1  0  0  0
  5  6  1  0  0  0
  5 26  1  0  0  0
  5 93  1  0  0  0
  6 25  1  0  0  0
  6 94  1  0  0  0
  6 95  1  0  0  0
  7  8  2  0  0  0
  7 26  1  0  0  0
  7 29  1  0  0  0
  8  9  1  0  0  0
  8 22  1  0  0  0
  9 10  1  0  0  0
  9 27  2  0  0  0
 10 11  2  0  0  0
 10 15  1  0  0  0
 11 12  1  0  0  0
 11 96  1  0  0  0
 12 13  2  0  0  0
 12 97  1  0  0  0
 13 14  1  0  0  0
 13 31  1  0  0  0
 14 15  2  0  0  0
 14 98  1  0  0  0
 15 99  1  0  0  0
 16 17  2  0  0  0
 16 21  1  0  0  0
 16 31  1  0  0  0
 17 18  1  0  0  0
 17100  1  0  0  0
 18 19  2  0  0  0
 18101  1  0  0  0
 19 20  1  0  0  0
 19 24  1  0  0  0
 20 21  2  0  0  0
 20102  1  0  0  0
 21 23  1  0  0  0
 22 28  1  0  0  0
 22 32  2  0  0  0
 26 27  1  0  0  0
 28103  1  0  0  0
 28104  1  0  0  0
 29105  1  0  0  0
 29106  1  0  0  0
 33 34  1  0  0  0
 33 66  1  0  0  0
 33 70  2  0  0  0
 34 36  1  0  0  0
 34 59  1  0  0  0
 34107  1  0  0  0
 35 44  2  0  0  0
 35 45  1  0  0  0
 35 68  1  0  0  0
 36 56  1  0  0  0
 36108  1  0  0  0
 37 39  1  0  0  0
 37 47  1  0  0  0
 37 66  1  0  0  0
 37109  1  0  0  0
 38 43  2  0  0  0
 38 46  1  0  0  0
 38 47  1  0  0  0
 39 64  1  0  0  0
 39 67  2  0  0  0
 40 52  1  0  0  0
 40 53  2  0  0  0
 40 58  1  0  0  0
 41110  1  0  0  0
 41111  1  0  0  0
 41112  1  0  0  0
 41 48  1  0  0  0
 42 43  1  0  0  0
 42 66  1  0  0  0
 42113  1  0  0  0
 42114  1  0  0  0
 43 44  1  0  0  0
 44115  1  0  0  0
 45 46  2  0  0  0
 45116  1  0  0  0
 46117  1  0  0  0
 47118  1  0  0  0
 47119  1  0  0  0
 48 56  1  0  0  0
 48 65  1  0  0  0
 48120  1  0  0  0
 49 50  1  0  0  0
 49 53  1  0  0  0
 49 64  1  0  0  0
 49121  1  0  0  0
 50 51  1  0  0  0
 50122  1  0  0  0
 50123  1  0  0  0
 51 52  1  0  0  0
 51124  1  0  0  0
 51125  1  0  0  0
 52126  1  0  0  0
 52127  1  0  0  0
 53 54  1  0  0  0
 54 55  2  0  0  0
 54128  1  0  0  0
 55 57  1  0  0  0
 55129  1  0  0  0
 56 69  2  0  0  0
 57 58  2  0  0  0
 57130  1  0  0  0
 58131  1  0  0  0
 59 60  1  0  0  0
 59 61  1  0  0  0
 59 62  1  0  0  0
 60132  1  0  0  0
 60133  1  0  0  0
 60134  1  0  0  0
 61135  1  0  0  0
 61136  1  0  0  0
 61137  1  0  0  0
 62138  1  0  0  0
 62139  1  0  0  0
 62140  1  0  0  0
 63 65  1  0  0  0
 63141  1  0  0  0
 63142  1  0  0  0
 63143  1  0  0  0
 64144  1  0  0  0
 65145  1  0  0  0
 68 79  1  0  0  0
 71 72  2  0  0  0
 71 84  1  0  0  0
 71146  1  0  0  0
 72 73  1  0  0  0
 72 79  1  0  0  0
 73 80  1  0  0  0
 73 85  2  0  0  0
 74 83  1  0  0  0
 74 84  2  0  0  0
 74 85  1  0  0  0
 75 80  1  0  0  0
 75147  1  0  0  0
 75148  1  0  0  0
 75149  1  0  0  0
 76150  1  0  0  0
 76151  1  0  0  0
 76152  1  0  0  0
 76 82  1  0  0  0
 77 82  1  0  0  0
 77153  1  0  0  0
 77154  1  0  0  0
 77155  1  0  0  0
 78156  1  0  0  0
 78157  1  0  0  0
 78158  1  0  0  0
 78 83  1  0  0  0
 79159  1  0  0  0
 79160  1  0  0  0
 80161  1  0  0  0
 80162  1  0  0  0
 81 83  1  0  0  0
 81 86  1  0  0  0
 81163  1  0  0  0
 81164  1  0  0  0
 82 83  1  0  0  0
 82165  1  0  0  0
 86166  1  0  0  0
M  ISO  4   1 100  68 101  79 101  86 100
M  END
> <chiral flag>
0

> <version>
0

> <s_m_source_file>
/data/baiqing/PycharmProjects/Reinvent-master-3.2/result/LINK_invent/BTK/process_docking_weight1_custom_sum_contain_oxygen_bond_distance_aromatic_linkinvent_7_9_3/rearranged_h_0069.sdf

> <i_m_source_file_index>
19

> <r_mmod_Potential_Energy-OPLS-2005>
188.873596191406

> <r_mmod_Stretch_Energy-OPLS-2005>
242.978256225586

> <r_mmod_Bend_Energy-OPLS-2005>
310.294616699219

> <r_mmod_Torsional_Energy-OPLS-2005>
239.891815185547

> <r_mmod_Improper_Torsional_Energy-OPLS-2005>
10.4368467330933

> <r_mmod_Van_der_Waal_Energy-OPLS-2005>
147.828643798828

> <r_mmod_Electrostatic_Energy-OPLS-2005>
-713.692443847656

> <r_mmod_Solvation_Energy-OPLS-2005>
-218.561233520508

> <b_mmod_Minimization_Converged-OPLS-2005>
0

> <r_mmod_RMS_Derivative-OPLS-2005>
3.76040768623352

$$$$
19
                    3D
 Structure written by MMmdl.
190198  0  0  1  0            999 V2000
  -30.7087  -14.4339   20.6486 C   0  0  0  0  0  0
  -30.4312  -12.3177   19.3968 C   0  0  0  0  0  0
  -29.4900  -12.5231   18.1928 C   0  0  0  0  0  0
  -28.0128  -12.3714   18.6100 C   0  0  0  0  0  0
  -27.6633  -13.1992   19.8755 C   0  0  2  0  0  0
  -28.7037  -12.9416   20.9860 C   0  0  0  0  0  0
  -25.2598  -13.8144   20.5664 C   0  0  0  0  0  0
  -24.1844  -13.0433   20.9165 C   0  0  0  0  0  0
  -24.6387  -11.6897   20.8729 C   0  0  0  0  0  0
  -23.9050  -10.4291   21.0407 C   0  0  0  0  0  0
  -24.3608   -9.4207   21.9185 C   0  0  0  0  0  0
  -23.6287   -8.2242   22.0754 C   0  0  0  0  0  0
  -22.4268   -8.0281   21.3547 C   0  0  0  0  0  0
  -21.9901   -9.0251   20.4647 C   0  0  0  0  0  0
  -22.7225  -10.2130   20.3055 C   0  0  0  0  0  0
  -21.6850   -6.0735   22.5279 C   0  0  0  0  0  0
  -21.4012   -6.5641   23.8212 C   0  0  0  0  0  0
  -21.3657   -5.6793   24.9176 C   0  0  0  0  0  0
  -21.6045   -4.3054   24.7226 C   0  0  0  0  0  0
  -21.8820   -3.8146   23.4346 C   0  0  0  0  0  0
  -21.9193   -4.6962   22.3403 C   0  0  0  0  0  0
  -22.7869  -13.5240   21.1835 C   0  0  0  0  0  0
  -22.1660   -4.2149   21.0980 F   0  0  0  0  0  0
  -21.5629   -3.4538   25.7738 F   0  0  0  0  0  0
  -30.0367  -13.2697   20.4441 N   0  0  0  0  0  0
  -26.3024  -12.9298   20.3352 N   0  0  0  0  0  0
  -25.9309  -11.6462   20.5747 N   0  0  0  0  0  0
  -22.0508  -12.8240   22.0397 N   0  0  0  0  0  0
  -25.4338  -15.1859   20.4078 N   0  0  0  0  0  0
  -31.7911  -14.7047   20.1202 O   0  0  0  0  0  0
  -21.6637   -6.8878   21.4240 O   0  0  0  0  0  0
  -22.3558  -14.5550   20.6693 O   0  0  0  0  0  0
  -24.6154  -31.8652   23.2068 C   0  0  0  0  0  0
  -25.9032  -32.4811   23.8374 C   0  0  1  0  0  0
  -27.2496  -27.4195   20.0828 C   0  0  0  0  0  0
  -25.5896  -33.8609   24.2306 N   0  0  0  0  0  0
  -23.4045  -30.4876   21.5465 C   0  0  2  0  0  0
  -24.8508  -28.9433   20.1169 C   0  0  0  0  0  0
  -22.7406  -29.4656   22.4972 C   0  0  0  0  0  0
  -18.0272  -28.1383   22.8507 C   0  0  0  0  0  0
  -24.1474  -36.7284   23.2644 C   0  0  0  0  0  0
  -25.9340  -30.8245   21.3610 C   0  0  0  0  0  0
  -26.0108  -29.4568   20.7068 C   0  0  0  0  0  0
  -27.2078  -28.7033   20.6825 C   0  0  0  0  0  0
  -26.0607  -26.9124   19.5119 C   0  0  0  0  0  0
  -24.8712  -27.6697   19.5193 C   0  0  0  0  0  0
  -23.6138  -29.8134   20.1633 C   0  0  0  0  0  0
  -25.4099  -36.3099   24.0348 C   0  0  1  0  0  0
  -20.5862  -28.3667   23.1311 C   0  0  2  0  0  0
  -20.6755  -26.9402   22.5416 C   0  0  0  0  0  0
  -19.5738  -26.6385   21.5210 C   0  0  0  0  0  0
  -18.1916  -26.7931   22.1622 C   0  0  0  0  0  0
  -19.1525  -28.8841   23.2912 C   0  0  0  0  0  0
  -18.9457  -30.1445   23.8930 C   0  0  0  0  0  0
  -17.6465  -30.6596   24.0576 C   0  0  0  0  0  0
  -25.9035  -34.9476   23.5130 C   0  0  0  0  0  0
  -16.5351  -29.9106   23.6335 C   0  0  0  0  0  0
  -16.7266  -28.6513   23.0373 C   0  0  0  0  0  0
  -26.4473  -31.6605   25.0711 C   0  0  0  0  0  0
  -25.3758  -31.3706   26.1478 C   0  0  0  0  0  0
  -27.0309  -30.3056   24.6080 C   0  0  0  0  0  0
  -27.6051  -32.4331   25.7475 C   0  0  0  0  0  0
  -27.5578  -37.1787   24.8471 C   0  0  0  0  0  0
  -21.4131  -29.3041   22.3715 N   0  0  0  0  0  0
  -26.4277  -37.3795   23.9443 N   0  0  0  0  0  0
  -24.6697  -31.0743   22.0958 N   0  0  0  0  0  0
  -23.4178  -28.8206   23.3022 O   0  0  0  0  0  0
  -28.4571  -26.7373   20.0967 O   0  0  0  0  0  0
  -26.5609  -34.8939   22.4693 O   0  0  0  0  0  0
  -23.5341  -32.1406   23.7447 O   0  0  0  0  0  0
  -29.7483  -19.7569   19.9226 C   0  0  0  0  0  0
  -30.2677  -18.6691   20.5870 C   0  0  0  0  0  0
  -31.8007  -19.4181   19.1217 C   0  0  0  0  0  0
  -30.6190  -23.8733   16.4971 C   0  0  0  0  0  0
  -29.9165  -20.6802   16.7631 C   0  0  0  0  0  0
  -28.2540  -17.4859   21.4427 C   0  0  0  0  0  0
  -29.7908  -18.7456   22.9694 C   0  0  0  0  0  0
  -33.6135  -20.5707   17.6376 C   0  0  0  0  0  0
  -32.9698  -18.1818   17.2820 C   0  0  0  0  0  0
  -34.2448  -18.8640   19.3122 C   0  0  0  0  0  0
  -27.9244  -25.1200   17.2179 C   0  0  0  0  0  0
  -29.9183  -26.5063   17.8135 C   0  0  0  0  0  0
  -29.6251  -22.5537   18.5128 C   0  0  0  0  0  0
  -30.5790  -16.5473   22.0348 C   0  0  0  0  0  0
  -28.6178  -25.3713   19.6429 C   0  0  0  0  0  0
  -30.1068  -23.9586   17.9668 C   0  0  2  0  0  0
  -30.4830  -21.3129   18.0510 C   0  0  1  0  0  0
  -29.7290  -17.8348   21.7303 C   0  0  0  0  0  0
  -33.1159  -19.2928   18.3418 C   0  0  0  0  0  0
  -29.1380  -25.2105   18.1692 C   0  0  0  0  0  0
  -30.6970  -20.2146   19.0348 N   0  0  0  0  0  0
  -31.5133  -18.5043   20.0555 N   0  3  0  0  0  0
  -30.0771  -15.2971   21.4552 N   0  0  0  0  0  0
  -31.4717  -12.4443   19.0915 H   0  0  0  0  0  0
  -30.3545  -11.2969   19.7747 H   0  0  0  0  0  0
  -29.7299  -11.8118   17.4018 H   0  0  0  0  0  0
  -29.6480  -13.5162   17.7696 H   0  0  0  0  0  0
  -27.8266  -11.3128   18.7976 H   0  0  0  0  0  0
  -27.3571  -12.6506   17.7840 H   0  0  0  0  0  0
  -27.7184  -14.2522   19.5977 H   0  0  0  0  0  0
  -28.6847  -11.8914   21.2799 H   0  0  0  0  0  0
  -28.4467  -13.4892   21.8928 H   0  0  0  0  0  0
  -25.2756   -9.5685   22.4754 H   0  0  0  0  0  0
  -24.0000   -7.4632   22.7472 H   0  0  0  0  0  0
  -21.0831   -8.8767   19.8955 H   0  0  0  0  0  0
  -22.3686  -10.9667   19.6161 H   0  0  0  0  0  0
  -21.2002   -7.6149   23.9717 H   0  0  0  0  0  0
  -21.1477   -6.0523   25.9079 H   0  0  0  0  0  0
  -22.0601   -2.7607   23.2845 H   0  0  0  0  0  0
  -22.4107  -11.9890   22.4774 H   0  0  0  0  0  0
  -21.1129  -13.1279   22.2608 H   0  0  0  0  0  0
  -24.6702  -15.8433   20.5198 H   0  0  0  0  0  0
  -26.2892  -15.6221   20.0896 H   0  0  0  0  0  0
  -26.7104  -32.5517   23.1134 H   0  0  0  0  0  0
  -25.0090  -33.9772   25.0485 H   0  0  0  0  0  0
  -22.6946  -31.3048   21.4031 H   0  0  0  0  0  0
  -23.3762  -35.9586   23.3290 H   0  0  0  0  0  0
  -24.3579  -36.8911   22.2063 H   0  0  0  0  0  0
  -23.7181  -37.6464   23.6670 H   0  0  0  0  0  0
  -26.0509  -31.5900   20.5921 H   0  0  0  0  0  0
  -26.8202  -30.8749   21.9822 H   0  0  0  0  0  0
  -28.1068  -29.1026   21.1310 H   0  0  0  0  0  0
  -26.0310  -25.9361   19.0548 H   0  0  0  0  0  0
  -23.9772  -27.2606   19.0695 H   0  0  0  0  0  0
  -23.7269  -30.5872   19.4029 H   0  0  0  0  0  0
  -22.7364  -29.2369   19.8639 H   0  0  0  0  0  0
  -25.1261  -36.1955   25.0836 H   0  0  0  0  0  0
  -20.9978  -28.3230   24.1419 H   0  0  0  0  0  0
  -20.5633  -26.2282   23.3607 H   0  0  0  0  0  0
  -21.6632  -26.7428   22.1231 H   0  0  0  0  0  0
  -19.6912  -25.6296   21.1243 H   0  0  0  0  0  0
  -19.6689  -27.3196   20.6745 H   0  0  0  0  0  0
  -17.4190  -26.6692   21.4022 H   0  0  0  0  0  0
  -18.0323  -26.0051   22.8996 H   0  0  0  0  0  0
  -19.7942  -30.7239   24.2322 H   0  0  0  0  0  0
  -17.5034  -31.6291   24.5153 H   0  0  0  0  0  0
  -15.5360  -30.3030   23.7640 H   0  0  0  0  0  0
  -15.8657  -28.0836   22.7099 H   0  0  0  0  0  0
  -24.5920  -30.7063   25.7821 H   0  0  0  0  0  0
  -24.8968  -32.2859   26.4967 H   0  0  0  0  0  0
  -25.8123  -30.8856   27.0216 H   0  0  0  0  0  0
  -26.2842  -29.6812   24.1156 H   0  0  0  0  0  0
  -27.4121  -29.7300   25.4523 H   0  0  0  0  0  0
  -27.8664  -30.4398   23.9204 H   0  0  0  0  0  0
  -27.2670  -33.3617   26.2089 H   0  0  0  0  0  0
  -28.3842  -32.6907   25.0288 H   0  0  0  0  0  0
  -28.0750  -31.8437   26.5359 H   0  0  0  0  0  0
  -28.2581  -38.0101   24.7555 H   0  0  0  0  0  0
  -28.1080  -36.2636   24.6232 H   0  0  0  0  0  0
  -27.2318  -37.1357   25.8878 H   0  0  0  0  0  0
  -20.9276  -29.8766   21.6948 H   0  0  0  0  0  0
  -26.0157  -38.2860   24.1479 H   0  0  0  0  0  0
  -28.7826  -20.2324   20.0217 H   0  0  0  0  0  0
  -31.4180  -23.1487   16.3584 H   0  0  0  0  0  0
  -31.0598  -24.7988   16.1395 H   0  0  0  0  0  0
  -29.8274  -23.6051   15.8006 H   0  0  0  0  0  0
  -29.7684  -21.3986   15.9617 H   0  0  0  0  0  0
  -28.9519  -20.2091   16.9539 H   0  0  0  0  0  0
  -30.5793  -19.9105   16.3750 H   0  0  0  0  0  0
  -27.6369  -18.3799   21.3520 H   0  0  0  0  0  0
  -27.8271  -16.8805   22.2429 H   0  0  0  0  0  0
  -28.1504  -16.9295   20.5103 H   0  0  0  0  0  0
  -29.2273  -19.6673   22.8203 H   0  0  0  0  0  0
  -30.8186  -19.0264   23.2026 H   0  0  0  0  0  0
  -29.3751  -18.2532   23.8487 H   0  0  0  0  0  0
  -33.0048  -20.8319   16.7730 H   0  0  0  0  0  0
  -34.6214  -20.4320   17.2445 H   0  0  0  0  0  0
  -33.6583  -21.4211   18.3190 H   0  0  0  0  0  0
  -32.2047  -18.4171   16.5451 H   0  0  0  0  0  0
  -32.6983  -17.2266   17.7327 H   0  0  0  0  0  0
  -33.9016  -18.0265   16.7367 H   0  0  0  0  0  0
  -34.3686  -19.5842   20.1217 H   0  0  0  0  0  0
  -35.2063  -18.7849   18.8032 H   0  0  0  0  0  0
  -34.0622  -17.8883   19.7633 H   0  0  0  0  0  0
  -27.3290  -26.0307   17.2506 H   0  0  0  0  0  0
  -27.2735  -24.2840   17.4719 H   0  0  0  0  0  0
  -28.2128  -25.0068   16.1747 H   0  0  0  0  0  0
  -29.3309  -27.4058   17.9940 H   0  0  0  0  0  0
  -30.1857  -26.5757   16.7617 H   0  0  0  0  0  0
  -30.8332  -26.5955   18.4012 H   0  0  0  0  0  0
  -28.5820  -22.3859   18.2434 H   0  0  0  0  0  0
  -29.6350  -22.6029   19.6023 H   0  0  0  0  0  0
  -30.5210  -16.3535   23.1065 H   0  0  0  0  0  0
  -31.6456  -16.6863   21.8586 H   0  0  0  0  0  0
  -29.3778  -24.9613   20.3088 H   0  0  0  0  0  0
  -27.7355  -24.7605   19.8386 H   0  0  0  0  0  0
  -30.9982  -24.1806   18.5568 H   0  0  0  0  0  0
  -31.4636  -21.7250   17.8882 H   0  0  0  0  0  0
  -32.1555  -17.7660   20.3165 H   0  0  0  0  0  0
  -29.1848  -14.9795   21.8011 H   0  0  0  0  0  0
  1 25  1  0  0  0
  1 30  2  0  0  0
  1 93  1  0  0  0
  2  3  1  0  0  0
  2 25  1  0  0  0
  2 94  1  0  0  0
  2 95  1  0  0  0
  3  4  1  0  0  0
  3 96  1  0  0  0
  3 97  1  0  0  0
  4  5  1  0  0  0
  4 98  1  0  0  0
  4 99  1  0  0  0
  5  6  1  0  0  0
  5 26  1  0  0  0
  5100  1  0  0  0
  6 25  1  0  0  0
  6101  1  0  0  0
  6102  1  0  0  0
  7  8  2  0  0  0
  7 26  1  0  0  0
  7 29  1  0  0  0
  8  9  1  0  0  0
  8 22  1  0  0  0
  9 10  1  0  0  0
  9 27  2  0  0  0
 10 11  2  0  0  0
 10 15  1  0  0  0
 11 12  1  0  0  0
 11103  1  0  0  0
 12 13  2  0  0  0
 12104  1  0  0  0
 13 14  1  0  0  0
 13 31  1  0  0  0
 14 15  2  0  0  0
 14105  1  0  0  0
 15106  1  0  0  0
 16 17  2  0  0  0
 16 21  1  0  0  0
 16 31  1  0  0  0
 17 18  1  0  0  0
 17107  1  0  0  0
 18 19  2  0  0  0
 18108  1  0  0  0
 19 20  1  0  0  0
 19 24  1  0  0  0
 20 21  2  0  0  0
 20109  1  0  0  0
 21 23  1  0  0  0
 22 28  1  0  0  0
 22 32  2  0  0  0
 26 27  1  0  0  0
 28110  1  0  0  0
 28111  1  0  0  0
 29112  1  0  0  0
 29113  1  0  0  0
 33 34  1  0  0  0
 33 66  1  0  0  0
 33 70  2  0  0  0
 34 36  1  0  0  0
 34 59  1  0  0  0
 34114  1  0  0  0
 35 44  2  0  0  0
 35 45  1  0  0  0
 35 68  1  0  0  0
 36 56  1  0  0  0
 36115  1  0  0  0
 37 39  1  0  0  0
 37 47  1  0  0  0
 37 66  1  0  0  0
 37116  1  0  0  0
 38 43  2  0  0  0
 38 46  1  0  0  0
 38 47  1  0  0  0
 39 64  1  0  0  0
 39 67  2  0  0  0
 40 52  1  0  0  0
 40 53  2  0  0  0
 40 58  1  0  0  0
 41117  1  0  0  0
 41118  1  0  0  0
 41119  1  0  0  0
 41 48  1  0  0  0
 42 43  1  0  0  0
 42 66  1  0  0  0
 42120  1  0  0  0
 42121  1  0  0  0
 43 44  1  0  0  0
 44122  1  0  0  0
 45 46  2  0  0  0
 45123  1  0  0  0
 46124  1  0  0  0
 47125  1  0  0  0
 47126  1  0  0  0
 48 56  1  0  0  0
 48 65  1  0  0  0
 48127  1  0  0  0
 49 50  1  0  0  0
 49 53  1  0  0  0
 49 64  1  0  0  0
 49128  1  0  0  0
 50 51  1  0  0  0
 50129  1  0  0  0
 50130  1  0  0  0
 51 52  1  0  0  0
 51131  1  0  0  0
 51132  1  0  0  0
 52133  1  0  0  0
 52134  1  0  0  0
 53 54  1  0  0  0
 54 55  2  0  0  0
 54135  1  0  0  0
 55 57  1  0  0  0
 55136  1  0  0  0
 56 69  2  0  0  0
 57 58  2  0  0  0
 57137  1  0  0  0
 58138  1  0  0  0
 59 60  1  0  0  0
 59 61  1  0  0  0
 59 62  1  0  0  0
 60139  1  0  0  0
 60140  1  0  0  0
 60141  1  0  0  0
 61142  1  0  0  0
 61143  1  0  0  0
 61144  1  0  0  0
 62145  1  0  0  0
 62146  1  0  0  0
 62147  1  0  0  0
 63 65  1  0  0  0
 63148  1  0  0  0
 63149  1  0  0  0
 63150  1  0  0  0
 64151  1  0  0  0
 65152  1  0  0  0
 68 85  1  0  0  0
 71 72  2  0  0  0
 71 91  1  0  0  0
 71153  1  0  0  0
 72 88  1  0  0  0
 72 92  1  0  0  0
 73 89  1  0  0  0
 73 91  1  0  0  0
 73 92  2  0  0  0
 74154  1  0  0  0
 74155  1  0  0  0
 74156  1  0  0  0
 74 86  1  0  0  0
 75157  1  0  0  0
 75158  1  0  0  0
 75159  1  0  0  0
 75 87  1  0  0  0
 76160  1  0  0  0
 76161  1  0  0  0
 76162  1  0  0  0
 76 88  1  0  0  0
 77 88  1  0  0  0
 77163  1  0  0  0
 77164  1  0  0  0
 77165  1  0  0  0
 78166  1  0  0  0
 78167  1  0  0  0
 78168  1  0  0  0
 78 89  1  0  0  0
 79 89  1  0  0  0
 79169  1  0  0  0
 79170  1  0  0  0
 79171  1  0  0  0
 80 89  1  0  0  0
 80172  1  0  0  0
 80173  1  0  0  0
 80174  1  0  0  0
 81175  1  0  0  0
 81176  1  0  0  0
 81177  1  0  0  0
 81 90  1  0  0  0
 82 90  1  0  0  0
 82178  1  0  0  0
 82179  1  0  0  0
 82180  1  0  0  0
 83 86  1  0  0  0
 83 87  1  0  0  0
 83181  1  0  0  0
 83182  1  0  0  0
 84 88  1  0  0  0
 84 93  1  0  0  0
 84183  1  0  0  0
 84184  1  0  0  0
 85 90  1  0  0  0
 85185  1  0  0  0
 85186  1  0  0  0
 86 90  1  0  0  0
 86187  1  0  0  0
 87 91  1  0  0  0
 87188  1  0  0  0
 92189  1  0  0  0
 93190  1  0  0  0
M  CHG  1  92   1
M  ISO  4   1 100  68 101  85 101  93 100
M  END
> <chiral flag>
0

> <version>
0

> <s_m_source_file>
/data/baiqing/PycharmProjects/Reinvent-master-3.2/result/LINK_invent/BTK/process_docking_weight1_custom_sum_contain_oxygen_bond_distance_aromatic_linkinvent_7_9_3/rearranged_h_0069.sdf

> <i_m_source_file_index>
20

> <r_mmod_Potential_Energy-OPLS-2005>
4.36331081390381

> <r_mmod_Stretch_Energy-OPLS-2005>
58.4971160888672

> <r_mmod_Bend_Energy-OPLS-2005>
170.752578735352

> <r_mmod_Torsional_Energy-OPLS-2005>
302.932281494141

> <r_mmod_Improper_Torsional_Energy-OPLS-2005>
2.88321876525879

> <r_mmod_Van_der_Waal_Energy-OPLS-2005>
152.018493652344

> <r_mmod_Electrostatic_Energy-OPLS-2005>
-331.349182128906

> <r_mmod_Solvation_Energy-OPLS-2005>
-362.916015625

> <b_mmod_Minimization_Converged-OPLS-2005>
0

> <r_mmod_RMS_Derivative-OPLS-2005>
1.56577837467194

$$$$
20
                    3D
 Structure written by MMmdl.
164172  0  0  1  0            999 V2000
  -30.6556  -14.6887   20.3975 C   0  0  0  0  0  0
  -30.4326  -12.4023   19.4750 C   0  0  0  0  0  0
  -29.5225  -12.4516   18.2283 C   0  0  0  0  0  0
  -28.0462  -12.2900   18.6470 C   0  0  0  0  0  0
  -27.6468  -13.2174   19.8267 C   0  0  2  0  0  0
  -28.6878  -13.1890   20.9640 C   0  0  0  0  0  0
  -25.2628  -13.8107   20.5569 C   0  0  0  0  0  0
  -24.1894  -13.0421   20.9177 C   0  0  0  0  0  0
  -24.6438  -11.6885   20.8766 C   0  0  0  0  0  0
  -23.9098  -10.4293   21.0444 C   0  0  0  0  0  0
  -24.3648   -9.4220   21.9225 C   0  0  0  0  0  0
  -23.6320   -8.2256   22.0796 C   0  0  0  0  0  0
  -22.4311   -8.0298   21.3567 C   0  0  0  0  0  0
  -21.9941   -9.0272   20.4678 C   0  0  0  0  0  0
  -22.7270  -10.2149   20.3099 C   0  0  0  0  0  0
  -21.6873   -6.0776   22.5288 C   0  0  0  0  0  0
  -21.4015   -6.5660   23.8224 C   0  0  0  0  0  0
  -21.3666   -5.6795   24.9173 C   0  0  0  0  0  0
  -21.6043   -4.3058   24.7211 C   0  0  0  0  0  0
  -21.8798   -3.8173   23.4318 C   0  0  0  0  0  0
  -21.9185   -4.7004   22.3390 C   0  0  0  0  0  0
  -22.7935  -13.5307   21.1799 C   0  0  0  0  0  0
  -22.1650   -4.2191   21.0967 F   0  0  0  0  0  0
  -21.5641   -3.4533   25.7719 F   0  0  0  0  0  0
  -29.9986  -13.4836   20.3832 N   0  0  0  0  0  0
  -26.3014  -12.9289   20.3134 N   0  0  0  0  0  0
  -25.9385  -11.6465   20.5763 N   0  0  0  0  0  0
  -22.0475  -12.8381   22.0310 N   0  0  0  0  0  0
  -25.4338  -15.1794   20.3885 N   0  0  0  0  0  0
  -31.8860  -14.7118   20.3065 O   0  0  0  0  0  0
  -21.6642   -6.8926   21.4265 O   0  0  0  0  0  0
  -22.3702  -14.5654   20.6663 O   0  0  0  0  0  0
  -24.6222  -31.8636   23.2111 C   0  0  0  0  0  0
  -25.9093  -32.4780   23.8428 C   0  0  1  0  0  0
  -27.2133  -27.3360   20.1296 C   0  0  0  0  0  0
  -25.5944  -33.8581   24.2348 N   0  0  0  0  0  0
  -23.4141  -30.4931   21.5495 C   0  0  2  0  0  0
  -24.8607  -28.9552   20.1188 C   0  0  0  0  0  0
  -22.7431  -29.4659   22.4924 C   0  0  0  0  0  0
  -18.0299  -28.1383   22.8498 C   0  0  0  0  0  0
  -24.1480  -36.7252   23.2641 C   0  0  0  0  0  0
  -25.9545  -30.8034   21.3801 C   0  0  0  0  0  0
  -26.0307  -29.4338   20.7221 C   0  0  0  0  0  0
  -27.2117  -28.6344   20.7219 C   0  0  0  0  0  0
  -26.0187  -26.9186   19.4944 C   0  0  0  0  0  0
  -24.8534  -27.7011   19.5013 C   0  0  0  0  0  0
  -23.6299  -29.8324   20.1657 C   0  0  0  0  0  0
  -25.4095  -36.3042   24.0345 C   0  0  1  0  0  0
  -20.5885  -28.3693   23.1270 C   0  0  2  0  0  0
  -20.6754  -26.9419   22.5398 C   0  0  0  0  0  0
  -19.5732  -26.6391   21.5201 C   0  0  0  0  0  0
  -18.1932  -26.7927   22.1632 C   0  0  0  0  0  0
  -19.1540  -28.8852   23.2893 C   0  0  0  0  0  0
  -18.9480  -30.1463   23.8902 C   0  0  0  0  0  0
  -17.6476  -30.6599   24.0575 C   0  0  0  0  0  0
  -25.9044  -34.9426   23.5126 C   0  0  0  0  0  0
  -16.5367  -29.9097   23.6366 C   0  0  0  0  0  0
  -16.7277  -28.6506   23.0396 C   0  0  0  0  0  0
  -26.4527  -31.6570   25.0754 C   0  0  0  0  0  0
  -25.3797  -31.3696   26.1512 C   0  0  0  0  0  0
  -27.0374  -30.2997   24.6166 C   0  0  0  0  0  0
  -27.6096  -32.4303   25.7506 C   0  0  0  0  0  0
  -27.5556  -37.1782   24.8473 C   0  0  0  0  0  0
  -21.4149  -29.3062   22.3655 N   0  0  0  0  0  0
  -26.4246  -37.3756   23.9423 N   0  0  0  0  0  0
  -24.6812  -31.0695   22.1037 N   0  0  0  0  0  0
  -23.4165  -28.8200   23.2988 O   0  0  0  0  0  0
  -28.3182  -26.4687   20.1924 O   0  0  0  0  0  0
  -26.5589  -34.8880   22.4680 O   0  0  0  0  0  0
  -23.5396  -32.1422   23.7460 O   0  0  0  0  0  0
  -29.5645  -17.1291   20.7041 C   0  0  0  0  0  0
  -29.7552  -17.3492   18.0500 C   0  0  0  0  0  0
  -29.9601  -15.9938   19.9100 C   0  0  0  0  0  0
  -29.2510  -18.3703   20.0425 C   0  0  0  0  0  0
  -28.4312  -19.4762   22.2020 C   0  0  0  0  0  0
  -27.1416  -19.7071   20.0871 C   0  0  0  0  0  0
  -29.7912  -24.1821   21.8077 C   0  0  0  0  0  0
  -30.1841  -24.0456   19.3522 C   0  0  0  0  0  0
  -29.3187  -21.0741   20.4188 C   0  0  0  0  0  0
  -28.4614  -22.4347   20.4429 C   0  0  0  0  0  0
  -28.0137  -25.0218   20.1853 C   0  0  0  0  0  0
  -28.5740  -19.6590   20.6765 C   0  0  0  0  0  0
  -29.1182  -23.9072   20.4492 C   0  0  0  0  0  0
  -30.0261  -16.1625   18.5730 N   0  0  0  0  0  0
  -29.3781  -18.4335   18.7079 N   0  0  0  0  0  0
  -31.4801  -12.4979   19.1835 H   0  0  0  0  0  0
  -30.3419  -11.4334   19.9663 H   0  0  0  0  0  0
  -29.8042  -11.6584   17.5322 H   0  0  0  0  0  0
  -29.6683  -13.3901   17.6906 H   0  0  0  0  0  0
  -27.9208  -11.2498   18.9482 H   0  0  0  0  0  0
  -27.3827  -12.4393   17.7930 H   0  0  0  0  0  0
  -27.6371  -14.2287   19.4220 H   0  0  0  0  0  0
  -28.7061  -12.2148   21.4533 H   0  0  0  0  0  0
  -28.4364  -13.9182   21.7377 H   0  0  0  0  0  0
  -25.2776   -9.5729   22.4827 H   0  0  0  0  0  0
  -24.0007   -7.4693   22.7577 H   0  0  0  0  0  0
  -21.0836   -8.8810   19.9037 H   0  0  0  0  0  0
  -22.3704  -10.9714   19.6240 H   0  0  0  0  0  0
  -21.1990   -7.6162   23.9743 H   0  0  0  0  0  0
  -21.1543   -6.0522   25.9087 H   0  0  0  0  0  0
  -22.0582   -2.7647   23.2786 H   0  0  0  0  0  0
  -22.3963  -12.0026   22.4773 H   0  0  0  0  0  0
  -21.1154  -13.1613   22.2479 H   0  0  0  0  0  0
  -24.6454  -15.8134   20.4565 H   0  0  0  0  0  0
  -26.2599  -15.6090   19.9930 H   0  0  0  0  0  0
  -26.7131  -32.5486   23.1169 H   0  0  0  0  0  0
  -25.0145  -33.9760   25.0518 H   0  0  0  0  0  0
  -22.7116  -31.3169   21.4084 H   0  0  0  0  0  0
  -23.3727  -35.9596   23.3296 H   0  0  0  0  0  0
  -24.3594  -36.8871   22.2059 H   0  0  0  0  0  0
  -23.7247  -37.6456   23.6664 H   0  0  0  0  0  0
  -26.0832  -31.5696   20.6150 H   0  0  0  0  0  0
  -26.8362  -30.8556   22.0064 H   0  0  0  0  0  0
  -28.0963  -28.9989   21.2279 H   0  0  0  0  0  0
  -25.9341  -25.9673   18.9968 H   0  0  0  0  0  0
  -23.9509  -27.3251   19.0410 H   0  0  0  0  0  0
  -23.7491  -30.6085   19.4101 H   0  0  0  0  0  0
  -22.7549  -29.2563   19.8626 H   0  0  0  0  0  0
  -25.1276  -36.1874   25.0833 H   0  0  0  0  0  0
  -21.0039  -28.3252   24.1361 H   0  0  0  0  0  0
  -20.5636  -26.2312   23.3602 H   0  0  0  0  0  0
  -21.6638  -26.7442   22.1217 H   0  0  0  0  0  0
  -19.6906  -25.6303   21.1249 H   0  0  0  0  0  0
  -19.6653  -27.3183   20.6718 H   0  0  0  0  0  0
  -17.4200  -26.6692   21.4037 H   0  0  0  0  0  0
  -18.0345  -26.0060   22.9019 H   0  0  0  0  0  0
  -19.7959  -30.7293   24.2231 H   0  0  0  0  0  0
  -17.5045  -31.6276   24.5179 H   0  0  0  0  0  0
  -15.5369  -30.3015   23.7676 H   0  0  0  0  0  0
  -15.8673  -28.0825   22.7128 H   0  0  0  0  0  0
  -24.5970  -30.7029   25.7867 H   0  0  0  0  0  0
  -24.8998  -32.2868   26.4943 H   0  0  0  0  0  0
  -25.8184  -30.8892   27.0271 H   0  0  0  0  0  0
  -26.2942  -29.6736   24.1210 H   0  0  0  0  0  0
  -27.4116  -29.7251   25.4651 H   0  0  0  0  0  0
  -27.8799  -30.4292   23.9362 H   0  0  0  0  0  0
  -27.2725  -33.3623   26.2058 H   0  0  0  0  0  0
  -28.3933  -32.6833   25.0346 H   0  0  0  0  0  0
  -28.0727  -31.8432   26.5449 H   0  0  0  0  0  0
  -28.2579  -38.0076   24.7525 H   0  0  0  0  0  0
  -28.1058  -36.2620   24.6293 H   0  0  0  0  0  0
  -27.2293  -37.1429   25.8881 H   0  0  0  0  0  0
  -20.9280  -29.8805   21.6905 H   0  0  0  0  0  0
  -26.0109  -38.2797   24.1480 H   0  0  0  0  0  0
  -29.5191  -17.0453   21.7804 H   0  0  0  0  0  0
  -29.8489  -17.4436   16.9788 H   0  0  0  0  0  0
  -27.9599  -20.3405   22.6760 H   0  0  0  0  0  0
  -27.8204  -18.6064   22.4534 H   0  0  0  0  0  0
  -29.4085  -19.3414   22.6694 H   0  0  0  0  0  0
  -26.6366  -18.7444   20.1953 H   0  0  0  0  0  0
  -27.1708  -19.9243   19.0197 H   0  0  0  0  0  0
  -26.5127  -20.4591   20.5604 H   0  0  0  0  0  0
  -30.7129  -23.6096   21.9225 H   0  0  0  0  0  0
  -29.1386  -23.9394   22.6475 H   0  0  0  0  0  0
  -30.0654  -25.2343   21.8998 H   0  0  0  0  0  0
  -29.7502  -23.9384   18.3583 H   0  0  0  0  0  0
  -30.9749  -23.3044   19.4657 H   0  0  0  0  0  0
  -30.6603  -25.0280   19.4031 H   0  0  0  0  0  0
  -30.1524  -21.1580   21.1162 H   0  0  0  0  0  0
  -29.7976  -21.0248   19.4417 H   0  0  0  0  0  0
  -27.7846  -22.3917   21.2996 H   0  0  0  0  0  0
  -27.8046  -22.3920   19.5715 H   0  0  0  0  0  0
  -27.2156  -24.8597   20.9122 H   0  0  0  0  0  0
  -27.6028  -24.7742   19.2095 H   0  0  0  0  0  0
  1 25  1  0  0  0
  1 30  2  0  0  0
  1 73  1  0  0  0
  2  3  1  0  0  0
  2 25  1  0  0  0
  2 86  1  0  0  0
  2 87  1  0  0  0
  3  4  1  0  0  0
  3 88  1  0  0  0
  3 89  1  0  0  0
  4  5  1  0  0  0
  4 90  1  0  0  0
  4 91  1  0  0  0
  5  6  1  0  0  0
  5 26  1  0  0  0
  5 92  1  0  0  0
  6 25  1  0  0  0
  6 93  1  0  0  0
  6 94  1  0  0  0
  7  8  2  0  0  0
  7 26  1  0  0  0
  7 29  1  0  0  0
  8  9  1  0  0  0
  8 22  1  0  0  0
  9 10  1  0  0  0
  9 27  2  0  0  0
 10 11  2  0  0  0
 10 15  1  0  0  0
 11 12  1  0  0  0
 11 95  1  0  0  0
 12 13  2  0  0  0
 12 96  1  0  0  0
 13 14  1  0  0  0
 13 31  1  0  0  0
 14 15  2  0  0  0
 14 97  1  0  0  0
 15 98  1  0  0  0
 16 17  2  0  0  0
 16 21  1  0  0  0
 16 31  1  0  0  0
 17 18  1  0  0  0
 17 99  1  0  0  0
 18 19  2  0  0  0
 18100  1  0  0  0
 19 20  1  0  0  0
 19 24  1  0  0  0
 20 21  2  0  0  0
 20101  1  0  0  0
 21 23  1  0  0  0
 22 28  1  0  0  0
 22 32  2  0  0  0
 26 27  1  0  0  0
 28102  1  0  0  0
 28103  1  0  0  0
 29104  1  0  0  0
 29105  1  0  0  0
 33 34  1  0  0  0
 33 66  1  0  0  0
 33 70  2  0  0  0
 34 36  1  0  0  0
 34 59  1  0  0  0
 34106  1  0  0  0
 35 44  2  0  0  0
 35 45  1  0  0  0
 35 68  1  0  0  0
 36 56  1  0  0  0
 36107  1  0  0  0
 37 39  1  0  0  0
 37 47  1  0  0  0
 37 66  1  0  0  0
 37108  1  0  0  0
 38 43  2  0  0  0
 38 46  1  0  0  0
 38 47  1  0  0  0
 39 64  1  0  0  0
 39 67  2  0  0  0
 40 52  1  0  0  0
 40 53  2  0  0  0
 40 58  1  0  0  0
 41109  1  0  0  0
 41110  1  0  0  0
 41111  1  0  0  0
 41 48  1  0  0  0
 42 43  1  0  0  0
 42 66  1  0  0  0
 42112  1  0  0  0
 42113  1  0  0  0
 43 44  1  0  0  0
 44114  1  0  0  0
 45 46  2  0  0  0
 45115  1  0  0  0
 46116  1  0  0  0
 47117  1  0  0  0
 47118  1  0  0  0
 48 56  1  0  0  0
 48 65  1  0  0  0
 48119  1  0  0  0
 49 50  1  0  0  0
 49 53  1  0  0  0
 49 64  1  0  0  0
 49120  1  0  0  0
 50 51  1  0  0  0
 50121  1  0  0  0
 50122  1  0  0  0
 51 52  1  0  0  0
 51123  1  0  0  0
 51124  1  0  0  0
 52125  1  0  0  0
 52126  1  0  0  0
 53 54  1  0  0  0
 54 55  2  0  0  0
 54127  1  0  0  0
 55 57  1  0  0  0
 55128  1  0  0  0
 56 69  2  0  0  0
 57 58  2  0  0  0
 57129  1  0  0  0
 58130  1  0  0  0
 59 60  1  0  0  0
 59 61  1  0  0  0
 59 62  1  0  0  0
 60131  1  0  0  0
 60132  1  0  0  0
 60133  1  0  0  0
 61134  1  0  0  0
 61135  1  0  0  0
 61136  1  0  0  0
 62137  1  0  0  0
 62138  1  0  0  0
 62139  1  0  0  0
 63 65  1  0  0  0
 63140  1  0  0  0
 63141  1  0  0  0
 63142  1  0  0  0
 64143  1  0  0  0
 65144  1  0  0  0
 68 81  1  0  0  0
 71 73  2  0  0  0
 71 74  1  0  0  0
 71145  1  0  0  0
 72 84  2  0  0  0
 72 85  1  0  0  0
 72146  1  0  0  0
 73 84  1  0  0  0
 74 82  1  0  0  0
 74 85  2  0  0  0
 75147  1  0  0  0
 75148  1  0  0  0
 75149  1  0  0  0
 75 82  1  0  0  0
 76 82  1  0  0  0
 76150  1  0  0  0
 76151  1  0  0  0
 76152  1  0  0  0
 77153  1  0  0  0
 77154  1  0  0  0
 77155  1  0  0  0
 77 83  1  0  0  0
 78 83  1  0  0  0
 78156  1  0  0  0
 78157  1  0  0  0
 78158  1  0  0  0
 79 80  1  0  0  0
 79 82  1  0  0  0
 79159  1  0  0  0
 79160  1  0  0  0
 80 83  1  0  0  0
 80161  1  0  0  0
 80162  1  0  0  0
 81 83  1  0  0  0
 81163  1  0  0  0
 81164  1  0  0  0
M  ISO  4   1 100  68 101  73 100  81 101
M  END
> <chiral flag>
0

> <version>
0

> <s_m_source_file>
/data/baiqing/PycharmProjects/Reinvent-master-3.2/result/LINK_invent/BTK/process_docking_weight1_custom_sum_contain_oxygen_bond_distance_aromatic_linkinvent_7_9_3/rearranged_h_0069.sdf

> <i_m_source_file_index>
21

> <r_mmod_Potential_Energy-OPLS-2005>
-152.988906860352

> <r_mmod_Stretch_Energy-OPLS-2005>
94.5400619506836

> <r_mmod_Bend_Energy-OPLS-2005>
162.131530761719

> <r_mmod_Torsional_Energy-OPLS-2005>
253.02458190918

> <r_mmod_Improper_Torsional_Energy-OPLS-2005>
21.3889427185059

> <r_mmod_Van_der_Waal_Energy-OPLS-2005>
149.782943725586

> <r_mmod_Electrostatic_Energy-OPLS-2005>
-709.400634765625

> <r_mmod_Solvation_Energy-OPLS-2005>
-195.612121582031

> <b_mmod_Minimization_Converged-OPLS-2005>
0

> <r_mmod_RMS_Derivative-OPLS-2005>
5.40182828903198

$$$$
21
                    3D
 Structure written by MMmdl.
186194  0  0  1  0            999 V2000
  -30.6314  -14.7103   20.5030 C   0  0  0  0  0  0
  -30.4344  -12.4388   19.4706 C   0  0  0  0  0  0
  -29.5080  -12.5190   18.2362 C   0  0  0  0  0  0
  -28.0289  -12.3512   18.6404 C   0  0  0  0  0  0
  -27.6496  -13.2143   19.8713 C   0  0  2  0  0  0
  -28.6967  -13.0632   20.9910 C   0  0  0  0  0  0
  -25.2557  -13.8172   20.5692 C   0  0  0  0  0  0
  -24.1819  -13.0436   20.9189 C   0  0  0  0  0  0
  -24.6382  -11.6904   20.8748 C   0  0  0  0  0  0
  -23.9035  -10.4292   21.0420 C   0  0  0  0  0  0
  -24.3591   -9.4206   21.9194 C   0  0  0  0  0  0
  -23.6273   -8.2237   22.0754 C   0  0  0  0  0  0
  -22.4260   -8.0271   21.3538 C   0  0  0  0  0  0
  -21.9896   -9.0247   20.4640 C   0  0  0  0  0  0
  -22.7210  -10.2138   20.3060 C   0  0  0  0  0  0
  -21.6859   -6.0720   22.5270 C   0  0  0  0  0  0
  -21.4025   -6.5633   23.8198 C   0  0  0  0  0  0
  -21.3660   -5.6791   24.9165 C   0  0  0  0  0  0
  -21.6044   -4.3049   24.7217 C   0  0  0  0  0  0
  -21.8833   -3.8133   23.4341 C   0  0  0  0  0  0
  -21.9205   -4.6949   22.3395 C   0  0  0  0  0  0
  -22.7845  -13.5243   21.1850 C   0  0  0  0  0  0
  -22.1673   -4.2130   21.0970 F   0  0  0  0  0  0
  -21.5621   -3.4540   25.7729 F   0  0  0  0  0  0
  -29.9935  -13.4809   20.4367 N   0  0  0  0  0  0
  -26.2972  -12.9331   20.3369 N   0  0  0  0  0  0
  -25.9311  -11.6488   20.5799 N   0  0  0  0  0  0
  -22.0496  -12.8217   22.0403 N   0  0  0  0  0  0
  -25.4301  -15.1877   20.4082 N   0  0  0  0  0  0
  -31.7951  -14.7507   20.0832 O   0  0  0  0  0  0
  -21.6638   -6.8860   21.4226 O   0  0  0  0  0  0
  -22.3523  -14.5551   20.6711 O   0  0  0  0  0  0
  -24.6262  -31.8591   23.2006 C   0  0  0  0  0  0
  -25.9114  -32.4775   23.8333 C   0  0  1  0  0  0
  -27.2245  -27.3187   20.1234 C   0  0  0  0  0  0
  -25.5931  -33.8574   24.2261 N   0  0  0  0  0  0
  -23.4200  -30.4804   21.5438 C   0  0  2  0  0  0
  -24.8675  -28.9307   20.1134 C   0  0  0  0  0  0
  -22.7473  -29.4620   22.4945 C   0  0  0  0  0  0
  -18.0286  -28.1391   22.8485 C   0  0  0  0  0  0
  -24.1495  -36.7291   23.2635 C   0  0  0  0  0  0
  -25.9601  -30.7904   21.3702 C   0  0  0  0  0  0
  -26.0364  -29.4161   20.7156 C   0  0  0  0  0  0
  -27.2217  -28.6222   20.7079 C   0  0  0  0  0  0
  -26.0376  -26.8816   19.4999 C   0  0  0  0  0  0
  -24.8690  -27.6685   19.4970 C   0  0  0  0  0  0
  -23.6345  -29.8108   20.1610 C   0  0  0  0  0  0
  -25.4122  -36.3074   24.0317 C   0  0  1  0  0  0
  -20.5885  -28.3694   23.1291 C   0  0  2  0  0  0
  -20.6782  -26.9425   22.5414 C   0  0  0  0  0  0
  -19.5760  -26.6392   21.5220 C   0  0  0  0  0  0
  -18.1933  -26.7932   22.1624 C   0  0  0  0  0  0
  -19.1536  -28.8862   23.2879 C   0  0  0  0  0  0
  -18.9460  -30.1462   23.8900 C   0  0  0  0  0  0
  -17.6459  -30.6594   24.0570 C   0  0  0  0  0  0
  -25.9062  -34.9447   23.5092 C   0  0  0  0  0  0
  -16.5352  -29.9090   23.6336 C   0  0  0  0  0  0
  -16.7273  -28.6508   23.0357 C   0  0  0  0  0  0
  -26.4500  -31.6576   25.0698 C   0  0  0  0  0  0
  -25.3729  -31.3701   26.1416 C   0  0  0  0  0  0
  -27.0348  -30.3004   24.6138 C   0  0  0  0  0  0
  -27.6057  -32.4304   25.7477 C   0  0  0  0  0  0
  -27.5586  -37.1799   24.8462 C   0  0  0  0  0  0
  -21.4187  -29.3038   22.3681 N   0  0  0  0  0  0
  -26.4299  -37.3776   23.9406 N   0  0  0  0  0  0
  -24.6876  -31.0597   22.0955 N   0  0  0  0  0  0
  -23.4191  -28.8172   23.3041 O   0  0  0  0  0  0
  -28.3350  -26.4649   20.1278 O   0  0  0  0  0  0
  -26.5632  -34.8920   22.4660 O   0  0  0  0  0  0
  -23.5429  -32.1393   23.7337 O   0  0  0  0  0  0
  -28.3081  -17.3272   18.0860 C   0  0  0  0  0  0
  -29.0987  -18.3836   19.7246 C   0  0  0  0  0  0
  -26.2307  -17.7226   16.7552 C   0  0  0  0  0  0
  -27.3104  -15.5340   16.6540 C   0  0  0  0  0  0
  -28.9427  -16.0284   22.0750 C   0  0  0  0  0  0
  -31.1938  -16.9240   21.6301 C   0  0  0  0  0  0
  -30.0041  -17.1428   15.6940 C   0  0  0  0  0  0
  -28.4599  -19.0496   15.2933 C   0  0  0  0  0  0
  -28.0456  -16.8825   14.1745 C   0  0  0  0  0  0
  -27.3563  -22.1920   21.4523 C   0  0  0  0  0  0
  -29.7897  -22.4956   21.9827 C   0  0  0  0  0  0
  -29.2794  -19.6244   20.6461 C   0  0  0  0  0  0
  -29.1048  -21.0910   19.9738 C   0  0  0  0  0  0
  -28.7518  -23.7983   20.0342 C   0  0  0  0  0  0
  -28.1577  -25.1197   20.7287 C   0  0  0  0  0  0
  -27.6275  -17.0515   16.7452 C   0  0  0  0  0  0
  -30.0170  -16.1528   20.9770 C   0  0  0  0  0  0
  -28.5139  -17.5167   15.5072 C   0  0  0  0  0  0
  -28.7575  -22.3980   20.8444 C   0  0  0  0  0  0
  -28.4033  -18.5773   18.6061 N   0  0  0  0  0  0
  -28.9253  -16.3876   18.7985 N   0  0  0  0  0  0
  -29.4341  -17.0380   19.8836 N   0  0  0  0  0  0
  -31.4720  -12.5588   19.1572 H   0  0  0  0  0  0
  -30.3894  -11.4466   19.9223 H   0  0  0  0  0  0
  -29.7821  -11.7579   17.5048 H   0  0  0  0  0  0
  -29.6468  -13.4823   17.7466 H   0  0  0  0  0  0
  -27.8703  -11.2974   18.8693 H   0  0  0  0  0  0
  -27.3752  -12.5861   17.8001 H   0  0  0  0  0  0
  -27.6654  -14.2499   19.5446 H   0  0  0  0  0  0
  -28.7458  -12.0206   21.3121 H   0  0  0  0  0  0
  -28.4130  -13.5894   21.8937 H   0  0  0  0  0  0
  -25.2745   -9.5678   22.4760 H   0  0  0  0  0  0
  -23.9984   -7.4632   22.7475 H   0  0  0  0  0  0
  -21.0833   -8.8753   19.8940 H   0  0  0  0  0  0
  -22.3667  -10.9668   19.6159 H   0  0  0  0  0  0
  -21.2027   -7.6146   23.9684 H   0  0  0  0  0  0
  -21.1467   -6.0529   25.9064 H   0  0  0  0  0  0
  -22.0615   -2.7591   23.2844 H   0  0  0  0  0  0
  -22.4158  -11.9879   22.4744 H   0  0  0  0  0  0
  -21.1116  -13.1211   22.2646 H   0  0  0  0  0  0
  -24.6692  -15.8466   20.5262 H   0  0  0  0  0  0
  -26.2895  -15.6179   20.0907 H   0  0  0  0  0  0
  -26.7180  -32.5444   23.1081 H   0  0  0  0  0  0
  -25.0069  -33.9719   25.0398 H   0  0  0  0  0  0
  -22.7137  -31.3008   21.3986 H   0  0  0  0  0  0
  -23.3764  -35.9619   23.3290 H   0  0  0  0  0  0
  -24.3587  -36.8931   22.2054 H   0  0  0  0  0  0
  -23.7251  -37.6485   23.6675 H   0  0  0  0  0  0
  -26.0884  -31.5525   20.6006 H   0  0  0  0  0  0
  -26.8418  -30.8414   21.9975 H   0  0  0  0  0  0
  -28.1216  -28.9917   21.1796 H   0  0  0  0  0  0
  -26.0111  -25.9131   19.0207 H   0  0  0  0  0  0
  -23.9733  -27.2916   19.0226 H   0  0  0  0  0  0
  -23.7518  -30.5853   19.4021 H   0  0  0  0  0  0
  -22.7552  -29.2372   19.8617 H   0  0  0  0  0  0
  -25.1306  -36.1920   25.0812 H   0  0  0  0  0  0
  -20.9968  -28.3272   24.1417 H   0  0  0  0  0  0
  -20.5707  -26.2306   23.3606 H   0  0  0  0  0  0
  -21.6647  -26.7470   22.1200 H   0  0  0  0  0  0
  -19.6931  -25.6303   21.1250 H   0  0  0  0  0  0
  -19.6704  -27.3199   20.6746 H   0  0  0  0  0  0
  -17.4210  -26.6688   21.4017 H   0  0  0  0  0  0
  -18.0331  -26.0070   22.9016 H   0  0  0  0  0  0
  -19.7938  -30.7277   24.2273 H   0  0  0  0  0  0
  -17.5019  -31.6276   24.5165 H   0  0  0  0  0  0
  -15.5356  -30.3000   23.7658 H   0  0  0  0  0  0
  -15.8671  -28.0829   22.7079 H   0  0  0  0  0  0
  -24.5919  -30.7041   25.7728 H   0  0  0  0  0  0
  -24.8905  -32.2862   26.4829 H   0  0  0  0  0  0
  -25.8049  -30.8879   27.0192 H   0  0  0  0  0  0
  -26.2912  -29.6745   24.1189 H   0  0  0  0  0  0
  -27.4091  -29.7265   25.4624 H   0  0  0  0  0  0
  -27.8759  -30.4302   23.9325 H   0  0  0  0  0  0
  -27.2672  -33.3611   26.2041 H   0  0  0  0  0  0
  -28.3878  -32.6848   25.0312 H   0  0  0  0  0  0
  -28.0709  -31.8431   26.5404 H   0  0  0  0  0  0
  -28.2583  -38.0114   24.7532 H   0  0  0  0  0  0
  -28.1100  -36.2645   24.6261 H   0  0  0  0  0  0
  -27.2301  -37.1415   25.8862 H   0  0  0  0  0  0
  -20.9376  -29.8734   21.6861 H   0  0  0  0  0  0
  -26.0171  -38.2845   24.1420 H   0  0  0  0  0  0
  -25.6194  -17.3403   17.5734 H   0  0  0  0  0  0
  -25.6841  -17.5395   15.8314 H   0  0  0  0  0  0
  -26.2887  -18.8015   16.8940 H   0  0  0  0  0  0
  -26.7534  -15.1947   17.5277 H   0  0  0  0  0  0
  -28.2171  -14.9350   16.5931 H   0  0  0  0  0  0
  -26.6952  -15.2860   15.7897 H   0  0  0  0  0  0
  -27.9928  -15.6836   21.6704 H   0  0  0  0  0  0
  -28.7310  -16.9943   22.5353 H   0  0  0  0  0  0
  -29.2587  -15.3620   22.8779 H   0  0  0  0  0  0
  -30.8601  -17.7772   22.2192 H   0  0  0  0  0  0
  -31.8922  -17.2993   20.8805 H   0  0  0  0  0  0
  -31.7576  -16.2883   22.3136 H   0  0  0  0  0  0
  -30.5909  -17.3908   14.8083 H   0  0  0  0  0  0
  -30.1368  -16.0771   15.8804 H   0  0  0  0  0  0
  -30.4588  -17.6793   16.5274 H   0  0  0  0  0  0
  -29.1299  -19.3634   14.4913 H   0  0  0  0  0  0
  -28.7578  -19.6024   16.1836 H   0  0  0  0  0  0
  -27.4635  -19.3901   15.0104 H   0  0  0  0  0  0
  -28.5724  -17.3158   13.3231 H   0  0  0  0  0  0
  -26.9814  -17.0392   13.9975 H   0  0  0  0  0  0
  -28.2351  -15.8096   14.1368 H   0  0  0  0  0  0
  -27.2759  -21.2467   21.9867 H   0  0  0  0  0  0
  -26.5885  -22.1962   20.6780 H   0  0  0  0  0  0
  -27.1052  -22.9736   22.1697 H   0  0  0  0  0  0
  -29.7643  -21.6149   22.6255 H   0  0  0  0  0  0
  -29.6100  -23.3586   22.6239 H   0  0  0  0  0  0
  -30.8039  -22.5857   21.5921 H   0  0  0  0  0  0
  -30.2678  -19.5783   21.0978 H   0  0  0  0  0  0
  -28.5723  -19.5058   21.4651 H   0  0  0  0  0  0
  -28.3042  -21.0304   19.2373 H   0  0  0  0  0  0
  -30.0008  -21.2881   19.3839 H   0  0  0  0  0  0
  -29.7746  -24.0119   19.7232 H   0  0  0  0  0  0
  -28.2052  -23.6497   19.1027 H   0  0  0  0  0  0
  -28.6035  -25.2022   21.7190 H   0  0  0  0  0  0
  -27.1003  -24.9415   20.9233 H   0  0  0  0  0  0
  1 25  1  0  0  0
  1 30  2  0  0  0
  1 87  1  0  0  0
  2  3  1  0  0  0
  2 25  1  0  0  0
  2 93  1  0  0  0
  2 94  1  0  0  0
  3  4  1  0  0  0
  3 95  1  0  0  0
  3 96  1  0  0  0
  4  5  1  0  0  0
  4 97  1  0  0  0
  4 98  1  0  0  0
  5  6  1  0  0  0
  5 26  1  0  0  0
  5 99  1  0  0  0
  6 25  1  0  0  0
  6100  1  0  0  0
  6101  1  0  0  0
  7  8  2  0  0  0
  7 26  1  0  0  0
  7 29  1  0  0  0
  8  9  1  0  0  0
  8 22  1  0  0  0
  9 10  1  0  0  0
  9 27  2  0  0  0
 10 11  2  0  0  0
 10 15  1  0  0  0
 11 12  1  0  0  0
 11102  1  0  0  0
 12 13  2  0  0  0
 12103  1  0  0  0
 13 14  1  0  0  0
 13 31  1  0  0  0
 14 15  2  0  0  0
 14104  1  0  0  0
 15105  1  0  0  0
 16 17  2  0  0  0
 16 21  1  0  0  0
 16 31  1  0  0  0
 17 18  1  0  0  0
 17106  1  0  0  0
 18 19  2  0  0  0
 18107  1  0  0  0
 19 20  1  0  0  0
 19 24  1  0  0  0
 20 21  2  0  0  0
 20108  1  0  0  0
 21 23  1  0  0  0
 22 28  1  0  0  0
 22 32  2  0  0  0
 26 27  1  0  0  0
 28109  1  0  0  0
 28110  1  0  0  0
 29111  1  0  0  0
 29112  1  0  0  0
 33 34  1  0  0  0
 33 66  1  0  0  0
 33 70  2  0  0  0
 34 36  1  0  0  0
 34 59  1  0  0  0
 34113  1  0  0  0
 35 44  2  0  0  0
 35 45  1  0  0  0
 35 68  1  0  0  0
 36 56  1  0  0  0
 36114  1  0  0  0
 37 39  1  0  0  0
 37 47  1  0  0  0
 37 66  1  0  0  0
 37115  1  0  0  0
 38 43  2  0  0  0
 38 46  1  0  0  0
 38 47  1  0  0  0
 39 64  1  0  0  0
 39 67  2  0  0  0
 40 52  1  0  0  0
 40 53  2  0  0  0
 40 58  1  0  0  0
 41116  1  0  0  0
 41117  1  0  0  0
 41118  1  0  0  0
 41 48  1  0  0  0
 42 43  1  0  0  0
 42 66  1  0  0  0
 42119  1  0  0  0
 42120  1  0  0  0
 43 44  1  0  0  0
 44121  1  0  0  0
 45 46  2  0  0  0
 45122  1  0  0  0
 46123  1  0  0  0
 47124  1  0  0  0
 47125  1  0  0  0
 48 56  1  0  0  0
 48 65  1  0  0  0
 48126  1  0  0  0
 49 50  1  0  0  0
 49 53  1  0  0  0
 49 64  1  0  0  0
 49127  1  0  0  0
 50 51  1  0  0  0
 50128  1  0  0  0
 50129  1  0  0  0
 51 52  1  0  0  0
 51130  1  0  0  0
 51131  1  0  0  0
 52132  1  0  0  0
 52133  1  0  0  0
 53 54  1  0  0  0
 54 55  2  0  0  0
 54134  1  0  0  0
 55 57  1  0  0  0
 55135  1  0  0  0
 56 69  2  0  0  0
 57 58  2  0  0  0
 57136  1  0  0  0
 58137  1  0  0  0
 59 60  1  0  0  0
 59 61  1  0  0  0
 59 62  1  0  0  0
 60138  1  0  0  0
 60139  1  0  0  0
 60140  1  0  0  0
 61141  1  0  0  0
 61142  1  0  0  0
 61143  1  0  0  0
 62144  1  0  0  0
 62145  1  0  0  0
 62146  1  0  0  0
 63 65  1  0  0  0
 63147  1  0  0  0
 63148  1  0  0  0
 63149  1  0  0  0
 64150  1  0  0  0
 65151  1  0  0  0
 68 85  1  0  0  0
 71 86  1  0  0  0
 71 90  1  0  0  0
 71 91  2  0  0  0
 72 82  1  0  0  0
 72 90  2  0  0  0
 72 92  1  0  0  0
 73152  1  0  0  0
 73153  1  0  0  0
 73154  1  0  0  0
 73 86  1  0  0  0
 74 86  1  0  0  0
 74155  1  0  0  0
 74156  1  0  0  0
 74157  1  0  0  0
 75158  1  0  0  0
 75159  1  0  0  0
 75160  1  0  0  0
 75 87  1  0  0  0
 76 87  1  0  0  0
 76161  1  0  0  0
 76162  1  0  0  0
 76163  1  0  0  0
 77164  1  0  0  0
 77165  1  0  0  0
 77166  1  0  0  0
 77 88  1  0  0  0
 78 88  1  0  0  0
 78167  1  0  0  0
 78168  1  0  0  0
 78169  1  0  0  0
 79 88  1  0  0  0
 79170  1  0  0  0
 79171  1  0  0  0
 79172  1  0  0  0
 80173  1  0  0  0
 80174  1  0  0  0
 80175  1  0  0  0
 80 89  1  0  0  0
 81 89  1  0  0  0
 81176  1  0  0  0
 81177  1  0  0  0
 81178  1  0  0  0
 82 83  1  0  0  0
 82179  1  0  0  0
 82180  1  0  0  0
 83 89  1  0  0  0
 83181  1  0  0  0
 83182  1  0  0  0
 84 85  1  0  0  0
 84 89  1  0  0  0
 84183  1  0  0  0
 84184  1  0  0  0
 85185  1  0  0  0
 85186  1  0  0  0
 86 88  1  0  0  0
 87 92  1  0  0  0
 91 92  1  0  0  0
M  ISO  4   1 100  68 101  85 101  87 100
M  END
> <chiral flag>
0

> <version>
0

> <s_m_source_file>
/data/baiqing/PycharmProjects/Reinvent-master-3.2/result/LINK_invent/BTK/process_docking_weight1_custom_sum_contain_oxygen_bond_distance_aromatic_linkinvent_7_9_3/rearranged_h_0069.sdf

> <i_m_source_file_index>
22

> <r_mmod_Potential_Energy-OPLS-2005>
325.915405273438

> <r_mmod_Stretch_Energy-OPLS-2005>
128.657913208008

> <r_mmod_Bend_Energy-OPLS-2005>
215.331954956055

> <r_mmod_Torsional_Energy-OPLS-2005>
263.348846435547

> <r_mmod_Improper_Torsional_Energy-OPLS-2005>
3.28184700012207

> <r_mmod_Van_der_Waal_Energy-OPLS-2005>
132.823867797852

> <r_mmod_Electrostatic_Energy-OPLS-2005>
-301.124206542969

> <r_mmod_Solvation_Energy-OPLS-2005>
-172.288116455078

> <b_mmod_Minimization_Converged-OPLS-2005>
0

> <r_mmod_RMS_Derivative-OPLS-2005>
1.57140100002289

$$$$
22
                    3D
 Structure written by MMmdl.
166174  0  0  1  0            999 V2000
  -30.4917  -15.0388   20.4414 C   0  0  0  0  0  0
  -30.4589  -12.6561   19.4935 C   0  0  0  0  0  0
  -29.5317  -12.5460   18.2569 C   0  0  0  0  0  0
  -28.0672  -12.3070   18.6782 C   0  0  0  0  0  0
  -27.6288  -13.2487   19.8289 C   0  0  2  0  0  0
  -28.6752  -13.2969   20.9627 C   0  0  0  0  0  0
  -25.2466  -13.8214   20.5683 C   0  0  0  0  0  0
  -24.1792  -13.0439   20.9231 C   0  0  0  0  0  0
  -24.6415  -11.6923   20.8758 C   0  0  0  0  0  0
  -23.9102  -10.4285   21.0410 C   0  0  0  0  0  0
  -24.3641   -9.4194   21.9185 C   0  0  0  0  0  0
  -23.6299   -8.2237   22.0755 C   0  0  0  0  0  0
  -22.4278   -8.0290   21.3547 C   0  0  0  0  0  0
  -21.9929   -9.0268   20.4645 C   0  0  0  0  0  0
  -22.7279  -10.2136   20.3052 C   0  0  0  0  0  0
  -21.6853   -6.0739   22.5284 C   0  0  0  0  0  0
  -21.4012   -6.5642   23.8217 C   0  0  0  0  0  0
  -21.3658   -5.6793   24.9179 C   0  0  0  0  0  0
  -21.6044   -4.3055   24.7225 C   0  0  0  0  0  0
  -21.8819   -3.8151   23.4346 C   0  0  0  0  0  0
  -21.9186   -4.6967   22.3404 C   0  0  0  0  0  0
  -22.7806  -13.5198   21.1892 C   0  0  0  0  0  0
  -22.1656   -4.2159   21.0977 F   0  0  0  0  0  0
  -21.5630   -3.4537   25.7734 F   0  0  0  0  0  0
  -29.9387  -13.7525   20.3610 N   0  0  0  0  0  0
  -26.2888  -12.9442   20.3187 N   0  0  0  0  0  0
  -25.9343  -11.6576   20.5720 N   0  0  0  0  0  0
  -22.0450  -12.8180   22.0446 N   0  0  0  0  0  0
  -25.4103  -15.1944   20.4077 N   0  0  0  0  0  0
  -31.7081  -15.1373   20.2480 O   0  0  0  0  0  0
  -21.6636   -6.8891   21.4248 O   0  0  0  0  0  0
  -22.3477  -14.5490   20.6723 O   0  0  0  0  0  0
  -24.6498  -31.8371   23.1815 C   0  0  0  0  0  0
  -25.9239  -32.4663   23.8230 C   0  0  1  0  0  0
  -27.2209  -27.0615   20.1939 C   0  0  0  0  0  0
  -25.5977  -33.8473   24.2160 N   0  0  0  0  0  0
  -23.4592  -30.4532   21.5253 C   0  0  2  0  0  0
  -24.9153  -28.8649   20.1151 C   0  0  0  0  0  0
  -22.7614  -29.4500   22.4794 C   0  0  0  0  0  0
  -18.0315  -28.1409   22.8472 C   0  0  0  0  0  0
  -24.1482  -36.7244   23.2644 C   0  0  0  0  0  0
  -26.0191  -30.6876   21.3931 C   0  0  0  0  0  0
  -26.0915  -29.2877   20.7479 C   0  0  0  0  0  0
  -27.2454  -28.4041   20.7702 C   0  0  0  0  0  0
  -26.0321  -26.7741   19.4863 C   0  0  0  0  0  0
  -24.9020  -27.6210   19.4654 C   0  0  0  0  0  0
  -23.6962  -29.7780   20.1476 C   0  0  0  0  0  0
  -25.4115  -36.3019   24.0315 C   0  0  1  0  0  0
  -20.5930  -28.3743   23.1216 C   0  0  2  0  0  0
  -20.6791  -26.9436   22.5398 C   0  0  0  0  0  0
  -19.5763  -26.6379   21.5206 C   0  0  0  0  0  0
  -18.1948  -26.7940   22.1619 C   0  0  0  0  0  0
  -19.1572  -28.8892   23.2835 C   0  0  0  0  0  0
  -18.9494  -30.1493   23.8858 C   0  0  0  0  0  0
  -17.6490  -30.6604   24.0567 C   0  0  0  0  0  0
  -25.9068  -34.9396   23.5040 C   0  0  0  0  0  0
  -16.5378  -29.9099   23.6345 C   0  0  0  0  0  0
  -16.7295  -28.6518   23.0347 C   0  0  0  0  0  0
  -26.4536  -31.6548   25.0696 C   0  0  0  0  0  0
  -25.3710  -31.3761   26.1391 C   0  0  0  0  0  0
  -27.0411  -30.2935   24.6338 C   0  0  0  0  0  0
  -27.6052  -32.4323   25.7498 C   0  0  0  0  0  0
  -27.5559  -37.1792   24.8476 C   0  0  0  0  0  0
  -21.4287  -29.3060   22.3582 N   0  0  0  0  0  0
  -26.4272  -37.3756   23.9415 N   0  0  0  0  0  0
  -24.7293  -31.0164   22.0883 N   0  0  0  0  0  0
  -23.4223  -28.8062   23.2974 O   0  0  0  0  0  0
  -28.2414  -26.0140   20.2265 O   0  0  0  0  0  0
  -26.5656  -34.8910   22.4622 O   0  0  0  0  0  0
  -23.5596  -32.1279   23.6989 O   0  0  0  0  0  0
  -28.7114  -21.2172   19.0270 C   0  0  0  0  0  0
  -29.3017  -20.7114   20.1753 C   0  0  0  0  0  0
  -28.6012  -23.0539   20.3887 C   0  0  0  0  0  0
  -26.3588  -23.3245   22.4666 C   0  0  0  0  0  0
  -28.8768  -20.9844   23.3569 C   0  0  0  0  0  0
  -31.3527  -19.3976   21.1384 C   0  0  0  0  0  0
  -30.5604  -18.8350   18.8877 C   0  0  0  0  0  0
  -26.6268  -24.4610   21.4706 C   0  0  0  0  0  0
  -29.6078  -21.9704   22.4250 C   0  0  0  0  0  0
  -29.3837  -17.7420   20.8538 C   0  0  0  0  0  0
  -28.0752  -24.5773   20.9111 C   0  0  2  0  0  0
  -30.0708  -19.1976   20.3029 C   0  0  0  0  0  0
  -29.1646  -21.9023   21.0177 N   0  0  0  0  0  0
  -28.3304  -22.5492   19.1785 N   0  3  0  0  0  0
  -29.6112  -16.1685   20.5358 N   0  0  0  0  0  0
  -31.4826  -12.8552   19.1720 H   0  0  0  0  0  0
  -30.4961  -11.7135   20.0418 H   0  0  0  0  0  0
  -29.8704  -11.7449   17.5977 H   0  0  0  0  0  0
  -29.5937  -13.4668   17.6764 H   0  0  0  0  0  0
  -27.9800  -11.2689   19.0009 H   0  0  0  0  0  0
  -27.4032  -12.4164   17.8199 H   0  0  0  0  0  0
  -27.5806  -14.2424   19.3843 H   0  0  0  0  0  0
  -28.7903  -12.3178   21.4299 H   0  0  0  0  0  0
  -28.3577  -13.9809   21.7516 H   0  0  0  0  0  0
  -25.2790   -9.5657   22.4756 H   0  0  0  0  0  0
  -24.0007   -7.4618   22.7466 H   0  0  0  0  0  0
  -21.0863   -8.8792   19.8941 H   0  0  0  0  0  0
  -22.3753  -10.9671   19.6148 H   0  0  0  0  0  0
  -21.2004   -7.6150   23.9731 H   0  0  0  0  0  0
  -21.1482   -6.0515   25.9082 H   0  0  0  0  0  0
  -22.0598   -2.7617   23.2840 H   0  0  0  0  0  0
  -22.4074  -11.9853   22.4838 H   0  0  0  0  0  0
  -21.1058  -13.1188   22.2634 H   0  0  0  0  0  0
  -24.6341  -15.8388   20.5145 H   0  0  0  0  0  0
  -26.2366  -15.6369   20.0289 H   0  0  0  0  0  0
  -26.7317  -32.5270   23.0953 H   0  0  0  0  0  0
  -25.0144  -33.9576   25.0328 H   0  0  0  0  0  0
  -22.7638  -31.2796   21.3614 H   0  0  0  0  0  0
  -23.3746  -35.9573   23.3298 H   0  0  0  0  0  0
  -24.3559  -36.8879   22.2062 H   0  0  0  0  0  0
  -23.7233  -37.6438   23.6680 H   0  0  0  0  0  0
  -26.1785  -31.4285   20.6083 H   0  0  0  0  0  0
  -26.8883  -30.7507   22.0351 H   0  0  0  0  0  0
  -28.1377  -28.7276   21.2874 H   0  0  0  0  0  0
  -25.9578  -25.8315   18.9632 H   0  0  0  0  0  0
  -24.0122  -27.2939   18.9447 H   0  0  0  0  0  0
  -23.8512  -30.5497   19.3925 H   0  0  0  0  0  0
  -22.8093  -29.2305   19.8235 H   0  0  0  0  0  0
  -25.1308  -36.1825   25.0806 H   0  0  0  0  0  0
  -21.0034  -28.3328   24.1332 H   0  0  0  0  0  0
  -20.5672  -26.2358   23.3621 H   0  0  0  0  0  0
  -21.6657  -26.7409   22.1213 H   0  0  0  0  0  0
  -19.6918  -25.6276   21.1265 H   0  0  0  0  0  0
  -19.6711  -27.3168   20.6714 H   0  0  0  0  0  0
  -17.4219  -26.6685   21.4026 H   0  0  0  0  0  0
  -18.0351  -26.0096   22.9028 H   0  0  0  0  0  0
  -19.7970  -30.7323   24.2200 H   0  0  0  0  0  0
  -17.5042  -31.6271   24.5177 H   0  0  0  0  0  0
  -15.5388  -30.2991   23.7680 H   0  0  0  0  0  0
  -15.8690  -28.0836   22.7068 H   0  0  0  0  0  0
  -24.5898  -30.7093   25.7724 H   0  0  0  0  0  0
  -24.8892  -32.2949   26.4738 H   0  0  0  0  0  0
  -25.7995  -30.8995   27.0210 H   0  0  0  0  0  0
  -26.3049  -29.6650   24.1328 H   0  0  0  0  0  0
  -27.3974  -29.7263   25.4944 H   0  0  0  0  0  0
  -27.8972  -30.4149   23.9706 H   0  0  0  0  0  0
  -27.2626  -33.3635   26.2013 H   0  0  0  0  0  0
  -28.3905  -32.6852   25.0366 H   0  0  0  0  0  0
  -28.0669  -31.8487   26.5469 H   0  0  0  0  0  0
  -28.2600  -38.0071   24.7497 H   0  0  0  0  0  0
  -28.1025  -36.2599   24.6320 H   0  0  0  0  0  0
  -27.2275  -37.1471   25.8881 H   0  0  0  0  0  0
  -20.9500  -29.8794   21.6783 H   0  0  0  0  0  0
  -26.0116  -38.2808   24.1422 H   0  0  0  0  0  0
  -28.5659  -20.7222   18.0771 H   0  0  0  0  0  0
  -25.3223  -23.3585   22.8081 H   0  0  0  0  0  0
  -26.9926  -23.4094   23.3489 H   0  0  0  0  0  0
  -26.5039  -22.3456   22.0119 H   0  0  0  0  0  0
  -29.1079  -19.9474   23.1244 H   0  0  0  0  0  0
  -27.7948  -21.0872   23.3106 H   0  0  0  0  0  0
  -29.1676  -21.1556   24.3944 H   0  0  0  0  0  0
  -31.9442  -20.2403   20.7776 H   0  0  0  0  0  0
  -31.9946  -18.5156   21.1065 H   0  0  0  0  0  0
  -31.1343  -19.5757   22.1888 H   0  0  0  0  0  0
  -31.1756  -19.6266   18.4563 H   0  0  0  0  0  0
  -29.7302  -18.6428   18.2108 H   0  0  0  0  0  0
  -31.1733  -17.9319   18.8982 H   0  0  0  0  0  0
  -26.3468  -25.3890   21.9697 H   0  0  0  0  0  0
  -25.9324  -24.3301   20.6407 H   0  0  0  0  0  0
  -30.6817  -21.7938   22.4479 H   0  0  0  0  0  0
  -29.4728  -22.9824   22.7997 H   0  0  0  0  0  0
  -28.3437  -17.8498   20.5429 H   0  0  0  0  0  0
  -29.3215  -17.8113   21.9399 H   0  0  0  0  0  0
  -28.6973  -24.7251   21.7917 H   0  0  0  0  0  0
  -27.8692  -23.0841   18.4516 H   0  0  0  0  0  0
  -28.6904  -15.7617   20.4809 H   0  0  0  0  0  0
  1 25  1  0  0  0
  1 30  2  0  0  0
  1 85  1  0  0  0
  2  3  1  0  0  0
  2 25  1  0  0  0
  2 86  1  0  0  0
  2 87  1  0  0  0
  3  4  1  0  0  0
  3 88  1  0  0  0
  3 89  1  0  0  0
  4  5  1  0  0  0
  4 90  1  0  0  0
  4 91  1  0  0  0
  5  6  1  0  0  0
  5 26  1  0  0  0
  5 92  1  0  0  0
  6 25  1  0  0  0
  6 93  1  0  0  0
  6 94  1  0  0  0
  7  8  2  0  0  0
  7 26  1  0  0  0
  7 29  1  0  0  0
  8  9  1  0  0  0
  8 22  1  0  0  0
  9 10  1  0  0  0
  9 27  2  0  0  0
 10 11  2  0  0  0
 10 15  1  0  0  0
 11 12  1  0  0  0
 11 95  1  0  0  0
 12 13  2  0  0  0
 12 96  1  0  0  0
 13 14  1  0  0  0
 13 31  1  0  0  0
 14 15  2  0  0  0
 14 97  1  0  0  0
 15 98  1  0  0  0
 16 17  2  0  0  0
 16 21  1  0  0  0
 16 31  1  0  0  0
 17 18  1  0  0  0
 17 99  1  0  0  0
 18 19  2  0  0  0
 18100  1  0  0  0
 19 20  1  0  0  0
 19 24  1  0  0  0
 20 21  2  0  0  0
 20101  1  0  0  0
 21 23  1  0  0  0
 22 28  1  0  0  0
 22 32  2  0  0  0
 26 27  1  0  0  0
 28102  1  0  0  0
 28103  1  0  0  0
 29104  1  0  0  0
 29105  1  0  0  0
 33 34  1  0  0  0
 33 66  1  0  0  0
 33 70  2  0  0  0
 34 36  1  0  0  0
 34 59  1  0  0  0
 34106  1  0  0  0
 35 44  2  0  0  0
 35 45  1  0  0  0
 35 68  1  0  0  0
 36 56  1  0  0  0
 36107  1  0  0  0
 37 39  1  0  0  0
 37 47  1  0  0  0
 37 66  1  0  0  0
 37108  1  0  0  0
 38 43  2  0  0  0
 38 46  1  0  0  0
 38 47  1  0  0  0
 39 64  1  0  0  0
 39 67  2  0  0  0
 40 52  1  0  0  0
 40 53  2  0  0  0
 40 58  1  0  0  0
 41109  1  0  0  0
 41110  1  0  0  0
 41111  1  0  0  0
 41 48  1  0  0  0
 42 43  1  0  0  0
 42 66  1  0  0  0
 42112  1  0  0  0
 42113  1  0  0  0
 43 44  1  0  0  0
 44114  1  0  0  0
 45 46  2  0  0  0
 45115  1  0  0  0
 46116  1  0  0  0
 47117  1  0  0  0
 47118  1  0  0  0
 48 56  1  0  0  0
 48 65  1  0  0  0
 48119  1  0  0  0
 49 50  1  0  0  0
 49 53  1  0  0  0
 49 64  1  0  0  0
 49120  1  0  0  0
 50 51  1  0  0  0
 50121  1  0  0  0
 50122  1  0  0  0
 51 52  1  0  0  0
 51123  1  0  0  0
 51124  1  0  0  0
 52125  1  0  0  0
 52126  1  0  0  0
 53 54  1  0  0  0
 54 55  2  0  0  0
 54127  1  0  0  0
 55 57  1  0  0  0
 55128  1  0  0  0
 56 69  2  0  0  0
 57 58  2  0  0  0
 57129  1  0  0  0
 58130  1  0  0  0
 59 60  1  0  0  0
 59 61  1  0  0  0
 59 62  1  0  0  0
 60131  1  0  0  0
 60132  1  0  0  0
 60133  1  0  0  0
 61134  1  0  0  0
 61135  1  0  0  0
 61136  1  0  0  0
 62137  1  0  0  0
 62138  1  0  0  0
 62139  1  0  0  0
 63 65  1  0  0  0
 63140  1  0  0  0
 63141  1  0  0  0
 63142  1  0  0  0
 64143  1  0  0  0
 65144  1  0  0  0
 68 81  1  0  0  0
 71 72  2  0  0  0
 71 84  1  0  0  0
 71145  1  0  0  0
 72 82  1  0  0  0
 72 83  1  0  0  0
 73 81  1  0  0  0
 73 83  1  0  0  0
 73 84  2  0  0  0
 74 78  1  0  0  0
 74146  1  0  0  0
 74147  1  0  0  0
 74148  1  0  0  0
 75 79  1  0  0  0
 75149  1  0  0  0
 75150  1  0  0  0
 75151  1  0  0  0
 76152  1  0  0  0
 76153  1  0  0  0
 76154  1  0  0  0
 76 82  1  0  0  0
 77 82  1  0  0  0
 77155  1  0  0  0
 77156  1  0  0  0
 77157  1  0  0  0
 78158  1  0  0  0
 78159  1  0  0  0
 78 81  1  0  0  0
 79 83  1  0  0  0
 79160  1  0  0  0
 79161  1  0  0  0
 80 82  1  0  0  0
 80 85  1  0  0  0
 80162  1  0  0  0
 80163  1  0  0  0
 81164  1  0  0  0
 84165  1  0  0  0
 85166  1  0  0  0
M  CHG  1  84   1
M  ISO  4   1 100  68 101  81 101  85 100
M  END
> <chiral flag>
0

> <version>
0

> <s_m_source_file>
/data/baiqing/PycharmProjects/Reinvent-master-3.2/result/LINK_invent/BTK/process_docking_weight1_custom_sum_contain_oxygen_bond_distance_aromatic_linkinvent_7_9_3/rearranged_h_0069.sdf

> <i_m_source_file_index>
23

> <r_mmod_Potential_Energy-OPLS-2005>
754.356628417969

> <r_mmod_Stretch_Energy-OPLS-2005>
367.629547119141

> <r_mmod_Bend_Energy-OPLS-2005>
396.719329833984

> <r_mmod_Torsional_Energy-OPLS-2005>
287.229217529297

> <r_mmod_Improper_Torsional_Energy-OPLS-2005>
6.15075159072876

> <r_mmod_Van_der_Waal_Energy-OPLS-2005>
104.734809875488

> <r_mmod_Electrostatic_Energy-OPLS-2005>
-263.266418457031

> <r_mmod_Solvation_Energy-OPLS-2005>
-414.680419921875

> <b_mmod_Minimization_Converged-OPLS-2005>
0

> <r_mmod_RMS_Derivative-OPLS-2005>
2.74431610107422

$$$$
23
                    3D
 Structure written by MMmdl.
161169  0  0  1  0            999 V2000
  -30.6306  -14.7109   20.4555 C   0  0  0  0  0  0
  -30.4256  -12.4298   19.4791 C   0  0  0  0  0  0
  -29.5082  -12.4970   18.2382 C   0  0  0  0  0  0
  -28.0339  -12.3288   18.6504 C   0  0  0  0  0  0
  -27.6433  -13.2295   19.8527 C   0  0  2  0  0  0
  -28.6859  -13.1583   20.9912 C   0  0  0  0  0  0
  -25.2529  -13.8196   20.5709 C   0  0  0  0  0  0
  -24.1816  -13.0447   20.9208 C   0  0  0  0  0  0
  -24.6393  -11.6915   20.8751 C   0  0  0  0  0  0
  -23.9073  -10.4295   21.0417 C   0  0  0  0  0  0
  -24.3629   -9.4209   21.9197 C   0  0  0  0  0  0
  -23.6304   -8.2245   22.0759 C   0  0  0  0  0  0
  -22.4287   -8.0288   21.3544 C   0  0  0  0  0  0
  -21.9925   -9.0258   20.4644 C   0  0  0  0  0  0
  -22.7249  -10.2137   20.3058 C   0  0  0  0  0  0
  -21.6851   -6.0745   22.5277 C   0  0  0  0  0  0
  -21.4010   -6.5649   23.8210 C   0  0  0  0  0  0
  -21.3653   -5.6802   24.9174 C   0  0  0  0  0  0
  -21.6047   -4.3063   24.7222 C   0  0  0  0  0  0
  -21.8822   -3.8155   23.4341 C   0  0  0  0  0  0
  -21.9194   -4.6975   22.3401 C   0  0  0  0  0  0
  -22.7840  -13.5234   21.1868 C   0  0  0  0  0  0
  -22.1668   -4.2167   21.0977 F   0  0  0  0  0  0
  -21.5625   -3.4545   25.7731 F   0  0  0  0  0  0
  -29.9929  -13.4934   20.4145 N   0  0  0  0  0  0
  -26.2947  -12.9397   20.3289 N   0  0  0  0  0  0
  -25.9324  -11.6538   20.5764 N   0  0  0  0  0  0
  -22.0484  -12.8215   22.0408 N   0  0  0  0  0  0
  -25.4240  -15.1922   20.4113 N   0  0  0  0  0  0
  -31.8091  -14.7991   20.1043 O   0  0  0  0  0  0
  -21.6641   -6.8889   21.4239 O   0  0  0  0  0  0
  -22.3528  -14.5547   20.6716 O   0  0  0  0  0  0
  -24.6306  -31.8558   23.1991 C   0  0  0  0  0  0
  -25.9136  -32.4748   23.8338 C   0  0  1  0  0  0
  -27.2144  -27.2645   20.1318 C   0  0  0  0  0  0
  -25.5948  -33.8553   24.2266 N   0  0  0  0  0  0
  -23.4266  -30.4820   21.5409 C   0  0  2  0  0  0
  -24.8740  -28.9334   20.1084 C   0  0  0  0  0  0
  -22.7503  -29.4609   22.4878 C   0  0  0  0  0  0
  -18.0301  -28.1390   22.8449 C   0  0  0  0  0  0
  -24.1497  -36.7282   23.2641 C   0  0  0  0  0  0
  -25.9736  -30.7712   21.3783 C   0  0  0  0  0  0
  -26.0462  -29.3949   20.7201 C   0  0  0  0  0  0
  -27.2193  -28.5736   20.7218 C   0  0  0  0  0  0
  -26.0171  -26.8752   19.4856 C   0  0  0  0  0  0
  -24.8649  -27.6804   19.4802 C   0  0  0  0  0  0
  -23.6457  -29.8197   20.1562 C   0  0  0  0  0  0
  -25.4119  -36.3063   24.0330 C   0  0  1  0  0  0
  -20.5905  -28.3710   23.1242 C   0  0  2  0  0  0
  -20.6787  -26.9422   22.5390 C   0  0  0  0  0  0
  -19.5768  -26.6384   21.5189 C   0  0  0  0  0  0
  -18.1950  -26.7922   22.1602 C   0  0  0  0  0  0
  -19.1550  -28.8863   23.2838 C   0  0  0  0  0  0
  -18.9483  -30.1455   23.8872 C   0  0  0  0  0  0
  -17.6486  -30.6580   24.0562 C   0  0  0  0  0  0
  -25.9058  -34.9432   23.5101 C   0  0  0  0  0  0
  -16.5372  -29.9081   23.6334 C   0  0  0  0  0  0
  -16.7287  -28.6507   23.0329 C   0  0  0  0  0  0
  -26.4498  -31.6562   25.0720 C   0  0  0  0  0  0
  -25.3709  -31.3725   26.1428 C   0  0  0  0  0  0
  -27.0358  -30.2988   24.6198 C   0  0  0  0  0  0
  -27.6059  -32.4293   25.7503 C   0  0  0  0  0  0
  -27.5577  -37.1792   24.8466 C   0  0  0  0  0  0
  -21.4214  -29.3061   22.3631 N   0  0  0  0  0  0
  -26.4290  -37.3762   23.9415 N   0  0  0  0  0  0
  -24.6960  -31.0535   22.0965 N   0  0  0  0  0  0
  -23.4202  -28.8118   23.2947 O   0  0  0  0  0  0
  -28.2996  -26.3597   20.2083 O   0  0  0  0  0  0
  -26.5622  -34.8902   22.4663 O   0  0  0  0  0  0
  -23.5463  -32.1382   23.7288 O   0  0  0  0  0  0
  -30.0447  -21.5396   18.2885 C   0  0  0  0  0  0
  -29.9255  -19.8505   19.5660 C   0  0  0  0  0  0
  -29.7263  -22.7971   17.5413 C   0  0  0  0  0  0
  -28.0237  -18.4658   20.5388 C   0  0  0  0  0  0
  -30.0552  -18.9495   21.9423 C   0  0  0  0  0  0
  -29.0606  -23.7271   20.4537 C   0  0  0  0  0  0
  -28.6525  -22.1516   20.3091 C   0  0  0  0  0  0
  -30.2272  -17.2280   20.0542 C   0  0  0  0  0  0
  -28.0136  -24.8907   20.0578 C   0  0  0  0  0  0
  -29.5526  -18.6454   20.5220 C   0  0  0  0  0  0
  -30.8389  -20.6247   17.7421 N   0  0  0  0  0  0
  -30.7774  -19.5530   18.5716 N   0  0  0  0  0  0
  -29.5248  -21.2057   19.5009 N   0  0  0  0  0  0
  -29.8804  -15.8584   20.6356 N   0  0  0  0  0  0
  -31.4697  -12.5359   19.1792 H   0  0  0  0  0  0
  -30.3520  -11.4531   19.9598 H   0  0  0  0  0  0
  -29.7863  -11.7224   17.5218 H   0  0  0  0  0  0
  -29.6429  -13.4508   17.7257 H   0  0  0  0  0  0
  -27.8883  -11.2796   18.9123 H   0  0  0  0  0  0
  -27.3768  -12.5225   17.8016 H   0  0  0  0  0  0
  -27.6403  -14.2522   19.4746 H   0  0  0  0  0  0
  -28.7119  -12.1617   21.4333 H   0  0  0  0  0  0
  -28.4253  -13.8437   21.7992 H   0  0  0  0  0  0
  -25.2774   -9.5690   22.4772 H   0  0  0  0  0  0
  -24.0017   -7.4639   22.7478 H   0  0  0  0  0  0
  -21.0860   -8.8769   19.8953 H   0  0  0  0  0  0
  -22.3710  -10.9676   19.6168 H   0  0  0  0  0  0
  -21.1997   -7.6155   23.9716 H   0  0  0  0  0  0
  -21.1473   -6.0531   25.9077 H   0  0  0  0  0  0
  -22.0606   -2.7620   23.2831 H   0  0  0  0  0  0
  -22.4114  -11.9866   22.4764 H   0  0  0  0  0  0
  -21.1099  -13.1221   22.2617 H   0  0  0  0  0  0
  -24.6562  -15.8463   20.5148 H   0  0  0  0  0  0
  -26.2669  -15.6256   20.0592 H   0  0  0  0  0  0
  -26.7199  -32.5403   23.1084 H   0  0  0  0  0  0
  -25.0127  -33.9698   25.0431 H   0  0  0  0  0  0
  -22.7224  -31.3044   21.3947 H   0  0  0  0  0  0
  -23.3755  -35.9619   23.3305 H   0  0  0  0  0  0
  -24.3592  -36.8903   22.2054 H   0  0  0  0  0  0
  -23.7249  -37.6489   23.6660 H   0  0  0  0  0  0
  -26.1088  -31.5291   20.6050 H   0  0  0  0  0  0
  -26.8533  -30.8230   22.0085 H   0  0  0  0  0  0
  -28.1135  -28.9157   21.2235 H   0  0  0  0  0  0
  -25.9300  -25.9199   18.9918 H   0  0  0  0  0  0
  -23.9678  -27.3206   18.9947 H   0  0  0  0  0  0
  -23.7735  -30.5972   19.4021 H   0  0  0  0  0  0
  -22.7640  -29.2558   19.8469 H   0  0  0  0  0  0
  -25.1289  -36.1925   25.0823 H   0  0  0  0  0  0
  -21.0002  -28.3302   24.1356 H   0  0  0  0  0  0
  -20.5694  -26.2319   23.3598 H   0  0  0  0  0  0
  -21.6661  -26.7444   22.1183 H   0  0  0  0  0  0
  -19.6953  -25.6295   21.1228 H   0  0  0  0  0  0
  -19.6723  -27.3184   20.6712 H   0  0  0  0  0  0
  -17.4217  -26.6656   21.4006 H   0  0  0  0  0  0
  -18.0365  -26.0061   22.9006 H   0  0  0  0  0  0
  -19.7965  -30.7262   24.2235 H   0  0  0  0  0  0
  -17.5049  -31.6261   24.5177 H   0  0  0  0  0  0
  -15.5373  -30.2986   23.7678 H   0  0  0  0  0  0
  -15.8679  -28.0843   22.7034 H   0  0  0  0  0  0
  -24.5920  -30.7025   25.7761 H   0  0  0  0  0  0
  -24.8841  -32.2889   26.4777 H   0  0  0  0  0  0
  -25.7996  -30.8970   27.0258 H   0  0  0  0  0  0
  -26.2955  -29.6713   24.1214 H   0  0  0  0  0  0
  -27.4055  -29.7262   25.4718 H   0  0  0  0  0  0
  -27.8818  -30.4278   23.9436 H   0  0  0  0  0  0
  -27.2695  -33.3628   26.2036 H   0  0  0  0  0  0
  -28.3895  -32.6791   25.0329 H   0  0  0  0  0  0
  -28.0689  -31.8430   26.5449 H   0  0  0  0  0  0
  -28.2575  -38.0104   24.7506 H   0  0  0  0  0  0
  -28.1087  -36.2628   24.6299 H   0  0  0  0  0  0
  -27.2293  -37.1450   25.8867 H   0  0  0  0  0  0
  -20.9396  -29.8829   21.6882 H   0  0  0  0  0  0
  -26.0172  -38.2843   24.1411 H   0  0  0  0  0  0
  -29.8398  -22.6307   16.4697 H   0  0  0  0  0  0
  -30.4013  -23.6032   17.8211 H   0  0  0  0  0  0
  -28.6944  -23.0990   17.7097 H   0  0  0  0  0  0
  -27.5223  -19.3877   20.8330 H   0  0  0  0  0  0
  -27.7148  -17.6891   21.2381 H   0  0  0  0  0  0
  -27.6497  -18.1885   19.5531 H   0  0  0  0  0  0
  -29.5924  -19.8489   22.3457 H   0  0  0  0  0  0
  -31.1337  -19.1110   21.9457 H   0  0  0  0  0  0
  -29.8396  -18.1310   22.6291 H   0  0  0  0  0  0
  -30.0108  -23.9139   19.9595 H   0  0  0  0  0  0
  -29.2984  -23.8830   21.5063 H   0  0  0  0  0  0
  -27.6497  -22.0908   19.8858 H   0  0  0  0  0  0
  -28.5572  -21.7276   21.3088 H   0  0  0  0  0  0
  -31.3108  -17.3474   20.1072 H   0  0  0  0  0  0
  -30.0152  -17.1031   18.9909 H   0  0  0  0  0  0
  -27.1087  -24.6754   20.6277 H   0  0  0  0  0  0
  -27.7544  -24.7320   19.0124 H   0  0  0  0  0  0
  -28.9281  -15.7243   20.9387 H   0  0  0  0  0  0
  1 25  1  0  0  0
  1 30  2  0  0  0
  1 84  1  0  0  0
  2  3  1  0  0  0
  2 25  1  0  0  0
  2 85  1  0  0  0
  2 86  1  0  0  0
  3  4  1  0  0  0
  3 87  1  0  0  0
  3 88  1  0  0  0
  4  5  1  0  0  0
  4 89  1  0  0  0
  4 90  1  0  0  0
  5  6  1  0  0  0
  5 26  1  0  0  0
  5 91  1  0  0  0
  6 25  1  0  0  0
  6 92  1  0  0  0
  6 93  1  0  0  0
  7  8  2  0  0  0
  7 26  1  0  0  0
  7 29  1  0  0  0
  8  9  1  0  0  0
  8 22  1  0  0  0
  9 10  1  0  0  0
  9 27  2  0  0  0
 10 11  2  0  0  0
 10 15  1  0  0  0
 11 12  1  0  0  0
 11 94  1  0  0  0
 12 13  2  0  0  0
 12 95  1  0  0  0
 13 14  1  0  0  0
 13 31  1  0  0  0
 14 15  2  0  0  0
 14 96  1  0  0  0
 15 97  1  0  0  0
 16 17  2  0  0  0
 16 21  1  0  0  0
 16 31  1  0  0  0
 17 18  1  0  0  0
 17 98  1  0  0  0
 18 19  2  0  0  0
 18 99  1  0  0  0
 19 20  1  0  0  0
 19 24  1  0  0  0
 20 21  2  0  0  0
 20100  1  0  0  0
 21 23  1  0  0  0
 22 28  1  0  0  0
 22 32  2  0  0  0
 26 27  1  0  0  0
 28101  1  0  0  0
 28102  1  0  0  0
 29103  1  0  0  0
 29104  1  0  0  0
 33 34  1  0  0  0
 33 66  1  0  0  0
 33 70  2  0  0  0
 34 36  1  0  0  0
 34 59  1  0  0  0
 34105  1  0  0  0
 35 44  2  0  0  0
 35 45  1  0  0  0
 35 68  1  0  0  0
 36 56  1  0  0  0
 36106  1  0  0  0
 37 39  1  0  0  0
 37 47  1  0  0  0
 37 66  1  0  0  0
 37107  1  0  0  0
 38 43  2  0  0  0
 38 46  1  0  0  0
 38 47  1  0  0  0
 39 64  1  0  0  0
 39 67  2  0  0  0
 40 52  1  0  0  0
 40 53  2  0  0  0
 40 58  1  0  0  0
 41108  1  0  0  0
 41109  1  0  0  0
 41110  1  0  0  0
 41 48  1  0  0  0
 42 43  1  0  0  0
 42 66  1  0  0  0
 42111  1  0  0  0
 42112  1  0  0  0
 43 44  1  0  0  0
 44113  1  0  0  0
 45 46  2  0  0  0
 45114  1  0  0  0
 46115  1  0  0  0
 47116  1  0  0  0
 47117  1  0  0  0
 48 56  1  0  0  0
 48 65  1  0  0  0
 48118  1  0  0  0
 49 50  1  0  0  0
 49 53  1  0  0  0
 49 64  1  0  0  0
 49119  1  0  0  0
 50 51  1  0  0  0
 50120  1  0  0  0
 50121  1  0  0  0
 51 52  1  0  0  0
 51122  1  0  0  0
 51123  1  0  0  0
 52124  1  0  0  0
 52125  1  0  0  0
 53 54  1  0  0  0
 54 55  2  0  0  0
 54126  1  0  0  0
 55 57  1  0  0  0
 55127  1  0  0  0
 56 69  2  0  0  0
 57 58  2  0  0  0
 57128  1  0  0  0
 58129  1  0  0  0
 59 60  1  0  0  0
 59 61  1  0  0  0
 59 62  1  0  0  0
 60130  1  0  0  0
 60131  1  0  0  0
 60132  1  0  0  0
 61133  1  0  0  0
 61134  1  0  0  0
 61135  1  0  0  0
 62136  1  0  0  0
 62137  1  0  0  0
 62138  1  0  0  0
 63 65  1  0  0  0
 63139  1  0  0  0
 63140  1  0  0  0
 63141  1  0  0  0
 64142  1  0  0  0
 65143  1  0  0  0
 68 79  1  0  0  0
 71 73  1  0  0  0
 71 81  2  0  0  0
 71 83  1  0  0  0
 72 80  1  0  0  0
 72 82  2  0  0  0
 72 83  1  0  0  0
 73144  1  0  0  0
 73145  1  0  0  0
 73146  1  0  0  0
 74147  1  0  0  0
 74148  1  0  0  0
 74149  1  0  0  0
 74 80  1  0  0  0
 75 80  1  0  0  0
 75150  1  0  0  0
 75151  1  0  0  0
 75152  1  0  0  0
 76 77  1  0  0  0
 76 79  1  0  0  0
 76153  1  0  0  0
 76154  1  0  0  0
 77 83  1  0  0  0
 77155  1  0  0  0
 77156  1  0  0  0
 78 80  1  0  0  0
 78 84  1  0  0  0
 78157  1  0  0  0
 78158  1  0  0  0
 79159  1  0  0  0
 79160  1  0  0  0
 81 82  1  0  0  0
 84161  1  0  0  0
M  ISO  4   1 100  68 101  79 101  84 100
M  END
> <chiral flag>
0

> <version>
0

> <s_m_source_file>
/data/baiqing/PycharmProjects/Reinvent-master-3.2/result/LINK_invent/BTK/process_docking_weight1_custom_sum_contain_oxygen_bond_distance_aromatic_linkinvent_7_9_3/rearranged_h_0069.sdf

> <i_m_source_file_index>
24

> <r_mmod_Potential_Energy-OPLS-2005>
144.983459472656

> <r_mmod_Stretch_Energy-OPLS-2005>
132.125350952148

> <r_mmod_Bend_Energy-OPLS-2005>
200.869613647461

> <r_mmod_Torsional_Energy-OPLS-2005>
256.565246582031

> <r_mmod_Improper_Torsional_Energy-OPLS-2005>
7.79008102416992

> <r_mmod_Van_der_Waal_Energy-OPLS-2005>
124.835319519043

> <r_mmod_Electrostatic_Energy-OPLS-2005>
-412.656707763672

> <r_mmod_Solvation_Energy-OPLS-2005>
-243.709625244141

> <b_mmod_Minimization_Converged-OPLS-2005>
0

> <r_mmod_RMS_Derivative-OPLS-2005>
1.90030992031097

$$$$
24
                    3D
 Structure written by MMmdl.
169177  0  0  1  0            999 V2000
  -30.6143  -14.7257   20.4324 C   0  0  0  0  0  0
  -30.4303  -12.4300   19.4846 C   0  0  0  0  0  0
  -29.5093  -12.5080   18.2454 C   0  0  0  0  0  0
  -28.0346  -12.3338   18.6548 C   0  0  0  0  0  0
  -27.6476  -13.2189   19.8687 C   0  0  2  0  0  0
  -28.6958  -13.1466   21.0037 C   0  0  0  0  0  0
  -25.2539  -13.8161   20.5727 C   0  0  0  0  0  0
  -24.1811  -13.0421   20.9207 C   0  0  0  0  0  0
  -24.6399  -11.6903   20.8778 C   0  0  0  0  0  0
  -23.9070  -10.4286   21.0430 C   0  0  0  0  0  0
  -24.3621   -9.4196   21.9195 C   0  0  0  0  0  0
  -23.6301   -8.2232   22.0756 C   0  0  0  0  0  0
  -22.4276   -8.0285   21.3551 C   0  0  0  0  0  0
  -21.9918   -9.0255   20.4642 C   0  0  0  0  0  0
  -22.7254  -10.2136   20.3062 C   0  0  0  0  0  0
  -21.6850   -6.0746   22.5282 C   0  0  0  0  0  0
  -21.4014   -6.5645   23.8215 C   0  0  0  0  0  0
  -21.3654   -5.6799   24.9172 C   0  0  0  0  0  0
  -21.6046   -4.3061   24.7226 C   0  0  0  0  0  0
  -21.8822   -3.8154   23.4342 C   0  0  0  0  0  0
  -21.9196   -4.6976   22.3400 C   0  0  0  0  0  0
  -22.7841  -13.5221   21.1855 C   0  0  0  0  0  0
  -22.1666   -4.2164   21.0980 F   0  0  0  0  0  0
  -21.5623   -3.4541   25.7733 F   0  0  0  0  0  0
  -30.0038  -13.4897   20.4286 N   0  0  0  0  0  0
  -26.2970  -12.9343   20.3388 N   0  0  0  0  0  0
  -25.9325  -11.6498   20.5830 N   0  0  0  0  0  0
  -22.0481  -12.8209   22.0407 N   0  0  0  0  0  0
  -25.4231  -15.1877   20.4107 N   0  0  0  0  0  0
  -31.7775  -14.8412   20.0394 O   0  0  0  0  0  0
  -21.6640   -6.8887   21.4243 O   0  0  0  0  0  0
  -22.3527  -14.5530   20.6712 O   0  0  0  0  0  0
  -24.6316  -31.8551   23.1967 C   0  0  0  0  0  0
  -25.9130  -32.4750   23.8323 C   0  0  1  0  0  0
  -27.2248  -27.2584   20.1177 C   0  0  0  0  0  0
  -25.5908  -33.8540   24.2242 N   0  0  0  0  0  0
  -23.4302  -30.4795   21.5395 C   0  0  2  0  0  0
  -24.8813  -28.9325   20.1052 C   0  0  0  0  0  0
  -22.7503  -29.4613   22.4884 C   0  0  0  0  0  0
  -18.0274  -28.1406   22.8491 C   0  0  0  0  0  0
  -24.1488  -36.7291   23.2643 C   0  0  0  0  0  0
  -25.9790  -30.7663   21.3824 C   0  0  0  0  0  0
  -26.0538  -29.3908   20.7193 C   0  0  0  0  0  0
  -27.2257  -28.5637   20.7190 C   0  0  0  0  0  0
  -26.0261  -26.8794   19.4668 C   0  0  0  0  0  0
  -24.8729  -27.6841   19.4701 C   0  0  0  0  0  0
  -23.6507  -29.8160   20.1563 C   0  0  0  0  0  0
  -25.4099  -36.3041   24.0327 C   0  0  1  0  0  0
  -20.5897  -28.3725   23.1259 C   0  0  2  0  0  0
  -20.6792  -26.9441   22.5409 C   0  0  0  0  0  0
  -19.5762  -26.6399   21.5220 C   0  0  0  0  0  0
  -18.1933  -26.7951   22.1622 C   0  0  0  0  0  0
  -19.1539  -28.8873   23.2876 C   0  0  0  0  0  0
  -18.9461  -30.1473   23.8912 C   0  0  0  0  0  0
  -17.6465  -30.6624   24.0561 C   0  0  0  0  0  0
  -25.9039  -34.9423   23.5090 C   0  0  0  0  0  0
  -16.5352  -29.9119   23.6346 C   0  0  0  0  0  0
  -16.7266  -28.6531   23.0372 C   0  0  0  0  0  0
  -26.4469  -31.6569   25.0724 C   0  0  0  0  0  0
  -25.3663  -31.3761   26.1437 C   0  0  0  0  0  0
  -27.0335  -30.2962   24.6263 C   0  0  0  0  0  0
  -27.6006  -32.4326   25.7496 C   0  0  0  0  0  0
  -27.5576  -37.1782   24.8455 C   0  0  0  0  0  0
  -21.4204  -29.3066   22.3636 N   0  0  0  0  0  0
  -26.4275  -37.3736   23.9416 N   0  0  0  0  0  0
  -24.6994  -31.0509   22.0958 N   0  0  0  0  0  0
  -23.4199  -28.8132   23.2975 O   0  0  0  0  0  0
  -28.3134  -26.3481   20.1839 O   0  0  0  0  0  0
  -26.5633  -34.8910   22.4669 O   0  0  0  0  0  0
  -23.5464  -32.1381   23.7256 O   0  0  0  0  0  0
  -31.4561  -18.8507   20.3917 C   0  0  0  0  0  0
  -30.1038  -18.5552   20.2055 C   0  0  0  0  0  0
  -31.8536  -20.2024   20.3978 C   0  0  0  0  0  0
  -29.6570  -20.9122   20.1942 C   0  0  0  0  0  0
  -28.3713  -17.0576   19.0170 C   0  0  0  0  0  0
  -28.4870  -22.1194   18.2856 C   0  0  0  0  0  0
  -33.6186  -21.4319   19.0913 C   0  0  0  0  0  0
  -34.3108  -19.4429   20.4023 C   0  0  0  0  0  0
  -33.6322  -21.5253   21.6064 C   0  0  0  0  0  0
  -29.0682  -23.6631   20.2737 C   0  0  0  0  0  0
  -28.0766  -24.8901   19.8734 C   0  0  0  0  0  0
  -29.7248  -17.0773   19.7484 C   0  0  2  0  0  0
  -28.7049  -22.1389   19.8096 C   0  0  2  0  0  0
  -33.3326  -20.6395   20.3830 C   0  0  0  0  0  0
  -29.2144  -19.6182   20.1267 N   0  0  0  0  0  0
  -30.9474  -21.2021   20.2981 N   0  0  0  0  0  0
  -29.8252  -15.8404   20.6321 N   0  0  0  0  0  0
  -31.4748  -12.5355   19.1859 H   0  0  0  0  0  0
  -30.3550  -11.4499   19.9583 H   0  0  0  0  0  0
  -29.7855  -11.7467   17.5152 H   0  0  0  0  0  0
  -29.6391  -13.4719   17.7508 H   0  0  0  0  0  0
  -27.8784  -11.2821   18.8984 H   0  0  0  0  0  0
  -27.3795  -12.5491   17.8098 H   0  0  0  0  0  0
  -27.6417  -14.2400   19.5007 H   0  0  0  0  0  0
  -28.7232  -12.1483   21.4428 H   0  0  0  0  0  0
  -28.4363  -13.8284   21.8147 H   0  0  0  0  0  0
  -25.2761   -9.5675   22.4771 H   0  0  0  0  0  0
  -24.0015   -7.4618   22.7467 H   0  0  0  0  0  0
  -21.0851   -8.8780   19.8935 H   0  0  0  0  0  0
  -22.3719  -10.9682   19.6173 H   0  0  0  0  0  0
  -21.2008   -7.6155   23.9726 H   0  0  0  0  0  0
  -21.1468   -6.0523   25.9080 H   0  0  0  0  0  0
  -22.0604   -2.7619   23.2839 H   0  0  0  0  0  0
  -22.4108  -11.9867   22.4781 H   0  0  0  0  0  0
  -21.1095  -13.1222   22.2617 H   0  0  0  0  0  0
  -24.6510  -15.8381   20.5077 H   0  0  0  0  0  0
  -26.2675  -15.6236   20.0658 H   0  0  0  0  0  0
  -26.7208  -32.5400   23.1085 H   0  0  0  0  0  0
  -24.9941  -33.9660   25.0307 H   0  0  0  0  0  0
  -22.7290  -31.3027   21.3912 H   0  0  0  0  0  0
  -23.3724  -35.9646   23.3267 H   0  0  0  0  0  0
  -24.3591  -36.8959   22.2067 H   0  0  0  0  0  0
  -23.7279  -37.6493   23.6698 H   0  0  0  0  0  0
  -26.1220  -31.5331   20.6190 H   0  0  0  0  0  0
  -26.8557  -30.8127   22.0178 H   0  0  0  0  0  0
  -28.1202  -28.9029   21.2239 H   0  0  0  0  0  0
  -25.9466  -25.9331   18.9544 H   0  0  0  0  0  0
  -23.9745  -27.3313   18.9814 H   0  0  0  0  0  0
  -23.7651  -30.5930   19.3981 H   0  0  0  0  0  0
  -22.7722  -29.2430   19.8549 H   0  0  0  0  0  0
  -25.1277  -36.1872   25.0818 H   0  0  0  0  0  0
  -20.9980  -28.3331   24.1382 H   0  0  0  0  0  0
  -20.5722  -26.2332   23.3618 H   0  0  0  0  0  0
  -21.6658  -26.7500   22.1185 H   0  0  0  0  0  0
  -19.6946  -25.6298   21.1277 H   0  0  0  0  0  0
  -19.6719  -27.3189   20.6733 H   0  0  0  0  0  0
  -17.4208  -26.6681   21.4026 H   0  0  0  0  0  0
  -18.0340  -26.0103   22.9030 H   0  0  0  0  0  0
  -19.7933  -30.7271   24.2321 H   0  0  0  0  0  0
  -17.5020  -31.6315   24.5139 H   0  0  0  0  0  0
  -15.5352  -30.3023   23.7694 H   0  0  0  0  0  0
  -15.8647  -28.0854   22.7106 H   0  0  0  0  0  0
  -24.5834  -30.7112   25.7782 H   0  0  0  0  0  0
  -24.8845  -32.2946   26.4791 H   0  0  0  0  0  0
  -25.7952  -30.8992   27.0255 H   0  0  0  0  0  0
  -26.2964  -29.6668   24.1267 H   0  0  0  0  0  0
  -27.3958  -29.7267   25.4827 H   0  0  0  0  0  0
  -27.8849  -30.4195   23.9570 H   0  0  0  0  0  0
  -27.2593  -33.3633   26.2038 H   0  0  0  0  0  0
  -28.3826  -32.6876   25.0334 H   0  0  0  0  0  0
  -28.0646  -31.8471   26.5435 H   0  0  0  0  0  0
  -28.2541  -38.0119   24.7516 H   0  0  0  0  0  0
  -28.1131  -36.2651   24.6251 H   0  0  0  0  0  0
  -27.2324  -37.1411   25.8864 H   0  0  0  0  0  0
  -20.9398  -29.8775   21.6825 H   0  0  0  0  0  0
  -26.0148  -38.2812   24.1385 H   0  0  0  0  0  0
  -32.1674  -18.0362   20.3948 H   0  0  0  0  0  0
  -28.3405  -17.8146   18.2329 H   0  0  0  0  0  0
  -27.5498  -17.2572   19.7046 H   0  0  0  0  0  0
  -28.1915  -16.1030   18.5273 H   0  0  0  0  0  0
  -28.2186  -21.1191   17.9457 H   0  0  0  0  0  0
  -29.3962  -22.4150   17.7635 H   0  0  0  0  0  0
  -27.6814  -22.7841   17.9771 H   0  0  0  0  0  0
  -33.3824  -20.8358   18.2087 H   0  0  0  0  0  0
  -34.6659  -21.7273   19.0250 H   0  0  0  0  0  0
  -33.0233  -22.3435   19.0380 H   0  0  0  0  0  0
  -34.1525  -18.7891   19.5434 H   0  0  0  0  0  0
  -34.2062  -18.8466   21.3087 H   0  0  0  0  0  0
  -35.3478  -19.7783   20.3571 H   0  0  0  0  0  0
  -33.0227  -22.4287   21.5936 H   0  0  0  0  0  0
  -34.6758  -21.8389   21.6297 H   0  0  0  0  0  0
  -33.4203  -20.9978   22.5361 H   0  0  0  0  0  0
  -29.1754  -23.6543   21.3576 H   0  0  0  0  0  0
  -30.0619  -23.8928   19.8896 H   0  0  0  0  0  0
  -27.1100  -24.6129   20.2932 H   0  0  0  0  0  0
  -27.9564  -24.8621   18.7920 H   0  0  0  0  0  0
  -30.4551  -16.8942   18.9564 H   0  0  0  0  0  0
  -27.7464  -21.9015   20.2716 H   0  0  0  0  0  0
  -28.9742  -15.6511   21.1355 H   0  0  0  0  0  0
  1 25  1  0  0  0
  1 30  2  0  0  0
  1 87  1  0  0  0
  2  3  1  0  0  0
  2 25  1  0  0  0
  2 88  1  0  0  0
  2 89  1  0  0  0
  3  4  1  0  0  0
  3 90  1  0  0  0
  3 91  1  0  0  0
  4  5  1  0  0  0
  4 92  1  0  0  0
  4 93  1  0  0  0
  5  6  1  0  0  0
  5 26  1  0  0  0
  5 94  1  0  0  0
  6 25  1  0  0  0
  6 95  1  0  0  0
  6 96  1  0  0  0
  7  8  2  0  0  0
  7 26  1  0  0  0
  7 29  1  0  0  0
  8  9  1  0  0  0
  8 22  1  0  0  0
  9 10  1  0  0  0
  9 27  2  0  0  0
 10 11  2  0  0  0
 10 15  1  0  0  0
 11 12  1  0  0  0
 11 97  1  0  0  0
 12 13  2  0  0  0
 12 98  1  0  0  0
 13 14  1  0  0  0
 13 31  1  0  0  0
 14 15  2  0  0  0
 14 99  1  0  0  0
 15100  1  0  0  0
 16 17  2  0  0  0
 16 21  1  0  0  0
 16 31  1  0  0  0
 17 18  1  0  0  0
 17101  1  0  0  0
 18 19  2  0  0  0
 18102  1  0  0  0
 19 20  1  0  0  0
 19 24  1  0  0  0
 20 21  2  0  0  0
 20103  1  0  0  0
 21 23  1  0  0  0
 22 28  1  0  0  0
 22 32  2  0  0  0
 26 27  1  0  0  0
 28104  1  0  0  0
 28105  1  0  0  0
 29106  1  0  0  0
 29107  1  0  0  0
 33 34  1  0  0  0
 33 66  1  0  0  0
 33 70  2  0  0  0
 34 36  1  0  0  0
 34 59  1  0  0  0
 34108  1  0  0  0
 35 44  2  0  0  0
 35 45  1  0  0  0
 35 68  1  0  0  0
 36 56  1  0  0  0
 36109  1  0  0  0
 37 39  1  0  0  0
 37 47  1  0  0  0
 37 66  1  0  0  0
 37110  1  0  0  0
 38 43  2  0  0  0
 38 46  1  0  0  0
 38 47  1  0  0  0
 39 64  1  0  0  0
 39 67  2  0  0  0
 40 52  1  0  0  0
 40 53  2  0  0  0
 40 58  1  0  0  0
 41111  1  0  0  0
 41112  1  0  0  0
 41113  1  0  0  0
 41 48  1  0  0  0
 42 43  1  0  0  0
 42 66  1  0  0  0
 42114  1  0  0  0
 42115  1  0  0  0
 43 44  1  0  0  0
 44116  1  0  0  0
 45 46  2  0  0  0
 45117  1  0  0  0
 46118  1  0  0  0
 47119  1  0  0  0
 47120  1  0  0  0
 48 56  1  0  0  0
 48 65  1  0  0  0
 48121  1  0  0  0
 49 50  1  0  0  0
 49 53  1  0  0  0
 49 64  1  0  0  0
 49122  1  0  0  0
 50 51  1  0  0  0
 50123  1  0  0  0
 50124  1  0  0  0
 51 52  1  0  0  0
 51125  1  0  0  0
 51126  1  0  0  0
 52127  1  0  0  0
 52128  1  0  0  0
 53 54  1  0  0  0
 54 55  2  0  0  0
 54129  1  0  0  0
 55 57  1  0  0  0
 55130  1  0  0  0
 56 69  2  0  0  0
 57 58  2  0  0  0
 57131  1  0  0  0
 58132  1  0  0  0
 59 60  1  0  0  0
 59 61  1  0  0  0
 59 62  1  0  0  0
 60133  1  0  0  0
 60134  1  0  0  0
 60135  1  0  0  0
 61136  1  0  0  0
 61137  1  0  0  0
 61138  1  0  0  0
 62139  1  0  0  0
 62140  1  0  0  0
 62141  1  0  0  0
 63 65  1  0  0  0
 63142  1  0  0  0
 63143  1  0  0  0
 63144  1  0  0  0
 64145  1  0  0  0
 65146  1  0  0  0
 68 81  1  0  0  0
 71 72  2  0  0  0
 71 73  1  0  0  0
 71147  1  0  0  0
 72 82  1  0  0  0
 72 85  1  0  0  0
 73 84  1  0  0  0
 73 86  2  0  0  0
 74 83  1  0  0  0
 74 85  2  0  0  0
 74 86  1  0  0  0
 75148  1  0  0  0
 75149  1  0  0  0
 75150  1  0  0  0
 75 82  1  0  0  0
 76151  1  0  0  0
 76152  1  0  0  0
 76153  1  0  0  0
 76 83  1  0  0  0
 77154  1  0  0  0
 77155  1  0  0  0
 77156  1  0  0  0
 77 84  1  0  0  0
 78 84  1  0  0  0
 78157  1  0  0  0
 78158  1  0  0  0
 78159  1  0  0  0
 79 84  1  0  0  0
 79160  1  0  0  0
 79161  1  0  0  0
 79162  1  0  0  0
 80 81  1  0  0  0
 80 83  1  0  0  0
 80163  1  0  0  0
 80164  1  0  0  0
 81165  1  0  0  0
 81166  1  0  0  0
 82 87  1  0  0  0
 82167  1  0  0  0
 83168  1  0  0  0
 87169  1  0  0  0
M  ISO  4   1 100  68 101  81 101  87 100
M  END
> <chiral flag>
0

> <version>
0

> <s_m_source_file>
/data/baiqing/PycharmProjects/Reinvent-master-3.2/result/LINK_invent/BTK/process_docking_weight1_custom_sum_contain_oxygen_bond_distance_aromatic_linkinvent_7_9_3/rearranged_h_0069.sdf

> <i_m_source_file_index>
25

> <r_mmod_Potential_Energy-OPLS-2005>
-478.29833984375

> <r_mmod_Stretch_Energy-OPLS-2005>
124.946594238281

> <r_mmod_Bend_Energy-OPLS-2005>
185.325607299805

> <r_mmod_Torsional_Energy-OPLS-2005>
220.910934448242

> <r_mmod_Improper_Torsional_Energy-OPLS-2005>
13.0146455764771

> <r_mmod_Van_der_Waal_Energy-OPLS-2005>
151.661956787109

> <r_mmod_Electrostatic_Energy-OPLS-2005>
-1038.97875976562

> <r_mmod_Solvation_Energy-OPLS-2005>
-218.016738891602

> <b_mmod_Minimization_Converged-OPLS-2005>
0

> <r_mmod_RMS_Derivative-OPLS-2005>
2.54200577735901

$$$$
25
                    3D
 Structure written by MMmdl.
170178  0  0  1  0            999 V2000
  -30.6252  -14.7191   20.6205 C   0  0  0  0  0  0
  -30.4616  -12.4747   19.4571 C   0  0  0  0  0  0
  -29.5209  -12.5161   18.2297 C   0  0  0  0  0  0
  -28.0426  -12.2984   18.6195 C   0  0  0  0  0  0
  -27.6417  -13.1781   19.8299 C   0  0  2  0  0  0
  -28.6932  -13.0337   20.9593 C   0  0  0  0  0  0
  -25.2486  -13.8041   20.5481 C   0  0  0  0  0  0
  -24.1789  -13.0344   20.9243 C   0  0  0  0  0  0
  -24.6386  -11.6830   20.8772 C   0  0  0  0  0  0
  -23.9025  -10.4228   21.0448 C   0  0  0  0  0  0
  -24.3585   -9.4155   21.9230 C   0  0  0  0  0  0
  -23.6208   -8.2228   22.0767 C   0  0  0  0  0  0
  -22.4187   -8.0305   21.3553 C   0  0  0  0  0  0
  -21.9848   -9.0303   20.4654 C   0  0  0  0  0  0
  -22.7233  -10.2147   20.3058 C   0  0  0  0  0  0
  -21.6827   -6.0693   22.5255 C   0  0  0  0  0  0
  -21.4032   -6.5598   23.8184 C   0  0  0  0  0  0
  -21.3641   -5.6767   24.9171 C   0  0  0  0  0  0
  -21.6019   -4.3032   24.7201 C   0  0  0  0  0  0
  -21.8808   -3.8111   23.4340 C   0  0  0  0  0  0
  -21.9166   -4.6928   22.3387 C   0  0  0  0  0  0
  -22.7793  -13.5216   21.1963 C   0  0  0  0  0  0
  -22.1614   -4.2088   21.0959 F   0  0  0  0  0  0
  -21.5631   -3.4474   25.7685 F   0  0  0  0  0  0
  -29.9955  -13.4896   20.4404 N   0  0  0  0  0  0
  -26.2902  -12.9143   20.3092 N   0  0  0  0  0  0
  -25.9305  -11.6367   20.5768 N   0  0  0  0  0  0
  -22.0283  -12.8175   22.0456 N   0  0  0  0  0  0
  -25.4071  -15.1711   20.3586 N   0  0  0  0  0  0
  -31.7566  -14.8523   20.1414 O   0  0  0  0  0  0
  -21.6641   -6.8839   21.4196 O   0  0  0  0  0  0
  -22.3520  -14.5563   20.6842 O   0  0  0  0  0  0
  -24.6274  -31.8609   23.1997 C   0  0  0  0  0  0
  -25.9082  -32.4792   23.8374 C   0  0  1  0  0  0
  -27.2474  -27.3015   20.1394 C   0  0  0  0  0  0
  -25.5897  -33.8575   24.2290 N   0  0  0  0  0  0
  -23.4232  -30.4700   21.5523 C   0  0  2  0  0  0
  -24.8730  -28.9121   20.1261 C   0  0  0  0  0  0
  -22.7510  -29.4568   22.5084 C   0  0  0  0  0  0
  -18.0261  -28.1401   22.8487 C   0  0  0  0  0  0
  -24.1445  -36.7244   23.2667 C   0  0  0  0  0  0
  -25.9604  -30.7822   21.3694 C   0  0  0  0  0  0
  -26.0378  -29.3969   20.7291 C   0  0  0  0  0  0
  -27.2265  -28.6048   20.7323 C   0  0  0  0  0  0
  -26.0660  -26.8699   19.5027 C   0  0  0  0  0  0
  -24.8884  -27.6501   19.5060 C   0  0  0  0  0  0
  -23.6335  -29.7912   20.1726 C   0  0  0  0  0  0
  -25.4095  -36.3074   24.0342 C   0  0  1  0  0  0
  -20.5856  -28.3644   23.1376 C   0  0  2  0  0  0
  -20.6776  -26.9395   22.5465 C   0  0  0  0  0  0
  -19.5728  -26.6355   21.5279 C   0  0  0  0  0  0
  -18.1882  -26.7924   22.1657 C   0  0  0  0  0  0
  -19.1515  -28.8847   23.2882 C   0  0  0  0  0  0
  -18.9449  -30.1462   23.8837 C   0  0  0  0  0  0
  -17.6454  -30.6587   24.0541 C   0  0  0  0  0  0
  -25.9056  -34.9429   23.5123 C   0  0  0  0  0  0
  -16.5338  -29.9046   23.6399 C   0  0  0  0  0  0
  -16.7248  -28.6503   23.0350 C   0  0  0  0  0  0
  -26.4422  -31.6608   25.0776 C   0  0  0  0  0  0
  -25.3598  -31.3727   26.1478 C   0  0  0  0  0  0
  -27.0356  -30.3081   24.6192 C   0  0  0  0  0  0
  -27.5964  -32.4385   25.7516 C   0  0  0  0  0  0
  -27.5547  -37.1782   24.8486 C   0  0  0  0  0  0
  -21.4214  -29.2986   22.3808 N   0  0  0  0  0  0
  -26.4252  -37.3782   23.9443 N   0  0  0  0  0  0
  -24.6892  -31.0579   22.0960 N   0  0  0  0  0  0
  -23.4230  -28.8193   23.3219 O   0  0  0  0  0  0
  -28.3786  -26.4688   20.1110 O   0  0  0  0  0  0
  -26.5615  -34.8884   22.4717 O   0  0  0  0  0  0
  -23.5409  -32.1425   23.7291 O   0  0  0  0  0  0
  -31.9996  -17.6953   21.3981 C   0  0  0  0  0  0
  -30.6305  -17.4778   21.1272 C   0  0  0  0  0  0
  -31.6958  -20.0262   21.5606 C   0  0  0  0  0  0
  -30.3314  -19.8995   21.1549 C   0  0  0  0  0  0
  -33.3124  -22.0372   21.1787 C   0  0  0  0  0  0
  -28.4827  -16.1755   20.8807 C   0  0  0  0  0  0
  -29.9344  -15.7881   22.8686 C   0  0  0  0  0  0
  -27.5518  -23.1756   19.4792 C   0  0  0  0  0  0
  -29.8296  -24.1041   19.0490 C   0  0  0  0  0  0
  -32.3332  -21.3040   22.1179 C   0  0  0  0  0  0
  -29.3146  -21.0768   20.8067 C   0  0  0  0  0  0
  -29.4686  -22.6681   21.1130 C   0  0  0  0  0  0
  -28.3476  -25.1708   20.8460 C   0  0  0  0  0  0
  -29.9496  -16.0301   21.3360 C   0  0  0  0  0  0
  -28.7974  -23.7818   20.1490 C   0  0  0  0  0  0
  -32.5146  -18.9351   21.6268 N   0  0  0  0  0  0
  -29.8379  -18.6155   20.9811 N   0  0  0  0  0  0
  -31.4984  -12.6281   19.1405 H   0  0  0  0  0  0
  -30.4596  -11.4766   19.8989 H   0  0  0  0  0  0
  -29.8177  -11.7630   17.4985 H   0  0  0  0  0  0
  -29.6335  -13.4843   17.7455 H   0  0  0  0  0  0
  -27.9282  -11.2456   18.8638 H   0  0  0  0  0  0
  -27.3879  -12.4821   17.7627 H   0  0  0  0  0  0
  -27.6341  -14.1894   19.4397 H   0  0  0  0  0  0
  -28.7554  -11.9809   21.2432 H   0  0  0  0  0  0
  -28.3928  -13.5164   21.8848 H   0  0  0  0  0  0
  -25.2706   -9.5567   22.4858 H   0  0  0  0  0  0
  -23.9828   -7.4566   22.7465 H   0  0  0  0  0  0
  -21.0778   -8.8885   19.8897 H   0  0  0  0  0  0
  -22.3800  -10.9729   19.6149 H   0  0  0  0  0  0
  -21.2096   -7.6100   23.9685 H   0  0  0  0  0  0
  -21.1485   -6.0525   25.9078 H   0  0  0  0  0  0
  -22.0624   -2.7570   23.2892 H   0  0  0  0  0  0
  -22.3705  -11.9851   22.5017 H   0  0  0  0  0  0
  -21.0834  -13.1217   22.2348 H   0  0  0  0  0  0
  -24.6291  -15.8100   20.4668 H   0  0  0  0  0  0
  -26.2466  -15.6164   20.0070 H   0  0  0  0  0  0
  -26.7167  -32.5439   23.1119 H   0  0  0  0  0  0
  -25.0078  -33.9730   25.0429 H   0  0  0  0  0  0
  -22.7195  -31.2891   21.4051 H   0  0  0  0  0  0
  -23.3735  -35.9546   23.3381 H   0  0  0  0  0  0
  -24.3492  -36.8862   22.2084 H   0  0  0  0  0  0
  -23.7142  -37.6420   23.6681 H   0  0  0  0  0  0
  -26.0802  -31.5322   20.5863 H   0  0  0  0  0  0
  -26.8444  -30.8500   21.9923 H   0  0  0  0  0  0
  -28.1185  -28.9722   21.2193 H   0  0  0  0  0  0
  -26.0527  -25.9152   18.9953 H   0  0  0  0  0  0
  -23.9937  -27.2714   19.0301 H   0  0  0  0  0  0
  -23.7297  -30.5568   19.4039 H   0  0  0  0  0  0
  -22.7557  -29.2068   19.8918 H   0  0  0  0  0  0
  -25.1254  -36.1954   25.0824 H   0  0  0  0  0  0
  -20.9862  -28.3157   24.1513 H   0  0  0  0  0  0
  -20.5826  -26.2205   23.3606 H   0  0  0  0  0  0
  -21.6627  -26.7521   22.1176 H   0  0  0  0  0  0
  -19.6938  -25.6260   21.1278 H   0  0  0  0  0  0
  -19.6699  -27.3199   20.6831 H   0  0  0  0  0  0
  -17.4221  -26.6688   21.4009 H   0  0  0  0  0  0
  -18.0219  -26.0083   22.9059 H   0  0  0  0  0  0
  -19.7917  -30.7293   24.2168 H   0  0  0  0  0  0
  -17.4990  -31.6274   24.5129 H   0  0  0  0  0  0
  -15.5305  -30.2905   23.7794 H   0  0  0  0  0  0
  -15.8646  -28.0802   22.7089 H   0  0  0  0  0  0
  -24.5738  -30.7127   25.7805 H   0  0  0  0  0  0
  -24.8743  -32.2848   26.4946 H   0  0  0  0  0  0
  -25.7831  -30.8879   27.0274 H   0  0  0  0  0  0
  -26.2977  -29.6738   24.1266 H   0  0  0  0  0  0
  -27.4228  -29.7440   25.4692 H   0  0  0  0  0  0
  -27.8700  -30.4544   23.9331 H   0  0  0  0  0  0
  -27.2605  -33.3752   26.1968 H   0  0  0  0  0  0
  -28.3733  -32.6859   25.0280 H   0  0  0  0  0  0
  -28.0599  -31.8585   26.5497 H   0  0  0  0  0  0
  -28.2587  -38.0066   24.7557 H   0  0  0  0  0  0
  -28.1027  -36.2605   24.6297 H   0  0  0  0  0  0
  -27.2259  -37.1413   25.8882 H   0  0  0  0  0  0
  -20.9478  -29.8680   21.6923 H   0  0  0  0  0  0
  -26.0158  -38.2854   24.1470 H   0  0  0  0  0  0
  -32.6626  -16.8592   21.5747 H   0  0  0  0  0  0
  -33.7564  -22.8860   21.6992 H   0  0  0  0  0  0
  -32.8333  -22.4239   20.2773 H   0  0  0  0  0  0
  -34.1358  -21.3911   20.8717 H   0  0  0  0  0  0
  -28.4271  -16.1530   19.7942 H   0  0  0  0  0  0
  -28.0027  -17.0934   21.2028 H   0  0  0  0  0  0
  -27.8376  -15.4389   21.3393 H   0  0  0  0  0  0
  -29.2511  -16.4829   23.3631 H   0  0  0  0  0  0
  -30.9217  -15.9499   23.3066 H   0  0  0  0  0  0
  -29.6166  -14.7840   23.1460 H   0  0  0  0  0  0
  -27.8161  -22.3539   18.8137 H   0  0  0  0  0  0
  -27.0323  -23.9083   18.8658 H   0  0  0  0  0  0
  -26.8457  -22.7920   20.2210 H   0  0  0  0  0  0
  -30.2305  -23.1946   18.5975 H   0  0  0  0  0  0
  -30.6720  -24.6806   19.4365 H   0  0  0  0  0  0
  -29.3884  -24.6802   18.2403 H   0  0  0  0  0  0
  -32.8825  -21.0433   23.0221 H   0  0  0  0  0  0
  -31.5744  -21.9706   22.5217 H   0  0  0  0  0  0
  -28.3699  -20.7634   21.2631 H   0  0  0  0  0  0
  -29.1619  -20.9524   19.7338 H   0  0  0  0  0  0
  -30.5149  -22.9520   21.1109 H   0  0  0  0  0  0
  -29.1337  -22.8338   22.1407 H   0  0  0  0  0  0
  -28.9934  -25.3229   21.7085 H   0  0  0  0  0  0
  -27.3586  -25.0346   21.2903 H   0  0  0  0  0  0
  1 25  1  0  0  0
  1 30  2  0  0  0
  1 84  1  0  0  0
  2  3  1  0  0  0
  2 25  1  0  0  0
  2 88  1  0  0  0
  2 89  1  0  0  0
  3  4  1  0  0  0
  3 90  1  0  0  0
  3 91  1  0  0  0
  4  5  1  0  0  0
  4 92  1  0  0  0
  4 93  1  0  0  0
  5  6  1  0  0  0
  5 26  1  0  0  0
  5 94  1  0  0  0
  6 25  1  0  0  0
  6 95  1  0  0  0
  6 96  1  0  0  0
  7  8  2  0  0  0
  7 26  1  0  0  0
  7 29  1  0  0  0
  8  9  1  0  0  0
  8 22  1  0  0  0
  9 10  1  0  0  0
  9 27  2  0  0  0
 10 11  2  0  0  0
 10 15  1  0  0  0
 11 12  1  0  0  0
 11 97  1  0  0  0
 12 13  2  0  0  0
 12 98  1  0  0  0
 13 14  1  0  0  0
 13 31  1  0  0  0
 14 15  2  0  0  0
 14 99  1  0  0  0
 15100  1  0  0  0
 16 17  2  0  0  0
 16 21  1  0  0  0
 16 31  1  0  0  0
 17 18  1  0  0  0
 17101  1  0  0  0
 18 19  2  0  0  0
 18102  1  0  0  0
 19 20  1  0  0  0
 19 24  1  0  0  0
 20 21  2  0  0  0
 20103  1  0  0  0
 21 23  1  0  0  0
 22 28  1  0  0  0
 22 32  2  0  0  0
 26 27  1  0  0  0
 28104  1  0  0  0
 28105  1  0  0  0
 29106  1  0  0  0
 29107  1  0  0  0
 33 34  1  0  0  0
 33 66  1  0  0  0
 33 70  2  0  0  0
 34 36  1  0  0  0
 34 59  1  0  0  0
 34108  1  0  0  0
 35 44  2  0  0  0
 35 45  1  0  0  0
 35 68  1  0  0  0
 36 56  1  0  0  0
 36109  1  0  0  0
 37 39  1  0  0  0
 37 47  1  0  0  0
 37 66  1  0  0  0
 37110  1  0  0  0
 38 43  2  0  0  0
 38 46  1  0  0  0
 38 47  1  0  0  0
 39 64  1  0  0  0
 39 67  2  0  0  0
 40 52  1  0  0  0
 40 53  2  0  0  0
 40 58  1  0  0  0
 41111  1  0  0  0
 41112  1  0  0  0
 41113  1  0  0  0
 41 48  1  0  0  0
 42 43  1  0  0  0
 42 66  1  0  0  0
 42114  1  0  0  0
 42115  1  0  0  0
 43 44  1  0  0  0
 44116  1  0  0  0
 45 46  2  0  0  0
 45117  1  0  0  0
 46118  1  0  0  0
 47119  1  0  0  0
 47120  1  0  0  0
 48 56  1  0  0  0
 48 65  1  0  0  0
 48121  1  0  0  0
 49 50  1  0  0  0
 49 53  1  0  0  0
 49 64  1  0  0  0
 49122  1  0  0  0
 50 51  1  0  0  0
 50123  1  0  0  0
 50124  1  0  0  0
 51 52  1  0  0  0
 51125  1  0  0  0
 51126  1  0  0  0
 52127  1  0  0  0
 52128  1  0  0  0
 53 54  1  0  0  0
 54 55  2  0  0  0
 54129  1  0  0  0
 55 57  1  0  0  0
 55130  1  0  0  0
 56 69  2  0  0  0
 57 58  2  0  0  0
 57131  1  0  0  0
 58132  1  0  0  0
 59 60  1  0  0  0
 59 61  1  0  0  0
 59 62  1  0  0  0
 60133  1  0  0  0
 60134  1  0  0  0
 60135  1  0  0  0
 61136  1  0  0  0
 61137  1  0  0  0
 61138  1  0  0  0
 62139  1  0  0  0
 62140  1  0  0  0
 62141  1  0  0  0
 63 65  1  0  0  0
 63142  1  0  0  0
 63143  1  0  0  0
 63144  1  0  0  0
 64145  1  0  0  0
 65146  1  0  0  0
 68 83  1  0  0  0
 71 72  2  0  0  0
 71 86  1  0  0  0
 71147  1  0  0  0
 72 84  1  0  0  0
 72 87  1  0  0  0
 73 74  1  0  0  0
 73 80  1  0  0  0
 73 86  2  0  0  0
 74 81  1  0  0  0
 74 87  2  0  0  0
 75 80  1  0  0  0
 75148  1  0  0  0
 75149  1  0  0  0
 75150  1  0  0  0
 76151  1  0  0  0
 76152  1  0  0  0
 76153  1  0  0  0
 76 84  1  0  0  0
 77 84  1  0  0  0
 77154  1  0  0  0
 77155  1  0  0  0
 77156  1  0  0  0
 78157  1  0  0  0
 78158  1  0  0  0
 78159  1  0  0  0
 78 85  1  0  0  0
 79 85  1  0  0  0
 79160  1  0  0  0
 79161  1  0  0  0
 79162  1  0  0  0
 80163  1  0  0  0
 80164  1  0  0  0
 81 82  1  0  0  0
 81165  1  0  0  0
 81166  1  0  0  0
 82 85  1  0  0  0
 82167  1  0  0  0
 82168  1  0  0  0
 83 85  1  0  0  0
 83169  1  0  0  0
 83170  1  0  0  0
M  ISO  4   1 100  68 101  83 101  84 100
M  END
> <chiral flag>
0

> <version>
0

> <s_m_source_file>
/data/baiqing/PycharmProjects/Reinvent-master-3.2/result/LINK_invent/BTK/process_docking_weight1_custom_sum_contain_oxygen_bond_distance_aromatic_linkinvent_7_9_3/rearranged_h_0069.sdf

> <i_m_source_file_index>
26

> <r_mmod_Potential_Energy-OPLS-2005>
391.13720703125

> <r_mmod_Stretch_Energy-OPLS-2005>
141.451309204102

> <r_mmod_Bend_Energy-OPLS-2005>
215.96728515625

> <r_mmod_Torsional_Energy-OPLS-2005>
252.421417236328

> <r_mmod_Improper_Torsional_Energy-OPLS-2005>
4.96207904815674

> <r_mmod_Van_der_Waal_Energy-OPLS-2005>
163.294921875

> <r_mmod_Electrostatic_Energy-OPLS-2005>
-261.647308349609

> <r_mmod_Solvation_Energy-OPLS-2005>
-187.947982788086

> <b_mmod_Minimization_Converged-OPLS-2005>
0

> <r_mmod_RMS_Derivative-OPLS-2005>
9.7262716293335

$$$$
26
                    3D
 Structure written by MMmdl.
169177  0  0  1  0            999 V2000
  -30.6498  -14.5823   20.4512 C   0  0  0  0  0  0
  -30.4335  -12.3331   19.4621 C   0  0  0  0  0  0
  -29.5100  -12.4577   18.2285 C   0  0  0  0  0  0
  -28.0249  -12.3367   18.6319 C   0  0  0  0  0  0
  -27.6520  -13.2046   19.8642 C   0  0  2  0  0  0
  -28.7005  -13.0630   20.9895 C   0  0  0  0  0  0
  -25.2577  -13.8134   20.5706 C   0  0  0  0  0  0
  -24.1824  -13.0421   20.9196 C   0  0  0  0  0  0
  -24.6377  -11.6885   20.8755 C   0  0  0  0  0  0
  -23.9043  -10.4279   21.0418 C   0  0  0  0  0  0
  -24.3601   -9.4195   21.9191 C   0  0  0  0  0  0
  -23.6282   -8.2228   22.0756 C   0  0  0  0  0  0
  -22.4265   -8.0271   21.3545 C   0  0  0  0  0  0
  -21.9901   -9.0243   20.4646 C   0  0  0  0  0  0
  -22.7224  -10.2125   20.3059 C   0  0  0  0  0  0
  -21.6846   -6.0730   22.5283 C   0  0  0  0  0  0
  -21.4007   -6.5637   23.8215 C   0  0  0  0  0  0
  -21.3657   -5.6794   24.9178 C   0  0  0  0  0  0
  -21.6042   -4.3055   24.7229 C   0  0  0  0  0  0
  -21.8817   -3.8143   23.4351 C   0  0  0  0  0  0
  -21.9192   -4.6957   22.3408 C   0  0  0  0  0  0
  -22.7854  -13.5229   21.1858 C   0  0  0  0  0  0
  -22.1663   -4.2143   21.0987 F   0  0  0  0  0  0
  -21.5633   -3.4542   25.7743 F   0  0  0  0  0  0
  -30.0257  -13.3657   20.4316 N   0  0  0  0  0  0
  -26.2988  -12.9282   20.3354 N   0  0  0  0  0  0
  -25.9302  -11.6452   20.5789 N   0  0  0  0  0  0
  -22.0498  -12.8223   22.0417 N   0  0  0  0  0  0
  -25.4321  -15.1854   20.4135 N   0  0  0  0  0  0
  -31.8417  -14.6879   20.1508 O   0  0  0  0  0  0
  -21.6630   -6.8869   21.4242 O   0  0  0  0  0  0
  -22.3543  -14.5539   20.6711 O   0  0  0  0  0  0
  -24.6172  -31.8652   23.2074 C   0  0  0  0  0  0
  -25.9054  -32.4807   23.8379 C   0  0  1  0  0  0
  -27.2324  -27.4036   20.1176 C   0  0  0  0  0  0
  -25.5898  -33.8606   24.2312 N   0  0  0  0  0  0
  -23.4090  -30.4871   21.5473 C   0  0  2  0  0  0
  -24.8604  -28.9529   20.1096 C   0  0  0  0  0  0
  -22.7435  -29.4640   22.4966 C   0  0  0  0  0  0
  -18.0278  -28.1384   22.8491 C   0  0  0  0  0  0
  -24.1491  -36.7310   23.2639 C   0  0  0  0  0  0
  -25.9402  -30.8242   21.3657 C   0  0  0  0  0  0
  -26.0210  -29.4568   20.7124 C   0  0  0  0  0  0
  -27.2139  -28.6909   20.7125 C   0  0  0  0  0  0
  -26.0638  -26.9305   19.4882 C   0  0  0  0  0  0
  -24.8783  -27.6905   19.4908 C   0  0  0  0  0  0
  -23.6213  -29.8197   20.1616 C   0  0  0  0  0  0
  -25.4110  -36.3102   24.0336 C   0  0  1  0  0  0
  -20.5873  -28.3675   23.1308 C   0  0  2  0  0  0
  -20.6769  -26.9406   22.5420 C   0  0  0  0  0  0
  -19.5749  -26.6386   21.5216 C   0  0  0  0  0  0
  -18.1927  -26.7929   22.1626 C   0  0  0  0  0  0
  -19.1529  -28.8845   23.2897 C   0  0  0  0  0  0
  -18.9455  -30.1449   23.8910 C   0  0  0  0  0  0
  -17.6458  -30.6590   24.0565 C   0  0  0  0  0  0
  -25.9037  -34.9468   23.5124 C   0  0  0  0  0  0
  -16.5348  -29.9094   23.6324 C   0  0  0  0  0  0
  -16.7267  -28.6510   23.0347 C   0  0  0  0  0  0
  -26.4470  -31.6588   25.0716 C   0  0  0  0  0  0
  -25.3726  -31.3709   26.1459 C   0  0  0  0  0  0
  -27.0298  -30.3022   24.6104 C   0  0  0  0  0  0
  -27.6040  -32.4308   25.7488 C   0  0  0  0  0  0
  -27.5582  -37.1810   24.8464 C   0  0  0  0  0  0
  -21.4157  -29.3033   22.3706 N   0  0  0  0  0  0
  -26.4296  -37.3788   23.9406 N   0  0  0  0  0  0
  -24.6736  -31.0735   22.0985 N   0  0  0  0  0  0
  -23.4190  -28.8187   23.3025 O   0  0  0  0  0  0
  -28.3392  -26.5689   20.1502 O   0  0  0  0  0  0
  -26.5606  -34.8925   22.4689 O   0  0  0  0  0  0
  -23.5356  -32.1413   23.7449 O   0  0  0  0  0  0
  -30.3623  -19.3504   22.4966 C   0  0  0  0  0  0
  -29.8249  -19.4677   20.0771 C   0  0  0  0  0  0
  -29.6280  -20.6958   22.7174 C   0  0  0  0  0  0
  -29.0946  -20.8325   20.2896 C   0  0  0  0  0  0
  -29.7961  -18.5232   21.3190 C   0  0  1  0  0  0
  -29.6416  -21.6482   21.4879 C   0  0  1  0  0  0
  -29.3672  -16.2986   19.1068 C   0  0  0  0  0  0
  -29.6061  -26.3144   22.1089 C   0  0  0  0  0  0
  -27.2128  -25.5405   22.1600 C   0  0  0  0  0  0
  -30.5679  -17.1478   21.1717 C   0  0  0  0  0  0
  -28.9372  -24.2028   20.7788 C   0  0  0  0  0  0
  -29.8174  -15.9182   20.5343 C   0  0  2  0  0  0
  -28.8885  -23.0007   21.8076 C   0  0  0  0  0  0
  -28.4896  -25.6467   21.2809 C   0  0  0  0  0  0
  -29.4323  -23.4390   22.9421 F   0  0  0  0  0  0
  -27.6135  -22.6907   22.0491 F   0  0  0  0  0  0
  -31.4790  -12.4294   19.1633 H   0  0  0  0  0  0
  -30.3433  -11.3422   19.9099 H   0  0  0  0  0  0
  -29.7566  -11.6818   17.5030 H   0  0  0  0  0  0
  -29.6875  -13.4049   17.7208 H   0  0  0  0  0  0
  -27.8357  -11.2858   18.8545 H   0  0  0  0  0  0
  -27.3821  -12.5860   17.7871 H   0  0  0  0  0  0
  -27.6542  -14.2365   19.5296 H   0  0  0  0  0  0
  -28.6929  -12.0475   21.3878 H   0  0  0  0  0  0
  -28.4637  -13.7097   21.8346 H   0  0  0  0  0  0
  -25.2746   -9.5670   22.4764 H   0  0  0  0  0  0
  -23.9992   -7.4614   22.7473 H   0  0  0  0  0  0
  -21.0836   -8.8761   19.8948 H   0  0  0  0  0  0
  -22.3688  -10.9666   19.6168 H   0  0  0  0  0  0
  -21.1995   -7.6145   23.9713 H   0  0  0  0  0  0
  -21.1489   -6.0529   25.9082 H   0  0  0  0  0  0
  -22.0598   -2.7604   23.2859 H   0  0  0  0  0  0
  -22.4116  -11.9885   22.4800 H   0  0  0  0  0  0
  -21.1120  -13.1252   22.2629 H   0  0  0  0  0  0
  -24.6716  -15.8462   20.5273 H   0  0  0  0  0  0
  -26.2951  -15.6221   20.1148 H   0  0  0  0  0  0
  -26.7130  -32.5522   23.1148 H   0  0  0  0  0  0
  -25.0032  -33.9761   25.0446 H   0  0  0  0  0  0
  -22.6988  -31.3043   21.4055 H   0  0  0  0  0  0
  -23.3748  -35.9649   23.3309 H   0  0  0  0  0  0
  -24.3583  -36.8919   22.2052 H   0  0  0  0  0  0
  -23.7248  -37.6520   23.6649 H   0  0  0  0  0  0
  -26.0556  -31.5894   20.5966 H   0  0  0  0  0  0
  -26.8263  -30.8782   21.9865 H   0  0  0  0  0  0
  -28.1062  -29.0703   21.1900 H   0  0  0  0  0  0
  -26.0661  -25.9537   19.0251 H   0  0  0  0  0  0
  -23.9874  -27.2961   19.0219 H   0  0  0  0  0  0
  -23.7304  -30.5954   19.4029 H   0  0  0  0  0  0
  -22.7458  -29.2400   19.8638 H   0  0  0  0  0  0
  -25.1286  -36.1966   25.0829 H   0  0  0  0  0  0
  -20.9963  -28.3246   24.1430 H   0  0  0  0  0  0
  -20.5676  -26.2280   23.3611 H   0  0  0  0  0  0
  -21.6638  -26.7449   22.1207 H   0  0  0  0  0  0
  -19.6910  -25.6299   21.1242 H   0  0  0  0  0  0
  -19.6690  -27.3198   20.6749 H   0  0  0  0  0  0
  -17.4194  -26.6674   21.4031 H   0  0  0  0  0  0
  -18.0328  -26.0074   22.9025 H   0  0  0  0  0  0
  -19.7930  -30.7259   24.2290 H   0  0  0  0  0  0
  -17.5014  -31.6271   24.5165 H   0  0  0  0  0  0
  -15.5350  -30.3002   23.7644 H   0  0  0  0  0  0
  -15.8666  -28.0837   22.7055 H   0  0  0  0  0  0
  -24.5888  -30.7072   25.7790 H   0  0  0  0  0  0
  -24.8933  -32.2875   26.4908 H   0  0  0  0  0  0
  -25.8067  -30.8867   27.0215 H   0  0  0  0  0  0
  -26.2853  -29.6801   24.1121 H   0  0  0  0  0  0
  -27.4019  -29.7237   25.4568 H   0  0  0  0  0  0
  -27.8709  -30.4326   23.9289 H   0  0  0  0  0  0
  -27.2645  -33.3587   26.2102 H   0  0  0  0  0  0
  -28.3835  -32.6903   25.0314 H   0  0  0  0  0  0
  -28.0723  -31.8411   26.5377 H   0  0  0  0  0  0
  -28.2602  -38.0105   24.7503 H   0  0  0  0  0  0
  -28.1073  -36.2635   24.6296 H   0  0  0  0  0  0
  -27.2299  -37.1469   25.8868 H   0  0  0  0  0  0
  -20.9325  -29.8754   21.6922 H   0  0  0  0  0  0
  -26.0186  -38.2868   24.1399 H   0  0  0  0  0  0
  -30.3062  -18.7666   23.4164 H   0  0  0  0  0  0
  -31.4228  -19.5456   22.3311 H   0  0  0  0  0  0
  -30.8616  -19.6631   19.7993 H   0  0  0  0  0  0
  -29.3767  -18.9817   19.2139 H   0  0  0  0  0  0
  -30.0791  -21.1927   23.5765 H   0  0  0  0  0  0
  -28.5951  -20.4908   23.0013 H   0  0  0  0  0  0
  -28.0305  -20.6450   20.4376 H   0  0  0  0  0  0
  -29.1704  -21.4309   19.3812 H   0  0  0  0  0  0
  -28.7550  -18.2932   21.5515 H   0  0  0  0  0  0
  -30.6828  -21.8962   21.2749 H   0  0  0  0  0  0
  -28.4763  -16.9253   19.1328 H   0  0  0  0  0  0
  -29.1260  -15.4392   18.4869 H   0  0  0  0  0  0
  -30.1511  -16.8406   18.5766 H   0  0  0  0  0  0
  -29.3357  -27.3315   22.3917 H   0  0  0  0  0  0
  -30.5370  -26.3708   21.5438 H   0  0  0  0  0  0
  -29.8162  -25.7794   23.0336 H   0  0  0  0  0  0
  -26.8749  -26.5082   22.5322 H   0  0  0  0  0  0
  -27.3900  -24.9365   23.0489 H   0  0  0  0  0  0
  -26.3876  -25.0807   21.6159 H   0  0  0  0  0  0
  -30.8775  -16.8263   22.1674 H   0  0  0  0  0  0
  -31.5029  -17.3256   20.6385 H   0  0  0  0  0  0
  -28.3166  -23.9300   19.9249 H   0  0  0  0  0  0
  -29.9485  -24.2795   20.3784 H   0  0  0  0  0  0
  -28.9300  -15.7337   21.1367 H   0  0  0  0  0  0
  1 25  1  0  0  0
  1 30  2  0  0  0
  1 82  1  0  0  0
  2  3  1  0  0  0
  2 25  1  0  0  0
  2 87  1  0  0  0
  2 88  1  0  0  0
  3  4  1  0  0  0
  3 89  1  0  0  0
  3 90  1  0  0  0
  4  5  1  0  0  0
  4 91  1  0  0  0
  4 92  1  0  0  0
  5  6  1  0  0  0
  5 26  1  0  0  0
  5 93  1  0  0  0
  6 25  1  0  0  0
  6 94  1  0  0  0
  6 95  1  0  0  0
  7  8  2  0  0  0
  7 26  1  0  0  0
  7 29  1  0  0  0
  8  9  1  0  0  0
  8 22  1  0  0  0
  9 10  1  0  0  0
  9 27  2  0  0  0
 10 11  2  0  0  0
 10 15  1  0  0  0
 11 12  1  0  0  0
 11 96  1  0  0  0
 12 13  2  0  0  0
 12 97  1  0  0  0
 13 14  1  0  0  0
 13 31  1  0  0  0
 14 15  2  0  0  0
 14 98  1  0  0  0
 15 99  1  0  0  0
 16 17  2  0  0  0
 16 21  1  0  0  0
 16 31  1  0  0  0
 17 18  1  0  0  0
 17100  1  0  0  0
 18 19  2  0  0  0
 18101  1  0  0  0
 19 20  1  0  0  0
 19 24  1  0  0  0
 20 21  2  0  0  0
 20102  1  0  0  0
 21 23  1  0  0  0
 22 28  1  0  0  0
 22 32  2  0  0  0
 26 27  1  0  0  0
 28103  1  0  0  0
 28104  1  0  0  0
 29105  1  0  0  0
 29106  1  0  0  0
 33 34  1  0  0  0
 33 66  1  0  0  0
 33 70  2  0  0  0
 34 36  1  0  0  0
 34 59  1  0  0  0
 34107  1  0  0  0
 35 44  2  0  0  0
 35 45  1  0  0  0
 35 68  1  0  0  0
 36 56  1  0  0  0
 36108  1  0  0  0
 37 39  1  0  0  0
 37 47  1  0  0  0
 37 66  1  0  0  0
 37109  1  0  0  0
 38 43  2  0  0  0
 38 46  1  0  0  0
 38 47  1  0  0  0
 39 64  1  0  0  0
 39 67  2  0  0  0
 40 52  1  0  0  0
 40 53  2  0  0  0
 40 58  1  0  0  0
 41110  1  0  0  0
 41111  1  0  0  0
 41112  1  0  0  0
 41 48  1  0  0  0
 42 43  1  0  0  0
 42 66  1  0  0  0
 42113  1  0  0  0
 42114  1  0  0  0
 43 44  1  0  0  0
 44115  1  0  0  0
 45 46  2  0  0  0
 45116  1  0  0  0
 46117  1  0  0  0
 47118  1  0  0  0
 47119  1  0  0  0
 48 56  1  0  0  0
 48 65  1  0  0  0
 48120  1  0  0  0
 49 50  1  0  0  0
 49 53  1  0  0  0
 49 64  1  0  0  0
 49121  1  0  0  0
 50 51  1  0  0  0
 50122  1  0  0  0
 50123  1  0  0  0
 51 52  1  0  0  0
 51124  1  0  0  0
 51125  1  0  0  0
 52126  1  0  0  0
 52127  1  0  0  0
 53 54  1  0  0  0
 54 55  2  0  0  0
 54128  1  0  0  0
 55 57  1  0  0  0
 55129  1  0  0  0
 56 69  2  0  0  0
 57 58  2  0  0  0
 57130  1  0  0  0
 58131  1  0  0  0
 59 60  1  0  0  0
 59 61  1  0  0  0
 59 62  1  0  0  0
 60132  1  0  0  0
 60133  1  0  0  0
 60134  1  0  0  0
 61135  1  0  0  0
 61136  1  0  0  0
 61137  1  0  0  0
 62138  1  0  0  0
 62139  1  0  0  0
 62140  1  0  0  0
 63 65  1  0  0  0
 63141  1  0  0  0
 63142  1  0  0  0
 63143  1  0  0  0
 64144  1  0  0  0
 65145  1  0  0  0
 68 84  1  0  0  0
 71 73  1  0  0  0
 71 75  1  0  0  0
 71146  1  0  0  0
 71147  1  0  0  0
 72 74  1  0  0  0
 72 75  1  0  0  0
 72148  1  0  0  0
 72149  1  0  0  0
 73150  1  0  0  0
 73151  1  0  0  0
 73 76  1  0  0  0
 74 76  1  0  0  0
 74152  1  0  0  0
 74153  1  0  0  0
 75 80  1  0  0  0
 75154  1  0  0  0
 76 83  1  0  0  0
 76155  1  0  0  0
 77156  1  0  0  0
 77157  1  0  0  0
 77158  1  0  0  0
 77 82  1  0  0  0
 78159  1  0  0  0
 78160  1  0  0  0
 78161  1  0  0  0
 78 84  1  0  0  0
 79 84  1  0  0  0
 79162  1  0  0  0
 79163  1  0  0  0
 79164  1  0  0  0
 80 82  1  0  0  0
 80165  1  0  0  0
 80166  1  0  0  0
 81 83  1  0  0  0
 81 84  1  0  0  0
 81167  1  0  0  0
 81168  1  0  0  0
 82169  1  0  0  0
 83 85  1  0  0  0
 83 86  1  0  0  0
M  ISO  4   1 100  68 101  82 100  84 101
M  END
> <chiral flag>
0

> <version>
0

> <s_m_source_file>
/data/baiqing/PycharmProjects/Reinvent-master-3.2/result/LINK_invent/BTK/process_docking_weight1_custom_sum_contain_oxygen_bond_distance_aromatic_linkinvent_7_9_3/rearranged_h_0069.sdf

> <i_m_source_file_index>
27

> <r_mmod_Potential_Energy-OPLS-2005>
134.977920532227

> <r_mmod_Stretch_Energy-OPLS-2005>
62.0485076904297

> <r_mmod_Bend_Energy-OPLS-2005>
125.852981567383

> <r_mmod_Torsional_Energy-OPLS-2005>
266.414184570312

> <r_mmod_Improper_Torsional_Energy-OPLS-2005>
6.90819549560547

> <r_mmod_Van_der_Waal_Energy-OPLS-2005>
136.470306396484

> <r_mmod_Electrostatic_Energy-OPLS-2005>
-323.240386962891

> <r_mmod_Solvation_Energy-OPLS-2005>
-171.34504699707

> <b_mmod_Minimization_Converged-OPLS-2005>
0

> <r_mmod_RMS_Derivative-OPLS-2005>
0.633751928806305

$$$$
27
                    3D
 Structure written by MMmdl.
166174  0  0  1  0            999 V2000
  -30.6525  -14.6350   20.5919 C   0  0  0  0  0  0
  -30.4397  -12.4215   19.4434 C   0  0  0  0  0  0
  -29.5020  -12.5425   18.2181 C   0  0  0  0  0  0
  -28.0225  -12.3758   18.6189 C   0  0  0  0  0  0
  -27.6566  -13.2124   19.8713 C   0  0  2  0  0  0
  -28.6995  -12.9891   20.9827 C   0  0  0  0  0  0
  -25.2579  -13.8157   20.5662 C   0  0  0  0  0  0
  -24.1828  -13.0435   20.9142 C   0  0  0  0  0  0
  -24.6386  -11.6901   20.8698 C   0  0  0  0  0  0
  -23.9050  -10.4294   21.0381 C   0  0  0  0  0  0
  -24.3618   -9.4229   21.9178 C   0  0  0  0  0  0
  -23.6304   -8.2259   22.0755 C   0  0  0  0  0  0
  -22.4283   -8.0286   21.3545 C   0  0  0  0  0  0
  -21.9902   -9.0251   20.4643 C   0  0  0  0  0  0
  -22.7219  -10.2133   20.3045 C   0  0  0  0  0  0
  -21.6872   -6.0729   22.5270 C   0  0  0  0  0  0
  -21.4024   -6.5635   23.8201 C   0  0  0  0  0  0
  -21.3666   -5.6798   24.9171 C   0  0  0  0  0  0
  -21.6051   -4.3055   24.7232 C   0  0  0  0  0  0
  -21.8828   -3.8140   23.4354 C   0  0  0  0  0  0
  -21.9203   -4.6955   22.3405 C   0  0  0  0  0  0
  -22.7865  -13.5244   21.1834 C   0  0  0  0  0  0
  -22.1671   -4.2134   21.0985 F   0  0  0  0  0  0
  -21.5639   -3.4539   25.7744 F   0  0  0  0  0  0
  -30.0119  -13.4145   20.4599 N   0  0  0  0  0  0
  -26.3004  -12.9327   20.3341 N   0  0  0  0  0  0
  -25.9315  -11.6482   20.5735 N   0  0  0  0  0  0
  -22.0513  -12.8225   22.0385 N   0  0  0  0  0  0
  -25.4319  -15.1873   20.4115 N   0  0  0  0  0  0
  -31.7432  -14.8043   20.0413 O   0  0  0  0  0  0
  -21.6671   -6.8866   21.4226 O   0  0  0  0  0  0
  -22.3553  -14.5576   20.6717 O   0  0  0  0  0  0
  -24.6310  -31.8603   23.2045 C   0  0  0  0  0  0
  -25.9162  -32.4783   23.8374 C   0  0  1  0  0  0
  -27.2091  -27.2943   20.1081 C   0  0  0  0  0  0
  -25.5978  -33.8586   24.2291 N   0  0  0  0  0  0
  -23.4230  -30.4889   21.5455 C   0  0  2  0  0  0
  -24.8667  -28.9541   20.1031 C   0  0  0  0  0  0
  -22.7492  -29.4636   22.4903 C   0  0  0  0  0  0
  -18.0295  -28.1374   22.8486 C   0  0  0  0  0  0
  -24.1495  -36.7303   23.2628 C   0  0  0  0  0  0
  -25.9693  -30.7789   21.3865 C   0  0  0  0  0  0
  -26.0367  -29.4089   20.7221 C   0  0  0  0  0  0
  -27.2080  -28.5886   20.7236 C   0  0  0  0  0  0
  -26.0269  -26.9360   19.4202 C   0  0  0  0  0  0
  -24.8652  -27.7207   19.4434 C   0  0  0  0  0  0
  -23.6390  -29.8370   20.1560 C   0  0  0  0  0  0
  -25.4117  -36.3081   24.0315 C   0  0  1  0  0  0
  -20.5900  -28.3696   23.1258 C   0  0  2  0  0  0
  -20.6792  -26.9417   22.5388 C   0  0  0  0  0  0
  -19.5763  -26.6369   21.5203 C   0  0  0  0  0  0
  -18.1943  -26.7917   22.1613 C   0  0  0  0  0  0
  -19.1551  -28.8849   23.2874 C   0  0  0  0  0  0
  -18.9466  -30.1446   23.8902 C   0  0  0  0  0  0
  -17.6466  -30.6580   24.0559 C   0  0  0  0  0  0
  -25.9061  -34.9453   23.5087 C   0  0  0  0  0  0
  -16.5357  -29.9076   23.6326 C   0  0  0  0  0  0
  -16.7280  -28.6482   23.0369 C   0  0  0  0  0  0
  -26.4528  -31.6615   25.0776 C   0  0  0  0  0  0
  -25.3739  -31.3743   26.1476 C   0  0  0  0  0  0
  -27.0366  -30.3028   24.6274 C   0  0  0  0  0  0
  -27.6093  -32.4340   25.7544 C   0  0  0  0  0  0
  -27.5582  -37.1793   24.8444 C   0  0  0  0  0  0
  -21.4202  -29.3061   22.3663 N   0  0  0  0  0  0
  -26.4279  -37.3784   23.9415 N   0  0  0  0  0  0
  -24.6925  -31.0602   22.1010 N   0  0  0  0  0  0
  -23.4214  -28.8162   23.2977 O   0  0  0  0  0  0
  -28.3064  -26.4077   20.2061 O   0  0  0  0  0  0
  -26.5616  -34.8913   22.4643 O   0  0  0  0  0  0
  -23.5471  -32.1423   23.7352 O   0  0  0  0  0  0
  -28.9233  -21.5964   21.4144 C   0  0  0  0  0  0
  -30.7651  -20.7271   19.6656 C   0  0  0  0  0  0
  -29.5407  -22.5348   20.5357 C   0  0  0  0  0  0
  -30.1997  -19.7923   20.5910 C   0  0  0  0  0  0
  -31.2874  -18.2907   22.3044 C   0  0  0  0  0  0
  -32.0315  -18.0963   19.9750 C   0  0  0  0  0  0
  -26.9267  -24.3485   20.7742 C   0  0  0  0  0  0
  -28.1988  -24.5907   18.5293 C   0  0  0  0  0  0
  -29.3912  -15.6117   22.4878 C   0  0  0  0  0  0
  -29.3927  -24.1044   20.6935 C   0  0  0  0  0  0
  -29.7722  -17.1055   20.5494 C   0  0  0  0  0  0
  -30.7768  -18.3239   20.8462 C   0  0  0  0  0  0
  -28.1796  -24.9139   20.0420 C   0  0  0  0  0  0
  -30.4429  -22.0602   19.6306 N   0  0  0  0  0  0
  -29.2297  -20.2583   21.4328 N   0  0  0  0  0  0
  -29.9704  -15.7119   21.1413 N   0  0  0  0  0  0
  -31.4756  -12.5643   19.1320 H   0  0  0  0  0  0
  -30.4030  -11.4118   19.8554 H   0  0  0  0  0  0
  -29.7668  -11.8015   17.4626 H   0  0  0  0  0  0
  -29.6424  -13.5175   17.7484 H   0  0  0  0  0  0
  -27.8446  -11.3169   18.8127 H   0  0  0  0  0  0
  -27.3722  -12.6420   17.7844 H   0  0  0  0  0  0
  -27.6966  -14.2620   19.5818 H   0  0  0  0  0  0
  -28.7335  -11.9303   21.2430 H   0  0  0  0  0  0
  -28.3893  -13.4594   21.9059 H   0  0  0  0  0  0
  -25.2751   -9.5747   22.4757 H   0  0  0  0  0  0
  -24.0023   -7.4666   22.7487 H   0  0  0  0  0  0
  -21.0831   -8.8767   19.8953 H   0  0  0  0  0  0
  -22.3661  -10.9680   19.6172 H   0  0  0  0  0  0
  -21.2011   -7.6141   23.9697 H   0  0  0  0  0  0
  -21.1484   -6.0530   25.9071 H   0  0  0  0  0  0
  -22.0599   -2.7595   23.2871 H   0  0  0  0  0  0
  -22.4150  -11.9872   22.4727 H   0  0  0  0  0  0
  -21.1150  -13.1260   22.2639 H   0  0  0  0  0  0
  -24.6647  -15.8437   20.5074 H   0  0  0  0  0  0
  -26.3051  -15.6277   20.1500 H   0  0  0  0  0  0
  -26.7244  -32.5423   23.1126 H   0  0  0  0  0  0
  -25.0195  -33.9737   25.0484 H   0  0  0  0  0  0
  -22.7176  -31.3108   21.4054 H   0  0  0  0  0  0
  -23.3752  -35.9643   23.3270 H   0  0  0  0  0  0
  -24.3597  -36.8951   22.2048 H   0  0  0  0  0  0
  -23.7246  -37.6491   23.6680 H   0  0  0  0  0  0
  -26.1175  -31.5429   20.6225 H   0  0  0  0  0  0
  -26.8455  -30.8147   22.0223 H   0  0  0  0  0  0
  -28.0965  -28.9255   21.2393 H   0  0  0  0  0  0
  -25.9400  -26.0212   18.8633 H   0  0  0  0  0  0
  -23.9772  -27.3726   18.9330 H   0  0  0  0  0  0
  -23.7685  -30.6214   19.4089 H   0  0  0  0  0  0
  -22.7574  -29.2752   19.8424 H   0  0  0  0  0  0
  -25.1293  -36.1917   25.0805 H   0  0  0  0  0  0
  -21.0012  -28.3268   24.1371 H   0  0  0  0  0  0
  -20.5694  -26.2309   23.3591 H   0  0  0  0  0  0
  -21.6656  -26.7436   22.1176 H   0  0  0  0  0  0
  -19.6927  -25.6274   21.1248 H   0  0  0  0  0  0
  -19.6703  -27.3170   20.6727 H   0  0  0  0  0  0
  -17.4214  -26.6684   21.4014 H   0  0  0  0  0  0
  -18.0340  -26.0046   22.8994 H   0  0  0  0  0  0
  -19.7940  -30.7260   24.2289 H   0  0  0  0  0  0
  -17.5013  -31.6263   24.5154 H   0  0  0  0  0  0
  -15.5362  -30.2983   23.7627 H   0  0  0  0  0  0
  -15.8679  -28.0782   22.7118 H   0  0  0  0  0  0
  -24.5954  -30.7055   25.7783 H   0  0  0  0  0  0
  -24.8879  -32.2888   26.4888 H   0  0  0  0  0  0
  -25.8045  -30.8928   27.0266 H   0  0  0  0  0  0
  -26.2931  -29.6770   24.1324 H   0  0  0  0  0  0
  -27.4048  -29.7325   25.4816 H   0  0  0  0  0  0
  -27.8828  -30.4288   23.9518 H   0  0  0  0  0  0
  -27.2751  -33.3667   26.2101 H   0  0  0  0  0  0
  -28.3933  -32.6855   25.0391 H   0  0  0  0  0  0
  -28.0751  -31.8465   26.5470 H   0  0  0  0  0  0
  -28.2544  -38.0147   24.7572 H   0  0  0  0  0  0
  -28.1133  -36.2677   24.6160 H   0  0  0  0  0  0
  -27.2308  -37.1308   25.8845 H   0  0  0  0  0  0
  -20.9384  -29.8831   21.6913 H   0  0  0  0  0  0
  -26.0147  -38.2844   24.1459 H   0  0  0  0  0  0
  -28.2209  -21.9309   22.1638 H   0  0  0  0  0  0
  -31.5525  -20.4410   18.9855 H   0  0  0  0  0  0
  -32.0290  -19.0697   22.4801 H   0  0  0  0  0  0
  -31.7573  -17.3391   22.5544 H   0  0  0  0  0  0
  -30.4839  -18.4684   23.0186 H   0  0  0  0  0  0
  -32.7894  -18.8615   20.1478 H   0  0  0  0  0  0
  -31.7903  -18.0970   18.9117 H   0  0  0  0  0  0
  -32.5115  -17.1470   20.1981 H   0  0  0  0  0  0
  -25.9599  -24.6410   20.3826 H   0  0  0  0  0  0
  -26.9400  -24.6235   21.8297 H   0  0  0  0  0  0
  -26.8953  -23.2619   20.7250 H   0  0  0  0  0  0
  -27.9210  -23.5547   18.3365 H   0  0  0  0  0  0
  -29.2014  -24.7327   18.1255 H   0  0  0  0  0  0
  -27.5501  -25.2144   17.9223 H   0  0  0  0  0  0
  -29.5907  -16.4834   23.1021 H   0  0  0  0  0  0
  -29.7834  -14.7584   23.0454 H   0  0  0  0  0  0
  -28.3047  -15.5316   22.4255 H   0  0  0  0  0  0
  -30.3214  -24.5451   20.3297 H   0  0  0  0  0  0
  -29.4015  -24.3057   21.7651 H   0  0  0  0  0  0
  -29.6607  -16.9964   19.4701 H   0  0  0  0  0  0
  -28.7829  -17.4318   20.8732 H   0  0  0  0  0  0
  1 25  1  0  0  0
  1 30  2  0  0  0
  1 86  1  0  0  0
  2  3  1  0  0  0
  2 25  1  0  0  0
  2 87  1  0  0  0
  2 88  1  0  0  0
  3  4  1  0  0  0
  3 89  1  0  0  0
  3 90  1  0  0  0
  4  5  1  0  0  0
  4 91  1  0  0  0
  4 92  1  0  0  0
  5  6  1  0  0  0
  5 26  1  0  0  0
  5 93  1  0  0  0
  6 25  1  0  0  0
  6 94  1  0  0  0
  6 95  1  0  0  0
  7  8  2  0  0  0
  7 26  1  0  0  0
  7 29  1  0  0  0
  8  9  1  0  0  0
  8 22  1  0  0  0
  9 10  1  0  0  0
  9 27  2  0  0  0
 10 11  2  0  0  0
 10 15  1  0  0  0
 11 12  1  0  0  0
 11 96  1  0  0  0
 12 13  2  0  0  0
 12 97  1  0  0  0
 13 14  1  0  0  0
 13 31  1  0  0  0
 14 15  2  0  0  0
 14 98  1  0  0  0
 15 99  1  0  0  0
 16 17  2  0  0  0
 16 21  1  0  0  0
 16 31  1  0  0  0
 17 18  1  0  0  0
 17100  1  0  0  0
 18 19  2  0  0  0
 18101  1  0  0  0
 19 20  1  0  0  0
 19 24  1  0  0  0
 20 21  2  0  0  0
 20102  1  0  0  0
 21 23  1  0  0  0
 22 28  1  0  0  0
 22 32  2  0  0  0
 26 27  1  0  0  0
 28103  1  0  0  0
 28104  1  0  0  0
 29105  1  0  0  0
 29106  1  0  0  0
 33 34  1  0  0  0
 33 66  1  0  0  0
 33 70  2  0  0  0
 34 36  1  0  0  0
 34 59  1  0  0  0
 34107  1  0  0  0
 35 44  2  0  0  0
 35 45  1  0  0  0
 35 68  1  0  0  0
 36 56  1  0  0  0
 36108  1  0  0  0
 37 39  1  0  0  0
 37 47  1  0  0  0
 37 66  1  0  0  0
 37109  1  0  0  0
 38 43  2  0  0  0
 38 46  1  0  0  0
 38 47  1  0  0  0
 39 64  1  0  0  0
 39 67  2  0  0  0
 40 52  1  0  0  0
 40 53  2  0  0  0
 40 58  1  0  0  0
 41110  1  0  0  0
 41111  1  0  0  0
 41112  1  0  0  0
 41 48  1  0  0  0
 42 43  1  0  0  0
 42 66  1  0  0  0
 42113  1  0  0  0
 42114  1  0  0  0
 43 44  1  0  0  0
 44115  1  0  0  0
 45 46  2  0  0  0
 45116  1  0  0  0
 46117  1  0  0  0
 47118  1  0  0  0
 47119  1  0  0  0
 48 56  1  0  0  0
 48 65  1  0  0  0
 48120  1  0  0  0
 49 50  1  0  0  0
 49 53  1  0  0  0
 49 64  1  0  0  0
 49121  1  0  0  0
 50 51  1  0  0  0
 50122  1  0  0  0
 50123  1  0  0  0
 51 52  1  0  0  0
 51124  1  0  0  0
 51125  1  0  0  0
 52126  1  0  0  0
 52127  1  0  0  0
 53 54  1  0  0  0
 54 55  2  0  0  0
 54128  1  0  0  0
 55 57  1  0  0  0
 55129  1  0  0  0
 56 69  2  0  0  0
 57 58  2  0  0  0
 57130  1  0  0  0
 58131  1  0  0  0
 59 60  1  0  0  0
 59 61  1  0  0  0
 59 62  1  0  0  0
 60132  1  0  0  0
 60133  1  0  0  0
 60134  1  0  0  0
 61135  1  0  0  0
 61136  1  0  0  0
 61137  1  0  0  0
 62138  1  0  0  0
 62139  1  0  0  0
 62140  1  0  0  0
 63 65  1  0  0  0
 63141  1  0  0  0
 63142  1  0  0  0
 63143  1  0  0  0
 64144  1  0  0  0
 65145  1  0  0  0
 68 83  1  0  0  0
 71 73  2  0  0  0
 71 85  1  0  0  0
 71146  1  0  0  0
 72 74  1  0  0  0
 72 84  2  0  0  0
 72147  1  0  0  0
 73 80  1  0  0  0
 73 84  1  0  0  0
 74 82  1  0  0  0
 74 85  2  0  0  0
 75148  1  0  0  0
 75149  1  0  0  0
 75150  1  0  0  0
 75 82  1  0  0  0
 76 82  1  0  0  0
 76151  1  0  0  0
 76152  1  0  0  0
 76153  1  0  0  0
 77154  1  0  0  0
 77155  1  0  0  0
 77156  1  0  0  0
 77 83  1  0  0  0
 78 83  1  0  0  0
 78157  1  0  0  0
 78158  1  0  0  0
 78159  1  0  0  0
 79 86  1  0  0  0
 79160  1  0  0  0
 79161  1  0  0  0
 79162  1  0  0  0
 80 83  1  0  0  0
 80163  1  0  0  0
 80164  1  0  0  0
 81 82  1  0  0  0
 81 86  1  0  0  0
 81165  1  0  0  0
 81166  1  0  0  0
M  ISO  4   1 100  68 101  83 101  86 100
M  END
> <chiral flag>
0

> <version>
0

> <s_m_source_file>
/data/baiqing/PycharmProjects/Reinvent-master-3.2/result/LINK_invent/BTK/process_docking_weight1_custom_sum_contain_oxygen_bond_distance_aromatic_linkinvent_7_9_3/rearranged_h_0069.sdf

> <i_m_source_file_index>
28

> <r_mmod_Potential_Energy-OPLS-2005>
351.098571777344

> <r_mmod_Stretch_Energy-OPLS-2005>
113.299896240234

> <r_mmod_Bend_Energy-OPLS-2005>
180.981201171875

> <r_mmod_Torsional_Energy-OPLS-2005>
273.213775634766

> <r_mmod_Improper_Torsional_Energy-OPLS-2005>
6.584059715271

> <r_mmod_Van_der_Waal_Energy-OPLS-2005>
174.464324951172

> <r_mmod_Electrostatic_Energy-OPLS-2005>
-258.744079589844

> <r_mmod_Solvation_Energy-OPLS-2005>
-192.812866210938

> <b_mmod_Minimization_Converged-OPLS-2005>
0

> <r_mmod_RMS_Derivative-OPLS-2005>
1.96475231647491

$$$$
28
                    3D
 Structure written by MMmdl.
159167  0  0  1  0            999 V2000
  -30.5733  -14.9339   20.4088 C   0  0  0  0  0  0
  -30.4239  -12.5678   19.5121 C   0  0  0  0  0  0
  -29.5221  -12.5328   18.2572 C   0  0  0  0  0  0
  -28.0483  -12.3397   18.6589 C   0  0  0  0  0  0
  -27.6262  -13.2621   19.8337 C   0  0  2  0  0  0
  -28.6636  -13.2968   20.9715 C   0  0  0  0  0  0
  -25.2472  -13.8248   20.5747 C   0  0  0  0  0  0
  -24.1780  -13.0456   20.9189 C   0  0  0  0  0  0
  -24.6409  -11.6949   20.8707 C   0  0  0  0  0  0
  -23.9091  -10.4312   21.0361 C   0  0  0  0  0  0
  -24.3632   -9.4231   21.9143 C   0  0  0  0  0  0
  -23.6312   -8.2268   22.0729 C   0  0  0  0  0  0
  -22.4304   -8.0274   21.3522 C   0  0  0  0  0  0
  -21.9930   -9.0249   20.4629 C   0  0  0  0  0  0
  -22.7247  -10.2135   20.3025 C   0  0  0  0  0  0
  -21.6873   -6.0737   22.5276 C   0  0  0  0  0  0
  -21.4020   -6.5636   23.8207 C   0  0  0  0  0  0
  -21.3660   -5.6790   24.9177 C   0  0  0  0  0  0
  -21.6054   -4.3056   24.7218 C   0  0  0  0  0  0
  -21.8818   -3.8139   23.4340 C   0  0  0  0  0  0
  -21.9202   -4.6962   22.3404 C   0  0  0  0  0  0
  -22.7802  -13.5214   21.1867 C   0  0  0  0  0  0
  -22.1664   -4.2143   21.0980 F   0  0  0  0  0  0
  -21.5640   -3.4531   25.7728 F   0  0  0  0  0  0
  -29.9472  -13.6847   20.3840 N   0  0  0  0  0  0
  -26.2889  -12.9511   20.3249 N   0  0  0  0  0  0
  -25.9352  -11.6613   20.5694 N   0  0  0  0  0  0
  -22.0486  -12.8198   22.0447 N   0  0  0  0  0  0
  -25.4177  -15.1981   20.4300 N   0  0  0  0  0  0
  -31.7784  -14.9252   20.1353 O   0  0  0  0  0  0
  -21.6665   -6.8864   21.4230 O   0  0  0  0  0  0
  -22.3446  -14.5491   20.6694 O   0  0  0  0  0  0
  -24.6428  -31.8432   23.1875 C   0  0  0  0  0  0
  -25.9212  -32.4675   23.8273 C   0  0  1  0  0  0
  -27.2033  -27.1122   20.1660 C   0  0  0  0  0  0
  -25.5955  -33.8487   24.2189 N   0  0  0  0  0  0
  -23.4465  -30.4636   21.5317 C   0  0  2  0  0  0
  -24.8964  -28.8881   20.1041 C   0  0  0  0  0  0
  -22.7557  -29.4556   22.4834 C   0  0  0  0  0  0
  -18.0298  -28.1378   22.8462 C   0  0  0  0  0  0
  -24.1491  -36.7249   23.2646 C   0  0  0  0  0  0
  -26.0036  -30.7087   21.3927 C   0  0  0  0  0  0
  -26.0718  -29.3199   20.7306 C   0  0  0  0  0  0
  -27.2249  -28.4463   20.7467 C   0  0  0  0  0  0
  -26.0088  -26.7925   19.4835 C   0  0  0  0  0  0
  -24.8792  -27.6391   19.4633 C   0  0  0  0  0  0
  -23.6730  -29.7910   20.1501 C   0  0  0  0  0  0
  -25.4124  -36.3027   24.0316 C   0  0  1  0  0  0
  -20.5909  -28.3715   23.1206 C   0  0  2  0  0  0
  -20.6769  -26.9411   22.5389 C   0  0  0  0  0  0
  -19.5754  -26.6356   21.5187 C   0  0  0  0  0  0
  -18.1944  -26.7916   22.1605 C   0  0  0  0  0  0
  -19.1559  -28.8863   23.2828 C   0  0  0  0  0  0
  -18.9482  -30.1457   23.8851 C   0  0  0  0  0  0
  -17.6483  -30.6579   24.0543 C   0  0  0  0  0  0
  -25.9074  -34.9400   23.5065 C   0  0  0  0  0  0
  -16.5369  -29.9064   23.6335 C   0  0  0  0  0  0
  -16.7285  -28.6478   23.0360 C   0  0  0  0  0  0
  -26.4521  -31.6558   25.0733 C   0  0  0  0  0  0
  -25.3693  -31.3782   26.1420 C   0  0  0  0  0  0
  -27.0390  -30.2939   24.6368 C   0  0  0  0  0  0
  -27.6057  -32.4324   25.7510 C   0  0  0  0  0  0
  -27.5585  -37.1782   24.8461 C   0  0  0  0  0  0
  -21.4246  -29.3049   22.3576 N   0  0  0  0  0  0
  -26.4290  -37.3741   23.9406 N   0  0  0  0  0  0
  -24.7175  -31.0269   22.0922 N   0  0  0  0  0  0
  -23.4202  -28.8111   23.2995 O   0  0  0  0  0  0
  -28.2377  -26.1072   20.2741 O   0  0  0  0  0  0
  -26.5659  -34.8903   22.4646 O   0  0  0  0  0  0
  -23.5547  -32.1335   23.7079 O   0  0  0  0  0  0
  -30.4332  -17.6890   20.3925 C   0  0  0  0  0  0
  -29.8594  -16.4045   20.5508 C   0  0  0  0  0  0
  -30.9348  -21.8559   22.6286 C   0  0  0  0  0  0
  -28.9711  -20.4556   23.3790 C   0  0  0  0  0  0
  -31.1645  -19.4117   22.8771 C   0  0  0  0  0  0
  -28.8752  -23.2644   20.6510 C   0  0  0  0  0  0
  -28.6575  -21.5824   20.4078 C   0  0  0  0  0  0
  -27.9809  -24.5758   20.0524 C   0  0  0  0  0  0
  -29.6980  -20.3248   20.9157 C   0  0  1  0  0  0
  -30.1768  -20.5185   22.4178 C   0  0  0  0  0  0
  -28.5248  -16.7552   20.8570 N   0  0  0  0  0  0
  -28.3349  -18.0775   20.9286 N   0  0  0  0  0  0
  -29.4921  -18.7566   20.6489 N   0  0  0  0  0  0
  -31.4661  -12.6835   19.2147 H   0  0  0  0  0  0
  -30.3739  -11.6148   20.0425 H   0  0  0  0  0  0
  -29.8403  -11.7352   17.5834 H   0  0  0  0  0  0
  -29.6330  -13.4666   17.7049 H   0  0  0  0  0  0
  -27.9184  -11.2949   18.9399 H   0  0  0  0  0  0
  -27.3977  -12.5039   17.7987 H   0  0  0  0  0  0
  -27.5863  -14.2683   19.4144 H   0  0  0  0  0  0
  -28.7370  -12.3300   21.4708 H   0  0  0  0  0  0
  -28.3709  -14.0157   21.7365 H   0  0  0  0  0  0
  -25.2779   -9.5727   22.4710 H   0  0  0  0  0  0
  -24.0036   -7.4663   22.7450 H   0  0  0  0  0  0
  -21.0844   -8.8768   19.8964 H   0  0  0  0  0  0
  -22.3666  -10.9670   19.6144 H   0  0  0  0  0  0
  -21.2012   -7.6144   23.9701 H   0  0  0  0  0  0
  -21.1485   -6.0529   25.9078 H   0  0  0  0  0  0
  -22.0593   -2.7599   23.2851 H   0  0  0  0  0  0
  -22.4152  -11.9879   22.4847 H   0  0  0  0  0  0
  -21.1077  -13.1165   22.2638 H   0  0  0  0  0  0
  -24.6683  -15.8613   20.5909 H   0  0  0  0  0  0
  -26.3139  -15.6439   20.2609 H   0  0  0  0  0  0
  -26.7275  -32.5263   23.1000 H   0  0  0  0  0  0
  -25.0062  -33.9590   25.0307 H   0  0  0  0  0  0
  -22.7502  -31.2901   21.3756 H   0  0  0  0  0  0
  -23.3761  -35.9571   23.3281 H   0  0  0  0  0  0
  -24.3583  -36.8909   22.2068 H   0  0  0  0  0  0
  -23.7230  -37.6432   23.6696 H   0  0  0  0  0  0
  -26.1651  -31.4679   20.6261 H   0  0  0  0  0  0
  -26.8696  -30.7533   22.0406 H   0  0  0  0  0  0
  -28.1122  -28.7656   21.2749 H   0  0  0  0  0  0
  -25.9153  -25.8425   18.9788 H   0  0  0  0  0  0
  -23.9843  -27.3079   18.9541 H   0  0  0  0  0  0
  -23.8001  -30.5630   19.3901 H   0  0  0  0  0  0
  -22.7871  -29.2296   19.8466 H   0  0  0  0  0  0
  -25.1310  -36.1860   25.0806 H   0  0  0  0  0  0
  -21.0006  -28.3307   24.1323 H   0  0  0  0  0  0
  -20.5606  -26.2346   23.3625 H   0  0  0  0  0  0
  -21.6649  -26.7373   22.1232 H   0  0  0  0  0  0
  -19.6921  -25.6251   21.1252 H   0  0  0  0  0  0
  -19.6694  -27.3125   20.6684 H   0  0  0  0  0  0
  -17.4211  -26.6634   21.4021 H   0  0  0  0  0  0
  -18.0361  -26.0064   22.9004 H   0  0  0  0  0  0
  -19.7970  -30.7272   24.2212 H   0  0  0  0  0  0
  -17.5043  -31.6259   24.5144 H   0  0  0  0  0  0
  -15.5370  -30.2958   23.7679 H   0  0  0  0  0  0
  -15.8678  -28.0776   22.7104 H   0  0  0  0  0  0
  -24.5824  -30.7192   25.7732 H   0  0  0  0  0  0
  -24.8930  -32.2979   26.4829 H   0  0  0  0  0  0
  -25.7935  -30.8936   27.0223 H   0  0  0  0  0  0
  -26.3032  -29.6648   24.1342 H   0  0  0  0  0  0
  -27.3926  -29.7257   25.4987 H   0  0  0  0  0  0
  -27.8971  -30.4140   23.9751 H   0  0  0  0  0  0
  -27.2659  -33.3634   26.2062 H   0  0  0  0  0  0
  -28.3881  -32.6878   25.0351 H   0  0  0  0  0  0
  -28.0722  -31.8475   26.5450 H   0  0  0  0  0  0
  -28.2584  -38.0098   24.7511 H   0  0  0  0  0  0
  -28.1096  -36.2624   24.6266 H   0  0  0  0  0  0
  -27.2303  -37.1402   25.8864 H   0  0  0  0  0  0
  -20.9453  -29.8790   21.6772 H   0  0  0  0  0  0
  -26.0159  -38.2808   24.1397 H   0  0  0  0  0  0
  -31.4699  -17.9204   20.1847 H   0  0  0  0  0  0
  -31.7186  -21.7754   23.3830 H   0  0  0  0  0  0
  -30.2889  -22.6492   22.9965 H   0  0  0  0  0  0
  -31.4239  -22.2045   21.7182 H   0  0  0  0  0  0
  -29.2858  -20.5806   24.4156 H   0  0  0  0  0  0
  -28.4571  -19.4958   23.3193 H   0  0  0  0  0  0
  -28.2365  -21.2328   23.1681 H   0  0  0  0  0  0
  -31.5556  -19.6054   23.8774 H   0  0  0  0  0  0
  -32.0228  -19.3371   22.2085 H   0  0  0  0  0  0
  -30.6972  -18.4289   22.9423 H   0  0  0  0  0  0
  -29.9141  -23.4724   20.4022 H   0  0  0  0  0  0
  -28.8016  -23.4054   21.7266 H   0  0  0  0  0  0
  -28.5418  -21.4457   19.3321 H   0  0  0  0  0  0
  -27.6708  -21.3434   20.8047 H   0  0  0  0  0  0
  -26.9551  -24.3871   20.3708 H   0  0  0  0  0  0
  -27.9663  -24.4560   18.9683 H   0  0  0  0  0  0
  -30.5898  -20.5329   20.3246 H   0  0  0  0  0  0
  1 25  1  0  0  0
  1 30  2  0  0  0
  1 72  1  0  0  0
  2  3  1  0  0  0
  2 25  1  0  0  0
  2 84  1  0  0  0
  2 85  1  0  0  0
  3  4  1  0  0  0
  3 86  1  0  0  0
  3 87  1  0  0  0
  4  5  1  0  0  0
  4 88  1  0  0  0
  4 89  1  0  0  0
  5  6  1  0  0  0
  5 26  1  0  0  0
  5 90  1  0  0  0
  6 25  1  0  0  0
  6 91  1  0  0  0
  6 92  1  0  0  0
  7  8  2  0  0  0
  7 26  1  0  0  0
  7 29  1  0  0  0
  8  9  1  0  0  0
  8 22  1  0  0  0
  9 10  1  0  0  0
  9 27  2  0  0  0
 10 11  2  0  0  0
 10 15  1  0  0  0
 11 12  1  0  0  0
 11 93  1  0  0  0
 12 13  2  0  0  0
 12 94  1  0  0  0
 13 14  1  0  0  0
 13 31  1  0  0  0
 14 15  2  0  0  0
 14 95  1  0  0  0
 15 96  1  0  0  0
 16 17  2  0  0  0
 16 21  1  0  0  0
 16 31  1  0  0  0
 17 18  1  0  0  0
 17 97  1  0  0  0
 18 19  2  0  0  0
 18 98  1  0  0  0
 19 20  1  0  0  0
 19 24  1  0  0  0
 20 21  2  0  0  0
 20 99  1  0  0  0
 21 23  1  0  0  0
 22 28  1  0  0  0
 22 32  2  0  0  0
 26 27  1  0  0  0
 28100  1  0  0  0
 28101  1  0  0  0
 29102  1  0  0  0
 29103  1  0  0  0
 33 34  1  0  0  0
 33 66  1  0  0  0
 33 70  2  0  0  0
 34 36  1  0  0  0
 34 59  1  0  0  0
 34104  1  0  0  0
 35 44  2  0  0  0
 35 45  1  0  0  0
 35 68  1  0  0  0
 36 56  1  0  0  0
 36105  1  0  0  0
 37 39  1  0  0  0
 37 47  1  0  0  0
 37 66  1  0  0  0
 37106  1  0  0  0
 38 43  2  0  0  0
 38 46  1  0  0  0
 38 47  1  0  0  0
 39 64  1  0  0  0
 39 67  2  0  0  0
 40 52  1  0  0  0
 40 53  2  0  0  0
 40 58  1  0  0  0
 41107  1  0  0  0
 41108  1  0  0  0
 41109  1  0  0  0
 41 48  1  0  0  0
 42 43  1  0  0  0
 42 66  1  0  0  0
 42110  1  0  0  0
 42111  1  0  0  0
 43 44  1  0  0  0
 44112  1  0  0  0
 45 46  2  0  0  0
 45113  1  0  0  0
 46114  1  0  0  0
 47115  1  0  0  0
 47116  1  0  0  0
 48 56  1  0  0  0
 48 65  1  0  0  0
 48117  1  0  0  0
 49 50  1  0  0  0
 49 53  1  0  0  0
 49 64  1  0  0  0
 49118  1  0  0  0
 50 51  1  0  0  0
 50119  1  0  0  0
 50120  1  0  0  0
 51 52  1  0  0  0
 51121  1  0  0  0
 51122  1  0  0  0
 52123  1  0  0  0
 52124  1  0  0  0
 53 54  1  0  0  0
 54 55  2  0  0  0
 54125  1  0  0  0
 55 57  1  0  0  0
 55126  1  0  0  0
 56 69  2  0  0  0
 57 58  2  0  0  0
 57127  1  0  0  0
 58128  1  0  0  0
 59 60  1  0  0  0
 59 61  1  0  0  0
 59 62  1  0  0  0
 60129  1  0  0  0
 60130  1  0  0  0
 60131  1  0  0  0
 61132  1  0  0  0
 61133  1  0  0  0
 61134  1  0  0  0
 62135  1  0  0  0
 62136  1  0  0  0
 62137  1  0  0  0
 63 65  1  0  0  0
 63138  1  0  0  0
 63139  1  0  0  0
 63140  1  0  0  0
 64141  1  0  0  0
 65142  1  0  0  0
 68 78  1  0  0  0
 71 72  2  0  0  0
 71 83  1  0  0  0
 71143  1  0  0  0
 72 81  1  0  0  0
 73144  1  0  0  0
 73145  1  0  0  0
 73146  1  0  0  0
 73 80  1  0  0  0
 74 80  1  0  0  0
 74147  1  0  0  0
 74148  1  0  0  0
 74149  1  0  0  0
 75 80  1  0  0  0
 75150  1  0  0  0
 75151  1  0  0  0
 75152  1  0  0  0
 76 77  1  0  0  0
 76 78  1  0  0  0
 76153  1  0  0  0
 76154  1  0  0  0
 77155  1  0  0  0
 77156  1  0  0  0
 77 79  1  0  0  0
 78157  1  0  0  0
 78158  1  0  0  0
 79 80  1  0  0  0
 79 83  1  0  0  0
 79159  1  0  0  0
 81 82  2  0  0  0
 82 83  1  0  0  0
M  ISO  4   1 100  68 101  72 100  78 101
M  END
> <chiral flag>
0

> <version>
0

> <s_m_source_file>
/data/baiqing/PycharmProjects/Reinvent-master-3.2/result/LINK_invent/BTK/process_docking_weight1_custom_sum_contain_oxygen_bond_distance_aromatic_linkinvent_7_9_3/rearranged_h_0069.sdf

> <i_m_source_file_index>
29

> <r_mmod_Potential_Energy-OPLS-2005>
694.83544921875

> <r_mmod_Stretch_Energy-OPLS-2005>
296.6005859375

> <r_mmod_Bend_Energy-OPLS-2005>
288.887756347656

> <r_mmod_Torsional_Energy-OPLS-2005>
234.576171875

> <r_mmod_Improper_Torsional_Energy-OPLS-2005>
5.50727128982544

> <r_mmod_Van_der_Waal_Energy-OPLS-2005>
118.208908081055

> <r_mmod_Electrostatic_Energy-OPLS-2005>
-264.559448242188

> <r_mmod_Solvation_Energy-OPLS-2005>
-182.349639892578

> <b_mmod_Minimization_Converged-OPLS-2005>
0

> <r_mmod_RMS_Derivative-OPLS-2005>
2.58798670768738

$$$$
29
                    3D
 Structure written by MMmdl.
164172  0  0  1  0            999 V2000
  -30.6582  -14.6188   20.4745 C   0  0  0  0  0  0
  -30.4211  -12.3768   19.4524 C   0  0  0  0  0  0
  -29.5035  -12.4926   18.2191 C   0  0  0  0  0  0
  -28.0273  -12.3424   18.6310 C   0  0  0  0  0  0
  -27.6474  -13.2253   19.8514 C   0  0  2  0  0  0
  -28.6908  -13.1204   20.9831 C   0  0  0  0  0  0
  -25.2594  -13.8191   20.5681 C   0  0  0  0  0  0
  -24.1858  -13.0448   20.9173 C   0  0  0  0  0  0
  -24.6421  -11.6923   20.8695 C   0  0  0  0  0  0
  -23.9111  -10.4300   21.0390 C   0  0  0  0  0  0
  -24.3649   -9.4228   21.9182 C   0  0  0  0  0  0
  -23.6314   -8.2272   22.0760 C   0  0  0  0  0  0
  -22.4305   -8.0294   21.3540 C   0  0  0  0  0  0
  -21.9961   -9.0267   20.4632 C   0  0  0  0  0  0
  -22.7285  -10.2136   20.3025 C   0  0  0  0  0  0
  -21.6859   -6.0762   22.5276 C   0  0  0  0  0  0
  -21.3994   -6.5651   23.8202 C   0  0  0  0  0  0
  -21.3642   -5.6801   24.9159 C   0  0  0  0  0  0
  -21.6033   -4.3072   24.7217 C   0  0  0  0  0  0
  -21.8819   -3.8161   23.4334 C   0  0  0  0  0  0
  -21.9206   -4.6980   22.3393 C   0  0  0  0  0  0
  -22.7889  -13.5246   21.1862 C   0  0  0  0  0  0
  -22.1681   -4.2185   21.0973 F   0  0  0  0  0  0
  -21.5635   -3.4541   25.7729 F   0  0  0  0  0  0
  -30.0016  -13.4226   20.4029 N   0  0  0  0  0  0
  -26.2997  -12.9370   20.3281 N   0  0  0  0  0  0
  -25.9351  -11.6517   20.5706 N   0  0  0  0  0  0
  -22.0509  -12.8172   22.0340 N   0  0  0  0  0  0
  -25.4334  -15.1892   20.4102 N   0  0  0  0  0  0
  -31.8671  -14.6919   20.2304 O   0  0  0  0  0  0
  -21.6654   -6.8895   21.4234 O   0  0  0  0  0  0
  -22.3586  -14.5582   20.6756 O   0  0  0  0  0  0
  -24.6274  -31.8585   23.2042 C   0  0  0  0  0  0
  -25.9116  -32.4781   23.8356 C   0  0  1  0  0  0
  -27.2071  -27.3306   20.1281 C   0  0  0  0  0  0
  -25.5954  -33.8576   24.2305 N   0  0  0  0  0  0
  -23.4188  -30.4859   21.5441 C   0  0  2  0  0  0
  -24.8655  -28.9531   20.0988 C   0  0  0  0  0  0
  -22.7500  -29.4605   22.4906 C   0  0  0  0  0  0
  -18.0293  -28.1378   22.8478 C   0  0  0  0  0  0
  -24.1470  -36.7234   23.2646 C   0  0  0  0  0  0
  -25.9581  -30.8020   21.3667 C   0  0  0  0  0  0
  -26.0323  -29.4313   20.7092 C   0  0  0  0  0  0
  -27.2119  -28.6312   20.7132 C   0  0  0  0  0  0
  -26.0300  -26.9157   19.4660 C   0  0  0  0  0  0
  -24.8683  -27.7057   19.4580 C   0  0  0  0  0  0
  -23.6299  -29.8286   20.1544 C   0  0  0  0  0  0
  -25.4094  -36.3060   24.0349 C   0  0  1  0  0  0
  -20.5907  -28.3665   23.1257 C   0  0  2  0  0  0
  -20.6785  -26.9384   22.5369 C   0  0  0  0  0  0
  -19.5762  -26.6374   21.5175 C   0  0  0  0  0  0
  -18.1940  -26.7932   22.1588 C   0  0  0  0  0  0
  -19.1554  -28.8833   23.2889 C   0  0  0  0  0  0
  -18.9486  -30.1451   23.8894 C   0  0  0  0  0  0
  -17.6479  -30.6579   24.0560 C   0  0  0  0  0  0
  -25.9037  -34.9447   23.5105 C   0  0  0  0  0  0
  -16.5363  -29.9063   23.6347 C   0  0  0  0  0  0
  -16.7278  -28.6486   23.0341 C   0  0  0  0  0  0
  -26.4509  -31.6565   25.0705 C   0  0  0  0  0  0
  -25.3762  -31.3569   26.1415 C   0  0  0  0  0  0
  -27.0431  -30.3068   24.6059 C   0  0  0  0  0  0
  -27.6058  -32.4290   25.7530 C   0  0  0  0  0  0
  -27.5549  -37.1803   24.8492 C   0  0  0  0  0  0
  -21.4206  -29.3029   22.3684 N   0  0  0  0  0  0
  -26.4250  -37.3774   23.9433 N   0  0  0  0  0  0
  -24.6859  -31.0626   22.0954 N   0  0  0  0  0  0
  -23.4244  -28.8111   23.2941 O   0  0  0  0  0  0
  -28.2806  -26.4403   20.2022 O   0  0  0  0  0  0
  -26.5570  -34.8900   22.4649 O   0  0  0  0  0  0
  -23.5420  -32.1332   23.7378 O   0  0  0  0  0  0
  -28.4603  -18.7794   20.1189 C   0  0  0  0  0  0
  -28.1777  -20.1708   20.0645 C   0  0  0  0  0  0
  -28.7406  -21.0610   21.0276 C   0  0  0  0  0  0
  -29.3386  -18.2548   21.0912 C   0  0  0  0  0  0
  -29.6582  -20.4519   21.9410 C   0  0  0  0  0  0
  -27.2052  -20.6494   19.0012 C   0  0  0  0  0  0
  -31.8952  -21.2953   22.8350 C   0  0  0  0  0  0
  -29.9757  -16.3102   18.9071 C   0  0  0  0  0  0
  -28.1766  -22.5266   21.2157 C   0  0  0  0  0  0
  -30.3770  -21.2185   23.0524 C   0  0  0  0  0  0
  -29.5566  -16.7181   21.3522 C   0  0  0  0  0  0
  -28.7460  -23.8041   20.4615 C   0  0  0  0  0  0
  -27.9560  -25.1377   20.8249 C   0  0  0  0  0  0
  -29.9347  -19.1126   21.9568 N   0  0  0  0  0  0
  -29.8904  -15.7377   20.2610 N   0  0  0  0  0  0
  -31.4661  -12.4709   19.1564 H   0  0  0  0  0  0
  -30.3275  -11.3902   19.9093 H   0  0  0  0  0  0
  -29.7689  -11.7355   17.4810 H   0  0  0  0  0  0
  -29.6544  -13.4564   17.7303 H   0  0  0  0  0  0
  -27.8624  -11.2920   18.8725 H   0  0  0  0  0  0
  -27.3769  -12.5645   17.7849 H   0  0  0  0  0  0
  -27.6550  -14.2544   19.4924 H   0  0  0  0  0  0
  -28.6950  -12.1218   21.4216 H   0  0  0  0  0  0
  -28.4517  -13.8141   21.7899 H   0  0  0  0  0  0
  -25.2785   -9.5717   22.4791 H   0  0  0  0  0  0
  -24.0006   -7.4679   22.7508 H   0  0  0  0  0  0
  -21.0904   -8.8770   19.8935 H   0  0  0  0  0  0
  -22.3755  -10.9670   19.6126 H   0  0  0  0  0  0
  -21.1936   -7.6154   23.9712 H   0  0  0  0  0  0
  -21.1458   -6.0527   25.9070 H   0  0  0  0  0  0
  -22.0603   -2.7630   23.2822 H   0  0  0  0  0  0
  -22.4130  -11.9756   22.4596 H   0  0  0  0  0  0
  -21.1095  -13.1123   22.2525 H   0  0  0  0  0  0
  -24.6698  -15.8456   20.5221 H   0  0  0  0  0  0
  -26.2920  -15.6237   20.0958 H   0  0  0  0  0  0
  -26.7200  -32.5445   23.1108 H   0  0  0  0  0  0
  -25.0271  -33.9735   25.0573 H   0  0  0  0  0  0
  -22.7129  -31.3073   21.4027 H   0  0  0  0  0  0
  -23.3765  -35.9534   23.3267 H   0  0  0  0  0  0
  -24.3585  -36.8859   22.2073 H   0  0  0  0  0  0
  -23.7156  -37.6400   23.6657 H   0  0  0  0  0  0
  -26.0779  -31.5628   20.5939 H   0  0  0  0  0  0
  -26.8449  -30.8559   21.9848 H   0  0  0  0  0  0
  -28.1064  -28.9868   21.2044 H   0  0  0  0  0  0
  -25.9909  -25.9560   18.9710 H   0  0  0  0  0  0
  -23.9801  -27.3439   18.9563 H   0  0  0  0  0  0
  -23.7424  -30.6065   19.3990 H   0  0  0  0  0  0
  -22.7501  -29.2569   19.8502 H   0  0  0  0  0  0
  -25.1263  -36.1910   25.0844 H   0  0  0  0  0  0
  -21.0023  -28.3179   24.1359 H   0  0  0  0  0  0
  -20.5679  -26.2242   23.3541 H   0  0  0  0  0  0
  -21.6630  -26.7408   22.1119 H   0  0  0  0  0  0
  -19.6903  -25.6290   21.1160 H   0  0  0  0  0  0
  -19.6681  -27.3216   20.6733 H   0  0  0  0  0  0
  -17.4195  -26.6699   21.3992 H   0  0  0  0  0  0
  -18.0330  -26.0061   22.8972 H   0  0  0  0  0  0
  -19.7966  -30.7280   24.2215 H   0  0  0  0  0  0
  -17.5025  -31.6262   24.5154 H   0  0  0  0  0  0
  -15.5357  -30.2949   23.7710 H   0  0  0  0  0  0
  -15.8669  -28.0816   22.7035 H   0  0  0  0  0  0
  -24.6025  -30.6837   25.7686 H   0  0  0  0  0  0
  -24.8839  -32.2653   26.4885 H   0  0  0  0  0  0
  -25.8108  -30.8713   27.0165 H   0  0  0  0  0  0
  -26.3008  -29.6765   24.1142 H   0  0  0  0  0  0
  -27.4339  -29.7333   25.4471 H   0  0  0  0  0  0
  -27.8742  -30.4485   23.9155 H   0  0  0  0  0  0
  -27.2724  -33.3674   26.1971 H   0  0  0  0  0  0
  -28.3987  -32.6686   25.0437 H   0  0  0  0  0  0
  -28.0572  -31.8462   26.5566 H   0  0  0  0  0  0
  -28.2523  -38.0151   24.7567 H   0  0  0  0  0  0
  -28.1076  -36.2655   24.6266 H   0  0  0  0  0  0
  -27.2251  -37.1377   25.8897 H   0  0  0  0  0  0
  -20.9364  -29.8811   21.6958 H   0  0  0  0  0  0
  -26.0101  -38.2827   24.1464 H   0  0  0  0  0  0
  -27.9529  -18.1072   19.4416 H   0  0  0  0  0  0
  -27.3135  -20.0580   18.0913 H   0  0  0  0  0  0
  -27.3728  -21.6892   18.7254 H   0  0  0  0  0  0
  -26.1792  -20.5414   19.3515 H   0  0  0  0  0  0
  -32.3788  -21.8278   23.6546 H   0  0  0  0  0  0
  -32.1245  -21.8283   21.9112 H   0  0  0  0  0  0
  -32.3437  -20.3026   22.7793 H   0  0  0  0  0  0
  -28.9803  -16.4237   18.4793 H   0  0  0  0  0  0
  -30.5298  -15.6780   18.2115 H   0  0  0  0  0  0
  -30.4809  -17.2764   18.8999 H   0  0  0  0  0  0
  -28.1571  -22.7498   22.2825 H   0  0  0  0  0  0
  -27.1117  -22.4700   20.9855 H   0  0  0  0  0  0
  -30.1667  -20.7271   24.0056 H   0  0  0  0  0  0
  -30.0021  -22.2329   23.1602 H   0  0  0  0  0  0
  -28.6352  -16.3641   21.8152 H   0  0  0  0  0  0
  -30.3145  -16.6197   22.1321 H   0  0  0  0  0  0
  -28.6902  -23.6410   19.3834 H   0  0  0  0  0  0
  -29.8024  -23.9382   20.7034 H   0  0  0  0  0  0
  -28.0599  -25.2945   21.9007 H   0  0  0  0  0  0
  -26.8991  -24.8973   20.6974 H   0  0  0  0  0  0
  1 25  1  0  0  0
  1 30  2  0  0  0
  1 85  1  0  0  0
  2  3  1  0  0  0
  2 25  1  0  0  0
  2 86  1  0  0  0
  2 87  1  0  0  0
  3  4  1  0  0  0
  3 88  1  0  0  0
  3 89  1  0  0  0
  4  5  1  0  0  0
  4 90  1  0  0  0
  4 91  1  0  0  0
  5  6  1  0  0  0
  5 26  1  0  0  0
  5 92  1  0  0  0
  6 25  1  0  0  0
  6 93  1  0  0  0
  6 94  1  0  0  0
  7  8  2  0  0  0
  7 26  1  0  0  0
  7 29  1  0  0  0
  8  9  1  0  0  0
  8 22  1  0  0  0
  9 10  1  0  0  0
  9 27  2  0  0  0
 10 11  2  0  0  0
 10 15  1  0  0  0
 11 12  1  0  0  0
 11 95  1  0  0  0
 12 13  2  0  0  0
 12 96  1  0  0  0
 13 14  1  0  0  0
 13 31  1  0  0  0
 14 15  2  0  0  0
 14 97  1  0  0  0
 15 98  1  0  0  0
 16 17  2  0  0  0
 16 21  1  0  0  0
 16 31  1  0  0  0
 17 18  1  0  0  0
 17 99  1  0  0  0
 18 19  2  0  0  0
 18100  1  0  0  0
 19 20  1  0  0  0
 19 24  1  0  0  0
 20 21  2  0  0  0
 20101  1  0  0  0
 21 23  1  0  0  0
 22 28  1  0  0  0
 22 32  2  0  0  0
 26 27  1  0  0  0
 28102  1  0  0  0
 28103  1  0  0  0
 29104  1  0  0  0
 29105  1  0  0  0
 33 34  1  0  0  0
 33 66  1  0  0  0
 33 70  2  0  0  0
 34 36  1  0  0  0
 34 59  1  0  0  0
 34106  1  0  0  0
 35 44  2  0  0  0
 35 45  1  0  0  0
 35 68  1  0  0  0
 36 56  1  0  0  0
 36107  1  0  0  0
 37 39  1  0  0  0
 37 47  1  0  0  0
 37 66  1  0  0  0
 37108  1  0  0  0
 38 43  2  0  0  0
 38 46  1  0  0  0
 38 47  1  0  0  0
 39 64  1  0  0  0
 39 67  2  0  0  0
 40 52  1  0  0  0
 40 53  2  0  0  0
 40 58  1  0  0  0
 41109  1  0  0  0
 41110  1  0  0  0
 41111  1  0  0  0
 41 48  1  0  0  0
 42 43  1  0  0  0
 42 66  1  0  0  0
 42112  1  0  0  0
 42113  1  0  0  0
 43 44  1  0  0  0
 44114  1  0  0  0
 45 46  2  0  0  0
 45115  1  0  0  0
 46116  1  0  0  0
 47117  1  0  0  0
 47118  1  0  0  0
 48 56  1  0  0  0
 48 65  1  0  0  0
 48119  1  0  0  0
 49 50  1  0  0  0
 49 53  1  0  0  0
 49 64  1  0  0  0
 49120  1  0  0  0
 50 51  1  0  0  0
 50121  1  0  0  0
 50122  1  0  0  0
 51 52  1  0  0  0
 51123  1  0  0  0
 51124  1  0  0  0
 52125  1  0  0  0
 52126  1  0  0  0
 53 54  1  0  0  0
 54 55  2  0  0  0
 54127  1  0  0  0
 55 57  1  0  0  0
 55128  1  0  0  0
 56 69  2  0  0  0
 57 58  2  0  0  0
 57129  1  0  0  0
 58130  1  0  0  0
 59 60  1  0  0  0
 59 61  1  0  0  0
 59 62  1  0  0  0
 60131  1  0  0  0
 60132  1  0  0  0
 60133  1  0  0  0
 61134  1  0  0  0
 61135  1  0  0  0
 61136  1  0  0  0
 62137  1  0  0  0
 62138  1  0  0  0
 62139  1  0  0  0
 63 65  1  0  0  0
 63140  1  0  0  0
 63141  1  0  0  0
 63142  1  0  0  0
 64143  1  0  0  0
 65144  1  0  0  0
 68 83  1  0  0  0
 71 72  2  0  0  0
 71 74  1  0  0  0
 71145  1  0  0  0
 72 73  1  0  0  0
 72 76  1  0  0  0
 73 75  2  0  0  0
 73 79  1  0  0  0
 74 81  1  0  0  0
 74 84  2  0  0  0
 75 80  1  0  0  0
 75 84  1  0  0  0
 76146  1  0  0  0
 76147  1  0  0  0
 76148  1  0  0  0
 77 80  1  0  0  0
 77149  1  0  0  0
 77150  1  0  0  0
 77151  1  0  0  0
 78 85  1  0  0  0
 78152  1  0  0  0
 78153  1  0  0  0
 78154  1  0  0  0
 79 82  1  0  0  0
 79155  1  0  0  0
 79156  1  0  0  0
 80157  1  0  0  0
 80158  1  0  0  0
 81 85  1  0  0  0
 81159  1  0  0  0
 81160  1  0  0  0
 82 83  1  0  0  0
 82161  1  0  0  0
 82162  1  0  0  0
 83163  1  0  0  0
 83164  1  0  0  0
M  ISO  4   1 100  68 101  83 101  85 100
M  END
> <chiral flag>
0

> <version>
0

> <s_m_source_file>
/data/baiqing/PycharmProjects/Reinvent-master-3.2/result/LINK_invent/BTK/process_docking_weight1_custom_sum_contain_oxygen_bond_distance_aromatic_linkinvent_7_9_3/rearranged_h_0069.sdf

> <i_m_source_file_index>
30

> <r_mmod_Potential_Energy-OPLS-2005>
21.517448425293

> <r_mmod_Stretch_Energy-OPLS-2005>
77.2275848388672

> <r_mmod_Bend_Energy-OPLS-2005>
145.598587036133

> <r_mmod_Torsional_Energy-OPLS-2005>
301.019378662109

> <r_mmod_Improper_Torsional_Energy-OPLS-2005>
22.4719886779785

> <r_mmod_Van_der_Waal_Energy-OPLS-2005>
149.316177368164

> <r_mmod_Electrostatic_Energy-OPLS-2005>
-518.750671386719

> <r_mmod_Solvation_Energy-OPLS-2005>
-209.108245849609

> <b_mmod_Minimization_Converged-OPLS-2005>
0

> <r_mmod_RMS_Derivative-OPLS-2005>
4.24001693725586

$$$$
30
                    3D
 Structure written by MMmdl.
157165  0  0  1  0            999 V2000
  -30.6779  -14.6155   20.5311 C   0  0  0  0  0  0
  -30.4233  -12.3888   19.4482 C   0  0  0  0  0  0
  -29.4994  -12.5113   18.2191 C   0  0  0  0  0  0
  -28.0237  -12.3505   18.6338 C   0  0  0  0  0  0
  -27.6502  -13.2230   19.8616 C   0  0  2  0  0  0
  -28.6967  -13.0944   20.9909 C   0  0  0  0  0  0
  -25.2544  -13.8193   20.5705 C   0  0  0  0  0  0
  -24.1817  -13.0447   20.9201 C   0  0  0  0  0  0
  -24.6394  -11.6917   20.8748 C   0  0  0  0  0  0
  -23.9064  -10.4295   21.0402 C   0  0  0  0  0  0
  -24.3609   -9.4205   21.9178 C   0  0  0  0  0  0
  -23.6280   -8.2243   22.0753 C   0  0  0  0  0  0
  -22.4265   -8.0280   21.3540 C   0  0  0  0  0  0
  -21.9901   -9.0255   20.4643 C   0  0  0  0  0  0
  -22.7235  -10.2133   20.3051 C   0  0  0  0  0  0
  -21.6848   -6.0728   22.5270 C   0  0  0  0  0  0
  -21.4023   -6.5635   23.8205 C   0  0  0  0  0  0
  -21.3661   -5.6787   24.9167 C   0  0  0  0  0  0
  -21.6048   -4.3048   24.7220 C   0  0  0  0  0  0
  -21.8819   -3.8139   23.4341 C   0  0  0  0  0  0
  -21.9193   -4.6954   22.3396 C   0  0  0  0  0  0
  -22.7835  -13.5234   21.1846 C   0  0  0  0  0  0
  -22.1659   -4.2140   21.0971 F   0  0  0  0  0  0
  -21.5624   -3.4532   25.7735 F   0  0  0  0  0  0
  -30.0090  -13.4246   20.4164 N   0  0  0  0  0  0
  -26.2972  -12.9389   20.3325 N   0  0  0  0  0  0
  -25.9324  -11.6535   20.5760 N   0  0  0  0  0  0
  -22.0465  -12.8238   22.0404 N   0  0  0  0  0  0
  -25.4254  -15.1914   20.4132 N   0  0  0  0  0  0
  -31.8388  -14.7211   20.1321 O   0  0  0  0  0  0
  -21.6636   -6.8872   21.4233 O   0  0  0  0  0  0
  -22.3526  -14.5534   20.6674 O   0  0  0  0  0  0
  -24.6267  -31.8620   23.2056 C   0  0  0  0  0  0
  -25.9116  -32.4796   23.8377 C   0  0  1  0  0  0
  -27.2140  -27.3158   20.1106 C   0  0  0  0  0  0
  -25.5937  -33.8599   24.2305 N   0  0  0  0  0  0
  -23.4201  -30.4881   21.5493 C   0  0  2  0  0  0
  -24.8639  -28.9516   20.1083 C   0  0  0  0  0  0
  -22.7480  -29.4638   22.4954 C   0  0  0  0  0  0
  -18.0288  -28.1370   22.8499 C   0  0  0  0  0  0
  -24.1490  -36.7289   23.2636 C   0  0  0  0  0  0
  -25.9632  -30.7897   21.3806 C   0  0  0  0  0  0
  -26.0344  -29.4188   20.7191 C   0  0  0  0  0  0
  -27.2116  -28.6111   20.7148 C   0  0  0  0  0  0
  -26.0203  -26.9160   19.4599 C   0  0  0  0  0  0
  -24.8597  -27.7055   19.4693 C   0  0  0  0  0  0
  -23.6333  -29.8312   20.1615 C   0  0  0  0  0  0
  -25.4118  -36.3099   24.0334 C   0  0  1  0  0  0
  -20.5893  -28.3684   23.1278 C   0  0  2  0  0  0
  -20.6798  -26.9409   22.5400 C   0  0  0  0  0  0
  -19.5750  -26.6340   21.5241 C   0  0  0  0  0  0
  -18.1938  -26.7899   22.1668 C   0  0  0  0  0  0
  -19.1543  -28.8844   23.2882 C   0  0  0  0  0  0
  -18.9468  -30.1441   23.8906 C   0  0  0  0  0  0
  -17.6467  -30.6572   24.0585 C   0  0  0  0  0  0
  -25.9056  -34.9467   23.5120 C   0  0  0  0  0  0
  -16.5355  -29.9076   23.6347 C   0  0  0  0  0  0
  -16.7276  -28.6492   23.0371 C   0  0  0  0  0  0
  -26.4499  -31.6594   25.0739 C   0  0  0  0  0  0
  -25.3725  -31.3724   26.1454 C   0  0  0  0  0  0
  -27.0347  -30.3023   24.6188 C   0  0  0  0  0  0
  -27.6068  -32.4321   25.7500 C   0  0  0  0  0  0
  -27.5586  -37.1805   24.8468 C   0  0  0  0  0  0
  -21.4196  -29.3044   22.3682 N   0  0  0  0  0  0
  -26.4303  -37.3787   23.9410 N   0  0  0  0  0  0
  -24.6890  -31.0631   22.1013 N   0  0  0  0  0  0
  -23.4200  -28.8178   23.3037 O   0  0  0  0  0  0
  -28.3147  -26.4403   20.1765 O   0  0  0  0  0  0
  -26.5619  -34.8924   22.4682 O   0  0  0  0  0  0
  -23.5428  -32.1423   23.7381 O   0  0  0  0  0  0
  -29.0864  -19.2584   21.8481 C   0  0  0  0  0  0
  -29.8266  -18.3967   20.9885 C   0  0  0  0  0  0
  -29.1156  -21.0175   20.3008 C   0  0  0  0  0  0
  -29.8556  -20.1525   19.4277 C   0  0  0  0  0  0
  -31.9529  -17.1890   21.6890 C   0  0  0  0  0  0
  -29.2356  -23.8386   21.8917 C   0  0  0  0  0  0
  -28.5120  -22.4031   19.8502 C   0  0  0  0  0  0
  -28.0433  -25.0029   19.9313 C   0  0  0  0  0  0
  -30.4266  -17.0409   21.5164 C   0  0  2  0  0  0
  -29.0241  -23.8269   20.3692 C   0  0  1  0  0  0
  -28.7265  -20.5354   21.5142 N   0  0  0  0  0  0
  -30.2007  -18.8661   19.7660 N   0  0  0  0  0  0
  -29.9721  -15.6997   20.9829 N   0  0  0  0  0  0
  -30.3396  -20.6950   17.8608 Cl  0  0  0  0  0  0
  -31.4669  -12.4904   19.1477 H   0  0  0  0  0  0
  -30.3380  -11.3976   19.8965 H   0  0  0  0  0  0
  -29.7618  -11.7615   17.4713 H   0  0  0  0  0  0
  -29.6458  -13.4829   17.7444 H   0  0  0  0  0  0
  -27.8616  -11.2980   18.8662 H   0  0  0  0  0  0
  -27.3668  -12.5804   17.7935 H   0  0  0  0  0  0
  -27.6650  -14.2571   19.5173 H   0  0  0  0  0  0
  -28.7073  -12.0803   21.3936 H   0  0  0  0  0  0
  -28.4456  -13.7460   21.8287 H   0  0  0  0  0  0
  -25.2746   -9.5686   22.4760 H   0  0  0  0  0  0
  -23.9979   -7.4643   22.7484 H   0  0  0  0  0  0
  -21.0824   -8.8775   19.8957 H   0  0  0  0  0  0
  -22.3677  -10.9673   19.6164 H   0  0  0  0  0  0
  -21.2025   -7.6144   23.9709 H   0  0  0  0  0  0
  -21.1481   -6.0514   25.9069 H   0  0  0  0  0  0
  -22.0599   -2.7599   23.2841 H   0  0  0  0  0  0
  -22.4059  -11.9899   22.4809 H   0  0  0  0  0  0
  -21.1083  -13.1287   22.2599 H   0  0  0  0  0  0
  -24.6570  -15.8450   20.5211 H   0  0  0  0  0  0
  -26.2698  -15.6295   20.0674 H   0  0  0  0  0  0
  -26.7182  -32.5467   23.1122 H   0  0  0  0  0  0
  -25.0117  -33.9748   25.0470 H   0  0  0  0  0  0
  -22.7132  -31.3088   21.4112 H   0  0  0  0  0  0
  -23.3766  -35.9608   23.3312 H   0  0  0  0  0  0
  -24.3581  -36.8897   22.2048 H   0  0  0  0  0  0
  -23.7221  -37.6486   23.6645 H   0  0  0  0  0  0
  -26.0992  -31.5542   20.6147 H   0  0  0  0  0  0
  -26.8424  -30.8347   22.0121 H   0  0  0  0  0  0
  -28.1062  -28.9602   21.2118 H   0  0  0  0  0  0
  -25.9421  -25.9726   18.9410 H   0  0  0  0  0  0
  -23.9664  -27.3457   18.9777 H   0  0  0  0  0  0
  -23.7495  -30.6107   19.4073 H   0  0  0  0  0  0
  -22.7545  -29.2588   19.8607 H   0  0  0  0  0  0
  -25.1296  -36.1975   25.0828 H   0  0  0  0  0  0
  -20.9989  -28.3253   24.1398 H   0  0  0  0  0  0
  -21.6649  -26.7493   22.1128 H   0  0  0  0  0  0
  -20.5803  -26.2271   23.3591 H   0  0  0  0  0  0
  -19.6915  -25.6227   21.1341 H   0  0  0  0  0  0
  -19.6660  -27.3097   20.6724 H   0  0  0  0  0  0
  -17.4189  -26.6592   21.4097 H   0  0  0  0  0  0
  -18.0378  -26.0066   22.9108 H   0  0  0  0  0  0
  -19.7947  -30.7249   24.2272 H   0  0  0  0  0  0
  -17.5022  -31.6251   24.5192 H   0  0  0  0  0  0
  -15.5360  -30.2975   23.7669 H   0  0  0  0  0  0
  -15.8670  -28.0808   22.7100 H   0  0  0  0  0  0
  -24.5911  -30.7069   25.7763 H   0  0  0  0  0  0
  -24.8891  -32.2880   26.4874 H   0  0  0  0  0  0
  -25.8031  -30.8897   27.0234 H   0  0  0  0  0  0
  -26.2921  -29.6772   24.1213 H   0  0  0  0  0  0
  -27.4050  -29.7286   25.4692 H   0  0  0  0  0  0
  -27.8791  -30.4319   23.9416 H   0  0  0  0  0  0
  -27.2703  -33.3631   26.2076 H   0  0  0  0  0  0
  -28.3871  -32.6864   25.0313 H   0  0  0  0  0  0
  -28.0742  -31.8440   26.5409 H   0  0  0  0  0  0
  -28.2612  -38.0097   24.7531 H   0  0  0  0  0  0
  -28.1079  -36.2632   24.6291 H   0  0  0  0  0  0
  -27.2306  -37.1454   25.8872 H   0  0  0  0  0  0
  -20.9377  -29.8747   21.6872 H   0  0  0  0  0  0
  -26.0199  -38.2870   24.1405 H   0  0  0  0  0  0
  -28.8092  -18.9324   22.8403 H   0  0  0  0  0  0
  -32.1902  -18.0735   22.2812 H   0  0  0  0  0  0
  -32.4535  -17.2982   20.7260 H   0  0  0  0  0  0
  -32.3908  -16.3342   22.2042 H   0  0  0  0  0  0
  -29.9919  -23.1141   22.1934 H   0  0  0  0  0  0
  -28.3139  -23.5974   22.4220 H   0  0  0  0  0  0
  -29.5681  -24.8195   22.2338 H   0  0  0  0  0  0
  -27.4545  -22.3350   20.1060 H   0  0  0  0  0  0
  -28.5065  -22.4321   18.7612 H   0  0  0  0  0  0
  -27.0923  -24.7554   20.4055 H   0  0  0  0  0  0
  -27.8902  -24.8965   18.8564 H   0  0  0  0  0  0
  -30.0550  -16.9844   22.5409 H   0  0  0  0  0  0
  -29.9935  -24.0139   19.9057 H   0  0  0  0  0  0
  -28.9990  -15.5021   21.1572 H   0  0  0  0  0  0
  1 25  1  0  0  0
  1 30  2  0  0  0
  1 83  1  0  0  0
  2  3  1  0  0  0
  2 25  1  0  0  0
  2 85  1  0  0  0
  2 86  1  0  0  0
  3  4  1  0  0  0
  3 87  1  0  0  0
  3 88  1  0  0  0
  4  5  1  0  0  0
  4 89  1  0  0  0
  4 90  1  0  0  0
  5  6  1  0  0  0
  5 26  1  0  0  0
  5 91  1  0  0  0
  6 25  1  0  0  0
  6 92  1  0  0  0
  6 93  1  0  0  0
  7  8  2  0  0  0
  7 26  1  0  0  0
  7 29  1  0  0  0
  8  9  1  0  0  0
  8 22  1  0  0  0
  9 10  1  0  0  0
  9 27  2  0  0  0
 10 11  2  0  0  0
 10 15  1  0  0  0
 11 12  1  0  0  0
 11 94  1  0  0  0
 12 13  2  0  0  0
 12 95  1  0  0  0
 13 14  1  0  0  0
 13 31  1  0  0  0
 14 15  2  0  0  0
 14 96  1  0  0  0
 15 97  1  0  0  0
 16 17  2  0  0  0
 16 21  1  0  0  0
 16 31  1  0  0  0
 17 18  1  0  0  0
 17 98  1  0  0  0
 18 19  2  0  0  0
 18 99  1  0  0  0
 19 20  1  0  0  0
 19 24  1  0  0  0
 20 21  2  0  0  0
 20100  1  0  0  0
 21 23  1  0  0  0
 22 28  1  0  0  0
 22 32  2  0  0  0
 26 27  1  0  0  0
 28101  1  0  0  0
 28102  1  0  0  0
 29103  1  0  0  0
 29104  1  0  0  0
 33 34  1  0  0  0
 33 66  1  0  0  0
 33 70  2  0  0  0
 34 36  1  0  0  0
 34 59  1  0  0  0
 34105  1  0  0  0
 35 44  2  0  0  0
 35 45  1  0  0  0
 35 68  1  0  0  0
 36 56  1  0  0  0
 36106  1  0  0  0
 37 39  1  0  0  0
 37 47  1  0  0  0
 37 66  1  0  0  0
 37107  1  0  0  0
 38 43  2  0  0  0
 38 46  1  0  0  0
 38 47  1  0  0  0
 39 64  1  0  0  0
 39 67  2  0  0  0
 40 52  1  0  0  0
 40 53  2  0  0  0
 40 58  1  0  0  0
 41108  1  0  0  0
 41109  1  0  0  0
 41110  1  0  0  0
 41 48  1  0  0  0
 42 43  1  0  0  0
 42 66  1  0  0  0
 42111  1  0  0  0
 42112  1  0  0  0
 43 44  1  0  0  0
 44113  1  0  0  0
 45 46  2  0  0  0
 45114  1  0  0  0
 46115  1  0  0  0
 47116  1  0  0  0
 47117  1  0  0  0
 48 56  1  0  0  0
 48 65  1  0  0  0
 48118  1  0  0  0
 49 50  1  0  0  0
 49 53  1  0  0  0
 49 64  1  0  0  0
 49119  1  0  0  0
 50 51  1  0  0  0
 50120  1  0  0  0
 50121  1  0  0  0
 51 52  1  0  0  0
 51122  1  0  0  0
 51123  1  0  0  0
 52124  1  0  0  0
 52125  1  0  0  0
 53 54  1  0  0  0
 54 55  2  0  0  0
 54126  1  0  0  0
 55 57  1  0  0  0
 55127  1  0  0  0
 56 69  2  0  0  0
 57 58  2  0  0  0
 57128  1  0  0  0
 58129  1  0  0  0
 59 60  1  0  0  0
 59 61  1  0  0  0
 59 62  1  0  0  0
 60130  1  0  0  0
 60131  1  0  0  0
 60132  1  0  0  0
 61133  1  0  0  0
 61134  1  0  0  0
 61135  1  0  0  0
 62136  1  0  0  0
 62137  1  0  0  0
 62138  1  0  0  0
 63 65  1  0  0  0
 63139  1  0  0  0
 63140  1  0  0  0
 63141  1  0  0  0
 64142  1  0  0  0
 65143  1  0  0  0
 68 78  1  0  0  0
 71 72  2  0  0  0
 71 81  1  0  0  0
 71144  1  0  0  0
 72 79  1  0  0  0
 72 82  1  0  0  0
 73 74  1  0  0  0
 73 77  1  0  0  0
 73 81  2  0  0  0
 74 82  2  0  0  0
 74 84  1  0  0  0
 75145  1  0  0  0
 75146  1  0  0  0
 75147  1  0  0  0
 75 79  1  0  0  0
 76148  1  0  0  0
 76149  1  0  0  0
 76150  1  0  0  0
 76 80  1  0  0  0
 77 80  1  0  0  0
 77151  1  0  0  0
 77152  1  0  0  0
 78 80  1  0  0  0
 78153  1  0  0  0
 78154  1  0  0  0
 79 83  1  0  0  0
 79155  1  0  0  0
 80156  1  0  0  0
 83157  1  0  0  0
M  ISO  4   1 100  68 101  78 101  83 100
M  END
> <chiral flag>
0

> <version>
0

> <s_m_source_file>
/data/baiqing/PycharmProjects/Reinvent-master-3.2/result/LINK_invent/BTK/process_docking_weight1_custom_sum_contain_oxygen_bond_distance_aromatic_linkinvent_7_9_3/rearranged_h_0069.sdf

> <i_m_source_file_index>
31

> <r_mmod_Potential_Energy-OPLS-2005>
106.167572021484

> <r_mmod_Stretch_Energy-OPLS-2005>
85.1514282226562

> <r_mmod_Bend_Energy-OPLS-2005>
159.829147338867

> <r_mmod_Torsional_Energy-OPLS-2005>
192.013214111328

> <r_mmod_Improper_Torsional_Energy-OPLS-2005>
5.40207672119141

> <r_mmod_Van_der_Waal_Energy-OPLS-2005>
154.094879150391

> <r_mmod_Electrostatic_Energy-OPLS-2005>
-318.433135986328

> <r_mmod_Solvation_Energy-OPLS-2005>
-220.05827331543

> <b_mmod_Minimization_Converged-OPLS-2005>
0

> <r_mmod_RMS_Derivative-OPLS-2005>
1.41389811038971

$$$$
31
                    3D
 Structure written by MMmdl.
171179  0  0  1  0            999 V2000
  -30.7153  -14.7660   20.5058 C   0  0  0  0  0  0
  -30.4024  -12.4705   19.5229 C   0  0  0  0  0  0
  -29.5157  -12.5431   18.2622 C   0  0  0  0  0  0
  -28.0367  -12.3820   18.6541 C   0  0  0  0  0  0
  -27.6422  -13.2645   19.8714 C   0  0  2  0  0  0
  -28.6879  -13.2369   21.0119 C   0  0  0  0  0  0
  -25.2375  -13.8181   20.5627 C   0  0  0  0  0  0
  -24.1766  -13.0404   20.9224 C   0  0  0  0  0  0
  -24.6447  -11.6912   20.8814 C   0  0  0  0  0  0
  -23.9163  -10.4282   21.0447 C   0  0  0  0  0  0
  -24.3704   -9.4173   21.9205 C   0  0  0  0  0  0
  -23.6349   -8.2220   22.0789 C   0  0  0  0  0  0
  -22.4317   -8.0296   21.3587 C   0  0  0  0  0  0
  -21.9981   -9.0274   20.4663 C   0  0  0  0  0  0
  -22.7342  -10.2126   20.3079 C   0  0  0  0  0  0
  -21.6869   -6.0753   22.5326 C   0  0  0  0  0  0
  -21.4008   -6.5647   23.8257 C   0  0  0  0  0  0
  -21.3660   -5.6802   24.9226 C   0  0  0  0  0  0
  -21.6049   -4.3068   24.7255 C   0  0  0  0  0  0
  -21.8814   -3.8164   23.4380 C   0  0  0  0  0  0
  -21.9190   -4.6976   22.3440 C   0  0  0  0  0  0
  -22.7763  -13.5121   21.1882 C   0  0  0  0  0  0
  -22.1671   -4.2178   21.1013 F   0  0  0  0  0  0
  -21.5636   -3.4513   25.7744 F   0  0  0  0  0  0
  -29.9980  -13.5763   20.4427 N   0  0  0  0  0  0
  -26.2963  -12.9531   20.3431 N   0  0  0  0  0  0
  -25.9415  -11.6633   20.5898 N   0  0  0  0  0  0
  -22.0415  -12.8102   22.0429 N   0  0  0  0  0  0
  -25.3769  -15.1868   20.3756 N   0  0  0  0  0  0
  -31.8298  -14.7224   19.9765 O   0  0  0  0  0  0
  -21.6671   -6.8896   21.4301 O   0  0  0  0  0  0
  -22.3442  -14.5456   20.6784 O   0  0  0  0  0  0
  -24.6307  -31.8520   23.1932 C   0  0  0  0  0  0
  -25.9138  -32.4727   23.8277 C   0  0  1  0  0  0
  -27.2378  -27.2579   20.1019 C   0  0  0  0  0  0
  -25.5936  -33.8531   24.2208 N   0  0  0  0  0  0
  -23.4277  -30.4697   21.5371 C   0  0  2  0  0  0
  -24.8760  -28.9092   20.1028 C   0  0  0  0  0  0
  -22.7485  -29.4589   22.4921 C   0  0  0  0  0  0
  -18.0286  -28.1391   22.8477 C   0  0  0  0  0  0
  -24.1487  -36.7248   23.2644 C   0  0  0  0  0  0
  -25.9721  -30.7595   21.3742 C   0  0  0  0  0  0
  -26.0447  -29.3831   20.7107 C   0  0  0  0  0  0
  -27.2200  -28.5668   20.7003 C   0  0  0  0  0  0
  -26.0377  -26.8364   19.4957 C   0  0  0  0  0  0
  -24.8783  -27.6448   19.4874 C   0  0  0  0  0  0
  -23.6430  -29.7945   20.1556 C   0  0  0  0  0  0
  -25.4126  -36.3038   24.0313 C   0  0  1  0  0  0
  -20.5887  -28.3702   23.1277 C   0  0  2  0  0  0
  -20.6777  -26.9422   22.5423 C   0  0  0  0  0  0
  -19.5755  -26.6394   21.5221 C   0  0  0  0  0  0
  -18.1929  -26.7931   22.1620 C   0  0  0  0  0  0
  -19.1535  -28.8868   23.2870 C   0  0  0  0  0  0
  -18.9458  -30.1469   23.8882 C   0  0  0  0  0  0
  -17.6466  -30.6591   24.0563 C   0  0  0  0  0  0
  -25.9079  -34.9418   23.5072 C   0  0  0  0  0  0
  -16.5357  -29.9090   23.6338 C   0  0  0  0  0  0
  -16.7273  -28.6507   23.0354 C   0  0  0  0  0  0
  -26.4513  -31.6568   25.0682 C   0  0  0  0  0  0
  -25.3736  -31.3694   26.1400 C   0  0  0  0  0  0
  -27.0391  -30.2985   24.6193 C   0  0  0  0  0  0
  -27.6039  -32.4338   25.7456 C   0  0  0  0  0  0
  -27.5575  -37.1773   24.8464 C   0  0  0  0  0  0
  -21.4196  -29.3031   22.3653 N   0  0  0  0  0  0
  -26.4287  -37.3755   23.9410 N   0  0  0  0  0  0
  -24.6960  -31.0454   22.0919 N   0  0  0  0  0  0
  -23.4182  -28.8157   23.3048 O   0  0  0  0  0  0
  -28.3836  -26.4299   20.1906 O   0  0  0  0  0  0
  -26.5660  -34.8909   22.4646 O   0  0  0  0  0  0
  -23.5458  -32.1368   23.7233 O   0  0  0  0  0  0
  -29.1424  -20.8481   19.8713 C   0  0  0  0  0  0
  -29.1931  -18.6546   20.1435 C   0  0  0  0  0  0
  -30.7305  -20.7166   22.6931 C   0  0  0  0  0  0
  -27.8352  -16.9974   21.5324 C   0  0  0  0  0  0
  -30.3269  -16.0314   22.7152 C   0  0  0  0  0  0
  -31.6093  -17.1451   20.9831 C   0  0  0  0  0  0
  -30.2723  -25.2797   19.6195 C   0  0  0  0  0  0
  -28.4114  -25.2314   17.9962 C   0  0  0  0  0  0
  -29.4186  -22.4089   19.9734 C   0  0  0  0  0  0
  -28.3398  -23.6332   20.0662 C   0  0  0  0  0  0
  -29.4128  -20.0460   22.2826 C   0  0  0  0  0  0
  -29.0982  -17.1413   20.6611 C   0  0  2  0  0  0
  -30.3604  -16.2290   21.1777 C   0  0  0  0  0  0
  -28.7373  -25.1304   19.5026 C   0  0  0  0  0  0
  -28.9618  -20.2818   18.6686 N   0  0  0  0  0  0
  -29.0178  -18.9066   18.8381 N   0  0  0  0  0  0
  -29.2710  -19.8609   20.8431 N   0  0  0  0  0  0
  -31.4563  -12.4961   19.2427 H   0  0  0  0  0  0
  -30.2749  -11.5083   20.0184 H   0  0  0  0  0  0
  -29.8036  -11.7782   17.5392 H   0  0  0  0  0  0
  -29.6710  -13.5019   17.7667 H   0  0  0  0  0  0
  -27.8686  -11.3307   18.8830 H   0  0  0  0  0  0
  -27.3886  -12.6112   17.8066 H   0  0  0  0  0  0
  -27.6260  -14.2873   19.4988 H   0  0  0  0  0  0
  -28.7238  -12.2539   21.4811 H   0  0  0  0  0  0
  -28.4163  -13.9347   21.7995 H   0  0  0  0  0  0
  -25.2839   -9.5580   22.4813 H   0  0  0  0  0  0
  -24.0018   -7.4586   22.7515 H   0  0  0  0  0  0
  -21.0919   -8.8858   19.8936 H   0  0  0  0  0  0
  -22.3877  -10.9715   19.6207 H   0  0  0  0  0  0
  -21.2018   -7.6163   23.9726 H   0  0  0  0  0  0
  -21.1484   -6.0570   25.9113 H   0  0  0  0  0  0
  -22.0572   -2.7625   23.2910 H   0  0  0  0  0  0
  -22.4078  -11.9856   22.4943 H   0  0  0  0  0  0
  -21.1034  -13.1145   22.2638 H   0  0  0  0  0  0
  -24.5630  -15.7918   20.3778 H   0  0  0  0  0  0
  -26.2001  -15.6287   19.9911 H   0  0  0  0  0  0
  -26.7204  -32.5369   23.1004 H   0  0  0  0  0  0
  -25.0042  -33.9667   25.0329 H   0  0  0  0  0  0
  -22.7235  -31.2918   21.3885 H   0  0  0  0  0  0
  -23.3772  -35.9558   23.3289 H   0  0  0  0  0  0
  -24.3573  -36.8907   22.2062 H   0  0  0  0  0  0
  -23.7228  -37.6427   23.6707 H   0  0  0  0  0  0
  -26.1192  -31.5258   20.6123 H   0  0  0  0  0  0
  -26.8477  -30.8027   22.0128 H   0  0  0  0  0  0
  -28.1168  -28.9242   21.1868 H   0  0  0  0  0  0
  -25.9649  -25.8521   19.0645 H   0  0  0  0  0  0
  -23.9787  -27.2699   19.0199 H   0  0  0  0  0  0
  -23.7559  -30.5683   19.3949 H   0  0  0  0  0  0
  -22.7631  -29.2200   19.8600 H   0  0  0  0  0  0
  -25.1316  -36.1854   25.0805 H   0  0  0  0  0  0
  -20.9971  -28.3294   24.1403 H   0  0  0  0  0  0
  -20.5689  -26.2310   23.3621 H   0  0  0  0  0  0
  -21.6645  -26.7454   22.1215 H   0  0  0  0  0  0
  -19.6924  -25.6308   21.1245 H   0  0  0  0  0  0
  -19.6698  -27.3208   20.6750 H   0  0  0  0  0  0
  -17.4206  -26.6689   21.4014 H   0  0  0  0  0  0
  -18.0316  -26.0080   22.9013 H   0  0  0  0  0  0
  -19.7946  -30.7297   24.2230 H   0  0  0  0  0  0
  -17.5023  -31.6271   24.5185 H   0  0  0  0  0  0
  -15.5358  -30.2998   23.7675 H   0  0  0  0  0  0
  -15.8667  -28.0840   22.7069 H   0  0  0  0  0  0
  -24.5914  -30.7053   25.7698 H   0  0  0  0  0  0
  -24.8944  -32.2864   26.4827 H   0  0  0  0  0  0
  -25.8071  -30.8845   27.0161 H   0  0  0  0  0  0
  -26.2992  -29.6682   24.1250 H   0  0  0  0  0  0
  -27.4108  -29.7276   25.4711 H   0  0  0  0  0  0
  -27.8839  -30.4240   23.9419 H   0  0  0  0  0  0
  -27.2613  -33.3635   26.1992 H   0  0  0  0  0  0
  -28.3855  -32.6910   25.0300 H   0  0  0  0  0  0
  -28.0707  -31.8511   26.5401 H   0  0  0  0  0  0
  -28.2568  -38.0089   24.7548 H   0  0  0  0  0  0
  -28.1094  -36.2624   24.6257 H   0  0  0  0  0  0
  -27.2288  -37.1377   25.8863 H   0  0  0  0  0  0
  -20.9396  -29.8701   21.6809 H   0  0  0  0  0  0
  -26.0142  -38.2808   24.1466 H   0  0  0  0  0  0
  -31.0055  -20.4052   23.6993 H   0  0  0  0  0  0
  -30.6522  -21.8042   22.7255 H   0  0  0  0  0  0
  -31.5468  -20.4409   22.0234 H   0  0  0  0  0  0
  -26.9753  -17.4556   21.0446 H   0  0  0  0  0  0
  -27.9368  -17.4794   22.5034 H   0  0  0  0  0  0
  -27.5860  -15.9570   21.7209 H   0  0  0  0  0  0
  -30.3386  -16.9936   23.2308 H   0  0  0  0  0  0
  -31.2022  -15.4826   23.0635 H   0  0  0  0  0  0
  -29.4561  -15.4833   23.0693 H   0  0  0  0  0  0
  -32.5240  -16.6827   21.3570 H   0  0  0  0  0  0
  -31.5133  -18.0910   21.5193 H   0  0  0  0  0  0
  -31.7721  -17.3914   19.9325 H   0  0  0  0  0  0
  -30.8222  -24.5641   19.0094 H   0  0  0  0  0  0
  -30.6062  -25.1579   20.6503 H   0  0  0  0  0  0
  -30.6079  -26.2621   19.2837 H   0  0  0  0  0  0
  -29.0178  -24.5377   17.4131 H   0  0  0  0  0  0
  -28.6070  -26.2322   17.6098 H   0  0  0  0  0  0
  -27.3776  -24.9829   17.7682 H   0  0  0  0  0  0
  -29.9601  -22.5912   19.0470 H   0  0  0  0  0  0
  -30.1748  -22.5656   20.7376 H   0  0  0  0  0  0
  -28.0332  -23.7175   21.1087 H   0  0  0  0  0  0
  -27.4380  -23.3154   19.5418 H   0  0  0  0  0  0
  -28.5529  -20.6068   22.6537 H   0  0  0  0  0  0
  -29.3718  -19.0713   22.7603 H   0  0  0  0  0  0
  -28.8191  -16.6030   19.7532 H   0  0  0  0  0  0
  1 25  1  0  0  0
  1 30  2  0  0  0
  1 83  1  0  0  0
  2  3  1  0  0  0
  2 25  1  0  0  0
  2 88  1  0  0  0
  2 89  1  0  0  0
  3  4  1  0  0  0
  3 90  1  0  0  0
  3 91  1  0  0  0
  4  5  1  0  0  0
  4 92  1  0  0  0
  4 93  1  0  0  0
  5  6  1  0  0  0
  5 26  1  0  0  0
  5 94  1  0  0  0
  6 25  1  0  0  0
  6 95  1  0  0  0
  6 96  1  0  0  0
  7  8  2  0  0  0
  7 26  1  0  0  0
  7 29  1  0  0  0
  8  9  1  0  0  0
  8 22  1  0  0  0
  9 10  1  0  0  0
  9 27  2  0  0  0
 10 11  2  0  0  0
 10 15  1  0  0  0
 11 12  1  0  0  0
 11 97  1  0  0  0
 12 13  2  0  0  0
 12 98  1  0  0  0
 13 14  1  0  0  0
 13 31  1  0  0  0
 14 15  2  0  0  0
 14 99  1  0  0  0
 15100  1  0  0  0
 16 17  2  0  0  0
 16 21  1  0  0  0
 16 31  1  0  0  0
 17 18  1  0  0  0
 17101  1  0  0  0
 18 19  2  0  0  0
 18102  1  0  0  0
 19 20  1  0  0  0
 19 24  1  0  0  0
 20 21  2  0  0  0
 20103  1  0  0  0
 21 23  1  0  0  0
 22 28  1  0  0  0
 22 32  2  0  0  0
 26 27  1  0  0  0
 28104  1  0  0  0
 28105  1  0  0  0
 29106  1  0  0  0
 29107  1  0  0  0
 33 34  1  0  0  0
 33 66  1  0  0  0
 33 70  2  0  0  0
 34 36  1  0  0  0
 34 59  1  0  0  0
 34108  1  0  0  0
 35 44  2  0  0  0
 35 45  1  0  0  0
 35 68  1  0  0  0
 36 56  1  0  0  0
 36109  1  0  0  0
 37 39  1  0  0  0
 37 47  1  0  0  0
 37 66  1  0  0  0
 37110  1  0  0  0
 38 43  2  0  0  0
 38 46  1  0  0  0
 38 47  1  0  0  0
 39 64  1  0  0  0
 39 67  2  0  0  0
 40 52  1  0  0  0
 40 53  2  0  0  0
 40 58  1  0  0  0
 41111  1  0  0  0
 41112  1  0  0  0
 41113  1  0  0  0
 41 48  1  0  0  0
 42 43  1  0  0  0
 42 66  1  0  0  0
 42114  1  0  0  0
 42115  1  0  0  0
 43 44  1  0  0  0
 44116  1  0  0  0
 45 46  2  0  0  0
 45117  1  0  0  0
 46118  1  0  0  0
 47119  1  0  0  0
 47120  1  0  0  0
 48 56  1  0  0  0
 48 65  1  0  0  0
 48121  1  0  0  0
 49 50  1  0  0  0
 49 53  1  0  0  0
 49 64  1  0  0  0
 49122  1  0  0  0
 50 51  1  0  0  0
 50123  1  0  0  0
 50124  1  0  0  0
 51 52  1  0  0  0
 51125  1  0  0  0
 51126  1  0  0  0
 52127  1  0  0  0
 52128  1  0  0  0
 53 54  1  0  0  0
 54 55  2  0  0  0
 54129  1  0  0  0
 55 57  1  0  0  0
 55130  1  0  0  0
 56 69  2  0  0  0
 57 58  2  0  0  0
 57131  1  0  0  0
 58132  1  0  0  0
 59 60  1  0  0  0
 59 61  1  0  0  0
 59 62  1  0  0  0
 60133  1  0  0  0
 60134  1  0  0  0
 60135  1  0  0  0
 61136  1  0  0  0
 61137  1  0  0  0
 61138  1  0  0  0
 62139  1  0  0  0
 62140  1  0  0  0
 62141  1  0  0  0
 63 65  1  0  0  0
 63142  1  0  0  0
 63143  1  0  0  0
 63144  1  0  0  0
 64145  1  0  0  0
 65146  1  0  0  0
 68 84  1  0  0  0
 71 79  1  0  0  0
 71 85  2  0  0  0
 71 87  1  0  0  0
 72 82  1  0  0  0
 72 86  2  0  0  0
 72 87  1  0  0  0
 73 81  1  0  0  0
 73147  1  0  0  0
 73148  1  0  0  0
 73149  1  0  0  0
 74150  1  0  0  0
 74151  1  0  0  0
 74152  1  0  0  0
 74 82  1  0  0  0
 75153  1  0  0  0
 75154  1  0  0  0
 75155  1  0  0  0
 75 83  1  0  0  0
 76 83  1  0  0  0
 76156  1  0  0  0
 76157  1  0  0  0
 76158  1  0  0  0
 77159  1  0  0  0
 77160  1  0  0  0
 77161  1  0  0  0
 77 84  1  0  0  0
 78 84  1  0  0  0
 78162  1  0  0  0
 78163  1  0  0  0
 78164  1  0  0  0
 79 80  1  0  0  0
 79165  1  0  0  0
 79166  1  0  0  0
 80 84  1  0  0  0
 80167  1  0  0  0
 80168  1  0  0  0
 81 87  1  0  0  0
 81169  1  0  0  0
 81170  1  0  0  0
 82 83  1  0  0  0
 82171  1  0  0  0
 85 86  1  0  0  0
M  ISO  4   1 100  68 101  83 100  84 101
M  END
> <chiral flag>
0

> <version>
0

> <s_m_source_file>
/data/baiqing/PycharmProjects/Reinvent-master-3.2/result/LINK_invent/BTK/process_docking_weight1_custom_sum_contain_oxygen_bond_distance_aromatic_linkinvent_7_9_3/rearranged_h_0069.sdf

> <i_m_source_file_index>
32

> <r_mmod_Potential_Energy-OPLS-2005>
351.311553955078

> <r_mmod_Stretch_Energy-OPLS-2005>
167.885833740234

> <r_mmod_Bend_Energy-OPLS-2005>
316.930236816406

> <r_mmod_Torsional_Energy-OPLS-2005>
219.550308227539

> <r_mmod_Improper_Torsional_Energy-OPLS-2005>
4.55985879898071

> <r_mmod_Van_der_Waal_Energy-OPLS-2005>
125.004318237305

> <r_mmod_Electrostatic_Energy-OPLS-2005>
-362.315185546875

> <r_mmod_Solvation_Energy-OPLS-2005>
-207.451370239258

> <b_mmod_Minimization_Converged-OPLS-2005>
0

> <r_mmod_RMS_Derivative-OPLS-2005>
4.45982360839844

$$$$
32
                    3D
 Structure written by MMmdl.
169177  0  0  1  0            999 V2000
  -30.7271  -14.6646   20.5362 C   0  0  0  0  0  0
  -30.4063  -12.4241   19.4844 C   0  0  0  0  0  0
  -29.5271  -12.4935   18.2114 C   0  0  0  0  0  0
  -28.0403  -12.8148   18.4976 C   0  0  0  0  0  0
  -27.7102  -12.7474   19.9897 C   0  0  2  0  0  0
  -28.6875  -13.2871   21.0265 C   0  0  0  0  0  0
  -25.3101  -13.7510   20.5522 C   0  0  0  0  0  0
  -24.1875  -13.0393   20.9063 C   0  0  0  0  0  0
  -24.5729  -11.6688   20.8831 C   0  0  0  0  0  0
  -23.8424  -10.4250   21.0563 C   0  0  0  0  0  0
  -24.3205   -9.4201   21.9265 C   0  0  0  0  0  0
  -23.6085   -8.2147   22.0745 C   0  0  0  0  0  0
  -22.4089   -8.0153   21.3514 C   0  0  0  0  0  0
  -21.9600   -9.0075   20.4632 C   0  0  0  0  0  0
  -22.6727  -10.2052   20.3112 C   0  0  0  0  0  0
  -21.6799   -6.0658   22.5282 C   0  0  0  0  0  0
  -21.3972   -6.5594   23.8207 C   0  0  0  0  0  0
  -21.3634   -5.6754   24.9177 C   0  0  0  0  0  0
  -21.6038   -4.3018   24.7231 C   0  0  0  0  0  0
  -21.8834   -3.8101   23.4363 C   0  0  0  0  0  0
  -21.9186   -4.6904   22.3415 C   0  0  0  0  0  0
  -22.8030  -13.5555   21.1769 C   0  0  0  0  0  0
  -22.1667   -4.2102   21.0991 F   0  0  0  0  0  0
  -21.5618   -3.4498   25.7739 F   0  0  0  0  0  0
  -30.0112  -13.5031   20.4222 N   0  0  0  0  0  0
  -26.3042  -12.7832   20.3629 N   0  0  0  0  0  0
  -25.8358  -11.5502   20.5926 N   0  0  0  0  0  0
  -22.0541  -12.8645   22.0310 N   0  0  0  0  0  0
  -25.5511  -15.1113   20.3815 N   0  0  0  0  0  0
  -31.8295  -14.7826   19.9965 O   0  0  0  0  0  0
  -21.6544   -6.8726   21.4211 O   0  0  0  0  0  0
  -22.3871  -14.5910   20.6611 O   0  0  0  0  0  0
  -24.6236  -31.8596   23.2033 C   0  0  0  0  0  0
  -25.9086  -32.4781   23.8358 C   0  0  1  0  0  0
  -27.2261  -27.3344   20.1174 C   0  0  0  0  0  0
  -25.5907  -33.8582   24.2292 N   0  0  0  0  0  0
  -23.4162  -30.4823   21.5433 C   0  0  2  0  0  0
  -24.8631  -28.9367   20.1102 C   0  0  0  0  0  0
  -22.7463  -29.4610   22.4927 C   0  0  0  0  0  0
  -18.0285  -28.1351   22.8491 C   0  0  0  0  0  0
  -24.1486  -36.7297   23.2641 C   0  0  0  0  0  0
  -25.9540  -30.7939   21.3722 C   0  0  0  0  0  0
  -26.0264  -29.4214   20.7185 C   0  0  0  0  0  0
  -27.2077  -28.6291   20.7146 C   0  0  0  0  0  0
  -26.0419  -26.8937   19.4844 C   0  0  0  0  0  0
  -24.8721  -27.6791   19.4854 C   0  0  0  0  0  0
  -23.6307  -29.8157   20.1585 C   0  0  0  0  0  0
  -25.4113  -36.3092   24.0337 C   0  0  1  0  0  0
  -20.5881  -28.3685   23.1309 C   0  0  2  0  0  0
  -20.6798  -26.9409   22.5428 C   0  0  0  0  0  0
  -19.5784  -26.6361   21.5226 C   0  0  0  0  0  0
  -18.1952  -26.7888   22.1627 C   0  0  0  0  0  0
  -19.1528  -28.8835   23.2890 C   0  0  0  0  0  0
  -18.9449  -30.1436   23.8899 C   0  0  0  0  0  0
  -17.6453  -30.6574   24.0543 C   0  0  0  0  0  0
  -25.9050  -34.9452   23.5124 C   0  0  0  0  0  0
  -16.5349  -29.9067   23.6314 C   0  0  0  0  0  0
  -16.7272  -28.6477   23.0346 C   0  0  0  0  0  0
  -26.4482  -31.6588   25.0718 C   0  0  0  0  0  0
  -25.3726  -31.3748   26.1463 C   0  0  0  0  0  0
  -27.0331  -30.3018   24.6150 C   0  0  0  0  0  0
  -27.6041  -32.4317   25.7497 C   0  0  0  0  0  0
  -27.5575  -37.1815   24.8464 C   0  0  0  0  0  0
  -21.4170  -29.3039   22.3698 N   0  0  0  0  0  0
  -26.4289  -37.3789   23.9406 N   0  0  0  0  0  0
  -24.6830  -31.0631   22.0968 N   0  0  0  0  0  0
  -23.4204  -28.8148   23.2988 O   0  0  0  0  0  0
  -28.3786  -26.5462   20.1779 O   0  0  0  0  0  0
  -26.5613  -34.8913   22.4686 O   0  0  0  0  0  0
  -23.5406  -32.1367   23.7386 O   0  0  0  0  0  0
  -27.9237  -20.2703   21.1837 C   0  0  0  0  0  0
  -29.8492  -22.0011   20.4165 C   0  0  0  0  0  0
  -29.2405  -19.7820   20.9544 C   0  0  0  0  0  0
  -28.5460  -22.5156   20.7449 C   0  0  0  0  0  0
  -26.7945  -19.3680   21.6435 C   0  0  0  0  0  0
  -31.0014  -22.8748   19.9563 C   0  0  0  0  0  0
  -28.9957  -17.0841   19.3158 C   0  0  0  0  0  0
  -28.8628  -24.5159   22.2936 C   0  0  0  0  0  0
  -26.6268  -24.1425   21.3188 C   0  0  0  0  0  0
  -30.0890  -15.7257   22.5934 C   0  0  0  0  0  0
  -29.7065  -18.3620   21.4504 C   0  0  0  0  0  0
  -28.4150  -25.1041   19.8476 C   0  0  0  0  0  0
  -30.0039  -17.1304   20.4783 C   0  0  1  0  0  0
  -28.1469  -24.0445   21.0100 C   0  0  0  0  0  0
  -30.1814  -20.6701   20.5264 N   0  0  0  0  0  0
  -27.6025  -21.5915   21.0912 N   0  0  0  0  0  0
  -30.1152  -15.7527   21.1218 N   0  0  0  0  0  0
  -31.4622  -12.4653   19.2124 H   0  0  0  0  0  0
  -30.2783  -11.4633   19.9856 H   0  0  0  0  0  0
  -29.6045  -11.5449   17.6773 H   0  0  0  0  0  0
  -29.9310  -13.2456   17.5324 H   0  0  0  0  0  0
  -27.3938  -12.1466   17.9270 H   0  0  0  0  0  0
  -27.8164  -13.8207   18.1434 H   0  0  0  0  0  0
  -27.9796  -11.6933   20.1082 H   0  0  0  0  0  0
  -28.7832  -12.6025   21.8708 H   0  0  0  0  0  0
  -28.2452  -14.1932   21.4369 H   0  0  0  0  0  0
  -25.2340   -9.5771   22.4821 H   0  0  0  0  0  0
  -23.9877   -7.4540   22.7424 H   0  0  0  0  0  0
  -21.0554   -8.8486   19.8937 H   0  0  0  0  0  0
  -22.3137  -10.9574   19.6233 H   0  0  0  0  0  0
  -21.1954   -7.6098   23.9689 H   0  0  0  0  0  0
  -21.1448   -6.0489   25.9075 H   0  0  0  0  0  0
  -22.0649   -2.7570   23.2867 H   0  0  0  0  0  0
  -22.3998  -12.0245   22.4718 H   0  0  0  0  0  0
  -21.1200  -13.1823   22.2473 H   0  0  0  0  0  0
  -24.8246  -15.8118   20.4750 H   0  0  0  0  0  0
  -26.4395  -15.4879   20.0770 H   0  0  0  0  0  0
  -26.7147  -32.5459   23.1102 H   0  0  0  0  0  0
  -25.0086  -33.9735   25.0461 H   0  0  0  0  0  0
  -22.7055  -31.2997   21.4016 H   0  0  0  0  0  0
  -23.3749  -35.9631   23.3318 H   0  0  0  0  0  0
  -24.3583  -36.8898   22.2052 H   0  0  0  0  0  0
  -23.7233  -37.6505   23.6647 H   0  0  0  0  0  0
  -26.0795  -31.5526   20.5991 H   0  0  0  0  0  0
  -26.8385  -30.8492   21.9950 H   0  0  0  0  0  0
  -28.1012  -28.9941   21.2019 H   0  0  0  0  0  0
  -25.9897  -25.9314   18.9997 H   0  0  0  0  0  0
  -23.9788  -27.3045   19.0049 H   0  0  0  0  0  0
  -23.7478  -30.5898   19.3992 H   0  0  0  0  0  0
  -22.7527  -29.2405   19.8609 H   0  0  0  0  0  0
  -25.1290  -36.1961   25.0832 H   0  0  0  0  0  0
  -20.9958  -28.3274   24.1438 H   0  0  0  0  0  0
  -20.5717  -26.2285   23.3624 H   0  0  0  0  0  0
  -21.6666  -26.7449   22.1226 H   0  0  0  0  0  0
  -19.6968  -25.6273   21.1255 H   0  0  0  0  0  0
  -19.6720  -27.3166   20.6752 H   0  0  0  0  0  0
  -17.4226  -26.6609   21.4025 H   0  0  0  0  0  0
  -18.0373  -26.0005   22.9005 H   0  0  0  0  0  0
  -19.7924  -30.7246   24.2274 H   0  0  0  0  0  0
  -17.5014  -31.6270   24.5115 H   0  0  0  0  0  0
  -15.5354  -30.2982   23.7629 H   0  0  0  0  0  0
  -15.8666  -28.0807   22.7056 H   0  0  0  0  0  0
  -24.5878  -30.7108   25.7813 H   0  0  0  0  0  0
  -24.8949  -32.2939   26.4874 H   0  0  0  0  0  0
  -25.8059  -30.8939   27.0244 H   0  0  0  0  0  0
  -26.2914  -29.6779   24.1144 H   0  0  0  0  0  0
  -27.4023  -29.7250   25.4640 H   0  0  0  0  0  0
  -27.8776  -30.4328   23.9378 H   0  0  0  0  0  0
  -27.2638  -33.3600   26.2102 H   0  0  0  0  0  0
  -28.3850  -32.6905   25.0332 H   0  0  0  0  0  0
  -28.0704  -31.8419   26.5402 H   0  0  0  0  0  0
  -28.2606  -38.0098   24.7501 H   0  0  0  0  0  0
  -28.1055  -36.2632   24.6307 H   0  0  0  0  0  0
  -27.2288  -37.1479   25.8864 H   0  0  0  0  0  0
  -20.9331  -29.8768   21.6929 H   0  0  0  0  0  0
  -26.0173  -38.2863   24.1415 H   0  0  0  0  0  0
  -26.8097  -18.4199   21.1058 H   0  0  0  0  0  0
  -25.8213  -19.8282   21.4702 H   0  0  0  0  0  0
  -26.8884  -19.1644   22.7100 H   0  0  0  0  0  0
  -30.8415  -23.1923   18.9257 H   0  0  0  0  0  0
  -31.9446  -22.3282   19.9875 H   0  0  0  0  0  0
  -31.1300  -23.7578   20.5759 H   0  0  0  0  0  0
  -28.9901  -18.0235   18.7611 H   0  0  0  0  0  0
  -27.9829  -16.9070   19.6765 H   0  0  0  0  0  0
  -29.2362  -16.2962   18.6014 H   0  0  0  0  0  0
  -28.6658  -23.8421   23.1287 H   0  0  0  0  0  0
  -28.5251  -25.5084   22.5942 H   0  0  0  0  0  0
  -29.9413  -24.5759   22.1713 H   0  0  0  0  0  0
  -26.3281  -25.1577   21.5752 H   0  0  0  0  0  0
  -26.0232  -23.8275   20.4678 H   0  0  0  0  0  0
  -26.3377  -23.5261   22.1710 H   0  0  0  0  0  0
  -30.7978  -16.4381   23.0152 H   0  0  0  0  0  0
  -30.3535  -14.7494   23.0076 H   0  0  0  0  0  0
  -29.0923  -15.9597   22.9685 H   0  0  0  0  0  0
  -28.9549  -18.0505   22.1728 H   0  0  0  0  0  0
  -30.5987  -18.5352   22.0513 H   0  0  0  0  0  0
  -27.8133  -24.8694   18.9700 H   0  0  0  0  0  0
  -29.4329  -24.9635   19.4970 H   0  0  0  0  0  0
  -30.9757  -17.3387   20.0265 H   0  0  0  0  0  0
  1 25  1  0  0  0
  1 30  2  0  0  0
  1 87  1  0  0  0
  2  3  1  0  0  0
  2 25  1  0  0  0
  2 88  1  0  0  0
  2 89  1  0  0  0
  3  4  1  0  0  0
  3 90  1  0  0  0
  3 91  1  0  0  0
  4  5  1  0  0  0
  4 92  1  0  0  0
  4 93  1  0  0  0
  5  6  1  0  0  0
  5 26  1  0  0  0
  5 94  1  0  0  0
  6 25  1  0  0  0
  6 95  1  0  0  0
  6 96  1  0  0  0
  7  8  2  0  0  0
  7 26  1  0  0  0
  7 29  1  0  0  0
  8  9  1  0  0  0
  8 22  1  0  0  0
  9 10  1  0  0  0
  9 27  2  0  0  0
 10 11  2  0  0  0
 10 15  1  0  0  0
 11 12  1  0  0  0
 11 97  1  0  0  0
 12 13  2  0  0  0
 12 98  1  0  0  0
 13 14  1  0  0  0
 13 31  1  0  0  0
 14 15  2  0  0  0
 14 99  1  0  0  0
 15100  1  0  0  0
 16 17  2  0  0  0
 16 21  1  0  0  0
 16 31  1  0  0  0
 17 18  1  0  0  0
 17101  1  0  0  0
 18 19  2  0  0  0
 18102  1  0  0  0
 19 20  1  0  0  0
 19 24  1  0  0  0
 20 21  2  0  0  0
 20103  1  0  0  0
 21 23  1  0  0  0
 22 28  1  0  0  0
 22 32  2  0  0  0
 26 27  1  0  0  0
 28104  1  0  0  0
 28105  1  0  0  0
 29106  1  0  0  0
 29107  1  0  0  0
 33 34  1  0  0  0
 33 66  1  0  0  0
 33 70  2  0  0  0
 34 36  1  0  0  0
 34 59  1  0  0  0
 34108  1  0  0  0
 35 44  2  0  0  0
 35 45  1  0  0  0
 35 68  1  0  0  0
 36 56  1  0  0  0
 36109  1  0  0  0
 37 39  1  0  0  0
 37 47  1  0  0  0
 37 66  1  0  0  0
 37110  1  0  0  0
 38 43  2  0  0  0
 38 46  1  0  0  0
 38 47  1  0  0  0
 39 64  1  0  0  0
 39 67  2  0  0  0
 40 52  1  0  0  0
 40 53  2  0  0  0
 40 58  1  0  0  0
 41111  1  0  0  0
 41112  1  0  0  0
 41113  1  0  0  0
 41 48  1  0  0  0
 42 43  1  0  0  0
 42 66  1  0  0  0
 42114  1  0  0  0
 42115  1  0  0  0
 43 44  1  0  0  0
 44116  1  0  0  0
 45 46  2  0  0  0
 45117  1  0  0  0
 46118  1  0  0  0
 47119  1  0  0  0
 47120  1  0  0  0
 48 56  1  0  0  0
 48 65  1  0  0  0
 48121  1  0  0  0
 49 50  1  0  0  0
 49 53  1  0  0  0
 49 64  1  0  0  0
 49122  1  0  0  0
 50 51  1  0  0  0
 50123  1  0  0  0
 50124  1  0  0  0
 51 52  1  0  0  0
 51125  1  0  0  0
 51126  1  0  0  0
 52127  1  0  0  0
 52128  1  0  0  0
 53 54  1  0  0  0
 54 55  2  0  0  0
 54129  1  0  0  0
 55 57  1  0  0  0
 55130  1  0  0  0
 56 69  2  0  0  0
 57 58  2  0  0  0
 57131  1  0  0  0
 58132  1  0  0  0
 59 60  1  0  0  0
 59 61  1  0  0  0
 59 62  1  0  0  0
 60133  1  0  0  0
 60134  1  0  0  0
 60135  1  0  0  0
 61136  1  0  0  0
 61137  1  0  0  0
 61138  1  0  0  0
 62139  1  0  0  0
 62140  1  0  0  0
 62141  1  0  0  0
 63 65  1  0  0  0
 63142  1  0  0  0
 63143  1  0  0  0
 63144  1  0  0  0
 64145  1  0  0  0
 65146  1  0  0  0
 68 82  1  0  0  0
 71 73  2  0  0  0
 71 75  1  0  0  0
 71 86  1  0  0  0
 72 74  1  0  0  0
 72 76  1  0  0  0
 72 85  2  0  0  0
 73 81  1  0  0  0
 73 85  1  0  0  0
 74 84  1  0  0  0
 74 86  2  0  0  0
 75147  1  0  0  0
 75148  1  0  0  0
 75149  1  0  0  0
 76150  1  0  0  0
 76151  1  0  0  0
 76152  1  0  0  0
 77153  1  0  0  0
 77154  1  0  0  0
 77155  1  0  0  0
 77 83  1  0  0  0
 78156  1  0  0  0
 78157  1  0  0  0
 78158  1  0  0  0
 78 84  1  0  0  0
 79 84  1  0  0  0
 79159  1  0  0  0
 79160  1  0  0  0
 79161  1  0  0  0
 80 87  1  0  0  0
 80162  1  0  0  0
 80163  1  0  0  0
 80164  1  0  0  0
 81 83  1  0  0  0
 81165  1  0  0  0
 81166  1  0  0  0
 82 84  1  0  0  0
 82167  1  0  0  0
 82168  1  0  0  0
 83 87  1  0  0  0
 83169  1  0  0  0
M  ISO  4   1 100  68 101  82 101  87 100
M  END
> <chiral flag>
0

> <version>
0

> <s_m_source_file>
/data/baiqing/PycharmProjects/Reinvent-master-3.2/result/LINK_invent/BTK/process_docking_weight1_custom_sum_contain_oxygen_bond_distance_aromatic_linkinvent_7_9_3/rearranged_h_0069.sdf

> <i_m_source_file_index>
33

> <r_mmod_Potential_Energy-OPLS-2005>
451.047760009766

> <r_mmod_Stretch_Energy-OPLS-2005>
93.7172698974609

> <r_mmod_Bend_Energy-OPLS-2005>
214.537094116211

> <r_mmod_Torsional_Energy-OPLS-2005>
315.081512451172

> <r_mmod_Improper_Torsional_Energy-OPLS-2005>
7.43763542175293

> <r_mmod_Van_der_Waal_Energy-OPLS-2005>
169.002319335938

> <r_mmod_Electrostatic_Energy-OPLS-2005>
-259.31787109375

> <r_mmod_Solvation_Energy-OPLS-2005>
-199.180908203125

> <b_mmod_Minimization_Converged-OPLS-2005>
0

> <r_mmod_RMS_Derivative-OPLS-2005>
2.24598670005798

$$$$
33
                    3D
 Structure written by MMmdl.
161169  0  0  1  0            999 V2000
  -30.6678  -14.6004   20.4971 C   0  0  0  0  0  0
  -30.4315  -12.3717   19.4536 C   0  0  0  0  0  0
  -29.5101  -12.5059   18.2248 C   0  0  0  0  0  0
  -28.0323  -12.3537   18.6324 C   0  0  0  0  0  0
  -27.6580  -13.2201   19.8629 C   0  0  2  0  0  0
  -28.6992  -13.0809   20.9931 C   0  0  0  0  0  0
  -25.2585  -13.8185   20.5623 C   0  0  0  0  0  0
  -24.1864  -13.0466   20.9184 C   0  0  0  0  0  0
  -24.6439  -11.6932   20.8741 C   0  0  0  0  0  0
  -23.9098  -10.4315   21.0406 C   0  0  0  0  0  0
  -24.3650   -9.4223   21.9171 C   0  0  0  0  0  0
  -23.6322   -8.2265   22.0741 C   0  0  0  0  0  0
  -22.4288   -8.0300   21.3550 C   0  0  0  0  0  0
  -21.9930   -9.0275   20.4642 C   0  0  0  0  0  0
  -22.7272  -10.2154   20.3052 C   0  0  0  0  0  0
  -21.6864   -6.0738   22.5270 C   0  0  0  0  0  0
  -21.4016   -6.5630   23.8210 C   0  0  0  0  0  0
  -21.3685   -5.6789   24.9175 C   0  0  0  0  0  0
  -21.6049   -4.3053   24.7210 C   0  0  0  0  0  0
  -21.8832   -3.8139   23.4341 C   0  0  0  0  0  0
  -21.9199   -4.6958   22.3397 C   0  0  0  0  0  0
  -22.7866  -13.5223   21.1847 C   0  0  0  0  0  0
  -22.1654   -4.2154   21.0969 F   0  0  0  0  0  0
  -21.5660   -3.4527   25.7725 F   0  0  0  0  0  0
  -30.0162  -13.4001   20.4239 N   0  0  0  0  0  0
  -26.3027  -12.9386   20.3292 N   0  0  0  0  0  0
  -25.9383  -11.6543   20.5796 N   0  0  0  0  0  0
  -22.0502  -12.8224   22.0414 N   0  0  0  0  0  0
  -25.4277  -15.1907   20.3991 N   0  0  0  0  0  0
  -31.8225  -14.7071   20.0827 O   0  0  0  0  0  0
  -21.6660   -6.8890   21.4241 O   0  0  0  0  0  0
  -22.3543  -14.5534   20.6694 O   0  0  0  0  0  0
  -24.6202  -31.8601   23.2051 C   0  0  0  0  0  0
  -25.9064  -32.4780   23.8380 C   0  0  1  0  0  0
  -27.2176  -27.3542   20.1006 C   0  0  0  0  0  0
  -25.5898  -33.8585   24.2299 N   0  0  0  0  0  0
  -23.4141  -30.4830   21.5468 C   0  0  2  0  0  0
  -24.8572  -28.9367   20.1184 C   0  0  0  0  0  0
  -22.7443  -29.4611   22.4948 C   0  0  0  0  0  0
  -18.0278  -28.1348   22.8497 C   0  0  0  0  0  0
  -24.1490  -36.7265   23.2635 C   0  0  0  0  0  0
  -25.9531  -30.8005   21.3741 C   0  0  0  0  0  0
  -26.0262  -29.4323   20.7097 C   0  0  0  0  0  0
  -27.2140  -28.6539   20.6855 C   0  0  0  0  0  0
  -26.0296  -26.8926   19.4983 C   0  0  0  0  0  0
  -24.8572  -27.6730   19.5060 C   0  0  0  0  0  0
  -23.6250  -29.8124   20.1653 C   0  0  0  0  0  0
  -25.4122  -36.3083   24.0328 C   0  0  1  0  0  0
  -20.5881  -28.3646   23.1289 C   0  0  2  0  0  0
  -20.6760  -26.9377   22.5388 C   0  0  0  0  0  0
  -19.5748  -26.6364   21.5179 C   0  0  0  0  0  0
  -18.1932  -26.7903   22.1604 C   0  0  0  0  0  0
  -19.1533  -28.8816   23.2899 C   0  0  0  0  0  0
  -18.9445  -30.1421   23.8915 C   0  0  0  0  0  0
  -17.6443  -30.6567   24.0551 C   0  0  0  0  0  0
  -25.9047  -34.9442   23.5119 C   0  0  0  0  0  0
  -16.5336  -29.9059   23.6325 C   0  0  0  0  0  0
  -16.7256  -28.6456   23.0384 C   0  0  0  0  0  0
  -26.4492  -31.6594   25.0732 C   0  0  0  0  0  0
  -25.3727  -31.3716   26.1455 C   0  0  0  0  0  0
  -27.0355  -30.3032   24.6174 C   0  0  0  0  0  0
  -27.6087  -32.4321   25.7466 C   0  0  0  0  0  0
  -27.5603  -37.1779   24.8463 C   0  0  0  0  0  0
  -21.4159  -29.3020   22.3680 N   0  0  0  0  0  0
  -26.4309  -37.3762   23.9409 N   0  0  0  0  0  0
  -24.6810  -31.0638   22.0985 N   0  0  0  0  0  0
  -23.4175  -28.8130   23.3004 O   0  0  0  0  0  0
  -28.3567  -26.5579   20.0969 O   0  0  0  0  0  0
  -26.5619  -34.8901   22.4684 O   0  0  0  0  0  0
  -23.5375  -32.1357   23.7412 O   0  0  0  0  0  0
  -28.6092  -17.7249   19.0448 C   0  0  0  0  0  0
  -29.3571  -18.1503   20.1692 C   0  0  0  0  0  0
  -27.7244  -19.8516   18.7831 C   0  0  0  0  0  0
  -28.5057  -20.3358   19.8682 C   0  0  0  0  0  0
  -26.7111  -20.7265   18.0744 C   0  0  0  0  0  0
  -32.5703  -17.1071   22.0882 C   0  0  0  0  0  0
  -31.7366  -17.5358   20.8695 C   0  0  0  0  0  0
  -28.2425  -24.0800   19.3068 C   0  0  0  0  0  0
  -28.2375  -25.1409   20.4652 C   0  0  0  0  0  0
  -28.9963  -22.7015   19.5000 C   0  0  0  0  0  0
  -30.2377  -17.1609   20.9951 C   0  0  2  0  0  0
  -27.7927  -18.5636   18.3607 N   0  0  0  0  0  0
  -29.2998  -19.4680   20.5723 N   0  0  0  0  0  0
  -29.9307  -15.6840   20.8906 N   0  0  0  0  0  0
  -28.4121  -21.6561   20.3247 O   0  0  0  0  0  0
  -31.4741  -12.4769   19.1517 H   0  0  0  0  0  0
  -30.3548  -11.3789   19.8979 H   0  0  0  0  0  0
  -29.7749  -11.7623   17.4725 H   0  0  0  0  0  0
  -29.6615  -13.4790   17.7557 H   0  0  0  0  0  0
  -27.8602  -11.2980   18.8520 H   0  0  0  0  0  0
  -27.3881  -12.6085   17.7907 H   0  0  0  0  0  0
  -27.6822  -14.2573   19.5278 H   0  0  0  0  0  0
  -28.7026  -12.0659   21.3909 H   0  0  0  0  0  0
  -28.4524  -13.7306   21.8337 H   0  0  0  0  0  0
  -25.2805   -9.5708   22.4741 H   0  0  0  0  0  0
  -24.0043   -7.4659   22.7438 H   0  0  0  0  0  0
  -21.0880   -8.8822   19.8924 H   0  0  0  0  0  0
  -22.3748  -10.9710   19.6171 H   0  0  0  0  0  0
  -21.1979   -7.6133   23.9718 H   0  0  0  0  0  0
  -21.1497   -6.0503   25.9090 H   0  0  0  0  0  0
  -22.0579   -2.7593   23.2834 H   0  0  0  0  0  0
  -22.4090  -11.9926   22.4886 H   0  0  0  0  0  0
  -21.1097  -13.1247   22.2551 H   0  0  0  0  0  0
  -24.6556  -15.8392   20.5079 H   0  0  0  0  0  0
  -26.2662  -15.6302   20.0425 H   0  0  0  0  0  0
  -26.7122  -32.5448   23.1125 H   0  0  0  0  0  0
  -25.0094  -33.9766   25.0481 H   0  0  0  0  0  0
  -22.7056  -31.3016   21.4025 H   0  0  0  0  0  0
  -23.3783  -35.9570   23.3269 H   0  0  0  0  0  0
  -24.3570  -36.8907   22.2056 H   0  0  0  0  0  0
  -23.7220  -37.6442   23.6671 H   0  0  0  0  0  0
  -26.0987  -31.5750   20.6211 H   0  0  0  0  0  0
  -26.8264  -30.8328   22.0135 H   0  0  0  0  0  0
  -28.1223  -29.0336   21.1327 H   0  0  0  0  0  0
  -26.0040  -25.9275   19.0132 H   0  0  0  0  0  0
  -23.9581  -27.2910   19.0423 H   0  0  0  0  0  0
  -23.7409  -30.5831   19.4031 H   0  0  0  0  0  0
  -22.7475  -29.2355   19.8701 H   0  0  0  0  0  0
  -25.1323  -36.1924   25.0827 H   0  0  0  0  0  0
  -20.9992  -28.3187   24.1403 H   0  0  0  0  0  0
  -20.5618  -26.2253   23.3570 H   0  0  0  0  0  0
  -21.6630  -26.7383   22.1206 H   0  0  0  0  0  0
  -19.6904  -25.6270   21.1222 H   0  0  0  0  0  0
  -19.6696  -27.3162   20.6704 H   0  0  0  0  0  0
  -17.4199  -26.6663   21.4003 H   0  0  0  0  0  0
  -18.0334  -26.0020   22.8980 H   0  0  0  0  0  0
  -19.7915  -30.7235   24.2294 H   0  0  0  0  0  0
  -17.4987  -31.6253   24.5122 H   0  0  0  0  0  0
  -15.5336  -30.2965   23.7609 H   0  0  0  0  0  0
  -15.8657  -28.0732   22.7164 H   0  0  0  0  0  0
  -24.5872  -30.7120   25.7741 H   0  0  0  0  0  0
  -24.8946  -32.2881   26.4929 H   0  0  0  0  0  0
  -25.8019  -30.8815   27.0201 H   0  0  0  0  0  0
  -26.2928  -29.6744   24.1242 H   0  0  0  0  0  0
  -27.4137  -29.7330   25.4670 H   0  0  0  0  0  0
  -27.8760  -30.4354   23.9354 H   0  0  0  0  0  0
  -27.2747  -33.3633   26.2059 H   0  0  0  0  0  0
  -28.3870  -32.6857   25.0250 H   0  0  0  0  0  0
  -28.0782  -31.8421   26.5352 H   0  0  0  0  0  0
  -28.2603  -38.0097   24.7568 H   0  0  0  0  0  0
  -28.1136  -36.2638   24.6245 H   0  0  0  0  0  0
  -27.2312  -37.1356   25.8859 H   0  0  0  0  0  0
  -20.9297  -29.8714   21.6887 H   0  0  0  0  0  0
  -26.0193  -38.2837   24.1417 H   0  0  0  0  0  0
  -28.6388  -16.6993   18.7076 H   0  0  0  0  0  0
  -27.1921  -21.3312   17.3068 H   0  0  0  0  0  0
  -26.2208  -21.3901   18.7859 H   0  0  0  0  0  0
  -25.9295  -20.1247   17.6094 H   0  0  0  0  0  0
  -33.6327  -17.2795   21.9142 H   0  0  0  0  0  0
  -32.4394  -16.0509   22.3253 H   0  0  0  0  0  0
  -32.2873  -17.6791   22.9719 H   0  0  0  0  0  0
  -32.1599  -17.1534   19.9399 H   0  0  0  0  0  0
  -31.8386  -18.6198   20.7888 H   0  0  0  0  0  0
  -28.7269  -24.5702   18.4612 H   0  0  0  0  0  0
  -27.2246  -23.8953   18.9686 H   0  0  0  0  0  0
  -29.0908  -24.9367   21.1123 H   0  0  0  0  0  0
  -27.3595  -24.9715   21.0917 H   0  0  0  0  0  0
  -29.9986  -22.8979   19.8810 H   0  0  0  0  0  0
  -29.1647  -22.3011   18.4993 H   0  0  0  0  0  0
  -29.9642  -17.3912   22.0271 H   0  0  0  0  0  0
  -28.9998  -15.4452   21.1925 H   0  0  0  0  0  0
  1 25  1  0  0  0
  1 30  2  0  0  0
  1 84  1  0  0  0
  2  3  1  0  0  0
  2 25  1  0  0  0
  2 86  1  0  0  0
  2 87  1  0  0  0
  3  4  1  0  0  0
  3 88  1  0  0  0
  3 89  1  0  0  0
  4  5  1  0  0  0
  4 90  1  0  0  0
  4 91  1  0  0  0
  5  6  1  0  0  0
  5 26  1  0  0  0
  5 92  1  0  0  0
  6 25  1  0  0  0
  6 93  1  0  0  0
  6 94  1  0  0  0
  7  8  2  0  0  0
  7 26  1  0  0  0
  7 29  1  0  0  0
  8  9  1  0  0  0
  8 22  1  0  0  0
  9 10  1  0  0  0
  9 27  2  0  0  0
 10 11  2  0  0  0
 10 15  1  0  0  0
 11 12  1  0  0  0
 11 95  1  0  0  0
 12 13  2  0  0  0
 12 96  1  0  0  0
 13 14  1  0  0  0
 13 31  1  0  0  0
 14 15  2  0  0  0
 14 97  1  0  0  0
 15 98  1  0  0  0
 16 17  2  0  0  0
 16 21  1  0  0  0
 16 31  1  0  0  0
 17 18  1  0  0  0
 17 99  1  0  0  0
 18 19  2  0  0  0
 18100  1  0  0  0
 19 20  1  0  0  0
 19 24  1  0  0  0
 20 21  2  0  0  0
 20101  1  0  0  0
 21 23  1  0  0  0
 22 28  1  0  0  0
 22 32  2  0  0  0
 26 27  1  0  0  0
 28102  1  0  0  0
 28103  1  0  0  0
 29104  1  0  0  0
 29105  1  0  0  0
 33 34  1  0  0  0
 33 66  1  0  0  0
 33 70  2  0  0  0
 34 36  1  0  0  0
 34 59  1  0  0  0
 34106  1  0  0  0
 35 44  2  0  0  0
 35 45  1  0  0  0
 35 68  1  0  0  0
 36 56  1  0  0  0
 36107  1  0  0  0
 37 39  1  0  0  0
 37 47  1  0  0  0
 37 66  1  0  0  0
 37108  1  0  0  0
 38 43  2  0  0  0
 38 46  1  0  0  0
 38 47  1  0  0  0
 39 64  1  0  0  0
 39 67  2  0  0  0
 40 52  1  0  0  0
 40 53  2  0  0  0
 40 58  1  0  0  0
 41109  1  0  0  0
 41110  1  0  0  0
 41111  1  0  0  0
 41 48  1  0  0  0
 42 43  1  0  0  0
 42 66  1  0  0  0
 42112  1  0  0  0
 42113  1  0  0  0
 43 44  1  0  0  0
 44114  1  0  0  0
 45 46  2  0  0  0
 45115  1  0  0  0
 46116  1  0  0  0
 47117  1  0  0  0
 47118  1  0  0  0
 48 56  1  0  0  0
 48 65  1  0  0  0
 48119  1  0  0  0
 49 50  1  0  0  0
 49 53  1  0  0  0
 49 64  1  0  0  0
 49120  1  0  0  0
 50 51  1  0  0  0
 50121  1  0  0  0
 50122  1  0  0  0
 51 52  1  0  0  0
 51123  1  0  0  0
 51124  1  0  0  0
 52125  1  0  0  0
 52126  1  0  0  0
 53 54  1  0  0  0
 54 55  2  0  0  0
 54127  1  0  0  0
 55 57  1  0  0  0
 55128  1  0  0  0
 56 69  2  0  0  0
 57 58  2  0  0  0
 57129  1  0  0  0
 58130  1  0  0  0
 59 60  1  0  0  0
 59 61  1  0  0  0
 59 62  1  0  0  0
 60131  1  0  0  0
 60132  1  0  0  0
 60133  1  0  0  0
 61134  1  0  0  0
 61135  1  0  0  0
 61136  1  0  0  0
 62137  1  0  0  0
 62138  1  0  0  0
 62139  1  0  0  0
 63 65  1  0  0  0
 63140  1  0  0  0
 63141  1  0  0  0
 63142  1  0  0  0
 64143  1  0  0  0
 65144  1  0  0  0
 68 79  1  0  0  0
 71 72  2  0  0  0
 71 82  1  0  0  0
 71145  1  0  0  0
 72 81  1  0  0  0
 72 83  1  0  0  0
 73 74  1  0  0  0
 73 75  1  0  0  0
 73 82  2  0  0  0
 74 83  2  0  0  0
 74 85  1  0  0  0
 75146  1  0  0  0
 75147  1  0  0  0
 75148  1  0  0  0
 76 77  1  0  0  0
 76149  1  0  0  0
 76150  1  0  0  0
 76151  1  0  0  0
 77152  1  0  0  0
 77153  1  0  0  0
 77 81  1  0  0  0
 78 79  1  0  0  0
 78 80  1  0  0  0
 78154  1  0  0  0
 78155  1  0  0  0
 79156  1  0  0  0
 79157  1  0  0  0
 80 85  1  0  0  0
 80158  1  0  0  0
 80159  1  0  0  0
 81 84  1  0  0  0
 81160  1  0  0  0
 84161  1  0  0  0
M  ISO  4   1 100  68 101  79 101  84 100
M  END
> <chiral flag>
0

> <version>
0

> <s_m_source_file>
/data/baiqing/PycharmProjects/Reinvent-master-3.2/result/LINK_invent/BTK/process_docking_weight1_custom_sum_contain_oxygen_bond_distance_aromatic_linkinvent_7_9_3/rearranged_h_0069.sdf

> <i_m_source_file_index>
34

> <r_mmod_Potential_Energy-OPLS-2005>
52.8151626586914

> <r_mmod_Stretch_Energy-OPLS-2005>
68.2353744506836

> <r_mmod_Bend_Energy-OPLS-2005>
142.72785949707

> <r_mmod_Torsional_Energy-OPLS-2005>
239.810684204102

> <r_mmod_Improper_Torsional_Energy-OPLS-2005>
4.04272890090942

> <r_mmod_Van_der_Waal_Energy-OPLS-2005>
145.125411987305

> <r_mmod_Electrostatic_Energy-OPLS-2005>
-366.3310546875

> <r_mmod_Solvation_Energy-OPLS-2005>
-215.299194335938

> <b_mmod_Minimization_Converged-OPLS-2005>
0

> <r_mmod_RMS_Derivative-OPLS-2005>
3.53387188911438

$$$$
34
                    3D
 Structure written by MMmdl.
173181  0  0  1  0            999 V2000
  -30.7682  -14.4832   20.5746 C   0  0  0  0  0  0
  -30.3936  -12.3166   19.4412 C   0  0  0  0  0  0
  -29.4852  -12.5187   18.2114 C   0  0  0  0  0  0
  -28.0043  -12.3785   18.6115 C   0  0  0  0  0  0
  -27.6513  -13.2182   19.8666 C   0  0  2  0  0  0
  -28.6947  -13.0052   20.9862 C   0  0  0  0  0  0
  -25.2518  -13.8184   20.5679 C   0  0  0  0  0  0
  -24.1808  -13.0436   20.9186 C   0  0  0  0  0  0
  -24.6397  -11.6908   20.8750 C   0  0  0  0  0  0
  -23.9087  -10.4292   21.0420 C   0  0  0  0  0  0
  -24.3640   -9.4210   21.9196 C   0  0  0  0  0  0
  -23.6305   -8.2253   22.0771 C   0  0  0  0  0  0
  -22.4283   -8.0293   21.3563 C   0  0  0  0  0  0
  -21.9928   -9.0266   20.4656 C   0  0  0  0  0  0
  -22.7267  -10.2137   20.3071 C   0  0  0  0  0  0
  -21.6844   -6.0746   22.5291 C   0  0  0  0  0  0
  -21.4005   -6.5650   23.8224 C   0  0  0  0  0  0
  -21.3665   -5.6813   24.9187 C   0  0  0  0  0  0
  -21.6049   -4.3074   24.7242 C   0  0  0  0  0  0
  -21.8817   -3.8163   23.4361 C   0  0  0  0  0  0
  -21.9184   -4.6972   22.3415 C   0  0  0  0  0  0
  -22.7819  -13.5200   21.1842 C   0  0  0  0  0  0
  -22.1655   -4.2163   21.0991 F   0  0  0  0  0  0
  -21.5638   -3.4552   25.7755 F   0  0  0  0  0  0
  -30.0203  -13.3375   20.4482 N   0  0  0  0  0  0
  -26.2971  -12.9391   20.3336 N   0  0  0  0  0  0
  -25.9319  -11.6538   20.5755 N   0  0  0  0  0  0
  -22.0477  -12.8188   22.0404 N   0  0  0  0  0  0
  -25.4153  -15.1916   20.4077 N   0  0  0  0  0  0
  -31.9041  -14.4855   20.0971 O   0  0  0  0  0  0
  -21.6645   -6.8891   21.4260 O   0  0  0  0  0  0
  -22.3495  -14.5504   20.6673 O   0  0  0  0  0  0
  -24.6155  -31.8710   23.2165 C   0  0  0  0  0  0
  -25.9068  -32.4824   23.8428 C   0  0  1  0  0  0
  -27.2047  -27.4184   20.0696 C   0  0  0  0  0  0
  -25.5936  -33.8615   24.2352 N   0  0  0  0  0  0
  -23.3981  -30.5022   21.5592 C   0  0  2  0  0  0
  -24.8348  -28.9777   20.1107 C   0  0  0  0  0  0
  -22.7384  -29.4683   22.5008 C   0  0  0  0  0  0
  -18.0256  -28.1368   22.8481 C   0  0  0  0  0  0
  -24.1504  -36.7333   23.2633 C   0  0  0  0  0  0
  -25.9328  -30.8248   21.3775 C   0  0  0  0  0  0
  -25.9985  -29.4615   20.7188 C   0  0  0  0  0  0
  -27.1815  -28.6845   20.7055 C   0  0  0  0  0  0
  -26.0186  -26.9687   19.4396 C   0  0  0  0  0  0
  -24.8403  -27.7308   19.4715 C   0  0  0  0  0  0
  -23.6026  -29.8501   20.1691 C   0  0  0  0  0  0
  -25.4119  -36.3101   24.0325 C   0  0  1  0  0  0
  -20.5848  -28.3656   23.1330 C   0  0  2  0  0  0
  -20.6766  -26.9405   22.5409 C   0  0  0  0  0  0
  -19.5756  -26.6388   21.5197 C   0  0  0  0  0  0
  -18.1927  -26.7917   22.1602 C   0  0  0  0  0  0
  -19.1503  -28.8822   23.2902 C   0  0  0  0  0  0
  -18.9441  -30.1426   23.8915 C   0  0  0  0  0  0
  -17.6448  -30.6587   24.0553 C   0  0  0  0  0  0
  -25.9046  -34.9470   23.5128 C   0  0  0  0  0  0
  -16.5333  -29.9081   23.6333 C   0  0  0  0  0  0
  -16.7244  -28.6494   23.0354 C   0  0  0  0  0  0
  -26.4495  -31.6574   25.0734 C   0  0  0  0  0  0
  -25.3757  -31.3665   26.1475 C   0  0  0  0  0  0
  -27.0334  -30.3008   24.6130 C   0  0  0  0  0  0
  -27.6107  -32.4253   25.7487 C   0  0  0  0  0  0
  -27.5578  -37.1828   24.8459 C   0  0  0  0  0  0
  -21.4111  -29.3027   22.3733 N   0  0  0  0  0  0
  -26.4308  -37.3784   23.9385 N   0  0  0  0  0  0
  -24.6671  -31.0796   22.1083 N   0  0  0  0  0  0
  -23.4171  -28.8199   23.3023 O   0  0  0  0  0  0
  -28.3750  -26.6808   20.0950 O   0  0  0  0  0  0
  -26.5598  -34.8913   22.4680 O   0  0  0  0  0  0
  -23.5353  -32.1487   23.7557 O   0  0  0  0  0  0
  -31.1815  -19.5899   21.3510 C   0  0  0  0  0  0
  -30.2072  -19.5677   20.3262 C   0  0  0  0  0  0
  -31.1758  -21.9063   21.3690 C   0  0  0  0  0  0
  -30.1868  -21.9155   20.3439 C   0  0  0  0  0  0
  -31.1243  -23.6772   23.1949 C   0  0  0  0  0  0
  -30.0988  -18.5276   18.0702 C   0  0  0  0  0  0
  -28.2282  -18.1245   19.6327 C   0  0  0  0  0  0
  -31.3160  -16.1925   22.3034 C   0  0  0  0  0  0
  -28.9395  -16.0115   21.7864 C   0  0  0  0  0  0
  -31.8300  -23.1589   21.9325 C   0  0  0  0  0  0
  -29.7202  -23.1613   19.5731 C   0  0  0  0  0  0
  -29.2581  -24.4073   20.3713 C   0  0  0  0  0  0
  -28.4107  -25.3620   19.5174 C   0  0  0  0  0  0
  -30.5510  -16.9378   19.9232 C   0  0  2  0  0  0
  -29.7658  -18.2817   19.5739 C   0  0  0  0  0  0
  -30.3334  -15.9051   21.1350 C   0  0  0  0  0  0
  -31.6382  -20.7441   21.8921 N   0  0  0  0  0  0
  -29.6887  -20.7433   19.8666 N   0  0  0  0  0  0
  -31.8562  -17.1825   19.7517 F   0  0  0  0  0  0
  -31.4398  -12.3532   19.1366 H   0  0  0  0  0  0
  -30.2626  -11.3134   19.8486 H   0  0  0  0  0  0
  -29.7313  -11.7958   17.4343 H   0  0  0  0  0  0
  -29.6605  -13.5071   17.7837 H   0  0  0  0  0  0
  -27.8102  -11.3225   18.8035 H   0  0  0  0  0  0
  -27.3601  -12.6581   17.7772 H   0  0  0  0  0  0
  -27.6881  -14.2609   19.5549 H   0  0  0  0  0  0
  -28.6802  -11.9590   21.2980 H   0  0  0  0  0  0
  -28.4412  -13.5392   21.8918 H   0  0  0  0  0  0
  -25.2787   -9.5676   22.4771 H   0  0  0  0  0  0
  -24.0014   -7.4643   22.7491 H   0  0  0  0  0  0
  -21.0873   -8.8790   19.8944 H   0  0  0  0  0  0
  -22.3748  -10.9680   19.6187 H   0  0  0  0  0  0
  -21.1998   -7.6155   23.9727 H   0  0  0  0  0  0
  -21.1487   -6.0545   25.9093 H   0  0  0  0  0  0
  -22.0588   -2.7621   23.2864 H   0  0  0  0  0  0
  -22.4086  -11.9845   22.4789 H   0  0  0  0  0  0
  -21.1095  -13.1194   22.2625 H   0  0  0  0  0  0
  -24.6427  -15.8364   20.5282 H   0  0  0  0  0  0
  -26.2625  -15.6407   20.0888 H   0  0  0  0  0  0
  -26.7106  -32.5530   23.1163 H   0  0  0  0  0  0
  -25.0050  -33.9780   25.0471 H   0  0  0  0  0  0
  -22.6849  -31.3195   21.4310 H   0  0  0  0  0  0
  -23.3752  -35.9684   23.3288 H   0  0  0  0  0  0
  -24.3592  -36.8975   22.2050 H   0  0  0  0  0  0
  -23.7286  -37.6536   23.6678 H   0  0  0  0  0  0
  -26.0511  -31.5918   20.6108 H   0  0  0  0  0  0
  -26.8197  -30.8727   21.9962 H   0  0  0  0  0  0
  -28.0764  -29.0480   21.1923 H   0  0  0  0  0  0
  -25.9473  -26.0432   18.8942 H   0  0  0  0  0  0
  -23.9481  -27.3606   18.9832 H   0  0  0  0  0  0
  -23.7105  -30.6337   19.4195 H   0  0  0  0  0  0
  -22.7227  -29.2777   19.8697 H   0  0  0  0  0  0
  -25.1304  -36.1967   25.0823 H   0  0  0  0  0  0
  -20.9926  -28.3234   24.1454 H   0  0  0  0  0  0
  -20.5712  -26.2251   23.3579 H   0  0  0  0  0  0
  -21.6643  -26.7493   22.1189 H   0  0  0  0  0  0
  -19.6946  -25.6307   21.1214 H   0  0  0  0  0  0
  -19.6712  -27.3199   20.6735 H   0  0  0  0  0  0
  -17.4201  -26.6637   21.3998 H   0  0  0  0  0  0
  -18.0338  -26.0057   22.8996 H   0  0  0  0  0  0
  -19.7916  -30.7217   24.2324 H   0  0  0  0  0  0
  -17.5009  -31.6282   24.5126 H   0  0  0  0  0  0
  -15.5336  -30.2989   23.7673 H   0  0  0  0  0  0
  -15.8630  -28.0819   22.7089 H   0  0  0  0  0  0
  -24.5917  -30.7048   25.7775 H   0  0  0  0  0  0
  -24.8961  -32.2808   26.4974 H   0  0  0  0  0  0
  -25.8093  -30.8758   27.0199 H   0  0  0  0  0  0
  -26.2884  -29.6711   24.1246 H   0  0  0  0  0  0
  -27.4154  -29.7294   25.4602 H   0  0  0  0  0  0
  -27.8706  -30.4299   23.9267 H   0  0  0  0  0  0
  -27.2805  -33.3587   26.2061 H   0  0  0  0  0  0
  -28.3935  -32.6726   25.0302 H   0  0  0  0  0  0
  -28.0749  -31.8341   26.5393 H   0  0  0  0  0  0
  -28.2609  -38.0112   24.7471 H   0  0  0  0  0  0
  -28.1067  -36.2631   24.6352 H   0  0  0  0  0  0
  -27.2276  -37.1557   25.8860 H   0  0  0  0  0  0
  -20.9257  -29.8732   21.6947 H   0  0  0  0  0  0
  -26.0193  -38.2873   24.1353 H   0  0  0  0  0  0
  -31.6603  -18.6970   21.7049 H   0  0  0  0  0  0
  -31.5712  -24.6110   23.5364 H   0  0  0  0  0  0
  -31.1937  -22.9550   24.0083 H   0  0  0  0  0  0
  -30.0663  -23.8642   23.0174 H   0  0  0  0  0  0
  -29.5997  -19.4090   17.6678 H   0  0  0  0  0  0
  -29.7883  -17.6986   17.4330 H   0  0  0  0  0  0
  -31.1673  -18.6792   17.9151 H   0  0  0  0  0  0
  -27.7363  -18.9097   19.0579 H   0  0  0  0  0  0
  -27.8319  -18.2104   20.6405 H   0  0  0  0  0  0
  -27.9040  -17.1729   19.2113 H   0  0  0  0  0  0
  -31.0260  -17.0622   22.8910 H   0  0  0  0  0  0
  -32.3414  -16.3442   21.9644 H   0  0  0  0  0  0
  -31.3465  -15.3554   23.0029 H   0  0  0  0  0  0
  -28.8612  -15.4031   22.6867 H   0  0  0  0  0  0
  -28.1253  -15.7671   21.1117 H   0  0  0  0  0  0
  -28.7724  -17.0245   22.1503 H   0  0  0  0  0  0
  -31.9009  -23.9268   21.1664 H   0  0  0  0  0  0
  -32.8683  -22.9331   22.1790 H   0  0  0  0  0  0
  -28.8913  -22.8508   18.9354 H   0  0  0  0  0  0
  -30.5150  -23.4521   18.8852 H   0  0  0  0  0  0
  -30.1068  -24.9661   20.7536 H   0  0  0  0  0  0
  -28.6596  -24.1016   21.2285 H   0  0  0  0  0  0
  -27.4496  -24.8628   19.4306 H   0  0  0  0  0  0
  -28.8193  -25.4453   18.5088 H   0  0  0  0  0  0
  -30.3269  -16.3220   19.0503 H   0  0  0  0  0  0
  1 25  1  0  0  0
  1 30  2  0  0  0
  1 86  1  0  0  0
  2  3  1  0  0  0
  2 25  1  0  0  0
  2 90  1  0  0  0
  2 91  1  0  0  0
  3  4  1  0  0  0
  3 92  1  0  0  0
  3 93  1  0  0  0
  4  5  1  0  0  0
  4 94  1  0  0  0
  4 95  1  0  0  0
  5  6  1  0  0  0
  5 26  1  0  0  0
  5 96  1  0  0  0
  6 25  1  0  0  0
  6 97  1  0  0  0
  6 98  1  0  0  0
  7  8  2  0  0  0
  7 26  1  0  0  0
  7 29  1  0  0  0
  8  9  1  0  0  0
  8 22  1  0  0  0
  9 10  1  0  0  0
  9 27  2  0  0  0
 10 11  2  0  0  0
 10 15  1  0  0  0
 11 12  1  0  0  0
 11 99  1  0  0  0
 12 13  2  0  0  0
 12100  1  0  0  0
 13 14  1  0  0  0
 13 31  1  0  0  0
 14 15  2  0  0  0
 14101  1  0  0  0
 15102  1  0  0  0
 16 17  2  0  0  0
 16 21  1  0  0  0
 16 31  1  0  0  0
 17 18  1  0  0  0
 17103  1  0  0  0
 18 19  2  0  0  0
 18104  1  0  0  0
 19 20  1  0  0  0
 19 24  1  0  0  0
 20 21  2  0  0  0
 20105  1  0  0  0
 21 23  1  0  0  0
 22 28  1  0  0  0
 22 32  2  0  0  0
 26 27  1  0  0  0
 28106  1  0  0  0
 28107  1  0  0  0
 29108  1  0  0  0
 29109  1  0  0  0
 33 34  1  0  0  0
 33 66  1  0  0  0
 33 70  2  0  0  0
 34 36  1  0  0  0
 34 59  1  0  0  0
 34110  1  0  0  0
 35 44  2  0  0  0
 35 45  1  0  0  0
 35 68  1  0  0  0
 36 56  1  0  0  0
 36111  1  0  0  0
 37 39  1  0  0  0
 37 47  1  0  0  0
 37 66  1  0  0  0
 37112  1  0  0  0
 38 43  2  0  0  0
 38 46  1  0  0  0
 38 47  1  0  0  0
 39 64  1  0  0  0
 39 67  2  0  0  0
 40 52  1  0  0  0
 40 53  2  0  0  0
 40 58  1  0  0  0
 41113  1  0  0  0
 41114  1  0  0  0
 41115  1  0  0  0
 41 48  1  0  0  0
 42 43  1  0  0  0
 42 66  1  0  0  0
 42116  1  0  0  0
 42117  1  0  0  0
 43 44  1  0  0  0
 44118  1  0  0  0
 45 46  2  0  0  0
 45119  1  0  0  0
 46120  1  0  0  0
 47121  1  0  0  0
 47122  1  0  0  0
 48 56  1  0  0  0
 48 65  1  0  0  0
 48123  1  0  0  0
 49 50  1  0  0  0
 49 53  1  0  0  0
 49 64  1  0  0  0
 49124  1  0  0  0
 50 51  1  0  0  0
 50125  1  0  0  0
 50126  1  0  0  0
 51 52  1  0  0  0
 51127  1  0  0  0
 51128  1  0  0  0
 52129  1  0  0  0
 52130  1  0  0  0
 53 54  1  0  0  0
 54 55  2  0  0  0
 54131  1  0  0  0
 55 57  1  0  0  0
 55132  1  0  0  0
 56 69  2  0  0  0
 57 58  2  0  0  0
 57133  1  0  0  0
 58134  1  0  0  0
 59 60  1  0  0  0
 59 61  1  0  0  0
 59 62  1  0  0  0
 60135  1  0  0  0
 60136  1  0  0  0
 60137  1  0  0  0
 61138  1  0  0  0
 61139  1  0  0  0
 61140  1  0  0  0
 62141  1  0  0  0
 62142  1  0  0  0
 62143  1  0  0  0
 63 65  1  0  0  0
 63144  1  0  0  0
 63145  1  0  0  0
 63146  1  0  0  0
 64147  1  0  0  0
 65148  1  0  0  0
 68 83  1  0  0  0
 71 72  2  0  0  0
 71 87  1  0  0  0
 71149  1  0  0  0
 72 85  1  0  0  0
 72 88  1  0  0  0
 73 74  1  0  0  0
 73 80  1  0  0  0
 73 87  2  0  0  0
 74 81  1  0  0  0
 74 88  2  0  0  0
 75 80  1  0  0  0
 75150  1  0  0  0
 75151  1  0  0  0
 75152  1  0  0  0
 76153  1  0  0  0
 76154  1  0  0  0
 76155  1  0  0  0
 76 85  1  0  0  0
 77 85  1  0  0  0
 77156  1  0  0  0
 77157  1  0  0  0
 77158  1  0  0  0
 78159  1  0  0  0
 78160  1  0  0  0
 78161  1  0  0  0
 78 86  1  0  0  0
 79 86  1  0  0  0
 79162  1  0  0  0
 79163  1  0  0  0
 79164  1  0  0  0
 80165  1  0  0  0
 80166  1  0  0  0
 81 82  1  0  0  0
 81167  1  0  0  0
 81168  1  0  0  0
 82 83  1  0  0  0
 82169  1  0  0  0
 82170  1  0  0  0
 83171  1  0  0  0
 83172  1  0  0  0
 84 85  1  0  0  0
 84 86  1  0  0  0
 84 89  1  0  0  0
 84173  1  0  0  0
M  ISO  4   1 100  68 101  83 101  86 100
M  END
> <chiral flag>
0

> <version>
0

> <s_m_source_file>
/data/baiqing/PycharmProjects/Reinvent-master-3.2/result/LINK_invent/BTK/process_docking_weight1_custom_sum_contain_oxygen_bond_distance_aromatic_linkinvent_7_9_3/rearranged_h_0069.sdf

> <i_m_source_file_index>
35

> <r_mmod_Potential_Energy-OPLS-2005>
214.738342285156

> <r_mmod_Stretch_Energy-OPLS-2005>
62.5834770202637

> <r_mmod_Bend_Energy-OPLS-2005>
200.687377929688

> <r_mmod_Torsional_Energy-OPLS-2005>
192.090896606445

> <r_mmod_Improper_Torsional_Energy-OPLS-2005>
3.69402384757996

> <r_mmod_Van_der_Waal_Energy-OPLS-2005>
197.269546508789

> <r_mmod_Electrostatic_Energy-OPLS-2005>
-267.832275390625

> <r_mmod_Solvation_Energy-OPLS-2005>
-195.172241210938

> <b_mmod_Minimization_Converged-OPLS-2005>
0

> <r_mmod_RMS_Derivative-OPLS-2005>
2.42081499099731

$$$$
35
                    3D
 Structure written by MMmdl.
169177  0  0  1  0            999 V2000
  -30.6906  -14.4833   20.5990 C   0  0  0  0  0  0
  -30.4298  -12.3168   19.4452 C   0  0  0  0  0  0
  -29.5038  -12.5197   18.2287 C   0  0  0  0  0  0
  -28.0206  -12.3830   18.6287 C   0  0  0  0  0  0
  -27.6669  -13.2088   19.8948 C   0  0  2  0  0  0
  -28.7067  -12.9733   21.0161 C   0  0  0  0  0  0
  -25.2584  -13.8164   20.5730 C   0  0  0  0  0  0
  -24.1840  -13.0418   20.9210 C   0  0  0  0  0  0
  -24.6378  -11.6882   20.8739 C   0  0  0  0  0  0
  -23.9038  -10.4270   21.0360 C   0  0  0  0  0  0
  -24.3614   -9.4203   21.9141 C   0  0  0  0  0  0
  -23.6313   -8.2226   22.0742 C   0  0  0  0  0  0
  -22.4291   -8.0272   21.3553 C   0  0  0  0  0  0
  -21.9892   -9.0212   20.4632 C   0  0  0  0  0  0
  -22.7203  -10.2087   20.3018 C   0  0  0  0  0  0
  -21.6853   -6.0733   22.5269 C   0  0  0  0  0  0
  -21.4012   -6.5629   23.8206 C   0  0  0  0  0  0
  -21.3685   -5.6793   24.9169 C   0  0  0  0  0  0
  -21.6066   -4.3050   24.7223 C   0  0  0  0  0  0
  -21.8827   -3.8150   23.4349 C   0  0  0  0  0  0
  -21.9203   -4.6961   22.3398 C   0  0  0  0  0  0
  -22.7870  -13.5209   21.1890 C   0  0  0  0  0  0
  -22.1656   -4.2152   21.0978 F   0  0  0  0  0  0
  -21.5641   -3.4524   25.7732 F   0  0  0  0  0  0
  -30.0423  -13.2908   20.4800 N   0  0  0  0  0  0
  -26.3055  -12.9330   20.3503 N   0  0  0  0  0  0
  -25.9317  -11.6478   20.5825 N   0  0  0  0  0  0
  -22.0531  -12.8172   22.0434 N   0  0  0  0  0  0
  -25.4317  -15.1880   20.4069 N   0  0  0  0  0  0
  -31.7714  -14.7061   20.0451 O   0  0  0  0  0  0
  -21.6673   -6.8849   21.4229 O   0  0  0  0  0  0
  -22.3537  -14.5525   20.6753 O   0  0  0  0  0  0
  -24.6139  -31.8642   23.2025 C   0  0  0  0  0  0
  -25.8999  -32.4811   23.8344 C   0  0  1  0  0  0
  -27.2669  -27.4102   20.0858 C   0  0  0  0  0  0
  -25.5842  -33.8610   24.2276 N   0  0  0  0  0  0
  -23.4074  -30.4808   21.5413 C   0  0  2  0  0  0
  -24.8649  -28.9434   20.1102 C   0  0  0  0  0  0
  -22.7394  -29.4622   22.4943 C   0  0  0  0  0  0
  -18.0267  -28.1366   22.8492 C   0  0  0  0  0  0
  -24.1486  -36.7305   23.2637 C   0  0  0  0  0  0
  -25.9383  -30.8177   21.3652 C   0  0  0  0  0  0
  -26.0215  -29.4487   20.7136 C   0  0  0  0  0  0
  -27.2157  -28.6860   20.7074 C   0  0  0  0  0  0
  -26.0826  -26.9274   19.4785 C   0  0  0  0  0  0
  -24.8930  -27.6823   19.4897 C   0  0  0  0  0  0
  -23.6195  -29.8007   20.1608 C   0  0  0  0  0  0
  -25.4110  -36.3102   24.0328 C   0  0  1  0  0  0
  -20.5857  -28.3646   23.1297 C   0  0  2  0  0  0
  -20.6743  -26.9377   22.5404 C   0  0  0  0  0  0
  -19.5725  -26.6367   21.5194 C   0  0  0  0  0  0
  -18.1904  -26.7912   22.1612 C   0  0  0  0  0  0
  -19.1520  -28.8818   23.2897 C   0  0  0  0  0  0
  -18.9454  -30.1429   23.8913 C   0  0  0  0  0  0
  -17.6460  -30.6582   24.0559 C   0  0  0  0  0  0
  -25.9029  -34.9471   23.5109 C   0  0  0  0  0  0
  -16.5345  -29.9082   23.6336 C   0  0  0  0  0  0
  -16.7257  -28.6490   23.0371 C   0  0  0  0  0  0
  -26.4439  -31.6609   25.0683 C   0  0  0  0  0  0
  -25.3702  -31.3731   26.1422 C   0  0  0  0  0  0
  -27.0240  -30.3031   24.6085 C   0  0  0  0  0  0
  -27.6012  -32.4330   25.7448 C   0  0  0  0  0  0
  -27.5589  -37.1798   24.8459 C   0  0  0  0  0  0
  -21.4128  -29.3015   22.3689 N   0  0  0  0  0  0
  -26.4301  -37.3782   23.9401 N   0  0  0  0  0  0
  -24.6708  -31.0689   22.0946 N   0  0  0  0  0  0
  -23.4150  -28.8168   23.3007 O   0  0  0  0  0  0
  -28.4514  -26.6792   20.1542 O   0  0  0  0  0  0
  -26.5621  -34.8935   22.4691 O   0  0  0  0  0  0
  -23.5311  -32.1401   23.7381 O   0  0  0  0  0  0
  -28.8795  -23.0562   19.5157 C   0  0  0  0  0  0
  -29.3810  -24.3329   19.8412 C   0  0  0  0  0  0
  -30.5505  -24.3171   20.6258 C   0  0  0  0  0  0
  -30.5417  -21.9917   20.7085 C   0  0  0  0  0  0
  -31.3038  -25.5703   21.0266 C   0  0  0  0  0  0
  -31.8792  -20.8659   22.5204 C   0  0  0  0  0  0
  -32.5133  -20.5631   20.0919 C   0  0  0  0  0  0
  -32.2395  -17.5330   21.4980 C   0  0  0  0  0  0
  -30.2992  -17.9237   23.0509 C   0  0  0  0  0  0
  -28.7496  -25.6066   19.2301 C   0  0  0  0  0  0
  -30.4218  -19.3876   20.9562 C   0  0  0  0  0  0
  -29.9441  -16.8822   20.7700 C   0  0  0  0  0  0
  -31.3304  -20.6860   21.0802 C   0  0  0  0  0  0
  -30.7558  -17.9563   21.5781 C   0  0  0  0  0  0
  -29.4657  -21.9067   19.9276 N   0  0  0  0  0  0
  -31.1054  -23.1565   21.0415 N   0  0  0  0  0  0
  -29.9969  -15.4675   21.2116 N   0  0  0  0  0  0
  -31.4723  -12.4269   19.1450 H   0  0  0  0  0  0
  -30.3406  -11.3022   19.8358 H   0  0  0  0  0  0
  -29.7434  -11.7910   17.4535 H   0  0  0  0  0  0
  -29.6848  -13.5031   17.7924 H   0  0  0  0  0  0
  -27.8240  -11.3248   18.8114 H   0  0  0  0  0  0
  -27.3809  -12.6762   17.7956 H   0  0  0  0  0  0
  -27.7123  -14.2621   19.6158 H   0  0  0  0  0  0
  -28.6838  -11.9286   21.3329 H   0  0  0  0  0  0
  -28.4619  -13.5528   21.9068 H   0  0  0  0  0  0
  -25.2734   -9.5731   22.4724 H   0  0  0  0  0  0
  -24.0061   -7.4630   22.7452 H   0  0  0  0  0  0
  -21.0843   -8.8687   19.8929 H   0  0  0  0  0  0
  -22.3622  -10.9633   19.6160 H   0  0  0  0  0  0
  -21.1965   -7.6127   23.9701 H   0  0  0  0  0  0
  -21.1523   -6.0518   25.9076 H   0  0  0  0  0  0
  -22.0586   -2.7614   23.2845 H   0  0  0  0  0  0
  -22.4179  -11.9826   22.4795 H   0  0  0  0  0  0
  -21.1148  -13.1186   22.2642 H   0  0  0  0  0  0
  -24.6707  -15.8526   20.5073 H   0  0  0  0  0  0
  -26.2853  -15.6188   20.0743 H   0  0  0  0  0  0
  -26.7053  -32.5519   23.1092 H   0  0  0  0  0  0
  -24.9961  -33.9780   25.0398 H   0  0  0  0  0  0
  -22.6963  -31.2960   21.3887 H   0  0  0  0  0  0
  -23.3761  -35.9629   23.3318 H   0  0  0  0  0  0
  -24.3580  -36.8912   22.2052 H   0  0  0  0  0  0
  -23.7245  -37.6509   23.6655 H   0  0  0  0  0  0
  -26.0521  -31.5826   20.5960 H   0  0  0  0  0  0
  -26.8225  -30.8745   21.9876 H   0  0  0  0  0  0
  -28.1042  -29.0702   21.1887 H   0  0  0  0  0  0
  -26.0339  -25.9568   19.0108 H   0  0  0  0  0  0
  -24.0045  -27.2817   19.0214 H   0  0  0  0  0  0
  -23.7053  -30.5625   19.3855 H   0  0  0  0  0  0
  -22.7537  -29.1974   19.8821 H   0  0  0  0  0  0
  -25.1309  -36.1957   25.0825 H   0  0  0  0  0  0
  -20.9967  -28.3211   24.1410 H   0  0  0  0  0  0
  -20.5596  -26.2262   23.3593 H   0  0  0  0  0  0
  -21.6614  -26.7375   22.1221 H   0  0  0  0  0  0
  -19.6876  -25.6271   21.1234 H   0  0  0  0  0  0
  -19.6684  -27.3178   20.6724 H   0  0  0  0  0  0
  -17.4168  -26.6668   21.4020 H   0  0  0  0  0  0
  -18.0312  -26.0043   22.9000 H   0  0  0  0  0  0
  -19.7934  -30.7234   24.2286 H   0  0  0  0  0  0
  -17.5024  -31.6286   24.5119 H   0  0  0  0  0  0
  -15.5350  -30.3002   23.7644 H   0  0  0  0  0  0
  -15.8645  -28.0808   22.7108 H   0  0  0  0  0  0
  -24.5874  -30.7084   25.7757 H   0  0  0  0  0  0
  -24.8892  -32.2888   26.4858 H   0  0  0  0  0  0
  -25.8035  -30.8902   27.0186 H   0  0  0  0  0  0
  -26.2770  -29.6830   24.1112 H   0  0  0  0  0  0
  -27.3942  -29.7238   25.4553 H   0  0  0  0  0  0
  -27.8646  -30.4310   23.9264 H   0  0  0  0  0  0
  -27.2621  -33.3618   26.2045 H   0  0  0  0  0  0
  -28.3807  -32.6915   25.0272 H   0  0  0  0  0  0
  -28.0689  -31.8445   26.5349 H   0  0  0  0  0  0
  -28.2599  -38.0101   24.7513 H   0  0  0  0  0  0
  -28.1093  -36.2637   24.6278 H   0  0  0  0  0  0
  -27.2305  -37.1429   25.8859 H   0  0  0  0  0  0
  -20.9250  -29.8761   21.6953 H   0  0  0  0  0  0
  -26.0198  -38.2856   24.1423 H   0  0  0  0  0  0
  -28.0131  -22.9454   18.8797 H   0  0  0  0  0  0
  -30.9798  -25.9026   22.0125 H   0  0  0  0  0  0
  -31.1518  -26.3819   20.3162 H   0  0  0  0  0  0
  -32.3767  -25.3772   21.0737 H   0  0  0  0  0  0
  -32.5557  -21.7186   22.5814 H   0  0  0  0  0  0
  -32.4612  -20.0233   22.8760 H   0  0  0  0  0  0
  -31.0696  -21.0413   23.2313 H   0  0  0  0  0  0
  -33.1687  -21.4299   20.1513 H   0  0  0  0  0  0
  -32.1593  -20.5008   19.0625 H   0  0  0  0  0  0
  -33.1293  -19.6876   20.2765 H   0  0  0  0  0  0
  -32.9256  -18.1954   22.0188 H   0  0  0  0  0  0
  -32.5679  -17.4435   20.4609 H   0  0  0  0  0  0
  -32.3847  -16.5552   21.9570 H   0  0  0  0  0  0
  -30.8583  -18.6274   23.6647 H   0  0  0  0  0  0
  -30.4392  -16.9402   23.4967 H   0  0  0  0  0  0
  -29.2410  -18.1748   23.1505 H   0  0  0  0  0  0
  -27.9217  -25.3108   18.5933 H   0  0  0  0  0  0
  -29.4884  -26.0042   18.5330 H   0  0  0  0  0  0
  -30.2487  -19.2538   19.8882 H   0  0  0  0  0  0
  -29.4377  -19.6587   21.3428 H   0  0  0  0  0  0
  -30.2425  -16.9209   19.7209 H   0  0  0  0  0  0
  -28.8884  -17.1625   20.7701 H   0  0  0  0  0  0
  -29.1951  -15.1518   21.7360 H   0  0  0  0  0  0
  1 25  1  0  0  0
  1 30  2  0  0  0
  1 87  1  0  0  0
  2  3  1  0  0  0
  2 25  1  0  0  0
  2 88  1  0  0  0
  2 89  1  0  0  0
  3  4  1  0  0  0
  3 90  1  0  0  0
  3 91  1  0  0  0
  4  5  1  0  0  0
  4 92  1  0  0  0
  4 93  1  0  0  0
  5  6  1  0  0  0
  5 26  1  0  0  0
  5 94  1  0  0  0
  6 25  1  0  0  0
  6 95  1  0  0  0
  6 96  1  0  0  0
  7  8  2  0  0  0
  7 26  1  0  0  0
  7 29  1  0  0  0
  8  9  1  0  0  0
  8 22  1  0  0  0
  9 10  1  0  0  0
  9 27  2  0  0  0
 10 11  2  0  0  0
 10 15  1  0  0  0
 11 12  1  0  0  0
 11 97  1  0  0  0
 12 13  2  0  0  0
 12 98  1  0  0  0
 13 14  1  0  0  0
 13 31  1  0  0  0
 14 15  2  0  0  0
 14 99  1  0  0  0
 15100  1  0  0  0
 16 17  2  0  0  0
 16 21  1  0  0  0
 16 31  1  0  0  0
 17 18  1  0  0  0
 17101  1  0  0  0
 18 19  2  0  0  0
 18102  1  0  0  0
 19 20  1  0  0  0
 19 24  1  0  0  0
 20 21  2  0  0  0
 20103  1  0  0  0
 21 23  1  0  0  0
 22 28  1  0  0  0
 22 32  2  0  0  0
 26 27  1  0  0  0
 28104  1  0  0  0
 28105  1  0  0  0
 29106  1  0  0  0
 29107  1  0  0  0
 33 34  1  0  0  0
 33 66  1  0  0  0
 33 70  2  0  0  0
 34 36  1  0  0  0
 34 59  1  0  0  0
 34108  1  0  0  0
 35 44  2  0  0  0
 35 45  1  0  0  0
 35 68  1  0  0  0
 36 56  1  0  0  0
 36109  1  0  0  0
 37 39  1  0  0  0
 37 47  1  0  0  0
 37 66  1  0  0  0
 37110  1  0  0  0
 38 43  2  0  0  0
 38 46  1  0  0  0
 38 47  1  0  0  0
 39 64  1  0  0  0
 39 67  2  0  0  0
 40 52  1  0  0  0
 40 53  2  0  0  0
 40 58  1  0  0  0
 41111  1  0  0  0
 41112  1  0  0  0
 41113  1  0  0  0
 41 48  1  0  0  0
 42 43  1  0  0  0
 42 66  1  0  0  0
 42114  1  0  0  0
 42115  1  0  0  0
 43 44  1  0  0  0
 44116  1  0  0  0
 45 46  2  0  0  0
 45117  1  0  0  0
 46118  1  0  0  0
 47119  1  0  0  0
 47120  1  0  0  0
 48 56  1  0  0  0
 48 65  1  0  0  0
 48121  1  0  0  0
 49 50  1  0  0  0
 49 53  1  0  0  0
 49 64  1  0  0  0
 49122  1  0  0  0
 50 51  1  0  0  0
 50123  1  0  0  0
 50124  1  0  0  0
 51 52  1  0  0  0
 51125  1  0  0  0
 51126  1  0  0  0
 52127  1  0  0  0
 52128  1  0  0  0
 53 54  1  0  0  0
 54 55  2  0  0  0
 54129  1  0  0  0
 55 57  1  0  0  0
 55130  1  0  0  0
 56 69  2  0  0  0
 57 58  2  0  0  0
 57131  1  0  0  0
 58132  1  0  0  0
 59 60  1  0  0  0
 59 61  1  0  0  0
 59 62  1  0  0  0
 60133  1  0  0  0
 60134  1  0  0  0
 60135  1  0  0  0
 61136  1  0  0  0
 61137  1  0  0  0
 61138  1  0  0  0
 62139  1  0  0  0
 62140  1  0  0  0
 62141  1  0  0  0
 63 65  1  0  0  0
 63142  1  0  0  0
 63143  1  0  0  0
 63144  1  0  0  0
 64145  1  0  0  0
 65146  1  0  0  0
 68 80  1  0  0  0
 71 72  2  0  0  0
 71 85  1  0  0  0
 71147  1  0  0  0
 72 73  1  0  0  0
 72 80  1  0  0  0
 73 75  1  0  0  0
 73 86  2  0  0  0
 74 83  1  0  0  0
 74 85  2  0  0  0
 74 86  1  0  0  0
 75148  1  0  0  0
 75149  1  0  0  0
 75150  1  0  0  0
 76151  1  0  0  0
 76152  1  0  0  0
 76153  1  0  0  0
 76 83  1  0  0  0
 77 83  1  0  0  0
 77154  1  0  0  0
 77155  1  0  0  0
 77156  1  0  0  0
 78157  1  0  0  0
 78158  1  0  0  0
 78159  1  0  0  0
 78 84  1  0  0  0
 79 84  1  0  0  0
 79160  1  0  0  0
 79161  1  0  0  0
 79162  1  0  0  0
 80163  1  0  0  0
 80164  1  0  0  0
 81 83  1  0  0  0
 81 84  1  0  0  0
 81165  1  0  0  0
 81166  1  0  0  0
 82 84  1  0  0  0
 82 87  1  0  0  0
 82167  1  0  0  0
 82168  1  0  0  0
 87169  1  0  0  0
M  ISO  4   1 100  68 101  80 101  87 100
M  END
> <chiral flag>
0

> <version>
0

> <s_m_source_file>
/data/baiqing/PycharmProjects/Reinvent-master-3.2/result/LINK_invent/BTK/process_docking_weight1_custom_sum_contain_oxygen_bond_distance_aromatic_linkinvent_7_9_3/rearranged_h_0069.sdf

> <i_m_source_file_index>
36

> <r_mmod_Potential_Energy-OPLS-2005>
-421.293243408203

> <r_mmod_Stretch_Energy-OPLS-2005>
57.4015884399414

> <r_mmod_Bend_Energy-OPLS-2005>
150.064559936523

> <r_mmod_Torsional_Energy-OPLS-2005>
238.289154052734

> <r_mmod_Improper_Torsional_Energy-OPLS-2005>
7.23905515670776

> <r_mmod_Van_der_Waal_Energy-OPLS-2005>
172.727493286133

> <r_mmod_Electrostatic_Energy-OPLS-2005>
-848.237670898438

> <r_mmod_Solvation_Energy-OPLS-2005>
-214.446411132812

> <b_mmod_Minimization_Converged-OPLS-2005>
0

> <r_mmod_RMS_Derivative-OPLS-2005>
3.76727056503296

$$$$
36
                    3D
 Structure written by MMmdl.
157165  0  0  1  0            999 V2000
  -30.5366  -14.9492   20.4251 C   0  0  0  0  0  0
  -30.4503  -12.5789   19.5092 C   0  0  0  0  0  0
  -29.5348  -12.5386   18.2633 C   0  0  0  0  0  0
  -28.0629  -12.3305   18.6713 C   0  0  0  0  0  0
  -27.6406  -13.2515   19.8449 C   0  0  2  0  0  0
  -28.6826  -13.2667   20.9839 C   0  0  0  0  0  0
  -25.2527  -13.8228   20.5707 C   0  0  0  0  0  0
  -24.1830  -13.0443   20.9199 C   0  0  0  0  0  0
  -24.6443  -11.6927   20.8729 C   0  0  0  0  0  0
  -23.9110  -10.4297   21.0389 C   0  0  0  0  0  0
  -24.3641   -9.4213   21.9178 C   0  0  0  0  0  0
  -23.6309   -8.2257   22.0753 C   0  0  0  0  0  0
  -22.4295   -8.0293   21.3546 C   0  0  0  0  0  0
  -21.9938   -9.0266   20.4646 C   0  0  0  0  0  0
  -22.7272  -10.2146   20.3049 C   0  0  0  0  0  0
  -21.6858   -6.0733   22.5267 C   0  0  0  0  0  0
  -21.4017   -6.5634   23.8198 C   0  0  0  0  0  0
  -21.3664   -5.6789   24.9159 C   0  0  0  0  0  0
  -21.6051   -4.3053   24.7216 C   0  0  0  0  0  0
  -21.8824   -3.8143   23.4338 C   0  0  0  0  0  0
  -21.9200   -4.6962   22.3391 C   0  0  0  0  0  0
  -22.7848  -13.5220   21.1853 C   0  0  0  0  0  0
  -22.1670   -4.2144   21.0975 F   0  0  0  0  0  0
  -21.5630   -3.4539   25.7728 F   0  0  0  0  0  0
  -29.9673  -13.6731   20.4006 N   0  0  0  0  0  0
  -26.2962  -12.9467   20.3264 N   0  0  0  0  0  0
  -25.9385  -11.6588   20.5736 N   0  0  0  0  0  0
  -22.0496  -12.8201   22.0403 N   0  0  0  0  0  0
  -25.4207  -15.1958   20.4153 N   0  0  0  0  0  0
  -31.7215  -15.0100   20.0809 O   0  0  0  0  0  0
  -21.6657   -6.8887   21.4238 O   0  0  0  0  0  0
  -22.3530  -14.5520   20.6701 O   0  0  0  0  0  0
  -24.6442  -31.8439   23.1881 C   0  0  0  0  0  0
  -25.9209  -32.4695   23.8272 C   0  0  1  0  0  0
  -27.2195  -27.1289   20.1400 C   0  0  0  0  0  0
  -25.5952  -33.8501   24.2195 N   0  0  0  0  0  0
  -23.4479  -30.4640   21.5353 C   0  0  2  0  0  0
  -24.8988  -28.8955   20.1095 C   0  0  0  0  0  0
  -22.7578  -29.4544   22.4869 C   0  0  0  0  0  0
  -18.0303  -28.1394   22.8478 C   0  0  0  0  0  0
  -24.1494  -36.7264   23.2640 C   0  0  0  0  0  0
  -26.0054  -30.7155   21.3874 C   0  0  0  0  0  0
  -26.0781  -29.3252   20.7315 C   0  0  0  0  0  0
  -27.2375  -28.4576   20.7351 C   0  0  0  0  0  0
  -26.0141  -26.8178   19.4661 C   0  0  0  0  0  0
  -24.8805  -27.6550   19.4615 C   0  0  0  0  0  0
  -23.6751  -29.7968   20.1546 C   0  0  0  0  0  0
  -25.4124  -36.3035   24.0313 C   0  0  1  0  0  0
  -20.5917  -28.3723   23.1241 C   0  0  2  0  0  0
  -20.6789  -26.9428   22.5406 C   0  0  0  0  0  0
  -19.5766  -26.6379   21.5214 C   0  0  0  0  0  0
  -18.1946  -26.7928   22.1625 C   0  0  0  0  0  0
  -19.1561  -28.8876   23.2847 C   0  0  0  0  0  0
  -18.9476  -30.1471   23.8872 C   0  0  0  0  0  0
  -17.6472  -30.6588   24.0555 C   0  0  0  0  0  0
  -25.9077  -34.9407   23.5066 C   0  0  0  0  0  0
  -16.5364  -29.9083   23.6330 C   0  0  0  0  0  0
  -16.7287  -28.6504   23.0351 C   0  0  0  0  0  0
  -26.4523  -31.6543   25.0698 C   0  0  0  0  0  0
  -25.3712  -31.3716   26.1392 C   0  0  0  0  0  0
  -27.0370  -30.2939   24.6246 C   0  0  0  0  0  0
  -27.6057  -32.4290   25.7492 C   0  0  0  0  0  0
  -27.5576  -37.1792   24.8467 C   0  0  0  0  0  0
  -21.4269  -29.3050   22.3620 N   0  0  0  0  0  0
  -26.4287  -37.3748   23.9409 N   0  0  0  0  0  0
  -24.7195  -31.0286   22.0923 N   0  0  0  0  0  0
  -23.4219  -28.8083   23.3013 O   0  0  0  0  0  0
  -28.2510  -26.1110   20.2179 O   0  0  0  0  0  0
  -26.5672  -34.8901   22.4649 O   0  0  0  0  0  0
  -23.5558  -32.1322   23.7095 O   0  0  0  0  0  0
  -30.1089  -22.8791   20.3066 C   0  0  0  0  0  0
  -28.2350  -21.8737   20.2793 C   0  0  0  0  0  0
  -28.7148  -23.2075   20.2002 C   0  0  0  0  0  0
  -29.0721  -19.2458   22.3344 C   0  0  0  0  0  0
  -29.7859  -17.9270   18.7066 C   0  0  0  0  0  0
  -31.5034  -18.2902   20.4709 C   0  0  0  0  0  0
  -27.8769  -24.6201   19.9484 C   0  0  0  0  0  0
  -29.7335  -16.3714   20.7899 C   0  0  0  0  0  0
  -29.1079  -19.2909   20.7991 C   0  0  2  0  0  0
  -30.0164  -17.9648   20.2298 C   0  0  0  0  0  0
  -30.3945  -21.5548   20.4607 N   0  0  0  0  0  0
  -29.2317  -20.8384   20.4174 N   0  0  0  0  0  0
  -31.4851  -12.7281   19.2018 H   0  0  0  0  0  0
  -30.4336  -11.6206   20.0319 H   0  0  0  0  0  0
  -29.8550  -11.7443   17.5880 H   0  0  0  0  0  0
  -29.6369  -13.4717   17.7077 H   0  0  0  0  0  0
  -27.9459  -11.2873   18.9642 H   0  0  0  0  0  0
  -27.4079  -12.4842   17.8136 H   0  0  0  0  0  0
  -27.6100  -14.2587   19.4290 H   0  0  0  0  0  0
  -28.7609  -12.2881   21.4606 H   0  0  0  0  0  0
  -28.3879  -13.9672   21.7669 H   0  0  0  0  0  0
  -25.2781   -9.5691   22.4763 H   0  0  0  0  0  0
  -24.0005   -7.4653   22.7488 H   0  0  0  0  0  0
  -21.0861   -8.8794   19.8959 H   0  0  0  0  0  0
  -22.3720  -10.9687   19.6164 H   0  0  0  0  0  0
  -21.2004   -7.6142   23.9692 H   0  0  0  0  0  0
  -21.1485   -6.0521   25.9059 H   0  0  0  0  0  0
  -22.0604   -2.7606   23.2835 H   0  0  0  0  0  0
  -22.4119  -11.9885   22.4820 H   0  0  0  0  0  0
  -21.1113  -13.1230   22.2591 H   0  0  0  0  0  0
  -24.6606  -15.8562   20.5388 H   0  0  0  0  0  0
  -26.2766  -15.6348   20.1013 H   0  0  0  0  0  0
  -26.7272  -32.5307   23.0997 H   0  0  0  0  0  0
  -25.0041  -33.9620   25.0303 H   0  0  0  0  0  0
  -22.7489  -31.2887   21.3819 H   0  0  0  0  0  0
  -23.3753  -35.9600   23.3285 H   0  0  0  0  0  0
  -24.3586  -36.8914   22.2060 H   0  0  0  0  0  0
  -23.7252  -37.6453   23.6690 H   0  0  0  0  0  0
  -26.1537  -31.4649   20.6094 H   0  0  0  0  0  0
  -26.8793  -30.7737   22.0241 H   0  0  0  0  0  0
  -28.1308  -28.7807   21.2508 H   0  0  0  0  0  0
  -25.8952  -25.8816   18.9443 H   0  0  0  0  0  0
  -23.9844  -27.3246   18.9538 H   0  0  0  0  0  0
  -23.8116  -30.5724   19.4001 H   0  0  0  0  0  0
  -22.7898  -29.2393   19.8426 H   0  0  0  0  0  0
  -25.1308  -36.1860   25.0803 H   0  0  0  0  0  0
  -20.9998  -28.3306   24.1367 H   0  0  0  0  0  0
  -20.5685  -26.2337   23.3628 H   0  0  0  0  0  0
  -21.6655  -26.7431   22.1208 H   0  0  0  0  0  0
  -19.6929  -25.6284   21.1264 H   0  0  0  0  0  0
  -19.6695  -27.3174   20.6734 H   0  0  0  0  0  0
  -17.4212  -26.6666   21.4032 H   0  0  0  0  0  0
  -18.0347  -26.0076   22.9033 H   0  0  0  0  0  0
  -19.7949  -30.7295   24.2236 H   0  0  0  0  0  0
  -17.5022  -31.6267   24.5157 H   0  0  0  0  0  0
  -15.5366  -30.2976   23.7657 H   0  0  0  0  0  0
  -15.8690  -28.0810   22.7077 H   0  0  0  0  0  0
  -24.5921  -30.7026   25.7709 H   0  0  0  0  0  0
  -24.8865  -32.2889   26.4747 H   0  0  0  0  0  0
  -25.8006  -30.8941   27.0213 H   0  0  0  0  0  0
  -26.2966  -29.6674   24.1258 H   0  0  0  0  0  0
  -27.3997  -29.7210   25.4790 H   0  0  0  0  0  0
  -27.8873  -30.4167   23.9535 H   0  0  0  0  0  0
  -27.2659  -33.3618   26.2006 H   0  0  0  0  0  0
  -28.3913  -32.6802   25.0352 H   0  0  0  0  0  0
  -28.0672  -31.8447   26.5466 H   0  0  0  0  0  0
  -28.2579  -38.0100   24.7507 H   0  0  0  0  0  0
  -28.1083  -36.2627   24.6296 H   0  0  0  0  0  0
  -27.2297  -37.1440   25.8871 H   0  0  0  0  0  0
  -20.9482  -29.8788   21.6821 H   0  0  0  0  0  0
  -26.0147  -38.2812   24.1409 H   0  0  0  0  0  0
  -30.9398  -23.5707   20.2791 H   0  0  0  0  0  0
  -27.2006  -21.5598   20.2629 H   0  0  0  0  0  0
  -28.7599  -18.2712   22.7060 H   0  0  0  0  0  0
  -28.3673  -19.9779   22.7308 H   0  0  0  0  0  0
  -30.0480  -19.4753   22.7603 H   0  0  0  0  0  0
  -30.3849  -17.1534   18.2249 H   0  0  0  0  0  0
  -30.0360  -18.8781   18.2358 H   0  0  0  0  0  0
  -28.7408  -17.7143   18.4749 H   0  0  0  0  0  0
  -31.7665  -19.2790   20.0959 H   0  0  0  0  0  0
  -32.1592  -17.5811   19.9660 H   0  0  0  0  0  0
  -31.7520  -18.2633   21.5317 H   0  0  0  0  0  0
  -26.9233  -24.4858   20.4606 H   0  0  0  0  0  0
  -27.6255  -24.6127   18.8873 H   0  0  0  0  0  0
  -28.6821  -16.1659   20.5887 H   0  0  0  0  0  0
  -29.7959  -16.4127   21.8765 H   0  0  0  0  0  0
  -28.0890  -19.0447   20.4961 H   0  0  0  0  0  0
  1 25  1  0  0  0
  1 30  2  0  0  0
  1 78  1  0  0  0
  2  3  1  0  0  0
  2 25  1  0  0  0
  2 83  1  0  0  0
  2 84  1  0  0  0
  3  4  1  0  0  0
  3 85  1  0  0  0
  3 86  1  0  0  0
  4  5  1  0  0  0
  4 87  1  0  0  0
  4 88  1  0  0  0
  5  6  1  0  0  0
  5 26  1  0  0  0
  5 89  1  0  0  0
  6 25  1  0  0  0
  6 90  1  0  0  0
  6 91  1  0  0  0
  7  8  2  0  0  0
  7 26  1  0  0  0
  7 29  1  0  0  0
  8  9  1  0  0  0
  8 22  1  0  0  0
  9 10  1  0  0  0
  9 27  2  0  0  0
 10 11  2  0  0  0
 10 15  1  0  0  0
 11 12  1  0  0  0
 11 92  1  0  0  0
 12 13  2  0  0  0
 12 93  1  0  0  0
 13 14  1  0  0  0
 13 31  1  0  0  0
 14 15  2  0  0  0
 14 94  1  0  0  0
 15 95  1  0  0  0
 16 17  2  0  0  0
 16 21  1  0  0  0
 16 31  1  0  0  0
 17 18  1  0  0  0
 17 96  1  0  0  0
 18 19  2  0  0  0
 18 97  1  0  0  0
 19 20  1  0  0  0
 19 24  1  0  0  0
 20 21  2  0  0  0
 20 98  1  0  0  0
 21 23  1  0  0  0
 22 28  1  0  0  0
 22 32  2  0  0  0
 26 27  1  0  0  0
 28 99  1  0  0  0
 28100  1  0  0  0
 29101  1  0  0  0
 29102  1  0  0  0
 33 34  1  0  0  0
 33 66  1  0  0  0
 33 70  2  0  0  0
 34 36  1  0  0  0
 34 59  1  0  0  0
 34103  1  0  0  0
 35 44  2  0  0  0
 35 45  1  0  0  0
 35 68  1  0  0  0
 36 56  1  0  0  0
 36104  1  0  0  0
 37 39  1  0  0  0
 37 47  1  0  0  0
 37 66  1  0  0  0
 37105  1  0  0  0
 38 43  2  0  0  0
 38 46  1  0  0  0
 38 47  1  0  0  0
 39 64  1  0  0  0
 39 67  2  0  0  0
 40 52  1  0  0  0
 40 53  2  0  0  0
 40 58  1  0  0  0
 41106  1  0  0  0
 41107  1  0  0  0
 41108  1  0  0  0
 41 48  1  0  0  0
 42 43  1  0  0  0
 42 66  1  0  0  0
 42109  1  0  0  0
 42110  1  0  0  0
 43 44  1  0  0  0
 44111  1  0  0  0
 45 46  2  0  0  0
 45112  1  0  0  0
 46113  1  0  0  0
 47114  1  0  0  0
 47115  1  0  0  0
 48 56  1  0  0  0
 48 65  1  0  0  0
 48116  1  0  0  0
 49 50  1  0  0  0
 49 53  1  0  0  0
 49 64  1  0  0  0
 49117  1  0  0  0
 50 51  1  0  0  0
 50118  1  0  0  0
 50119  1  0  0  0
 51 52  1  0  0  0
 51120  1  0  0  0
 51121  1  0  0  0
 52122  1  0  0  0
 52123  1  0  0  0
 53 54  1  0  0  0
 54 55  2  0  0  0
 54124  1  0  0  0
 55 57  1  0  0  0
 55125  1  0  0  0
 56 69  2  0  0  0
 57 58  2  0  0  0
 57126  1  0  0  0
 58127  1  0  0  0
 59 60  1  0  0  0
 59 61  1  0  0  0
 59 62  1  0  0  0
 60128  1  0  0  0
 60129  1  0  0  0
 60130  1  0  0  0
 61131  1  0  0  0
 61132  1  0  0  0
 61133  1  0  0  0
 62134  1  0  0  0
 62135  1  0  0  0
 62136  1  0  0  0
 63 65  1  0  0  0
 63137  1  0  0  0
 63138  1  0  0  0
 63139  1  0  0  0
 64140  1  0  0  0
 65141  1  0  0  0
 68 77  1  0  0  0
 71 73  1  0  0  0
 71 81  2  0  0  0
 71142  1  0  0  0
 72 73  2  0  0  0
 72 82  1  0  0  0
 72143  1  0  0  0
 73 77  1  0  0  0
 74144  1  0  0  0
 74145  1  0  0  0
 74146  1  0  0  0
 74 79  1  0  0  0
 75147  1  0  0  0
 75148  1  0  0  0
 75149  1  0  0  0
 75 80  1  0  0  0
 76 80  1  0  0  0
 76150  1  0  0  0
 76151  1  0  0  0
 76152  1  0  0  0
 77153  1  0  0  0
 77154  1  0  0  0
 78 80  1  0  0  0
 78155  1  0  0  0
 78156  1  0  0  0
 79 80  1  0  0  0
 79 82  1  0  0  0
 79157  1  0  0  0
 81 82  1  0  0  0
M  ISO  4   1 100  68 101  77 101  78 100
M  END
> <chiral flag>
0

> <version>
0

> <s_m_source_file>
/data/baiqing/PycharmProjects/Reinvent-master-3.2/result/LINK_invent/BTK/process_docking_weight1_custom_sum_contain_oxygen_bond_distance_aromatic_linkinvent_7_9_3/rearranged_h_0069.sdf

> <i_m_source_file_index>
37

> <r_mmod_Potential_Energy-OPLS-2005>
571.038513183594

> <r_mmod_Stretch_Energy-OPLS-2005>
281.2041015625

> <r_mmod_Bend_Energy-OPLS-2005>
288.468994140625

> <r_mmod_Torsional_Energy-OPLS-2005>
194.376708984375

> <r_mmod_Improper_Torsional_Energy-OPLS-2005>
4.12625646591187

> <r_mmod_Van_der_Waal_Energy-OPLS-2005>
110.069999694824

> <r_mmod_Electrostatic_Energy-OPLS-2005>
-292.986968994141

> <r_mmod_Solvation_Energy-OPLS-2005>
-209.22526550293

> <b_mmod_Minimization_Converged-OPLS-2005>
0

> <r_mmod_RMS_Derivative-OPLS-2005>
1.81396007537842

$$$$
37
                    3D
 Structure written by MMmdl.
162170  0  0  1  0            999 V2000
  -30.4964  -15.1795   20.3320 C   0  0  0  0  0  0
  -30.4346  -12.7355   19.5134 C   0  0  0  0  0  0
  -29.5341  -12.5592   18.2679 C   0  0  0  0  0  0
  -28.0779  -12.2817   18.6871 C   0  0  0  0  0  0
  -27.6041  -13.2467   19.8005 C   0  0  2  0  0  0
  -28.6405  -13.4365   20.9269 C   0  0  0  0  0  0
  -25.2342  -13.8150   20.5661 C   0  0  0  0  0  0
  -24.1695  -13.0359   20.9226 C   0  0  0  0  0  0
  -24.6360  -11.6875   20.8737 C   0  0  0  0  0  0
  -23.9059  -10.4261   21.0391 C   0  0  0  0  0  0
  -24.3616   -9.4175   21.9160 C   0  0  0  0  0  0
  -23.6290   -8.2215   22.0738 C   0  0  0  0  0  0
  -22.4273   -8.0264   21.3527 C   0  0  0  0  0  0
  -21.9896   -9.0237   20.4632 C   0  0  0  0  0  0
  -22.7231  -10.2106   20.3042 C   0  0  0  0  0  0
  -21.6862   -6.0721   22.5277 C   0  0  0  0  0  0
  -21.4023   -6.5627   23.8204 C   0  0  0  0  0  0
  -21.3649   -5.6775   24.9161 C   0  0  0  0  0  0
  -21.6046   -4.3042   24.7216 C   0  0  0  0  0  0
  -21.8819   -3.8134   23.4340 C   0  0  0  0  0  0
  -21.9196   -4.6950   22.3395 C   0  0  0  0  0  0
  -22.7722  -13.5150   21.1860 C   0  0  0  0  0  0
  -22.1659   -4.2130   21.0971 F   0  0  0  0  0  0
  -21.5626   -3.4532   25.7730 F   0  0  0  0  0  0
  -29.9004  -13.8921   20.3145 N   0  0  0  0  0  0
  -26.2753  -12.9382   20.3079 N   0  0  0  0  0  0
  -25.9279  -11.6524   20.5663 N   0  0  0  0  0  0
  -22.0380  -12.8165   22.0444 N   0  0  0  0  0  0
  -25.3819  -15.1877   20.4083 N   0  0  0  0  0  0
  -31.7311  -15.1091   20.2699 O   0  0  0  0  0  0
  -21.6632   -6.8867   21.4240 O   0  0  0  0  0  0
  -22.3376  -14.5417   20.6658 O   0  0  0  0  0  0
  -24.6541  -31.8348   23.1777 C   0  0  0  0  0  0
  -25.9271  -32.4655   23.8184 C   0  0  1  0  0  0
  -27.2084  -27.0202   20.1654 C   0  0  0  0  0  0
  -25.5978  -33.8463   24.2115 N   0  0  0  0  0  0
  -23.4625  -30.4520   21.5273 C   0  0  2  0  0  0
  -24.9126  -28.8596   20.1090 C   0  0  0  0  0  0
  -22.7628  -29.4497   22.4814 C   0  0  0  0  0  0
  -18.0323  -28.1404   22.8483 C   0  0  0  0  0  0
  -24.1499  -36.7227   23.2638 C   0  0  0  0  0  0
  -26.0272  -30.6680   21.3956 C   0  0  0  0  0  0
  -26.0936  -29.2687   20.7401 C   0  0  0  0  0  0
  -27.2390  -28.3667   20.7504 C   0  0  0  0  0  0
  -26.0011  -26.7506   19.4779 C   0  0  0  0  0  0
  -24.8874  -27.6195   19.4569 C   0  0  0  0  0  0
  -23.6947  -29.7770   20.1490 C   0  0  0  0  0  0
  -25.4138  -36.3011   24.0305 C   0  0  1  0  0  0
  -20.5940  -28.3743   23.1220 C   0  0  2  0  0  0
  -20.6804  -26.9431   22.5405 C   0  0  0  0  0  0
  -19.5770  -26.6381   21.5224 C   0  0  0  0  0  0
  -18.1957  -26.7947   22.1628 C   0  0  0  0  0  0
  -19.1586  -28.8895   23.2840 C   0  0  0  0  0  0
  -18.9486  -30.1485   23.8864 C   0  0  0  0  0  0
  -17.6478  -30.6593   24.0565 C   0  0  0  0  0  0
  -25.9097  -34.9393   23.5031 C   0  0  0  0  0  0
  -16.5367  -29.9087   23.6337 C   0  0  0  0  0  0
  -16.7307  -28.6503   23.0368 C   0  0  0  0  0  0
  -26.4541  -31.6561   25.0669 C   0  0  0  0  0  0
  -25.3655  -31.3803   26.1306 C   0  0  0  0  0  0
  -27.0420  -30.2941   24.6336 C   0  0  0  0  0  0
  -27.6064  -32.4334   25.7456 C   0  0  0  0  0  0
  -27.5580  -37.1772   24.8466 C   0  0  0  0  0  0
  -21.4310  -29.3053   22.3582 N   0  0  0  0  0  0
  -26.4293  -37.3735   23.9407 N   0  0  0  0  0  0
  -24.7353  -31.0098   22.0869 N   0  0  0  0  0  0
  -23.4228  -28.8053   23.3004 O   0  0  0  0  0  0
  -28.2071  -25.9421   20.2570 O   0  0  0  0  0  0
  -26.5683  -34.8916   22.4612 O   0  0  0  0  0  0
  -23.5634  -32.1244   23.6954 O   0  0  0  0  0  0
  -29.1098  -22.3522   21.4698 C   0  0  0  0  0  0
  -28.9183  -20.5261   19.4887 C   0  0  0  0  0  0
  -29.5225  -20.9539   21.6876 C   0  0  0  0  0  0
  -29.4360  -19.8833   20.6808 C   0  0  0  0  0  0
  -28.6068  -22.8983   20.2445 C   0  0  0  0  0  0
  -31.6174  -20.6714   23.1064 C   0  0  0  0  0  0
  -29.4478  -19.5603   23.8923 C   0  0  0  0  0  0
  -30.5424  -17.2066   18.7253 C   0  0  0  0  0  0
  -28.3284  -16.6309   19.6494 C   0  0  0  0  0  0
  -29.8749  -18.2310   20.9522 C   0  0  0  0  0  0
  -27.8366  -24.4055   19.9782 C   0  0  0  0  0  0
  -30.0829  -20.7132   23.0989 C   0  0  0  0  0  0
  -29.8119  -16.7656   20.0151 C   0  0  0  0  0  0
  -28.5435  -21.8791   19.2961 N   0  0  0  0  0  0
  -31.4652  -12.9046   19.1945 H   0  0  0  0  0  0
  -30.4547  -11.8206   20.1080 H   0  0  0  0  0  0
  -29.9075  -11.7513   17.6366 H   0  0  0  0  0  0
  -29.5743  -13.4654   17.6612 H   0  0  0  0  0  0
  -28.0215  -11.2525   19.0418 H   0  0  0  0  0  0
  -27.4191  -12.3423   17.8205 H   0  0  0  0  0  0
  -27.4948  -14.1860   19.2773 H   0  0  0  0  0  0
  -28.7763  -12.5132   21.4899 H   0  0  0  0  0  0
  -28.2934  -14.1834   21.6407 H   0  0  0  0  0  0
  -25.2783   -9.5643   22.4691 H   0  0  0  0  0  0
  -24.0000   -7.4612   22.7453 H   0  0  0  0  0  0
  -21.0825   -8.8770   19.8960 H   0  0  0  0  0  0
  -22.3713  -10.9630   19.6135 H   0  0  0  0  0  0
  -21.2031   -7.6139   23.9703 H   0  0  0  0  0  0
  -21.1464   -6.0505   25.9056 H   0  0  0  0  0  0
  -22.0613   -2.7602   23.2844 H   0  0  0  0  0  0
  -22.4063  -11.9916   22.4927 H   0  0  0  0  0  0
  -21.0958  -13.1120   22.2582 H   0  0  0  0  0  0
  -24.6044  -15.8283   20.5265 H   0  0  0  0  0  0
  -26.2206  -15.6404   20.0697 H   0  0  0  0  0  0
  -26.7339  -32.5220   23.0902 H   0  0  0  0  0  0
  -25.0130  -33.9566   25.0270 H   0  0  0  0  0  0
  -22.7693  -31.2803   21.3696 H   0  0  0  0  0  0
  -23.3782  -35.9538   23.3285 H   0  0  0  0  0  0
  -24.3565  -36.8866   22.2051 H   0  0  0  0  0  0
  -23.7244  -37.6413   23.6682 H   0  0  0  0  0  0
  -26.2040  -31.4116   20.6174 H   0  0  0  0  0  0
  -26.8900  -30.7184   22.0468 H   0  0  0  0  0  0
  -28.1305  -28.6709   21.2799 H   0  0  0  0  0  0
  -25.8679  -25.8080   18.9693 H   0  0  0  0  0  0
  -23.9904  -27.3071   18.9399 H   0  0  0  0  0  0
  -23.8429  -30.5484   19.3923 H   0  0  0  0  0  0
  -22.8049  -29.2271   19.8350 H   0  0  0  0  0  0
  -25.1352  -36.1811   25.0797 H   0  0  0  0  0  0
  -21.0039  -28.3340   24.1344 H   0  0  0  0  0  0
  -20.5723  -26.2347   23.3634 H   0  0  0  0  0  0
  -21.6668  -26.7441   22.1186 H   0  0  0  0  0  0
  -19.6922  -25.6290   21.1267 H   0  0  0  0  0  0
  -19.6709  -27.3189   20.6749 H   0  0  0  0  0  0
  -17.4230  -26.6715   21.4028 H   0  0  0  0  0  0
  -18.0330  -26.0099   22.9022 H   0  0  0  0  0  0
  -19.7957  -30.7321   24.2212 H   0  0  0  0  0  0
  -17.5025  -31.6273   24.5172 H   0  0  0  0  0  0
  -15.5368  -30.2972   23.7681 H   0  0  0  0  0  0
  -15.8707  -28.0805   22.7099 H   0  0  0  0  0  0
  -24.5863  -30.7160   25.7561 H   0  0  0  0  0  0
  -24.8816  -32.3008   26.4569 H   0  0  0  0  0  0
  -25.7835  -30.9030   27.0174 H   0  0  0  0  0  0
  -26.3061  -29.6641   24.1331 H   0  0  0  0  0  0
  -27.3990  -29.7282   25.4947 H   0  0  0  0  0  0
  -27.8991  -30.4155   23.9713 H   0  0  0  0  0  0
  -27.2675  -33.3681   26.1926 H   0  0  0  0  0  0
  -28.3911  -32.6802   25.0298 H   0  0  0  0  0  0
  -28.0680  -31.8509   26.5431 H   0  0  0  0  0  0
  -28.2597  -38.0071   24.7522 H   0  0  0  0  0  0
  -28.1084  -36.2604   24.6304 H   0  0  0  0  0  0
  -27.2285  -37.1424   25.8863 H   0  0  0  0  0  0
  -20.9537  -29.8728   21.6722 H   0  0  0  0  0  0
  -26.0154  -38.2804   24.1403 H   0  0  0  0  0  0
  -29.1504  -23.0483   22.2981 H   0  0  0  0  0  0
  -28.7688  -19.9184   18.6096 H   0  0  0  0  0  0
  -32.0280  -21.5901   22.6836 H   0  0  0  0  0  0
  -32.0077  -19.8353   22.5279 H   0  0  0  0  0  0
  -32.0018  -20.5842   24.1233 H   0  0  0  0  0  0
  -28.3772  -19.4822   23.6998 H   0  0  0  0  0  0
  -29.5744  -19.7334   24.9618 H   0  0  0  0  0  0
  -29.9127  -18.5987   23.6901 H   0  0  0  0  0  0
  -30.0827  -18.0846   18.2727 H   0  0  0  0  0  0
  -30.5484  -16.4218   17.9689 H   0  0  0  0  0  0
  -31.5835  -17.4611   18.9332 H   0  0  0  0  0  0
  -27.7891  -16.1435   20.4570 H   0  0  0  0  0  0
  -28.1935  -16.0855   18.7156 H   0  0  0  0  0  0
  -27.8598  -17.6036   19.4996 H   0  0  0  0  0  0
  -29.2588  -17.9557   21.8037 H   0  0  0  0  0  0
  -30.8874  -18.2649   21.3498 H   0  0  0  0  0  0
  -26.8543  -24.2633   20.4306 H   0  0  0  0  0  0
  -27.6444  -24.3866   18.9044 H   0  0  0  0  0  0
  -29.8226  -21.5929   23.6873 H   0  0  0  0  0  0
  1 25  1  0  0  0
  1 30  2  0  0  0
  1 83  1  0  0  0
  2  3  1  0  0  0
  2 25  1  0  0  0
  2 85  1  0  0  0
  2 86  1  0  0  0
  3  4  1  0  0  0
  3 87  1  0  0  0
  3 88  1  0  0  0
  4  5  1  0  0  0
  4 89  1  0  0  0
  4 90  1  0  0  0
  5  6  1  0  0  0
  5 26  1  0  0  0
  5 91  1  0  0  0
  6 25  1  0  0  0
  6 92  1  0  0  0
  6 93  1  0  0  0
  7  8  2  0  0  0
  7 26  1  0  0  0
  7 29  1  0  0  0
  8  9  1  0  0  0
  8 22  1  0  0  0
  9 10  1  0  0  0
  9 27  2  0  0  0
 10 11  2  0  0  0
 10 15  1  0  0  0
 11 12  1  0  0  0
 11 94  1  0  0  0
 12 13  2  0  0  0
 12 95  1  0  0  0
 13 14  1  0  0  0
 13 31  1  0  0  0
 14 15  2  0  0  0
 14 96  1  0  0  0
 15 97  1  0  0  0
 16 17  2  0  0  0
 16 21  1  0  0  0
 16 31  1  0  0  0
 17 18  1  0  0  0
 17 98  1  0  0  0
 18 19  2  0  0  0
 18 99  1  0  0  0
 19 20  1  0  0  0
 19 24  1  0  0  0
 20 21  2  0  0  0
 20100  1  0  0  0
 21 23  1  0  0  0
 22 28  1  0  0  0
 22 32  2  0  0  0
 26 27  1  0  0  0
 28101  1  0  0  0
 28102  1  0  0  0
 29103  1  0  0  0
 29104  1  0  0  0
 33 34  1  0  0  0
 33 66  1  0  0  0
 33 70  2  0  0  0
 34 36  1  0  0  0
 34 59  1  0  0  0
 34105  1  0  0  0
 35 44  2  0  0  0
 35 45  1  0  0  0
 35 68  1  0  0  0
 36 56  1  0  0  0
 36106  1  0  0  0
 37 39  1  0  0  0
 37 47  1  0  0  0
 37 66  1  0  0  0
 37107  1  0  0  0
 38 43  2  0  0  0
 38 46  1  0  0  0
 38 47  1  0  0  0
 39 64  1  0  0  0
 39 67  2  0  0  0
 40 52  1  0  0  0
 40 53  2  0  0  0
 40 58  1  0  0  0
 41108  1  0  0  0
 41109  1  0  0  0
 41110  1  0  0  0
 41 48  1  0  0  0
 42 43  1  0  0  0
 42 66  1  0  0  0
 42111  1  0  0  0
 42112  1  0  0  0
 43 44  1  0  0  0
 44113  1  0  0  0
 45 46  2  0  0  0
 45114  1  0  0  0
 46115  1  0  0  0
 47116  1  0  0  0
 47117  1  0  0  0
 48 56  1  0  0  0
 48 65  1  0  0  0
 48118  1  0  0  0
 49 50  1  0  0  0
 49 53  1  0  0  0
 49 64  1  0  0  0
 49119  1  0  0  0
 50 51  1  0  0  0
 50120  1  0  0  0
 50121  1  0  0  0
 51 52  1  0  0  0
 51122  1  0  0  0
 51123  1  0  0  0
 52124  1  0  0  0
 52125  1  0  0  0
 53 54  1  0  0  0
 54 55  2  0  0  0
 54126  1  0  0  0
 55 57  1  0  0  0
 55127  1  0  0  0
 56 69  2  0  0  0
 57 58  2  0  0  0
 57128  1  0  0  0
 58129  1  0  0  0
 59 60  1  0  0  0
 59 61  1  0  0  0
 59 62  1  0  0  0
 60130  1  0  0  0
 60131  1  0  0  0
 60132  1  0  0  0
 61133  1  0  0  0
 61134  1  0  0  0
 61135  1  0  0  0
 62136  1  0  0  0
 62137  1  0  0  0
 62138  1  0  0  0
 63 65  1  0  0  0
 63139  1  0  0  0
 63140  1  0  0  0
 63141  1  0  0  0
 64142  1  0  0  0
 65143  1  0  0  0
 68 81  1  0  0  0
 71 73  2  0  0  0
 71 75  1  0  0  0
 71144  1  0  0  0
 72 74  2  0  0  0
 72 84  1  0  0  0
 72145  1  0  0  0
 73 74  1  0  0  0
 73 82  1  0  0  0
 74 80  1  0  0  0
 75 81  1  0  0  0
 75 84  2  0  0  0
 76146  1  0  0  0
 76147  1  0  0  0
 76148  1  0  0  0
 76 82  1  0  0  0
 77 82  1  0  0  0
 77149  1  0  0  0
 77150  1  0  0  0
 77151  1  0  0  0
 78152  1  0  0  0
 78153  1  0  0  0
 78154  1  0  0  0
 78 83  1  0  0  0
 79 83  1  0  0  0
 79155  1  0  0  0
 79156  1  0  0  0
 79157  1  0  0  0
 80 83  1  0  0  0
 80158  1  0  0  0
 80159  1  0  0  0
 81160  1  0  0  0
 81161  1  0  0  0
 82162  1  0  0  0
M  ISO  4   1 100  68 101  81 101  83 100
M  END
> <chiral flag>
0

> <version>
0

> <s_m_source_file>
/data/baiqing/PycharmProjects/Reinvent-master-3.2/result/LINK_invent/BTK/process_docking_weight1_custom_sum_contain_oxygen_bond_distance_aromatic_linkinvent_7_9_3/rearranged_h_0069.sdf

> <i_m_source_file_index>
38

> <r_mmod_Potential_Energy-OPLS-2005>
939.360778808594

> <r_mmod_Stretch_Energy-OPLS-2005>
431.008941650391

> <r_mmod_Bend_Energy-OPLS-2005>
417.637512207031

> <r_mmod_Torsional_Energy-OPLS-2005>
231.625015258789

> <r_mmod_Improper_Torsional_Energy-OPLS-2005>
11.9022150039673

> <r_mmod_Van_der_Waal_Energy-OPLS-2005>
142.790557861328

> <r_mmod_Electrostatic_Energy-OPLS-2005>
-456.184173583984

> <r_mmod_Solvation_Energy-OPLS-2005>
-199.386581420898

> <b_mmod_Minimization_Converged-OPLS-2005>
0

> <r_mmod_RMS_Derivative-OPLS-2005>
3.42943954467773

$$$$
38
                    3D
 Structure written by MMmdl.
175183  0  0  1  0            999 V2000
  -30.7086  -14.4971   20.5194 C   0  0  0  0  0  0
  -30.4129  -12.3047   19.4426 C   0  0  0  0  0  0
  -29.4951  -12.4949   18.2175 C   0  0  0  0  0  0
  -28.0158  -12.3616   18.6263 C   0  0  0  0  0  0
  -27.6584  -13.2133   19.8739 C   0  0  2  0  0  0
  -28.7014  -13.0348   21.0018 C   0  0  0  0  0  0
  -25.2574  -13.8164   20.5701 C   0  0  0  0  0  0
  -24.1835  -13.0425   20.9196 C   0  0  0  0  0  0
  -24.6403  -11.6897   20.8748 C   0  0  0  0  0  0
  -23.9070  -10.4284   21.0395 C   0  0  0  0  0  0
  -24.3617   -9.4204   21.9179 C   0  0  0  0  0  0
  -23.6286   -8.2239   22.0753 C   0  0  0  0  0  0
  -22.4271   -8.0280   21.3541 C   0  0  0  0  0  0
  -21.9910   -9.0255   20.4645 C   0  0  0  0  0  0
  -22.7234  -10.2131   20.3055 C   0  0  0  0  0  0
  -21.6850   -6.0744   22.5280 C   0  0  0  0  0  0
  -21.4013   -6.5644   23.8215 C   0  0  0  0  0  0
  -21.3652   -5.6796   24.9176 C   0  0  0  0  0  0
  -21.6042   -4.3062   24.7223 C   0  0  0  0  0  0
  -21.8814   -3.8156   23.4346 C   0  0  0  0  0  0
  -21.9184   -4.6973   22.3397 C   0  0  0  0  0  0
  -22.7852  -13.5224   21.1836 C   0  0  0  0  0  0
  -22.1655   -4.2158   21.0973 F   0  0  0  0  0  0
  -21.5627   -3.4542   25.7740 F   0  0  0  0  0  0
  -30.0304  -13.3189   20.4398 N   0  0  0  0  0  0
  -26.3015  -12.9345   20.3378 N   0  0  0  0  0  0
  -25.9331  -11.6506   20.5777 N   0  0  0  0  0  0
  -22.0490  -12.8237   22.0410 N   0  0  0  0  0  0
  -25.4287  -15.1869   20.4080 N   0  0  0  0  0  0
  -31.8524  -14.6153   20.0769 O   0  0  0  0  0  0
  -21.6638   -6.8874   21.4234 O   0  0  0  0  0  0
  -22.3537  -14.5519   20.6670 O   0  0  0  0  0  0
  -24.6170  -31.8646   23.2089 C   0  0  0  0  0  0
  -25.9046  -32.4814   23.8383 C   0  0  1  0  0  0
  -27.2336  -27.4162   20.1085 C   0  0  0  0  0  0
  -25.5888  -33.8609   24.2321 N   0  0  0  0  0  0
  -23.4070  -30.4875   21.5504 C   0  0  2  0  0  0
  -24.8535  -28.9523   20.1135 C   0  0  0  0  0  0
  -22.7428  -29.4628   22.4979 C   0  0  0  0  0  0
  -18.0271  -28.1389   22.8473 C   0  0  0  0  0  0
  -24.1492  -36.7314   23.2642 C   0  0  0  0  0  0
  -25.9380  -30.8292   21.3614 C   0  0  0  0  0  0
  -26.0158  -29.4625   20.7075 C   0  0  0  0  0  0
  -27.2104  -28.7036   20.6967 C   0  0  0  0  0  0
  -26.0585  -26.9283   19.4984 C   0  0  0  0  0  0
  -24.8717  -27.6867   19.5013 C   0  0  0  0  0  0
  -23.6150  -29.8190   20.1666 C   0  0  0  0  0  0
  -25.4112  -36.3102   24.0331 C   0  0  1  0  0  0
  -20.5870  -28.3670   23.1323 C   0  0  2  0  0  0
  -20.6773  -26.9400   22.5435 C   0  0  0  0  0  0
  -19.5760  -26.6385   21.5229 C   0  0  0  0  0  0
  -18.1921  -26.7935   22.1611 C   0  0  0  0  0  0
  -19.1522  -28.8847   23.2896 C   0  0  0  0  0  0
  -18.9443  -30.1446   23.8913 C   0  0  0  0  0  0
  -17.6446  -30.6588   24.0565 C   0  0  0  0  0  0
  -25.9039  -34.9469   23.5125 C   0  0  0  0  0  0
  -16.5339  -29.9087   23.6331 C   0  0  0  0  0  0
  -16.7259  -28.6516   23.0331 C   0  0  0  0  0  0
  -26.4469  -31.6589   25.0713 C   0  0  0  0  0  0
  -25.3740  -31.3674   26.1460 C   0  0  0  0  0  0
  -27.0300  -30.3030   24.6094 C   0  0  0  0  0  0
  -27.6051  -32.4306   25.7461 C   0  0  0  0  0  0
  -27.5574  -37.1801   24.8458 C   0  0  0  0  0  0
  -21.4149  -29.3025   22.3718 N   0  0  0  0  0  0
  -26.4298  -37.3786   23.9400 N   0  0  0  0  0  0
  -24.6727  -31.0744   22.0990 N   0  0  0  0  0  0
  -23.4192  -28.8131   23.3005 O   0  0  0  0  0  0
  -28.3809  -26.6463   20.1343 O   0  0  0  0  0  0
  -26.5615  -34.8924   22.4694 O   0  0  0  0  0  0
  -23.5359  -32.1386   23.7481 O   0  0  0  0  0  0
  -28.4952  -20.3410   20.5282 C   0  0  0  0  0  0
  -28.6475  -21.7380   20.7575 C   0  0  0  0  0  0
  -29.2823  -19.4632   21.3250 C   0  0  0  0  0  0
  -30.2393  -21.2991   22.3536 C   0  0  0  0  0  0
  -27.4930  -19.8196   19.5029 C   0  0  0  0  0  0
  -30.8749  -22.9912   24.1299 C   0  0  0  0  0  0
  -32.5158  -22.3625   22.3086 C   0  0  0  0  0  0
  -31.9726  -20.7683   24.1611 C   0  0  0  0  0  0
  -31.6667  -17.4398   21.1434 C   0  0  0  0  0  0
  -30.1676  -17.2742   19.1157 C   0  0  0  0  0  0
  -27.7425  -22.8130   20.1241 C   0  0  0  0  0  0
  -29.1558  -17.9104   21.3556 C   0  0  0  0  0  0
  -28.3977  -24.1617   19.6922 C   0  0  0  0  0  0
  -28.2380  -25.3243   20.7094 C   0  0  0  0  0  0
  -31.3870  -21.8523   23.2234 C   0  0  0  0  0  0
  -30.2543  -17.0332   20.6411 C   0  0  0  0  0  0
  -29.5200  -22.1868   21.6749 N   0  0  0  0  0  0
  -30.1456  -19.9804   22.2165 N   0  0  0  0  0  0
  -29.9894  -15.5799   20.9044 N   0  0  0  0  0  0
  -31.4597  -12.3792   19.1426 H   0  0  0  0  0  0
  -30.2964  -11.3044   19.8635 H   0  0  0  0  0  0
  -29.7372  -11.7611   17.4489 H   0  0  0  0  0  0
  -29.6702  -13.4746   17.7695 H   0  0  0  0  0  0
  -27.8265  -11.3070   18.8306 H   0  0  0  0  0  0
  -27.3686  -12.6323   17.7912 H   0  0  0  0  0  0
  -27.6895  -14.2561   19.5587 H   0  0  0  0  0  0
  -28.6732  -12.0147   21.3891 H   0  0  0  0  0  0
  -28.4700  -13.6807   21.8498 H   0  0  0  0  0  0
  -25.2750   -9.5687   22.4769 H   0  0  0  0  0  0
  -23.9984   -7.4626   22.7481 H   0  0  0  0  0  0
  -21.0840   -8.8778   19.8951 H   0  0  0  0  0  0
  -22.3685  -10.9681   19.6180 H   0  0  0  0  0  0
  -21.2025   -7.6152   23.9733 H   0  0  0  0  0  0
  -21.1474   -6.0521   25.9079 H   0  0  0  0  0  0
  -22.0607   -2.7622   23.2842 H   0  0  0  0  0  0
  -22.4084  -11.9894   22.4814 H   0  0  0  0  0  0
  -21.1111  -13.1291   22.2594 H   0  0  0  0  0  0
  -24.6548  -15.8366   20.4986 H   0  0  0  0  0  0
  -26.2707  -15.6229   20.0545 H   0  0  0  0  0  0
  -26.7110  -32.5527   23.1136 H   0  0  0  0  0  0
  -25.0025  -33.9785   25.0452 H   0  0  0  0  0  0
  -22.7014  -31.3079   21.4077 H   0  0  0  0  0  0
  -23.3760  -35.9636   23.3312 H   0  0  0  0  0  0
  -24.3598  -36.8941   22.2061 H   0  0  0  0  0  0
  -23.7237  -37.6512   23.6662 H   0  0  0  0  0  0
  -26.0602  -31.5984   20.5965 H   0  0  0  0  0  0
  -26.8266  -30.8816   21.9796 H   0  0  0  0  0  0
  -28.1053  -29.0907   21.1631 H   0  0  0  0  0  0
  -26.0573  -25.9559   19.0274 H   0  0  0  0  0  0
  -23.9784  -27.2900   19.0376 H   0  0  0  0  0  0
  -23.7215  -30.5950   19.4089 H   0  0  0  0  0  0
  -22.7391  -29.2383   19.8708 H   0  0  0  0  0  0
  -25.1290  -36.1960   25.0824 H   0  0  0  0  0  0
  -20.9961  -28.3232   24.1448 H   0  0  0  0  0  0
  -20.5707  -26.2255   23.3613 H   0  0  0  0  0  0
  -21.6629  -26.7449   22.1206 H   0  0  0  0  0  0
  -19.6935  -25.6308   21.1230 H   0  0  0  0  0  0
  -19.6714  -27.3222   20.6793 H   0  0  0  0  0  0
  -17.4195  -26.6669   21.4008 H   0  0  0  0  0  0
  -18.0295  -26.0102   22.9029 H   0  0  0  0  0  0
  -19.7918  -30.7247   24.2294 H   0  0  0  0  0  0
  -17.5000  -31.6272   24.5145 H   0  0  0  0  0  0
  -15.5337  -30.2984   23.7682 H   0  0  0  0  0  0
  -15.8653  -28.0860   22.7035 H   0  0  0  0  0  0
  -24.5934  -30.7005   25.7794 H   0  0  0  0  0  0
  -24.8904  -32.2813   26.4919 H   0  0  0  0  0  0
  -25.8104  -30.8832   27.0205 H   0  0  0  0  0  0
  -26.2846  -29.6777   24.1178 H   0  0  0  0  0  0
  -27.4106  -29.7273   25.4537 H   0  0  0  0  0  0
  -27.8652  -30.4372   23.9221 H   0  0  0  0  0  0
  -27.2704  -33.3614   26.2049 H   0  0  0  0  0  0
  -28.3837  -32.6861   25.0264 H   0  0  0  0  0  0
  -28.0747  -31.8424   26.5354 H   0  0  0  0  0  0
  -28.2586  -38.0106   24.7526 H   0  0  0  0  0  0
  -28.1071  -36.2636   24.6253 H   0  0  0  0  0  0
  -27.2293  -37.1433   25.8863 H   0  0  0  0  0  0
  -20.9299  -29.8728   21.6922 H   0  0  0  0  0  0
  -26.0181  -38.2848   24.1427 H   0  0  0  0  0  0
  -26.4721  -20.0034   19.8406 H   0  0  0  0  0  0
  -27.5944  -18.7559   19.3013 H   0  0  0  0  0  0
  -27.6333  -20.3166   18.5422 H   0  0  0  0  0  0
  -30.4831  -23.8230   23.5455 H   0  0  0  0  0  0
  -31.6659  -23.3858   24.7670 H   0  0  0  0  0  0
  -30.0740  -22.6390   24.7794 H   0  0  0  0  0  0
  -32.1569  -23.1537   21.6500 H   0  0  0  0  0  0
  -32.9025  -21.5601   21.6798 H   0  0  0  0  0  0
  -33.3491  -22.7641   22.8832 H   0  0  0  0  0  0
  -31.2012  -20.3467   24.8066 H   0  0  0  0  0  0
  -32.7560  -21.1712   24.8037 H   0  0  0  0  0  0
  -32.4125  -19.9449   23.5962 H   0  0  0  0  0  0
  -31.8811  -18.4885   20.9344 H   0  0  0  0  0  0
  -32.4718  -16.8906   20.6576 H   0  0  0  0  0  0
  -31.7692  -17.2936   22.2199 H   0  0  0  0  0  0
  -30.2977  -18.3282   18.8678 H   0  0  0  0  0  0
  -29.2024  -16.9623   18.7142 H   0  0  0  0  0  0
  -30.9375  -16.7251   18.5728 H   0  0  0  0  0  0
  -26.9009  -22.9904   20.7944 H   0  0  0  0  0  0
  -27.2951  -22.3977   19.2238 H   0  0  0  0  0  0
  -28.1647  -17.6115   21.0178 H   0  0  0  0  0  0
  -29.1542  -17.6323   22.4105 H   0  0  0  0  0  0
  -27.9049  -24.4748   18.7728 H   0  0  0  0  0  0
  -29.4421  -24.0146   19.4171 H   0  0  0  0  0  0
  -28.9974  -25.2118   21.4848 H   0  0  0  0  0  0
  -27.2833  -25.2365   21.2336 H   0  0  0  0  0  0
  -29.0768  -15.3558   21.2730 H   0  0  0  0  0  0
  1 25  1  0  0  0
  1 30  2  0  0  0
  1 89  1  0  0  0
  2  3  1  0  0  0
  2 25  1  0  0  0
  2 90  1  0  0  0
  2 91  1  0  0  0
  3  4  1  0  0  0
  3 92  1  0  0  0
  3 93  1  0  0  0
  4  5  1  0  0  0
  4 94  1  0  0  0
  4 95  1  0  0  0
  5  6  1  0  0  0
  5 26  1  0  0  0
  5 96  1  0  0  0
  6 25  1  0  0  0
  6 97  1  0  0  0
  6 98  1  0  0  0
  7  8  2  0  0  0
  7 26  1  0  0  0
  7 29  1  0  0  0
  8  9  1  0  0  0
  8 22  1  0  0  0
  9 10  1  0  0  0
  9 27  2  0  0  0
 10 11  2  0  0  0
 10 15  1  0  0  0
 11 12  1  0  0  0
 11 99  1  0  0  0
 12 13  2  0  0  0
 12100  1  0  0  0
 13 14  1  0  0  0
 13 31  1  0  0  0
 14 15  2  0  0  0
 14101  1  0  0  0
 15102  1  0  0  0
 16 17  2  0  0  0
 16 21  1  0  0  0
 16 31  1  0  0  0
 17 18  1  0  0  0
 17103  1  0  0  0
 18 19  2  0  0  0
 18104  1  0  0  0
 19 20  1  0  0  0
 19 24  1  0  0  0
 20 21  2  0  0  0
 20105  1  0  0  0
 21 23  1  0  0  0
 22 28  1  0  0  0
 22 32  2  0  0  0
 26 27  1  0  0  0
 28106  1  0  0  0
 28107  1  0  0  0
 29108  1  0  0  0
 29109  1  0  0  0
 33 34  1  0  0  0
 33 66  1  0  0  0
 33 70  2  0  0  0
 34 36  1  0  0  0
 34 59  1  0  0  0
 34110  1  0  0  0
 35 44  2  0  0  0
 35 45  1  0  0  0
 35 68  1  0  0  0
 36 56  1  0  0  0
 36111  1  0  0  0
 37 39  1  0  0  0
 37 47  1  0  0  0
 37 66  1  0  0  0
 37112  1  0  0  0
 38 43  2  0  0  0
 38 46  1  0  0  0
 38 47  1  0  0  0
 39 64  1  0  0  0
 39 67  2  0  0  0
 40 52  1  0  0  0
 40 53  2  0  0  0
 40 58  1  0  0  0
 41113  1  0  0  0
 41114  1  0  0  0
 41115  1  0  0  0
 41 48  1  0  0  0
 42 43  1  0  0  0
 42 66  1  0  0  0
 42116  1  0  0  0
 42117  1  0  0  0
 43 44  1  0  0  0
 44118  1  0  0  0
 45 46  2  0  0  0
 45119  1  0  0  0
 46120  1  0  0  0
 47121  1  0  0  0
 47122  1  0  0  0
 48 56  1  0  0  0
 48 65  1  0  0  0
 48123  1  0  0  0
 49 50  1  0  0  0
 49 53  1  0  0  0
 49 64  1  0  0  0
 49124  1  0  0  0
 50 51  1  0  0  0
 50125  1  0  0  0
 50126  1  0  0  0
 51 52  1  0  0  0
 51127  1  0  0  0
 51128  1  0  0  0
 52129  1  0  0  0
 52130  1  0  0  0
 53 54  1  0  0  0
 54 55  2  0  0  0
 54131  1  0  0  0
 55 57  1  0  0  0
 55132  1  0  0  0
 56 69  2  0  0  0
 57 58  2  0  0  0
 57133  1  0  0  0
 58134  1  0  0  0
 59 60  1  0  0  0
 59 61  1  0  0  0
 59 62  1  0  0  0
 60135  1  0  0  0
 60136  1  0  0  0
 60137  1  0  0  0
 61138  1  0  0  0
 61139  1  0  0  0
 61140  1  0  0  0
 62141  1  0  0  0
 62142  1  0  0  0
 62143  1  0  0  0
 63 65  1  0  0  0
 63144  1  0  0  0
 63145  1  0  0  0
 63146  1  0  0  0
 64147  1  0  0  0
 65148  1  0  0  0
 68 84  1  0  0  0
 71 72  2  0  0  0
 71 73  1  0  0  0
 71 75  1  0  0  0
 72 81  1  0  0  0
 72 87  1  0  0  0
 73 82  1  0  0  0
 73 88  2  0  0  0
 74 85  1  0  0  0
 74 87  2  0  0  0
 74 88  1  0  0  0
 75149  1  0  0  0
 75150  1  0  0  0
 75151  1  0  0  0
 76152  1  0  0  0
 76153  1  0  0  0
 76154  1  0  0  0
 76 85  1  0  0  0
 77 85  1  0  0  0
 77155  1  0  0  0
 77156  1  0  0  0
 77157  1  0  0  0
 78 85  1  0  0  0
 78158  1  0  0  0
 78159  1  0  0  0
 78160  1  0  0  0
 79161  1  0  0  0
 79162  1  0  0  0
 79163  1  0  0  0
 79 86  1  0  0  0
 80 86  1  0  0  0
 80164  1  0  0  0
 80165  1  0  0  0
 80166  1  0  0  0
 81 83  1  0  0  0
 81167  1  0  0  0
 81168  1  0  0  0
 82 86  1  0  0  0
 82169  1  0  0  0
 82170  1  0  0  0
 83 84  1  0  0  0
 83171  1  0  0  0
 83172  1  0  0  0
 84173  1  0  0  0
 84174  1  0  0  0
 86 89  1  0  0  0
 89175  1  0  0  0
M  ISO  4   1 100  68 101  84 101  89 100
M  END
> <chiral flag>
0

> <version>
0

> <s_m_source_file>
/data/baiqing/PycharmProjects/Reinvent-master-3.2/result/LINK_invent/BTK/process_docking_weight1_custom_sum_contain_oxygen_bond_distance_aromatic_linkinvent_7_9_3/rearranged_h_0069.sdf

> <i_m_source_file_index>
39

> <r_mmod_Potential_Energy-OPLS-2005>
-371.774841308594

> <r_mmod_Stretch_Energy-OPLS-2005>
51.3374290466309

> <r_mmod_Bend_Energy-OPLS-2005>
121.687858581543

> <r_mmod_Torsional_Energy-OPLS-2005>
209.691940307617

> <r_mmod_Improper_Torsional_Energy-OPLS-2005>
6.89989423751831

> <r_mmod_Van_der_Waal_Energy-OPLS-2005>
163.994857788086

> <r_mmod_Electrostatic_Energy-OPLS-2005>
-727.878112792969

> <r_mmod_Solvation_Energy-OPLS-2005>
-215.550537109375

> <b_mmod_Minimization_Converged-OPLS-2005>
0

> <r_mmod_RMS_Derivative-OPLS-2005>
2.61588454246521

$$$$
39
                    3D
 Structure written by MMmdl.
157165  0  0  1  0            999 V2000
  -30.6498  -14.6226   20.4787 C   0  0  0  0  0  0
  -30.4264  -12.3780   19.4432 C   0  0  0  0  0  0
  -29.4954  -12.4891   18.2163 C   0  0  0  0  0  0
  -28.0203  -12.3322   18.6344 C   0  0  0  0  0  0
  -27.6480  -13.2144   19.8528 C   0  0  2  0  0  0
  -28.6991  -13.0888   20.9799 C   0  0  0  0  0  0
  -25.2546  -13.8169   20.5642 C   0  0  0  0  0  0
  -24.1817  -13.0442   20.9164 C   0  0  0  0  0  0
  -24.6376  -11.6897   20.8736 C   0  0  0  0  0  0
  -23.9049  -10.4279   21.0394 C   0  0  0  0  0  0
  -24.3587   -9.4217   21.9189 C   0  0  0  0  0  0
  -23.6271   -8.2245   22.0772 C   0  0  0  0  0  0
  -22.4267   -8.0265   21.3543 C   0  0  0  0  0  0
  -21.9898   -9.0243   20.4664 C   0  0  0  0  0  0
  -22.7213  -10.2124   20.3053 C   0  0  0  0  0  0
  -21.6858   -6.0713   22.5273 C   0  0  0  0  0  0
  -21.4028   -6.5631   23.8209 C   0  0  0  0  0  0
  -21.3659   -5.6795   24.9173 C   0  0  0  0  0  0
  -21.6041   -4.3054   24.7239 C   0  0  0  0  0  0
  -21.8821   -3.8132   23.4367 C   0  0  0  0  0  0
  -21.9195   -4.6930   22.3412 C   0  0  0  0  0  0
  -22.7833  -13.5235   21.1806 C   0  0  0  0  0  0
  -22.1651   -4.2090   21.0992 F   0  0  0  0  0  0
  -21.5628   -3.4546   25.7756 F   0  0  0  0  0  0
  -30.0100  -13.4167   20.4029 N   0  0  0  0  0  0
  -26.2960  -12.9336   20.3268 N   0  0  0  0  0  0
  -25.9299  -11.6505   20.5766 N   0  0  0  0  0  0
  -22.0468  -12.8247   22.0365 N   0  0  0  0  0  0
  -25.4310  -15.1882   20.4025 N   0  0  0  0  0  0
  -31.8300  -14.7512   20.1434 O   0  0  0  0  0  0
  -21.6650   -6.8845   21.4236 O   0  0  0  0  0  0
  -22.3533  -14.5547   20.6642 O   0  0  0  0  0  0
  -24.6253  -31.8613   23.1999 C   0  0  0  0  0  0
  -25.9091  -32.4785   23.8371 C   0  0  1  0  0  0
  -27.2279  -27.3193   20.1185 C   0  0  0  0  0  0
  -25.5896  -33.8581   24.2302 N   0  0  0  0  0  0
  -23.4185  -30.4843   21.5438 C   0  0  2  0  0  0
  -24.8652  -28.9350   20.1109 C   0  0  0  0  0  0
  -22.7471  -29.4638   22.4930 C   0  0  0  0  0  0
  -18.0285  -28.1411   22.8458 C   0  0  0  0  0  0
  -24.1478  -36.7305   23.2644 C   0  0  0  0  0  0
  -25.9581  -30.7934   21.3675 C   0  0  0  0  0  0
  -26.0329  -29.4164   20.7170 C   0  0  0  0  0  0
  -27.2148  -28.6182   20.7134 C   0  0  0  0  0  0
  -26.0376  -26.8890   19.4885 C   0  0  0  0  0  0
  -24.8699  -27.6763   19.4886 C   0  0  0  0  0  0
  -23.6325  -29.8168   20.1589 C   0  0  0  0  0  0
  -25.4095  -36.3088   24.0344 C   0  0  1  0  0  0
  -20.5878  -28.3712   23.1267 C   0  0  2  0  0  0
  -20.6771  -26.9438   22.5396 C   0  0  0  0  0  0
  -19.5753  -26.6397   21.5194 C   0  0  0  0  0  0
  -18.1930  -26.7947   22.1609 C   0  0  0  0  0  0
  -19.1537  -28.8879   23.2856 C   0  0  0  0  0  0
  -18.9464  -30.1468   23.8888 C   0  0  0  0  0  0
  -17.6465  -30.6604   24.0553 C   0  0  0  0  0  0
  -25.9028  -34.9452   23.5128 C   0  0  0  0  0  0
  -16.5353  -29.9110   23.6315 C   0  0  0  0  0  0
  -16.7268  -28.6531   23.0332 C   0  0  0  0  0  0
  -26.4465  -31.6583   25.0739 C   0  0  0  0  0  0
  -25.3682  -31.3721   26.1461 C   0  0  0  0  0  0
  -27.0324  -30.3022   24.6164 C   0  0  0  0  0  0
  -27.6055  -32.4290   25.7496 C   0  0  0  0  0  0
  -27.5569  -37.1798   24.8460 C   0  0  0  0  0  0
  -21.4188  -29.3069   22.3674 N   0  0  0  0  0  0
  -26.4277  -37.3778   23.9416 N   0  0  0  0  0  0
  -24.6870  -31.0623   22.0951 N   0  0  0  0  0  0
  -23.4193  -28.8185   23.3017 O   0  0  0  0  0  0
  -28.3578  -26.4883   20.1721 O   0  0  0  0  0  0
  -26.5609  -34.8912   22.4699 O   0  0  0  0  0  0
  -23.5411  -32.1423   23.7313 O   0  0  0  0  0  0
  -29.5359  -20.4036   21.3841 C   0  0  0  0  0  0
  -29.2412  -19.7147   20.1912 C   0  0  0  0  0  0
  -28.8873  -20.5956   19.1189 C   0  0  0  0  0  0
  -29.1910  -22.5089   20.4249 C   0  0  0  0  0  0
  -30.7331  -24.5211   20.0163 C   0  0  0  0  0  0
  -29.1509  -18.1374   20.1101 C   0  0  0  0  0  0
  -30.2525  -17.1766   20.7266 C   0  0  0  0  0  0
  -28.2087  -25.0258   19.9549 C   0  0  0  0  0  0
  -29.3516  -24.0796   20.5286 C   0  0  1  0  0  0
  -28.4180  -20.1008   17.7385 C   0  0  0  0  0  0
  -29.5141  -21.7621   21.4876 N   0  0  0  0  0  0
  -28.9214  -21.9583   19.2495 N   0  0  0  0  0  0
  -29.8729  -15.7191   20.7315 N   0  0  0  0  0  0
  -29.4674  -19.6808   17.0304 F   0  0  0  0  0  0
  -27.5344  -19.1062   17.8431 F   0  0  0  0  0  0
  -27.8219  -21.0814   17.0509 F   0  0  0  0  0  0
  -31.4699  -12.4836   19.1412 H   0  0  0  0  0  0
  -30.3434  -11.3916   19.9004 H   0  0  0  0  0  0
  -29.7570  -11.7302   17.4779 H   0  0  0  0  0  0
  -29.6340  -13.4559   17.7302 H   0  0  0  0  0  0
  -27.8553  -11.2827   18.8792 H   0  0  0  0  0  0
  -27.3613  -12.5499   17.7931 H   0  0  0  0  0  0
  -27.6612  -14.2418   19.4919 H   0  0  0  0  0  0
  -28.7144  -12.0711   21.3702 H   0  0  0  0  0  0
  -28.4563  -13.7341   21.8251 H   0  0  0  0  0  0
  -25.2717   -9.5706   22.4775 H   0  0  0  0  0  0
  -23.9967   -7.4666   22.7519 H   0  0  0  0  0  0
  -21.0816   -8.8781   19.8990 H   0  0  0  0  0  0
  -22.3674  -10.9664   19.6159 H   0  0  0  0  0  0
  -21.2045   -7.6143   23.9695 H   0  0  0  0  0  0
  -21.1462   -6.0528   25.9070 H   0  0  0  0  0  0
  -22.0598   -2.7585   23.2903 H   0  0  0  0  0  0
  -22.4047  -11.9913   22.4785 H   0  0  0  0  0  0
  -21.1102  -13.1326   22.2549 H   0  0  0  0  0  0
  -24.6779  -15.8537   20.5352 H   0  0  0  0  0  0
  -26.2741  -15.6164   20.0441 H   0  0  0  0  0  0
  -26.7171  -32.5457   23.1142 H   0  0  0  0  0  0
  -24.9994  -33.9736   25.0411 H   0  0  0  0  0  0
  -22.7112  -31.3032   21.4000 H   0  0  0  0  0  0
  -23.3733  -35.9642   23.3297 H   0  0  0  0  0  0
  -24.3573  -36.8928   22.2057 H   0  0  0  0  0  0
  -23.7234  -37.6512   23.6661 H   0  0  0  0  0  0
  -26.0741  -31.5488   20.5885 H   0  0  0  0  0  0
  -26.8441  -30.8575   21.9873 H   0  0  0  0  0  0
  -28.1083  -28.9777   21.2035 H   0  0  0  0  0  0
  -25.9838  -25.9270   18.9992 H   0  0  0  0  0  0
  -23.9760  -27.3044   19.0074 H   0  0  0  0  0  0
  -23.7447  -30.5939   19.4022 H   0  0  0  0  0  0
  -22.7528  -29.2463   19.8571 H   0  0  0  0  0  0
  -25.1264  -36.1955   25.0836 H   0  0  0  0  0  0
  -20.9959  -28.3292   24.1390 H   0  0  0  0  0  0
  -20.5660  -26.2334   23.3601 H   0  0  0  0  0  0
  -21.6641  -26.7464   22.1199 H   0  0  0  0  0  0
  -19.6918  -25.6297   21.1255 H   0  0  0  0  0  0
  -19.6702  -27.3178   20.6698 H   0  0  0  0  0  0
  -17.4193  -26.6660   21.4022 H   0  0  0  0  0  0
  -18.0347  -26.0111   22.9030 H   0  0  0  0  0  0
  -19.7941  -30.7270   24.2269 H   0  0  0  0  0  0
  -17.5030  -31.6283   24.5166 H   0  0  0  0  0  0
  -15.5358  -30.3028   23.7638 H   0  0  0  0  0  0
  -15.8659  -28.0855   22.7057 H   0  0  0  0  0  0
  -24.5866  -30.7064   25.7782 H   0  0  0  0  0  0
  -24.8851  -32.2884   26.4864 H   0  0  0  0  0  0
  -25.7981  -30.8917   27.0259 H   0  0  0  0  0  0
  -26.2916  -29.6772   24.1169 H   0  0  0  0  0  0
  -27.4046  -29.7267   25.4651 H   0  0  0  0  0  0
  -27.8753  -30.4362   23.9380 H   0  0  0  0  0  0
  -27.2715  -33.3602   26.2080 H   0  0  0  0  0  0
  -28.3850  -32.6817   25.0296 H   0  0  0  0  0  0
  -28.0732  -31.8398   26.5395 H   0  0  0  0  0  0
  -28.2576  -38.0101   24.7496 H   0  0  0  0  0  0
  -28.1072  -36.2631   24.6285 H   0  0  0  0  0  0
  -27.2287  -37.1433   25.8861 H   0  0  0  0  0  0
  -20.9369  -29.8828   21.6913 H   0  0  0  0  0  0
  -26.0166  -38.2857   24.1416 H   0  0  0  0  0  0
  -29.7590  -19.8631   22.2932 H   0  0  0  0  0  0
  -31.5286  -23.9912   20.5415 H   0  0  0  0  0  0
  -30.8869  -25.5867   20.1849 H   0  0  0  0  0  0
  -30.8452  -24.3297   18.9491 H   0  0  0  0  0  0
  -29.0887  -17.8501   19.0632 H   0  0  0  0  0  0
  -28.1894  -17.8647   20.5477 H   0  0  0  0  0  0
  -30.4484  -17.4558   21.7613 H   0  0  0  0  0  0
  -31.1979  -17.3130   20.1949 H   0  0  0  0  0  0
  -27.2702  -24.6840   20.3943 H   0  0  0  0  0  0
  -28.1279  -24.8539   18.8807 H   0  0  0  0  0  0
  -29.3527  -24.2800   21.5990 H   0  0  0  0  0  0
  -28.9039  -15.5163   20.9303 H   0  0  0  0  0  0
  1 25  1  0  0  0
  1 30  2  0  0  0
  1 83  1  0  0  0
  2  3  1  0  0  0
  2 25  1  0  0  0
  2 87  1  0  0  0
  2 88  1  0  0  0
  3  4  1  0  0  0
  3 89  1  0  0  0
  3 90  1  0  0  0
  4  5  1  0  0  0
  4 91  1  0  0  0
  4 92  1  0  0  0
  5  6  1  0  0  0
  5 26  1  0  0  0
  5 93  1  0  0  0
  6 25  1  0  0  0
  6 94  1  0  0  0
  6 95  1  0  0  0
  7  8  2  0  0  0
  7 26  1  0  0  0
  7 29  1  0  0  0
  8  9  1  0  0  0
  8 22  1  0  0  0
  9 10  1  0  0  0
  9 27  2  0  0  0
 10 11  2  0  0  0
 10 15  1  0  0  0
 11 12  1  0  0  0
 11 96  1  0  0  0
 12 13  2  0  0  0
 12 97  1  0  0  0
 13 14  1  0  0  0
 13 31  1  0  0  0
 14 15  2  0  0  0
 14 98  1  0  0  0
 15 99  1  0  0  0
 16 17  2  0  0  0
 16 21  1  0  0  0
 16 31  1  0  0  0
 17 18  1  0  0  0
 17100  1  0  0  0
 18 19  2  0  0  0
 18101  1  0  0  0
 19 20  1  0  0  0
 19 24  1  0  0  0
 20 21  2  0  0  0
 20102  1  0  0  0
 21 23  1  0  0  0
 22 28  1  0  0  0
 22 32  2  0  0  0
 26 27  1  0  0  0
 28103  1  0  0  0
 28104  1  0  0  0
 29105  1  0  0  0
 29106  1  0  0  0
 33 34  1  0  0  0
 33 66  1  0  0  0
 33 70  2  0  0  0
 34 36  1  0  0  0
 34 59  1  0  0  0
 34107  1  0  0  0
 35 44  2  0  0  0
 35 45  1  0  0  0
 35 68  1  0  0  0
 36 56  1  0  0  0
 36108  1  0  0  0
 37 39  1  0  0  0
 37 47  1  0  0  0
 37 66  1  0  0  0
 37109  1  0  0  0
 38 43  2  0  0  0
 38 46  1  0  0  0
 38 47  1  0  0  0
 39 64  1  0  0  0
 39 67  2  0  0  0
 40 52  1  0  0  0
 40 53  2  0  0  0
 40 58  1  0  0  0
 41110  1  0  0  0
 41111  1  0  0  0
 41112  1  0  0  0
 41 48  1  0  0  0
 42 43  1  0  0  0
 42 66  1  0  0  0
 42113  1  0  0  0
 42114  1  0  0  0
 43 44  1  0  0  0
 44115  1  0  0  0
 45 46  2  0  0  0
 45116  1  0  0  0
 46117  1  0  0  0
 47118  1  0  0  0
 47119  1  0  0  0
 48 56  1  0  0  0
 48 65  1  0  0  0
 48120  1  0  0  0
 49 50  1  0  0  0
 49 53  1  0  0  0
 49 64  1  0  0  0
 49121  1  0  0  0
 50 51  1  0  0  0
 50122  1  0  0  0
 50123  1  0  0  0
 51 52  1  0  0  0
 51124  1  0  0  0
 51125  1  0  0  0
 52126  1  0  0  0
 52127  1  0  0  0
 53 54  1  0  0  0
 54 55  2  0  0  0
 54128  1  0  0  0
 55 57  1  0  0  0
 55129  1  0  0  0
 56 69  2  0  0  0
 57 58  2  0  0  0
 57130  1  0  0  0
 58131  1  0  0  0
 59 60  1  0  0  0
 59 61  1  0  0  0
 59 62  1  0  0  0
 60132  1  0  0  0
 60133  1  0  0  0
 60134  1  0  0  0
 61135  1  0  0  0
 61136  1  0  0  0
 61137  1  0  0  0
 62138  1  0  0  0
 62139  1  0  0  0
 62140  1  0  0  0
 63 65  1  0  0  0
 63141  1  0  0  0
 63142  1  0  0  0
 63143  1  0  0  0
 64144  1  0  0  0
 65145  1  0  0  0
 68 78  1  0  0  0
 71 72  2  0  0  0
 71 81  1  0  0  0
 71146  1  0  0  0
 72 73  1  0  0  0
 72 76  1  0  0  0
 73 80  1  0  0  0
 73 82  2  0  0  0
 74 79  1  0  0  0
 74 81  2  0  0  0
 74 82  1  0  0  0
 75147  1  0  0  0
 75148  1  0  0  0
 75149  1  0  0  0
 75 79  1  0  0  0
 76 77  1  0  0  0
 76150  1  0  0  0
 76151  1  0  0  0
 77 83  1  0  0  0
 77152  1  0  0  0
 77153  1  0  0  0
 78 79  1  0  0  0
 78154  1  0  0  0
 78155  1  0  0  0
 79156  1  0  0  0
 80 84  1  0  0  0
 80 85  1  0  0  0
 80 86  1  0  0  0
 83157  1  0  0  0
M  ISO  4   1 100  68 101  78 101  83 100
M  END
> <chiral flag>
0

> <version>
0

> <s_m_source_file>
/data/baiqing/PycharmProjects/Reinvent-master-3.2/result/LINK_invent/BTK/process_docking_weight1_custom_sum_contain_oxygen_bond_distance_aromatic_linkinvent_7_9_3/rearranged_h_0069.sdf

> <i_m_source_file_index>
40

> <r_mmod_Potential_Energy-OPLS-2005>
-314.023132324219

> <r_mmod_Stretch_Energy-OPLS-2005>
79.6160888671875

> <r_mmod_Bend_Energy-OPLS-2005>
140.047393798828

> <r_mmod_Torsional_Energy-OPLS-2005>
188.438522338867

> <r_mmod_Improper_Torsional_Energy-OPLS-2005>
6.12663793563843

> <r_mmod_Van_der_Waal_Energy-OPLS-2005>
150.097640991211

> <r_mmod_Electrostatic_Energy-OPLS-2005>
-705.549926757812

> <r_mmod_Solvation_Energy-OPLS-2005>
-219.745330810547

> <b_mmod_Minimization_Converged-OPLS-2005>
0

> <r_mmod_RMS_Derivative-OPLS-2005>
3.35062479972839

$$$$
40
                    3D
 Structure written by MMmdl.
173181  0  0  1  0            999 V2000
  -30.7383  -14.7320   20.3287 C   0  0  0  0  0  0
  -30.3995  -12.4503   19.4380 C   0  0  0  0  0  0
  -29.4863  -12.4367   18.2020 C   0  0  0  0  0  0
  -28.0157  -12.2976   18.6366 C   0  0  0  0  0  0
  -27.6222  -13.2459   19.8062 C   0  0  2  0  0  0
  -28.6857  -13.3050   20.9188 C   0  0  0  0  0  0
  -25.2535  -13.8120   20.5982 C   0  0  0  0  0  0
  -24.1781  -13.0390   20.9262 C   0  0  0  0  0  0
  -24.6359  -11.6861   20.8690 C   0  0  0  0  0  0
  -23.9035  -10.4253   21.0382 C   0  0  0  0  0  0
  -24.3579   -9.4196   21.9202 C   0  0  0  0  0  0
  -23.6247   -8.2237   22.0785 C   0  0  0  0  0  0
  -22.4244   -8.0245   21.3548 C   0  0  0  0  0  0
  -21.9863   -9.0238   20.4675 C   0  0  0  0  0  0
  -22.7186  -10.2117   20.3069 C   0  0  0  0  0  0
  -21.6834   -6.0681   22.5267 C   0  0  0  0  0  0
  -21.4005   -6.5616   23.8189 C   0  0  0  0  0  0
  -21.3661   -5.6797   24.9177 C   0  0  0  0  0  0
  -21.6037   -4.3057   24.7245 C   0  0  0  0  0  0
  -21.8813   -3.8108   23.4379 C   0  0  0  0  0  0
  -21.9182   -4.6903   22.3408 C   0  0  0  0  0  0
  -22.7807  -13.5216   21.1873 C   0  0  0  0  0  0
  -22.1651   -4.2079   21.0988 F   0  0  0  0  0  0
  -21.5644   -3.4557   25.7775 F   0  0  0  0  0  0
  -29.9677  -13.5935   20.2715 N   0  0  0  0  0  0
  -26.2901  -12.9400   20.3218 N   0  0  0  0  0  0
  -25.9286  -11.6509   20.5609 N   0  0  0  0  0  0
  -22.0356  -12.8298   22.0404 N   0  0  0  0  0  0
  -25.4349  -15.1822   20.4929 N   0  0  0  0  0  0
  -31.9434  -14.5147   20.4610 O   0  0  0  0  0  0
  -21.6621   -6.8829   21.4226 O   0  0  0  0  0  0
  -22.3548  -14.5527   20.6663 O   0  0  0  0  0  0
  -24.6294  -31.8557   23.2041 C   0  0  0  0  0  0
  -25.9147  -32.4745   23.8349 C   0  0  1  0  0  0
  -27.2059  -27.2804   20.1000 C   0  0  0  0  0  0
  -25.5941  -33.8551   24.2270 N   0  0  0  0  0  0
  -23.4255  -30.4836   21.5448 C   0  0  2  0  0  0
  -24.8650  -28.9370   20.1081 C   0  0  0  0  0  0
  -22.7495  -29.4606   22.4900 C   0  0  0  0  0  0
  -18.0282  -28.1384   22.8482 C   0  0  0  0  0  0
  -24.1486  -36.7299   23.2647 C   0  0  0  0  0  0
  -25.9727  -30.7682   21.3879 C   0  0  0  0  0  0
  -26.0372  -29.3989   20.7171 C   0  0  0  0  0  0
  -27.2097  -28.5819   20.7043 C   0  0  0  0  0  0
  -25.9996  -26.8743   19.4838 C   0  0  0  0  0  0
  -24.8497  -27.6825   19.4844 C   0  0  0  0  0  0
  -23.6418  -29.8265   20.1576 C   0  0  0  0  0  0
  -25.4114  -36.3064   24.0322 C   0  0  1  0  0  0
  -20.5879  -28.3698   23.1258 C   0  0  2  0  0  0
  -20.6779  -26.9420   22.5392 C   0  0  0  0  0  0
  -19.5749  -26.6384   21.5204 C   0  0  0  0  0  0
  -18.1927  -26.7929   22.1621 C   0  0  0  0  0  0
  -19.1534  -28.8856   23.2871 C   0  0  0  0  0  0
  -18.9468  -30.1465   23.8886 C   0  0  0  0  0  0
  -17.6463  -30.6587   24.0561 C   0  0  0  0  0  0
  -25.9053  -34.9428   23.5094 C   0  0  0  0  0  0
  -16.5346  -29.9078   23.6340 C   0  0  0  0  0  0
  -16.7273  -28.6499   23.0355 C   0  0  0  0  0  0
  -26.4518  -31.6586   25.0748 C   0  0  0  0  0  0
  -25.3749  -31.3748   26.1472 C   0  0  0  0  0  0
  -27.0417  -30.2984   24.6331 C   0  0  0  0  0  0
  -27.6054  -32.4355   25.7518 C   0  0  0  0  0  0
  -27.5567  -37.1811   24.8456 C   0  0  0  0  0  0
  -21.4198  -29.3049   22.3649 N   0  0  0  0  0  0
  -26.4288  -37.3765   23.9400 N   0  0  0  0  0  0
  -24.6939  -31.0560   22.1002 N   0  0  0  0  0  0
  -23.4198  -28.8148   23.2997 O   0  0  0  0  0  0
  -28.3262  -26.4303   20.1436 O   0  0  0  0  0  0
  -26.5627  -34.8892   22.4660 O   0  0  0  0  0  0
  -23.5454  -32.1371   23.7354 O   0  0  0  0  0  0
  -27.3664  -19.2108   19.6061 C   0  0  0  0  0  0
  -27.1171  -17.8724   19.2823 C   0  0  0  0  0  0
  -28.6090  -19.5324   20.1474 C   0  0  0  0  0  0
  -29.2205  -17.2084   20.0180 C   0  0  0  0  0  0
  -25.6481  -18.3340   17.2546 C   0  0  0  0  0  0
  -29.1368  -22.3418   18.3618 C   0  0  0  0  0  0
  -31.7541  -17.0562   19.9276 C   0  0  0  0  0  0
  -30.4463  -16.0072   18.1523 C   0  0  0  0  0  0
  -27.2344  -23.7630   21.4264 C   0  0  0  0  0  0
  -29.7447  -23.8640   21.2887 C   0  0  0  0  0  0
  -25.8404  -17.5151   18.5367 C   0  0  0  0  0  0
  -28.9476  -21.0114   20.5773 C   0  0  0  0  0  0
  -28.3480  -25.0576   19.5485 C   0  0  0  0  0  0
  -28.4359  -22.2885   19.7330 C   0  0  1  0  0  0
  -30.4425  -16.2160   19.6868 C   0  0  0  0  0  0
  -28.4441  -23.7384   20.4728 C   0  0  0  0  0  0
  -28.0195  -16.8864   19.5162 N   0  0  0  0  0  0
  -29.5048  -18.5097   20.3446 N   0  0  0  0  0  0
  -31.4393  -12.5246   19.1147 H   0  0  0  0  0  0
  -30.3187  -11.5146   19.9930 H   0  0  0  0  0  0
  -29.7654  -11.6077   17.5498 H   0  0  0  0  0  0
  -29.6292  -13.3400   17.6101 H   0  0  0  0  0  0
  -27.8679  -11.2624   18.9488 H   0  0  0  0  0  0
  -27.3602  -12.4532   17.7783 H   0  0  0  0  0  0
  -27.5742  -14.2410   19.3660 H   0  0  0  0  0  0
  -28.7316  -12.3685   21.4760 H   0  0  0  0  0  0
  -28.4408  -14.0914   21.6338 H   0  0  0  0  0  0
  -25.2709   -9.5692   22.4809 H   0  0  0  0  0  0
  -23.9919   -7.4646   22.7560 H   0  0  0  0  0  0
  -21.0765   -8.8784   19.9011 H   0  0  0  0  0  0
  -22.3634  -10.9683   19.6205 H   0  0  0  0  0  0
  -21.1990   -7.6125   23.9675 H   0  0  0  0  0  0
  -21.1506   -6.0540   25.9084 H   0  0  0  0  0  0
  -22.0588   -2.7557   23.2925 H   0  0  0  0  0  0
  -22.3858  -12.0005   22.4966 H   0  0  0  0  0  0
  -21.0969  -13.1448   22.2445 H   0  0  0  0  0  0
  -24.6952  -15.8487   20.6773 H   0  0  0  0  0  0
  -26.3213  -15.6154   20.2453 H   0  0  0  0  0  0
  -26.7214  -32.5384   23.1089 H   0  0  0  0  0  0
  -25.0050  -33.9699   25.0385 H   0  0  0  0  0  0
  -22.7204  -31.3046   21.4051 H   0  0  0  0  0  0
  -23.3714  -35.9668   23.3318 H   0  0  0  0  0  0
  -24.3554  -36.8908   22.2058 H   0  0  0  0  0  0
  -23.7278  -37.6518   23.6669 H   0  0  0  0  0  0
  -26.1299  -31.5384   20.6320 H   0  0  0  0  0  0
  -26.8430  -30.7948   22.0349 H   0  0  0  0  0  0
  -28.1098  -28.9324   21.1904 H   0  0  0  0  0  0
  -25.8826  -25.9153   19.0084 H   0  0  0  0  0  0
  -23.9494  -27.3225   19.0033 H   0  0  0  0  0  0
  -23.7748  -30.6061   19.4063 H   0  0  0  0  0  0
  -22.7585  -29.2639   19.8475 H   0  0  0  0  0  0
  -25.1297  -36.1911   25.0819 H   0  0  0  0  0  0
  -20.9973  -28.3283   24.1376 H   0  0  0  0  0  0
  -20.5684  -26.2322   23.3601 H   0  0  0  0  0  0
  -21.6653  -26.7450   22.1190 H   0  0  0  0  0  0
  -19.6917  -25.6297   21.1238 H   0  0  0  0  0  0
  -19.6678  -27.3191   20.6731 H   0  0  0  0  0  0
  -17.4200  -26.6659   21.4014 H   0  0  0  0  0  0
  -18.0329  -26.0064   22.9020 H   0  0  0  0  0  0
  -19.7938  -30.7284   24.2238 H   0  0  0  0  0  0
  -17.5017  -31.6259   24.5181 H   0  0  0  0  0  0
  -15.5351  -30.2989   23.7682 H   0  0  0  0  0  0
  -15.8661  -28.0830   22.7081 H   0  0  0  0  0  0
  -24.5889  -30.7142   25.7784 H   0  0  0  0  0  0
  -24.9002  -32.2933   26.4933 H   0  0  0  0  0  0
  -25.8054  -30.8870   27.0230 H   0  0  0  0  0  0
  -26.3053  -29.6663   24.1357 H   0  0  0  0  0  0
  -27.4033  -29.7318   25.4934 H   0  0  0  0  0  0
  -27.8948  -30.4205   23.9653 H   0  0  0  0  0  0
  -27.2626  -33.3632   26.2116 H   0  0  0  0  0  0
  -28.3849  -32.6966   25.0347 H   0  0  0  0  0  0
  -28.0759  -31.8494   26.5427 H   0  0  0  0  0  0
  -28.2596  -38.0095   24.7464 H   0  0  0  0  0  0
  -28.1042  -36.2619   24.6320 H   0  0  0  0  0  0
  -27.2276  -37.1506   25.8856 H   0  0  0  0  0  0
  -20.9381  -29.8801   21.6877 H   0  0  0  0  0  0
  -26.0145  -38.2836   24.1378 H   0  0  0  0  0  0
  -26.6210  -19.9712   19.4226 H   0  0  0  0  0  0
  -26.5259  -18.2401   16.6159 H   0  0  0  0  0  0
  -25.4961  -19.3927   17.4661 H   0  0  0  0  0  0
  -24.7836  -17.9782   16.6939 H   0  0  0  0  0  0
  -29.2064  -21.3529   17.9078 H   0  0  0  0  0  0
  -30.1460  -22.7425   18.4393 H   0  0  0  0  0  0
  -28.5792  -22.9617   17.6589 H   0  0  0  0  0  0
  -31.7397  -18.0010   19.3871 H   0  0  0  0  0  0
  -32.6671  -16.5774   19.5697 H   0  0  0  0  0  0
  -31.8891  -17.2903   20.9847 H   0  0  0  0  0  0
  -30.5610  -16.9511   17.6177 H   0  0  0  0  0  0
  -29.5115  -15.5587   17.8199 H   0  0  0  0  0  0
  -31.2591  -15.3531   17.8321 H   0  0  0  0  0  0
  -27.2340  -24.6546   22.0535 H   0  0  0  0  0  0
  -27.2172  -22.9006   22.0907 H   0  0  0  0  0  0
  -26.2983  -23.7594   20.8652 H   0  0  0  0  0  0
  -29.8194  -24.8413   21.7647 H   0  0  0  0  0  0
  -30.6216  -23.7465   20.6507 H   0  0  0  0  0  0
  -29.8088  -23.1222   22.0829 H   0  0  0  0  0  0
  -24.9857  -17.6590   19.1989 H   0  0  0  0  0  0
  -25.8562  -16.4608   18.2581 H   0  0  0  0  0  0
  -30.0297  -21.0840   20.7044 H   0  0  0  0  0  0
  -28.5316  -21.0937   21.5782 H   0  0  0  0  0  0
  -27.5785  -24.9017   18.7994 H   0  0  0  0  0  0
  -29.2554  -25.0704   18.9459 H   0  0  0  0  0  0
  -27.3909  -22.0850   19.4988 H   0  0  0  0  0  0
  1 25  1  0  0  0
  1 30  2  0  0  0
  1 85  1  0  0  0
  2  3  1  0  0  0
  2 25  1  0  0  0
  2 89  1  0  0  0
  2 90  1  0  0  0
  3  4  1  0  0  0
  3 91  1  0  0  0
  3 92  1  0  0  0
  4  5  1  0  0  0
  4 93  1  0  0  0
  4 94  1  0  0  0
  5  6  1  0  0  0
  5 26  1  0  0  0
  5 95  1  0  0  0
  6 25  1  0  0  0
  6 96  1  0  0  0
  6 97  1  0  0  0
  7  8  2  0  0  0
  7 26  1  0  0  0
  7 29  1  0  0  0
  8  9  1  0  0  0
  8 22  1  0  0  0
  9 10  1  0  0  0
  9 27  2  0  0  0
 10 11  2  0  0  0
 10 15  1  0  0  0
 11 12  1  0  0  0
 11 98  1  0  0  0
 12 13  2  0  0  0
 12 99  1  0  0  0
 13 14  1  0  0  0
 13 31  1  0  0  0
 14 15  2  0  0  0
 14100  1  0  0  0
 15101  1  0  0  0
 16 17  2  0  0  0
 16 21  1  0  0  0
 16 31  1  0  0  0
 17 18  1  0  0  0
 17102  1  0  0  0
 18 19  2  0  0  0
 18103  1  0  0  0
 19 20  1  0  0  0
 19 24  1  0  0  0
 20 21  2  0  0  0
 20104  1  0  0  0
 21 23  1  0  0  0
 22 28  1  0  0  0
 22 32  2  0  0  0
 26 27  1  0  0  0
 28105  1  0  0  0
 28106  1  0  0  0
 29107  1  0  0  0
 29108  1  0  0  0
 33 34  1  0  0  0
 33 66  1  0  0  0
 33 70  2  0  0  0
 34 36  1  0  0  0
 34 59  1  0  0  0
 34109  1  0  0  0
 35 44  2  0  0  0
 35 45  1  0  0  0
 35 68  1  0  0  0
 36 56  1  0  0  0
 36110  1  0  0  0
 37 39  1  0  0  0
 37 47  1  0  0  0
 37 66  1  0  0  0
 37111  1  0  0  0
 38 43  2  0  0  0
 38 46  1  0  0  0
 38 47  1  0  0  0
 39 64  1  0  0  0
 39 67  2  0  0  0
 40 52  1  0  0  0
 40 53  2  0  0  0
 40 58  1  0  0  0
 41112  1  0  0  0
 41113  1  0  0  0
 41114  1  0  0  0
 41 48  1  0  0  0
 42 43  1  0  0  0
 42 66  1  0  0  0
 42115  1  0  0  0
 42116  1  0  0  0
 43 44  1  0  0  0
 44117  1  0  0  0
 45 46  2  0  0  0
 45118  1  0  0  0
 46119  1  0  0  0
 47120  1  0  0  0
 47121  1  0  0  0
 48 56  1  0  0  0
 48 65  1  0  0  0
 48122  1  0  0  0
 49 50  1  0  0  0
 49 53  1  0  0  0
 49 64  1  0  0  0
 49123  1  0  0  0
 50 51  1  0  0  0
 50124  1  0  0  0
 50125  1  0  0  0
 51 52  1  0  0  0
 51126  1  0  0  0
 51127  1  0  0  0
 52128  1  0  0  0
 52129  1  0  0  0
 53 54  1  0  0  0
 54 55  2  0  0  0
 54130  1  0  0  0
 55 57  1  0  0  0
 55131  1  0  0  0
 56 69  2  0  0  0
 57 58  2  0  0  0
 57132  1  0  0  0
 58133  1  0  0  0
 59 60  1  0  0  0
 59 61  1  0  0  0
 59 62  1  0  0  0
 60134  1  0  0  0
 60135  1  0  0  0
 60136  1  0  0  0
 61137  1  0  0  0
 61138  1  0  0  0
 61139  1  0  0  0
 62140  1  0  0  0
 62141  1  0  0  0
 62142  1  0  0  0
 63 65  1  0  0  0
 63143  1  0  0  0
 63144  1  0  0  0
 63145  1  0  0  0
 64146  1  0  0  0
 65147  1  0  0  0
 68 83  1  0  0  0
 71 72  2  0  0  0
 71 73  1  0  0  0
 71148  1  0  0  0
 72 81  1  0  0  0
 72 87  1  0  0  0
 73 82  1  0  0  0
 73 88  2  0  0  0
 74 85  1  0  0  0
 74 87  2  0  0  0
 74 88  1  0  0  0
 75 81  1  0  0  0
 75149  1  0  0  0
 75150  1  0  0  0
 75151  1  0  0  0
 76152  1  0  0  0
 76153  1  0  0  0
 76154  1  0  0  0
 76 84  1  0  0  0
 77155  1  0  0  0
 77156  1  0  0  0
 77157  1  0  0  0
 77 85  1  0  0  0
 78 85  1  0  0  0
 78158  1  0  0  0
 78159  1  0  0  0
 78160  1  0  0  0
 79161  1  0  0  0
 79162  1  0  0  0
 79163  1  0  0  0
 79 86  1  0  0  0
 80 86  1  0  0  0
 80164  1  0  0  0
 80165  1  0  0  0
 80166  1  0  0  0
 81167  1  0  0  0
 81168  1  0  0  0
 82 84  1  0  0  0
 82169  1  0  0  0
 82170  1  0  0  0
 83 86  1  0  0  0
 83171  1  0  0  0
 83172  1  0  0  0
 84 86  1  0  0  0
 84173  1  0  0  0
M  ISO  4   1 100  68 101  83 101  85 100
M  END
> <chiral flag>
0

> <version>
0

> <s_m_source_file>
/data/baiqing/PycharmProjects/Reinvent-master-3.2/result/LINK_invent/BTK/process_docking_weight1_custom_sum_contain_oxygen_bond_distance_aromatic_linkinvent_7_9_3/rearranged_h_0069.sdf

> <i_m_source_file_index>
41

> <r_mmod_Potential_Energy-OPLS-2005>
55.6272735595703

> <r_mmod_Stretch_Energy-OPLS-2005>
127.603225708008

> <r_mmod_Bend_Energy-OPLS-2005>
240.401916503906

> <r_mmod_Torsional_Energy-OPLS-2005>
255.37126159668

> <r_mmod_Improper_Torsional_Energy-OPLS-2005>
24.2553462982178

> <r_mmod_Van_der_Waal_Energy-OPLS-2005>
167.340286254883

> <r_mmod_Electrostatic_Energy-OPLS-2005>
-701.473449707031

> <r_mmod_Solvation_Energy-OPLS-2005>
-177.635375976562

> <b_mmod_Minimization_Converged-OPLS-2005>
0

> <r_mmod_RMS_Derivative-OPLS-2005>
4.13067817687988

$$$$
41
                    3D
 Structure written by MMmdl.
154162  0  0  1  0            999 V2000
  -30.5444  -14.8806   20.4383 C   0  0  0  0  0  0
  -30.4402  -12.5538   19.4797 C   0  0  0  0  0  0
  -29.5143  -12.5463   18.2414 C   0  0  0  0  0  0
  -28.0383  -12.3553   18.6453 C   0  0  0  0  0  0
  -27.6299  -13.2535   19.8453 C   0  0  2  0  0  0
  -28.6759  -13.2283   20.9794 C   0  0  0  0  0  0
  -25.2434  -13.8237   20.5671 C   0  0  0  0  0  0
  -24.1774  -13.0451   20.9227 C   0  0  0  0  0  0
  -24.6401  -11.6929   20.8766 C   0  0  0  0  0  0
  -23.9092  -10.4291   21.0413 C   0  0  0  0  0  0
  -24.3633   -9.4210   21.9194 C   0  0  0  0  0  0
  -23.6303   -8.2253   22.0754 C   0  0  0  0  0  0
  -22.4278   -8.0308   21.3562 C   0  0  0  0  0  0
  -21.9930   -9.0276   20.4655 C   0  0  0  0  0  0
  -22.7270  -10.2143   20.3059 C   0  0  0  0  0  0
  -21.6852   -6.0745   22.5288 C   0  0  0  0  0  0
  -21.4017   -6.5643   23.8227 C   0  0  0  0  0  0
  -21.3655   -5.6789   24.9193 C   0  0  0  0  0  0
  -21.6038   -4.3052   24.7228 C   0  0  0  0  0  0
  -21.8828   -3.8154   23.4351 C   0  0  0  0  0  0
  -21.9201   -4.6975   22.3414 C   0  0  0  0  0  0
  -22.7788  -13.5207   21.1900 C   0  0  0  0  0  0
  -22.1671   -4.2171   21.0990 F   0  0  0  0  0  0
  -21.5630   -3.4539   25.7739 F   0  0  0  0  0  0
  -29.9623  -13.6236   20.3955 N   0  0  0  0  0  0
  -26.2877  -12.9487   20.3260 N   0  0  0  0  0  0
  -25.9341  -11.6607   20.5765 N   0  0  0  0  0  0
  -22.0413  -12.8191   22.0440 N   0  0  0  0  0  0
  -25.4055  -15.1975   20.4025 N   0  0  0  0  0  0
  -31.7366  -14.9840   20.1324 O   0  0  0  0  0  0
  -21.6649   -6.8902   21.4246 O   0  0  0  0  0  0
  -22.3465  -14.5524   20.6771 O   0  0  0  0  0  0
  -24.6455  -31.8512   23.1947 C   0  0  0  0  0  0
  -25.9245  -32.4723   23.8326 C   0  0  1  0  0  0
  -27.1802  -27.1440   20.1199 C   0  0  0  0  0  0
  -25.6000  -33.8538   24.2256 N   0  0  0  0  0  0
  -23.4427  -30.4781   21.5473 C   0  0  2  0  0  0
  -24.8801  -28.9200   20.1062 C   0  0  0  0  0  0
  -22.7544  -29.4606   22.4898 C   0  0  0  0  0  0
  -18.0308  -28.1426   22.8517 C   0  0  0  0  0  0
  -24.1502  -36.7248   23.2634 C   0  0  0  0  0  0
  -26.0048  -30.7163   21.4028 C   0  0  0  0  0  0
  -26.0635  -29.3378   20.7262 C   0  0  0  0  0  0
  -27.2173  -28.4647   20.7225 C   0  0  0  0  0  0
  -25.9724  -26.8482   19.4426 C   0  0  0  0  0  0
  -24.8455  -27.6883   19.4500 C   0  0  0  0  0  0
  -23.6642  -29.8275   20.1594 C   0  0  0  0  0  0
  -25.4135  -36.3044   24.0315 C   0  0  1  0  0  0
  -20.5913  -28.3756   23.1237 C   0  0  2  0  0  0
  -20.6771  -26.9476   22.5382 C   0  0  0  0  0  0
  -19.5714  -26.6386   21.5242 C   0  0  0  0  0  0
  -18.1963  -26.7910   22.1787 C   0  0  0  0  0  0
  -19.1578  -28.8920   23.2821 C   0  0  0  0  0  0
  -18.9506  -30.1500   23.8876 C   0  0  0  0  0  0
  -17.6505  -30.6615   24.0571 C   0  0  0  0  0  0
  -25.9094  -34.9414   23.5089 C   0  0  0  0  0  0
  -16.5385  -29.9127   23.6356 C   0  0  0  0  0  0
  -16.7293  -28.6526   23.0425 C   0  0  0  0  0  0
  -26.4553  -31.6591   25.0780 C   0  0  0  0  0  0
  -25.3717  -31.3761   26.1455 C   0  0  0  0  0  0
  -27.0449  -30.2987   24.6400 C   0  0  0  0  0  0
  -27.6084  -32.4361   25.7560 C   0  0  0  0  0  0
  -27.5582  -37.1790   24.8482 C   0  0  0  0  0  0
  -21.4244  -29.3103   22.3625 N   0  0  0  0  0  0
  -26.4311  -37.3743   23.9400 N   0  0  0  0  0  0
  -24.7184  -31.0343   22.1017 N   0  0  0  0  0  0
  -23.4198  -28.8130   23.3031 O   0  0  0  0  0  0
  -28.1924  -26.1181   20.2091 O   0  0  0  0  0  0
  -26.5647  -34.8883   22.4652 O   0  0  0  0  0  0
  -23.5587  -32.1432   23.7151 O   0  0  0  0  0  0
  -29.2412  -21.4282   21.4526 C   0  0  0  0  0  0
  -29.0110  -20.3491   20.5206 C   0  0  0  0  0  0
  -28.2354  -22.1169   19.0793 C   0  0  0  0  0  0
  -28.4556  -23.1992   20.0219 C   0  0  0  0  0  0
  -27.5904  -22.3614   17.7225 C   0  0  0  0  0  0
  -28.9749  -18.5630   22.4451 C   0  0  0  0  0  0
  -27.7837  -24.6849   19.7966 C   0  0  0  0  0  0
  -29.9547  -17.5437   20.2839 C   0  0  0  0  0  0
  -28.9872  -18.7441   20.9116 C   0  0  1  0  0  0
  -28.9792  -22.7805   21.2244 N   0  0  0  0  0  0
  -28.5061  -20.7721   19.3170 N   0  0  0  0  0  0
  -29.7325  -16.0189   20.6070 N   0  0  0  0  0  0
  -31.4740  -12.7121   19.1634 H   0  0  0  0  0  0
  -30.4309  -11.5889   19.9861 H   0  0  0  0  0  0
  -29.8147  -11.7672   17.5394 H   0  0  0  0  0  0
  -29.6218  -13.4930   17.7084 H   0  0  0  0  0  0
  -27.8894  -11.3052   18.8940 H   0  0  0  0  0  0
  -27.3880  -12.5612   17.7920 H   0  0  0  0  0  0
  -27.6026  -14.2713   19.4566 H   0  0  0  0  0  0
  -28.7476  -12.2351   21.4253 H   0  0  0  0  0  0
  -28.3901  -13.9076   21.7852 H   0  0  0  0  0  0
  -25.2779   -9.5681   22.4775 H   0  0  0  0  0  0
  -24.0021   -7.4624   22.7441 H   0  0  0  0  0  0
  -21.0889   -8.8810   19.8938 H   0  0  0  0  0  0
  -22.3757  -10.9689   19.6169 H   0  0  0  0  0  0
  -21.2005   -7.6152   23.9751 H   0  0  0  0  0  0
  -21.1459   -6.0511   25.9101 H   0  0  0  0  0  0
  -22.0599   -2.7617   23.2848 H   0  0  0  0  0  0
  -22.4030  -11.9843   22.4831 H   0  0  0  0  0  0
  -21.1013  -13.1205   22.2643 H   0  0  0  0  0  0
  -24.6222  -15.8375   20.4943 H   0  0  0  0  0  0
  -26.2342  -15.6380   20.0249 H   0  0  0  0  0  0
  -26.7327  -32.5300   23.1062 H   0  0  0  0  0  0
  -25.0166  -33.9696   25.0414 H   0  0  0  0  0  0
  -22.7405  -31.3052   21.4069 H   0  0  0  0  0  0
  -23.3786  -35.9567   23.3318 H   0  0  0  0  0  0
  -24.3569  -36.8863   22.2043 H   0  0  0  0  0  0
  -23.7244  -37.6439   23.6668 H   0  0  0  0  0  0
  -26.1847  -31.4812   20.6462 H   0  0  0  0  0  0
  -26.8658  -30.7382   22.0613 H   0  0  0  0  0  0
  -28.1145  -28.7693   21.2413 H   0  0  0  0  0  0
  -25.8233  -25.9234   18.9053 H   0  0  0  0  0  0
  -23.9424  -27.3684   18.9489 H   0  0  0  0  0  0
  -23.8083  -30.6194   19.4244 H   0  0  0  0  0  0
  -22.7735  -29.2902   19.8329 H   0  0  0  0  0  0
  -25.1328  -36.1887   25.0811 H   0  0  0  0  0  0
  -20.9979  -28.3371   24.1371 H   0  0  0  0  0  0
  -21.6623  -26.7483   22.1172 H   0  0  0  0  0  0
  -20.5691  -26.2386   23.3621 H   0  0  0  0  0  0
  -19.6877  -25.6275   21.1346 H   0  0  0  0  0  0
  -19.6561  -27.3133   20.6710 H   0  0  0  0  0  0
  -17.4113  -26.6435   21.4372 H   0  0  0  0  0  0
  -18.0584  -26.0162   22.9342 H   0  0  0  0  0  0
  -19.7992  -30.7326   24.2261 H   0  0  0  0  0  0
  -17.5081  -31.6316   24.5164 H   0  0  0  0  0  0
  -15.5393  -30.3044   23.7713 H   0  0  0  0  0  0
  -15.8673  -28.0806   22.7223 H   0  0  0  0  0  0
  -24.5879  -30.7154   25.7736 H   0  0  0  0  0  0
  -24.8925  -32.2934   26.4884 H   0  0  0  0  0  0
  -25.7960  -30.8894   27.0250 H   0  0  0  0  0  0
  -26.3102  -29.6680   24.1382 H   0  0  0  0  0  0
  -27.4029  -29.7303   25.4996 H   0  0  0  0  0  0
  -27.9020  -30.4236   23.9777 H   0  0  0  0  0  0
  -27.2698  -33.3684   26.2099 H   0  0  0  0  0  0
  -28.3906  -32.6907   25.0393 H   0  0  0  0  0  0
  -28.0769  -31.8531   26.5509 H   0  0  0  0  0  0
  -28.2636  -38.0047   24.7483 H   0  0  0  0  0  0
  -28.1045  -36.2579   24.6402 H   0  0  0  0  0  0
  -27.2274  -37.1527   25.8876 H   0  0  0  0  0  0
  -20.9450  -29.8838   21.6820 H   0  0  0  0  0  0
  -26.0197  -38.2827   24.1365 H   0  0  0  0  0  0
  -29.5676  -21.1933   22.4561 H   0  0  0  0  0  0
  -27.2273  -21.4283   17.2883 H   0  0  0  0  0  0
  -28.3126  -22.7959   17.0312 H   0  0  0  0  0  0
  -26.7298  -23.0265   17.7859 H   0  0  0  0  0  0
  -28.2152  -19.1851   22.9207 H   0  0  0  0  0  0
  -29.9424  -18.8089   22.8855 H   0  0  0  0  0  0
  -28.7448  -17.5322   22.7214 H   0  0  0  0  0  0
  -26.7903  -24.5143   20.2102 H   0  0  0  0  0  0
  -27.6705  -24.7777   18.7201 H   0  0  0  0  0  0
  -29.8851  -17.6263   19.1979 H   0  0  0  0  0  0
  -30.9920  -17.7812   20.5216 H   0  0  0  0  0  0
  -27.9848  -18.4498   20.5979 H   0  0  0  0  0  0
  -28.7827  -15.7769   20.8426 H   0  0  0  0  0  0
  1 25  1  0  0  0
  1 30  2  0  0  0
  1 82  1  0  0  0
  2  3  1  0  0  0
  2 25  1  0  0  0
  2 83  1  0  0  0
  2 84  1  0  0  0
  3  4  1  0  0  0
  3 85  1  0  0  0
  3 86  1  0  0  0
  4  5  1  0  0  0
  4 87  1  0  0  0
  4 88  1  0  0  0
  5  6  1  0  0  0
  5 26  1  0  0  0
  5 89  1  0  0  0
  6 25  1  0  0  0
  6 90  1  0  0  0
  6 91  1  0  0  0
  7  8  2  0  0  0
  7 26  1  0  0  0
  7 29  1  0  0  0
  8  9  1  0  0  0
  8 22  1  0  0  0
  9 10  1  0  0  0
  9 27  2  0  0  0
 10 11  2  0  0  0
 10 15  1  0  0  0
 11 12  1  0  0  0
 11 92  1  0  0  0
 12 13  2  0  0  0
 12 93  1  0  0  0
 13 14  1  0  0  0
 13 31  1  0  0  0
 14 15  2  0  0  0
 14 94  1  0  0  0
 15 95  1  0  0  0
 16 17  2  0  0  0
 16 21  1  0  0  0
 16 31  1  0  0  0
 17 18  1  0  0  0
 17 96  1  0  0  0
 18 19  2  0  0  0
 18 97  1  0  0  0
 19 20  1  0  0  0
 19 24  1  0  0  0
 20 21  2  0  0  0
 20 98  1  0  0  0
 21 23  1  0  0  0
 22 28  1  0  0  0
 22 32  2  0  0  0
 26 27  1  0  0  0
 28 99  1  0  0  0
 28100  1  0  0  0
 29101  1  0  0  0
 29102  1  0  0  0
 33 34  1  0  0  0
 33 66  1  0  0  0
 33 70  2  0  0  0
 34 36  1  0  0  0
 34 59  1  0  0  0
 34103  1  0  0  0
 35 44  2  0  0  0
 35 45  1  0  0  0
 35 68  1  0  0  0
 36 56  1  0  0  0
 36104  1  0  0  0
 37 39  1  0  0  0
 37 47  1  0  0  0
 37 66  1  0  0  0
 37105  1  0  0  0
 38 43  2  0  0  0
 38 46  1  0  0  0
 38 47  1  0  0  0
 39 64  1  0  0  0
 39 67  2  0  0  0
 40 52  1  0  0  0
 40 53  2  0  0  0
 40 58  1  0  0  0
 41106  1  0  0  0
 41107  1  0  0  0
 41108  1  0  0  0
 41 48  1  0  0  0
 42 43  1  0  0  0
 42 66  1  0  0  0
 42109  1  0  0  0
 42110  1  0  0  0
 43 44  1  0  0  0
 44111  1  0  0  0
 45 46  2  0  0  0
 45112  1  0  0  0
 46113  1  0  0  0
 47114  1  0  0  0
 47115  1  0  0  0
 48 56  1  0  0  0
 48 65  1  0  0  0
 48116  1  0  0  0
 49 50  1  0  0  0
 49 53  1  0  0  0
 49 64  1  0  0  0
 49117  1  0  0  0
 50 51  1  0  0  0
 50118  1  0  0  0
 50119  1  0  0  0
 51 52  1  0  0  0
 51120  1  0  0  0
 51121  1  0  0  0
 52122  1  0  0  0
 52123  1  0  0  0
 53 54  1  0  0  0
 54 55  2  0  0  0
 54124  1  0  0  0
 55 57  1  0  0  0
 55125  1  0  0  0
 56 69  2  0  0  0
 57 58  2  0  0  0
 57126  1  0  0  0
 58127  1  0  0  0
 59 60  1  0  0  0
 59 61  1  0  0  0
 59 62  1  0  0  0
 60128  1  0  0  0
 60129  1  0  0  0
 60130  1  0  0  0
 61131  1  0  0  0
 61132  1  0  0  0
 61133  1  0  0  0
 62134  1  0  0  0
 62135  1  0  0  0
 62136  1  0  0  0
 63 65  1  0  0  0
 63137  1  0  0  0
 63138  1  0  0  0
 63139  1  0  0  0
 64140  1  0  0  0
 65141  1  0  0  0
 68 77  1  0  0  0
 71 72  2  0  0  0
 71 80  1  0  0  0
 71142  1  0  0  0
 72 79  1  0  0  0
 72 81  1  0  0  0
 73 74  1  0  0  0
 73 75  1  0  0  0
 73 81  2  0  0  0
 74 77  1  0  0  0
 74 80  2  0  0  0
 75143  1  0  0  0
 75144  1  0  0  0
 75145  1  0  0  0
 76146  1  0  0  0
 76147  1  0  0  0
 76148  1  0  0  0
 76 79  1  0  0  0
 77149  1  0  0  0
 77150  1  0  0  0
 78 79  1  0  0  0
 78 82  1  0  0  0
 78151  1  0  0  0
 78152  1  0  0  0
 79153  1  0  0  0
 82154  1  0  0  0
M  ISO  4   1 100  68 101  77 101  82 100
M  END
> <chiral flag>
0

> <version>
0

> <s_m_source_file>
/data/baiqing/PycharmProjects/Reinvent-master-3.2/result/LINK_invent/BTK/process_docking_weight1_custom_sum_contain_oxygen_bond_distance_aromatic_linkinvent_7_9_3/rearranged_h_0069.sdf

> <i_m_source_file_index>
42

> <r_mmod_Potential_Energy-OPLS-2005>
479.769226074219

> <r_mmod_Stretch_Energy-OPLS-2005>
215.765899658203

> <r_mmod_Bend_Energy-OPLS-2005>
252.421203613281

> <r_mmod_Torsional_Energy-OPLS-2005>
213.511169433594

> <r_mmod_Improper_Torsional_Energy-OPLS-2005>
9.71566200256348

> <r_mmod_Van_der_Waal_Energy-OPLS-2005>
149.670516967773

> <r_mmod_Electrostatic_Energy-OPLS-2005>
-302.896606445312

> <r_mmod_Solvation_Energy-OPLS-2005>
-232.616302490234

> <b_mmod_Minimization_Converged-OPLS-2005>
0

> <r_mmod_RMS_Derivative-OPLS-2005>
5.16702032089233

$$$$
42
                    3D
 Structure written by MMmdl.
154162  0  0  1  0            999 V2000
  -30.6675  -14.6286   20.4580 C   0  0  0  0  0  0
  -30.4124  -12.3820   19.4625 C   0  0  0  0  0  0
  -29.5004  -12.4944   18.2243 C   0  0  0  0  0  0
  -28.0201  -12.3532   18.6292 C   0  0  0  0  0  0
  -27.6396  -13.2339   19.8514 C   0  0  2  0  0  0
  -28.6837  -13.1383   20.9840 C   0  0  0  0  0  0
  -25.2491  -13.8215   20.5715 C   0  0  0  0  0  0
  -24.1783  -13.0460   20.9223 C   0  0  0  0  0  0
  -24.6371  -11.6939   20.8752 C   0  0  0  0  0  0
  -23.9053  -10.4318   21.0409 C   0  0  0  0  0  0
  -24.3612   -9.4237   21.9186 C   0  0  0  0  0  0
  -23.6298   -8.2261   22.0752 C   0  0  0  0  0  0
  -22.4285   -8.0281   21.3539 C   0  0  0  0  0  0
  -21.9909   -9.0254   20.4647 C   0  0  0  0  0  0
  -22.7225  -10.2141   20.3060 C   0  0  0  0  0  0
  -21.6859   -6.0733   22.5272 C   0  0  0  0  0  0
  -21.4027   -6.5637   23.8208 C   0  0  0  0  0  0
  -21.3674   -5.6786   24.9168 C   0  0  0  0  0  0
  -21.6049   -4.3052   24.7213 C   0  0  0  0  0  0
  -21.8815   -3.8141   23.4337 C   0  0  0  0  0  0
  -21.9200   -4.6961   22.3396 C   0  0  0  0  0  0
  -22.7804  -13.5242   21.1864 C   0  0  0  0  0  0
  -22.1666   -4.2147   21.0970 F   0  0  0  0  0  0
  -21.5628   -3.4534   25.7723 F   0  0  0  0  0  0
  -29.9928  -13.4419   20.3994 N   0  0  0  0  0  0
  -26.2915  -12.9428   20.3283 N   0  0  0  0  0  0
  -25.9298  -11.6570   20.5743 N   0  0  0  0  0  0
  -22.0435  -12.8257   22.0426 N   0  0  0  0  0  0
  -25.4163  -15.1936   20.4159 N   0  0  0  0  0  0
  -31.8770  -14.6649   20.2203 O   0  0  0  0  0  0
  -21.6657   -6.8867   21.4231 O   0  0  0  0  0  0
  -22.3509  -14.5539   20.6689 O   0  0  0  0  0  0
  -24.6206  -31.8597   23.2015 C   0  0  0  0  0  0
  -25.9072  -32.4768   23.8322 C   0  0  1  0  0  0
  -27.2184  -27.3301   20.1039 C   0  0  0  0  0  0
  -25.5893  -33.8572   24.2242 N   0  0  0  0  0  0
  -23.4116  -30.4832   21.5458 C   0  0  2  0  0  0
  -24.8542  -28.9374   20.1114 C   0  0  0  0  0  0
  -22.7416  -29.4630   22.4966 C   0  0  0  0  0  0
  -18.0270  -28.1375   22.8502 C   0  0  0  0  0  0
  -24.1479  -36.7287   23.2646 C   0  0  0  0  0  0
  -25.9500  -30.7926   21.3695 C   0  0  0  0  0  0
  -26.0222  -29.4205   20.7127 C   0  0  0  0  0  0
  -27.2035  -28.6262   20.7046 C   0  0  0  0  0  0
  -26.0196  -26.8860   19.4991 C   0  0  0  0  0  0
  -24.8534  -27.6736   19.5008 C   0  0  0  0  0  0
  -23.6202  -29.8127   20.1627 C   0  0  0  0  0  0
  -25.4113  -36.3080   24.0327 C   0  0  1  0  0  0
  -20.5860  -28.3664   23.1302 C   0  0  2  0  0  0
  -20.6764  -26.9395   22.5421 C   0  0  0  0  0  0
  -19.5738  -26.6371   21.5224 C   0  0  0  0  0  0
  -18.1919  -26.7926   22.1639 C   0  0  0  0  0  0
  -19.1519  -28.8844   23.2899 C   0  0  0  0  0  0
  -18.9457  -30.1458   23.8888 C   0  0  0  0  0  0
  -17.6461  -30.6593   24.0565 C   0  0  0  0  0  0
  -25.9051  -34.9446   23.5089 C   0  0  0  0  0  0
  -16.5351  -29.9088   23.6344 C   0  0  0  0  0  0
  -16.7263  -28.6508   23.0363 C   0  0  0  0  0  0
  -26.4459  -31.6594   25.0701 C   0  0  0  0  0  0
  -25.3688  -31.3762   26.1433 C   0  0  0  0  0  0
  -27.0304  -30.3015   24.6162 C   0  0  0  0  0  0
  -27.6006  -32.4335   25.7485 C   0  0  0  0  0  0
  -27.5570  -37.1805   24.8466 C   0  0  0  0  0  0
  -21.4141  -29.3032   22.3704 N   0  0  0  0  0  0
  -26.4279  -37.3781   23.9412 N   0  0  0  0  0  0
  -24.6799  -31.0613   22.0959 N   0  0  0  0  0  0
  -23.4161  -28.8184   23.3032 O   0  0  0  0  0  0
  -28.3662  -26.5296   20.1547 O   0  0  0  0  0  0
  -26.5631  -34.8915   22.4665 O   0  0  0  0  0  0
  -23.5386  -32.1396   23.7362 O   0  0  0  0  0  0
  -28.0945  -19.9745   19.6216 C   0  0  0  0  0  0
  -30.4504  -19.6520   20.8536 C   0  0  0  0  0  0
  -28.8418  -21.1265   20.0200 C   0  0  0  0  0  0
  -29.7505  -18.5030   20.3742 C   0  0  0  0  0  0
  -30.9851  -17.1738   18.6702 C   0  0  0  0  0  0
  -28.5352  -22.5518   19.4353 C   0  0  0  0  0  0
  -28.3980  -23.8607   20.3262 C   0  0  0  0  0  0
  -28.4571  -25.2159   19.4917 C   0  0  0  0  0  0
  -30.5257  -17.1527   20.1484 C   0  0  2  0  0  0
  -30.0197  -20.9394   20.6717 N   0  0  0  0  0  0
  -28.5352  -18.6840   19.7871 N   0  0  0  0  0  0
  -29.9478  -15.7994   20.4945 N   0  0  0  0  0  0
  -31.4601  -12.4694   19.1711 H   0  0  0  0  0  0
  -30.3136  -11.4015   19.9291 H   0  0  0  0  0  0
  -29.7634  -11.7304   17.4921 H   0  0  0  0  0  0
  -29.6582  -13.4567   17.7331 H   0  0  0  0  0  0
  -27.8398  -11.3008   18.8560 H   0  0  0  0  0  0
  -27.3775  -12.5953   17.7821 H   0  0  0  0  0  0
  -27.6430  -14.2646   19.4945 H   0  0  0  0  0  0
  -28.6854  -12.1432   21.4301 H   0  0  0  0  0  0
  -28.4464  -13.8343   21.7894 H   0  0  0  0  0  0
  -25.2749   -9.5727   22.4769 H   0  0  0  0  0  0
  -24.0020   -7.4652   22.7465 H   0  0  0  0  0  0
  -21.0845   -8.8767   19.8952 H   0  0  0  0  0  0
  -22.3673  -10.9681   19.6180 H   0  0  0  0  0  0
  -21.2023   -7.6145   23.9717 H   0  0  0  0  0  0
  -21.1508   -6.0516   25.9077 H   0  0  0  0  0  0
  -22.0583   -2.7601   23.2831 H   0  0  0  0  0  0
  -22.4066  -11.9955   22.4880 H   0  0  0  0  0  0
  -21.1034  -13.1266   22.2569 H   0  0  0  0  0  0
  -24.6416  -15.8391   20.5251 H   0  0  0  0  0  0
  -26.2586  -15.6428   20.0786 H   0  0  0  0  0  0
  -26.7138  -32.5432   23.1068 H   0  0  0  0  0  0
  -25.0005  -33.9718   25.0366 H   0  0  0  0  0  0
  -22.7054  -31.3040   21.4034 H   0  0  0  0  0  0
  -23.3737  -35.9623   23.3319 H   0  0  0  0  0  0
  -24.3567  -36.8895   22.2059 H   0  0  0  0  0  0
  -23.7234  -37.6496   23.6660 H   0  0  0  0  0  0
  -26.0768  -31.5545   20.5998 H   0  0  0  0  0  0
  -26.8324  -30.8407   21.9953 H   0  0  0  0  0  0
  -28.0991  -28.9946   21.1858 H   0  0  0  0  0  0
  -25.9367  -25.9116   19.0431 H   0  0  0  0  0  0
  -23.9512  -27.2945   19.0403 H   0  0  0  0  0  0
  -23.7238  -30.5829   19.3977 H   0  0  0  0  0  0
  -22.7402  -29.2336   19.8757 H   0  0  0  0  0  0
  -25.1295  -36.1926   25.0818 H   0  0  0  0  0  0
  -20.9966  -28.3241   24.1411 H   0  0  0  0  0  0
  -20.5666  -26.2271   23.3618 H   0  0  0  0  0  0
  -21.6636  -26.7427   22.1212 H   0  0  0  0  0  0
  -19.6895  -25.6278   21.1255 H   0  0  0  0  0  0
  -19.6682  -27.3188   20.6759 H   0  0  0  0  0  0
  -17.4192  -26.6665   21.4049 H   0  0  0  0  0  0
  -18.0320  -26.0073   22.9034 H   0  0  0  0  0  0
  -19.7937  -30.7281   24.2234 H   0  0  0  0  0  0
  -17.5025  -31.6279   24.5158 H   0  0  0  0  0  0
  -15.5356  -30.2992   23.7688 H   0  0  0  0  0  0
  -15.8657  -28.0838   22.7067 H   0  0  0  0  0  0
  -24.5846  -30.7122   25.7791 H   0  0  0  0  0  0
  -24.8899  -32.2944   26.4836 H   0  0  0  0  0  0
  -25.7998  -30.8967   27.0224 H   0  0  0  0  0  0
  -26.2898  -29.6786   24.1134 H   0  0  0  0  0  0
  -27.3953  -29.7251   25.4675 H   0  0  0  0  0  0
  -27.8768  -30.4316   23.9414 H   0  0  0  0  0  0
  -27.2599  -33.3637   26.2047 H   0  0  0  0  0  0
  -28.3824  -32.6899   25.0322 H   0  0  0  0  0  0
  -28.0650  -31.8462   26.5418 H   0  0  0  0  0  0
  -28.2602  -38.0090   24.7499 H   0  0  0  0  0  0
  -28.1041  -36.2618   24.6301 H   0  0  0  0  0  0
  -27.2273  -37.1463   25.8863 H   0  0  0  0  0  0
  -20.9297  -29.8747   21.6930 H   0  0  0  0  0  0
  -26.0149  -38.2845   24.1426 H   0  0  0  0  0  0
  -27.1853  -20.0881   19.0510 H   0  0  0  0  0  0
  -31.4393  -19.5488   21.2727 H   0  0  0  0  0  0
  -31.5294  -18.0933   18.4508 H   0  0  0  0  0  0
  -30.1318  -17.1290   17.9922 H   0  0  0  0  0  0
  -31.6548  -16.3569   18.4088 H   0  0  0  0  0  0
  -27.6279  -22.4650   18.8355 H   0  0  0  0  0  0
  -29.3242  -22.7372   18.7065 H   0  0  0  0  0  0
  -29.2127  -23.8756   21.0500 H   0  0  0  0  0  0
  -27.4745  -23.8165   20.9049 H   0  0  0  0  0  0
  -27.7977  -25.1465   18.6294 H   0  0  0  0  0  0
  -29.4438  -25.2305   19.0288 H   0  0  0  0  0  0
  -31.4202  -17.2385   20.7688 H   0  0  0  0  0  0
  -28.9525  -15.7455   20.6455 H   0  0  0  0  0  0
  1 25  1  0  0  0
  1 30  2  0  0  0
  1 82  1  0  0  0
  2  3  1  0  0  0
  2 25  1  0  0  0
  2 83  1  0  0  0
  2 84  1  0  0  0
  3  4  1  0  0  0
  3 85  1  0  0  0
  3 86  1  0  0  0
  4  5  1  0  0  0
  4 87  1  0  0  0
  4 88  1  0  0  0
  5  6  1  0  0  0
  5 26  1  0  0  0
  5 89  1  0  0  0
  6 25  1  0  0  0
  6 90  1  0  0  0
  6 91  1  0  0  0
  7  8  2  0  0  0
  7 26  1  0  0  0
  7 29  1  0  0  0
  8  9  1  0  0  0
  8 22  1  0  0  0
  9 10  1  0  0  0
  9 27  2  0  0  0
 10 11  2  0  0  0
 10 15  1  0  0  0
 11 12  1  0  0  0
 11 92  1  0  0  0
 12 13  2  0  0  0
 12 93  1  0  0  0
 13 14  1  0  0  0
 13 31  1  0  0  0
 14 15  2  0  0  0
 14 94  1  0  0  0
 15 95  1  0  0  0
 16 17  2  0  0  0
 16 21  1  0  0  0
 16 31  1  0  0  0
 17 18  1  0  0  0
 17 96  1  0  0  0
 18 19  2  0  0  0
 18 97  1  0  0  0
 19 20  1  0  0  0
 19 24  1  0  0  0
 20 21  2  0  0  0
 20 98  1  0  0  0
 21 23  1  0  0  0
 22 28  1  0  0  0
 22 32  2  0  0  0
 26 27  1  0  0  0
 28 99  1  0  0  0
 28100  1  0  0  0
 29101  1  0  0  0
 29102  1  0  0  0
 33 34  1  0  0  0
 33 66  1  0  0  0
 33 70  2  0  0  0
 34 36  1  0  0  0
 34 59  1  0  0  0
 34103  1  0  0  0
 35 44  2  0  0  0
 35 45  1  0  0  0
 35 68  1  0  0  0
 36 56  1  0  0  0
 36104  1  0  0  0
 37 39  1  0  0  0
 37 47  1  0  0  0
 37 66  1  0  0  0
 37105  1  0  0  0
 38 43  2  0  0  0
 38 46  1  0  0  0
 38 47  1  0  0  0
 39 64  1  0  0  0
 39 67  2  0  0  0
 40 52  1  0  0  0
 40 53  2  0  0  0
 40 58  1  0  0  0
 41106  1  0  0  0
 41107  1  0  0  0
 41108  1  0  0  0
 41 48  1  0  0  0
 42 43  1  0  0  0
 42 66  1  0  0  0
 42109  1  0  0  0
 42110  1  0  0  0
 43 44  1  0  0  0
 44111  1  0  0  0
 45 46  2  0  0  0
 45112  1  0  0  0
 46113  1  0  0  0
 47114  1  0  0  0
 47115  1  0  0  0
 48 56  1  0  0  0
 48 65  1  0  0  0
 48116  1  0  0  0
 49 50  1  0  0  0
 49 53  1  0  0  0
 49 64  1  0  0  0
 49117  1  0  0  0
 50 51  1  0  0  0
 50118  1  0  0  0
 50119  1  0  0  0
 51 52  1  0  0  0
 51120  1  0  0  0
 51121  1  0  0  0
 52122  1  0  0  0
 52123  1  0  0  0
 53 54  1  0  0  0
 54 55  2  0  0  0
 54124  1  0  0  0
 55 57  1  0  0  0
 55125  1  0  0  0
 56 69  2  0  0  0
 57 58  2  0  0  0
 57126  1  0  0  0
 58127  1  0  0  0
 59 60  1  0  0  0
 59 61  1  0  0  0
 59 62  1  0  0  0
 60128  1  0  0  0
 60129  1  0  0  0
 60130  1  0  0  0
 61131  1  0  0  0
 61132  1  0  0  0
 61133  1  0  0  0
 62134  1  0  0  0
 62135  1  0  0  0
 62136  1  0  0  0
 63 65  1  0  0  0
 63137  1  0  0  0
 63138  1  0  0  0
 63139  1  0  0  0
 64140  1  0  0  0
 65141  1  0  0  0
 68 78  1  0  0  0
 71 73  2  0  0  0
 71 81  1  0  0  0
 71142  1  0  0  0
 72 74  1  0  0  0
 72 80  2  0  0  0
 72143  1  0  0  0
 73 76  1  0  0  0
 73 80  1  0  0  0
 74 79  1  0  0  0
 74 81  2  0  0  0
 75144  1  0  0  0
 75145  1  0  0  0
 75146  1  0  0  0
 75 79  1  0  0  0
 76 77  1  0  0  0
 76147  1  0  0  0
 76148  1  0  0  0
 77 78  1  0  0  0
 77149  1  0  0  0
 77150  1  0  0  0
 78151  1  0  0  0
 78152  1  0  0  0
 79 82  1  0  0  0
 79153  1  0  0  0
 82154  1  0  0  0
M  ISO  4   1 100  68 101  78 101  82 100
M  END
> <chiral flag>
0

> <version>
0

> <s_m_source_file>
/data/baiqing/PycharmProjects/Reinvent-master-3.2/result/LINK_invent/BTK/process_docking_weight1_custom_sum_contain_oxygen_bond_distance_aromatic_linkinvent_7_9_3/rearranged_h_0069.sdf

> <i_m_source_file_index>
43

> <r_mmod_Potential_Energy-OPLS-2005>
80.2572937011719

> <r_mmod_Stretch_Energy-OPLS-2005>
77.894401550293

> <r_mmod_Bend_Energy-OPLS-2005>
154.793258666992

> <r_mmod_Torsional_Energy-OPLS-2005>
204.684326171875

> <r_mmod_Improper_Torsional_Energy-OPLS-2005>
12.4637126922607

> <r_mmod_Van_der_Waal_Energy-OPLS-2005>
151.233901977539

> <r_mmod_Electrostatic_Energy-OPLS-2005>
-354.221466064453

> <r_mmod_Solvation_Energy-OPLS-2005>
-216.156997680664

> <b_mmod_Minimization_Converged-OPLS-2005>
0

> <r_mmod_RMS_Derivative-OPLS-2005>
2.29034996032715

$$$$
43
                    3D
 Structure written by MMmdl.
172180  0  0  1  0            999 V2000
  -30.7287  -14.5253   20.4513 C   0  0  0  0  0  0
  -30.4154  -12.3142   19.4470 C   0  0  0  0  0  0
  -29.5088  -12.4616   18.2095 C   0  0  0  0  0  0
  -28.0258  -12.3502   18.6189 C   0  0  0  0  0  0
  -27.6568  -13.2218   19.8525 C   0  0  2  0  0  0
  -28.7028  -13.0951   20.9814 C   0  0  0  0  0  0
  -25.2552  -13.8172   20.5628 C   0  0  0  0  0  0
  -24.1789  -13.0434   20.9144 C   0  0  0  0  0  0
  -24.6363  -11.6913   20.8669 C   0  0  0  0  0  0
  -23.9018  -10.4282   21.0329 C   0  0  0  0  0  0
  -24.3581   -9.4257   21.9144 C   0  0  0  0  0  0
  -23.6282   -8.2281   22.0738 C   0  0  0  0  0  0
  -22.4284   -8.0268   21.3525 C   0  0  0  0  0  0
  -21.9899   -9.0222   20.4645 C   0  0  0  0  0  0
  -22.7174  -10.2113   20.3018 C   0  0  0  0  0  0
  -21.6894   -6.0704   22.5245 C   0  0  0  0  0  0
  -21.4038   -6.5606   23.8155 C   0  0  0  0  0  0
  -21.3685   -5.6774   24.9118 C   0  0  0  0  0  0
  -21.6041   -4.3019   24.7210 C   0  0  0  0  0  0
  -21.8800   -3.8109   23.4314 C   0  0  0  0  0  0
  -21.9190   -4.6924   22.3372 C   0  0  0  0  0  0
  -22.7809  -13.5246   21.1778 C   0  0  0  0  0  0
  -22.1654   -4.2093   21.0956 F   0  0  0  0  0  0
  -21.5676   -3.4525   25.7731 F   0  0  0  0  0  0
  -30.0290  -13.3597   20.4013 N   0  0  0  0  0  0
  -26.2994  -12.9370   20.3264 N   0  0  0  0  0  0
  -25.9308  -11.6520   20.5726 N   0  0  0  0  0  0
  -22.0439  -12.8260   22.0356 N   0  0  0  0  0  0
  -25.4290  -15.1865   20.3969 N   0  0  0  0  0  0
  -31.9244  -14.5991   20.1568 O   0  0  0  0  0  0
  -21.6670   -6.8864   21.4205 O   0  0  0  0  0  0
  -22.3510  -14.5565   20.6658 O   0  0  0  0  0  0
  -24.6150  -31.8630   23.2081 C   0  0  0  0  0  0
  -25.9025  -32.4796   23.8392 C   0  0  1  0  0  0
  -27.2316  -27.4207   20.1025 C   0  0  0  0  0  0
  -25.5867  -33.8585   24.2343 N   0  0  0  0  0  0
  -23.4072  -30.4888   21.5511 C   0  0  2  0  0  0
  -24.8494  -28.9475   20.1201 C   0  0  0  0  0  0
  -22.7419  -29.4656   22.5002 C   0  0  0  0  0  0
  -18.0292  -28.1392   22.8558 C   0  0  0  0  0  0
  -24.1456  -36.7337   23.2639 C   0  0  0  0  0  0
  -25.9346  -30.8320   21.3535 C   0  0  0  0  0  0
  -26.0144  -29.4632   20.7034 C   0  0  0  0  0  0
  -27.2132  -28.7089   20.6839 C   0  0  0  0  0  0
  -26.0532  -26.9267   19.5126 C   0  0  0  0  0  0
  -24.8645  -27.6797   19.5169 C   0  0  0  0  0  0
  -23.6141  -29.8146   20.1689 C   0  0  0  0  0  0
  -25.4062  -36.3115   24.0371 C   0  0  1  0  0  0
  -20.5853  -28.3651   23.1376 C   0  0  2  0  0  0
  -20.6742  -26.9399   22.5414 C   0  0  0  0  0  0
  -19.5688  -26.6398   21.5239 C   0  0  0  0  0  0
  -18.1895  -26.7933   22.1672 C   0  0  0  0  0  0
  -19.1529  -28.8844   23.2965 C   0  0  0  0  0  0
  -18.9436  -30.1482   23.8913 C   0  0  0  0  0  0
  -17.6434  -30.6593   24.0611 C   0  0  0  0  0  0
  -25.9002  -34.9464   23.5163 C   0  0  0  0  0  0
  -16.5354  -29.9083   23.6362 C   0  0  0  0  0  0
  -16.7272  -28.6511   23.0363 C   0  0  0  0  0  0
  -26.4404  -31.6620   25.0741 C   0  0  0  0  0  0
  -25.3675  -31.3757   26.1554 C   0  0  0  0  0  0
  -27.0221  -30.3066   24.6101 C   0  0  0  0  0  0
  -27.6006  -32.4304   25.7472 C   0  0  0  0  0  0
  -27.5599  -37.1813   24.8459 C   0  0  0  0  0  0
  -21.4133  -29.3027   22.3744 N   0  0  0  0  0  0
  -26.4255  -37.3825   23.9466 N   0  0  0  0  0  0
  -24.6742  -31.0741   22.0962 N   0  0  0  0  0  0
  -23.4188  -28.8144   23.3023 O   0  0  0  0  0  0
  -28.3816  -26.6610   20.1019 O   0  0  0  0  0  0
  -26.5605  -34.8924   22.4749 O   0  0  0  0  0  0
  -23.5334  -32.1331   23.7512 O   0  0  0  0  0  0
  -30.6625  -21.8280   18.6934 C   0  0  0  0  0  0
  -29.7332  -21.7316   19.7497 C   0  0  0  0  0  0
  -31.4701  -20.6974   18.4436 C   0  0  0  0  0  0
  -30.3760  -19.5362   20.1066 C   0  0  0  0  0  0
  -33.4379  -21.7687   17.2146 C   0  0  0  0  0  0
  -31.5974  -20.6167   15.9504 C   0  0  0  0  0  0
  -33.2637  -19.2960   17.2342 C   0  0  0  0  0  0
  -28.8276  -18.1110   21.5521 C   0  0  0  0  0  0
  -31.3091  -18.1668   22.0119 C   0  0  0  0  0  0
  -28.7513  -22.8277   20.1845 C   0  0  0  0  0  0
  -28.9244  -24.2634   19.6156 C   0  0  0  0  0  0
  -30.4193  -16.9744   19.9711 C   0  0  0  0  0  0
  -28.2362  -25.3001   20.5525 C   0  0  0  0  0  0
  -32.4306  -20.6043   17.2379 C   0  0  0  0  0  0
  -30.2365  -18.2084   20.9117 C   0  0  0  0  0  0
  -29.6264  -20.5828   20.4503 N   0  0  0  0  0  0
  -31.3208  -19.5769   19.1732 N   0  0  0  0  0  0
  -29.9910  -15.6493   20.5001 N   0  0  0  0  0  0
  -31.4662  -12.3760   19.1560 H   0  0  0  0  0  0
  -30.2994  -11.3372   19.9126 H   0  0  0  0  0  0
  -29.7553  -11.6973   17.4708 H   0  0  0  0  0  0
  -29.6917  -13.4186   17.7232 H   0  0  0  0  0  0
  -27.8228  -11.2991   18.8275 H   0  0  0  0  0  0
  -27.3838  -12.6143   17.7800 H   0  0  0  0  0  0
  -27.6762  -14.2596   19.5111 H   0  0  0  0  0  0
  -28.6886  -12.1025   21.4316 H   0  0  0  0  0  0
  -28.4850  -13.7989   21.7862 H   0  0  0  0  0  0
  -25.2723   -9.5798   22.4707 H   0  0  0  0  0  0
  -24.0015   -7.4703   22.7449 H   0  0  0  0  0  0
  -21.0862   -8.8683   19.8964 H   0  0  0  0  0  0
  -22.3584  -10.9629   19.6132 H   0  0  0  0  0  0
  -21.2041   -7.6117   23.9637 H   0  0  0  0  0  0
  -21.1560   -6.0508   25.9022 H   0  0  0  0  0  0
  -22.0582   -2.7573   23.2785 H   0  0  0  0  0  0
  -22.4155  -12.0048   22.4903 H   0  0  0  0  0  0
  -21.1008  -13.1246   22.2472 H   0  0  0  0  0  0
  -24.6544  -15.8360   20.4621 H   0  0  0  0  0  0
  -26.2529  -15.6079   19.9856 H   0  0  0  0  0  0
  -26.7121  -32.5489   23.1193 H   0  0  0  0  0  0
  -25.0011  -33.9697   25.0501 H   0  0  0  0  0  0
  -22.6962  -31.3064   21.4087 H   0  0  0  0  0  0
  -23.3700  -35.9688   23.3205 H   0  0  0  0  0  0
  -24.3577  -36.9008   22.2072 H   0  0  0  0  0  0
  -23.7197  -37.6520   23.6668 H   0  0  0  0  0  0
  -26.0326  -31.5828   20.5736 H   0  0  0  0  0  0
  -26.8291  -30.8956   21.9600 H   0  0  0  0  0  0
  -28.1112  -29.0977   21.1369 H   0  0  0  0  0  0
  -26.0369  -25.9460   19.0589 H   0  0  0  0  0  0
  -23.9755  -27.2640   19.0595 H   0  0  0  0  0  0
  -23.7254  -30.5827   19.4034 H   0  0  0  0  0  0
  -22.7331  -29.2358   19.8797 H   0  0  0  0  0  0
  -25.1213  -36.1980   25.0854 H   0  0  0  0  0  0
  -21.0043  -28.3201   24.1457 H   0  0  0  0  0  0
  -20.5620  -26.2259   23.3561 H   0  0  0  0  0  0
  -21.6619  -26.7412   22.1216 H   0  0  0  0  0  0
  -19.6797  -25.6299   21.1240 H   0  0  0  0  0  0
  -19.6620  -27.3212   20.6744 H   0  0  0  0  0  0
  -17.4165  -26.6785   21.4062 H   0  0  0  0  0  0
  -18.0296  -26.0045   22.8997 H   0  0  0  0  0  0
  -19.7894  -30.7382   24.2207 H   0  0  0  0  0  0
  -17.4958  -31.6252   24.5227 H   0  0  0  0  0  0
  -15.5331  -30.2976   23.7664 H   0  0  0  0  0  0
  -15.8682  -28.0857   22.7004 H   0  0  0  0  0  0
  -24.5812  -30.7108   25.7981 H   0  0  0  0  0  0
  -24.8887  -32.2900   26.5058 H   0  0  0  0  0  0
  -25.8057  -30.8937   27.0311 H   0  0  0  0  0  0
  -26.2769  -29.6864   24.1106 H   0  0  0  0  0  0
  -27.3952  -29.7280   25.4572 H   0  0  0  0  0  0
  -27.8605  -30.4408   23.9262 H   0  0  0  0  0  0
  -27.2695  -33.3635   26.2058 H   0  0  0  0  0  0
  -28.3816  -32.6807   25.0272 H   0  0  0  0  0  0
  -28.0680  -31.8395   26.5388 H   0  0  0  0  0  0
  -28.2576  -38.0155   24.7591 H   0  0  0  0  0  0
  -28.1120  -36.2692   24.6112 H   0  0  0  0  0  0
  -27.2359  -37.1317   25.8872 H   0  0  0  0  0  0
  -20.9217  -29.8789   21.7015 H   0  0  0  0  0  0
  -26.0116  -38.2882   24.1472 H   0  0  0  0  0  0
  -30.7206  -22.7092   18.0757 H   0  0  0  0  0  0
  -32.9437  -22.7417   17.2189 H   0  0  0  0  0  0
  -34.0431  -21.7163   16.3089 H   0  0  0  0  0  0
  -34.1150  -21.7325   18.0679 H   0  0  0  0  0  0
  -31.0461  -21.5484   15.8385 H   0  0  0  0  0  0
  -30.8776  -19.7900   15.9680 H   0  0  0  0  0  0
  -32.2416  -20.5034   15.0762 H   0  0  0  0  0  0
  -33.8514  -19.1769   18.1419 H   0  0  0  0  0  0
  -33.9545  -19.2832   16.3906 H   0  0  0  0  0  0
  -32.6329  -18.4159   17.1290 H   0  0  0  0  0  0
  -28.6740  -18.9449   22.2394 H   0  0  0  0  0  0
  -28.6871  -17.1886   22.1209 H   0  0  0  0  0  0
  -28.0529  -18.1742   20.7906 H   0  0  0  0  0  0
  -31.1928  -18.9967   22.7126 H   0  0  0  0  0  0
  -32.3067  -18.2383   21.5784 H   0  0  0  0  0  0
  -31.2624  -17.2344   22.5726 H   0  0  0  0  0  0
  -28.7850  -22.8785   21.2730 H   0  0  0  0  0  0
  -27.7403  -22.4801   19.9563 H   0  0  0  0  0  0
  -28.5035  -24.3141   18.6023 H   0  0  0  0  0  0
  -29.9865  -24.5177   19.5357 H   0  0  0  0  0  0
  -31.4641  -16.9504   19.6467 H   0  0  0  0  0  0
  -29.8488  -17.1674   19.0626 H   0  0  0  0  0  0
  -28.6829  -25.2527   21.5483 H   0  0  0  0  0  0
  -27.1952  -25.0048   20.7224 H   0  0  0  0  0  0
  -29.0013  -15.5245   20.6467 H   0  0  0  0  0  0
  1 25  1  0  0  0
  1 30  2  0  0  0
  1 88  1  0  0  0
  2  3  1  0  0  0
  2 25  1  0  0  0
  2 89  1  0  0  0
  2 90  1  0  0  0
  3  4  1  0  0  0
  3 91  1  0  0  0
  3 92  1  0  0  0
  4  5  1  0  0  0
  4 93  1  0  0  0
  4 94  1  0  0  0
  5  6  1  0  0  0
  5 26  1  0  0  0
  5 95  1  0  0  0
  6 25  1  0  0  0
  6 96  1  0  0  0
  6 97  1  0  0  0
  7  8  2  0  0  0
  7 26  1  0  0  0
  7 29  1  0  0  0
  8  9  1  0  0  0
  8 22  1  0  0  0
  9 10  1  0  0  0
  9 27  2  0  0  0
 10 11  2  0  0  0
 10 15  1  0  0  0
 11 12  1  0  0  0
 11 98  1  0  0  0
 12 13  2  0  0  0
 12 99  1  0  0  0
 13 14  1  0  0  0
 13 31  1  0  0  0
 14 15  2  0  0  0
 14100  1  0  0  0
 15101  1  0  0  0
 16 17  2  0  0  0
 16 21  1  0  0  0
 16 31  1  0  0  0
 17 18  1  0  0  0
 17102  1  0  0  0
 18 19  2  0  0  0
 18103  1  0  0  0
 19 20  1  0  0  0
 19 24  1  0  0  0
 20 21  2  0  0  0
 20104  1  0  0  0
 21 23  1  0  0  0
 22 28  1  0  0  0
 22 32  2  0  0  0
 26 27  1  0  0  0
 28105  1  0  0  0
 28106  1  0  0  0
 29107  1  0  0  0
 29108  1  0  0  0
 33 34  1  0  0  0
 33 66  1  0  0  0
 33 70  2  0  0  0
 34 36  1  0  0  0
 34 59  1  0  0  0
 34109  1  0  0  0
 35 44  2  0  0  0
 35 45  1  0  0  0
 35 68  1  0  0  0
 36 56  1  0  0  0
 36110  1  0  0  0
 37 39  1  0  0  0
 37 47  1  0  0  0
 37 66  1  0  0  0
 37111  1  0  0  0
 38 43  2  0  0  0
 38 46  1  0  0  0
 38 47  1  0  0  0
 39 64  1  0  0  0
 39 67  2  0  0  0
 40 52  1  0  0  0
 40 53  2  0  0  0
 40 58  1  0  0  0
 41112  1  0  0  0
 41113  1  0  0  0
 41114  1  0  0  0
 41 48  1  0  0  0
 42 43  1  0  0  0
 42 66  1  0  0  0
 42115  1  0  0  0
 42116  1  0  0  0
 43 44  1  0  0  0
 44117  1  0  0  0
 45 46  2  0  0  0
 45118  1  0  0  0
 46119  1  0  0  0
 47120  1  0  0  0
 47121  1  0  0  0
 48 56  1  0  0  0
 48 65  1  0  0  0
 48122  1  0  0  0
 49 50  1  0  0  0
 49 53  1  0  0  0
 49 64  1  0  0  0
 49123  1  0  0  0
 50 51  1  0  0  0
 50124  1  0  0  0
 50125  1  0  0  0
 51 52  1  0  0  0
 51126  1  0  0  0
 51127  1  0  0  0
 52128  1  0  0  0
 52129  1  0  0  0
 53 54  1  0  0  0
 54 55  2  0  0  0
 54130  1  0  0  0
 55 57  1  0  0  0
 55131  1  0  0  0
 56 69  2  0  0  0
 57 58  2  0  0  0
 57132  1  0  0  0
 58133  1  0  0  0
 59 60  1  0  0  0
 59 61  1  0  0  0
 59 62  1  0  0  0
 60134  1  0  0  0
 60135  1  0  0  0
 60136  1  0  0  0
 61137  1  0  0  0
 61138  1  0  0  0
 61139  1  0  0  0
 62140  1  0  0  0
 62141  1  0  0  0
 62142  1  0  0  0
 63 65  1  0  0  0
 63143  1  0  0  0
 63144  1  0  0  0
 63145  1  0  0  0
 64146  1  0  0  0
 65147  1  0  0  0
 68 83  1  0  0  0
 71 72  2  0  0  0
 71 73  1  0  0  0
 71148  1  0  0  0
 72 80  1  0  0  0
 72 86  1  0  0  0
 73 84  1  0  0  0
 73 87  2  0  0  0
 74 85  1  0  0  0
 74 86  2  0  0  0
 74 87  1  0  0  0
 75149  1  0  0  0
 75150  1  0  0  0
 75151  1  0  0  0
 75 84  1  0  0  0
 76 84  1  0  0  0
 76152  1  0  0  0
 76153  1  0  0  0
 76154  1  0  0  0
 77 84  1  0  0  0
 77155  1  0  0  0
 77156  1  0  0  0
 77157  1  0  0  0
 78158  1  0  0  0
 78159  1  0  0  0
 78160  1  0  0  0
 78 85  1  0  0  0
 79 85  1  0  0  0
 79161  1  0  0  0
 79162  1  0  0  0
 79163  1  0  0  0
 80 81  1  0  0  0
 80164  1  0  0  0
 80165  1  0  0  0
 81 83  1  0  0  0
 81166  1  0  0  0
 81167  1  0  0  0
 82 85  1  0  0  0
 82 88  1  0  0  0
 82168  1  0  0  0
 82169  1  0  0  0
 83170  1  0  0  0
 83171  1  0  0  0
 88172  1  0  0  0
M  ISO  4   1 100  68 101  83 101  88 100
M  END
> <chiral flag>
0

> <version>
0

> <s_m_source_file>
/data/baiqing/PycharmProjects/Reinvent-master-3.2/result/LINK_invent/BTK/process_docking_weight1_custom_sum_contain_oxygen_bond_distance_aromatic_linkinvent_7_9_3/rearranged_h_0069.sdf

> <i_m_source_file_index>
44

> <r_mmod_Potential_Energy-OPLS-2005>
-517.770568847656

> <r_mmod_Stretch_Energy-OPLS-2005>
44.5959930419922

> <r_mmod_Bend_Energy-OPLS-2005>
120.121154785156

> <r_mmod_Torsional_Energy-OPLS-2005>
232.130859375

> <r_mmod_Improper_Torsional_Energy-OPLS-2005>
10.8930521011353

> <r_mmod_Van_der_Waal_Energy-OPLS-2005>
173.425765991211

> <r_mmod_Electrostatic_Energy-OPLS-2005>
-914.896301269531

> <r_mmod_Solvation_Energy-OPLS-2005>
-210.932479858398

> <b_mmod_Minimization_Converged-OPLS-2005>
0

> <r_mmod_RMS_Derivative-OPLS-2005>
9.66329479217529

$$$$
44
                    3D
 Structure written by MMmdl.
168176  0  0  1  0            999 V2000
  -30.6705  -14.7286   20.4993 C   0  0  0  0  0  0
  -30.4231  -12.4670   19.4516 C   0  0  0  0  0  0
  -29.4971  -12.5173   18.2181 C   0  0  0  0  0  0
  -28.0211  -12.3454   18.6301 C   0  0  0  0  0  0
  -27.6388  -13.2277   19.8486 C   0  0  2  0  0  0
  -28.6904  -13.1111   20.9688 C   0  0  0  0  0  0
  -25.2503  -13.8185   20.5696 C   0  0  0  0  0  0
  -24.1794  -13.0436   20.9224 C   0  0  0  0  0  0
  -24.6384  -11.6917   20.8770 C   0  0  0  0  0  0
  -23.9065  -10.4297   21.0420 C   0  0  0  0  0  0
  -24.3620   -9.4205   21.9188 C   0  0  0  0  0  0
  -23.6299   -8.2239   22.0748 C   0  0  0  0  0  0
  -22.4277   -8.0278   21.3544 C   0  0  0  0  0  0
  -21.9920   -9.0250   20.4644 C   0  0  0  0  0  0
  -22.7245  -10.2133   20.3057 C   0  0  0  0  0  0
  -21.6855   -6.0742   22.5285 C   0  0  0  0  0  0
  -21.4018   -6.5646   23.8223 C   0  0  0  0  0  0
  -21.3655   -5.6792   24.9182 C   0  0  0  0  0  0
  -21.6039   -4.3055   24.7222 C   0  0  0  0  0  0
  -21.8820   -3.8150   23.4345 C   0  0  0  0  0  0
  -21.9195   -4.6972   22.3406 C   0  0  0  0  0  0
  -22.7815  -13.5228   21.1866 C   0  0  0  0  0  0
  -22.1661   -4.2165   21.0980 F   0  0  0  0  0  0
  -21.5625   -3.4531   25.7730 F   0  0  0  0  0  0
  -29.9768  -13.5317   20.3898 N   0  0  0  0  0  0
  -26.2921  -12.9384   20.3277 N   0  0  0  0  0  0
  -25.9311  -11.6534   20.5766 N   0  0  0  0  0  0
  -22.0448  -12.8232   22.0416 N   0  0  0  0  0  0
  -25.4184  -15.1908   20.4075 N   0  0  0  0  0  0
  -31.8604  -14.7000   20.1780 O   0  0  0  0  0  0
  -21.6642   -6.8875   21.4244 O   0  0  0  0  0  0
  -22.3507  -14.5525   20.6692 O   0  0  0  0  0  0
  -24.6295  -31.8557   23.2000 C   0  0  0  0  0  0
  -25.9130  -32.4768   23.8341 C   0  0  1  0  0  0
  -27.2245  -27.2924   20.1242 C   0  0  0  0  0  0
  -25.5930  -33.8568   24.2265 N   0  0  0  0  0  0
  -23.4252  -30.4772   21.5431 C   0  0  2  0  0  0
  -24.8728  -28.9232   20.1148 C   0  0  0  0  0  0
  -22.7488  -29.4605   22.4931 C   0  0  0  0  0  0
  -18.0288  -28.1386   22.8484 C   0  0  0  0  0  0
  -24.1478  -36.7289   23.2637 C   0  0  0  0  0  0
  -25.9679  -30.7784   21.3733 C   0  0  0  0  0  0
  -26.0438  -29.4010   20.7201 C   0  0  0  0  0  0
  -27.2249  -28.5975   20.7139 C   0  0  0  0  0  0
  -26.0357  -26.8732   19.4919 C   0  0  0  0  0  0
  -24.8708  -27.6650   19.4923 C   0  0  0  0  0  0
  -23.6428  -29.8073   20.1604 C   0  0  0  0  0  0
  -25.4106  -36.3081   24.0324 C   0  0  1  0  0  0
  -20.5889  -28.3692   23.1278 C   0  0  2  0  0  0
  -20.6780  -26.9411   22.5411 C   0  0  0  0  0  0
  -19.5755  -26.6383   21.5208 C   0  0  0  0  0  0
  -18.1931  -26.7935   22.1619 C   0  0  0  0  0  0
  -19.1540  -28.8854   23.2876 C   0  0  0  0  0  0
  -18.9466  -30.1460   23.8888 C   0  0  0  0  0  0
  -17.6463  -30.6591   24.0556 C   0  0  0  0  0  0
  -25.9045  -34.9450   23.5095 C   0  0  0  0  0  0
  -16.5353  -29.9086   23.6330 C   0  0  0  0  0  0
  -16.7277  -28.6503   23.0354 C   0  0  0  0  0  0
  -26.4505  -31.6601   25.0732 C   0  0  0  0  0  0
  -25.3734  -31.3750   26.1457 C   0  0  0  0  0  0
  -27.0351  -30.3019   24.6206 C   0  0  0  0  0  0
  -27.6060  -32.4342   25.7510 C   0  0  0  0  0  0
  -27.5568  -37.1801   24.8463 C   0  0  0  0  0  0
  -21.4192  -29.3045   22.3683 N   0  0  0  0  0  0
  -26.4277  -37.3787   23.9411 N   0  0  0  0  0  0
  -24.6937  -31.0543   22.0961 N   0  0  0  0  0  0
  -23.4197  -28.8139   23.3018 O   0  0  0  0  0  0
  -28.3212  -26.4123   20.1290 O   0  0  0  0  0  0
  -26.5616  -34.8925   22.4660 O   0  0  0  0  0  0
  -23.5454  -32.1371   23.7304 O   0  0  0  0  0  0
  -29.9792  -19.9648   20.9654 C   0  0  0  0  0  0
  -29.7561  -18.6951   20.2964 C   0  0  0  0  0  0
  -29.0393  -20.9002   20.5393 C   0  0  0  0  0  0
  -31.8000  -17.6255   21.2860 C   0  0  0  0  0  0
  -31.2404  -17.3141   18.8680 C   0  0  0  0  0  0
  -27.2767  -22.2614   21.7109 C   0  0  0  0  0  0
  -29.6605  -22.6222   22.2676 C   0  0  0  0  0  0
  -27.1827  -20.5872   18.7914 C   0  0  0  0  0  0
  -29.0032  -16.1200   21.7139 C   0  0  0  0  0  0
  -28.7444  -23.6834   20.1595 C   0  0  0  0  0  0
  -28.1120  -25.0641   20.7353 C   0  0  0  0  0  0
  -30.6361  -17.3593   20.2978 C   0  0  0  0  0  0
  -28.6897  -22.3502   21.0958 C   0  0  0  0  0  0
  -28.7248  -18.8634   19.4742 N   0  0  0  0  0  0
  -28.3127  -20.1681   19.5975 N   0  0  0  0  0  0
  -30.0294  -15.9762   20.6723 N   0  0  0  0  0  0
  -31.4590  -12.5845   19.1304 H   0  0  0  0  0  0
  -30.3818  -11.4860   19.9261 H   0  0  0  0  0  0
  -29.7774  -11.7446   17.5004 H   0  0  0  0  0  0
  -29.6241  -13.4721   17.7056 H   0  0  0  0  0  0
  -27.8645  -11.2923   18.8707 H   0  0  0  0  0  0
  -27.3646  -12.5638   17.7873 H   0  0  0  0  0  0
  -27.6440  -14.2592   19.4955 H   0  0  0  0  0  0
  -28.7490  -12.0778   21.3151 H   0  0  0  0  0  0
  -28.3997  -13.6670   21.8524 H   0  0  0  0  0  0
  -25.2759   -9.5693   22.4767 H   0  0  0  0  0  0
  -24.0019   -7.4632   22.7462 H   0  0  0  0  0  0
  -21.0853   -8.8754   19.8951 H   0  0  0  0  0  0
  -22.3689  -10.9667   19.6166 H   0  0  0  0  0  0
  -21.2013   -7.6155   23.9737 H   0  0  0  0  0  0
  -21.1475   -6.0516   25.9087 H   0  0  0  0  0  0
  -22.0606   -2.7614   23.2837 H   0  0  0  0  0  0
  -22.4041  -11.9898   22.4839 H   0  0  0  0  0  0
  -21.1057  -13.1252   22.2576 H   0  0  0  0  0  0
  -24.6547  -15.8469   20.5251 H   0  0  0  0  0  0
  -26.2697  -15.6306   20.0793 H   0  0  0  0  0  0
  -26.7192  -32.5422   23.1084 H   0  0  0  0  0  0
  -25.0114  -33.9724   25.0435 H   0  0  0  0  0  0
  -22.7211  -31.2989   21.3943 H   0  0  0  0  0  0
  -23.3745  -35.9616   23.3302 H   0  0  0  0  0  0
  -24.3557  -36.8908   22.2049 H   0  0  0  0  0  0
  -23.7223  -37.6487   23.6659 H   0  0  0  0  0  0
  -26.0984  -31.5360   20.5998 H   0  0  0  0  0  0
  -26.8484  -30.8327   22.0013 H   0  0  0  0  0  0
  -28.1234  -28.9583   21.1937 H   0  0  0  0  0  0
  -26.0026  -25.9093   19.0030 H   0  0  0  0  0  0
  -23.9747  -27.2929   19.0160 H   0  0  0  0  0  0
  -23.7703  -30.5809   19.4031 H   0  0  0  0  0  0
  -22.7620  -29.2407   19.8538 H   0  0  0  0  0  0
  -25.1290  -36.1926   25.0817 H   0  0  0  0  0  0
  -20.9975  -28.3257   24.1400 H   0  0  0  0  0  0
  -20.5671  -26.2296   23.3615 H   0  0  0  0  0  0
  -21.6650  -26.7441   22.1201 H   0  0  0  0  0  0
  -19.6915  -25.6290   21.1245 H   0  0  0  0  0  0
  -19.6690  -27.3189   20.6733 H   0  0  0  0  0  0
  -17.4206  -26.6674   21.4020 H   0  0  0  0  0  0
  -18.0324  -26.0072   22.9010 H   0  0  0  0  0  0
  -19.7940  -30.7273   24.2248 H   0  0  0  0  0  0
  -17.5024  -31.6265   24.5166 H   0  0  0  0  0  0
  -15.5360  -30.2988   23.7664 H   0  0  0  0  0  0
  -15.8670  -28.0820   22.7084 H   0  0  0  0  0  0
  -24.5909  -30.7092   25.7798 H   0  0  0  0  0  0
  -24.8932  -32.2927   26.4867 H   0  0  0  0  0  0
  -25.8065  -30.8947   27.0241 H   0  0  0  0  0  0
  -26.2937  -29.6770   24.1210 H   0  0  0  0  0  0
  -27.4020  -29.7276   25.4726 H   0  0  0  0  0  0
  -27.8821  -30.4306   23.9458 H   0  0  0  0  0  0
  -27.2659  -33.3638   26.2082 H   0  0  0  0  0  0
  -28.3882  -32.6899   25.0354 H   0  0  0  0  0  0
  -28.0711  -31.8469   26.5437 H   0  0  0  0  0  0
  -28.2598  -38.0092   24.7518 H   0  0  0  0  0  0
  -28.1055  -36.2625   24.6282 H   0  0  0  0  0  0
  -27.2289  -37.1443   25.8870 H   0  0  0  0  0  0
  -20.9376  -29.8774   21.6892 H   0  0  0  0  0  0
  -26.0152  -38.2853   24.1438 H   0  0  0  0  0  0
  -30.7455  -20.1602   21.7006 H   0  0  0  0  0  0
  -32.3523  -18.5263   21.0163 H   0  0  0  0  0  0
  -32.5338  -16.8223   21.3184 H   0  0  0  0  0  0
  -31.4272  -17.7655   22.3020 H   0  0  0  0  0  0
  -31.6596  -18.2826   18.5931 H   0  0  0  0  0  0
  -30.4778  -17.0762   18.1265 H   0  0  0  0  0  0
  -32.0542  -16.6035   18.7475 H   0  0  0  0  0  0
  -27.1863  -21.3876   22.3571 H   0  0  0  0  0  0
  -26.5073  -22.1821   20.9452 H   0  0  0  0  0  0
  -27.0337  -23.1276   22.3249 H   0  0  0  0  0  0
  -29.6131  -21.8311   23.0172 H   0  0  0  0  0  0
  -29.4447  -23.5503   22.7940 H   0  0  0  0  0  0
  -30.6912  -22.6787   21.9163 H   0  0  0  0  0  0
  -26.2553  -20.4346   19.3431 H   0  0  0  0  0  0
  -27.1417  -20.0129   17.8657 H   0  0  0  0  0  0
  -27.2720  -21.6385   18.5285 H   0  0  0  0  0  0
  -28.0172  -15.8708   21.3254 H   0  0  0  0  0  0
  -28.9362  -17.1279   22.1200 H   0  0  0  0  0  0
  -29.2269  -15.4924   22.5776 H   0  0  0  0  0  0
  -29.7843  -23.8668   19.8874 H   0  0  0  0  0  0
  -28.2431  -23.4803   19.2151 H   0  0  0  0  0  0
  -28.4742  -25.1959   21.7533 H   0  0  0  0  0  0
  -27.0427  -24.8932   20.8564 H   0  0  0  0  0  0
  1 25  1  0  0  0
  1 30  2  0  0  0
  1 86  1  0  0  0
  2  3  1  0  0  0
  2 25  1  0  0  0
  2 87  1  0  0  0
  2 88  1  0  0  0
  3  4  1  0  0  0
  3 89  1  0  0  0
  3 90  1  0  0  0
  4  5  1  0  0  0
  4 91  1  0  0  0
  4 92  1  0  0  0
  5  6  1  0  0  0
  5 26  1  0  0  0
  5 93  1  0  0  0
  6 25  1  0  0  0
  6 94  1  0  0  0
  6 95  1  0  0  0
  7  8  2  0  0  0
  7 26  1  0  0  0
  7 29  1  0  0  0
  8  9  1  0  0  0
  8 22  1  0  0  0
  9 10  1  0  0  0
  9 27  2  0  0  0
 10 11  2  0  0  0
 10 15  1  0  0  0
 11 12  1  0  0  0
 11 96  1  0  0  0
 12 13  2  0  0  0
 12 97  1  0  0  0
 13 14  1  0  0  0
 13 31  1  0  0  0
 14 15  2  0  0  0
 14 98  1  0  0  0
 15 99  1  0  0  0
 16 17  2  0  0  0
 16 21  1  0  0  0
 16 31  1  0  0  0
 17 18  1  0  0  0
 17100  1  0  0  0
 18 19  2  0  0  0
 18101  1  0  0  0
 19 20  1  0  0  0
 19 24  1  0  0  0
 20 21  2  0  0  0
 20102  1  0  0  0
 21 23  1  0  0  0
 22 28  1  0  0  0
 22 32  2  0  0  0
 26 27  1  0  0  0
 28103  1  0  0  0
 28104  1  0  0  0
 29105  1  0  0  0
 29106  1  0  0  0
 33 34  1  0  0  0
 33 66  1  0  0  0
 33 70  2  0  0  0
 34 36  1  0  0  0
 34 59  1  0  0  0
 34107  1  0  0  0
 35 44  2  0  0  0
 35 45  1  0  0  0
 35 68  1  0  0  0
 36 56  1  0  0  0
 36108  1  0  0  0
 37 39  1  0  0  0
 37 47  1  0  0  0
 37 66  1  0  0  0
 37109  1  0  0  0
 38 43  2  0  0  0
 38 46  1  0  0  0
 38 47  1  0  0  0
 39 64  1  0  0  0
 39 67  2  0  0  0
 40 52  1  0  0  0
 40 53  2  0  0  0
 40 58  1  0  0  0
 41110  1  0  0  0
 41111  1  0  0  0
 41112  1  0  0  0
 41 48  1  0  0  0
 42 43  1  0  0  0
 42 66  1  0  0  0
 42113  1  0  0  0
 42114  1  0  0  0
 43 44  1  0  0  0
 44115  1  0  0  0
 45 46  2  0  0  0
 45116  1  0  0  0
 46117  1  0  0  0
 47118  1  0  0  0
 47119  1  0  0  0
 48 56  1  0  0  0
 48 65  1  0  0  0
 48120  1  0  0  0
 49 50  1  0  0  0
 49 53  1  0  0  0
 49 64  1  0  0  0
 49121  1  0  0  0
 50 51  1  0  0  0
 50122  1  0  0  0
 50123  1  0  0  0
 51 52  1  0  0  0
 51124  1  0  0  0
 51125  1  0  0  0
 52126  1  0  0  0
 52127  1  0  0  0
 53 54  1  0  0  0
 54 55  2  0  0  0
 54128  1  0  0  0
 55 57  1  0  0  0
 55129  1  0  0  0
 56 69  2  0  0  0
 57 58  2  0  0  0
 57130  1  0  0  0
 58131  1  0  0  0
 59 60  1  0  0  0
 59 61  1  0  0  0
 59 62  1  0  0  0
 60132  1  0  0  0
 60133  1  0  0  0
 60134  1  0  0  0
 61135  1  0  0  0
 61136  1  0  0  0
 61137  1  0  0  0
 62138  1  0  0  0
 62139  1  0  0  0
 62140  1  0  0  0
 63 65  1  0  0  0
 63141  1  0  0  0
 63142  1  0  0  0
 63143  1  0  0  0
 64144  1  0  0  0
 65145  1  0  0  0
 68 81  1  0  0  0
 71 72  1  0  0  0
 71 73  2  0  0  0
 71146  1  0  0  0
 72 82  1  0  0  0
 72 84  2  0  0  0
 73 83  1  0  0  0
 73 85  1  0  0  0
 74147  1  0  0  0
 74148  1  0  0  0
 74149  1  0  0  0
 74 82  1  0  0  0
 75 82  1  0  0  0
 75150  1  0  0  0
 75151  1  0  0  0
 75152  1  0  0  0
 76153  1  0  0  0
 76154  1  0  0  0
 76155  1  0  0  0
 76 83  1  0  0  0
 77 83  1  0  0  0
 77156  1  0  0  0
 77157  1  0  0  0
 77158  1  0  0  0
 78 85  1  0  0  0
 78159  1  0  0  0
 78160  1  0  0  0
 78161  1  0  0  0
 79 86  1  0  0  0
 79162  1  0  0  0
 79163  1  0  0  0
 79164  1  0  0  0
 80 81  1  0  0  0
 80 83  1  0  0  0
 80165  1  0  0  0
 80166  1  0  0  0
 81167  1  0  0  0
 81168  1  0  0  0
 82 86  1  0  0  0
 84 85  1  0  0  0
M  ISO  4   1 100  68 101  81 101  86 100
M  END
> <chiral flag>
0

> <version>
0

> <s_m_source_file>
/data/baiqing/PycharmProjects/Reinvent-master-3.2/result/LINK_invent/BTK/process_docking_weight1_custom_sum_contain_oxygen_bond_distance_aromatic_linkinvent_7_9_3/rearranged_h_0069.sdf

> <i_m_source_file_index>
45

> <r_mmod_Potential_Energy-OPLS-2005>
288.103973388672

> <r_mmod_Stretch_Energy-OPLS-2005>
135.394271850586

> <r_mmod_Bend_Energy-OPLS-2005>
203.70166015625

> <r_mmod_Torsional_Energy-OPLS-2005>
286.60791015625

> <r_mmod_Improper_Torsional_Energy-OPLS-2005>
9.63624382019043

> <r_mmod_Van_der_Waal_Energy-OPLS-2005>
144.796539306641

> <r_mmod_Electrostatic_Energy-OPLS-2005>
-375.680145263672

> <r_mmod_Solvation_Energy-OPLS-2005>
-186.658828735352

> <b_mmod_Minimization_Converged-OPLS-2005>
0

> <r_mmod_RMS_Derivative-OPLS-2005>
1.78990530967712

$$$$
45
                    3D
 Structure written by MMmdl.
160168  0  0  1  0            999 V2000
  -30.7400  -14.8028   20.2819 C   0  0  0  0  0  0
  -30.4103  -12.4914   19.4211 C   0  0  0  0  0  0
  -29.4597  -12.3575   18.2163 C   0  0  0  0  0  0
  -27.9972  -12.2504   18.6721 C   0  0  0  0  0  0
  -27.6141  -13.2226   19.8184 C   0  0  2  0  0  0
  -28.7037  -13.3352   20.9039 C   0  0  0  0  0  0
  -25.2480  -13.8187   20.5835 C   0  0  0  0  0  0
  -24.1777  -13.0436   20.9303 C   0  0  0  0  0  0
  -24.6359  -11.6905   20.8868 C   0  0  0  0  0  0
  -23.9061  -10.4283   21.0464 C   0  0  0  0  0  0
  -24.3624   -9.4189   21.9216 C   0  0  0  0  0  0
  -23.6300   -8.2225   22.0765 C   0  0  0  0  0  0
  -22.4287   -8.0281   21.3550 C   0  0  0  0  0  0
  -21.9935   -9.0268   20.4658 C   0  0  0  0  0  0
  -22.7259  -10.2143   20.3085 C   0  0  0  0  0  0
  -21.6851   -6.0751   22.5278 C   0  0  0  0  0  0
  -21.4014   -6.5656   23.8213 C   0  0  0  0  0  0
  -21.3640   -5.6807   24.9168 C   0  0  0  0  0  0
  -21.6026   -4.3068   24.7220 C   0  0  0  0  0  0
  -21.8819   -3.8162   23.4345 C   0  0  0  0  0  0
  -21.9197   -4.6979   22.3403 C   0  0  0  0  0  0
  -22.7786  -13.5212   21.1888 C   0  0  0  0  0  0
  -22.1669   -4.2160   21.0980 F   0  0  0  0  0  0
  -21.5621   -3.4558   25.7737 F   0  0  0  0  0  0
  -29.9607  -13.6599   20.2094 N   0  0  0  0  0  0
  -26.2879  -12.9358   20.3446 N   0  0  0  0  0  0
  -25.9293  -11.6518   20.5977 N   0  0  0  0  0  0
  -22.0437  -12.8195   22.0424 N   0  0  0  0  0  0
  -25.4134  -15.1919   20.4185 N   0  0  0  0  0  0
  -31.9084  -14.5732   20.5744 O   0  0  0  0  0  0
  -21.6639   -6.8892   21.4237 O   0  0  0  0  0  0
  -22.3469  -14.5509   20.6718 O   0  0  0  0  0  0
  -24.6258  -31.8590   23.2000 C   0  0  0  0  0  0
  -25.9107  -32.4776   23.8344 C   0  0  1  0  0  0
  -27.2174  -27.3045   20.1386 C   0  0  0  0  0  0
  -25.5921  -33.8579   24.2277 N   0  0  0  0  0  0
  -23.4218  -30.4818   21.5406 C   0  0  2  0  0  0
  -24.8705  -28.9312   20.1095 C   0  0  0  0  0  0
  -22.7480  -29.4625   22.4904 C   0  0  0  0  0  0
  -18.0294  -28.1390   22.8471 C   0  0  0  0  0  0
  -24.1498  -36.7300   23.2631 C   0  0  0  0  0  0
  -25.9605  -30.7898   21.3707 C   0  0  0  0  0  0
  -26.0372  -29.4124   20.7183 C   0  0  0  0  0  0
  -27.2186  -28.6117   20.7183 C   0  0  0  0  0  0
  -26.0336  -26.8721   19.5081 C   0  0  0  0  0  0
  -24.8713  -27.6688   19.4922 C   0  0  0  0  0  0
  -23.6404  -29.8159   20.1551 C   0  0  0  0  0  0
  -25.4118  -36.3085   24.0323 C   0  0  1  0  0  0
  -20.5890  -28.3704   23.1269 C   0  0  2  0  0  0
  -20.6789  -26.9427   22.5407 C   0  0  0  0  0  0
  -19.5770  -26.6389   21.5201 C   0  0  0  0  0  0
  -18.1941  -26.7930   22.1611 C   0  0  0  0  0  0
  -19.1543  -28.8860   23.2864 C   0  0  0  0  0  0
  -18.9469  -30.1454   23.8907 C   0  0  0  0  0  0
  -17.6471  -30.6592   24.0565 C   0  0  0  0  0  0
  -25.9057  -34.9453   23.5103 C   0  0  0  0  0  0
  -16.5356  -29.9093   23.6324 C   0  0  0  0  0  0
  -16.7281  -28.6507   23.0339 C   0  0  0  0  0  0
  -26.4502  -31.6572   25.0704 C   0  0  0  0  0  0
  -25.3741  -31.3695   26.1436 C   0  0  0  0  0  0
  -27.0337  -30.3003   24.6133 C   0  0  0  0  0  0
  -27.6078  -32.4292   25.7483 C   0  0  0  0  0  0
  -27.5594  -37.1794   24.8455 C   0  0  0  0  0  0
  -21.4194  -29.3058   22.3668 N   0  0  0  0  0  0
  -26.4298  -37.3778   23.9408 N   0  0  0  0  0  0
  -24.6884  -31.0601   22.0946 N   0  0  0  0  0  0
  -23.4198  -28.8172   23.3002 O   0  0  0  0  0  0
  -28.3238  -26.4469   20.1507 O   0  0  0  0  0  0
  -26.5623  -34.8918   22.4676 O   0  0  0  0  0  0
  -23.5429  -32.1384   23.7333 O   0  0  0  0  0  0
  -29.3465  -17.7893   21.6036 C   0  0  0  0  0  0
  -28.9251  -19.1123   21.6263 C   0  0  0  0  0  0
  -29.7377  -17.4969   20.2523 C   0  0  0  0  0  0
  -27.4086  -20.8253   18.9139 C   0  0  0  0  0  0
  -28.4333  -23.7679   19.9068 C   0  0  0  0  0  0
  -28.5687  -22.3365   20.6511 C   0  0  0  0  0  0
  -28.1692  -25.0979   20.7590 C   0  0  0  0  0  0
  -28.6861  -21.0085   19.7502 C   0  0  1  0  0  0
  -30.5103  -16.2743   19.5452 C   0  0  0  0  0  0
  -29.9271  -16.0461   18.1057 C   0  0  0  0  0  0
  -31.9649  -16.8709   19.3046 C   0  0  0  0  0  0
  -29.4988  -18.6432   19.5528 N   0  0  0  0  0  0
  -29.0457  -19.6587   20.3587 N   0  0  0  0  0  0
  -29.9378  -17.1262   17.3213 F   0  0  0  0  0  0
  -30.6335  -15.1311   17.4428 F   0  0  0  0  0  0
  -28.6641  -15.6403   18.1436 F   0  0  0  0  0  0
  -32.5666  -17.1558   20.4674 F   0  0  0  0  0  0
  -32.7783  -16.0530   18.6259 F   0  0  0  0  0  0
  -31.9809  -18.0113   18.6080 F   0  0  0  0  0  0
  -31.4380  -12.5977   19.0696 H   0  0  0  0  0  0
  -30.3926  -11.5855   20.0293 H   0  0  0  0  0  0
  -29.7255  -11.4685   17.6427 H   0  0  0  0  0  0
  -29.5521  -13.1772   17.5172 H   0  0  0  0  0  0
  -27.8490  -11.2233   19.0041 H   0  0  0  0  0  0
  -27.3281  -12.3897   17.8228 H   0  0  0  0  0  0
  -27.5248  -14.1973   19.3618 H   0  0  0  0  0  0
  -28.7924  -12.4066   21.4710 H   0  0  0  0  0  0
  -28.4520  -14.1205   21.6183 H   0  0  0  0  0  0
  -25.2760   -9.5661   22.4804 H   0  0  0  0  0  0
  -24.0011   -7.4603   22.7472 H   0  0  0  0  0  0
  -21.0884   -8.8790   19.8951 H   0  0  0  0  0  0
  -22.3730  -10.9702   19.6210 H   0  0  0  0  0  0
  -21.2015   -7.6162   23.9717 H   0  0  0  0  0  0
  -21.1452   -6.0540   25.9072 H   0  0  0  0  0  0
  -22.0620   -2.7631   23.2840 H   0  0  0  0  0  0
  -22.4097  -11.9870   22.4798 H   0  0  0  0  0  0
  -21.1028  -13.1159   22.2603 H   0  0  0  0  0  0
  -24.6414  -15.8396   20.5328 H   0  0  0  0  0  0
  -26.2571  -15.6402   20.0865 H   0  0  0  0  0  0
  -26.7170  -32.5465   23.1098 H   0  0  0  0  0  0
  -25.0093  -33.9722   25.0438 H   0  0  0  0  0  0
  -22.7152  -31.3011   21.3942 H   0  0  0  0  0  0
  -23.3765  -35.9628   23.3264 H   0  0  0  0  0  0
  -24.3593  -36.8958   22.2053 H   0  0  0  0  0  0
  -23.7248  -37.6482   23.6692 H   0  0  0  0  0  0
  -26.0853  -31.5498   20.5982 H   0  0  0  0  0  0
  -26.8409  -30.8449   21.9985 H   0  0  0  0  0  0
  -28.1171  -28.9735   21.2006 H   0  0  0  0  0  0
  -26.0069  -25.9017   19.0332 H   0  0  0  0  0  0
  -23.9781  -27.2999   19.0063 H   0  0  0  0  0  0
  -23.7660  -30.5914   19.3982 H   0  0  0  0  0  0
  -22.7593  -29.2474   19.8508 H   0  0  0  0  0  0
  -25.1297  -36.1933   25.0813 H   0  0  0  0  0  0
  -20.9971  -28.3299   24.1389 H   0  0  0  0  0  0
  -20.5687  -26.2324   23.3611 H   0  0  0  0  0  0
  -21.6666  -26.7473   22.1208 H   0  0  0  0  0  0
  -19.6949  -25.6291   21.1246 H   0  0  0  0  0  0
  -19.6716  -27.3194   20.6719 H   0  0  0  0  0  0
  -17.4217  -26.6666   21.4005 H   0  0  0  0  0  0
  -18.0353  -26.0076   22.9015 H   0  0  0  0  0  0
  -19.7948  -30.7242   24.2307 H   0  0  0  0  0  0
  -17.5033  -31.6274   24.5163 H   0  0  0  0  0  0
  -15.5361  -30.2998   23.7639 H   0  0  0  0  0  0
  -15.8676  -28.0824   22.7049 H   0  0  0  0  0  0
  -24.5963  -30.6993   25.7765 H   0  0  0  0  0  0
  -24.8878  -32.2838   26.4844 H   0  0  0  0  0  0
  -25.8076  -30.8907   27.0227 H   0  0  0  0  0  0
  -26.2889  -29.6749   24.1202 H   0  0  0  0  0  0
  -27.4086  -29.7273   25.4619 H   0  0  0  0  0  0
  -27.8744  -30.4290   23.9315 H   0  0  0  0  0  0
  -27.2728  -33.3624   26.2036 H   0  0  0  0  0  0
  -28.3918  -32.6782   25.0316 H   0  0  0  0  0  0
  -28.0713  -31.8413   26.5421 H   0  0  0  0  0  0
  -28.2568  -38.0131   24.7539 H   0  0  0  0  0  0
  -28.1128  -36.2657   24.6232 H   0  0  0  0  0  0
  -27.2311  -37.1377   25.8854 H   0  0  0  0  0  0
  -20.9374  -29.8787   21.6878 H   0  0  0  0  0  0
  -26.0176  -38.2852   24.1421 H   0  0  0  0  0  0
  -29.4064  -17.1322   22.4607 H   0  0  0  0  0  0
  -28.5592  -19.7149   22.4472 H   0  0  0  0  0  0
  -27.1821  -21.7049   18.3142 H   0  0  0  0  0  0
  -26.5505  -20.6229   19.5528 H   0  0  0  0  0  0
  -27.5077  -19.9902   18.2206 H   0  0  0  0  0  0
  -27.6296  -23.7082   19.1740 H   0  0  0  0  0  0
  -29.3392  -23.9183   19.3198 H   0  0  0  0  0  0
  -27.7177  -22.2148   21.3212 H   0  0  0  0  0  0
  -29.4409  -22.3811   21.3036 H   0  0  0  0  0  0
  -28.8730  -25.0807   21.5917 H   0  0  0  0  0  0
  -27.1900  -25.0158   21.2323 H   0  0  0  0  0  0
  -29.4911  -21.2210   19.0449 H   0  0  0  0  0  0
  1 25  1  0  0  0
  1 30  2  0  0  0
  1 79  1  0  0  0
  2  3  1  0  0  0
  2 25  1  0  0  0
  2 90  1  0  0  0
  2 91  1  0  0  0
  3  4  1  0  0  0
  3 92  1  0  0  0
  3 93  1  0  0  0
  4  5  1  0  0  0
  4 94  1  0  0  0
  4 95  1  0  0  0
  5  6  1  0  0  0
  5 26  1  0  0  0
  5 96  1  0  0  0
  6 25  1  0  0  0
  6 97  1  0  0  0
  6 98  1  0  0  0
  7  8  2  0  0  0
  7 26  1  0  0  0
  7 29  1  0  0  0
  8  9  1  0  0  0
  8 22  1  0  0  0
  9 10  1  0  0  0
  9 27  2  0  0  0
 10 11  2  0  0  0
 10 15  1  0  0  0
 11 12  1  0  0  0
 11 99  1  0  0  0
 12 13  2  0  0  0
 12100  1  0  0  0
 13 14  1  0  0  0
 13 31  1  0  0  0
 14 15  2  0  0  0
 14101  1  0  0  0
 15102  1  0  0  0
 16 17  2  0  0  0
 16 21  1  0  0  0
 16 31  1  0  0  0
 17 18  1  0  0  0
 17103  1  0  0  0
 18 19  2  0  0  0
 18104  1  0  0  0
 19 20  1  0  0  0
 19 24  1  0  0  0
 20 21  2  0  0  0
 20105  1  0  0  0
 21 23  1  0  0  0
 22 28  1  0  0  0
 22 32  2  0  0  0
 26 27  1  0  0  0
 28106  1  0  0  0
 28107  1  0  0  0
 29108  1  0  0  0
 29109  1  0  0  0
 33 34  1  0  0  0
 33 66  1  0  0  0
 33 70  2  0  0  0
 34 36  1  0  0  0
 34 59  1  0  0  0
 34110  1  0  0  0
 35 44  2  0  0  0
 35 45  1  0  0  0
 35 68  1  0  0  0
 36 56  1  0  0  0
 36111  1  0  0  0
 37 39  1  0  0  0
 37 47  1  0  0  0
 37 66  1  0  0  0
 37112  1  0  0  0
 38 43  2  0  0  0
 38 46  1  0  0  0
 38 47  1  0  0  0
 39 64  1  0  0  0
 39 67  2  0  0  0
 40 52  1  0  0  0
 40 53  2  0  0  0
 40 58  1  0  0  0
 41113  1  0  0  0
 41114  1  0  0  0
 41115  1  0  0  0
 41 48  1  0  0  0
 42 43  1  0  0  0
 42 66  1  0  0  0
 42116  1  0  0  0
 42117  1  0  0  0
 43 44  1  0  0  0
 44118  1  0  0  0
 45 46  2  0  0  0
 45119  1  0  0  0
 46120  1  0  0  0
 47121  1  0  0  0
 47122  1  0  0  0
 48 56  1  0  0  0
 48 65  1  0  0  0
 48123  1  0  0  0
 49 50  1  0  0  0
 49 53  1  0  0  0
 49 64  1  0  0  0
 49124  1  0  0  0
 50 51  1  0  0  0
 50125  1  0  0  0
 50126  1  0  0  0
 51 52  1  0  0  0
 51127  1  0  0  0
 51128  1  0  0  0
 52129  1  0  0  0
 52130  1  0  0  0
 53 54  1  0  0  0
 54 55  2  0  0  0
 54131  1  0  0  0
 55 57  1  0  0  0
 55132  1  0  0  0
 56 69  2  0  0  0
 57 58  2  0  0  0
 57133  1  0  0  0
 58134  1  0  0  0
 59 60  1  0  0  0
 59 61  1  0  0  0
 59 62  1  0  0  0
 60135  1  0  0  0
 60136  1  0  0  0
 60137  1  0  0  0
 61138  1  0  0  0
 61139  1  0  0  0
 61140  1  0  0  0
 62141  1  0  0  0
 62142  1  0  0  0
 62143  1  0  0  0
 63 65  1  0  0  0
 63144  1  0  0  0
 63145  1  0  0  0
 63146  1  0  0  0
 64147  1  0  0  0
 65148  1  0  0  0
 68 77  1  0  0  0
 71 72  2  0  0  0
 71 73  1  0  0  0
 71149  1  0  0  0
 72 83  1  0  0  0
 72150  1  0  0  0
 73 79  1  0  0  0
 73 82  2  0  0  0
 74151  1  0  0  0
 74152  1  0  0  0
 74153  1  0  0  0
 74 78  1  0  0  0
 75 76  1  0  0  0
 75 77  1  0  0  0
 75154  1  0  0  0
 75155  1  0  0  0
 76 78  1  0  0  0
 76156  1  0  0  0
 76157  1  0  0  0
 77158  1  0  0  0
 77159  1  0  0  0
 78 83  1  0  0  0
 78160  1  0  0  0
 79 80  1  0  0  0
 79 81  1  0  0  0
 80 84  1  0  0  0
 80 85  1  0  0  0
 80 86  1  0  0  0
 81 87  1  0  0  0
 81 88  1  0  0  0
 81 89  1  0  0  0
 82 83  1  0  0  0
M  ISO  4   1 100  68 101  77 101  79 100
M  END
> <chiral flag>
0

> <version>
0

> <s_m_source_file>
/data/baiqing/PycharmProjects/Reinvent-master-3.2/result/LINK_invent/BTK/process_docking_weight1_custom_sum_contain_oxygen_bond_distance_aromatic_linkinvent_7_9_3/rearranged_h_0069.sdf

> <i_m_source_file_index>
46

> <r_mmod_Potential_Energy-OPLS-2005>
649.012451171875

> <r_mmod_Stretch_Energy-OPLS-2005>
131.889953613281

> <r_mmod_Bend_Energy-OPLS-2005>
218.505386352539

> <r_mmod_Torsional_Energy-OPLS-2005>
253.545806884766

> <r_mmod_Improper_Torsional_Energy-OPLS-2005>
17.112512588501

> <r_mmod_Van_der_Waal_Energy-OPLS-2005>
141.700927734375

> <r_mmod_Electrostatic_Energy-OPLS-2005>
-81.0077896118164

> <r_mmod_Solvation_Energy-OPLS-2005>
-179.8740234375

> <b_mmod_Minimization_Converged-OPLS-2005>
0

> <r_mmod_RMS_Derivative-OPLS-2005>
2.50485873222351

$$$$
46
                    3D
 Structure written by MMmdl.
155163  0  0  1  0            999 V2000
  -30.5698  -14.7365   20.5459 C   0  0  0  0  0  0
  -30.4301  -12.4672   19.4961 C   0  0  0  0  0  0
  -29.5149  -12.5553   18.2540 C   0  0  0  0  0  0
  -28.0399  -12.3459   18.6524 C   0  0  0  0  0  0
  -27.6357  -13.2275   19.8623 C   0  0  2  0  0  0
  -28.6654  -13.1323   21.0061 C   0  0  0  0  0  0
  -25.2455  -13.8170   20.5669 C   0  0  0  0  0  0
  -24.1740  -13.0418   20.9156 C   0  0  0  0  0  0
  -24.6326  -11.6898   20.8691 C   0  0  0  0  0  0
  -23.9012  -10.4279   21.0356 C   0  0  0  0  0  0
  -24.3584   -9.4227   21.9159 C   0  0  0  0  0  0
  -23.6285   -8.2258   22.0756 C   0  0  0  0  0  0
  -22.4279   -8.0256   21.3529 C   0  0  0  0  0  0
  -21.9885   -9.0202   20.4625 C   0  0  0  0  0  0
  -22.7185  -10.2094   20.3015 C   0  0  0  0  0  0
  -21.6864   -6.0728   22.5265 C   0  0  0  0  0  0
  -21.4038   -6.5641   23.8197 C   0  0  0  0  0  0
  -21.3662   -5.6792   24.9155 C   0  0  0  0  0  0
  -21.6040   -4.3057   24.7203 C   0  0  0  0  0  0
  -21.8818   -3.8140   23.4329 C   0  0  0  0  0  0
  -21.9190   -4.6958   22.3389 C   0  0  0  0  0  0
  -22.7776  -13.5197   21.1855 C   0  0  0  0  0  0
  -22.1658   -4.2150   21.0967 F   0  0  0  0  0  0
  -21.5607   -3.4542   25.7717 F   0  0  0  0  0  0
  -29.9717  -13.5021   20.4469 N   0  0  0  0  0  0
  -26.2857  -12.9381   20.3277 N   0  0  0  0  0  0
  -25.9255  -11.6517   20.5714 N   0  0  0  0  0  0
  -22.0469  -12.8131   22.0396 N   0  0  0  0  0  0
  -25.4161  -15.1904   20.4130 N   0  0  0  0  0  0
  -31.7443  -14.8890   20.1978 O   0  0  0  0  0  0
  -21.6634   -6.8860   21.4232 O   0  0  0  0  0  0
  -22.3432  -14.5514   20.6748 O   0  0  0  0  0  0
  -24.6310  -31.8613   23.2052 C   0  0  0  0  0  0
  -25.9180  -32.4780   23.8362 C   0  0  1  0  0  0
  -27.1955  -27.2807   20.1187 C   0  0  0  0  0  0
  -25.5985  -33.8579   24.2287 N   0  0  0  0  0  0
  -23.4208  -30.4901   21.5506 C   0  0  2  0  0  0
  -24.8626  -28.9590   20.0962 C   0  0  0  0  0  0
  -22.7534  -29.4623   22.4949 C   0  0  0  0  0  0
  -18.0296  -28.1397   22.8437 C   0  0  0  0  0  0
  -24.1486  -36.7286   23.2635 C   0  0  0  0  0  0
  -25.9620  -30.7885   21.3748 C   0  0  0  0  0  0
  -26.0357  -29.4114   20.7179 C   0  0  0  0  0  0
  -27.2016  -28.5811   20.7307 C   0  0  0  0  0  0
  -26.0151  -26.9236   19.4234 C   0  0  0  0  0  0
  -24.8589  -27.7238   19.4383 C   0  0  0  0  0  0
  -23.6335  -29.8463   20.1582 C   0  0  0  0  0  0
  -25.4115  -36.3086   24.0350 C   0  0  1  0  0  0
  -20.5898  -28.3712   23.1255 C   0  0  2  0  0  0
  -20.6791  -26.9432   22.5398 C   0  0  0  0  0  0
  -19.5748  -26.6390   21.5209 C   0  0  0  0  0  0
  -18.1922  -26.7912   22.1612 C   0  0  0  0  0  0
  -19.1557  -28.8879   23.2808 C   0  0  0  0  0  0
  -18.9493  -30.1443   23.8880 C   0  0  0  0  0  0
  -17.6496  -30.6581   24.0562 C   0  0  0  0  0  0
  -25.9094  -34.9466   23.5128 C   0  0  0  0  0  0
  -16.5384  -29.9081   23.6336 C   0  0  0  0  0  0
  -16.7298  -28.6518   23.0345 C   0  0  0  0  0  0
  -26.4520  -31.6575   25.0739 C   0  0  0  0  0  0
  -25.3689  -31.3704   26.1407 C   0  0  0  0  0  0
  -27.0377  -30.3031   24.6144 C   0  0  0  0  0  0
  -27.6104  -32.4280   25.7518 C   0  0  0  0  0  0
  -27.5592  -37.1758   24.8442 C   0  0  0  0  0  0
  -21.4251  -29.3045   22.3704 N   0  0  0  0  0  0
  -26.4257  -37.3840   23.9487 N   0  0  0  0  0  0
  -24.6919  -31.0605   22.1028 N   0  0  0  0  0  0
  -23.4240  -28.8150   23.3036 O   0  0  0  0  0  0
  -28.2593  -26.3555   20.2289 O   0  0  0  0  0  0
  -26.5634  -34.8933   22.4665 O   0  0  0  0  0  0
  -23.5478  -32.1453   23.7374 O   0  0  0  0  0  0
  -28.5372  -22.3288   20.2586 C   0  0  0  0  0  0
  -29.5594  -23.9262   21.7403 C   0  0  0  0  0  0
  -28.7415  -23.7146   20.6167 C   0  0  0  0  0  0
  -29.1164  -21.2394   21.0046 C   0  0  0  0  0  0
  -30.1062  -22.8210   22.4404 C   0  0  0  0  0  0
  -27.9974  -24.9125   19.8962 C   0  0  0  0  0  0
  -28.7377  -19.7017   20.8310 C   0  0  0  0  0  0
  -29.8273  -18.5672   20.4591 C   0  0  0  0  0  0
  -30.1022  -17.2343   21.3463 C   0  0  0  0  0  0
  -30.9522  -23.0325   23.7076 C   0  0  0  0  0  0
  -29.8817  -21.5238   22.0779 N   0  0  0  0  0  0
  -29.7659  -15.8114   20.9005 N   0  0  0  0  0  0
  -31.1334  -24.3270   23.9868 F   0  0  0  0  0  0
  -30.3478  -22.4650   24.7576 F   0  0  0  0  0  0
  -32.1532  -22.4679   23.5587 F   0  0  0  0  0  0
  -31.4762  -12.6069   19.2175 H   0  0  0  0  0  0
  -30.3706  -11.4809   19.9603 H   0  0  0  0  0  0
  -29.8186  -11.8355   17.4960 H   0  0  0  0  0  0
  -29.6175  -13.5424   17.8024 H   0  0  0  0  0  0
  -27.9016  -11.2920   18.8974 H   0  0  0  0  0  0
  -27.3856  -12.5498   17.8043 H   0  0  0  0  0  0
  -27.6363  -14.2550   19.4986 H   0  0  0  0  0  0
  -28.6964  -12.1230   21.4188 H   0  0  0  0  0  0
  -28.3845  -13.7833   21.8349 H   0  0  0  0  0  0
  -25.2736   -9.5714   22.4725 H   0  0  0  0  0  0
  -23.9983   -7.4657   22.7490 H   0  0  0  0  0  0
  -21.0829   -8.8678   19.8926 H   0  0  0  0  0  0
  -22.3628  -10.9603   19.6101 H   0  0  0  0  0  0
  -21.2085   -7.6150   23.9698 H   0  0  0  0  0  0
  -21.1481   -6.0528   25.9050 H   0  0  0  0  0  0
  -22.0608   -2.7611   23.2815 H   0  0  0  0  0  0
  -22.4127  -11.9729   22.4609 H   0  0  0  0  0  0
  -21.1098  -13.1088   22.2727 H   0  0  0  0  0  0
  -24.6507  -15.8475   20.5215 H   0  0  0  0  0  0
  -26.2653  -15.6285   20.0810 H   0  0  0  0  0  0
  -26.7236  -32.5474   23.1103 H   0  0  0  0  0  0
  -25.0205  -33.9692   25.0482 H   0  0  0  0  0  0
  -22.7156  -31.3130   21.4187 H   0  0  0  0  0  0
  -23.3812  -35.9550   23.3236 H   0  0  0  0  0  0
  -24.3612  -36.9001   22.2067 H   0  0  0  0  0  0
  -23.7155  -37.6433   23.6706 H   0  0  0  0  0  0
  -26.0754  -31.5550   20.6031 H   0  0  0  0  0  0
  -26.8472  -30.8482   21.9973 H   0  0  0  0  0  0
  -28.0834  -28.9153   21.2586 H   0  0  0  0  0  0
  -25.9429  -26.0039   18.8636 H   0  0  0  0  0  0
  -23.9706  -27.3927   18.9155 H   0  0  0  0  0  0
  -23.7435  -30.6327   19.4112 H   0  0  0  0  0  0
  -22.7537  -29.2808   19.8490 H   0  0  0  0  0  0
  -25.1246  -36.1935   25.0842 H   0  0  0  0  0  0
  -20.9931  -28.3291   24.1402 H   0  0  0  0  0  0
  -20.5771  -26.2348   23.3644 H   0  0  0  0  0  0
  -21.6653  -26.7502   22.1151 H   0  0  0  0  0  0
  -19.6969  -25.6309   21.1238 H   0  0  0  0  0  0
  -19.6667  -27.3227   20.6756 H   0  0  0  0  0  0
  -17.4221  -26.6715   21.3958 H   0  0  0  0  0  0
  -18.0233  -26.0024   22.8974 H   0  0  0  0  0  0
  -19.7987  -30.7202   24.2280 H   0  0  0  0  0  0
  -17.5085  -31.6260   24.5152 H   0  0  0  0  0  0
  -15.5373  -30.3001   23.7671 H   0  0  0  0  0  0
  -15.8686  -28.0829   22.7071 H   0  0  0  0  0  0
  -24.6051  -30.6846   25.7722 H   0  0  0  0  0  0
  -24.8621  -32.2818   26.4582 H   0  0  0  0  0  0
  -25.7919  -30.9107   27.0349 H   0  0  0  0  0  0
  -26.2938  -29.6787   24.1178 H   0  0  0  0  0  0
  -27.4173  -29.7257   25.4587 H   0  0  0  0  0  0
  -27.8752  -30.4401   23.9308 H   0  0  0  0  0  0
  -27.2863  -33.3765   26.1815 H   0  0  0  0  0  0
  -28.4050  -32.6513   25.0384 H   0  0  0  0  0  0
  -28.0594  -31.8545   26.5641 H   0  0  0  0  0  0
  -28.2434  -38.0208   24.7743 H   0  0  0  0  0  0
  -28.1215  -36.2768   24.5911 H   0  0  0  0  0  0
  -27.2342  -37.0992   25.8822 H   0  0  0  0  0  0
  -20.9539  -29.8822   21.6901 H   0  0  0  0  0  0
  -26.0122  -38.2884   24.1628 H   0  0  0  0  0  0
  -27.8731  -22.1022   19.4357 H   0  0  0  0  0  0
  -29.7354  -24.9343   22.0916 H   0  0  0  0  0  0
  -26.9578  -24.6724   20.1231 H   0  0  0  0  0  0
  -28.1245  -24.7806   18.8168 H   0  0  0  0  0  0
  -27.9867  -19.6845   20.0395 H   0  0  0  0  0  0
  -28.1799  -19.3943   21.7174 H   0  0  0  0  0  0
  -30.7712  -19.1101   20.4627 H   0  0  0  0  0  0
  -29.6928  -18.2868   19.4155 H   0  0  0  0  0  0
  -29.6804  -17.3840   22.3431 H   0  0  0  0  0  0
  -31.1774  -17.2142   21.5284 H   0  0  0  0  0  0
  -28.8153  -15.5318   21.0947 H   0  0  0  0  0  0
  1 25  1  0  0  0
  1 30  2  0  0  0
  1 82  1  0  0  0
  2  3  1  0  0  0
  2 25  1  0  0  0
  2 86  1  0  0  0
  2 87  1  0  0  0
  3  4  1  0  0  0
  3 88  1  0  0  0
  3 89  1  0  0  0
  4  5  1  0  0  0
  4 90  1  0  0  0
  4 91  1  0  0  0
  5  6  1  0  0  0
  5 26  1  0  0  0
  5 92  1  0  0  0
  6 25  1  0  0  0
  6 93  1  0  0  0
  6 94  1  0  0  0
  7  8  2  0  0  0
  7 26  1  0  0  0
  7 29  1  0  0  0
  8  9  1  0  0  0
  8 22  1  0  0  0
  9 10  1  0  0  0
  9 27  2  0  0  0
 10 11  2  0  0  0
 10 15  1  0  0  0
 11 12  1  0  0  0
 11 95  1  0  0  0
 12 13  2  0  0  0
 12 96  1  0  0  0
 13 14  1  0  0  0
 13 31  1  0  0  0
 14 15  2  0  0  0
 14 97  1  0  0  0
 15 98  1  0  0  0
 16 17  2  0  0  0
 16 21  1  0  0  0
 16 31  1  0  0  0
 17 18  1  0  0  0
 17 99  1  0  0  0
 18 19  2  0  0  0
 18100  1  0  0  0
 19 20  1  0  0  0
 19 24  1  0  0  0
 20 21  2  0  0  0
 20101  1  0  0  0
 21 23  1  0  0  0
 22 28  1  0  0  0
 22 32  2  0  0  0
 26 27  1  0  0  0
 28102  1  0  0  0
 28103  1  0  0  0
 29104  1  0  0  0
 29105  1  0  0  0
 33 34  1  0  0  0
 33 66  1  0  0  0
 33 70  2  0  0  0
 34 36  1  0  0  0
 34 59  1  0  0  0
 34106  1  0  0  0
 35 44  2  0  0  0
 35 45  1  0  0  0
 35 68  1  0  0  0
 36 56  1  0  0  0
 36107  1  0  0  0
 37 39  1  0  0  0
 37 47  1  0  0  0
 37 66  1  0  0  0
 37108  1  0  0  0
 38 43  2  0  0  0
 38 46  1  0  0  0
 38 47  1  0  0  0
 39 64  1  0  0  0
 39 67  2  0  0  0
 40 52  1  0  0  0
 40 53  2  0  0  0
 40 58  1  0  0  0
 41109  1  0  0  0
 41110  1  0  0  0
 41111  1  0  0  0
 41 48  1  0  0  0
 42 43  1  0  0  0
 42 66  1  0  0  0
 42112  1  0  0  0
 42113  1  0  0  0
 43 44  1  0  0  0
 44114  1  0  0  0
 45 46  2  0  0  0
 45115  1  0  0  0
 46116  1  0  0  0
 47117  1  0  0  0
 47118  1  0  0  0
 48 56  1  0  0  0
 48 65  1  0  0  0
 48119  1  0  0  0
 49 50  1  0  0  0
 49 53  1  0  0  0
 49 64  1  0  0  0
 49120  1  0  0  0
 50 51  1  0  0  0
 50121  1  0  0  0
 50122  1  0  0  0
 51 52  1  0  0  0
 51123  1  0  0  0
 51124  1  0  0  0
 52125  1  0  0  0
 52126  1  0  0  0
 53 54  1  0  0  0
 54 55  2  0  0  0
 54127  1  0  0  0
 55 57  1  0  0  0
 55128  1  0  0  0
 56 69  2  0  0  0
 57 58  2  0  0  0
 57129  1  0  0  0
 58130  1  0  0  0
 59 60  1  0  0  0
 59 61  1  0  0  0
 59 62  1  0  0  0
 60131  1  0  0  0
 60132  1  0  0  0
 60133  1  0  0  0
 61134  1  0  0  0
 61135  1  0  0  0
 61136  1  0  0  0
 62137  1  0  0  0
 62138  1  0  0  0
 62139  1  0  0  0
 63 65  1  0  0  0
 63140  1  0  0  0
 63141  1  0  0  0
 63142  1  0  0  0
 64143  1  0  0  0
 65144  1  0  0  0
 68 76  1  0  0  0
 71 73  2  0  0  0
 71 74  1  0  0  0
 71145  1  0  0  0
 72 73  1  0  0  0
 72 75  2  0  0  0
 72146  1  0  0  0
 73 76  1  0  0  0
 74 77  1  0  0  0
 74 81  2  0  0  0
 75 80  1  0  0  0
 75 81  1  0  0  0
 76147  1  0  0  0
 76148  1  0  0  0
 77 78  1  0  0  0
 77149  1  0  0  0
 77150  1  0  0  0
 78 79  1  0  0  0
 78151  1  0  0  0
 78152  1  0  0  0
 79 82  1  0  0  0
 79153  1  0  0  0
 79154  1  0  0  0
 80 83  1  0  0  0
 80 84  1  0  0  0
 80 85  1  0  0  0
 82155  1  0  0  0
M  ISO  4   1 100  68 101  76 101  82 100
M  END
> <chiral flag>
0

> <version>
0

> <s_m_source_file>
/data/baiqing/PycharmProjects/Reinvent-master-3.2/result/LINK_invent/BTK/process_docking_weight1_custom_sum_contain_oxygen_bond_distance_aromatic_linkinvent_7_9_3/rearranged_h_0069.sdf

> <i_m_source_file_index>
47

> <r_mmod_Potential_Energy-OPLS-2005>
126.44034576416

> <r_mmod_Stretch_Energy-OPLS-2005>
113.613975524902

> <r_mmod_Bend_Energy-OPLS-2005>
175.744277954102

> <r_mmod_Torsional_Energy-OPLS-2005>
229.868286132812

> <r_mmod_Improper_Torsional_Energy-OPLS-2005>
5.3120641708374

> <r_mmod_Van_der_Waal_Energy-OPLS-2005>
148.891723632812

> <r_mmod_Electrostatic_Energy-OPLS-2005>
-419.380920410156

> <r_mmod_Solvation_Energy-OPLS-2005>
-215.086502075195

> <b_mmod_Minimization_Converged-OPLS-2005>
0

> <r_mmod_RMS_Derivative-OPLS-2005>
5.90544843673706

$$$$
47
                    3D
 Structure written by MMmdl.
176184  0  0  1  0            999 V2000
  -29.8133  -16.5464   20.0943 C   0  0  0  0  0  0
  -30.3038  -13.7292   19.5255 C   0  0  0  0  0  0
  -29.5502  -12.9123   18.3943 C   0  0  0  0  0  0
  -28.1764  -12.3868   18.8354 C   0  0  0  0  0  0
  -27.5316  -13.4215   19.7611 C   0  0  2  0  0  0
  -28.4783  -14.1028   20.8051 C   0  0  0  0  0  0
  -25.1925  -13.8507   20.5895 C   0  0  0  0  0  0
  -24.1474  -13.0451   20.9467 C   0  0  0  0  0  0
  -24.6390  -11.7051   20.8841 C   0  0  0  0  0  0
  -23.9210  -10.4271   21.0388 C   0  0  0  0  0  0
  -24.3763   -9.4118   21.9088 C   0  0  0  0  0  0
  -23.6359   -8.2182   22.0655 C   0  0  0  0  0  0
  -22.4310   -8.0230   21.3523 C   0  0  0  0  0  0
  -22.0017   -9.0215   20.4640 C   0  0  0  0  0  0
  -22.7379  -10.2077   20.3053 C   0  0  0  0  0  0
  -21.6769   -6.0704   22.5300 C   0  0  0  0  0  0
  -21.3890   -6.5597   23.8226 C   0  0  0  0  0  0
  -21.3702   -5.6763   24.9207 C   0  0  0  0  0  0
  -21.6083   -4.3019   24.7237 C   0  0  0  0  0  0
  -21.8834   -3.8118   23.4345 C   0  0  0  0  0  0
  -21.9122   -4.6937   22.3411 C   0  0  0  0  0  0
  -22.7463  -13.5002   21.2166 C   0  0  0  0  0  0
  -22.1590   -4.2155   21.0974 F   0  0  0  0  0  0
  -21.5743   -3.4517   25.7757 F   0  0  0  0  0  0
  -29.5023  -14.9942   20.1104 N   0  0  0  0  0  0
  -26.2513  -13.0075   20.3229 N   0  0  0  0  0  0
  -25.9356  -11.7043   20.5686 N   0  0  0  0  0  0
  -22.0212  -12.7839   22.0714 N   0  0  0  0  0  0
  -25.3325  -15.2310   20.4252 N   0  0  0  0  0  0
  -31.0716  -16.3786   20.0597 O   0  0  0  0  0  0
  -21.6566   -6.8899   21.4284 O   0  0  0  0  0  0
  -22.3060  -14.5257   20.6976 O   0  0  0  0  0  0
  -24.7287  -31.7092   23.0663 C   0  0  0  0  0  0
  -25.9565  -32.4061   23.7557 C   0  0  1  0  0  0
  -27.2923  -26.0293   20.2614 C   0  0  0  0  0  0
  -25.5912  -33.7931   24.1415 N   0  0  0  0  0  0
  -23.5508  -30.2737   21.4484 C   0  0  2  0  0  0
  -24.9381  -28.4384   20.1010 C   0  0  0  0  0  0
  -22.7843  -29.3924   22.4678 C   0  0  0  0  0  0
  -18.0331  -28.1439   22.8444 C   0  0  0  0  0  0
  -24.1472  -36.6972   23.2688 C   0  0  0  0  0  0
  -26.1428  -30.2699   21.3203 C   0  0  0  0  0  0
  -26.1615  -28.7794   20.6256 C   0  0  0  0  0  0
  -27.2349  -27.6940   20.4421 C   0  0  0  0  0  0
  -25.9334  -26.0449   19.6786 C   0  0  0  0  0  0
  -24.8978  -27.1120   19.5598 C   0  0  0  0  0  0
  -23.7709  -29.4755   20.1155 C   0  0  0  0  0  0
  -25.4147  -36.2632   24.0244 C   0  0  1  0  0  0
  -20.5947  -28.3793   23.1111 C   0  0  2  0  0  0
  -20.6789  -26.9446   22.5501 C   0  0  0  0  0  0
  -19.5809  -26.6338   21.5269 C   0  0  0  0  0  0
  -18.1924  -26.7946   22.1620 C   0  0  0  0  0  0
  -19.1599  -28.8952   23.2703 C   0  0  0  0  0  0
  -18.9554  -30.1503   23.8759 C   0  0  0  0  0  0
  -17.6566  -30.6635   24.0513 C   0  0  0  0  0  0
  -25.9158  -34.9087   23.4728 C   0  0  0  0  0  0
  -16.5416  -29.9116   23.6387 C   0  0  0  0  0  0
  -16.7325  -28.6537   23.0384 C   0  0  0  0  0  0
  -26.4493  -31.6468   25.0519 C   0  0  0  0  0  0
  -25.3465  -31.3928   26.1098 C   0  0  0  0  0  0
  -27.0458  -30.2820   24.6781 C   0  0  0  0  0  0
  -27.5773  -32.4578   25.7353 C   0  0  0  0  0  0
  -27.5528  -37.1608   24.8462 C   0  0  0  0  0  0
  -21.4483  -29.2829   22.3402 N   0  0  0  0  0  0
  -26.4185  -37.3516   23.9436 N   0  0  0  0  0  0
  -24.8493  -30.7954   22.0078 N   0  0  0  0  0  0
  -23.4098  -28.7753   23.3334 O   0  0  0  0  0  0
  -28.7595  -24.5276   21.4376 O   0  0  0  0  0  0
  -26.5956  -34.8843   22.4472 O   0  0  0  0  0  0
  -23.6274  -32.0489   23.5378 O   0  0  0  0  0  0
  -29.1738  -24.6160   19.4091 C   0  0  0  0  0  0
  -28.0701  -23.0944   19.9767 C   0  0  0  0  0  0
  -28.5608  -26.4424   22.1471 C   0  0  0  0  0  0
  -27.0300  -25.1884   22.3784 C   0  0  0  0  0  0
  -28.5088  -27.0073   25.6673 C   0  0  0  0  0  0
  -28.6994  -21.1447   18.2462 C   0  0  0  0  0  0
  -30.2972  -21.1375   20.1267 C   0  0  0  0  0  0
  -27.5258  -18.2611   20.7046 C   0  0  0  0  0  0
  -28.4872  -18.1291   18.4328 C   0  0  0  0  0  0
  -28.8279  -27.6654   23.0638 C   0  0  0  0  0  0
  -26.2584  -25.1281   23.6385 C   0  0  0  0  0  0
  -29.4000  -27.5127   24.5160 C   0  0  0  0  0  0
  -27.0859  -24.2025   24.5650 C   0  0  0  0  0  0
  -28.6078  -23.9940   24.1743 C   0  0  0  0  0  0
  -29.0527  -23.6560   22.6942 C   0  0  0  0  0  0
  -28.8100  -20.9698   19.7671 C   0  0  0  0  0  0
  -28.8251  -18.5467   19.9156 C   0  0  0  0  0  0
  -29.5772  -26.1621   20.5078 N   0  0  0  0  0  0
  -26.8465  -23.7040   21.2158 N   0  0  0  0  0  0
  -31.2523  -14.0536   19.1054 H   0  0  0  0  0  0
  -30.6340  -13.0524   20.3175 H   0  0  0  0  0  0
  -30.1724  -12.1192   17.9795 H   0  0  0  0  0  0
  -29.3827  -13.5995   17.5627 H   0  0  0  0  0  0
  -28.2700  -11.4377   19.3607 H   0  0  0  0  0  0
  -27.5408  -12.2032   17.9583 H   0  0  0  0  0  0
  -27.2713  -14.2123   19.0547 H   0  0  0  0  0  0
  -28.9300  -13.3711   21.4797 H   0  0  0  0  0  0
  -27.8903  -14.7624   21.4370 H   0  0  0  0  0  0
  -25.3020   -9.5374   22.4524 H   0  0  0  0  0  0
  -24.0033   -7.4502   22.7302 H   0  0  0  0  0  0
  -21.0969   -8.8712   19.8955 H   0  0  0  0  0  0
  -22.3887  -10.9510   19.6059 H   0  0  0  0  0  0
  -21.1753   -7.6081   23.9752 H   0  0  0  0  0  0
  -21.1560   -6.0473   25.9144 H   0  0  0  0  0  0
  -22.0572   -2.7560   23.2842 H   0  0  0  0  0  0
  -22.3905  -11.9464   22.4963 H   0  0  0  0  0  0
  -21.0775  -13.0624   22.3124 H   0  0  0  0  0  0
  -24.5481  -15.8748   20.4882 H   0  0  0  0  0  0
  -26.1729  -15.6628   20.0611 H   0  0  0  0  0  0
  -26.7735  -32.4452   23.0326 H   0  0  0  0  0  0
  -24.9815  -33.8835   24.9405 H   0  0  0  0  0  0
  -22.9138  -31.1250   21.2074 H   0  0  0  0  0  0
  -23.3793  -35.9236   23.3188 H   0  0  0  0  0  0
  -24.3526  -36.8819   22.2122 H   0  0  0  0  0  0
  -23.7157  -37.6065   23.6936 H   0  0  0  0  0  0
  -26.4215  -30.9933   20.5539 H   0  0  0  0  0  0
  -26.9581  -30.2934   22.0253 H   0  0  0  0  0  0
  -28.1669  -28.1909   20.6595 H   0  0  0  0  0  0
  -25.5516  -25.0802   19.3651 H   0  0  0  0  0  0
  -23.9589  -26.8226   19.0949 H   0  0  0  0  0  0
  -23.9830  -30.1850   19.3143 H   0  0  0  0  0  0
  -22.8400  -28.9697   19.8332 H   0  0  0  0  0  0
  -25.1384  -36.1272   25.0738 H   0  0  0  0  0  0
  -20.9971  -28.3497   24.1249 H   0  0  0  0  0  0
  -20.5567  -26.2478   23.3775 H   0  0  0  0  0  0
  -21.6642  -26.7317   22.1347 H   0  0  0  0  0  0
  -19.6967  -25.6181   21.1382 H   0  0  0  0  0  0
  -19.6749  -27.3061   20.6689 H   0  0  0  0  0  0
  -17.4225  -26.6649   21.3968 H   0  0  0  0  0  0
  -18.0306  -26.0082   22.9023 H   0  0  0  0  0  0
  -19.8039  -30.7313   24.2035 H   0  0  0  0  0  0
  -17.5158  -31.6306   24.5128 H   0  0  0  0  0  0
  -15.5421  -30.3016   23.7791 H   0  0  0  0  0  0
  -15.8690  -28.0818   22.7223 H   0  0  0  0  0  0
  -24.5610  -30.7305   25.7436 H   0  0  0  0  0  0
  -24.8726  -32.3182   26.4395 H   0  0  0  0  0  0
  -25.7604  -30.9198   26.9996 H   0  0  0  0  0  0
  -26.3161  -29.6057   24.2307 H   0  0  0  0  0  0
  -27.4141  -29.7847   25.5721 H   0  0  0  0  0  0
  -27.8968  -30.3889   24.0089 H   0  0  0  0  0  0
  -27.2070  -33.3872   26.1703 H   0  0  0  0  0  0
  -28.3639  -32.7228   25.0284 H   0  0  0  0  0  0
  -28.0401  -31.8997   26.5468 H   0  0  0  0  0  0
  -28.2431  -38.0011   24.7569 H   0  0  0  0  0  0
  -28.1124  -36.2524   24.6185 H   0  0  0  0  0  0
  -27.2281  -37.1108   25.8878 H   0  0  0  0  0  0
  -20.9978  -29.8331   21.6201 H   0  0  0  0  0  0
  -25.9934  -38.2513   24.1591 H   0  0  0  0  0  0
  -29.8807  -24.4265   18.6227 H   0  0  0  0  0  0
  -29.0358  -26.3146   26.3310 H   0  0  0  0  0  0
  -27.6472  -26.5067   25.2778 H   0  0  0  0  0  0
  -28.0951  -27.7803   26.3117 H   0  0  0  0  0  0
  -29.2643  -22.0388   17.9696 H   0  0  0  0  0  0
  -27.6553  -21.3576   17.9577 H   0  0  0  0  0  0
  -29.1286  -20.3505   17.6415 H   0  0  0  0  0  0
  -30.5158  -20.7747   21.1290 H   0  0  0  0  0  0
  -30.6117  -22.1752   20.1036 H   0  0  0  0  0  0
  -30.9196  -20.5932   19.4127 H   0  0  0  0  0  0
  -26.6724  -18.7407   20.2343 H   0  0  0  0  0  0
  -27.5493  -18.6131   21.7290 H   0  0  0  0  0  0
  -27.2973  -17.1973   20.7410 H   0  0  0  0  0  0
  -29.3555  -18.1307   17.7594 H   0  0  0  0  0  0
  -27.7437  -18.7821   17.9986 H   0  0  0  0  0  0
  -28.0257  -17.1312   18.3328 H   0  0  0  0  0  0
  -27.8931  -28.2288   23.0935 H   0  0  0  0  0  0
  -29.5453  -28.2995   22.5332 H   0  0  0  0  0  0
  -25.2839  -24.6893   23.4424 H   0  0  0  0  0  0
  -26.0749  -26.1557   23.9588 H   0  0  0  0  0  0
  -30.3386  -26.9606   24.5314 H   0  0  0  0  0  0
  -29.6807  -28.5150   24.8454 H   0  0  0  0  0  0
  -26.5817  -23.2338   24.5785 H   0  0  0  0  0  0
  -26.9959  -24.5111   25.6119 H   0  0  0  0  0  0
  -28.9085  -23.1202   24.7590 H   0  0  0  0  0  0
  -29.2606  -24.7698   24.5678 H   0  0  0  0  0  0
  -28.7403  -22.6326   22.5020 H   0  0  0  0  0  0
  -30.1417  -23.5907   22.7125 H   0  0  0  0  0  0
  1 25  1  0  0  0
  1 30  2  0  0  0
  1 87  1  0  0  0
  2  3  1  0  0  0
  2 25  1  0  0  0
  2 90  1  0  0  0
  2 91  1  0  0  0
  3  4  1  0  0  0
  3 92  1  0  0  0
  3 93  1  0  0  0
  4  5  1  0  0  0
  4 94  1  0  0  0
  4 95  1  0  0  0
  5  6  1  0  0  0
  5 26  1  0  0  0
  5 96  1  0  0  0
  6 25  1  0  0  0
  6 97  1  0  0  0
  6 98  1  0  0  0
  7  8  2  0  0  0
  7 26  1  0  0  0
  7 29  1  0  0  0
  8  9  1  0  0  0
  8 22  1  0  0  0
  9 10  1  0  0  0
  9 27  2  0  0  0
 10 11  2  0  0  0
 10 15  1  0  0  0
 11 12  1  0  0  0
 11 99  1  0  0  0
 12 13  2  0  0  0
 12100  1  0  0  0
 13 14  1  0  0  0
 13 31  1  0  0  0
 14 15  2  0  0  0
 14101  1  0  0  0
 15102  1  0  0  0
 16 17  2  0  0  0
 16 21  1  0  0  0
 16 31  1  0  0  0
 17 18  1  0  0  0
 17103  1  0  0  0
 18 19  2  0  0  0
 18104  1  0  0  0
 19 20  1  0  0  0
 19 24  1  0  0  0
 20 21  2  0  0  0
 20105  1  0  0  0
 21 23  1  0  0  0
 22 28  1  0  0  0
 22 32  2  0  0  0
 26 27  1  0  0  0
 28106  1  0  0  0
 28107  1  0  0  0
 29108  1  0  0  0
 29109  1  0  0  0
 33 34  1  0  0  0
 33 66  1  0  0  0
 33 70  2  0  0  0
 34 36  1  0  0  0
 34 59  1  0  0  0
 34110  1  0  0  0
 35 44  2  0  0  0
 35 45  1  0  0  0
 35 68  1  0  0  0
 36 56  1  0  0  0
 36111  1  0  0  0
 37 39  1  0  0  0
 37 47  1  0  0  0
 37 66  1  0  0  0
 37112  1  0  0  0
 38 43  2  0  0  0
 38 46  1  0  0  0
 38 47  1  0  0  0
 39 64  1  0  0  0
 39 67  2  0  0  0
 40 52  1  0  0  0
 40 53  2  0  0  0
 40 58  1  0  0  0
 41113  1  0  0  0
 41114  1  0  0  0
 41115  1  0  0  0
 41 48  1  0  0  0
 42 43  1  0  0  0
 42 66  1  0  0  0
 42116  1  0  0  0
 42117  1  0  0  0
 43 44  1  0  0  0
 44118  1  0  0  0
 45 46  2  0  0  0
 45119  1  0  0  0
 46120  1  0  0  0
 47121  1  0  0  0
 47122  1  0  0  0
 48 56  1  0  0  0
 48 65  1  0  0  0
 48123  1  0  0  0
 49 50  1  0  0  0
 49 53  1  0  0  0
 49 64  1  0  0  0
 49124  1  0  0  0
 50 51  1  0  0  0
 50125  1  0  0  0
 50126  1  0  0  0
 51 52  1  0  0  0
 51127  1  0  0  0
 51128  1  0  0  0
 52129  1  0  0  0
 52130  1  0  0  0
 53 54  1  0  0  0
 54 55  2  0  0  0
 54131  1  0  0  0
 55 57  1  0  0  0
 55132  1  0  0  0
 56 69  2  0  0  0
 57 58  2  0  0  0
 57133  1  0  0  0
 58134  1  0  0  0
 59 60  1  0  0  0
 59 61  1  0  0  0
 59 62  1  0  0  0
 60135  1  0  0  0
 60136  1  0  0  0
 60137  1  0  0  0
 61138  1  0  0  0
 61139  1  0  0  0
 61140  1  0  0  0
 62141  1  0  0  0
 62142  1  0  0  0
 62143  1  0  0  0
 63 65  1  0  0  0
 63144  1  0  0  0
 63145  1  0  0  0
 63146  1  0  0  0
 64147  1  0  0  0
 65148  1  0  0  0
 68 85  1  0  0  0
 71 72  2  0  0  0
 71 88  1  0  0  0
 71149  1  0  0  0
 72 86  1  0  0  0
 72 89  1  0  0  0
 73 74  1  0  0  0
 73 80  1  0  0  0
 73 88  2  0  0  0
 74 81  1  0  0  0
 74 89  2  0  0  0
 75 82  1  0  0  0
 75150  1  0  0  0
 75151  1  0  0  0
 75152  1  0  0  0
 76153  1  0  0  0
 76154  1  0  0  0
 76155  1  0  0  0
 76 86  1  0  0  0
 77 86  1  0  0  0
 77156  1  0  0  0
 77157  1  0  0  0
 77158  1  0  0  0
 78159  1  0  0  0
 78160  1  0  0  0
 78161  1  0  0  0
 78 87  1  0  0  0
 79 87  1  0  0  0
 79162  1  0  0  0
 79163  1  0  0  0
 79164  1  0  0  0
 80 82  1  0  0  0
 80165  1  0  0  0
 80166  1  0  0  0
 81 83  1  0  0  0
 81167  1  0  0  0
 81168  1  0  0  0
 82169  1  0  0  0
 82170  1  0  0  0
 83 84  1  0  0  0
 83171  1  0  0  0
 83172  1  0  0  0
 84 85  1  0  0  0
 84173  1  0  0  0
 84174  1  0  0  0
 85175  1  0  0  0
 85176  1  0  0  0
 86 87  1  0  0  0
M  ISO  4   1 100  68 101  85 101  87 100
M  END
> <chiral flag>
0

> <version>
0

> <s_m_source_file>
/data/baiqing/PycharmProjects/Reinvent-master-3.2/result/LINK_invent/BTK/process_docking_weight1_custom_sum_contain_oxygen_bond_distance_aromatic_linkinvent_7_9_3/rearranged_h_0069.sdf

> <i_m_source_file_index>
48

> <r_mmod_Potential_Energy-OPLS-2005>
15826.41015625

> <r_mmod_Stretch_Energy-OPLS-2005>
8834.41796875

> <r_mmod_Bend_Energy-OPLS-2005>
1310.42663574219

> <r_mmod_Torsional_Energy-OPLS-2005>
410.975982666016

> <r_mmod_Improper_Torsional_Energy-OPLS-2005>
24.7240600585938

> <r_mmod_Van_der_Waal_Energy-OPLS-2005>
2615.23803710938

> <r_mmod_Electrostatic_Energy-OPLS-2005>
-228.71533203125

> <r_mmod_Solvation_Energy-OPLS-2005>
-210.845626831055

> <b_mmod_Minimization_Converged-OPLS-2005>
0

> <r_mmod_RMS_Derivative-OPLS-2005>
23.1992988586426

$$$$
48
                    3D
 Structure written by MMmdl.
163171  0  0  1  0            999 V2000
  -30.7142  -14.5479   20.4803 C   0  0  0  0  0  0
  -30.4231  -12.3289   19.4471 C   0  0  0  0  0  0
  -29.4981  -12.4466   18.2182 C   0  0  0  0  0  0
  -28.0214  -12.3141   18.6424 C   0  0  0  0  0  0
  -27.6457  -13.2071   19.8565 C   0  0  2  0  0  0
  -28.6992  -13.1064   20.9837 C   0  0  0  0  0  0
  -25.2558  -13.8130   20.5738 C   0  0  0  0  0  0
  -24.1796  -13.0415   20.9232 C   0  0  0  0  0  0
  -24.6357  -11.6882   20.8794 C   0  0  0  0  0  0
  -23.9039  -10.4272   21.0441 C   0  0  0  0  0  0
  -24.3570   -9.4176   21.9226 C   0  0  0  0  0  0
  -23.6263   -8.2196   22.0769 C   0  0  0  0  0  0
  -22.4262   -8.0230   21.3537 C   0  0  0  0  0  0
  -21.9885   -9.0220   20.4653 C   0  0  0  0  0  0
  -22.7214  -10.2109   20.3087 C   0  0  0  0  0  0
  -21.6826   -6.0691   22.5282 C   0  0  0  0  0  0
  -21.3973   -6.5602   23.8203 C   0  0  0  0  0  0
  -21.3686   -5.6776   24.9184 C   0  0  0  0  0  0
  -21.6069   -4.3042   24.7247 C   0  0  0  0  0  0
  -21.8807   -3.8114   23.4373 C   0  0  0  0  0  0
  -21.9172   -4.6920   22.3409 C   0  0  0  0  0  0
  -22.7826  -13.5213   21.1880 C   0  0  0  0  0  0
  -22.1654   -4.2095   21.0992 F   0  0  0  0  0  0
  -21.5685   -3.4533   25.7772 F   0  0  0  0  0  0
  -30.0218  -13.3762   20.4005 N   0  0  0  0  0  0
  -26.2963  -12.9285   20.3360 N   0  0  0  0  0  0
  -25.9282  -11.6448   20.5805 N   0  0  0  0  0  0
  -22.0444  -12.8221   22.0438 N   0  0  0  0  0  0
  -25.4326  -15.1837   20.4157 N   0  0  0  0  0  0
  -31.9137  -14.6208   20.1984 O   0  0  0  0  0  0
  -21.6622   -6.8839   21.4242 O   0  0  0  0  0  0
  -22.3522  -14.5514   20.6709 O   0  0  0  0  0  0
  -24.6161  -31.8657   23.2064 C   0  0  0  0  0  0
  -25.9056  -32.4799   23.8367 C   0  0  1  0  0  0
  -27.2370  -27.4092   20.1008 C   0  0  0  0  0  0
  -25.5898  -33.8598   24.2305 N   0  0  0  0  0  0
  -23.4040  -30.4881   21.5472 C   0  0  2  0  0  0
  -24.8514  -28.9487   20.1120 C   0  0  0  0  0  0
  -22.7417  -29.4644   22.4971 C   0  0  0  0  0  0
  -18.0275  -28.1372   22.8498 C   0  0  0  0  0  0
  -24.1491  -36.7313   23.2638 C   0  0  0  0  0  0
  -25.9344  -30.8242   21.3601 C   0  0  0  0  0  0
  -26.0094  -29.4538   20.7127 C   0  0  0  0  0  0
  -27.2011  -28.6898   20.7087 C   0  0  0  0  0  0
  -26.0531  -26.9195   19.5041 C   0  0  0  0  0  0
  -24.8681  -27.6813   19.5069 C   0  0  0  0  0  0
  -23.6118  -29.8166   20.1621 C   0  0  0  0  0  0
  -25.4110  -36.3094   24.0337 C   0  0  1  0  0  0
  -20.5872  -28.3659   23.1320 C   0  0  2  0  0  0
  -20.6760  -26.9390   22.5424 C   0  0  0  0  0  0
  -19.5731  -26.6384   21.5219 C   0  0  0  0  0  0
  -18.1913  -26.7927   22.1632 C   0  0  0  0  0  0
  -19.1527  -28.8834   23.2910 C   0  0  0  0  0  0
  -18.9450  -30.1442   23.8916 C   0  0  0  0  0  0
  -17.6446  -30.6580   24.0567 C   0  0  0  0  0  0
  -25.9035  -34.9459   23.5126 C   0  0  0  0  0  0
  -16.5340  -29.9076   23.6318 C   0  0  0  0  0  0
  -16.7265  -28.6495   23.0343 C   0  0  0  0  0  0
  -26.4479  -31.6582   25.0706 C   0  0  0  0  0  0
  -25.3749  -31.3688   26.1461 C   0  0  0  0  0  0
  -27.0292  -30.3022   24.6066 C   0  0  0  0  0  0
  -27.6062  -32.4295   25.7459 C   0  0  0  0  0  0
  -27.5578  -37.1801   24.8460 C   0  0  0  0  0  0
  -21.4141  -29.3029   22.3725 N   0  0  0  0  0  0
  -26.4290  -37.3784   23.9402 N   0  0  0  0  0  0
  -24.6704  -31.0739   22.0965 N   0  0  0  0  0  0
  -23.4196  -28.8186   23.3009 O   0  0  0  0  0  0
  -28.4192  -26.6859   20.1343 O   0  0  0  0  0  0
  -26.5593  -34.8924   22.4677 O   0  0  0  0  0  0
  -23.5356  -32.1402   23.7467 O   0  0  0  0  0  0
  -29.7572  -21.0137   19.9992 C   0  0  0  0  0  0
  -29.8476  -19.6442   20.3472 C   0  0  0  0  0  0
  -29.2935  -21.9260   20.9700 C   0  0  0  0  0  0
  -29.4732  -19.2505   21.6556 C   0  0  0  0  0  0
  -28.2227  -17.1731   22.4121 C   0  0  0  0  0  0
  -30.2700  -17.8987   23.6265 C   0  0  0  0  0  0
  -29.4377  -16.2128   19.3536 C   0  0  0  0  0  0
  -29.3882  -23.4496   20.7488 C   0  0  0  0  0  0
  -28.2164  -24.1348   19.9879 C   0  0  0  0  0  0
  -30.5801  -16.8312   21.3976 C   0  0  0  0  0  0
  -28.5809  -25.5031   19.3261 C   0  0  0  0  0  0
  -29.6207  -17.7927   22.2224 C   0  0  0  0  0  0
  -28.8655  -21.4869   22.1807 N   0  0  0  0  0  0
  -28.9437  -20.1836   22.5040 N   0  0  0  0  0  0
  -29.9906  -15.7005   20.6188 N   0  0  0  0  0  0
  -31.4687  -12.4171   19.1424 H   0  0  0  0  0  0
  -30.3283  -11.3444   19.9093 H   0  0  0  0  0  0
  -29.7419  -11.6713   17.4902 H   0  0  0  0  0  0
  -29.6622  -13.3975   17.7118 H   0  0  0  0  0  0
  -27.8587  -11.2694   18.9040 H   0  0  0  0  0  0
  -27.3622  -12.5231   17.8006 H   0  0  0  0  0  0
  -27.6357  -14.2293   19.4882 H   0  0  0  0  0  0
  -28.6916  -12.1133   21.4346 H   0  0  0  0  0  0
  -28.4726  -13.8129   21.7838 H   0  0  0  0  0  0
  -25.2697   -9.5629   22.4830 H   0  0  0  0  0  0
  -23.9954   -7.4569   22.7467 H   0  0  0  0  0  0
  -21.0825   -8.8734   19.8945 H   0  0  0  0  0  0
  -22.3668  -10.9654   19.6200 H   0  0  0  0  0  0
  -21.1897   -7.6102   23.9675 H   0  0  0  0  0  0
  -21.1578   -6.0528   25.9090 H   0  0  0  0  0  0
  -22.0557   -2.7574   23.2894 H   0  0  0  0  0  0
  -22.3980  -11.9868   22.4872 H   0  0  0  0  0  0
  -21.1074  -13.1276   22.2635 H   0  0  0  0  0  0
  -24.6762  -15.8495   20.5286 H   0  0  0  0  0  0
  -26.2982  -15.6126   20.1178 H   0  0  0  0  0  0
  -26.7126  -32.5505   23.1123 H   0  0  0  0  0  0
  -25.0051  -33.9742   25.0456 H   0  0  0  0  0  0
  -22.6928  -31.3055   21.4059 H   0  0  0  0  0  0
  -23.3736  -35.9658   23.3305 H   0  0  0  0  0  0
  -24.3597  -36.8923   22.2050 H   0  0  0  0  0  0
  -23.7265  -37.6534   23.6646 H   0  0  0  0  0  0
  -26.0454  -31.5832   20.5841 H   0  0  0  0  0  0
  -26.8260  -30.8842   21.9750 H   0  0  0  0  0  0
  -28.0945  -29.0773   21.1782 H   0  0  0  0  0  0
  -26.0152  -25.9418   19.0482 H   0  0  0  0  0  0
  -23.9752  -27.2805   19.0483 H   0  0  0  0  0  0
  -23.7165  -30.5887   19.3988 H   0  0  0  0  0  0
  -22.7368  -29.2327   19.8697 H   0  0  0  0  0  0
  -25.1287  -36.1952   25.0831 H   0  0  0  0  0  0
  -20.9974  -28.3220   24.1439 H   0  0  0  0  0  0
  -20.5662  -26.2254   23.3610 H   0  0  0  0  0  0
  -21.6628  -26.7423   22.1215 H   0  0  0  0  0  0
  -19.6888  -25.6302   21.1227 H   0  0  0  0  0  0
  -19.6681  -27.3214   20.6763 H   0  0  0  0  0  0
  -17.4191  -26.6684   21.4031 H   0  0  0  0  0  0
  -18.0309  -26.0069   22.9023 H   0  0  0  0  0  0
  -19.7923  -30.7255   24.2310 H   0  0  0  0  0  0
  -17.4997  -31.6274   24.5146 H   0  0  0  0  0  0
  -15.5338  -30.2977   23.7648 H   0  0  0  0  0  0
  -15.8667  -28.0825   22.7040 H   0  0  0  0  0  0
  -24.5937  -30.7012   25.7806 H   0  0  0  0  0  0
  -24.8925  -32.2843   26.4900 H   0  0  0  0  0  0
  -25.8134  -30.8878   27.0215 H   0  0  0  0  0  0
  -26.2811  -29.6787   24.1162 H   0  0  0  0  0  0
  -27.4104  -29.7263   25.4506 H   0  0  0  0  0  0
  -27.8632  -30.4335   23.9169 H   0  0  0  0  0  0
  -27.2692  -33.3581   26.2071 H   0  0  0  0  0  0
  -28.3858  -32.6876   25.0282 H   0  0  0  0  0  0
  -28.0740  -31.8396   26.5345 H   0  0  0  0  0  0
  -28.2602  -38.0091   24.7503 H   0  0  0  0  0  0
  -28.1076  -36.2628   24.6295 H   0  0  0  0  0  0
  -27.2303  -37.1466   25.8866 H   0  0  0  0  0  0
  -20.9296  -29.8745   21.6955 H   0  0  0  0  0  0
  -26.0179  -38.2862   24.1407 H   0  0  0  0  0  0
  -30.0832  -21.3617   19.0305 H   0  0  0  0  0  0
  -30.2269  -18.9436   19.6225 H   0  0  0  0  0  0
  -27.6210  -17.7594   23.1052 H   0  0  0  0  0  0
  -28.2804  -16.1618   22.8158 H   0  0  0  0  0  0
  -27.6672  -17.1359   21.4789 H   0  0  0  0  0  0
  -29.6807  -18.5014   24.3174 H   0  0  0  0  0  0
  -31.2614  -18.3478   23.5705 H   0  0  0  0  0  0
  -30.3783  -16.9206   24.0990 H   0  0  0  0  0  0
  -29.2356  -15.4315   18.6223 H   0  0  0  0  0  0
  -28.5042  -16.7502   19.5067 H   0  0  0  0  0  0
  -30.1380  -16.8866   18.8611 H   0  0  0  0  0  0
  -30.3136  -23.6134   20.1953 H   0  0  0  0  0  0
  -29.5325  -23.9479   21.7096 H   0  0  0  0  0  0
  -27.3252  -24.2165   20.6107 H   0  0  0  0  0  0
  -27.9438  -23.4660   19.1700 H   0  0  0  0  0  0
  -31.2602  -16.3612   22.1084 H   0  0  0  0  0  0
  -31.2787  -17.4013   20.7835 H   0  0  0  0  0  0
  -28.0562  -25.6150   18.3780 H   0  0  0  0  0  0
  -29.6306  -25.4770   19.0315 H   0  0  0  0  0  0
  1 25  1  0  0  0
  1 30  2  0  0  0
  1 85  1  0  0  0
  2  3  1  0  0  0
  2 25  1  0  0  0
  2 86  1  0  0  0
  2 87  1  0  0  0
  3  4  1  0  0  0
  3 88  1  0  0  0
  3 89  1  0  0  0
  4  5  1  0  0  0
  4 90  1  0  0  0
  4 91  1  0  0  0
  5  6  1  0  0  0
  5 26  1  0  0  0
  5 92  1  0  0  0
  6 25  1  0  0  0
  6 93  1  0  0  0
  6 94  1  0  0  0
  7  8  2  0  0  0
  7 26  1  0  0  0
  7 29  1  0  0  0
  8  9  1  0  0  0
  8 22  1  0  0  0
  9 10  1  0  0  0
  9 27  2  0  0  0
 10 11  2  0  0  0
 10 15  1  0  0  0
 11 12  1  0  0  0
 11 95  1  0  0  0
 12 13  2  0  0  0
 12 96  1  0  0  0
 13 14  1  0  0  0
 13 31  1  0  0  0
 14 15  2  0  0  0
 14 97  1  0  0  0
 15 98  1  0  0  0
 16 17  2  0  0  0
 16 21  1  0  0  0
 16 31  1  0  0  0
 17 18  1  0  0  0
 17 99  1  0  0  0
 18 19  2  0  0  0
 18100  1  0  0  0
 19 20  1  0  0  0
 19 24  1  0  0  0
 20 21  2  0  0  0
 20101  1  0  0  0
 21 23  1  0  0  0
 22 28  1  0  0  0
 22 32  2  0  0  0
 26 27  1  0  0  0
 28102  1  0  0  0
 28103  1  0  0  0
 29104  1  0  0  0
 29105  1  0  0  0
 33 34  1  0  0  0
 33 66  1  0  0  0
 33 70  2  0  0  0
 34 36  1  0  0  0
 34 59  1  0  0  0
 34106  1  0  0  0
 35 44  2  0  0  0
 35 45  1  0  0  0
 35 68  1  0  0  0
 36 56  1  0  0  0
 36107  1  0  0  0
 37 39  1  0  0  0
 37 47  1  0  0  0
 37 66  1  0  0  0
 37108  1  0  0  0
 38 43  2  0  0  0
 38 46  1  0  0  0
 38 47  1  0  0  0
 39 64  1  0  0  0
 39 67  2  0  0  0
 40 52  1  0  0  0
 40 53  2  0  0  0
 40 58  1  0  0  0
 41109  1  0  0  0
 41110  1  0  0  0
 41111  1  0  0  0
 41 48  1  0  0  0
 42 43  1  0  0  0
 42 66  1  0  0  0
 42112  1  0  0  0
 42113  1  0  0  0
 43 44  1  0  0  0
 44114  1  0  0  0
 45 46  2  0  0  0
 45115  1  0  0  0
 46116  1  0  0  0
 47117  1  0  0  0
 47118  1  0  0  0
 48 56  1  0  0  0
 48 65  1  0  0  0
 48119  1  0  0  0
 49 50  1  0  0  0
 49 53  1  0  0  0
 49 64  1  0  0  0
 49120  1  0  0  0
 50 51  1  0  0  0
 50121  1  0  0  0
 50122  1  0  0  0
 51 52  1  0  0  0
 51123  1  0  0  0
 51124  1  0  0  0
 52125  1  0  0  0
 52126  1  0  0  0
 53 54  1  0  0  0
 54 55  2  0  0  0
 54127  1  0  0  0
 55 57  1  0  0  0
 55128  1  0  0  0
 56 69  2  0  0  0
 57 58  2  0  0  0
 57129  1  0  0  0
 58130  1  0  0  0
 59 60  1  0  0  0
 59 61  1  0  0  0
 59 62  1  0  0  0
 60131  1  0  0  0
 60132  1  0  0  0
 60133  1  0  0  0
 61134  1  0  0  0
 61135  1  0  0  0
 61136  1  0  0  0
 62137  1  0  0  0
 62138  1  0  0  0
 62139  1  0  0  0
 63 65  1  0  0  0
 63140  1  0  0  0
 63141  1  0  0  0
 63142  1  0  0  0
 64143  1  0  0  0
 65144  1  0  0  0
 68 81  1  0  0  0
 71 72  2  0  0  0
 71 73  1  0  0  0
 71145  1  0  0  0
 72 74  1  0  0  0
 72146  1  0  0  0
 73 78  1  0  0  0
 73 83  2  0  0  0
 74 82  1  0  0  0
 74 84  2  0  0  0
 75147  1  0  0  0
 75148  1  0  0  0
 75149  1  0  0  0
 75 82  1  0  0  0
 76 82  1  0  0  0
 76150  1  0  0  0
 76151  1  0  0  0
 76152  1  0  0  0
 77 85  1  0  0  0
 77153  1  0  0  0
 77154  1  0  0  0
 77155  1  0  0  0
 78 79  1  0  0  0
 78156  1  0  0  0
 78157  1  0  0  0
 79 81  1  0  0  0
 79158  1  0  0  0
 79159  1  0  0  0
 80 82  1  0  0  0
 80 85  1  0  0  0
 80160  1  0  0  0
 80161  1  0  0  0
 81162  1  0  0  0
 81163  1  0  0  0
 83 84  1  0  0  0
M  ISO  4   1 100  68 101  81 101  85 100
M  END
> <chiral flag>
0

> <version>
0

> <s_m_source_file>
/data/baiqing/PycharmProjects/Reinvent-master-3.2/result/LINK_invent/BTK/process_docking_weight1_custom_sum_contain_oxygen_bond_distance_aromatic_linkinvent_7_9_3/rearranged_h_0069.sdf

> <i_m_source_file_index>
49

> <r_mmod_Potential_Energy-OPLS-2005>
166.374237060547

> <r_mmod_Stretch_Energy-OPLS-2005>
56.5587120056152

> <r_mmod_Bend_Energy-OPLS-2005>
142.531799316406

> <r_mmod_Torsional_Energy-OPLS-2005>
295.491027832031

> <r_mmod_Improper_Torsional_Energy-OPLS-2005>
10.9625463485718

> <r_mmod_Van_der_Waal_Energy-OPLS-2005>
162.403106689453

> <r_mmod_Electrostatic_Energy-OPLS-2005>
-315.881195068359

> <r_mmod_Solvation_Energy-OPLS-2005>
-215.272552490234

> <b_mmod_Minimization_Converged-OPLS-2005>
0

> <r_mmod_RMS_Derivative-OPLS-2005>
3.29529762268066

$$$$
49
                    3D
 Structure written by MMmdl.
163171  0  0  1  0            999 V2000
  -30.7612  -14.4650   20.6792 C   0  0  0  0  0  0
  -30.4141  -12.3389   19.4333 C   0  0  0  0  0  0
  -29.4927  -12.5220   18.2114 C   0  0  0  0  0  0
  -28.0191  -12.3459   18.6161 C   0  0  0  0  0  0
  -27.6556  -13.1964   19.8565 C   0  0  2  0  0  0
  -28.6925  -13.0031   20.9844 C   0  0  0  0  0  0
  -25.2569  -13.8123   20.5589 C   0  0  0  0  0  0
  -24.1838  -13.0424   20.9177 C   0  0  0  0  0  0
  -24.6390  -11.6886   20.8748 C   0  0  0  0  0  0
  -23.9062  -10.4282   21.0422 C   0  0  0  0  0  0
  -24.3623   -9.4203   21.9197 C   0  0  0  0  0  0
  -23.6304   -8.2237   22.0760 C   0  0  0  0  0  0
  -22.4293   -8.0270   21.3542 C   0  0  0  0  0  0
  -21.9921   -9.0246   20.4653 C   0  0  0  0  0  0
  -22.7238  -10.2131   20.3066 C   0  0  0  0  0  0
  -21.6864   -6.0735   22.5282 C   0  0  0  0  0  0
  -21.4015   -6.5646   23.8216 C   0  0  0  0  0  0
  -21.3661   -5.6801   24.9179 C   0  0  0  0  0  0
  -21.6045   -4.3065   24.7234 C   0  0  0  0  0  0
  -21.8821   -3.8150   23.4358 C   0  0  0  0  0  0
  -21.9203   -4.6961   22.3414 C   0  0  0  0  0  0
  -22.7862  -13.5227   21.1862 C   0  0  0  0  0  0
  -22.1672   -4.2140   21.0991 F   0  0  0  0  0  0
  -21.5628   -3.4556   25.7748 F   0  0  0  0  0  0
  -30.0299  -13.3249   20.4660 N   0  0  0  0  0  0
  -26.2985  -12.9270   20.3243 N   0  0  0  0  0  0
  -25.9305  -11.6451   20.5741 N   0  0  0  0  0  0
  -22.0514  -12.8217   22.0424 N   0  0  0  0  0  0
  -25.4263  -15.1821   20.3863 N   0  0  0  0  0  0
  -31.7905  -14.6445   20.0191 O   0  0  0  0  0  0
  -21.6650   -6.8873   21.4241 O   0  0  0  0  0  0
  -22.3544  -14.5538   20.6723 O   0  0  0  0  0  0
  -24.6139  -31.8677   23.2086 C   0  0  0  0  0  0
  -25.9030  -32.4821   23.8389 C   0  0  1  0  0  0
  -27.2383  -27.4355   20.0998 C   0  0  0  0  0  0
  -25.5889  -33.8616   24.2320 N   0  0  0  0  0  0
  -23.4025  -30.4887   21.5499 C   0  0  2  0  0  0
  -24.8503  -28.9498   20.1179 C   0  0  0  0  0  0
  -22.7403  -29.4649   22.4992 C   0  0  0  0  0  0
  -18.0268  -28.1375   22.8498 C   0  0  0  0  0  0
  -24.1487  -36.7322   23.2643 C   0  0  0  0  0  0
  -25.9304  -30.8338   21.3601 C   0  0  0  0  0  0
  -26.0105  -29.4677   20.7079 C   0  0  0  0  0  0
  -27.2101  -28.7197   20.6901 C   0  0  0  0  0  0
  -26.0626  -26.9272   19.5095 C   0  0  0  0  0  0
  -24.8707  -27.6786   19.5159 C   0  0  0  0  0  0
  -23.6112  -29.8158   20.1666 C   0  0  0  0  0  0
  -25.4108  -36.3109   24.0335 C   0  0  1  0  0  0
  -20.5859  -28.3660   23.1324 C   0  0  2  0  0  0
  -20.6756  -26.9398   22.5420 C   0  0  0  0  0  0
  -19.5735  -26.6383   21.5215 C   0  0  0  0  0  0
  -18.1913  -26.7925   22.1628 C   0  0  0  0  0  0
  -19.1520  -28.8833   23.2909 C   0  0  0  0  0  0
  -18.9449  -30.1440   23.8916 C   0  0  0  0  0  0
  -17.6449  -30.6584   24.0562 C   0  0  0  0  0  0
  -25.9030  -34.9475   23.5126 C   0  0  0  0  0  0
  -16.5338  -29.9086   23.6323 C   0  0  0  0  0  0
  -16.7254  -28.6498   23.0347 C   0  0  0  0  0  0
  -26.4467  -31.6603   25.0720 C   0  0  0  0  0  0
  -25.3737  -31.3688   26.1468 C   0  0  0  0  0  0
  -27.0313  -30.3053   24.6095 C   0  0  0  0  0  0
  -27.6029  -32.4336   25.7485 C   0  0  0  0  0  0
  -27.5583  -37.1811   24.8463 C   0  0  0  0  0  0
  -21.4128  -29.3030   22.3731 N   0  0  0  0  0  0
  -26.4295  -37.3793   23.9408 N   0  0  0  0  0  0
  -24.6672  -31.0773   22.0985 N   0  0  0  0  0  0
  -23.4170  -28.8195   23.3040 O   0  0  0  0  0  0
  -28.4043  -26.7020   20.0817 O   0  0  0  0  0  0
  -26.5599  -34.8925   22.4691 O   0  0  0  0  0  0
  -23.5330  -32.1416   23.7484 O   0  0  0  0  0  0
  -29.1650  -19.4692   19.0402 C   0  0  0  0  0  0
  -29.1921  -18.1256   19.4685 C   0  0  0  0  0  0
  -29.2291  -20.1241   21.3500 C   0  0  0  0  0  0
  -29.1506  -20.5126   19.9897 C   0  0  0  0  0  0
  -29.2194  -17.8397   20.8472 C   0  0  0  0  0  0
  -27.9544  -16.3597   22.4293 C   0  0  0  0  0  0
  -30.3928  -14.9553   23.1682 C   0  0  0  0  0  0
  -31.6072  -16.5757   21.8193 C   0  0  0  0  0  0
  -28.6521  -24.2359   19.7545 C   0  0  0  0  0  0
  -28.3492  -25.4114   20.7159 C   0  0  0  0  0  0
  -28.8133  -22.8720   20.4758 C   0  0  0  0  0  0
  -29.0782  -16.3856   21.3632 C   0  0  2  0  0  0
  -30.4048  -15.5836   21.7434 C   0  0  0  0  0  0
  -29.2750  -18.8350   21.7658 N   0  0  0  0  0  0
  -29.0588  -21.8203   19.5332 O   0  0  0  0  0  0
  -31.4581  -12.4221   19.1292 H   0  0  0  0  0  0
  -30.3159  -11.3287   19.8345 H   0  0  0  0  0  0
  -29.7541  -11.8045   17.4332 H   0  0  0  0  0  0
  -29.6429  -13.5136   17.7804 H   0  0  0  0  0  0
  -27.8546  -11.2891   18.8293 H   0  0  0  0  0  0
  -27.3629  -12.5954   17.7814 H   0  0  0  0  0  0
  -27.6848  -14.2312   19.5252 H   0  0  0  0  0  0
  -28.6784  -11.9733   21.3438 H   0  0  0  0  0  0
  -28.4003  -13.6024   21.8303 H   0  0  0  0  0  0
  -25.2769   -9.5693   22.4767 H   0  0  0  0  0  0
  -24.0019   -7.4642   22.7487 H   0  0  0  0  0  0
  -21.0847   -8.8776   19.8962 H   0  0  0  0  0  0
  -22.3698  -10.9681   19.6184 H   0  0  0  0  0  0
  -21.2001   -7.6156   23.9711 H   0  0  0  0  0  0
  -21.1480   -6.0533   25.9079 H   0  0  0  0  0  0
  -22.0599   -2.7610   23.2865 H   0  0  0  0  0  0
  -22.4149  -11.9875   22.4790 H   0  0  0  0  0  0
  -21.1143  -13.1243   22.2670 H   0  0  0  0  0  0
  -24.6555  -15.8339   20.4785 H   0  0  0  0  0  0
  -26.2659  -15.6133   20.0242 H   0  0  0  0  0  0
  -26.7103  -32.5533   23.1159 H   0  0  0  0  0  0
  -25.0010  -33.9775   25.0444 H   0  0  0  0  0  0
  -22.6913  -31.3051   21.4088 H   0  0  0  0  0  0
  -23.3742  -35.9662   23.3305 H   0  0  0  0  0  0
  -24.3571  -36.8943   22.2057 H   0  0  0  0  0  0
  -23.7248  -37.6528   23.6663 H   0  0  0  0  0  0
  -26.0413  -31.5997   20.5913 H   0  0  0  0  0  0
  -26.8184  -30.8889   21.9781 H   0  0  0  0  0  0
  -28.1093  -29.1182   21.1388 H   0  0  0  0  0  0
  -26.0710  -25.9537   19.0405 H   0  0  0  0  0  0
  -23.9787  -27.2735   19.0578 H   0  0  0  0  0  0
  -23.7145  -30.5872   19.4033 H   0  0  0  0  0  0
  -22.7358  -29.2326   19.8759 H   0  0  0  0  0  0
  -25.1283  -36.1974   25.0828 H   0  0  0  0  0  0
  -20.9950  -28.3230   24.1445 H   0  0  0  0  0  0
  -20.5656  -26.2265   23.3603 H   0  0  0  0  0  0
  -21.6626  -26.7435   22.1217 H   0  0  0  0  0  0
  -19.6891  -25.6299   21.1226 H   0  0  0  0  0  0
  -19.6669  -27.3199   20.6748 H   0  0  0  0  0  0
  -17.4182  -26.6675   21.4029 H   0  0  0  0  0  0
  -18.0307  -26.0061   22.9016 H   0  0  0  0  0  0
  -19.7924  -30.7252   24.2292 H   0  0  0  0  0  0
  -17.5005  -31.6266   24.5163 H   0  0  0  0  0  0
  -15.5338  -30.2990   23.7640 H   0  0  0  0  0  0
  -15.8654  -28.0818   22.7055 H   0  0  0  0  0  0
  -24.5908  -30.7045   25.7798 H   0  0  0  0  0  0
  -24.8930  -32.2832   26.4951 H   0  0  0  0  0  0
  -25.8100  -30.8829   27.0207 H   0  0  0  0  0  0
  -26.2862  -29.6795   24.1172 H   0  0  0  0  0  0
  -27.4121  -29.7305   25.4550 H   0  0  0  0  0  0
  -27.8675  -30.4382   23.9223 H   0  0  0  0  0  0
  -27.2636  -33.3624   26.2085 H   0  0  0  0  0  0
  -28.3827  -32.6924   25.0310 H   0  0  0  0  0  0
  -28.0719  -31.8457   26.5388 H   0  0  0  0  0  0
  -28.2595  -38.0116   24.7521 H   0  0  0  0  0  0
  -28.1088  -36.2645   24.6280 H   0  0  0  0  0  0
  -27.2295  -37.1447   25.8865 H   0  0  0  0  0  0
  -20.9284  -29.8760   21.6965 H   0  0  0  0  0  0
  -26.0186  -38.2872   24.1409 H   0  0  0  0  0  0
  -29.1199  -19.6968   17.9848 H   0  0  0  0  0  0
  -29.1572  -17.3296   18.7375 H   0  0  0  0  0  0
  -29.2394  -20.8568   22.1425 H   0  0  0  0  0  0
  -27.0652  -16.8691   22.0572 H   0  0  0  0  0  0
  -28.2590  -16.8777   23.3391 H   0  0  0  0  0  0
  -27.6363  -15.3616   22.7143 H   0  0  0  0  0  0
  -30.3461  -15.7270   23.9371 H   0  0  0  0  0  0
  -31.3037  -14.3844   23.3522 H   0  0  0  0  0  0
  -29.5685  -14.2798   23.3711 H   0  0  0  0  0  0
  -31.4441  -17.3509   22.5686 H   0  0  0  0  0  0
  -31.7929  -17.0794   20.8699 H   0  0  0  0  0  0
  -32.5346  -16.0702   22.0953 H   0  0  0  0  0  0
  -29.5672  -24.4539   19.2034 H   0  0  0  0  0  0
  -27.8561  -24.1654   19.0127 H   0  0  0  0  0  0
  -29.1009  -25.4210   21.5063 H   0  0  0  0  0  0
  -27.3959  -25.2425   21.2208 H   0  0  0  0  0  0
  -27.9079  -22.6512   21.0440 H   0  0  0  0  0  0
  -29.6431  -22.9347   21.1817 H   0  0  0  0  0  0
  -28.6445  -15.8737   20.5096 H   0  0  0  0  0  0
  1 25  1  0  0  0
  1 30  2  0  0  0
  1 83  1  0  0  0
  2  3  1  0  0  0
  2 25  1  0  0  0
  2 86  1  0  0  0
  2 87  1  0  0  0
  3  4  1  0  0  0
  3 88  1  0  0  0
  3 89  1  0  0  0
  4  5  1  0  0  0
  4 90  1  0  0  0
  4 91  1  0  0  0
  5  6  1  0  0  0
  5 26  1  0  0  0
  5 92  1  0  0  0
  6 25  1  0  0  0
  6 93  1  0  0  0
  6 94  1  0  0  0
  7  8  2  0  0  0
  7 26  1  0  0  0
  7 29  1  0  0  0
  8  9  1  0  0  0
  8 22  1  0  0  0
  9 10  1  0  0  0
  9 27  2  0  0  0
 10 11  2  0  0  0
 10 15  1  0  0  0
 11 12  1  0  0  0
 11 95  1  0  0  0
 12 13  2  0  0  0
 12 96  1  0  0  0
 13 14  1  0  0  0
 13 31  1  0  0  0
 14 15  2  0  0  0
 14 97  1  0  0  0
 15 98  1  0  0  0
 16 17  2  0  0  0
 16 21  1  0  0  0
 16 31  1  0  0  0
 17 18  1  0  0  0
 17 99  1  0  0  0
 18 19  2  0  0  0
 18100  1  0  0  0
 19 20  1  0  0  0
 19 24  1  0  0  0
 20 21  2  0  0  0
 20101  1  0  0  0
 21 23  1  0  0  0
 22 28  1  0  0  0
 22 32  2  0  0  0
 26 27  1  0  0  0
 28102  1  0  0  0
 28103  1  0  0  0
 29104  1  0  0  0
 29105  1  0  0  0
 33 34  1  0  0  0
 33 66  1  0  0  0
 33 70  2  0  0  0
 34 36  1  0  0  0
 34 59  1  0  0  0
 34106  1  0  0  0
 35 44  2  0  0  0
 35 45  1  0  0  0
 35 68  1  0  0  0
 36 56  1  0  0  0
 36107  1  0  0  0
 37 39  1  0  0  0
 37 47  1  0  0  0
 37 66  1  0  0  0
 37108  1  0  0  0
 38 43  2  0  0  0
 38 46  1  0  0  0
 38 47  1  0  0  0
 39 64  1  0  0  0
 39 67  2  0  0  0
 40 52  1  0  0  0
 40 53  2  0  0  0
 40 58  1  0  0  0
 41109  1  0  0  0
 41110  1  0  0  0
 41111  1  0  0  0
 41 48  1  0  0  0
 42 43  1  0  0  0
 42 66  1  0  0  0
 42112  1  0  0  0
 42113  1  0  0  0
 43 44  1  0  0  0
 44114  1  0  0  0
 45 46  2  0  0  0
 45115  1  0  0  0
 46116  1  0  0  0
 47117  1  0  0  0
 47118  1  0  0  0
 48 56  1  0  0  0
 48 65  1  0  0  0
 48119  1  0  0  0
 49 50  1  0  0  0
 49 53  1  0  0  0
 49 64  1  0  0  0
 49120  1  0  0  0
 50 51  1  0  0  0
 50121  1  0  0  0
 50122  1  0  0  0
 51 52  1  0  0  0
 51123  1  0  0  0
 51124  1  0  0  0
 52125  1  0  0  0
 52126  1  0  0  0
 53 54  1  0  0  0
 54 55  2  0  0  0
 54127  1  0  0  0
 55 57  1  0  0  0
 55128  1  0  0  0
 56 69  2  0  0  0
 57 58  2  0  0  0
 57129  1  0  0  0
 58130  1  0  0  0
 59 60  1  0  0  0
 59 61  1  0  0  0
 59 62  1  0  0  0
 60131  1  0  0  0
 60132  1  0  0  0
 60133  1  0  0  0
 61134  1  0  0  0
 61135  1  0  0  0
 61136  1  0  0  0
 62137  1  0  0  0
 62138  1  0  0  0
 62139  1  0  0  0
 63 65  1  0  0  0
 63140  1  0  0  0
 63141  1  0  0  0
 63142  1  0  0  0
 64143  1  0  0  0
 65144  1  0  0  0
 68 80  1  0  0  0
 71 72  2  0  0  0
 71 74  1  0  0  0
 71145  1  0  0  0
 72 75  1  0  0  0
 72146  1  0  0  0
 73 74  2  0  0  0
 73 84  1  0  0  0
 73147  1  0  0  0
 74 85  1  0  0  0
 75 82  1  0  0  0
 75 84  2  0  0  0
 76148  1  0  0  0
 76149  1  0  0  0
 76150  1  0  0  0
 76 82  1  0  0  0
 77151  1  0  0  0
 77152  1  0  0  0
 77153  1  0  0  0
 77 83  1  0  0  0
 78 83  1  0  0  0
 78154  1  0  0  0
 78155  1  0  0  0
 78156  1  0  0  0
 79 80  1  0  0  0
 79 81  1  0  0  0
 79157  1  0  0  0
 79158  1  0  0  0
 80159  1  0  0  0
 80160  1  0  0  0
 81 85  1  0  0  0
 81161  1  0  0  0
 81162  1  0  0  0
 82 83  1  0  0  0
 82163  1  0  0  0
M  ISO  4   1 100  68 101  80 101  83 100
M  END
> <chiral flag>
0

> <version>
0

> <s_m_source_file>
/data/baiqing/PycharmProjects/Reinvent-master-3.2/result/LINK_invent/BTK/process_docking_weight1_custom_sum_contain_oxygen_bond_distance_aromatic_linkinvent_7_9_3/rearranged_h_0069.sdf

> <i_m_source_file_index>
50

> <r_mmod_Potential_Energy-OPLS-2005>
-70.842041015625

> <r_mmod_Stretch_Energy-OPLS-2005>
52.0535736083984

> <r_mmod_Bend_Energy-OPLS-2005>
126.838645935059

> <r_mmod_Torsional_Energy-OPLS-2005>
203.41438293457

> <r_mmod_Improper_Torsional_Energy-OPLS-2005>
2.04090404510498

> <r_mmod_Van_der_Waal_Energy-OPLS-2005>
167.122985839844

> <r_mmod_Electrostatic_Energy-OPLS-2005>
-441.015838623047

> <r_mmod_Solvation_Energy-OPLS-2005>
-193.543273925781

> <b_mmod_Minimization_Converged-OPLS-2005>
0

> <r_mmod_RMS_Derivative-OPLS-2005>
1.10990285873413

$$$$
50
                    3D
 Structure written by MMmdl.
161169  0  0  1  0            999 V2000
  -30.4688  -15.1751   20.4670 C   0  0  0  0  0  0
  -30.4460  -12.7517   19.5246 C   0  0  0  0  0  0
  -29.5368  -12.5951   18.2771 C   0  0  0  0  0  0
  -28.0744  -12.3272   18.6804 C   0  0  0  0  0  0
  -27.6241  -13.2565   19.8339 C   0  0  2  0  0  0
  -28.6621  -13.2912   20.9697 C   0  0  0  0  0  0
  -25.2417  -13.8200   20.5662 C   0  0  0  0  0  0
  -24.1754  -13.0421   20.9213 C   0  0  0  0  0  0
  -24.6388  -11.6913   20.8731 C   0  0  0  0  0  0
  -23.9067  -10.4285   21.0378 C   0  0  0  0  0  0
  -24.3623   -9.4204   21.9161 C   0  0  0  0  0  0
  -23.6301   -8.2236   22.0742 C   0  0  0  0  0  0
  -22.4273   -8.0274   21.3543 C   0  0  0  0  0  0
  -21.9908   -9.0242   20.4646 C   0  0  0  0  0  0
  -22.7233  -10.2121   20.3042 C   0  0  0  0  0  0
  -21.6859   -6.0726   22.5277 C   0  0  0  0  0  0
  -21.4022   -6.5633   23.8215 C   0  0  0  0  0  0
  -21.3659   -5.6789   24.9178 C   0  0  0  0  0  0
  -21.6038   -4.3046   24.7223 C   0  0  0  0  0  0
  -21.8818   -3.8137   23.4349 C   0  0  0  0  0  0
  -21.9195   -4.6956   22.3404 C   0  0  0  0  0  0
  -22.7777  -13.5198   21.1888 C   0  0  0  0  0  0
  -22.1658   -4.2146   21.0981 F   0  0  0  0  0  0
  -21.5628   -3.4525   25.7732 F   0  0  0  0  0  0
  -29.9092  -13.8581   20.4081 N   0  0  0  0  0  0
  -26.2857  -12.9442   20.3188 N   0  0  0  0  0  0
  -25.9323  -11.6573   20.5692 N   0  0  0  0  0  0
  -22.0441  -12.8200   22.0462 N   0  0  0  0  0  0
  -25.4007  -15.1932   20.4053 N   0  0  0  0  0  0
  -31.6300  -15.1762   20.0275 O   0  0  0  0  0  0
  -21.6645   -6.8866   21.4239 O   0  0  0  0  0  0
  -22.3457  -14.5498   20.6721 O   0  0  0  0  0  0
  -24.6549  -31.8317   23.1760 C   0  0  0  0  0  0
  -25.9265  -32.4630   23.8203 C   0  0  1  0  0  0
  -27.2297  -27.0125   20.1710 C   0  0  0  0  0  0
  -25.5965  -33.8443   24.2117 N   0  0  0  0  0  0
  -23.4658  -30.4443   21.5239 C   0  0  2  0  0  0
  -24.9191  -28.8427   20.1149 C   0  0  0  0  0  0
  -22.7626  -29.4485   22.4817 C   0  0  0  0  0  0
  -18.0316  -28.1405   22.8469 C   0  0  0  0  0  0
  -24.1493  -36.7228   23.2642 C   0  0  0  0  0  0
  -26.0294  -30.6656   21.3923 C   0  0  0  0  0  0
  -26.1008  -29.2629   20.7368 C   0  0  0  0  0  0
  -27.2535  -28.3680   20.7388 C   0  0  0  0  0  0
  -26.0147  -26.7185   19.5115 C   0  0  0  0  0  0
  -24.8958  -27.5873   19.4848 C   0  0  0  0  0  0
  -23.7011  -29.7615   20.1491 C   0  0  0  0  0  0
  -25.4128  -36.2992   24.0304 C   0  0  1  0  0  0
  -20.5938  -28.3743   23.1204 C   0  0  2  0  0  0
  -20.6795  -26.9433   22.5405 C   0  0  0  0  0  0
  -19.5773  -26.6376   21.5212 C   0  0  0  0  0  0
  -18.1954  -26.7936   22.1623 C   0  0  0  0  0  0
  -19.1576  -28.8893   23.2826 C   0  0  0  0  0  0
  -18.9487  -30.1479   23.8858 C   0  0  0  0  0  0
  -17.6480  -30.6593   24.0551 C   0  0  0  0  0  0
  -25.9088  -34.9371   23.5027 C   0  0  0  0  0  0
  -16.5374  -29.9083   23.6338 C   0  0  0  0  0  0
  -16.7301  -28.6502   23.0356 C   0  0  0  0  0  0
  -26.4548  -31.6546   25.0699 C   0  0  0  0  0  0
  -25.3698  -31.3786   26.1378 C   0  0  0  0  0  0
  -27.0419  -30.2914   24.6376 C   0  0  0  0  0  0
  -27.6061  -32.4338   25.7491 C   0  0  0  0  0  0
  -27.5577  -37.1759   24.8460 C   0  0  0  0  0  0
  -21.4306  -29.3043   22.3562 N   0  0  0  0  0  0
  -26.4280  -37.3719   23.9415 N   0  0  0  0  0  0
  -24.7375  -31.0050   22.0857 N   0  0  0  0  0  0
  -23.4211  -28.8053   23.3031 O   0  0  0  0  0  0
  -28.2732  -25.9744   20.2264 O   0  0  0  0  0  0
  -26.5691  -34.8893   22.4619 O   0  0  0  0  0  0
  -23.5640  -32.1256   23.6900 O   0  0  0  0  0  0
  -30.1839  -20.4763   19.6330 C   0  0  0  0  0  0
  -29.2127  -21.3672   20.2607 C   0  0  0  0  0  0
  -28.4018  -20.4597   21.0329 C   0  0  0  0  0  0
  -29.5306  -18.2844   20.5206 C   0  0  0  0  0  0
  -27.2722  -21.0197   21.8715 C   0  0  0  0  0  0
  -30.1771  -23.4888   19.0568 C   0  0  0  0  0  0
  -30.0511  -23.4476   21.5330 C   0  0  0  0  0  0
  -28.6674  -16.3249   22.0156 C   0  0  0  0  0  0
  -31.0039  -17.0259   22.1563 C   0  0  0  0  0  0
  -28.0606  -24.3703   20.1813 C   0  0  0  0  0  0
  -29.2753  -23.1029   20.2488 C   0  0  0  0  0  0
  -29.8838  -16.6930   21.1398 C   0  0  0  0  0  0
  -30.3459  -19.0753   19.7675 N   0  0  0  0  0  0
  -28.5758  -19.0620   21.1398 N   0  0  0  0  0  0
  -31.4681  -12.9417   19.1982 H   0  0  0  0  0  0
  -30.5086  -11.8084   20.0699 H   0  0  0  0  0  0
  -29.9064  -11.7935   17.6360 H   0  0  0  0  0  0
  -29.5861  -13.5080   17.6836 H   0  0  0  0  0  0
  -28.0034  -11.2861   18.9982 H   0  0  0  0  0  0
  -27.4128  -12.4315   17.8183 H   0  0  0  0  0  0
  -27.5759  -14.2585   19.4072 H   0  0  0  0  0  0
  -28.8237  -12.2856   21.3619 H   0  0  0  0  0  0
  -28.2634  -13.8296   21.8172 H   0  0  0  0  0  0
  -25.2758   -9.5692   22.4742 H   0  0  0  0  0  0
  -24.0010   -7.4628   22.7470 H   0  0  0  0  0  0
  -21.0826   -8.8753   19.8966 H   0  0  0  0  0  0
  -22.3670  -10.9651   19.6155 H   0  0  0  0  0  0
  -21.2018   -7.6142   23.9718 H   0  0  0  0  0  0
  -21.1484   -6.0516   25.9082 H   0  0  0  0  0  0
  -22.0598   -2.7601   23.2845 H   0  0  0  0  0  0
  -22.4065  -11.9881   22.4869 H   0  0  0  0  0  0
  -21.1066  -13.1233   22.2681 H   0  0  0  0  0  0
  -24.6315  -15.8435   20.5239 H   0  0  0  0  0  0
  -26.2480  -15.6388   20.0799 H   0  0  0  0  0  0
  -26.7334  -32.5191   23.0925 H   0  0  0  0  0  0
  -25.0063  -33.9539   25.0233 H   0  0  0  0  0  0
  -22.7746  -31.2733   21.3578 H   0  0  0  0  0  0
  -23.3762  -35.9550   23.3276 H   0  0  0  0  0  0
  -24.3575  -36.8898   22.2063 H   0  0  0  0  0  0
  -23.7242  -37.6408   23.6709 H   0  0  0  0  0  0
  -26.1984  -31.4116   20.6146 H   0  0  0  0  0  0
  -26.8935  -30.7212   22.0426 H   0  0  0  0  0  0
  -28.1534  -28.6900   21.2435 H   0  0  0  0  0  0
  -25.9028  -25.7601   19.0263 H   0  0  0  0  0  0
  -23.9953  -27.2587   18.9843 H   0  0  0  0  0  0
  -23.8501  -30.5315   19.3910 H   0  0  0  0  0  0
  -22.8124  -29.2117   19.8348 H   0  0  0  0  0  0
  -25.1322  -36.1792   25.0792 H   0  0  0  0  0  0
  -21.0027  -28.3338   24.1327 H   0  0  0  0  0  0
  -20.5673  -26.2359   23.3637 H   0  0  0  0  0  0
  -21.6657  -26.7415   22.1209 H   0  0  0  0  0  0
  -19.6930  -25.6275   21.1270 H   0  0  0  0  0  0
  -19.6709  -27.3159   20.6720 H   0  0  0  0  0  0
  -17.4222  -26.6675   21.4027 H   0  0  0  0  0  0
  -18.0354  -26.0089   22.9031 H   0  0  0  0  0  0
  -19.7961  -30.7302   24.2213 H   0  0  0  0  0  0
  -17.5034  -31.6269   24.5166 H   0  0  0  0  0  0
  -15.5370  -30.2971   23.7681 H   0  0  0  0  0  0
  -15.8702  -28.0804   22.7095 H   0  0  0  0  0  0
  -24.5886  -30.7126   25.7701 H   0  0  0  0  0  0
  -24.8880  -32.2981   26.4703 H   0  0  0  0  0  0
  -25.7950  -30.9026   27.0220 H   0  0  0  0  0  0
  -26.3054  -29.6612   24.1378 H   0  0  0  0  0  0
  -27.3966  -29.7261   25.5003 H   0  0  0  0  0  0
  -27.8995  -30.4105   23.9754 H   0  0  0  0  0  0
  -27.2646  -33.3680   26.1961 H   0  0  0  0  0  0
  -28.3924  -32.6831   25.0355 H   0  0  0  0  0  0
  -28.0666  -31.8531   26.5493 H   0  0  0  0  0  0
  -28.2567  -38.0082   24.7524 H   0  0  0  0  0  0
  -28.1101  -36.2609   24.6259 H   0  0  0  0  0  0
  -27.2299  -37.1366   25.8864 H   0  0  0  0  0  0
  -20.9548  -29.8732   21.6701 H   0  0  0  0  0  0
  -26.0133  -38.2774   24.1442 H   0  0  0  0  0  0
  -30.9545  -20.9120   19.0167 H   0  0  0  0  0  0
  -26.4014  -21.2169   21.2478 H   0  0  0  0  0  0
  -27.5644  -21.9550   22.3460 H   0  0  0  0  0  0
  -26.9806  -20.3263   22.6604 H   0  0  0  0  0  0
  -31.1966  -23.1162   19.1635 H   0  0  0  0  0  0
  -30.2609  -24.5724   18.9495 H   0  0  0  0  0  0
  -29.7722  -23.1073   18.1185 H   0  0  0  0  0  0
  -30.9836  -22.8863   21.6081 H   0  0  0  0  0  0
  -29.4659  -23.2225   22.4243 H   0  0  0  0  0  0
  -30.3051  -24.5076   21.5773 H   0  0  0  0  0  0
  -28.3502  -17.1383   22.6652 H   0  0  0  0  0  0
  -28.9113  -15.5285   22.7135 H   0  0  0  0  0  0
  -27.8106  -16.0499   21.4048 H   0  0  0  0  0  0
  -30.6817  -17.7838   22.8713 H   0  0  0  0  0  0
  -31.8824  -17.4221   21.6456 H   0  0  0  0  0  0
  -31.3224  -16.1534   22.7276 H   0  0  0  0  0  0
  -27.3632  -24.1672   20.9944 H   0  0  0  0  0  0
  -27.4861  -24.1786   19.2758 H   0  0  0  0  0  0
  1 25  1  0  0  0
  1 30  2  0  0  0
  1 82  1  0  0  0
  2  3  1  0  0  0
  2 25  1  0  0  0
  2 85  1  0  0  0
  2 86  1  0  0  0
  3  4  1  0  0  0
  3 87  1  0  0  0
  3 88  1  0  0  0
  4  5  1  0  0  0
  4 89  1  0  0  0
  4 90  1  0  0  0
  5  6  1  0  0  0
  5 26  1  0  0  0
  5 91  1  0  0  0
  6 25  1  0  0  0
  6 92  1  0  0  0
  6 93  1  0  0  0
  7  8  2  0  0  0
  7 26  1  0  0  0
  7 29  1  0  0  0
  8  9  1  0  0  0
  8 22  1  0  0  0
  9 10  1  0  0  0
  9 27  2  0  0  0
 10 11  2  0  0  0
 10 15  1  0  0  0
 11 12  1  0  0  0
 11 94  1  0  0  0
 12 13  2  0  0  0
 12 95  1  0  0  0
 13 14  1  0  0  0
 13 31  1  0  0  0
 14 15  2  0  0  0
 14 96  1  0  0  0
 15 97  1  0  0  0
 16 17  2  0  0  0
 16 21  1  0  0  0
 16 31  1  0  0  0
 17 18  1  0  0  0
 17 98  1  0  0  0
 18 19  2  0  0  0
 18 99  1  0  0  0
 19 20  1  0  0  0
 19 24  1  0  0  0
 20 21  2  0  0  0
 20100  1  0  0  0
 21 23  1  0  0  0
 22 28  1  0  0  0
 22 32  2  0  0  0
 26 27  1  0  0  0
 28101  1  0  0  0
 28102  1  0  0  0
 29103  1  0  0  0
 29104  1  0  0  0
 33 34  1  0  0  0
 33 66  1  0  0  0
 33 70  2  0  0  0
 34 36  1  0  0  0
 34 59  1  0  0  0
 34105  1  0  0  0
 35 44  2  0  0  0
 35 45  1  0  0  0
 35 68  1  0  0  0
 36 56  1  0  0  0
 36106  1  0  0  0
 37 39  1  0  0  0
 37 47  1  0  0  0
 37 66  1  0  0  0
 37107  1  0  0  0
 38 43  2  0  0  0
 38 46  1  0  0  0
 38 47  1  0  0  0
 39 64  1  0  0  0
 39 67  2  0  0  0
 40 52  1  0  0  0
 40 53  2  0  0  0
 40 58  1  0  0  0
 41108  1  0  0  0
 41109  1  0  0  0
 41110  1  0  0  0
 41 48  1  0  0  0
 42 43  1  0  0  0
 42 66  1  0  0  0
 42111  1  0  0  0
 42112  1  0  0  0
 43 44  1  0  0  0
 44113  1  0  0  0
 45 46  2  0  0  0
 45114  1  0  0  0
 46115  1  0  0  0
 47116  1  0  0  0
 47117  1  0  0  0
 48 56  1  0  0  0
 48 65  1  0  0  0
 48118  1  0  0  0
 49 50  1  0  0  0
 49 53  1  0  0  0
 49 64  1  0  0  0
 49119  1  0  0  0
 50 51  1  0  0  0
 50120  1  0  0  0
 50121  1  0  0  0
 51 52  1  0  0  0
 51122  1  0  0  0
 51123  1  0  0  0
 52124  1  0  0  0
 52125  1  0  0  0
 53 54  1  0  0  0
 54 55  2  0  0  0
 54126  1  0  0  0
 55 57  1  0  0  0
 55127  1  0  0  0
 56 69  2  0  0  0
 57 58  2  0  0  0
 57128  1  0  0  0
 58129  1  0  0  0
 59 60  1  0  0  0
 59 61  1  0  0  0
 59 62  1  0  0  0
 60130  1  0  0  0
 60131  1  0  0  0
 60132  1  0  0  0
 61133  1  0  0  0
 61134  1  0  0  0
 61135  1  0  0  0
 62136  1  0  0  0
 62137  1  0  0  0
 62138  1  0  0  0
 63 65  1  0  0  0
 63139  1  0  0  0
 63140  1  0  0  0
 63141  1  0  0  0
 64142  1  0  0  0
 65143  1  0  0  0
 68 80  1  0  0  0
 71 72  2  0  0  0
 71 83  1  0  0  0
 71144  1  0  0  0
 72 73  1  0  0  0
 72 81  1  0  0  0
 73 75  1  0  0  0
 73 84  2  0  0  0
 74 82  1  0  0  0
 74 83  2  0  0  0
 74 84  1  0  0  0
 75145  1  0  0  0
 75146  1  0  0  0
 75147  1  0  0  0
 76148  1  0  0  0
 76149  1  0  0  0
 76150  1  0  0  0
 76 81  1  0  0  0
 77 81  1  0  0  0
 77151  1  0  0  0
 77152  1  0  0  0
 77153  1  0  0  0
 78154  1  0  0  0
 78155  1  0  0  0
 78156  1  0  0  0
 78 82  1  0  0  0
 79 82  1  0  0  0
 79157  1  0  0  0
 79158  1  0  0  0
 79159  1  0  0  0
 80 81  1  0  0  0
 80160  1  0  0  0
 80161  1  0  0  0
M  ISO  4   1 100  68 101  80 101  82 100
M  END
> <chiral flag>
0

> <version>
0

> <s_m_source_file>
/data/baiqing/PycharmProjects/Reinvent-master-3.2/result/LINK_invent/BTK/process_docking_weight1_custom_sum_contain_oxygen_bond_distance_aromatic_linkinvent_7_9_3/rearranged_h_0069.sdf

> <i_m_source_file_index>
51

> <r_mmod_Potential_Energy-OPLS-2005>
799.402587890625

> <r_mmod_Stretch_Energy-OPLS-2005>
475.86474609375

> <r_mmod_Bend_Energy-OPLS-2005>
472.514801025391

> <r_mmod_Torsional_Energy-OPLS-2005>
195.932647705078

> <r_mmod_Improper_Torsional_Energy-OPLS-2005>
7.81846380233765

> <r_mmod_Van_der_Waal_Energy-OPLS-2005>
155.385223388672

> <r_mmod_Electrostatic_Energy-OPLS-2005>
-634.039611816406

> <r_mmod_Solvation_Energy-OPLS-2005>
-208.201065063477

> <b_mmod_Minimization_Converged-OPLS-2005>
0

> <r_mmod_RMS_Derivative-OPLS-2005>
2.06474876403809

$$$$
51
                    3D
 Structure written by MMmdl.
168176  0  0  1  0            999 V2000
  -30.7224  -14.5668   20.5318 C   0  0  0  0  0  0
  -30.4244  -12.3573   19.4520 C   0  0  0  0  0  0
  -29.4889  -12.4606   18.2275 C   0  0  0  0  0  0
  -28.0177  -12.3161   18.6539 C   0  0  0  0  0  0
  -27.6488  -13.2169   19.8640 C   0  0  2  0  0  0
  -28.6992  -13.1091   20.9916 C   0  0  0  0  0  0
  -25.2501  -13.8220   20.5699 C   0  0  0  0  0  0
  -24.1737  -13.0444   20.9219 C   0  0  0  0  0  0
  -24.6318  -11.6935   20.8776 C   0  0  0  0  0  0
  -23.9036  -10.4296   21.0445 C   0  0  0  0  0  0
  -24.3643   -9.4177   21.9169 C   0  0  0  0  0  0
  -23.6300   -8.2202   22.0742 C   0  0  0  0  0  0
  -22.4270   -8.0269   21.3519 C   0  0  0  0  0  0
  -21.9928   -9.0246   20.4615 C   0  0  0  0  0  0
  -22.7252  -10.2119   20.3035 C   0  0  0  0  0  0
  -21.6815   -6.0765   22.5276 C   0  0  0  0  0  0
  -21.3958   -6.5647   23.8230 C   0  0  0  0  0  0
  -21.3683   -5.6787   24.9201 C   0  0  0  0  0  0
  -21.6036   -4.3058   24.7221 C   0  0  0  0  0  0
  -21.8793   -3.8162   23.4337 C   0  0  0  0  0  0
  -21.9169   -4.6989   22.3406 C   0  0  0  0  0  0
  -22.7775  -13.5273   21.1878 C   0  0  0  0  0  0
  -22.1602   -4.2187   21.0982 F   0  0  0  0  0  0
  -21.5682   -3.4538   25.7738 F   0  0  0  0  0  0
  -30.0205  -13.4011   20.4122 N   0  0  0  0  0  0
  -26.2954  -12.9375   20.3424 N   0  0  0  0  0  0
  -25.9263  -11.6537   20.5827 N   0  0  0  0  0  0
  -22.0424  -12.8219   22.0447 N   0  0  0  0  0  0
  -25.4161  -15.1936   20.4112 N   0  0  0  0  0  0
  -31.9083  -14.6490   20.2077 O   0  0  0  0  0  0
  -21.6559   -6.8905   21.4239 O   0  0  0  0  0  0
  -22.3456  -14.5578   20.6785 O   0  0  0  0  0  0
  -24.6206  -31.8656   23.2046 C   0  0  0  0  0  0
  -25.9091  -32.4792   23.8363 C   0  0  1  0  0  0
  -27.2240  -27.3940   20.0773 C   0  0  0  0  0  0
  -25.5912  -33.8592   24.2280 N   0  0  0  0  0  0
  -23.4036  -30.4939   21.5520 C   0  0  2  0  0  0
  -24.8410  -28.9555   20.1133 C   0  0  0  0  0  0
  -22.7413  -29.4656   22.4969 C   0  0  0  0  0  0
  -18.0281  -28.1410   22.8421 C   0  0  0  0  0  0
  -24.1504  -36.7343   23.2635 C   0  0  0  0  0  0
  -25.9439  -30.8162   21.3649 C   0  0  0  0  0  0
  -26.0108  -29.4482   20.7097 C   0  0  0  0  0  0
  -27.1984  -28.6750   20.6903 C   0  0  0  0  0  0
  -26.0252  -26.9218   19.4852 C   0  0  0  0  0  0
  -24.8457  -27.6914   19.5031 C   0  0  0  0  0  0
  -23.6100  -29.8343   20.1672 C   0  0  0  0  0  0
  -25.4112  -36.3100   24.0325 C   0  0  1  0  0  0
  -20.5868  -28.3698   23.1360 C   0  0  2  0  0  0
  -20.6743  -26.9368   22.5638 C   0  0  0  0  0  0
  -19.5921  -26.6504   21.5200 C   0  0  0  0  0  0
  -18.1955  -26.8085   22.1288 C   0  0  0  0  0  0
  -19.1524  -28.8848   23.2926 C   0  0  0  0  0  0
  -18.9453  -30.1409   23.9036 C   0  0  0  0  0  0
  -17.6467  -30.6564   24.0641 C   0  0  0  0  0  0
  -25.9062  -34.9473   23.5116 C   0  0  0  0  0  0
  -16.5354  -29.9087   23.6333 C   0  0  0  0  0  0
  -16.7281  -28.6542   23.0273 C   0  0  0  0  0  0
  -26.4482  -31.6569   25.0721 C   0  0  0  0  0  0
  -25.3718  -31.3711   26.1467 C   0  0  0  0  0  0
  -27.0286  -30.2998   24.6088 C   0  0  0  0  0  0
  -27.6046  -32.4304   25.7477 C   0  0  0  0  0  0
  -27.5596  -37.1804   24.8448 C   0  0  0  0  0  0
  -21.4136  -29.3040   22.3726 N   0  0  0  0  0  0
  -26.4305  -37.3772   23.9398 N   0  0  0  0  0  0
  -24.6767  -31.0705   22.0978 N   0  0  0  0  0  0
  -23.4199  -28.8233   23.3047 O   0  0  0  0  0  0
  -28.4019  -26.6536   20.0744 O   0  0  0  0  0  0
  -26.5633  -34.8941   22.4684 O   0  0  0  0  0  0
  -23.5400  -32.1407   23.7492 O   0  0  0  0  0  0
  -30.6793  -19.0961   20.2556 C   0  0  0  0  0  0
  -30.0827  -20.4034   20.3872 C   0  0  0  0  0  0
  -29.6235  -18.2057   20.1067 C   0  0  0  0  0  0
  -30.3100  -16.5411   18.3767 C   0  0  0  0  0  0
  -26.7045  -17.8941   18.6239 C   0  0  0  0  0  0
  -26.3907  -20.1750   19.4260 C   0  0  0  0  0  0
  -26.3754  -18.3683   21.1695 C   0  0  0  0  0  0
  -30.5811  -21.8672   20.3889 C   0  0  0  0  0  0
  -29.4002  -22.9049   20.1852 C   0  0  0  0  0  0
  -29.6410  -24.4475   20.0852 C   0  0  0  0  0  0
  -28.3080  -25.2311   19.8357 C   0  0  0  0  0  0
  -29.6199  -16.7123   19.7466 C   0  0  2  0  0  0
  -27.0242  -18.8121   19.8422 C   0  0  0  0  0  0
  -28.7976  -20.2504   20.5222 N   0  0  0  0  0  0
  -28.4744  -19.0131   20.1012 N   0  0  0  0  0  0
  -30.0235  -15.7052   20.7788 N   0  0  0  0  0  0
  -31.4613  -12.4726   19.1259 H   0  0  0  0  0  0
  -30.3615  -11.3690   19.9151 H   0  0  0  0  0  0
  -29.7363  -11.6873   17.4958 H   0  0  0  0  0  0
  -29.6345  -13.4174   17.7290 H   0  0  0  0  0  0
  -27.8568  -11.2691   18.9090 H   0  0  0  0  0  0
  -27.3538  -12.5158   17.8121 H   0  0  0  0  0  0
  -27.6611  -14.2449   19.5071 H   0  0  0  0  0  0
  -28.6837  -12.1105   21.4289 H   0  0  0  0  0  0
  -28.4566  -13.8011   21.8023 H   0  0  0  0  0  0
  -25.2824   -9.5567   22.4745 H   0  0  0  0  0  0
  -24.0006   -7.4552   22.7436 H   0  0  0  0  0  0
  -21.0908   -8.8725   19.8906 H   0  0  0  0  0  0
  -22.3734  -10.9648   19.6142 H   0  0  0  0  0  0
  -21.1829   -7.6142   23.9738 H   0  0  0  0  0  0
  -21.1587   -6.0523   25.9119 H   0  0  0  0  0  0
  -22.0565   -2.7635   23.2804 H   0  0  0  0  0  0
  -22.4099  -11.9895   22.4768 H   0  0  0  0  0  0
  -21.0989  -13.1113   22.2639 H   0  0  0  0  0  0
  -24.6657  -15.8573   20.5677 H   0  0  0  0  0  0
  -26.3017  -15.6562   20.2533 H   0  0  0  0  0  0
  -26.7165  -32.5466   23.1119 H   0  0  0  0  0  0
  -24.9999  -33.9732   25.0391 H   0  0  0  0  0  0
  -22.7005  -31.3179   21.4144 H   0  0  0  0  0  0
  -23.3748  -35.9705   23.3280 H   0  0  0  0  0  0
  -24.3625  -36.8983   22.2061 H   0  0  0  0  0  0
  -23.7282  -37.6557   23.6652 H   0  0  0  0  0  0
  -26.0634  -31.5778   20.5926 H   0  0  0  0  0  0
  -26.8316  -30.8634   21.9850 H   0  0  0  0  0  0
  -28.0980  -29.0449   21.1596 H   0  0  0  0  0  0
  -25.9695  -25.9587   18.9974 H   0  0  0  0  0  0
  -23.9473  -27.3075   19.0380 H   0  0  0  0  0  0
  -23.7254  -30.6096   19.4081 H   0  0  0  0  0  0
  -22.7274  -29.2700   19.8680 H   0  0  0  0  0  0
  -25.1286  -36.1985   25.0810 H   0  0  0  0  0  0
  -20.9991  -28.3320   24.1484 H   0  0  0  0  0  0
  -20.5242  -26.2310   23.3850 H   0  0  0  0  0  0
  -21.6657  -26.7247   22.1636 H   0  0  0  0  0  0
  -19.7118  -25.6442   21.1193 H   0  0  0  0  0  0
  -19.7131  -27.3434   20.6853 H   0  0  0  0  0  0
  -17.4457  -26.7144   21.3391 H   0  0  0  0  0  0
  -17.9959  -26.0052   22.8401 H   0  0  0  0  0  0
  -19.7940  -30.7146   24.2542 H   0  0  0  0  0  0
  -17.4989  -31.6184   24.5354 H   0  0  0  0  0  0
  -15.5369  -30.2981   23.7705 H   0  0  0  0  0  0
  -15.8664  -28.1001   22.6804 H   0  0  0  0  0  0
  -24.5875  -30.7061   25.7817 H   0  0  0  0  0  0
  -24.8931  -32.2891   26.4893 H   0  0  0  0  0  0
  -25.8090  -30.8893   27.0223 H   0  0  0  0  0  0
  -26.2827  -29.6794   24.1091 H   0  0  0  0  0  0
  -27.3992  -29.7196   25.4540 H   0  0  0  0  0  0
  -27.8690  -30.4302   23.9268 H   0  0  0  0  0  0
  -27.2616  -33.3572   26.2089 H   0  0  0  0  0  0
  -28.3820  -32.6916   25.0282 H   0  0  0  0  0  0
  -28.0726  -31.8391   26.5354 H   0  0  0  0  0  0
  -28.2572  -38.0126   24.7481 H   0  0  0  0  0  0
  -28.1115  -36.2654   24.6267 H   0  0  0  0  0  0
  -27.2306  -37.1438   25.8842 H   0  0  0  0  0  0
  -20.9327  -29.8651   21.6835 H   0  0  0  0  0  0
  -26.0221  -38.2872   24.1345 H   0  0  0  0  0  0
  -31.7308  -18.8570   20.1691 H   0  0  0  0  0  0
  -29.9507  -17.2762   17.6536 H   0  0  0  0  0  0
  -30.1103  -15.5646   17.9469 H   0  0  0  0  0  0
  -31.3891  -16.6728   18.4650 H   0  0  0  0  0  0
  -25.6513  -17.9695   18.3465 H   0  0  0  0  0  0
  -26.8410  -16.8262   18.7591 H   0  0  0  0  0  0
  -27.2901  -18.1895   17.7491 H   0  0  0  0  0  0
  -25.3947  -20.0702   19.0041 H   0  0  0  0  0  0
  -27.0009  -20.6586   18.6605 H   0  0  0  0  0  0
  -26.3033  -20.8759   20.2592 H   0  0  0  0  0  0
  -25.2879  -18.4456   21.1476 H   0  0  0  0  0  0
  -26.6999  -19.0128   21.9947 H   0  0  0  0  0  0
  -26.6531  -17.3510   21.4420 H   0  0  0  0  0  0
  -31.3047  -22.0051   19.5845 H   0  0  0  0  0  0
  -31.1184  -22.0813   21.3110 H   0  0  0  0  0  0
  -28.7129  -22.7569   21.0148 H   0  0  0  0  0  0
  -28.8532  -22.6075   19.2879 H   0  0  0  0  0  0
  -30.3467  -24.6650   19.2818 H   0  0  0  0  0  0
  -30.0880  -24.8096   21.0138 H   0  0  0  0  0  0
  -27.5244  -24.8164   20.4802 H   0  0  0  0  0  0
  -27.9776  -25.0492   18.8094 H   0  0  0  0  0  0
  -28.5916  -16.4190   19.6276 H   0  0  0  0  0  0
  -30.2958  -16.1471   21.6494 H   0  0  0  0  0  0
  1 25  1  0  0  0
  1 30  2  0  0  0
  1 86  1  0  0  0
  2  3  1  0  0  0
  2 25  1  0  0  0
  2 87  1  0  0  0
  2 88  1  0  0  0
  3  4  1  0  0  0
  3 89  1  0  0  0
  3 90  1  0  0  0
  4  5  1  0  0  0
  4 91  1  0  0  0
  4 92  1  0  0  0
  5  6  1  0  0  0
  5 26  1  0  0  0
  5 93  1  0  0  0
  6 25  1  0  0  0
  6 94  1  0  0  0
  6 95  1  0  0  0
  7  8  2  0  0  0
  7 26  1  0  0  0
  7 29  1  0  0  0
  8  9  1  0  0  0
  8 22  1  0  0  0
  9 10  1  0  0  0
  9 27  2  0  0  0
 10 11  2  0  0  0
 10 15  1  0  0  0
 11 12  1  0  0  0
 11 96  1  0  0  0
 12 13  2  0  0  0
 12 97  1  0  0  0
 13 14  1  0  0  0
 13 31  1  0  0  0
 14 15  2  0  0  0
 14 98  1  0  0  0
 15 99  1  0  0  0
 16 17  2  0  0  0
 16 21  1  0  0  0
 16 31  1  0  0  0
 17 18  1  0  0  0
 17100  1  0  0  0
 18 19  2  0  0  0
 18101  1  0  0  0
 19 20  1  0  0  0
 19 24  1  0  0  0
 20 21  2  0  0  0
 20102  1  0  0  0
 21 23  1  0  0  0
 22 28  1  0  0  0
 22 32  2  0  0  0
 26 27  1  0  0  0
 28103  1  0  0  0
 28104  1  0  0  0
 29105  1  0  0  0
 29106  1  0  0  0
 33 34  1  0  0  0
 33 66  1  0  0  0
 33 70  2  0  0  0
 34 36  1  0  0  0
 34 59  1  0  0  0
 34107  1  0  0  0
 35 44  2  0  0  0
 35 45  1  0  0  0
 35 68  1  0  0  0
 36 56  1  0  0  0
 36108  1  0  0  0
 37 39  1  0  0  0
 37 47  1  0  0  0
 37 66  1  0  0  0
 37109  1  0  0  0
 38 43  2  0  0  0
 38 46  1  0  0  0
 38 47  1  0  0  0
 39 64  1  0  0  0
 39 67  2  0  0  0
 40 52  1  0  0  0
 40 53  2  0  0  0
 40 58  1  0  0  0
 41110  1  0  0  0
 41111  1  0  0  0
 41112  1  0  0  0
 41 48  1  0  0  0
 42 43  1  0  0  0
 42 66  1  0  0  0
 42113  1  0  0  0
 42114  1  0  0  0
 43 44  1  0  0  0
 44115  1  0  0  0
 45 46  2  0  0  0
 45116  1  0  0  0
 46117  1  0  0  0
 47118  1  0  0  0
 47119  1  0  0  0
 48 56  1  0  0  0
 48 65  1  0  0  0
 48120  1  0  0  0
 49 50  1  0  0  0
 49 53  1  0  0  0
 49 64  1  0  0  0
 49121  1  0  0  0
 50 51  1  0  0  0
 50122  1  0  0  0
 50123  1  0  0  0
 51 52  1  0  0  0
 51124  1  0  0  0
 51125  1  0  0  0
 52126  1  0  0  0
 52127  1  0  0  0
 53 54  1  0  0  0
 54 55  2  0  0  0
 54128  1  0  0  0
 55 57  1  0  0  0
 55129  1  0  0  0
 56 69  2  0  0  0
 57 58  2  0  0  0
 57130  1  0  0  0
 58131  1  0  0  0
 59 60  1  0  0  0
 59 61  1  0  0  0
 59 62  1  0  0  0
 60132  1  0  0  0
 60133  1  0  0  0
 60134  1  0  0  0
 61135  1  0  0  0
 61136  1  0  0  0
 61137  1  0  0  0
 62138  1  0  0  0
 62139  1  0  0  0
 62140  1  0  0  0
 63 65  1  0  0  0
 63141  1  0  0  0
 63142  1  0  0  0
 63143  1  0  0  0
 64144  1  0  0  0
 65145  1  0  0  0
 68 81  1  0  0  0
 71 72  1  0  0  0
 71 73  2  0  0  0
 71146  1  0  0  0
 72 78  1  0  0  0
 72 84  2  0  0  0
 73 82  1  0  0  0
 73 85  1  0  0  0
 74147  1  0  0  0
 74148  1  0  0  0
 74149  1  0  0  0
 74 82  1  0  0  0
 75150  1  0  0  0
 75151  1  0  0  0
 75152  1  0  0  0
 75 83  1  0  0  0
 76 83  1  0  0  0
 76153  1  0  0  0
 76154  1  0  0  0
 76155  1  0  0  0
 77 83  1  0  0  0
 77156  1  0  0  0
 77157  1  0  0  0
 77158  1  0  0  0
 78 79  1  0  0  0
 78159  1  0  0  0
 78160  1  0  0  0
 79 80  1  0  0  0
 79161  1  0  0  0
 79162  1  0  0  0
 80 81  1  0  0  0
 80163  1  0  0  0
 80164  1  0  0  0
 81165  1  0  0  0
 81166  1  0  0  0
 82 86  1  0  0  0
 82167  1  0  0  0
 83 85  1  0  0  0
 84 85  1  0  0  0
 86168  1  0  0  0
M  ISO  4   1 100  68 101  81 101  86 100
M  END
> <chiral flag>
0

> <version>
0

> <s_m_source_file>
/data/baiqing/PycharmProjects/Reinvent-master-3.2/result/LINK_invent/BTK/process_docking_weight1_custom_sum_contain_oxygen_bond_distance_aromatic_linkinvent_7_9_3/rearranged_h_0069.sdf

> <i_m_source_file_index>
52

> <r_mmod_Potential_Energy-OPLS-2005>
70.4252777099609

> <r_mmod_Stretch_Energy-OPLS-2005>
61.035961151123

> <r_mmod_Bend_Energy-OPLS-2005>
156.988540649414

> <r_mmod_Torsional_Energy-OPLS-2005>
333.565856933594

> <r_mmod_Improper_Torsional_Energy-OPLS-2005>
9.95280647277832

> <r_mmod_Van_der_Waal_Energy-OPLS-2005>
141.451461791992

> <r_mmod_Electrostatic_Energy-OPLS-2005>
-465.769836425781

> <r_mmod_Solvation_Energy-OPLS-2005>
-198.150268554688

> <b_mmod_Minimization_Converged-OPLS-2005>
0

> <r_mmod_RMS_Derivative-OPLS-2005>
8.81722068786621

$$$$
52
                    3D
 Structure written by MMmdl.
158166  0  0  1  0            999 V2000
  -30.7011  -14.5221   20.5861 C   0  0  0  0  0  0
  -30.4324  -12.3391   19.4499 C   0  0  0  0  0  0
  -29.5018  -12.5255   18.2320 C   0  0  0  0  0  0
  -28.0260  -12.3593   18.6450 C   0  0  0  0  0  0
  -27.6637  -13.2106   19.8893 C   0  0  2  0  0  0
  -28.7102  -13.0089   21.0159 C   0  0  0  0  0  0
  -25.2386  -13.8095   20.5460 C   0  0  0  0  0  0
  -24.1761  -13.0363   20.9162 C   0  0  0  0  0  0
  -24.6400  -11.6873   20.8783 C   0  0  0  0  0  0
  -23.9077  -10.4259   21.0423 C   0  0  0  0  0  0
  -24.3614   -9.4169   21.9206 C   0  0  0  0  0  0
  -23.6284   -8.2212   22.0765 C   0  0  0  0  0  0
  -22.4272   -8.0258   21.3548 C   0  0  0  0  0  0
  -21.9917   -9.0229   20.4647 C   0  0  0  0  0  0
  -22.7251  -10.2100   20.3060 C   0  0  0  0  0  0
  -21.6841   -6.0722   22.5286 C   0  0  0  0  0  0
  -21.4029   -6.5633   23.8225 C   0  0  0  0  0  0
  -21.3684   -5.6791   24.9184 C   0  0  0  0  0  0
  -21.6052   -4.3053   24.7232 C   0  0  0  0  0  0
  -21.8799   -3.8137   23.4346 C   0  0  0  0  0  0
  -21.9179   -4.6950   22.3403 C   0  0  0  0  0  0
  -22.7780  -13.5117   21.1875 C   0  0  0  0  0  0
  -22.1644   -4.2145   21.0982 F   0  0  0  0  0  0
  -21.5629   -3.4536   25.7737 F   0  0  0  0  0  0
  -30.0493  -13.3234   20.4803 N   0  0  0  0  0  0
  -26.3003  -12.9366   20.3437 N   0  0  0  0  0  0
  -25.9349  -11.6517   20.5905 N   0  0  0  0  0  0
  -22.0460  -12.8114   22.0459 N   0  0  0  0  0  0
  -25.3632  -15.1779   20.3352 N   0  0  0  0  0  0
  -31.7573  -14.7569   19.9961 O   0  0  0  0  0  0
  -21.6626   -6.8857   21.4247 O   0  0  0  0  0  0
  -22.3440  -14.5423   20.6722 O   0  0  0  0  0  0
  -24.6194  -31.8648   23.2043 C   0  0  0  0  0  0
  -25.9085  -32.4786   23.8355 C   0  0  1  0  0  0
  -27.2371  -27.3999   20.1075 C   0  0  0  0  0  0
  -25.5934  -33.8582   24.2295 N   0  0  0  0  0  0
  -23.4072  -30.4910   21.5455 C   0  0  2  0  0  0
  -24.8535  -28.9525   20.1117 C   0  0  0  0  0  0
  -22.7433  -29.4652   22.4931 C   0  0  0  0  0  0
  -18.0290  -28.1393   22.8496 C   0  0  0  0  0  0
  -24.1492  -36.7293   23.2639 C   0  0  0  0  0  0
  -25.9391  -30.8249   21.3589 C   0  0  0  0  0  0
  -26.0156  -29.4567   20.7065 C   0  0  0  0  0  0
  -27.2098  -28.6922   20.6931 C   0  0  0  0  0  0
  -26.0483  -26.9154   19.5129 C   0  0  0  0  0  0
  -24.8662  -27.6825   19.5099 C   0  0  0  0  0  0
  -23.6180  -29.8266   20.1596 C   0  0  0  0  0  0
  -25.4110  -36.3084   24.0332 C   0  0  1  0  0  0
  -20.5885  -28.3677   23.1305 C   0  0  2  0  0  0
  -20.6773  -26.9404   22.5425 C   0  0  0  0  0  0
  -19.5746  -26.6391   21.5227 C   0  0  0  0  0  0
  -18.1924  -26.7936   22.1635 C   0  0  0  0  0  0
  -19.1543  -28.8850   23.2908 C   0  0  0  0  0  0
  -18.9457  -30.1455   23.8916 C   0  0  0  0  0  0
  -17.6458  -30.6585   24.0576 C   0  0  0  0  0  0
  -25.9039  -34.9452   23.5101 C   0  0  0  0  0  0
  -16.5351  -29.9090   23.6328 C   0  0  0  0  0  0
  -16.7278  -28.6519   23.0330 C   0  0  0  0  0  0
  -26.4505  -31.6571   25.0693 C   0  0  0  0  0  0
  -25.3762  -31.3703   26.1437 C   0  0  0  0  0  0
  -27.0335  -30.3000   24.6077 C   0  0  0  0  0  0
  -27.6065  -32.4292   25.7490 C   0  0  0  0  0  0
  -27.5569  -37.1799   24.8464 C   0  0  0  0  0  0
  -21.4154  -29.3040   22.3688 N   0  0  0  0  0  0
  -26.4281  -37.3774   23.9410 N   0  0  0  0  0  0
  -24.6737  -31.0753   22.0941 N   0  0  0  0  0  0
  -23.4207  -28.8198   23.2981 O   0  0  0  0  0  0
  -28.4084  -26.6532   20.1304 O   0  0  0  0  0  0
  -26.5595  -34.8906   22.4658 O   0  0  0  0  0  0
  -23.5388  -32.1401   23.7447 O   0  0  0  0  0  0
  -30.2276  -18.9051   21.5197 C   0  0  0  0  0  0
  -29.5500  -19.8252   19.0729 C   0  0  0  0  0  0
  -29.8049  -17.9997   20.5036 C   0  0  0  0  0  0
  -29.8586  -20.7330   20.1148 C   0  0  0  0  0  0
  -28.0605  -17.0156   23.0502 C   0  0  0  0  0  0
  -27.9571  -16.6283   21.5675 C   0  0  0  0  0  0
  -29.6249  -24.5374   20.6199 C   0  0  0  0  0  0
  -28.3120  -25.2055   20.1142 C   0  0  0  0  0  0
  -29.5942  -23.0139   20.9950 C   0  0  0  0  0  0
  -29.2788  -16.5633   20.7724 C   0  0  2  0  0  0
  -29.5029  -18.4806   19.2660 N   0  0  0  0  0  0
  -30.2325  -20.2635   21.3393 N   0  0  0  0  0  0
  -30.1123  -15.4749   21.3410 N   0  0  0  0  0  0
  -29.7502  -22.1077   19.8865 O   0  0  0  0  0  0
  -31.4751  -12.4438   19.1448 H   0  0  0  0  0  0
  -30.3393  -11.3272   19.8484 H   0  0  0  0  0  0
  -29.7566  -11.8113   17.4494 H   0  0  0  0  0  0
  -29.6499  -13.5175   17.7997 H   0  0  0  0  0  0
  -27.8576  -11.3026   18.8610 H   0  0  0  0  0  0
  -27.3672  -12.6074   17.8128 H   0  0  0  0  0  0
  -27.6969  -14.2532   19.5776 H   0  0  0  0  0  0
  -28.6914  -11.9776   21.3716 H   0  0  0  0  0  0
  -28.4588  -13.6103   21.8900 H   0  0  0  0  0  0
  -25.2757   -9.5625   22.4786 H   0  0  0  0  0  0
  -23.9983   -7.4595   22.7483 H   0  0  0  0  0  0
  -21.0856   -8.8744   19.8939 H   0  0  0  0  0  0
  -22.3740  -10.9627   19.6155 H   0  0  0  0  0  0
  -21.2045   -7.6149   23.9725 H   0  0  0  0  0  0
  -21.1545   -6.0529   25.9095 H   0  0  0  0  0  0
  -22.0553   -2.7597   23.2844 H   0  0  0  0  0  0
  -22.4101  -11.9786   22.4855 H   0  0  0  0  0  0
  -21.1106  -13.1145   22.2744 H   0  0  0  0  0  0
  -24.5610  -15.7955   20.4117 H   0  0  0  0  0  0
  -26.1807  -15.6350   19.9573 H   0  0  0  0  0  0
  -26.7145  -32.5499   23.1121 H   0  0  0  0  0  0
  -25.0149  -33.9726   25.0487 H   0  0  0  0  0  0
  -22.6976  -31.3088   21.4047 H   0  0  0  0  0  0
  -23.3736  -35.9643   23.3316 H   0  0  0  0  0  0
  -24.3596  -36.8892   22.2049 H   0  0  0  0  0  0
  -23.7252  -37.6502   23.6649 H   0  0  0  0  0  0
  -26.0541  -31.5889   20.5879 H   0  0  0  0  0  0
  -26.8263  -30.8803   21.9768 H   0  0  0  0  0  0
  -28.1071  -29.0822   21.1550 H   0  0  0  0  0  0
  -26.0192  -25.9408   19.0491 H   0  0  0  0  0  0
  -23.9699  -27.2850   19.0520 H   0  0  0  0  0  0
  -23.7357  -30.6032   19.4017 H   0  0  0  0  0  0
  -22.7389  -29.2531   19.8565 H   0  0  0  0  0  0
  -25.1292  -36.1933   25.0817 H   0  0  0  0  0  0
  -20.9992  -28.3256   24.1422 H   0  0  0  0  0  0
  -20.5683  -26.2282   23.3623 H   0  0  0  0  0  0
  -21.6637  -26.7449   22.1207 H   0  0  0  0  0  0
  -19.6897  -25.6309   21.1233 H   0  0  0  0  0  0
  -19.6675  -27.3223   20.6768 H   0  0  0  0  0  0
  -17.4196  -26.6703   21.4027 H   0  0  0  0  0  0
  -18.0308  -26.0088   22.9034 H   0  0  0  0  0  0
  -19.7933  -30.7273   24.2279 H   0  0  0  0  0  0
  -17.5010  -31.6261   24.5192 H   0  0  0  0  0  0
  -15.5346  -30.2995   23.7627 H   0  0  0  0  0  0
  -15.8687  -28.0846   22.7003 H   0  0  0  0  0  0
  -24.5936  -30.7042   25.7788 H   0  0  0  0  0  0
  -24.8967  -32.2872   26.4854 H   0  0  0  0  0  0
  -25.8112  -30.8902   27.0205 H   0  0  0  0  0  0
  -26.2866  -29.6734   24.1174 H   0  0  0  0  0  0
  -27.4142  -29.7260   25.4536 H   0  0  0  0  0  0
  -27.8692  -30.4302   23.9201 H   0  0  0  0  0  0
  -27.2654  -33.3569   26.2093 H   0  0  0  0  0  0
  -28.3889  -32.6866   25.0342 H   0  0  0  0  0  0
  -28.0711  -31.8394   26.5397 H   0  0  0  0  0  0
  -28.2592  -38.0091   24.7504 H   0  0  0  0  0  0
  -28.1064  -36.2616   24.6313 H   0  0  0  0  0  0
  -27.2295  -37.1478   25.8871 H   0  0  0  0  0  0
  -20.9300  -29.8806   21.6951 H   0  0  0  0  0  0
  -26.0163  -38.2845   24.1417 H   0  0  0  0  0  0
  -30.4326  -18.5605   22.5226 H   0  0  0  0  0  0
  -29.2699  -20.1881   18.0943 H   0  0  0  0  0  0
  -27.1038  -16.8389   23.5426 H   0  0  0  0  0  0
  -28.2850  -18.0728   23.1820 H   0  0  0  0  0  0
  -28.8148  -16.4326   23.5770 H   0  0  0  0  0  0
  -27.2531  -17.2906   21.0613 H   0  0  0  0  0  0
  -27.5075  -15.6430   21.5548 H   0  0  0  0  0  0
  -29.9071  -25.0699   21.5298 H   0  0  0  0  0  0
  -30.4301  -24.7293   19.9105 H   0  0  0  0  0  0
  -27.4862  -24.8897   20.7527 H   0  0  0  0  0  0
  -28.0923  -24.8540   19.1048 H   0  0  0  0  0  0
  -28.6723  -22.7835   21.5328 H   0  0  0  0  0  0
  -30.4109  -22.8373   21.6945 H   0  0  0  0  0  0
  -28.9864  -16.1984   19.7836 H   0  0  0  0  0  0
  -29.6396  -15.0603   22.1283 H   0  0  0  0  0  0
  1 25  1  0  0  0
  1 30  2  0  0  0
  1 83  1  0  0  0
  2  3  1  0  0  0
  2 25  1  0  0  0
  2 85  1  0  0  0
  2 86  1  0  0  0
  3  4  1  0  0  0
  3 87  1  0  0  0
  3 88  1  0  0  0
  4  5  1  0  0  0
  4 89  1  0  0  0
  4 90  1  0  0  0
  5  6  1  0  0  0
  5 26  1  0  0  0
  5 91  1  0  0  0
  6 25  1  0  0  0
  6 92  1  0  0  0
  6 93  1  0  0  0
  7  8  2  0  0  0
  7 26  1  0  0  0
  7 29  1  0  0  0
  8  9  1  0  0  0
  8 22  1  0  0  0
  9 10  1  0  0  0
  9 27  2  0  0  0
 10 11  2  0  0  0
 10 15  1  0  0  0
 11 12  1  0  0  0
 11 94  1  0  0  0
 12 13  2  0  0  0
 12 95  1  0  0  0
 13 14  1  0  0  0
 13 31  1  0  0  0
 14 15  2  0  0  0
 14 96  1  0  0  0
 15 97  1  0  0  0
 16 17  2  0  0  0
 16 21  1  0  0  0
 16 31  1  0  0  0
 17 18  1  0  0  0
 17 98  1  0  0  0
 18 19  2  0  0  0
 18 99  1  0  0  0
 19 20  1  0  0  0
 19 24  1  0  0  0
 20 21  2  0  0  0
 20100  1  0  0  0
 21 23  1  0  0  0
 22 28  1  0  0  0
 22 32  2  0  0  0
 26 27  1  0  0  0
 28101  1  0  0  0
 28102  1  0  0  0
 29103  1  0  0  0
 29104  1  0  0  0
 33 34  1  0  0  0
 33 66  1  0  0  0
 33 70  2  0  0  0
 34 36  1  0  0  0
 34 59  1  0  0  0
 34105  1  0  0  0
 35 44  2  0  0  0
 35 45  1  0  0  0
 35 68  1  0  0  0
 36 56  1  0  0  0
 36106  1  0  0  0
 37 39  1  0  0  0
 37 47  1  0  0  0
 37 66  1  0  0  0
 37107  1  0  0  0
 38 43  2  0  0  0
 38 46  1  0  0  0
 38 47  1  0  0  0
 39 64  1  0  0  0
 39 67  2  0  0  0
 40 52  1  0  0  0
 40 53  2  0  0  0
 40 58  1  0  0  0
 41108  1  0  0  0
 41109  1  0  0  0
 41110  1  0  0  0
 41 48  1  0  0  0
 42 43  1  0  0  0
 42 66  1  0  0  0
 42111  1  0  0  0
 42112  1  0  0  0
 43 44  1  0  0  0
 44113  1  0  0  0
 45 46  2  0  0  0
 45114  1  0  0  0
 46115  1  0  0  0
 47116  1  0  0  0
 47117  1  0  0  0
 48 56  1  0  0  0
 48 65  1  0  0  0
 48118  1  0  0  0
 49 50  1  0  0  0
 49 53  1  0  0  0
 49 64  1  0  0  0
 49119  1  0  0  0
 50 51  1  0  0  0
 50120  1  0  0  0
 50121  1  0  0  0
 51 52  1  0  0  0
 51122  1  0  0  0
 51123  1  0  0  0
 52124  1  0  0  0
 52125  1  0  0  0
 53 54  1  0  0  0
 54 55  2  0  0  0
 54126  1  0  0  0
 55 57  1  0  0  0
 55127  1  0  0  0
 56 69  2  0  0  0
 57 58  2  0  0  0
 57128  1  0  0  0
 58129  1  0  0  0
 59 60  1  0  0  0
 59 61  1  0  0  0
 59 62  1  0  0  0
 60130  1  0  0  0
 60131  1  0  0  0
 60132  1  0  0  0
 61133  1  0  0  0
 61134  1  0  0  0
 61135  1  0  0  0
 62136  1  0  0  0
 62137  1  0  0  0
 62138  1  0  0  0
 63 65  1  0  0  0
 63139  1  0  0  0
 63140  1  0  0  0
 63141  1  0  0  0
 64142  1  0  0  0
 65143  1  0  0  0
 68 78  1  0  0  0
 71 73  2  0  0  0
 71 82  1  0  0  0
 71144  1  0  0  0
 72 74  1  0  0  0
 72 81  2  0  0  0
 72145  1  0  0  0
 73 80  1  0  0  0
 73 81  1  0  0  0
 74 82  2  0  0  0
 74 84  1  0  0  0
 75 76  1  0  0  0
 75146  1  0  0  0
 75147  1  0  0  0
 75148  1  0  0  0
 76149  1  0  0  0
 76150  1  0  0  0
 76 80  1  0  0  0
 77 78  1  0  0  0
 77 79  1  0  0  0
 77151  1  0  0  0
 77152  1  0  0  0
 78153  1  0  0  0
 78154  1  0  0  0
 79 84  1  0  0  0
 79155  1  0  0  0
 79156  1  0  0  0
 80 83  1  0  0  0
 80157  1  0  0  0
 83158  1  0  0  0
M  ISO  4   1 100  68 101  78 101  83 100
M  END
> <chiral flag>
0

> <version>
0

> <s_m_source_file>
/data/baiqing/PycharmProjects/Reinvent-master-3.2/result/LINK_invent/BTK/process_docking_weight1_custom_sum_contain_oxygen_bond_distance_aromatic_linkinvent_7_9_3/rearranged_h_0069.sdf

> <i_m_source_file_index>
53

> <r_mmod_Potential_Energy-OPLS-2005>
77.2034683227539

> <r_mmod_Stretch_Energy-OPLS-2005>
53.4929962158203

> <r_mmod_Bend_Energy-OPLS-2005>
139.471725463867

> <r_mmod_Torsional_Energy-OPLS-2005>
259.127899169922

> <r_mmod_Improper_Torsional_Energy-OPLS-2005>
9.86454105377197

> <r_mmod_Van_der_Waal_Energy-OPLS-2005>
153.049957275391

> <r_mmod_Electrostatic_Energy-OPLS-2005>
-337.429168701172

> <r_mmod_Solvation_Energy-OPLS-2005>
-220.536468505859

> <b_mmod_Minimization_Converged-OPLS-2005>
0

> <r_mmod_RMS_Derivative-OPLS-2005>
3.20099782943726

$$$$
53
                    3D
 Structure written by MMmdl.
173181  0  0  1  0            999 V2000
  -30.6683  -14.5090   20.6570 C   0  0  0  0  0  0
  -30.4433  -12.3657   19.3971 C   0  0  0  0  0  0
  -29.4915  -12.5314   18.1913 C   0  0  0  0  0  0
  -28.0138  -12.3606   18.6045 C   0  0  0  0  0  0
  -27.6657  -13.1720   19.8789 C   0  0  2  0  0  0
  -28.7214  -12.8791   20.9731 C   0  0  0  0  0  0
  -25.2657  -13.8059   20.5677 C   0  0  0  0  0  0
  -24.1880  -13.0405   20.9239 C   0  0  0  0  0  0
  -24.6381  -11.6852   20.8775 C   0  0  0  0  0  0
  -23.9030  -10.4269   21.0439 C   0  0  0  0  0  0
  -24.3592   -9.4170   21.9199 C   0  0  0  0  0  0
  -23.6277   -8.2199   22.0747 C   0  0  0  0  0  0
  -22.4259   -8.0255   21.3533 C   0  0  0  0  0  0
  -21.9896   -9.0234   20.4638 C   0  0  0  0  0  0
  -22.7214  -10.2123   20.3073 C   0  0  0  0  0  0
  -21.6830   -6.0732   22.5278 C   0  0  0  0  0  0
  -21.3996   -6.5634   23.8210 C   0  0  0  0  0  0
  -21.3663   -5.6792   24.9176 C   0  0  0  0  0  0
  -21.6054   -4.3057   24.7228 C   0  0  0  0  0  0
  -21.8816   -3.8148   23.4350 C   0  0  0  0  0  0
  -21.9185   -4.6963   22.3407 C   0  0  0  0  0  0
  -22.7913  -13.5243   21.1873 C   0  0  0  0  0  0
  -22.1652   -4.2151   21.0983 F   0  0  0  0  0  0
  -21.5655   -3.4540   25.7740 F   0  0  0  0  0  0
  -30.0214  -13.3149   20.4502 N   0  0  0  0  0  0
  -26.3041  -12.9154   20.3368 N   0  0  0  0  0  0
  -25.9292  -11.6366   20.5777 N   0  0  0  0  0  0
  -22.0518  -12.8244   22.0413 N   0  0  0  0  0  0
  -25.4460  -15.1765   20.3974 N   0  0  0  0  0  0
  -31.7562  -14.6972   20.0953 O   0  0  0  0  0  0
  -21.6612   -6.8866   21.4240 O   0  0  0  0  0  0
  -22.3645  -14.5551   20.6686 O   0  0  0  0  0  0
  -24.6139  -31.8666   23.2064 C   0  0  0  0  0  0
  -25.9034  -32.4807   23.8376 C   0  0  1  0  0  0
  -27.2529  -27.4314   20.0819 C   0  0  0  0  0  0
  -25.5894  -33.8610   24.2310 N   0  0  0  0  0  0
  -23.4040  -30.4853   21.5469 C   0  0  2  0  0  0
  -24.8522  -28.9444   20.1132 C   0  0  0  0  0  0
  -22.7422  -29.4641   22.4997 C   0  0  0  0  0  0
  -18.0276  -28.1369   22.8497 C   0  0  0  0  0  0
  -24.1492  -36.7311   23.2641 C   0  0  0  0  0  0
  -25.9323  -30.8235   21.3641 C   0  0  0  0  0  0
  -26.0087  -29.4571   20.7117 C   0  0  0  0  0  0
  -27.2041  -28.7038   20.6991 C   0  0  0  0  0  0
  -26.0720  -26.9247   19.4916 C   0  0  0  0  0  0
  -24.8787  -27.6767   19.5042 C   0  0  0  0  0  0
  -23.6118  -29.8092   20.1634 C   0  0  0  0  0  0
  -25.4114  -36.3107   24.0339 C   0  0  1  0  0  0
  -20.5867  -28.3651   23.1315 C   0  0  2  0  0  0
  -20.6770  -26.9393   22.5406 C   0  0  0  0  0  0
  -19.5746  -26.6379   21.5207 C   0  0  0  0  0  0
  -18.1923  -26.7919   22.1621 C   0  0  0  0  0  0
  -19.1526  -28.8831   23.2896 C   0  0  0  0  0  0
  -18.9455  -30.1437   23.8900 C   0  0  0  0  0  0
  -17.6457  -30.6579   24.0562 C   0  0  0  0  0  0
  -25.9042  -34.9470   23.5126 C   0  0  0  0  0  0
  -16.5349  -29.9078   23.6322 C   0  0  0  0  0  0
  -16.7263  -28.6493   23.0353 C   0  0  0  0  0  0
  -26.4459  -31.6593   25.0711 C   0  0  0  0  0  0
  -25.3713  -31.3705   26.1454 C   0  0  0  0  0  0
  -27.0297  -30.3034   24.6095 C   0  0  0  0  0  0
  -27.6039  -32.4319   25.7462 C   0  0  0  0  0  0
  -27.5586  -37.1815   24.8465 C   0  0  0  0  0  0
  -21.4149  -29.3023   22.3737 N   0  0  0  0  0  0
  -26.4301  -37.3792   23.9407 N   0  0  0  0  0  0
  -24.6677  -31.0748   22.0964 N   0  0  0  0  0  0
  -23.4196  -28.8190   23.3047 O   0  0  0  0  0  0
  -28.4552  -26.7473   20.1126 O   0  0  0  0  0  0
  -26.5609  -34.8927   22.4687 O   0  0  0  0  0  0
  -23.5329  -32.1434   23.7446 O   0  0  0  0  0  0
  -31.6268  -17.7912   21.9759 C   0  0  0  0  0  0
  -31.8787  -19.1360   21.6311 C   0  0  0  0  0  0
  -30.7412  -17.0412   21.1651 C   0  0  0  0  0  0
  -31.2342  -19.6817   20.4939 C   0  0  0  0  0  0
  -33.2040  -20.3659   18.2878 C   0  0  0  0  0  0
  -30.5857  -15.2728   23.0383 C   0  0  0  0  0  0
  -32.4423  -21.8978   20.9268 C   0  0  0  0  0  0
  -31.9358  -21.1959   18.5680 C   0  0  0  0  0  0
  -29.9828  -23.3683   19.5091 C   0  0  0  0  0  0
  -28.8161  -24.2754   19.9945 C   0  0  0  0  0  0
  -30.0480  -21.9416   20.1466 C   0  0  0  0  0  0
  -28.5767  -15.9251   21.6330 C   0  0  0  0  0  0
  -28.7288  -25.6350   19.2451 C   0  0  0  0  0  0
  -30.1325  -15.6717   21.6087 C   0  0  2  0  0  0
  -31.4096  -21.1613   20.0332 C   0  0  1  0  0  0
  -30.2064  -17.6092   20.0460 N   0  0  0  0  0  0
  -30.4267  -18.8945   19.7329 N   0  0  0  0  0  0
  -28.1464  -17.1517   22.3458 N   0  3  0  0  0  0
  -31.4766  -12.5103   19.0782 H   0  0  0  0  0  0
  -30.4098  -11.3410   19.7709 H   0  0  0  0  0  0
  -29.7459  -11.8137   17.4091 H   0  0  0  0  0  0
  -29.6334  -13.5205   17.7533 H   0  0  0  0  0  0
  -27.8314  -11.2996   18.7790 H   0  0  0  0  0  0
  -27.3581  -12.6496   17.7819 H   0  0  0  0  0  0
  -27.7210  -14.2152   19.5834 H   0  0  0  0  0  0
  -28.7422  -11.8003   21.1403 H   0  0  0  0  0  0
  -28.4952  -13.2421   21.9674 H   0  0  0  0  0  0
  -25.2732   -9.5628   22.4777 H   0  0  0  0  0  0
  -23.9980   -7.4569   22.7451 H   0  0  0  0  0  0
  -21.0832   -8.8758   19.8930 H   0  0  0  0  0  0
  -22.3677  -10.9672   19.6193 H   0  0  0  0  0  0
  -21.1966   -7.6136   23.9714 H   0  0  0  0  0  0
  -21.1497   -6.0519   25.9076 H   0  0  0  0  0  0
  -22.0594   -2.7616   23.2846 H   0  0  0  0  0  0
  -22.4092  -11.9882   22.4795 H   0  0  0  0  0  0
  -21.1139  -13.1286   22.2602 H   0  0  0  0  0  0
  -24.6003  -15.7370   20.3809 H   0  0  0  0  0  0
  -26.0979  -15.4754   19.6836 H   0  0  0  0  0  0
  -26.7101  -32.5522   23.1141 H   0  0  0  0  0  0
  -25.0051  -33.9770   25.0459 H   0  0  0  0  0  0
  -22.6919  -31.3004   21.4044 H   0  0  0  0  0  0
  -23.3753  -35.9648   23.3314 H   0  0  0  0  0  0
  -24.3582  -36.8918   22.2052 H   0  0  0  0  0  0
  -23.7245  -37.6520   23.6649 H   0  0  0  0  0  0
  -26.0518  -31.5884   20.5958 H   0  0  0  0  0  0
  -26.8171  -30.8739   21.9869 H   0  0  0  0  0  0
  -28.0981  -29.0996   21.1605 H   0  0  0  0  0  0
  -26.0483  -25.9476   19.0319 H   0  0  0  0  0  0
  -23.9880  -27.2729   19.0424 H   0  0  0  0  0  0
  -23.7119  -30.5786   19.3967 H   0  0  0  0  0  0
  -22.7375  -29.2212   19.8775 H   0  0  0  0  0  0
  -25.1290  -36.1983   25.0835 H   0  0  0  0  0  0
  -20.9946  -28.3215   24.1441 H   0  0  0  0  0  0
  -20.5675  -26.2263   23.3592 H   0  0  0  0  0  0
  -21.6641  -26.7443   22.1198 H   0  0  0  0  0  0
  -19.6902  -25.6290   21.1232 H   0  0  0  0  0  0
  -19.6676  -27.3191   20.6738 H   0  0  0  0  0  0
  -17.4190  -26.6667   21.4024 H   0  0  0  0  0  0
  -18.0324  -26.0058   22.9013 H   0  0  0  0  0  0
  -19.7929  -30.7255   24.2277 H   0  0  0  0  0  0
  -17.5009  -31.6265   24.5156 H   0  0  0  0  0  0
  -15.5344  -30.2980   23.7644 H   0  0  0  0  0  0
  -15.8668  -28.0809   22.7066 H   0  0  0  0  0  0
  -24.5866  -30.7084   25.7771 H   0  0  0  0  0  0
  -24.8924  -32.2864   26.4928 H   0  0  0  0  0  0
  -25.8049  -30.8835   27.0196 H   0  0  0  0  0  0
  -26.2847  -29.6790   24.1145 H   0  0  0  0  0  0
  -27.4065  -29.7281   25.4563 H   0  0  0  0  0  0
  -27.8686  -30.4361   23.9256 H   0  0  0  0  0  0
  -27.2661  -33.3609   26.2069 H   0  0  0  0  0  0
  -28.3817  -32.6898   25.0262 H   0  0  0  0  0  0
  -28.0739  -31.8426   26.5349 H   0  0  0  0  0  0
  -28.2609  -38.0105   24.7515 H   0  0  0  0  0  0
  -28.1083  -36.2643   24.6297 H   0  0  0  0  0  0
  -27.2309  -37.1466   25.8869 H   0  0  0  0  0  0
  -20.9321  -29.8744   21.6951 H   0  0  0  0  0  0
  -26.0199  -38.2881   24.1383 H   0  0  0  0  0  0
  -32.0683  -17.3857   22.8739 H   0  0  0  0  0  0
  -32.5322  -19.7213   22.2597 H   0  0  0  0  0  0
  -33.4882  -20.4467   17.2380 H   0  0  0  0  0  0
  -33.0535  -19.3070   18.4998 H   0  0  0  0  0  0
  -34.0552  -20.7071   18.8772 H   0  0  0  0  0  0
  -30.3401  -16.0295   23.7815 H   0  0  0  0  0  0
  -31.6626  -15.1015   23.0884 H   0  0  0  0  0  0
  -30.1089  -14.3478   23.3649 H   0  0  0  0  0  0
  -33.4033  -21.3837   20.9518 H   0  0  0  0  0  0
  -32.0929  -21.9841   21.9565 H   0  0  0  0  0  0
  -32.6496  -22.9080   20.5770 H   0  0  0  0  0  0
  -31.1473  -20.8449   17.9022 H   0  0  0  0  0  0
  -32.1312  -22.2240   18.2662 H   0  0  0  0  0  0
  -30.9099  -23.9070   19.7017 H   0  0  0  0  0  0
  -29.9257  -23.2674   18.4236 H   0  0  0  0  0  0
  -28.9487  -24.4621   21.0604 H   0  0  0  0  0  0
  -27.8632  -23.7534   19.8990 H   0  0  0  0  0  0
  -29.2557  -21.3483   19.6888 H   0  0  0  0  0  0
  -29.7799  -22.0064   21.2023 H   0  0  0  0  0  0
  -28.0065  -15.1468   22.1218 H   0  0  0  0  0  0
  -28.2020  -16.0141   20.6144 H   0  0  0  0  0  0
  -28.0684  -25.5750   18.3804 H   0  0  0  0  0  0
  -29.7068  -25.8554   18.8166 H   0  0  0  0  0  0
  -28.3979  -17.1288   23.3191 H   0  0  0  0  0  0
  -27.1453  -17.2370   22.2880 H   0  0  0  0  0  0
  -28.5512  -17.9646   21.9115 H   0  0  0  0  0  0
  1 25  1  0  0  0
  1 30  2  0  0  0
  1 84  1  0  0  0
  2  3  1  0  0  0
  2 25  1  0  0  0
  2 89  1  0  0  0
  2 90  1  0  0  0
  3  4  1  0  0  0
  3 91  1  0  0  0
  3 92  1  0  0  0
  4  5  1  0  0  0
  4 93  1  0  0  0
  4 94  1  0  0  0
  5  6  1  0  0  0
  5 26  1  0  0  0
  5 95  1  0  0  0
  6 25  1  0  0  0
  6 96  1  0  0  0
  6 97  1  0  0  0
  7  8  2  0  0  0
  7 26  1  0  0  0
  7 29  1  0  0  0
  8  9  1  0  0  0
  8 22  1  0  0  0
  9 10  1  0  0  0
  9 27  2  0  0  0
 10 11  2  0  0  0
 10 15  1  0  0  0
 11 12  1  0  0  0
 11 98  1  0  0  0
 12 13  2  0  0  0
 12 99  1  0  0  0
 13 14  1  0  0  0
 13 31  1  0  0  0
 14 15  2  0  0  0
 14100  1  0  0  0
 15101  1  0  0  0
 16 17  2  0  0  0
 16 21  1  0  0  0
 16 31  1  0  0  0
 17 18  1  0  0  0
 17102  1  0  0  0
 18 19  2  0  0  0
 18103  1  0  0  0
 19 20  1  0  0  0
 19 24  1  0  0  0
 20 21  2  0  0  0
 20104  1  0  0  0
 21 23  1  0  0  0
 22 28  1  0  0  0
 22 32  2  0  0  0
 26 27  1  0  0  0
 28105  1  0  0  0
 28106  1  0  0  0
 29107  1  0  0  0
 29108  1  0  0  0
 33 34  1  0  0  0
 33 66  1  0  0  0
 33 70  2  0  0  0
 34 36  1  0  0  0
 34 59  1  0  0  0
 34109  1  0  0  0
 35 44  2  0  0  0
 35 45  1  0  0  0
 35 68  1  0  0  0
 36 56  1  0  0  0
 36110  1  0  0  0
 37 39  1  0  0  0
 37 47  1  0  0  0
 37 66  1  0  0  0
 37111  1  0  0  0
 38 43  2  0  0  0
 38 46  1  0  0  0
 38 47  1  0  0  0
 39 64  1  0  0  0
 39 67  2  0  0  0
 40 52  1  0  0  0
 40 53  2  0  0  0
 40 58  1  0  0  0
 41112  1  0  0  0
 41113  1  0  0  0
 41114  1  0  0  0
 41 48  1  0  0  0
 42 43  1  0  0  0
 42 66  1  0  0  0
 42115  1  0  0  0
 42116  1  0  0  0
 43 44  1  0  0  0
 44117  1  0  0  0
 45 46  2  0  0  0
 45118  1  0  0  0
 46119  1  0  0  0
 47120  1  0  0  0
 47121  1  0  0  0
 48 56  1  0  0  0
 48 65  1  0  0  0
 48122  1  0  0  0
 49 50  1  0  0  0
 49 53  1  0  0  0
 49 64  1  0  0  0
 49123  1  0  0  0
 50 51  1  0  0  0
 50124  1  0  0  0
 50125  1  0  0  0
 51 52  1  0  0  0
 51126  1  0  0  0
 51127  1  0  0  0
 52128  1  0  0  0
 52129  1  0  0  0
 53 54  1  0  0  0
 54 55  2  0  0  0
 54130  1  0  0  0
 55 57  1  0  0  0
 55131  1  0  0  0
 56 69  2  0  0  0
 57 58  2  0  0  0
 57132  1  0  0  0
 58133  1  0  0  0
 59 60  1  0  0  0
 59 61  1  0  0  0
 59 62  1  0  0  0
 60134  1  0  0  0
 60135  1  0  0  0
 60136  1  0  0  0
 61137  1  0  0  0
 61138  1  0  0  0
 61139  1  0  0  0
 62140  1  0  0  0
 62141  1  0  0  0
 62142  1  0  0  0
 63 65  1  0  0  0
 63143  1  0  0  0
 63144  1  0  0  0
 63145  1  0  0  0
 64146  1  0  0  0
 65147  1  0  0  0
 68 83  1  0  0  0
 71 72  2  0  0  0
 71 73  1  0  0  0
 71148  1  0  0  0
 72 74  1  0  0  0
 72149  1  0  0  0
 73 84  1  0  0  0
 73 86  2  0  0  0
 74 85  1  0  0  0
 74 87  2  0  0  0
 75 78  1  0  0  0
 75150  1  0  0  0
 75151  1  0  0  0
 75152  1  0  0  0
 76153  1  0  0  0
 76154  1  0  0  0
 76155  1  0  0  0
 76 84  1  0  0  0
 77156  1  0  0  0
 77157  1  0  0  0
 77158  1  0  0  0
 77 85  1  0  0  0
 78 85  1  0  0  0
 78159  1  0  0  0
 78160  1  0  0  0
 79 80  1  0  0  0
 79 81  1  0  0  0
 79161  1  0  0  0
 79162  1  0  0  0
 80 83  1  0  0  0
 80163  1  0  0  0
 80164  1  0  0  0
 81 85  1  0  0  0
 81165  1  0  0  0
 81166  1  0  0  0
 82 84  1  0  0  0
 82 88  1  0  0  0
 82167  1  0  0  0
 82168  1  0  0  0
 83169  1  0  0  0
 83170  1  0  0  0
 86 87  1  0  0  0
 88171  1  0  0  0
 88172  1  0  0  0
 88173  1  0  0  0
M  CHG  1  88   1
M  ISO  4   1 100  68 101  83 101  84 100
M  END
> <chiral flag>
0

> <version>
0

> <s_m_source_file>
/data/baiqing/PycharmProjects/Reinvent-master-3.2/result/LINK_invent/BTK/process_docking_weight1_custom_sum_contain_oxygen_bond_distance_aromatic_linkinvent_7_9_3/rearranged_h_0069.sdf

> <i_m_source_file_index>
54

> <r_mmod_Potential_Energy-OPLS-2005>
-82.6825637817383

> <r_mmod_Stretch_Energy-OPLS-2005>
62.2774467468262

> <r_mmod_Bend_Energy-OPLS-2005>
147.697036743164

> <r_mmod_Torsional_Energy-OPLS-2005>
220.147338867188

> <r_mmod_Improper_Torsional_Energy-OPLS-2005>
7.01559448242188

> <r_mmod_Van_der_Waal_Energy-OPLS-2005>
178.155303955078

> <r_mmod_Electrostatic_Energy-OPLS-2005>
-251.527954101562

> <r_mmod_Solvation_Energy-OPLS-2005>
-462.707092285156

> <b_mmod_Minimization_Converged-OPLS-2005>
0

> <r_mmod_RMS_Derivative-OPLS-2005>
1.88100445270538

$$$$
54
                    3D
 Structure written by MMmdl.
164172  0  0  1  0            999 V2000
  -30.7415  -14.4919   20.5289 C   0  0  0  0  0  0
  -30.4102  -12.3261   19.4028 C   0  0  0  0  0  0
  -29.4772  -12.5201   18.1894 C   0  0  0  0  0  0
  -28.0006  -12.3936   18.6107 C   0  0  0  0  0  0
  -27.6600  -13.2287   19.8732 C   0  0  2  0  0  0
  -28.7163  -13.0349   20.9848 C   0  0  0  0  0  0
  -25.2602  -13.8239   20.5718 C   0  0  0  0  0  0
  -24.1884  -13.0481   20.9111 C   0  0  0  0  0  0
  -24.6471  -11.6949   20.8756 C   0  0  0  0  0  0
  -23.9119  -10.4339   21.0458 C   0  0  0  0  0  0
  -24.3628   -9.4201   21.9266 C   0  0  0  0  0  0
  -23.6315   -8.2221   22.0763 C   0  0  0  0  0  0
  -22.4295   -8.0282   21.3549 C   0  0  0  0  0  0
  -21.9992   -9.0278   20.4624 C   0  0  0  0  0  0
  -22.7335  -10.2141   20.3049 C   0  0  0  0  0  0
  -21.6862   -6.0723   22.5319 C   0  0  0  0  0  0
  -21.3998   -6.5611   23.8238 C   0  0  0  0  0  0
  -21.3667   -5.6769   24.9218 C   0  0  0  0  0  0
  -21.6057   -4.3028   24.7260 C   0  0  0  0  0  0
  -21.8845   -3.8111   23.4382 C   0  0  0  0  0  0
  -21.9188   -4.6919   22.3428 C   0  0  0  0  0  0
  -22.7914  -13.5290   21.1768 C   0  0  0  0  0  0
  -22.1655   -4.2138   21.1002 F   0  0  0  0  0  0
  -21.5653   -3.4486   25.7741 F   0  0  0  0  0  0
  -30.0383  -13.3305   20.4107 N   0  0  0  0  0  0
  -26.3080  -12.9457   20.3423 N   0  0  0  0  0  0
  -25.9433  -11.6572   20.5864 N   0  0  0  0  0  0
  -22.0622  -12.8257   22.0319 N   0  0  0  0  0  0
  -25.4166  -15.2018   20.4232 N   0  0  0  0  0  0
  -31.8797  -14.6177   20.0726 O   0  0  0  0  0  0
  -21.6643   -6.8877   21.4273 O   0  0  0  0  0  0
  -22.3565  -14.5634   20.6668 O   0  0  0  0  0  0
  -24.6144  -31.8664   23.2107 C   0  0  0  0  0  0
  -25.9040  -32.4804   23.8364 C   0  0  1  0  0  0
  -27.2381  -27.4229   20.0951 C   0  0  0  0  0  0
  -25.5919  -33.8591   24.2275 N   0  0  0  0  0  0
  -23.4003  -30.4885   21.5538 C   0  0  2  0  0  0
  -24.8446  -28.9494   20.1171 C   0  0  0  0  0  0
  -22.7375  -29.4637   22.5027 C   0  0  0  0  0  0
  -18.0261  -28.1364   22.8501 C   0  0  0  0  0  0
  -24.1506  -36.7301   23.2642 C   0  0  0  0  0  0
  -25.9286  -30.8219   21.3687 C   0  0  0  0  0  0
  -26.0045  -29.4588   20.7111 C   0  0  0  0  0  0
  -27.2000  -28.7035   20.6946 C   0  0  0  0  0  0
  -26.0547  -26.9298   19.4977 C   0  0  0  0  0  0
  -24.8627  -27.6815   19.5107 C   0  0  0  0  0  0
  -23.6075  -29.8169   20.1699 C   0  0  0  0  0  0
  -25.4136  -36.3085   24.0324 C   0  0  1  0  0  0
  -20.5836  -28.3622   23.1362 C   0  0  2  0  0  0
  -20.6761  -26.9364   22.5442 C   0  0  0  0  0  0
  -19.5762  -26.6361   21.5214 C   0  0  0  0  0  0
  -18.1935  -26.7907   22.1620 C   0  0  0  0  0  0
  -19.1502  -28.8824   23.2918 C   0  0  0  0  0  0
  -18.9440  -30.1449   23.8895 C   0  0  0  0  0  0
  -17.6442  -30.6584   24.0560 C   0  0  0  0  0  0
  -25.9073  -34.9452   23.5097 C   0  0  0  0  0  0
  -16.5332  -29.9078   23.6343 C   0  0  0  0  0  0
  -16.7241  -28.6497   23.0346 C   0  0  0  0  0  0
  -26.4464  -31.6578   25.0684 C   0  0  0  0  0  0
  -25.3744  -31.3659   26.1427 C   0  0  0  0  0  0
  -27.0338  -30.3046   24.6074 C   0  0  0  0  0  0
  -27.6059  -32.4290   25.7440 C   0  0  0  0  0  0
  -27.5570  -37.1835   24.8463 C   0  0  0  0  0  0
  -21.4104  -29.2980   22.3746 N   0  0  0  0  0  0
  -26.4310  -37.3790   23.9371 N   0  0  0  0  0  0
  -24.6655  -31.0735   22.1022 N   0  0  0  0  0  0
  -23.4138  -28.8184   23.3071 O   0  0  0  0  0  0
  -28.4214  -26.7034   20.1090 O   0  0  0  0  0  0
  -26.5635  -34.8912   22.4661 O   0  0  0  0  0  0
  -23.5358  -32.1407   23.7547 O   0  0  0  0  0  0
  -27.6974  -20.8266   22.7790 C   0  0  0  0  0  0
  -27.6781  -19.4489   23.0254 C   0  0  0  0  0  0
  -28.4808  -21.2615   21.7074 C   0  0  0  0  0  0
  -29.0987  -19.0826   21.2563 C   0  0  0  0  0  0
  -26.8437  -18.8273   24.1260 C   0  0  0  0  0  0
  -30.6906  -18.7955   19.3090 C   0  0  0  0  0  0
  -28.6367  -17.4046   19.4146 C   0  0  0  0  0  0
  -29.6552  -24.6114   20.4390 C   0  0  0  0  0  0
  -30.5921  -16.9581   21.0470 C   0  0  0  0  0  0
  -28.3566  -25.2763   19.9343 C   0  0  0  0  0  0
  -29.6200  -23.0696   20.5817 C   0  0  0  0  0  0
  -29.7396  -18.0482   20.2822 C   0  0  0  0  0  0
  -28.3802  -18.5900   22.2631 N   0  0  0  0  0  0
  -29.1600  -20.3815   20.9458 N   0  0  0  0  0  0
  -30.0778  -15.5608   21.0122 N   0  0  0  0  0  0
  -28.5650  -22.6177   21.4337 O   0  0  0  0  0  0
  -31.4540  -12.3958   19.0886 H   0  0  0  0  0  0
  -30.2824  -11.3244   19.8142 H   0  0  0  0  0  0
  -29.7009  -11.7805   17.4210 H   0  0  0  0  0  0
  -29.6526  -13.4966   17.7328 H   0  0  0  0  0  0
  -27.8054  -11.3411   18.7982 H   0  0  0  0  0  0
  -27.3505  -12.6792   17.7832 H   0  0  0  0  0  0
  -27.6989  -14.2766   19.5806 H   0  0  0  0  0  0
  -28.6873  -12.0098   21.3586 H   0  0  0  0  0  0
  -28.4997  -13.6671   21.8448 H   0  0  0  0  0  0
  -25.2701   -9.5638   22.4933 H   0  0  0  0  0  0
  -24.0036   -7.4532   22.7374 H   0  0  0  0  0  0
  -21.0994   -8.8782   19.8805 H   0  0  0  0  0  0
  -22.3900  -10.9700   19.6106 H   0  0  0  0  0  0
  -21.2006   -7.6097   23.9760 H   0  0  0  0  0  0
  -21.1463   -6.0485   25.9125 H   0  0  0  0  0  0
  -22.0607   -2.7566   23.2938 H   0  0  0  0  0  0
  -22.4431  -11.9954   22.4657 H   0  0  0  0  0  0
  -21.1254  -13.1221   22.2577 H   0  0  0  0  0  0
  -24.6239  -15.8294   20.5203 H   0  0  0  0  0  0
  -26.2836  -15.6792   20.2142 H   0  0  0  0  0  0
  -26.7082  -32.5521   23.1110 H   0  0  0  0  0  0
  -24.9994  -33.9724   25.0362 H   0  0  0  0  0  0
  -22.6872  -31.3054   21.4169 H   0  0  0  0  0  0
  -23.3753  -35.9662   23.3365 H   0  0  0  0  0  0
  -24.3585  -36.8869   22.2046 H   0  0  0  0  0  0
  -23.7281  -37.6535   23.6631 H   0  0  0  0  0  0
  -26.0471  -31.5914   20.6047 H   0  0  0  0  0  0
  -26.8120  -30.8678   21.9932 H   0  0  0  0  0  0
  -28.0960  -29.0910   21.1573 H   0  0  0  0  0  0
  -26.0328  -25.9628   19.0177 H   0  0  0  0  0  0
  -23.9649  -27.2778   19.0561 H   0  0  0  0  0  0
  -23.7180  -30.5891   19.4077 H   0  0  0  0  0  0
  -22.7294  -29.2407   19.8735 H   0  0  0  0  0  0
  -25.1346  -36.1957   25.0834 H   0  0  0  0  0  0
  -20.9919  -28.3184   24.1482 H   0  0  0  0  0  0
  -20.5700  -26.2188   23.3597 H   0  0  0  0  0  0
  -21.6641  -26.7449   22.1229 H   0  0  0  0  0  0
  -19.6929  -25.6273   21.1236 H   0  0  0  0  0  0
  -19.6738  -27.3183   20.6764 H   0  0  0  0  0  0
  -17.4196  -26.6620   21.4018 H   0  0  0  0  0  0
  -18.0369  -26.0039   22.9024 H   0  0  0  0  0  0
  -19.7917  -30.7278   24.2216 H   0  0  0  0  0  0
  -17.5001  -31.6271   24.5156 H   0  0  0  0  0  0
  -15.5338  -30.2987   23.7696 H   0  0  0  0  0  0
  -15.8620  -28.0847   22.7046 H   0  0  0  0  0  0
  -24.5877  -30.7074   25.7699 H   0  0  0  0  0  0
  -24.8982  -32.2807   26.4984 H   0  0  0  0  0  0
  -25.8099  -30.8690   27.0106 H   0  0  0  0  0  0
  -26.2895  -29.6769   24.1161 H   0  0  0  0  0  0
  -27.4136  -29.7326   25.4545 H   0  0  0  0  0  0
  -27.8699  -30.4359   23.9209 H   0  0  0  0  0  0
  -27.2677  -33.3528   26.2154 H   0  0  0  0  0  0
  -28.3809  -32.6959   25.0231 H   0  0  0  0  0  0
  -28.0795  -31.8318   26.5254 H   0  0  0  0  0  0
  -28.2667  -38.0063   24.7495 H   0  0  0  0  0  0
  -28.1010  -36.2613   24.6373 H   0  0  0  0  0  0
  -27.2275  -37.1577   25.8866 H   0  0  0  0  0  0
  -20.9248  -29.8638   21.6925 H   0  0  0  0  0  0
  -26.0203  -38.2881   24.1347 H   0  0  0  0  0  0
  -27.1411  -21.5398   23.3717 H   0  0  0  0  0  0
  -26.4217  -19.5814   24.7863 H   0  0  0  0  0  0
  -27.4408  -18.1440   24.7291 H   0  0  0  0  0  0
  -26.0202  -18.2597   23.6909 H   0  0  0  0  0  0
  -30.1693  -19.5813   18.7591 H   0  0  0  0  0  0
  -31.1225  -18.1365   18.5577 H   0  0  0  0  0  0
  -31.5092  -19.2766   19.8453 H   0  0  0  0  0  0
  -28.1052  -18.1572   18.8307 H   0  0  0  0  0  0
  -27.9013  -16.8902   20.0310 H   0  0  0  0  0  0
  -29.0596  -16.6792   18.7171 H   0  0  0  0  0  0
  -29.9196  -25.0550   21.3984 H   0  0  0  0  0  0
  -30.4644  -24.8642   19.7528 H   0  0  0  0  0  0
  -30.7409  -17.2631   22.0853 H   0  0  0  0  0  0
  -31.6116  -16.9780   20.6553 H   0  0  0  0  0  0
  -27.5061  -24.8698   20.4875 H   0  0  0  0  0  0
  -28.2112  -25.0438   18.8771 H   0  0  0  0  0  0
  -30.5571  -22.7573   21.0412 H   0  0  0  0  0  0
  -29.5688  -22.5875   19.6059 H   0  0  0  0  0  0
  -29.1306  -15.4096   21.3309 H   0  0  0  0  0  0
  1 25  1  0  0  0
  1 30  2  0  0  0
  1 85  1  0  0  0
  2  3  1  0  0  0
  2 25  1  0  0  0
  2 87  1  0  0  0
  2 88  1  0  0  0
  3  4  1  0  0  0
  3 89  1  0  0  0
  3 90  1  0  0  0
  4  5  1  0  0  0
  4 91  1  0  0  0
  4 92  1  0  0  0
  5  6  1  0  0  0
  5 26  1  0  0  0
  5 93  1  0  0  0
  6 25  1  0  0  0
  6 94  1  0  0  0
  6 95  1  0  0  0
  7  8  2  0  0  0
  7 26  1  0  0  0
  7 29  1  0  0  0
  8  9  1  0  0  0
  8 22  1  0  0  0
  9 10  1  0  0  0
  9 27  2  0  0  0
 10 11  2  0  0  0
 10 15  1  0  0  0
 11 12  1  0  0  0
 11 96  1  0  0  0
 12 13  2  0  0  0
 12 97  1  0  0  0
 13 14  1  0  0  0
 13 31  1  0  0  0
 14 15  2  0  0  0
 14 98  1  0  0  0
 15 99  1  0  0  0
 16 17  2  0  0  0
 16 21  1  0  0  0
 16 31  1  0  0  0
 17 18  1  0  0  0
 17100  1  0  0  0
 18 19  2  0  0  0
 18101  1  0  0  0
 19 20  1  0  0  0
 19 24  1  0  0  0
 20 21  2  0  0  0
 20102  1  0  0  0
 21 23  1  0  0  0
 22 28  1  0  0  0
 22 32  2  0  0  0
 26 27  1  0  0  0
 28103  1  0  0  0
 28104  1  0  0  0
 29105  1  0  0  0
 29106  1  0  0  0
 33 34  1  0  0  0
 33 66  1  0  0  0
 33 70  2  0  0  0
 34 36  1  0  0  0
 34 59  1  0  0  0
 34107  1  0  0  0
 35 44  2  0  0  0
 35 45  1  0  0  0
 35 68  1  0  0  0
 36 56  1  0  0  0
 36108  1  0  0  0
 37 39  1  0  0  0
 37 47  1  0  0  0
 37 66  1  0  0  0
 37109  1  0  0  0
 38 43  2  0  0  0
 38 46  1  0  0  0
 38 47  1  0  0  0
 39 64  1  0  0  0
 39 67  2  0  0  0
 40 52  1  0  0  0
 40 53  2  0  0  0
 40 58  1  0  0  0
 41110  1  0  0  0
 41111  1  0  0  0
 41112  1  0  0  0
 41 48  1  0  0  0
 42 43  1  0  0  0
 42 66  1  0  0  0
 42113  1  0  0  0
 42114  1  0  0  0
 43 44  1  0  0  0
 44115  1  0  0  0
 45 46  2  0  0  0
 45116  1  0  0  0
 46117  1  0  0  0
 47118  1  0  0  0
 47119  1  0  0  0
 48 56  1  0  0  0
 48 65  1  0  0  0
 48120  1  0  0  0
 49 50  1  0  0  0
 49 53  1  0  0  0
 49 64  1  0  0  0
 49121  1  0  0  0
 50 51  1  0  0  0
 50122  1  0  0  0
 50123  1  0  0  0
 51 52  1  0  0  0
 51124  1  0  0  0
 51125  1  0  0  0
 52126  1  0  0  0
 52127  1  0  0  0
 53 54  1  0  0  0
 54 55  2  0  0  0
 54128  1  0  0  0
 55 57  1  0  0  0
 55129  1  0  0  0
 56 69  2  0  0  0
 57 58  2  0  0  0
 57130  1  0  0  0
 58131  1  0  0  0
 59 60  1  0  0  0
 59 61  1  0  0  0
 59 62  1  0  0  0
 60132  1  0  0  0
 60133  1  0  0  0
 60134  1  0  0  0
 61135  1  0  0  0
 61136  1  0  0  0
 61137  1  0  0  0
 62138  1  0  0  0
 62139  1  0  0  0
 62140  1  0  0  0
 63 65  1  0  0  0
 63141  1  0  0  0
 63142  1  0  0  0
 63143  1  0  0  0
 64144  1  0  0  0
 65145  1  0  0  0
 68 80  1  0  0  0
 71 72  2  0  0  0
 71 73  1  0  0  0
 71146  1  0  0  0
 72 75  1  0  0  0
 72 83  1  0  0  0
 73 84  2  0  0  0
 73 86  1  0  0  0
 74 82  1  0  0  0
 74 83  2  0  0  0
 74 84  1  0  0  0
 75147  1  0  0  0
 75148  1  0  0  0
 75149  1  0  0  0
 76150  1  0  0  0
 76151  1  0  0  0
 76152  1  0  0  0
 76 82  1  0  0  0
 77 82  1  0  0  0
 77153  1  0  0  0
 77154  1  0  0  0
 77155  1  0  0  0
 78 80  1  0  0  0
 78 81  1  0  0  0
 78156  1  0  0  0
 78157  1  0  0  0
 79 82  1  0  0  0
 79 85  1  0  0  0
 79158  1  0  0  0
 79159  1  0  0  0
 80160  1  0  0  0
 80161  1  0  0  0
 81 86  1  0  0  0
 81162  1  0  0  0
 81163  1  0  0  0
 85164  1  0  0  0
M  ISO  4   1 100  68 101  80 101  85 100
M  END
> <chiral flag>
0

> <version>
0

> <s_m_source_file>
/data/baiqing/PycharmProjects/Reinvent-master-3.2/result/LINK_invent/BTK/process_docking_weight1_custom_sum_contain_oxygen_bond_distance_aromatic_linkinvent_7_9_3/rearranged_h_0069.sdf

> <i_m_source_file_index>
55

> <r_mmod_Potential_Energy-OPLS-2005>
-513.929565429688

> <r_mmod_Stretch_Energy-OPLS-2005>
44.5047073364258

> <r_mmod_Bend_Energy-OPLS-2005>
116.146583557129

> <r_mmod_Torsional_Energy-OPLS-2005>
206.450531005859

> <r_mmod_Improper_Torsional_Energy-OPLS-2005>
4.3003363609314

> <r_mmod_Van_der_Waal_Energy-OPLS-2005>
174.831634521484

> <r_mmod_Electrostatic_Energy-OPLS-2005>
-866.658325195312

> <r_mmod_Solvation_Energy-OPLS-2005>
-210.154327392578

> <b_mmod_Minimization_Converged-OPLS-2005>
0

> <r_mmod_RMS_Derivative-OPLS-2005>
7.42353534698486

$$$$
55
                    3D
 Structure written by MMmdl.
156164  0  0  1  0            999 V2000
  -30.7232  -14.5001   20.5057 C   0  0  0  0  0  0
  -30.4179  -12.3034   19.4445 C   0  0  0  0  0  0
  -29.4984  -12.4752   18.2182 C   0  0  0  0  0  0
  -28.0166  -12.3579   18.6232 C   0  0  0  0  0  0
  -27.6584  -13.2195   19.8650 C   0  0  2  0  0  0
  -28.7041  -13.0571   20.9946 C   0  0  0  0  0  0
  -25.2549  -13.8211   20.5674 C   0  0  0  0  0  0
  -24.1822  -13.0468   20.9187 C   0  0  0  0  0  0
  -24.6394  -11.6941   20.8734 C   0  0  0  0  0  0
  -23.9062  -10.4315   21.0400 C   0  0  0  0  0  0
  -24.3619   -9.4226   21.9184 C   0  0  0  0  0  0
  -23.6293   -8.2258   22.0742 C   0  0  0  0  0  0
  -22.4277   -8.0299   21.3534 C   0  0  0  0  0  0
  -21.9907   -9.0280   20.4640 C   0  0  0  0  0  0
  -22.7237  -10.2160   20.3052 C   0  0  0  0  0  0
  -21.6863   -6.0745   22.5270 C   0  0  0  0  0  0
  -21.4032   -6.5638   23.8213 C   0  0  0  0  0  0
  -21.3660   -5.6782   24.9168 C   0  0  0  0  0  0
  -21.6041   -4.3046   24.7221 C   0  0  0  0  0  0
  -21.8812   -3.8145   23.4340 C   0  0  0  0  0  0
  -21.9191   -4.6970   22.3403 C   0  0  0  0  0  0
  -22.7835  -13.5260   21.1807 C   0  0  0  0  0  0
  -22.1642   -4.2158   21.0980 F   0  0  0  0  0  0
  -21.5635   -3.4518   25.7725 F   0  0  0  0  0  0
  -30.0349  -13.3274   20.4259 N   0  0  0  0  0  0
  -26.3002  -12.9411   20.3342 N   0  0  0  0  0  0
  -25.9324  -11.6553   20.5785 N   0  0  0  0  0  0
  -22.0436  -12.8311   22.0372 N   0  0  0  0  0  0
  -25.4259  -15.1935   20.4050 N   0  0  0  0  0  0
  -31.8821  -14.6200   20.1073 O   0  0  0  0  0  0
  -21.6650   -6.8892   21.4222 O   0  0  0  0  0  0
  -22.3529  -14.5544   20.6610 O   0  0  0  0  0  0
  -24.6190  -31.8632   23.2075 C   0  0  0  0  0  0
  -25.9057  -32.4803   23.8397 C   0  0  1  0  0  0
  -27.2625  -27.4206   20.0888 C   0  0  0  0  0  0
  -25.5911  -33.8601   24.2329 N   0  0  0  0  0  0
  -23.4124  -30.4827   21.5463 C   0  0  2  0  0  0
  -24.8668  -28.9349   20.1261 C   0  0  0  0  0  0
  -22.7446  -29.4630   22.4982 C   0  0  0  0  0  0
  -18.0269  -28.1425   22.8487 C   0  0  0  0  0  0
  -24.1484  -36.7325   23.2641 C   0  0  0  0  0  0
  -25.9425  -30.8212   21.3631 C   0  0  0  0  0  0
  -26.0260  -29.4498   20.7181 C   0  0  0  0  0  0
  -27.2292  -28.7004   20.6950 C   0  0  0  0  0  0
  -26.0818  -26.9175   19.5020 C   0  0  0  0  0  0
  -24.8868  -27.6659   19.5202 C   0  0  0  0  0  0
  -23.6293  -29.8074   20.1660 C   0  0  0  0  0  0
  -25.4098  -36.3098   24.0342 C   0  0  1  0  0  0
  -20.5867  -28.3695   23.1328 C   0  0  2  0  0  0
  -20.6745  -26.9429   22.5431 C   0  0  0  0  0  0
  -19.5722  -26.6411   21.5231 C   0  0  0  0  0  0
  -18.1904  -26.7961   22.1639 C   0  0  0  0  0  0
  -19.1524  -28.8874   23.2904 C   0  0  0  0  0  0
  -18.9450  -30.1470   23.8923 C   0  0  0  0  0  0
  -17.6459  -30.6611   24.0591 C   0  0  0  0  0  0
  -25.9025  -34.9465   23.5134 C   0  0  0  0  0  0
  -16.5348  -29.9134   23.6339 C   0  0  0  0  0  0
  -16.7259  -28.6569   23.0327 C   0  0  0  0  0  0
  -26.4488  -31.6594   25.0732 C   0  0  0  0  0  0
  -25.3778  -31.3712   26.1511 C   0  0  0  0  0  0
  -27.0323  -30.3035   24.6109 C   0  0  0  0  0  0
  -27.6063  -32.4322   25.7495 C   0  0  0  0  0  0
  -27.5573  -37.1823   24.8461 C   0  0  0  0  0  0
  -21.4164  -29.3066   22.3753 N   0  0  0  0  0  0
  -26.4282  -37.3786   23.9422 N   0  0  0  0  0  0
  -24.6765  -31.0703   22.0994 N   0  0  0  0  0  0
  -23.4202  -28.8143   23.3003 O   0  0  0  0  0  0
  -28.4301  -26.6802   20.0207 O   0  0  0  0  0  0
  -26.5574  -34.8915   22.4682 O   0  0  0  0  0  0
  -23.5378  -32.1378   23.7439 O   0  0  0  0  0  0
  -29.7957  -21.1142   19.6550 C   0  0  0  0  0  0
  -29.6378  -20.5910   21.7662 C   0  0  0  0  0  0
  -29.5523  -21.6843   20.9404 C   0  0  0  0  0  0
  -30.7933  -17.9157   22.7480 C   0  0  0  0  0  0
  -29.2218  -23.1121   21.3701 C   0  0  0  0  0  0
  -29.2041  -24.2473   20.3023 C   0  0  0  0  0  0
  -30.3514  -16.9829   20.4287 C   0  0  0  0  0  0
  -28.4732  -25.5112   20.8607 C   0  0  0  0  0  0
  -29.9207  -18.0443   21.4839 C   0  0  2  0  0  0
  -29.9796  -19.7938   19.7011 N   0  0  0  0  0  0
  -29.8865  -19.4541   21.0124 N   0  0  0  0  0  0
  -29.9986  -15.5917   20.8066 N   0  0  0  0  0  0
  -31.4642  -12.3867   19.1433 H   0  0  0  0  0  0
  -30.3107  -11.3052   19.8761 H   0  0  0  0  0  0
  -29.7365  -11.7210   17.4681 H   0  0  0  0  0  0
  -29.6811  -13.4433   17.7470 H   0  0  0  0  0  0
  -27.8106  -11.3067   18.8256 H   0  0  0  0  0  0
  -27.3784  -12.6308   17.7812 H   0  0  0  0  0  0
  -27.6899  -14.2587   19.5335 H   0  0  0  0  0  0
  -28.6734  -12.0491   21.4067 H   0  0  0  0  0  0
  -28.4812  -13.7308   21.8252 H   0  0  0  0  0  0
  -25.2763   -9.5742   22.4759 H   0  0  0  0  0  0
  -24.0010   -7.4665   22.7483 H   0  0  0  0  0  0
  -21.0828   -8.8822   19.8968 H   0  0  0  0  0  0
  -22.3685  -10.9709   19.6179 H   0  0  0  0  0  0
  -21.2018   -7.6138   23.9720 H   0  0  0  0  0  0
  -21.1485   -6.0508   25.9078 H   0  0  0  0  0  0
  -22.0585   -2.7604   23.2833 H   0  0  0  0  0  0
  -22.4014  -12.0051   22.4926 H   0  0  0  0  0  0
  -21.1038  -13.1395   22.2461 H   0  0  0  0  0  0
  -24.6650  -15.8539   20.5243 H   0  0  0  0  0  0
  -26.2650  -15.6262   20.0406 H   0  0  0  0  0  0
  -26.7129  -32.5518   23.1173 H   0  0  0  0  0  0
  -25.0106  -33.9748   25.0502 H   0  0  0  0  0  0
  -22.7029  -31.3010   21.4013 H   0  0  0  0  0  0
  -23.3712  -35.9693   23.3312 H   0  0  0  0  0  0
  -24.3571  -36.8919   22.2054 H   0  0  0  0  0  0
  -23.7266  -37.6553   23.6635 H   0  0  0  0  0  0
  -26.0475  -31.5779   20.5845 H   0  0  0  0  0  0
  -26.8336  -30.8884   21.9752 H   0  0  0  0  0  0
  -28.1295  -29.0980   21.1421 H   0  0  0  0  0  0
  -26.0931  -25.9498   19.0217 H   0  0  0  0  0  0
  -23.9960  -27.2593   19.0634 H   0  0  0  0  0  0
  -23.7532  -30.5801   19.4062 H   0  0  0  0  0  0
  -22.7526  -29.2331   19.8620 H   0  0  0  0  0  0
  -25.1267  -36.1972   25.0834 H   0  0  0  0  0  0
  -20.9952  -28.3256   24.1448 H   0  0  0  0  0  0
  -20.5649  -26.2310   23.3619 H   0  0  0  0  0  0
  -21.6617  -26.7467   22.1229 H   0  0  0  0  0  0
  -19.6861  -25.6321   21.1270 H   0  0  0  0  0  0
  -19.6657  -27.3210   20.6755 H   0  0  0  0  0  0
  -17.4172  -26.6718   21.4042 H   0  0  0  0  0  0
  -18.0280  -26.0122   22.9055 H   0  0  0  0  0  0
  -19.7920  -30.7288   24.2311 H   0  0  0  0  0  0
  -17.5011  -31.6276   24.5218 H   0  0  0  0  0  0
  -15.5345  -30.3057   23.7636 H   0  0  0  0  0  0
  -15.8655  -28.0919   22.6993 H   0  0  0  0  0  0
  -24.5927  -30.7064   25.7896 H   0  0  0  0  0  0
  -24.9002  -32.2877   26.4998 H   0  0  0  0  0  0
  -25.8177  -30.8887   27.0255 H   0  0  0  0  0  0
  -26.2863  -29.6782   24.1193 H   0  0  0  0  0  0
  -27.4128  -29.7283   25.4566 H   0  0  0  0  0  0
  -27.8686  -30.4349   23.9233 H   0  0  0  0  0  0
  -27.2669  -33.3604   26.2113 H   0  0  0  0  0  0
  -28.3866  -32.6922   25.0326 H   0  0  0  0  0  0
  -28.0749  -31.8429   26.5388 H   0  0  0  0  0  0
  -28.2611  -38.0102   24.7484 H   0  0  0  0  0  0
  -28.1054  -36.2636   24.6310 H   0  0  0  0  0  0
  -27.2303  -37.1515   25.8868 H   0  0  0  0  0  0
  -20.9322  -29.8892   21.7068 H   0  0  0  0  0  0
  -26.0164  -38.2869   24.1404 H   0  0  0  0  0  0
  -29.8157  -21.6155   18.6975 H   0  0  0  0  0  0
  -29.5122  -20.5315   22.8385 H   0  0  0  0  0  0
  -30.9054  -16.8763   23.0605 H   0  0  0  0  0  0
  -30.3576  -18.4561   23.5874 H   0  0  0  0  0  0
  -31.7914  -18.3201   22.5738 H   0  0  0  0  0  0
  -29.8951  -23.4241   22.1719 H   0  0  0  0  0  0
  -28.2348  -23.0981   21.8327 H   0  0  0  0  0  0
  -28.6939  -23.9059   19.4021 H   0  0  0  0  0  0
  -30.2283  -24.4906   20.0077 H   0  0  0  0  0  0
  -31.4236  -17.0879   20.2387 H   0  0  0  0  0  0
  -29.8488  -17.1759   19.4816 H   0  0  0  0  0  0
  -28.9696  -25.8161   21.7818 H   0  0  0  0  0  0
  -27.4637  -25.2121   21.1485 H   0  0  0  0  0  0
  -28.8940  -17.8063   21.7696 H   0  0  0  0  0  0
  -29.0498  -15.4272   21.1114 H   0  0  0  0  0  0
  1 25  1  0  0  0
  1 30  2  0  0  0
  1 82  1  0  0  0
  2  3  1  0  0  0
  2 25  1  0  0  0
  2 83  1  0  0  0
  2 84  1  0  0  0
  3  4  1  0  0  0
  3 85  1  0  0  0
  3 86  1  0  0  0
  4  5  1  0  0  0
  4 87  1  0  0  0
  4 88  1  0  0  0
  5  6  1  0  0  0
  5 26  1  0  0  0
  5 89  1  0  0  0
  6 25  1  0  0  0
  6 90  1  0  0  0
  6 91  1  0  0  0
  7  8  2  0  0  0
  7 26  1  0  0  0
  7 29  1  0  0  0
  8  9  1  0  0  0
  8 22  1  0  0  0
  9 10  1  0  0  0
  9 27  2  0  0  0
 10 11  2  0  0  0
 10 15  1  0  0  0
 11 12  1  0  0  0
 11 92  1  0  0  0
 12 13  2  0  0  0
 12 93  1  0  0  0
 13 14  1  0  0  0
 13 31  1  0  0  0
 14 15  2  0  0  0
 14 94  1  0  0  0
 15 95  1  0  0  0
 16 17  2  0  0  0
 16 21  1  0  0  0
 16 31  1  0  0  0
 17 18  1  0  0  0
 17 96  1  0  0  0
 18 19  2  0  0  0
 18 97  1  0  0  0
 19 20  1  0  0  0
 19 24  1  0  0  0
 20 21  2  0  0  0
 20 98  1  0  0  0
 21 23  1  0  0  0
 22 28  1  0  0  0
 22 32  2  0  0  0
 26 27  1  0  0  0
 28 99  1  0  0  0
 28100  1  0  0  0
 29101  1  0  0  0
 29102  1  0  0  0
 33 34  1  0  0  0
 33 66  1  0  0  0
 33 70  2  0  0  0
 34 36  1  0  0  0
 34 59  1  0  0  0
 34103  1  0  0  0
 35 44  2  0  0  0
 35 45  1  0  0  0
 35 68  1  0  0  0
 36 56  1  0  0  0
 36104  1  0  0  0
 37 39  1  0  0  0
 37 47  1  0  0  0
 37 66  1  0  0  0
 37105  1  0  0  0
 38 43  2  0  0  0
 38 46  1  0  0  0
 38 47  1  0  0  0
 39 64  1  0  0  0
 39 67  2  0  0  0
 40 52  1  0  0  0
 40 53  2  0  0  0
 40 58  1  0  0  0
 41106  1  0  0  0
 41107  1  0  0  0
 41108  1  0  0  0
 41 48  1  0  0  0
 42 43  1  0  0  0
 42 66  1  0  0  0
 42109  1  0  0  0
 42110  1  0  0  0
 43 44  1  0  0  0
 44111  1  0  0  0
 45 46  2  0  0  0
 45112  1  0  0  0
 46113  1  0  0  0
 47114  1  0  0  0
 47115  1  0  0  0
 48 56  1  0  0  0
 48 65  1  0  0  0
 48116  1  0  0  0
 49 50  1  0  0  0
 49 53  1  0  0  0
 49 64  1  0  0  0
 49117  1  0  0  0
 50 51  1  0  0  0
 50118  1  0  0  0
 50119  1  0  0  0
 51 52  1  0  0  0
 51120  1  0  0  0
 51121  1  0  0  0
 52122  1  0  0  0
 52123  1  0  0  0
 53 54  1  0  0  0
 54 55  2  0  0  0
 54124  1  0  0  0
 55 57  1  0  0  0
 55125  1  0  0  0
 56 69  2  0  0  0
 57 58  2  0  0  0
 57126  1  0  0  0
 58127  1  0  0  0
 59 60  1  0  0  0
 59 61  1  0  0  0
 59 62  1  0  0  0
 60128  1  0  0  0
 60129  1  0  0  0
 60130  1  0  0  0
 61131  1  0  0  0
 61132  1  0  0  0
 61133  1  0  0  0
 62134  1  0  0  0
 62135  1  0  0  0
 62136  1  0  0  0
 63 65  1  0  0  0
 63137  1  0  0  0
 63138  1  0  0  0
 63139  1  0  0  0
 64140  1  0  0  0
 65141  1  0  0  0
 68 78  1  0  0  0
 71 73  1  0  0  0
 71 80  2  0  0  0
 71142  1  0  0  0
 72 73  2  0  0  0
 72 81  1  0  0  0
 72143  1  0  0  0
 73 75  1  0  0  0
 74144  1  0  0  0
 74145  1  0  0  0
 74146  1  0  0  0
 74 79  1  0  0  0
 75 76  1  0  0  0
 75147  1  0  0  0
 75148  1  0  0  0
 76 78  1  0  0  0
 76149  1  0  0  0
 76150  1  0  0  0
 77 79  1  0  0  0
 77 82  1  0  0  0
 77151  1  0  0  0
 77152  1  0  0  0
 78153  1  0  0  0
 78154  1  0  0  0
 79 81  1  0  0  0
 79155  1  0  0  0
 80 81  1  0  0  0
 82156  1  0  0  0
M  ISO  4   1 100  68 101  78 101  82 100
M  END
> <chiral flag>
0

> <version>
0

> <s_m_source_file>
/data/baiqing/PycharmProjects/Reinvent-master-3.2/result/LINK_invent/BTK/process_docking_weight1_custom_sum_contain_oxygen_bond_distance_aromatic_linkinvent_7_9_3/rearranged_h_0069.sdf

> <i_m_source_file_index>
56

> <r_mmod_Potential_Energy-OPLS-2005>
-52.4318046569824

> <r_mmod_Stretch_Energy-OPLS-2005>
41.8813247680664

> <r_mmod_Bend_Energy-OPLS-2005>
105.944259643555

> <r_mmod_Torsional_Energy-OPLS-2005>
254.512176513672

> <r_mmod_Improper_Torsional_Energy-OPLS-2005>
6.75718879699707

> <r_mmod_Van_der_Waal_Energy-OPLS-2005>
125.206176757812

> <r_mmod_Electrostatic_Energy-OPLS-2005>
-384.011260986328

> <r_mmod_Solvation_Energy-OPLS-2005>
-221.483489990234

> <b_mmod_Minimization_Converged-OPLS-2005>
0

> <r_mmod_RMS_Derivative-OPLS-2005>
4.74741411209106

$$$$
56
                    3D
 Structure written by MMmdl.
170178  0  0  1  0            999 V2000
  -30.8063  -14.6606   20.5611 C   0  0  0  0  0  0
  -30.4035  -12.4087   19.5332 C   0  0  0  0  0  0
  -29.5212  -12.5417   18.2718 C   0  0  0  0  0  0
  -28.0474  -12.3590   18.6613 C   0  0  0  0  0  0
  -27.6570  -13.2476   19.8719 C   0  0  2  0  0  0
  -28.6981  -13.1780   21.0222 C   0  0  0  0  0  0
  -25.2554  -13.8288   20.5659 C   0  0  0  0  0  0
  -24.1843  -13.0492   20.9151 C   0  0  0  0  0  0
  -24.6454  -11.6980   20.8769 C   0  0  0  0  0  0
  -23.9143  -10.4335   21.0404 C   0  0  0  0  0  0
  -24.3695   -9.4260   21.9159 C   0  0  0  0  0  0
  -23.6379   -8.2279   22.0742 C   0  0  0  0  0  0
  -22.4359   -8.0310   21.3549 C   0  0  0  0  0  0
  -22.0007   -9.0267   20.4640 C   0  0  0  0  0  0
  -22.7323  -10.2151   20.3054 C   0  0  0  0  0  0
  -21.6876   -6.0755   22.5266 C   0  0  0  0  0  0
  -21.4000   -6.5643   23.8198 C   0  0  0  0  0  0
  -21.3693   -5.6795   24.9141 C   0  0  0  0  0  0
  -21.6062   -4.3054   24.7195 C   0  0  0  0  0  0
  -21.8826   -3.8151   23.4315 C   0  0  0  0  0  0
  -21.9202   -4.6978   22.3369 C   0  0  0  0  0  0
  -22.7854  -13.5275   21.1733 C   0  0  0  0  0  0
  -22.1693   -4.2162   21.0946 F   0  0  0  0  0  0
  -21.5647   -3.4552   25.7722 F   0  0  0  0  0  0
  -30.0369  -13.4999   20.4889 N   0  0  0  0  0  0
  -26.3039  -12.9522   20.3369 N   0  0  0  0  0  0
  -25.9430  -11.6652   20.5824 N   0  0  0  0  0  0
  -22.0535  -12.8276   22.0330 N   0  0  0  0  0  0
  -25.4142  -15.2004   20.3987 N   0  0  0  0  0  0
  -31.7910  -14.6522   19.8312 O   0  0  0  0  0  0
  -21.6688   -6.8937   21.4259 O   0  0  0  0  0  0
  -22.3515  -14.5493   20.6482 O   0  0  0  0  0  0
  -24.6297  -31.8590   23.2008 C   0  0  0  0  0  0
  -25.9161  -32.4765   23.8326 C   0  0  1  0  0  0
  -27.2034  -27.2786   20.1406 C   0  0  0  0  0  0
  -25.5951  -33.8572   24.2248 N   0  0  0  0  0  0
  -23.4233  -30.4859   21.5419 C   0  0  2  0  0  0
  -24.8667  -28.9377   20.1079 C   0  0  0  0  0  0
  -22.7476  -29.4650   22.4894 C   0  0  0  0  0  0
  -18.0298  -28.1406   22.8502 C   0  0  0  0  0  0
  -24.1478  -36.7282   23.2631 C   0  0  0  0  0  0
  -25.9652  -30.7820   21.3740 C   0  0  0  0  0  0
  -26.0376  -29.4037   20.7201 C   0  0  0  0  0  0
  -27.2085  -28.5851   20.7294 C   0  0  0  0  0  0
  -26.0160  -26.8887   19.4759 C   0  0  0  0  0  0
  -24.8585  -27.6869   19.4764 C   0  0  0  0  0  0
  -23.6371  -29.8206   20.1565 C   0  0  0  0  0  0
  -25.4108  -36.3052   24.0302 C   0  0  1  0  0  0
  -20.5914  -28.3711   23.1266 C   0  0  2  0  0  0
  -20.6796  -26.9430   22.5405 C   0  0  0  0  0  0
  -19.5763  -26.6392   21.5224 C   0  0  0  0  0  0
  -18.1938  -26.7959   22.1633 C   0  0  0  0  0  0
  -19.1561  -28.8878   23.2881 C   0  0  0  0  0  0
  -18.9480  -30.1471   23.8915 C   0  0  0  0  0  0
  -17.6488  -30.6616   24.0569 C   0  0  0  0  0  0
  -25.9062  -34.9426   23.5071 C   0  0  0  0  0  0
  -16.5380  -29.9117   23.6336 C   0  0  0  0  0  0
  -16.7293  -28.6525   23.0388 C   0  0  0  0  0  0
  -26.4540  -31.6599   25.0720 C   0  0  0  0  0  0
  -25.3754  -31.3825   26.1435 C   0  0  0  0  0  0
  -27.0380  -30.3007   24.6202 C   0  0  0  0  0  0
  -27.6056  -32.4374   25.7517 C   0  0  0  0  0  0
  -27.5559  -37.1791   24.8459 C   0  0  0  0  0  0
  -21.4210  -29.3073   22.3652 N   0  0  0  0  0  0
  -26.4279  -37.3755   23.9395 N   0  0  0  0  0  0
  -24.6920  -31.0575   22.0958 N   0  0  0  0  0  0
  -23.4183  -28.8190   23.2966 O   0  0  0  0  0  0
  -28.2821  -26.3747   20.2463 O   0  0  0  0  0  0
  -26.5628  -34.8923   22.4645 O   0  0  0  0  0  0
  -23.5442  -32.1385   23.7326 O   0  0  0  0  0  0
  -29.1629  -16.9398   19.4477 C   0  0  0  0  0  0
  -29.8864  -17.2165   20.6275 C   0  0  0  0  0  0
  -28.2517  -19.0925   19.3983 C   0  0  0  0  0  0
  -29.0685  -19.4932   20.4948 C   0  0  0  0  0  0
  -27.1446  -19.9367   18.7897 C   0  0  0  0  0  0
  -29.8441  -15.7974   22.7172 C   0  0  0  0  0  0
  -32.1991  -17.6619   22.9574 C   0  0  0  0  0  0
  -33.0192  -15.4467   22.4580 C   0  0  0  0  0  0
  -32.9557  -17.1842   20.6387 C   0  0  0  0  0  0
  -29.1929  -20.9741   21.0588 C   0  0  0  0  0  0
  -28.4860  -22.2325   20.3623 C   0  0  0  0  0  0
  -28.8871  -23.7463   20.7279 C   0  0  0  0  0  0
  -28.0010  -24.9125   20.0690 C   0  0  0  0  0  0
  -30.6530  -16.0547   21.4199 C   0  0  1  0  0  0
  -32.1477  -16.5751   21.8340 C   0  0  0  0  0  0
  -28.3402  -17.8459   18.8658 N   0  0  0  0  0  0
  -29.8225  -18.5142   21.1213 N   0  0  0  0  0  0
  -31.4616  -12.3807   19.2671 H   0  0  0  0  0  0
  -30.2348  -11.4375   20.0023 H   0  0  0  0  0  0
  -29.8137  -11.8154   17.5115 H   0  0  0  0  0  0
  -29.6675  -13.5242   17.8190 H   0  0  0  0  0  0
  -27.8951  -11.3088   18.9157 H   0  0  0  0  0  0
  -27.3973  -12.5625   17.8075 H   0  0  0  0  0  0
  -27.6569  -14.2732   19.5022 H   0  0  0  0  0  0
  -28.6971  -12.1854   21.4743 H   0  0  0  0  0  0
  -28.3958  -13.8552   21.8104 H   0  0  0  0  0  0
  -25.2866   -9.5725   22.4715 H   0  0  0  0  0  0
  -24.0111   -7.4684   22.7485 H   0  0  0  0  0  0
  -21.0930   -8.8766   19.8977 H   0  0  0  0  0  0
  -22.3768  -10.9671   19.6154 H   0  0  0  0  0  0
  -21.1973   -7.6140   23.9687 H   0  0  0  0  0  0
  -21.1542   -6.0507   25.9040 H   0  0  0  0  0  0
  -22.0581   -2.7621   23.2769 H   0  0  0  0  0  0
  -22.4257  -12.0069   22.4860 H   0  0  0  0  0  0
  -21.1090  -13.1196   22.2379 H   0  0  0  0  0  0
  -24.6180  -15.8295   20.4535 H   0  0  0  0  0  0
  -26.2435  -15.6522   20.0351 H   0  0  0  0  0  0
  -26.7217  -32.5430   23.1059 H   0  0  0  0  0  0
  -25.0109  -33.9713   25.0396 H   0  0  0  0  0  0
  -22.7176  -31.3058   21.3995 H   0  0  0  0  0  0
  -23.3737  -35.9623   23.3311 H   0  0  0  0  0  0
  -24.3572  -36.8905   22.2041 H   0  0  0  0  0  0
  -23.7241  -37.6487   23.6685 H   0  0  0  0  0  0
  -26.0941  -31.5429   20.6020 H   0  0  0  0  0  0
  -26.8451  -30.8360   22.0023 H   0  0  0  0  0  0
  -28.1008  -28.9287   21.2317 H   0  0  0  0  0  0
  -25.9432  -25.9411   18.9656 H   0  0  0  0  0  0
  -23.9612  -27.3305   18.9925 H   0  0  0  0  0  0
  -23.7541  -30.5975   19.3977 H   0  0  0  0  0  0
  -22.7583  -29.2469   19.8560 H   0  0  0  0  0  0
  -25.1295  -36.1878   25.0791 H   0  0  0  0  0  0
  -21.0015  -28.3306   24.1395 H   0  0  0  0  0  0
  -20.5725  -26.2322   23.3610 H   0  0  0  0  0  0
  -21.6648  -26.7486   22.1181 H   0  0  0  0  0  0
  -19.6915  -25.6298   21.1259 H   0  0  0  0  0  0
  -19.6692  -27.3201   20.6757 H   0  0  0  0  0  0
  -17.4199  -26.6716   21.4040 H   0  0  0  0  0  0
  -18.0344  -26.0094   22.9029 H   0  0  0  0  0  0
  -19.7969  -30.7266   24.2289 H   0  0  0  0  0  0
  -17.5069  -31.6313   24.5149 H   0  0  0  0  0  0
  -15.5390  -30.3030   23.7680 H   0  0  0  0  0  0
  -15.8688  -28.0843   22.7128 H   0  0  0  0  0  0
  -24.5882  -30.7221   25.7812 H   0  0  0  0  0  0
  -24.9003  -32.3017   26.4839 H   0  0  0  0  0  0
  -25.8042  -30.9029   27.0224 H   0  0  0  0  0  0
  -26.2969  -29.6782   24.1175 H   0  0  0  0  0  0
  -27.4006  -29.7275   25.4737 H   0  0  0  0  0  0
  -27.8873  -30.4307   23.9481 H   0  0  0  0  0  0
  -27.2616  -33.3675   26.2074 H   0  0  0  0  0  0
  -28.3892  -32.6961   25.0378 H   0  0  0  0  0  0
  -28.0712  -31.8530   26.5455 H   0  0  0  0  0  0
  -28.2579  -38.0082   24.7509 H   0  0  0  0  0  0
  -28.1050  -36.2621   24.6291 H   0  0  0  0  0  0
  -27.2293  -37.1440   25.8867 H   0  0  0  0  0  0
  -20.9388  -29.8753   21.6842 H   0  0  0  0  0  0
  -26.0146  -38.2813   24.1456 H   0  0  0  0  0  0
  -29.1769  -15.9717   18.9756 H   0  0  0  0  0  0
  -26.4520  -20.2625   19.5698 H   0  0  0  0  0  0
  -26.5612  -19.3561   18.0775 H   0  0  0  0  0  0
  -27.5066  -20.8006   18.2386 H   0  0  0  0  0  0
  -29.9567  -16.5909   23.4537 H   0  0  0  0  0  0
  -30.1446  -14.8658   23.1963 H   0  0  0  0  0  0
  -28.7750  -15.7751   22.5242 H   0  0  0  0  0  0
  -33.2069  -18.0764   23.0519 H   0  0  0  0  0  0
  -31.9811  -17.2432   23.9400 H   0  0  0  0  0  0
  -31.5466  -18.5174   22.8068 H   0  0  0  0  0  0
  -33.9547  -15.8389   22.8564 H   0  0  0  0  0  0
  -33.3131  -14.6725   21.7532 H   0  0  0  0  0  0
  -32.5074  -14.9576   23.2856 H   0  0  0  0  0  0
  -33.8470  -17.7234   20.9697 H   0  0  0  0  0  0
  -32.3718  -17.8786   20.0332 H   0  0  0  0  0  0
  -33.3434  -16.4287   19.9604 H   0  0  0  0  0  0
  -30.2636  -21.1760   21.0837 H   0  0  0  0  0  0
  -28.8894  -20.9425   22.1078 H   0  0  0  0  0  0
  -27.4069  -22.1312   20.5042 H   0  0  0  0  0  0
  -28.6736  -22.1575   19.2976 H   0  0  0  0  0  0
  -29.9292  -23.8902   20.4435 H   0  0  0  0  0  0
  -28.8488  -23.8669   21.8113 H   0  0  0  0  0  0
  -26.9906  -24.6989   20.4216 H   0  0  0  0  0  0
  -27.9822  -24.7328   18.9958 H   0  0  0  0  0  0
  1 25  1  0  0  0
  1 30  2  0  0  0
  1 84  1  0  0  0
  2  3  1  0  0  0
  2 25  1  0  0  0
  2 88  1  0  0  0
  2 89  1  0  0  0
  3  4  1  0  0  0
  3 90  1  0  0  0
  3 91  1  0  0  0
  4  5  1  0  0  0
  4 92  1  0  0  0
  4 93  1  0  0  0
  5  6  1  0  0  0
  5 26  1  0  0  0
  5 94  1  0  0  0
  6 25  1  0  0  0
  6 95  1  0  0  0
  6 96  1  0  0  0
  7  8  2  0  0  0
  7 26  1  0  0  0
  7 29  1  0  0  0
  8  9  1  0  0  0
  8 22  1  0  0  0
  9 10  1  0  0  0
  9 27  2  0  0  0
 10 11  2  0  0  0
 10 15  1  0  0  0
 11 12  1  0  0  0
 11 97  1  0  0  0
 12 13  2  0  0  0
 12 98  1  0  0  0
 13 14  1  0  0  0
 13 31  1  0  0  0
 14 15  2  0  0  0
 14 99  1  0  0  0
 15100  1  0  0  0
 16 17  2  0  0  0
 16 21  1  0  0  0
 16 31  1  0  0  0
 17 18  1  0  0  0
 17101  1  0  0  0
 18 19  2  0  0  0
 18102  1  0  0  0
 19 20  1  0  0  0
 19 24  1  0  0  0
 20 21  2  0  0  0
 20103  1  0  0  0
 21 23  1  0  0  0
 22 28  1  0  0  0
 22 32  2  0  0  0
 26 27  1  0  0  0
 28104  1  0  0  0
 28105  1  0  0  0
 29106  1  0  0  0
 29107  1  0  0  0
 33 34  1  0  0  0
 33 66  1  0  0  0
 33 70  2  0  0  0
 34 36  1  0  0  0
 34 59  1  0  0  0
 34108  1  0  0  0
 35 44  2  0  0  0
 35 45  1  0  0  0
 35 68  1  0  0  0
 36 56  1  0  0  0
 36109  1  0  0  0
 37 39  1  0  0  0
 37 47  1  0  0  0
 37 66  1  0  0  0
 37110  1  0  0  0
 38 43  2  0  0  0
 38 46  1  0  0  0
 38 47  1  0  0  0
 39 64  1  0  0  0
 39 67  2  0  0  0
 40 52  1  0  0  0
 40 53  2  0  0  0
 40 58  1  0  0  0
 41111  1  0  0  0
 41112  1  0  0  0
 41113  1  0  0  0
 41 48  1  0  0  0
 42 43  1  0  0  0
 42 66  1  0  0  0
 42114  1  0  0  0
 42115  1  0  0  0
 43 44  1  0  0  0
 44116  1  0  0  0
 45 46  2  0  0  0
 45117  1  0  0  0
 46118  1  0  0  0
 47119  1  0  0  0
 47120  1  0  0  0
 48 56  1  0  0  0
 48 65  1  0  0  0
 48121  1  0  0  0
 49 50  1  0  0  0
 49 53  1  0  0  0
 49 64  1  0  0  0
 49122  1  0  0  0
 50 51  1  0  0  0
 50123  1  0  0  0
 50124  1  0  0  0
 51 52  1  0  0  0
 51125  1  0  0  0
 51126  1  0  0  0
 52127  1  0  0  0
 52128  1  0  0  0
 53 54  1  0  0  0
 54 55  2  0  0  0
 54129  1  0  0  0
 55 57  1  0  0  0
 55130  1  0  0  0
 56 69  2  0  0  0
 57 58  2  0  0  0
 57131  1  0  0  0
 58132  1  0  0  0
 59 60  1  0  0  0
 59 61  1  0  0  0
 59 62  1  0  0  0
 60133  1  0  0  0
 60134  1  0  0  0
 60135  1  0  0  0
 61136  1  0  0  0
 61137  1  0  0  0
 61138  1  0  0  0
 62139  1  0  0  0
 62140  1  0  0  0
 62141  1  0  0  0
 63 65  1  0  0  0
 63142  1  0  0  0
 63143  1  0  0  0
 63144  1  0  0  0
 64145  1  0  0  0
 65146  1  0  0  0
 68 83  1  0  0  0
 71 72  2  0  0  0
 71 86  1  0  0  0
 71147  1  0  0  0
 72 84  1  0  0  0
 72 87  1  0  0  0
 73 74  1  0  0  0
 73 75  1  0  0  0
 73 86  2  0  0  0
 74 80  1  0  0  0
 74 87  2  0  0  0
 75148  1  0  0  0
 75149  1  0  0  0
 75150  1  0  0  0
 76151  1  0  0  0
 76152  1  0  0  0
 76153  1  0  0  0
 76 84  1  0  0  0
 77154  1  0  0  0
 77155  1  0  0  0
 77156  1  0  0  0
 77 85  1  0  0  0
 78 85  1  0  0  0
 78157  1  0  0  0
 78158  1  0  0  0
 78159  1  0  0  0
 79 85  1  0  0  0
 79160  1  0  0  0
 79161  1  0  0  0
 79162  1  0  0  0
 80 81  1  0  0  0
 80163  1  0  0  0
 80164  1  0  0  0
 81 82  1  0  0  0
 81165  1  0  0  0
 81166  1  0  0  0
 82 83  1  0  0  0
 82167  1  0  0  0
 82168  1  0  0  0
 83169  1  0  0  0
 83170  1  0  0  0
 84 85  1  0  0  0
M  ISO  4   1 100  68 101  83 101  84 100
M  END
> <chiral flag>
0

> <version>
0

> <s_m_source_file>
/data/baiqing/PycharmProjects/Reinvent-master-3.2/result/LINK_invent/BTK/process_docking_weight1_custom_sum_contain_oxygen_bond_distance_aromatic_linkinvent_7_9_3/rearranged_h_0069.sdf

> <i_m_source_file_index>
57

> <r_mmod_Potential_Energy-OPLS-2005>
444.177551269531

> <r_mmod_Stretch_Energy-OPLS-2005>
146.819610595703

> <r_mmod_Bend_Energy-OPLS-2005>
222.048782348633

> <r_mmod_Torsional_Energy-OPLS-2005>
180.552490234375

> <r_mmod_Improper_Torsional_Energy-OPLS-2005>
2.5581579208374

> <r_mmod_Van_der_Waal_Energy-OPLS-2005>
189.542022705078

> <r_mmod_Electrostatic_Energy-OPLS-2005>
-192.540100097656

> <r_mmod_Solvation_Energy-OPLS-2005>
-180.014556884766

> <b_mmod_Minimization_Converged-OPLS-2005>
0

> <r_mmod_RMS_Derivative-OPLS-2005>
6.88374328613281

$$$$
57
                    3D
 Structure written by MMmdl.
158166  0  0  1  0            999 V2000
  -30.5761  -14.8597   20.4078 C   0  0  0  0  0  0
  -30.4461  -12.5243   19.4978 C   0  0  0  0  0  0
  -29.5244  -12.5268   18.2588 C   0  0  0  0  0  0
  -28.0571  -12.3271   18.6761 C   0  0  0  0  0  0
  -27.6472  -13.2438   19.8599 C   0  0  2  0  0  0
  -28.6911  -13.2287   21.0020 C   0  0  0  0  0  0
  -25.2536  -13.8205   20.5715 C   0  0  0  0  0  0
  -24.1807  -13.0432   20.9219 C   0  0  0  0  0  0
  -24.6420  -11.6937   20.8750 C   0  0  0  0  0  0
  -23.9107  -10.4295   21.0416 C   0  0  0  0  0  0
  -24.3654   -9.4217   21.9206 C   0  0  0  0  0  0
  -23.6320   -8.2259   22.0772 C   0  0  0  0  0  0
  -22.4293   -8.0308   21.3557 C   0  0  0  0  0  0
  -21.9941   -9.0289   20.4659 C   0  0  0  0  0  0
  -22.7280  -10.2162   20.3073 C   0  0  0  0  0  0
  -21.6868   -6.0751   22.5281 C   0  0  0  0  0  0
  -21.4009   -6.5654   23.8215 C   0  0  0  0  0  0
  -21.3659   -5.6806   24.9186 C   0  0  0  0  0  0
  -21.6052   -4.3072   24.7232 C   0  0  0  0  0  0
  -21.8815   -3.8160   23.4355 C   0  0  0  0  0  0
  -21.9196   -4.6972   22.3412 C   0  0  0  0  0  0
  -22.7845  -13.5241   21.1876 C   0  0  0  0  0  0
  -22.1671   -4.2168   21.0989 F   0  0  0  0  0  0
  -21.5630   -3.4545   25.7744 F   0  0  0  0  0  0
  -29.9856  -13.6043   20.4109 N   0  0  0  0  0  0
  -26.2974  -12.9440   20.3344 N   0  0  0  0  0  0
  -25.9360  -11.6567   20.5801 N   0  0  0  0  0  0
  -22.0475  -12.8215   22.0416 N   0  0  0  0  0  0
  -25.4180  -15.1935   20.4086 N   0  0  0  0  0  0
  -31.7522  -14.9617   20.0482 O   0  0  0  0  0  0
  -21.6659   -6.8899   21.4247 O   0  0  0  0  0  0
  -22.3558  -14.5550   20.6762 O   0  0  0  0  0  0
  -24.6418  -31.8484   23.1947 C   0  0  0  0  0  0
  -25.9189  -32.4732   23.8318 C   0  0  1  0  0  0
  -27.2177  -27.1630   20.1354 C   0  0  0  0  0  0
  -25.5940  -33.8532   24.2231 N   0  0  0  0  0  0
  -23.4433  -30.4727   21.5395 C   0  0  2  0  0  0
  -24.8930  -28.9126   20.1107 C   0  0  0  0  0  0
  -22.7549  -29.4592   22.4866 C   0  0  0  0  0  0
  -18.0322  -28.1376   22.8495 C   0  0  0  0  0  0
  -24.1484  -36.7282   23.2639 C   0  0  0  0  0  0
  -25.9993  -30.7311   21.3886 C   0  0  0  0  0  0
  -26.0737  -29.3454   20.7288 C   0  0  0  0  0  0
  -27.2354  -28.4865   20.7322 C   0  0  0  0  0  0
  -26.0099  -26.8411   19.4687 C   0  0  0  0  0  0
  -24.8734  -27.6714   19.4645 C   0  0  0  0  0  0
  -23.6671  -29.8112   20.1563 C   0  0  0  0  0  0
  -25.4117  -36.3057   24.0321 C   0  0  1  0  0  0
  -20.5932  -28.3709   23.1210 C   0  0  2  0  0  0
  -20.6810  -26.9443   22.5307 C   0  0  0  0  0  0
  -19.5714  -26.6432   21.5170 C   0  0  0  0  0  0
  -18.1958  -26.7875   22.1723 C   0  0  0  0  0  0
  -19.1581  -28.8863   23.2855 C   0  0  0  0  0  0
  -18.9502  -30.1468   23.8870 C   0  0  0  0  0  0
  -17.6507  -30.6580   24.0575 C   0  0  0  0  0  0
  -25.9063  -34.9431   23.5077 C   0  0  0  0  0  0
  -16.5397  -29.9077   23.6356 C   0  0  0  0  0  0
  -16.7318  -28.6485   23.0391 C   0  0  0  0  0  0
  -26.4518  -31.6585   25.0740 C   0  0  0  0  0  0
  -25.3707  -31.3765   26.1436 C   0  0  0  0  0  0
  -27.0381  -30.2991   24.6283 C   0  0  0  0  0  0
  -27.6042  -32.4344   25.7532 C   0  0  0  0  0  0
  -27.5578  -37.1799   24.8466 C   0  0  0  0  0  0
  -21.4248  -29.3074   22.3611 N   0  0  0  0  0  0
  -26.4290  -37.3768   23.9410 N   0  0  0  0  0  0
  -24.7149  -31.0357   22.0965 N   0  0  0  0  0  0
  -23.4193  -28.8118   23.2995 O   0  0  0  0  0  0
  -28.2551  -26.1607   20.2143 O   0  0  0  0  0  0
  -26.5641  -34.8922   22.4656 O   0  0  0  0  0  0
  -23.5536  -32.1353   23.7180 O   0  0  0  0  0  0
  -28.8660  -22.3417   19.0850 C   0  0  0  0  0  0
  -28.9017  -22.6248   21.4051 C   0  0  0  0  0  0
  -28.6617  -23.2737   20.1580 C   0  0  0  0  0  0
  -29.2201  -20.9422   19.2630 C   0  0  0  0  0  0
  -29.3835  -20.3726   20.5654 C   0  0  0  0  0  0
  -29.3783  -20.0788   18.0268 C   0  0  0  0  0  0
  -28.6112  -18.4264   22.0475 C   0  0  0  0  0  0
  -31.0857  -18.8361   21.6918 C   0  0  0  0  0  0
  -27.8612  -24.6908   19.9464 C   0  0  0  0  0  0
  -29.8156  -17.4668   20.0402 C   0  0  0  0  0  0
  -29.7025  -18.8053   21.0205 C   0  0  0  0  0  0
  -29.2490  -21.2950   21.5808 N   0  0  0  0  0  0
  -29.7760  -15.9963   20.5929 N   0  0  0  0  0  0
  -31.4818  -12.6610   19.1837 H   0  0  0  0  0  0
  -30.4213  -11.5600   20.0073 H   0  0  0  0  0  0
  -29.8291  -11.7414   17.5671 H   0  0  0  0  0  0
  -29.6272  -13.4746   17.7231 H   0  0  0  0  0  0
  -27.9404  -11.2796   18.9622 H   0  0  0  0  0  0
  -27.3964  -12.4926   17.8227 H   0  0  0  0  0  0
  -27.6263  -14.2597   19.4610 H   0  0  0  0  0  0
  -28.7533  -12.2455   21.4745 H   0  0  0  0  0  0
  -28.4093  -13.9294   21.7906 H   0  0  0  0  0  0
  -25.2789   -9.5712   22.4792 H   0  0  0  0  0  0
  -24.0038   -7.4650   22.7491 H   0  0  0  0  0  0
  -21.0878   -8.8815   19.8949 H   0  0  0  0  0  0
  -22.3743  -10.9719   19.6197 H   0  0  0  0  0  0
  -21.1988   -7.6157   23.9727 H   0  0  0  0  0  0
  -21.1488   -6.0537   25.9096 H   0  0  0  0  0  0
  -22.0587   -2.7617   23.2851 H   0  0  0  0  0  0
  -22.4102  -11.9884   22.4783 H   0  0  0  0  0  0
  -21.1103  -13.1236   22.2642 H   0  0  0  0  0  0
  -24.6362  -15.8324   20.5063 H   0  0  0  0  0  0
  -26.2550  -15.6369   20.0531 H   0  0  0  0  0  0
  -26.7261  -32.5363   23.1055 H   0  0  0  0  0  0
  -25.0072  -33.9669   25.0364 H   0  0  0  0  0  0
  -22.7442  -31.2977   21.3904 H   0  0  0  0  0  0
  -23.3749  -35.9608   23.3288 H   0  0  0  0  0  0
  -24.3565  -36.8923   22.2054 H   0  0  0  0  0  0
  -23.7240  -37.6474   23.6682 H   0  0  0  0  0  0
  -26.1455  -31.4876   20.6169 H   0  0  0  0  0  0
  -26.8718  -30.7849   22.0270 H   0  0  0  0  0  0
  -28.1294  -28.8104   21.2446 H   0  0  0  0  0  0
  -25.8858  -25.9039   18.9503 H   0  0  0  0  0  0
  -23.9785  -27.3327   18.9624 H   0  0  0  0  0  0
  -23.8030  -30.5891   19.4036 H   0  0  0  0  0  0
  -22.7818  -29.2528   19.8447 H   0  0  0  0  0  0
  -25.1301  -36.1894   25.0815 H   0  0  0  0  0  0
  -21.0021  -28.3251   24.1334 H   0  0  0  0  0  0
  -20.5780  -26.2299   23.3499 H   0  0  0  0  0  0
  -21.6656  -26.7498   22.1024 H   0  0  0  0  0  0
  -19.6875  -25.6369   21.1118 H   0  0  0  0  0  0
  -19.6541  -27.3284   20.6731 H   0  0  0  0  0  0
  -17.4122  -26.6471   21.4263 H   0  0  0  0  0  0
  -18.0560  -26.0069   22.9216 H   0  0  0  0  0  0
  -19.7979  -30.7293   24.2227 H   0  0  0  0  0  0
  -17.5071  -31.6277   24.5172 H   0  0  0  0  0  0
  -15.5404  -30.2982   23.7694 H   0  0  0  0  0  0
  -15.8716  -28.0786   22.7155 H   0  0  0  0  0  0
  -24.5851  -30.7159   25.7752 H   0  0  0  0  0  0
  -24.8942  -32.2952   26.4862 H   0  0  0  0  0  0
  -25.7984  -30.8918   27.0220 H   0  0  0  0  0  0
  -26.3002  -29.6714   24.1272 H   0  0  0  0  0  0
  -27.3994  -29.7277   25.4841 H   0  0  0  0  0  0
  -27.8905  -30.4243   23.9606 H   0  0  0  0  0  0
  -27.2615  -33.3635   26.2101 H   0  0  0  0  0  0
  -28.3867  -32.6921   25.0384 H   0  0  0  0  0  0
  -28.0694  -31.8478   26.5463 H   0  0  0  0  0  0
  -28.2590  -38.0098   24.7509 H   0  0  0  0  0  0
  -28.1075  -36.2628   24.6293 H   0  0  0  0  0  0
  -27.2293  -37.1455   25.8866 H   0  0  0  0  0  0
  -20.9444  -29.8774   21.6801 H   0  0  0  0  0  0
  -26.0155  -38.2836   24.1407 H   0  0  0  0  0  0
  -28.6752  -22.6910   18.0801 H   0  0  0  0  0  0
  -28.7316  -23.1665   22.3249 H   0  0  0  0  0  0
  -30.3524  -19.5887   18.0248 H   0  0  0  0  0  0
  -29.3078  -20.6676   17.1093 H   0  0  0  0  0  0
  -28.5999  -19.3162   17.9992 H   0  0  0  0  0  0
  -28.5363  -19.1586   22.8501 H   0  0  0  0  0  0
  -28.7994  -17.4653   22.5268 H   0  0  0  0  0  0
  -27.6331  -18.3704   21.5660 H   0  0  0  0  0  0
  -31.8336  -19.1802   20.9753 H   0  0  0  0  0  0
  -31.1121  -19.5064   22.5491 H   0  0  0  0  0  0
  -31.3985  -17.8461   22.0292 H   0  0  0  0  0  0
  -26.9362  -24.5255   20.5023 H   0  0  0  0  0  0
  -27.5839  -24.6572   18.8940 H   0  0  0  0  0  0
  -28.9545  -17.5080   19.3757 H   0  0  0  0  0  0
  -30.6805  -17.5616   19.3807 H   0  0  0  0  0  0
  -28.8759  -15.7512   20.9762 H   0  0  0  0  0  0
  1 25  1  0  0  0
  1 30  2  0  0  0
  1 83  1  0  0  0
  2  3  1  0  0  0
  2 25  1  0  0  0
  2 84  1  0  0  0
  2 85  1  0  0  0
  3  4  1  0  0  0
  3 86  1  0  0  0
  3 87  1  0  0  0
  4  5  1  0  0  0
  4 88  1  0  0  0
  4 89  1  0  0  0
  5  6  1  0  0  0
  5 26  1  0  0  0
  5 90  1  0  0  0
  6 25  1  0  0  0
  6 91  1  0  0  0
  6 92  1  0  0  0
  7  8  2  0  0  0
  7 26  1  0  0  0
  7 29  1  0  0  0
  8  9  1  0  0  0
  8 22  1  0  0  0
  9 10  1  0  0  0
  9 27  2  0  0  0
 10 11  2  0  0  0
 10 15  1  0  0  0
 11 12  1  0  0  0
 11 93  1  0  0  0
 12 13  2  0  0  0
 12 94  1  0  0  0
 13 14  1  0  0  0
 13 31  1  0  0  0
 14 15  2  0  0  0
 14 95  1  0  0  0
 15 96  1  0  0  0
 16 17  2  0  0  0
 16 21  1  0  0  0
 16 31  1  0  0  0
 17 18  1  0  0  0
 17 97  1  0  0  0
 18 19  2  0  0  0
 18 98  1  0  0  0
 19 20  1  0  0  0
 19 24  1  0  0  0
 20 21  2  0  0  0
 20 99  1  0  0  0
 21 23  1  0  0  0
 22 28  1  0  0  0
 22 32  2  0  0  0
 26 27  1  0  0  0
 28100  1  0  0  0
 28101  1  0  0  0
 29102  1  0  0  0
 29103  1  0  0  0
 33 34  1  0  0  0
 33 66  1  0  0  0
 33 70  2  0  0  0
 34 36  1  0  0  0
 34 59  1  0  0  0
 34104  1  0  0  0
 35 44  2  0  0  0
 35 45  1  0  0  0
 35 68  1  0  0  0
 36 56  1  0  0  0
 36105  1  0  0  0
 37 39  1  0  0  0
 37 47  1  0  0  0
 37 66  1  0  0  0
 37106  1  0  0  0
 38 43  2  0  0  0
 38 46  1  0  0  0
 38 47  1  0  0  0
 39 64  1  0  0  0
 39 67  2  0  0  0
 40 52  1  0  0  0
 40 53  2  0  0  0
 40 58  1  0  0  0
 41107  1  0  0  0
 41108  1  0  0  0
 41109  1  0  0  0
 41 48  1  0  0  0
 42 43  1  0  0  0
 42 66  1  0  0  0
 42110  1  0  0  0
 42111  1  0  0  0
 43 44  1  0  0  0
 44112  1  0  0  0
 45 46  2  0  0  0
 45113  1  0  0  0
 46114  1  0  0  0
 47115  1  0  0  0
 47116  1  0  0  0
 48 56  1  0  0  0
 48 65  1  0  0  0
 48117  1  0  0  0
 49 50  1  0  0  0
 49 53  1  0  0  0
 49 64  1  0  0  0
 49118  1  0  0  0
 50 51  1  0  0  0
 50119  1  0  0  0
 50120  1  0  0  0
 51 52  1  0  0  0
 51121  1  0  0  0
 51122  1  0  0  0
 52123  1  0  0  0
 52124  1  0  0  0
 53 54  1  0  0  0
 54 55  2  0  0  0
 54125  1  0  0  0
 55 57  1  0  0  0
 55126  1  0  0  0
 56 69  2  0  0  0
 57 58  2  0  0  0
 57127  1  0  0  0
 58128  1  0  0  0
 59 60  1  0  0  0
 59 61  1  0  0  0
 59 62  1  0  0  0
 60129  1  0  0  0
 60130  1  0  0  0
 60131  1  0  0  0
 61132  1  0  0  0
 61133  1  0  0  0
 61134  1  0  0  0
 62135  1  0  0  0
 62136  1  0  0  0
 62137  1  0  0  0
 63 65  1  0  0  0
 63138  1  0  0  0
 63139  1  0  0  0
 63140  1  0  0  0
 64141  1  0  0  0
 65142  1  0  0  0
 68 79  1  0  0  0
 71 73  2  0  0  0
 71 74  1  0  0  0
 71143  1  0  0  0
 72 73  1  0  0  0
 72 82  2  0  0  0
 72144  1  0  0  0
 73 79  1  0  0  0
 74 75  2  0  0  0
 74 76  1  0  0  0
 75 81  1  0  0  0
 75 82  1  0  0  0
 76145  1  0  0  0
 76146  1  0  0  0
 76147  1  0  0  0
 77148  1  0  0  0
 77149  1  0  0  0
 77150  1  0  0  0
 77 81  1  0  0  0
 78 81  1  0  0  0
 78151  1  0  0  0
 78152  1  0  0  0
 78153  1  0  0  0
 79154  1  0  0  0
 79155  1  0  0  0
 80 81  1  0  0  0
 80 83  1  0  0  0
 80156  1  0  0  0
 80157  1  0  0  0
 83158  1  0  0  0
M  ISO  4   1 100  68 101  79 101  83 100
M  END
> <chiral flag>
0

> <version>
0

> <s_m_source_file>
/data/baiqing/PycharmProjects/Reinvent-master-3.2/result/LINK_invent/BTK/process_docking_weight1_custom_sum_contain_oxygen_bond_distance_aromatic_linkinvent_7_9_3/rearranged_h_0069.sdf

> <i_m_source_file_index>
58

> <r_mmod_Potential_Energy-OPLS-2005>
253.160308837891

> <r_mmod_Stretch_Energy-OPLS-2005>
207.838317871094

> <r_mmod_Bend_Energy-OPLS-2005>
269.642791748047

> <r_mmod_Torsional_Energy-OPLS-2005>
229.189575195312

> <r_mmod_Improper_Torsional_Energy-OPLS-2005>
9.59070491790771

> <r_mmod_Van_der_Waal_Energy-OPLS-2005>
144.424118041992

> <r_mmod_Electrostatic_Energy-OPLS-2005>
-542.355163574219

> <r_mmod_Solvation_Energy-OPLS-2005>
-220.293212890625

> <b_mmod_Minimization_Converged-OPLS-2005>
0

> <r_mmod_RMS_Derivative-OPLS-2005>
4.52924919128418

$$$$
58
                    3D
 Structure written by MMmdl.
177185  0  0  1  0            999 V2000
  -30.6446  -14.4929   20.5155 C   0  0  0  0  0  0
  -30.4336  -12.2856   19.4471 C   0  0  0  0  0  0
  -29.5191  -12.4603   18.2168 C   0  0  0  0  0  0
  -28.0292  -12.3460   18.6143 C   0  0  0  0  0  0
  -27.6598  -13.1862   19.8696 C   0  0  2  0  0  0
  -28.7026  -12.9725   20.9918 C   0  0  0  0  0  0
  -25.2600  -13.8058   20.5522 C   0  0  0  0  0  0
  -24.1875  -13.0423   20.9161 C   0  0  0  0  0  0
  -24.6411  -11.6863   20.8759 C   0  0  0  0  0  0
  -23.9065  -10.4281   21.0445 C   0  0  0  0  0  0
  -24.3597   -9.4189   21.9208 C   0  0  0  0  0  0
  -23.6273   -8.2222   22.0745 C   0  0  0  0  0  0
  -22.4251   -8.0280   21.3555 C   0  0  0  0  0  0
  -21.9907   -9.0264   20.4660 C   0  0  0  0  0  0
  -22.7240  -10.2139   20.3093 C   0  0  0  0  0  0
  -21.6825   -6.0748   22.5294 C   0  0  0  0  0  0
  -21.4010   -6.5671   23.8220 C   0  0  0  0  0  0
  -21.3654   -5.6829   24.9197 C   0  0  0  0  0  0
  -21.6036   -4.3081   24.7242 C   0  0  0  0  0  0
  -21.8825   -3.8175   23.4357 C   0  0  0  0  0  0
  -21.9170   -4.6984   22.3416 C   0  0  0  0  0  0
  -22.7893  -13.5232   21.1846 C   0  0  0  0  0  0
  -22.1633   -4.2183   21.0972 F   0  0  0  0  0  0
  -21.5626   -3.4547   25.7732 F   0  0  0  0  0  0
  -30.0191  -13.2895   20.4339 N   0  0  0  0  0  0
  -26.3030  -12.9195   20.3314 N   0  0  0  0  0  0
  -25.9337  -11.6385   20.5804 N   0  0  0  0  0  0
  -22.0544  -12.8222   22.0380 N   0  0  0  0  0  0
  -25.4360  -15.1717   20.3637 N   0  0  0  0  0  0
  -31.8205  -14.6606   20.1759 O   0  0  0  0  0  0
  -21.6622   -6.8880   21.4242 O   0  0  0  0  0  0
  -22.3570  -14.5572   20.6739 O   0  0  0  0  0  0
  -24.6120  -31.8633   23.2078 C   0  0  0  0  0  0
  -25.9064  -32.4759   23.8328 C   0  0  1  0  0  0
  -27.2420  -27.4671   20.0917 C   0  0  0  0  0  0
  -25.5935  -33.8568   24.2268 N   0  0  0  0  0  0
  -23.3987  -30.4873   21.5374 C   0  0  2  0  0  0
  -24.8532  -28.9593   20.1024 C   0  0  0  0  0  0
  -22.7406  -29.4644   22.4922 C   0  0  0  0  0  0
  -18.0304  -28.1428   22.8494 C   0  0  0  0  0  0
  -24.1539  -36.7352   23.2584 C   0  0  0  0  0  0
  -25.9242  -30.8466   21.3556 C   0  0  0  0  0  0
  -26.0050  -29.4841   20.6977 C   0  0  0  0  0  0
  -27.2098  -28.7521   20.6722 C   0  0  0  0  0  0
  -26.0741  -26.9491   19.4956 C   0  0  0  0  0  0
  -24.8834  -27.6955   19.4873 C   0  0  0  0  0  0
  -23.6108  -29.8165   20.1502 C   0  0  0  0  0  0
  -25.4153  -36.3070   24.0255 C   0  0  1  0  0  0
  -20.5915  -28.3618   23.1331 C   0  0  2  0  0  0
  -20.6825  -26.9259   22.5694 C   0  0  0  0  0  0
  -19.5809  -26.6094   21.5521 C   0  0  0  0  0  0
  -18.1906  -26.7897   22.1757 C   0  0  0  0  0  0
  -19.1577  -28.8851   23.2905 C   0  0  0  0  0  0
  -18.9553  -30.1430   23.8986 C   0  0  0  0  0  0
  -17.6591  -30.6570   24.0717 C   0  0  0  0  0  0
  -25.9049  -34.9409   23.5074 C   0  0  0  0  0  0
  -16.5441  -29.9175   23.6394 C   0  0  0  0  0  0
  -16.7294  -28.6595   23.0339 C   0  0  0  0  0  0
  -26.4569  -31.6596   25.0665 C   0  0  0  0  0  0
  -25.3924  -31.3725   26.1491 C   0  0  0  0  0  0
  -27.0500  -30.3047   24.6150 C   0  0  0  0  0  0
  -27.6166  -32.4442   25.7270 C   0  0  0  0  0  0
  -27.5603  -37.1823   24.8383 C   0  0  0  0  0  0
  -21.4192  -29.2845   22.3531 N   0  0  0  0  0  0
  -26.4316  -37.3746   23.9323 N   0  0  0  0  0  0
  -24.6602  -31.0803   22.0917 N   0  0  0  0  0  0
  -23.4195  -28.8364   23.3083 O   0  0  0  0  0  0
  -28.4131  -26.7585   20.0757 O   0  0  0  0  0  0
  -26.5566  -34.8884   22.4631 O   0  0  0  0  0  0
  -23.5325  -32.1340   23.7560 O   0  0  0  0  0  0
  -28.9528  -19.3408   21.1998 C   0  0  0  0  0  0
  -28.7719  -20.6512   21.5387 C   0  0  0  0  0  0
  -28.9485  -18.6377   22.4393 C   0  0  0  0  0  0
  -26.5905  -22.8324   22.3461 C   0  0  0  0  0  0
  -27.6477  -16.5456   22.4252 C   0  0  0  0  0  0
  -29.4680  -16.8451   24.1292 C   0  0  0  0  0  0
  -27.5970  -26.1528   23.0034 C   0  0  0  0  0  0
  -30.0230  -26.2580   22.3220 C   0  0  0  0  0  0
  -29.4208  -16.2432   19.4614 C   0  0  0  0  0  0
  -28.9652  -24.0141   22.6652 C   0  0  0  0  0  0
  -28.4494  -21.8301   23.8202 C   0  0  0  0  0  0
  -30.1959  -16.5461   21.7470 C   0  0  0  0  0  0
  -28.3681  -25.4487   20.6430 C   0  0  0  0  0  0
  -27.8192  -23.1266   23.2404 C   0  0  2  0  0  0
  -29.0543  -17.1324   22.6626 C   0  0  0  0  0  0
  -28.7005  -25.4641   22.1625 C   0  0  0  0  0  0
  -28.6955  -19.4641   23.4500 N   0  0  0  0  0  0
  -28.6058  -20.6977   22.9098 N   0  0  0  0  0  0
  -29.8265  -15.5613   20.7081 N   0  0  0  0  0  0
  -31.4834  -12.3813   19.1687 H   0  0  0  0  0  0
  -30.3236  -11.2842   19.8619 H   0  0  0  0  0  0
  -29.7629  -11.7126   17.4619 H   0  0  0  0  0  0
  -29.7069  -13.4314   17.7580 H   0  0  0  0  0  0
  -27.8334  -11.2917   18.8096 H   0  0  0  0  0  0
  -27.3945  -12.6201   17.7719 H   0  0  0  0  0  0
  -27.6885  -14.2299   19.5640 H   0  0  0  0  0  0
  -28.6830  -11.9383   21.3451 H   0  0  0  0  0  0
  -28.4875  -13.5756   21.8692 H   0  0  0  0  0  0
  -25.2752   -9.5657   22.4765 H   0  0  0  0  0  0
  -24.0011   -7.4607   22.7445 H   0  0  0  0  0  0
  -21.0848   -8.8814   19.8916 H   0  0  0  0  0  0
  -22.3739  -10.9706   19.6205 H   0  0  0  0  0  0
  -21.1999   -7.6176   23.9744 H   0  0  0  0  0  0
  -21.1465   -6.0547   25.9105 H   0  0  0  0  0  0
  -22.0579   -2.7627   23.2846 H   0  0  0  0  0  0
  -22.4130  -11.9838   22.4733 H   0  0  0  0  0  0
  -21.1203  -13.1305   22.2659 H   0  0  0  0  0  0
  -24.6786  -15.8376   20.4590 H   0  0  0  0  0  0
  -26.2902  -15.5780   20.0041 H   0  0  0  0  0  0
  -26.7160  -32.5460   23.1110 H   0  0  0  0  0  0
  -25.0268  -33.9732   25.0529 H   0  0  0  0  0  0
  -22.6876  -31.3003   21.3874 H   0  0  0  0  0  0
  -23.3748  -35.9736   23.3198 H   0  0  0  0  0  0
  -24.3637  -36.9039   22.1999 H   0  0  0  0  0  0
  -23.7356  -37.6574   23.6655 H   0  0  0  0  0  0
  -26.0288  -31.6297   20.6018 H   0  0  0  0  0  0
  -26.8116  -30.8905   21.9784 H   0  0  0  0  0  0
  -28.1096  -29.1606   21.1150 H   0  0  0  0  0  0
  -26.0903  -25.9815   19.0143 H   0  0  0  0  0  0
  -24.0050  -27.2945   19.0003 H   0  0  0  0  0  0
  -23.7231  -30.5845   19.3813 H   0  0  0  0  0  0
  -22.7400  -29.2307   19.8463 H   0  0  0  0  0  0
  -25.1325  -36.1893   25.0727 H   0  0  0  0  0  0
  -21.0024  -28.3348   24.1455 H   0  0  0  0  0  0
  -21.6744  -26.7232   22.1589 H   0  0  0  0  0  0
  -20.5674  -26.2248   23.4006 H   0  0  0  0  0  0
  -19.7025  -25.5876   21.1886 H   0  0  0  0  0  0
  -19.6842  -27.2698   20.6907 H   0  0  0  0  0  0
  -17.4218  -26.6573   21.4117 H   0  0  0  0  0  0
  -18.0190  -26.0182   22.9278 H   0  0  0  0  0  0
  -19.8058  -30.7181   24.2449 H   0  0  0  0  0  0
  -17.5185  -31.6183   24.5503 H   0  0  0  0  0  0
  -15.5501  -30.3159   23.7818 H   0  0  0  0  0  0
  -15.8666  -28.0939   22.7076 H   0  0  0  0  0  0
  -25.8374  -30.8930   27.0224 H   0  0  0  0  0  0
  -24.6117  -30.7059   25.7880 H   0  0  0  0  0  0
  -24.9122  -32.2871   26.4968 H   0  0  0  0  0  0
  -27.4661  -29.7602   25.4641 H   0  0  0  0  0  0
  -27.8673  -30.4340   23.9070 H   0  0  0  0  0  0
  -26.3088  -29.6535   24.1545 H   0  0  0  0  0  0
  -27.2824  -33.3803   26.1747 H   0  0  0  0  0  0
  -28.3868  -32.6982   24.9969 H   0  0  0  0  0  0
  -28.0988  -31.8688   26.5176 H   0  0  0  0  0  0
  -28.2545  -38.0183   24.7434 H   0  0  0  0  0  0
  -28.1160  -36.2696   24.6174 H   0  0  0  0  0  0
  -27.2300  -37.1415   25.8779 H   0  0  0  0  0  0
  -20.9550  -29.7987   21.6191 H   0  0  0  0  0  0
  -26.0205  -38.2800   24.1431 H   0  0  0  0  0  0
  -29.0792  -18.9500   20.2013 H   0  0  0  0  0  0
  -28.7348  -21.5314   20.9163 H   0  0  0  0  0  0
  -25.9964  -22.0448   22.8177 H   0  0  0  0  0  0
  -26.8588  -22.4873   21.3496 H   0  0  0  0  0  0
  -25.9315  -23.6934   22.2169 H   0  0  0  0  0  0
  -26.9391  -16.9005   23.1728 H   0  0  0  0  0  0
  -27.6284  -15.4643   22.4647 H   0  0  0  0  0  0
  -27.2498  -16.8474   21.4580 H   0  0  0  0  0  0
  -28.7372  -17.2251   24.8457 H   0  0  0  0  0  0
  -30.4283  -17.3081   24.3711 H   0  0  0  0  0  0
  -29.5710  -15.7765   24.3208 H   0  0  0  0  0  0
  -27.7327  -25.9920   24.0739 H   0  0  0  0  0  0
  -26.6053  -25.7887   22.7394 H   0  0  0  0  0  0
  -27.5811  -27.2302   22.8513 H   0  0  0  0  0  0
  -29.8784  -27.3240   22.1362 H   0  0  0  0  0  0
  -30.7766  -25.9252   21.6079 H   0  0  0  0  0  0
  -30.4512  -26.1509   23.3205 H   0  0  0  0  0  0
  -28.4248  -16.6725   19.5440 H   0  0  0  0  0  0
  -29.3941  -15.5641   18.6073 H   0  0  0  0  0  0
  -30.1084  -17.0407   19.1795 H   0  0  0  0  0  0
  -29.5293  -23.4547   21.9214 H   0  0  0  0  0  0
  -29.6747  -24.1099   23.4905 H   0  0  0  0  0  0
  -27.8376  -21.4873   24.6555 H   0  0  0  0  0  0
  -29.4310  -22.0356   24.2522 H   0  0  0  0  0  0
  -30.9589  -16.0990   22.3840 H   0  0  0  0  0  0
  -30.7490  -17.3575   21.2742 H   0  0  0  0  0  0
  -29.1470  -24.8902   20.1231 H   0  0  0  0  0  0
  -27.4483  -24.9059   20.4252 H   0  0  0  0  0  0
  -27.4163  -23.6612   24.1048 H   0  0  0  0  0  0
  1 25  1  0  0  0
  1 30  2  0  0  0
  1 89  1  0  0  0
  2  3  1  0  0  0
  2 25  1  0  0  0
  2 90  1  0  0  0
  2 91  1  0  0  0
  3  4  1  0  0  0
  3 92  1  0  0  0
  3 93  1  0  0  0
  4  5  1  0  0  0
  4 94  1  0  0  0
  4 95  1  0  0  0
  5  6  1  0  0  0
  5 26  1  0  0  0
  5 96  1  0  0  0
  6 25  1  0  0  0
  6 97  1  0  0  0
  6 98  1  0  0  0
  7  8  2  0  0  0
  7 26  1  0  0  0
  7 29  1  0  0  0
  8  9  1  0  0  0
  8 22  1  0  0  0
  9 10  1  0  0  0
  9 27  2  0  0  0
 10 11  2  0  0  0
 10 15  1  0  0  0
 11 12  1  0  0  0
 11 99  1  0  0  0
 12 13  2  0  0  0
 12100  1  0  0  0
 13 14  1  0  0  0
 13 31  1  0  0  0
 14 15  2  0  0  0
 14101  1  0  0  0
 15102  1  0  0  0
 16 17  2  0  0  0
 16 21  1  0  0  0
 16 31  1  0  0  0
 17 18  1  0  0  0
 17103  1  0  0  0
 18 19  2  0  0  0
 18104  1  0  0  0
 19 20  1  0  0  0
 19 24  1  0  0  0
 20 21  2  0  0  0
 20105  1  0  0  0
 21 23  1  0  0  0
 22 28  1  0  0  0
 22 32  2  0  0  0
 26 27  1  0  0  0
 28106  1  0  0  0
 28107  1  0  0  0
 29108  1  0  0  0
 29109  1  0  0  0
 33 34  1  0  0  0
 33 66  1  0  0  0
 33 70  2  0  0  0
 34 36  1  0  0  0
 34 59  1  0  0  0
 34110  1  0  0  0
 35 44  2  0  0  0
 35 45  1  0  0  0
 35 68  1  0  0  0
 36 56  1  0  0  0
 36111  1  0  0  0
 37 39  1  0  0  0
 37 47  1  0  0  0
 37 66  1  0  0  0
 37112  1  0  0  0
 38 43  2  0  0  0
 38 46  1  0  0  0
 38 47  1  0  0  0
 39 64  1  0  0  0
 39 67  2  0  0  0
 40 52  1  0  0  0
 40 53  2  0  0  0
 40 58  1  0  0  0
 41113  1  0  0  0
 41114  1  0  0  0
 41115  1  0  0  0
 41 48  1  0  0  0
 42 43  1  0  0  0
 42 66  1  0  0  0
 42116  1  0  0  0
 42117  1  0  0  0
 43 44  1  0  0  0
 44118  1  0  0  0
 45 46  2  0  0  0
 45119  1  0  0  0
 46120  1  0  0  0
 47121  1  0  0  0
 47122  1  0  0  0
 48 56  1  0  0  0
 48 65  1  0  0  0
 48123  1  0  0  0
 49 50  1  0  0  0
 49 53  1  0  0  0
 49 64  1  0  0  0
 49124  1  0  0  0
 50 51  1  0  0  0
 50125  1  0  0  0
 50126  1  0  0  0
 51 52  1  0  0  0
 51127  1  0  0  0
 51128  1  0  0  0
 52129  1  0  0  0
 52130  1  0  0  0
 53 54  1  0  0  0
 54 55  2  0  0  0
 54131  1  0  0  0
 55 57  1  0  0  0
 55132  1  0  0  0
 56 69  2  0  0  0
 57 58  2  0  0  0
 57133  1  0  0  0
 58134  1  0  0  0
 59 60  1  0  0  0
 59 61  1  0  0  0
 59 62  1  0  0  0
 60135  1  0  0  0
 60136  1  0  0  0
 60137  1  0  0  0
 61138  1  0  0  0
 61139  1  0  0  0
 61140  1  0  0  0
 62141  1  0  0  0
 62142  1  0  0  0
 62143  1  0  0  0
 63 65  1  0  0  0
 63144  1  0  0  0
 63145  1  0  0  0
 63146  1  0  0  0
 64147  1  0  0  0
 65148  1  0  0  0
 68 83  1  0  0  0
 71 72  2  0  0  0
 71 73  1  0  0  0
 71149  1  0  0  0
 72 88  1  0  0  0
 72150  1  0  0  0
 73 85  1  0  0  0
 73 87  2  0  0  0
 74151  1  0  0  0
 74152  1  0  0  0
 74153  1  0  0  0
 74 84  1  0  0  0
 75154  1  0  0  0
 75155  1  0  0  0
 75156  1  0  0  0
 75 85  1  0  0  0
 76 85  1  0  0  0
 76157  1  0  0  0
 76158  1  0  0  0
 76159  1  0  0  0
 77160  1  0  0  0
 77161  1  0  0  0
 77162  1  0  0  0
 77 86  1  0  0  0
 78 86  1  0  0  0
 78163  1  0  0  0
 78164  1  0  0  0
 78165  1  0  0  0
 79 89  1  0  0  0
 79166  1  0  0  0
 79167  1  0  0  0
 79168  1  0  0  0
 80 84  1  0  0  0
 80 86  1  0  0  0
 80169  1  0  0  0
 80170  1  0  0  0
 81 84  1  0  0  0
 81 88  1  0  0  0
 81171  1  0  0  0
 81172  1  0  0  0
 82 85  1  0  0  0
 82 89  1  0  0  0
 82173  1  0  0  0
 82174  1  0  0  0
 83 86  1  0  0  0
 83175  1  0  0  0
 83176  1  0  0  0
 84177  1  0  0  0
 87 88  1  0  0  0
M  ISO  4   1 100  68 101  83 101  89 100
M  END
> <chiral flag>
0

> <version>
0

> <s_m_source_file>
/data/baiqing/PycharmProjects/Reinvent-master-3.2/result/LINK_invent/BTK/process_docking_weight1_custom_sum_contain_oxygen_bond_distance_aromatic_linkinvent_7_9_3/rearranged_h_0069.sdf

> <i_m_source_file_index>
59

> <r_mmod_Potential_Energy-OPLS-2005>
170.783782958984

> <r_mmod_Stretch_Energy-OPLS-2005>
42.5332183837891

> <r_mmod_Bend_Energy-OPLS-2005>
141.625259399414

> <r_mmod_Torsional_Energy-OPLS-2005>
357.132995605469

> <r_mmod_Improper_Torsional_Energy-OPLS-2005>
12.1411161422729

> <r_mmod_Van_der_Waal_Energy-OPLS-2005>
141.630676269531

> <r_mmod_Electrostatic_Energy-OPLS-2005>
-355.315704345703

> <r_mmod_Solvation_Energy-OPLS-2005>
-186.789688110352

> <b_mmod_Minimization_Converged-OPLS-2005>
0

> <r_mmod_RMS_Derivative-OPLS-2005>
7.49909400939941

$$$$
59
                    3D
 Structure written by MMmdl.
160168  0  0  1  0            999 V2000
  -30.5380  -14.9207   20.4180 C   0  0  0  0  0  0
  -30.4410  -12.5730   19.4831 C   0  0  0  0  0  0
  -29.5183  -12.5351   18.2431 C   0  0  0  0  0  0
  -28.0505  -12.3218   18.6583 C   0  0  0  0  0  0
  -27.6295  -13.2427   19.8326 C   0  0  2  0  0  0
  -28.6727  -13.2565   20.9697 C   0  0  0  0  0  0
  -25.2441  -13.8185   20.5615 C   0  0  0  0  0  0
  -24.1772  -13.0425   20.9203 C   0  0  0  0  0  0
  -24.6385  -11.6912   20.8723 C   0  0  0  0  0  0
  -23.9071  -10.4289   21.0398 C   0  0  0  0  0  0
  -24.3637   -9.4214   21.9172 C   0  0  0  0  0  0
  -23.6310   -8.2253   22.0753 C   0  0  0  0  0  0
  -22.4284   -8.0290   21.3552 C   0  0  0  0  0  0
  -21.9917   -9.0248   20.4640 C   0  0  0  0  0  0
  -22.7245  -10.2121   20.3047 C   0  0  0  0  0  0
  -21.6850   -6.0742   22.5281 C   0  0  0  0  0  0
  -21.4009   -6.5636   23.8218 C   0  0  0  0  0  0
  -21.3663   -5.6785   24.9179 C   0  0  0  0  0  0
  -21.6062   -4.3051   24.7223 C   0  0  0  0  0  0
  -21.8832   -3.8147   23.4340 C   0  0  0  0  0  0
  -21.9193   -4.6969   22.3397 C   0  0  0  0  0  0
  -22.7799  -13.5196   21.1885 C   0  0  0  0  0  0
  -22.1659   -4.2154   21.0975 F   0  0  0  0  0  0
  -21.5650   -3.4538   25.7737 F   0  0  0  0  0  0
  -29.9522  -13.6618   20.3724 N   0  0  0  0  0  0
  -26.2872  -12.9410   20.3171 N   0  0  0  0  0  0
  -25.9314  -11.6548   20.5680 N   0  0  0  0  0  0
  -22.0458  -12.8181   22.0456 N   0  0  0  0  0  0
  -25.4080  -15.1899   20.3923 N   0  0  0  0  0  0
  -31.7440  -15.0086   20.1689 O   0  0  0  0  0  0
  -21.6656   -6.8884   21.4242 O   0  0  0  0  0  0
  -22.3485  -14.5510   20.6726 O   0  0  0  0  0  0
  -24.6405  -31.8451   23.1886 C   0  0  0  0  0  0
  -25.9182  -32.4701   23.8279 C   0  0  1  0  0  0
  -27.2299  -27.1642   20.1271 C   0  0  0  0  0  0
  -25.5938  -33.8513   24.2190 N   0  0  0  0  0  0
  -23.4433  -30.4646   21.5326 C   0  0  2  0  0  0
  -24.8930  -28.8945   20.1055 C   0  0  0  0  0  0
  -22.7552  -29.4543   22.4843 C   0  0  0  0  0  0
  -18.0298  -28.1392   22.8477 C   0  0  0  0  0  0
  -24.1489  -36.7264   23.2642 C   0  0  0  0  0  0
  -25.9965  -30.7277   21.3814 C   0  0  0  0  0  0
  -26.0680  -29.3415   20.7188 C   0  0  0  0  0  0
  -27.2324  -28.4901   20.7176 C   0  0  0  0  0  0
  -26.0166  -26.7981   19.5070 C   0  0  0  0  0  0
  -24.8772  -27.6336   19.4895 C   0  0  0  0  0  0
  -23.6695  -29.7968   20.1499 C   0  0  0  0  0  0
  -25.4117  -36.3029   24.0314 C   0  0  1  0  0  0
  -20.5914  -28.3712   23.1236 C   0  0  2  0  0  0
  -20.6786  -26.9416   22.5403 C   0  0  0  0  0  0
  -19.5764  -26.6376   21.5208 C   0  0  0  0  0  0
  -18.1941  -26.7927   22.1619 C   0  0  0  0  0  0
  -19.1556  -28.8864   23.2855 C   0  0  0  0  0  0
  -18.9483  -30.1465   23.8882 C   0  0  0  0  0  0
  -17.6480  -30.6591   24.0561 C   0  0  0  0  0  0
  -25.9070  -34.9409   23.5052 C   0  0  0  0  0  0
  -16.5370  -29.9088   23.6339 C   0  0  0  0  0  0
  -16.7282  -28.6508   23.0352 C   0  0  0  0  0  0
  -26.4523  -31.6555   25.0707 C   0  0  0  0  0  0
  -25.3725  -31.3747   26.1415 C   0  0  0  0  0  0
  -27.0396  -30.2953   24.6268 C   0  0  0  0  0  0
  -27.6055  -32.4321   25.7501 C   0  0  0  0  0  0
  -27.5569  -37.1786   24.8463 C   0  0  0  0  0  0
  -21.4240  -29.3043   22.3608 N   0  0  0  0  0  0
  -26.4274  -37.3740   23.9413 N   0  0  0  0  0  0
  -24.7129  -31.0334   22.0897 N   0  0  0  0  0  0
  -23.4207  -28.8090   23.2979 O   0  0  0  0  0  0
  -28.3153  -26.2249   20.2444 O   0  0  0  0  0  0
  -26.5662  -34.8904   22.4638 O   0  0  0  0  0  0
  -23.5527  -32.1316   23.7115 O   0  0  0  0  0  0
  -27.6018  -22.4445   19.9601 C   0  0  0  0  0  0
  -28.6916  -23.3589   19.9494 C   0  0  0  0  0  0
  -29.9035  -22.5925   20.1180 C   0  0  0  0  0  0
  -28.8894  -20.4168   20.2047 C   0  0  0  0  0  0
  -31.2531  -23.2835   20.1508 C   0  0  0  0  0  0
  -28.1471  -25.0235   17.9780 C   0  0  0  0  0  0
  -29.0327  -18.5736   18.4209 C   0  0  0  0  0  0
  -27.5245  -18.2391   20.3838 C   0  0  0  0  0  0
  -29.9731  -17.6412   20.6067 C   0  0  0  0  0  0
  -28.5965  -24.9336   19.4449 C   0  0  1  0  0  0
  -28.9118  -18.7652   19.9447 C   0  0  0  0  0  0
  -27.7095  -21.0698   20.0708 N   0  0  0  0  0  0
  -29.9855  -21.2025   20.2073 N   0  0  0  0  0  0
  -29.7259  -16.0754   20.5390 N   0  0  0  0  0  0
  -31.4744  -12.7402   19.1745 H   0  0  0  0  0  0
  -30.4330  -11.6153   20.0043 H   0  0  0  0  0  0
  -29.8339  -11.7466   17.5591 H   0  0  0  0  0  0
  -29.6072  -13.4702   17.6903 H   0  0  0  0  0  0
  -27.9415  -11.2754   18.9443 H   0  0  0  0  0  0
  -27.3906  -12.4749   17.8041 H   0  0  0  0  0  0
  -27.5950  -14.2460   19.4089 H   0  0  0  0  0  0
  -28.7509  -12.2776   21.4439 H   0  0  0  0  0  0
  -28.3758  -13.9567   21.7530 H   0  0  0  0  0  0
  -25.2790   -9.5698   22.4732 H   0  0  0  0  0  0
  -24.0022   -7.4651   22.7474 H   0  0  0  0  0  0
  -21.0848   -8.8767   19.8937 H   0  0  0  0  0  0
  -22.3707  -10.9664   19.6160 H   0  0  0  0  0  0
  -21.1994   -7.6144   23.9716 H   0  0  0  0  0  0
  -21.1468   -6.0515   25.9075 H   0  0  0  0  0  0
  -22.0598   -2.7605   23.2839 H   0  0  0  0  0  0
  -22.4034  -11.9816   22.4832 H   0  0  0  0  0  0
  -21.1075  -13.1209   22.2660 H   0  0  0  0  0  0
  -24.6333  -15.8384   20.4854 H   0  0  0  0  0  0
  -26.2303  -15.6148   19.9869 H   0  0  0  0  0  0
  -26.7248  -32.5314   23.1013 H   0  0  0  0  0  0
  -25.0065  -33.9642   25.0322 H   0  0  0  0  0  0
  -22.7452  -31.2910   21.3792 H   0  0  0  0  0  0
  -23.3747  -35.9601   23.3280 H   0  0  0  0  0  0
  -24.3582  -36.8922   22.2063 H   0  0  0  0  0  0
  -23.7254  -37.6455   23.6702 H   0  0  0  0  0  0
  -26.1497  -31.4870   20.6133 H   0  0  0  0  0  0
  -26.8677  -30.7761   22.0229 H   0  0  0  0  0  0
  -28.1276  -28.8306   21.2189 H   0  0  0  0  0  0
  -25.9007  -25.8159   19.0827 H   0  0  0  0  0  0
  -23.9705  -27.2748   19.0223 H   0  0  0  0  0  0
  -23.8113  -30.5767   19.4003 H   0  0  0  0  0  0
  -22.7838  -29.2451   19.8324 H   0  0  0  0  0  0
  -25.1307  -36.1850   25.0806 H   0  0  0  0  0  0
  -21.0018  -28.3292   24.1351 H   0  0  0  0  0  0
  -20.5670  -26.2327   23.3619 H   0  0  0  0  0  0
  -21.6653  -26.7416   22.1211 H   0  0  0  0  0  0
  -19.6937  -25.6281   21.1254 H   0  0  0  0  0  0
  -19.6707  -27.3176   20.6732 H   0  0  0  0  0  0
  -17.4215  -26.6665   21.4018 H   0  0  0  0  0  0
  -18.0343  -26.0068   22.9017 H   0  0  0  0  0  0
  -19.7960  -30.7280   24.2239 H   0  0  0  0  0  0
  -17.5039  -31.6272   24.5159 H   0  0  0  0  0  0
  -15.5371  -30.2998   23.7660 H   0  0  0  0  0  0
  -15.8678  -28.0828   22.7071 H   0  0  0  0  0  0
  -24.5898  -30.7092   25.7743 H   0  0  0  0  0  0
  -24.8934  -32.2943   26.4792 H   0  0  0  0  0  0
  -25.8023  -30.8955   27.0222 H   0  0  0  0  0  0
  -26.3008  -29.6665   24.1276 H   0  0  0  0  0  0
  -27.4025  -29.7248   25.4832 H   0  0  0  0  0  0
  -27.8911  -30.4194   23.9570 H   0  0  0  0  0  0
  -27.2633  -33.3632   26.2032 H   0  0  0  0  0  0
  -28.3900  -32.6851   25.0356 H   0  0  0  0  0  0
  -28.0684  -31.8476   26.5462 H   0  0  0  0  0  0
  -28.2561  -38.0099   24.7503 H   0  0  0  0  0  0
  -28.1079  -36.2629   24.6284 H   0  0  0  0  0  0
  -27.2298  -37.1430   25.8866 H   0  0  0  0  0  0
  -20.9426  -29.8778   21.6824 H   0  0  0  0  0  0
  -26.0132  -38.2799   24.1428 H   0  0  0  0  0  0
  -26.6010  -22.8125   19.7827 H   0  0  0  0  0  0
  -31.2193  -24.1451   20.8166 H   0  0  0  0  0  0
  -31.5375  -23.6206   19.1550 H   0  0  0  0  0  0
  -32.0335  -22.6177   20.5183 H   0  0  0  0  0  0
  -28.8090  -24.4366   17.3400 H   0  0  0  0  0  0
  -28.1856  -26.0514   17.6156 H   0  0  0  0  0  0
  -27.1409  -24.6394   17.8162 H   0  0  0  0  0  0
  -28.2556  -19.1198   17.8857 H   0  0  0  0  0  0
  -28.9536  -17.5259   18.1340 H   0  0  0  0  0  0
  -29.9929  -18.9445   18.0625 H   0  0  0  0  0  0
  -26.7144  -18.7102   19.8276 H   0  0  0  0  0  0
  -27.3502  -18.4321   21.4429 H   0  0  0  0  0  0
  -27.4118  -17.1721   20.2111 H   0  0  0  0  0  0
  -30.0448  -17.8736   21.6694 H   0  0  0  0  0  0
  -30.9694  -17.8491   20.2151 H   0  0  0  0  0  0
  -29.6587  -25.1408   19.3257 H   0  0  0  0  0  0
  -28.7583  -15.8285   20.6739 H   0  0  0  0  0  0
  1 25  1  0  0  0
  1 30  2  0  0  0
  1 84  1  0  0  0
  2  3  1  0  0  0
  2 25  1  0  0  0
  2 85  1  0  0  0
  2 86  1  0  0  0
  3  4  1  0  0  0
  3 87  1  0  0  0
  3 88  1  0  0  0
  4  5  1  0  0  0
  4 89  1  0  0  0
  4 90  1  0  0  0
  5  6  1  0  0  0
  5 26  1  0  0  0
  5 91  1  0  0  0
  6 25  1  0  0  0
  6 92  1  0  0  0
  6 93  1  0  0  0
  7  8  2  0  0  0
  7 26  1  0  0  0
  7 29  1  0  0  0
  8  9  1  0  0  0
  8 22  1  0  0  0
  9 10  1  0  0  0
  9 27  2  0  0  0
 10 11  2  0  0  0
 10 15  1  0  0  0
 11 12  1  0  0  0
 11 94  1  0  0  0
 12 13  2  0  0  0
 12 95  1  0  0  0
 13 14  1  0  0  0
 13 31  1  0  0  0
 14 15  2  0  0  0
 14 96  1  0  0  0
 15 97  1  0  0  0
 16 17  2  0  0  0
 16 21  1  0  0  0
 16 31  1  0  0  0
 17 18  1  0  0  0
 17 98  1  0  0  0
 18 19  2  0  0  0
 18 99  1  0  0  0
 19 20  1  0  0  0
 19 24  1  0  0  0
 20 21  2  0  0  0
 20100  1  0  0  0
 21 23  1  0  0  0
 22 28  1  0  0  0
 22 32  2  0  0  0
 26 27  1  0  0  0
 28101  1  0  0  0
 28102  1  0  0  0
 29103  1  0  0  0
 29104  1  0  0  0
 33 34  1  0  0  0
 33 66  1  0  0  0
 33 70  2  0  0  0
 34 36  1  0  0  0
 34 59  1  0  0  0
 34105  1  0  0  0
 35 44  2  0  0  0
 35 45  1  0  0  0
 35 68  1  0  0  0
 36 56  1  0  0  0
 36106  1  0  0  0
 37 39  1  0  0  0
 37 47  1  0  0  0
 37 66  1  0  0  0
 37107  1  0  0  0
 38 43  2  0  0  0
 38 46  1  0  0  0
 38 47  1  0  0  0
 39 64  1  0  0  0
 39 67  2  0  0  0
 40 52  1  0  0  0
 40 53  2  0  0  0
 40 58  1  0  0  0
 41108  1  0  0  0
 41109  1  0  0  0
 41110  1  0  0  0
 41 48  1  0  0  0
 42 43  1  0  0  0
 42 66  1  0  0  0
 42111  1  0  0  0
 42112  1  0  0  0
 43 44  1  0  0  0
 44113  1  0  0  0
 45 46  2  0  0  0
 45114  1  0  0  0
 46115  1  0  0  0
 47116  1  0  0  0
 47117  1  0  0  0
 48 56  1  0  0  0
 48 65  1  0  0  0
 48118  1  0  0  0
 49 50  1  0  0  0
 49 53  1  0  0  0
 49 64  1  0  0  0
 49119  1  0  0  0
 50 51  1  0  0  0
 50120  1  0  0  0
 50121  1  0  0  0
 51 52  1  0  0  0
 51122  1  0  0  0
 51123  1  0  0  0
 52124  1  0  0  0
 52125  1  0  0  0
 53 54  1  0  0  0
 54 55  2  0  0  0
 54126  1  0  0  0
 55 57  1  0  0  0
 55127  1  0  0  0
 56 69  2  0  0  0
 57 58  2  0  0  0
 57128  1  0  0  0
 58129  1  0  0  0
 59 60  1  0  0  0
 59 61  1  0  0  0
 59 62  1  0  0  0
 60130  1  0  0  0
 60131  1  0  0  0
 60132  1  0  0  0
 61133  1  0  0  0
 61134  1  0  0  0
 61135  1  0  0  0
 62136  1  0  0  0
 62137  1  0  0  0
 62138  1  0  0  0
 63 65  1  0  0  0
 63139  1  0  0  0
 63140  1  0  0  0
 63141  1  0  0  0
 64142  1  0  0  0
 65143  1  0  0  0
 68 80  1  0  0  0
 71 72  2  0  0  0
 71 82  1  0  0  0
 71144  1  0  0  0
 72 73  1  0  0  0
 72 80  1  0  0  0
 73 75  1  0  0  0
 73 83  2  0  0  0
 74 81  1  0  0  0
 74 82  2  0  0  0
 74 83  1  0  0  0
 75145  1  0  0  0
 75146  1  0  0  0
 75147  1  0  0  0
 76148  1  0  0  0
 76149  1  0  0  0
 76150  1  0  0  0
 76 80  1  0  0  0
 77151  1  0  0  0
 77152  1  0  0  0
 77153  1  0  0  0
 77 81  1  0  0  0
 78 81  1  0  0  0
 78154  1  0  0  0
 78155  1  0  0  0
 78156  1  0  0  0
 79 81  1  0  0  0
 79 84  1  0  0  0
 79157  1  0  0  0
 79158  1  0  0  0
 80159  1  0  0  0
 84160  1  0  0  0
M  ISO  4   1 100  68 101  80 101  84 100
M  END
> <chiral flag>
0

> <version>
0

> <s_m_source_file>
/data/baiqing/PycharmProjects/Reinvent-master-3.2/result/LINK_invent/BTK/process_docking_weight1_custom_sum_contain_oxygen_bond_distance_aromatic_linkinvent_7_9_3/rearranged_h_0069.sdf

> <i_m_source_file_index>
60

> <r_mmod_Potential_Energy-OPLS-2005>
96.7644500732422

> <r_mmod_Stretch_Energy-OPLS-2005>
231.30827331543

> <r_mmod_Bend_Energy-OPLS-2005>
310.081970214844

> <r_mmod_Torsional_Energy-OPLS-2005>
226.439743041992

> <r_mmod_Improper_Torsional_Energy-OPLS-2005>
10.848560333252

> <r_mmod_Van_der_Waal_Energy-OPLS-2005>
139.98583984375

> <r_mmod_Electrostatic_Energy-OPLS-2005>
-766.222351074219

> <r_mmod_Solvation_Energy-OPLS-2005>
-227.3193359375

> <b_mmod_Minimization_Converged-OPLS-2005>
0

> <r_mmod_RMS_Derivative-OPLS-2005>
2.35665130615234

$$$$
60
                    3D
 Structure written by MMmdl.
170178  0  0  1  0            999 V2000
  -30.5914  -14.7712   20.4110 C   0  0  0  0  0  0
  -30.4559  -12.4579   19.4687 C   0  0  0  0  0  0
  -29.5177  -12.4640   18.2367 C   0  0  0  0  0  0
  -28.0338  -12.3135   18.6457 C   0  0  0  0  0  0
  -27.6390  -13.1940   19.8610 C   0  0  2  0  0  0
  -28.7066  -13.1033   20.9753 C   0  0  0  0  0  0
  -25.2466  -13.8046   20.5647 C   0  0  0  0  0  0
  -24.1760  -13.0345   20.9220 C   0  0  0  0  0  0
  -24.6343  -11.6826   20.8810 C   0  0  0  0  0  0
  -23.9018  -10.4236   21.0451 C   0  0  0  0  0  0
  -24.3582   -9.4156   21.9217 C   0  0  0  0  0  0
  -23.6263   -8.2194   22.0765 C   0  0  0  0  0  0
  -22.4250   -8.0247   21.3545 C   0  0  0  0  0  0
  -21.9882   -9.0221   20.4651 C   0  0  0  0  0  0
  -22.7206  -10.2099   20.3077 C   0  0  0  0  0  0
  -21.6836   -6.0717   22.5281 C   0  0  0  0  0  0
  -21.4000   -6.5627   23.8212 C   0  0  0  0  0  0
  -21.3656   -5.6785   24.9177 C   0  0  0  0  0  0
  -21.6044   -4.3049   24.7230 C   0  0  0  0  0  0
  -21.8821   -3.8137   23.4353 C   0  0  0  0  0  0
  -21.9188   -4.6949   22.3407 C   0  0  0  0  0  0
  -22.7793  -13.5173   21.1864 C   0  0  0  0  0  0
  -22.1660   -4.2137   21.0985 F   0  0  0  0  0  0
  -21.5634   -3.4533   25.7744 F   0  0  0  0  0  0
  -29.9988  -13.5164   20.4013 N   0  0  0  0  0  0
  -26.2918  -12.9187   20.3398 N   0  0  0  0  0  0
  -25.9272  -11.6377   20.5877 N   0  0  0  0  0  0
  -22.0428  -12.8194   22.0434 N   0  0  0  0  0  0
  -25.3997  -15.1762   20.3868 N   0  0  0  0  0  0
  -31.8011  -14.8398   20.1786 O   0  0  0  0  0  0
  -21.6615   -6.8850   21.4238 O   0  0  0  0  0  0
  -22.3499  -14.5488   20.6709 O   0  0  0  0  0  0
  -24.6270  -31.8576   23.1990 C   0  0  0  0  0  0
  -25.9109  -32.4768   23.8331 C   0  0  1  0  0  0
  -27.2384  -27.3066   20.1276 C   0  0  0  0  0  0
  -25.5918  -33.8569   24.2261 N   0  0  0  0  0  0
  -23.4224  -30.4777   21.5419 C   0  0  2  0  0  0
  -24.8721  -28.9231   20.1154 C   0  0  0  0  0  0
  -22.7480  -29.4611   22.4936 C   0  0  0  0  0  0
  -18.0287  -28.1385   22.8488 C   0  0  0  0  0  0
  -24.1490  -36.7290   23.2640 C   0  0  0  0  0  0
  -25.9627  -30.7858   21.3697 C   0  0  0  0  0  0
  -26.0398  -29.4099   20.7154 C   0  0  0  0  0  0
  -27.2251  -28.6153   20.7052 C   0  0  0  0  0  0
  -26.0445  -26.8662   19.5140 C   0  0  0  0  0  0
  -24.8770  -27.6576   19.5049 C   0  0  0  0  0  0
  -23.6390  -29.8044   20.1601 C   0  0  0  0  0  0
  -25.4115  -36.3077   24.0327 C   0  0  1  0  0  0
  -20.5886  -28.3690   23.1285 C   0  0  2  0  0  0
  -20.6774  -26.9412   22.5413 C   0  0  0  0  0  0
  -19.5751  -26.6384   21.5214 C   0  0  0  0  0  0
  -18.1930  -26.7929   22.1625 C   0  0  0  0  0  0
  -19.1539  -28.8854   23.2881 C   0  0  0  0  0  0
  -18.9461  -30.1457   23.8897 C   0  0  0  0  0  0
  -17.6462  -30.6587   24.0563 C   0  0  0  0  0  0
  -25.9050  -34.9447   23.5097 C   0  0  0  0  0  0
  -16.5353  -29.9086   23.6330 C   0  0  0  0  0  0
  -16.7274  -28.6502   23.0352 C   0  0  0  0  0  0
  -26.4491  -31.6585   25.0709 C   0  0  0  0  0  0
  -25.3722  -31.3723   26.1436 C   0  0  0  0  0  0
  -27.0336  -30.3010   24.6167 C   0  0  0  0  0  0
  -27.6048  -32.4322   25.7483 C   0  0  0  0  0  0
  -27.5578  -37.1800   24.8465 C   0  0  0  0  0  0
  -21.4191  -29.3040   22.3678 N   0  0  0  0  0  0
  -26.4291  -37.3773   23.9406 N   0  0  0  0  0  0
  -24.6895  -31.0575   22.0942 N   0  0  0  0  0  0
  -23.4194  -28.8162   23.3032 O   0  0  0  0  0  0
  -28.3795  -26.4863   20.1578 O   0  0  0  0  0  0
  -26.5626  -34.8919   22.4669 O   0  0  0  0  0  0
  -23.5429  -32.1377   23.7313 O   0  0  0  0  0  0
  -29.9325  -21.9985   21.9173 C   0  0  0  0  0  0
  -29.6380  -22.6380   20.7272 C   0  0  0  0  0  0
  -29.8993  -20.3513   20.4023 C   0  0  0  0  0  0
  -31.1395  -19.0864   18.5934 C   0  0  0  0  0  0
  -30.5453  -24.4849   19.2287 C   0  0  0  0  0  0
  -30.2931  -24.8856   21.6600 C   0  0  0  0  0  0
  -28.6522  -16.2269   21.4310 C   0  0  0  0  0  0
  -29.1364  -16.2358   18.9286 C   0  0  0  0  0  0
  -29.0963  -21.6495   18.4351 C   0  0  0  0  0  0
  -30.5304  -17.6020   20.5809 C   0  0  0  0  0  0
  -28.2558  -24.9995   20.2074 C   0  0  0  0  0  0
  -30.1090  -18.9360   19.7371 C   0  0  1  0  0  0
  -29.6306  -24.2039   20.4392 C   0  0  0  0  0  0
  -29.7586  -16.1784   20.3526 C   0  0  0  0  0  0
  -29.5193  -21.5517   19.8359 N   0  0  0  0  0  0
  -30.1008  -20.6520   21.6855 N   0  3  0  0  0  0
  -31.4881  -12.6072   19.1479 H   0  0  0  0  0  0
  -30.4411  -11.4833   19.9590 H   0  0  0  0  0  0
  -29.7929  -11.6529   17.5613 H   0  0  0  0  0  0
  -29.6631  -13.3772   17.6623 H   0  0  0  0  0  0
  -27.8723  -11.2639   18.8935 H   0  0  0  0  0  0
  -27.3830  -12.5253   17.7966 H   0  0  0  0  0  0
  -27.5941  -14.2080   19.4961 H   0  0  0  0  0  0
  -28.7702  -12.0765   21.3382 H   0  0  0  0  0  0
  -28.4492  -13.6776   21.8614 H   0  0  0  0  0  0
  -25.2724   -9.5631   22.4795 H   0  0  0  0  0  0
  -23.9970   -7.4576   22.7476 H   0  0  0  0  0  0
  -21.0818   -8.8741   19.8948 H   0  0  0  0  0  0
  -22.3678  -10.9647   19.6190 H   0  0  0  0  0  0
  -21.1986   -7.6135   23.9710 H   0  0  0  0  0  0
  -21.1479   -6.0519   25.9079 H   0  0  0  0  0  0
  -22.0606   -2.7600   23.2859 H   0  0  0  0  0  0
  -22.4027  -11.9854   22.4831 H   0  0  0  0  0  0
  -21.1054  -13.1244   22.2638 H   0  0  0  0  0  0
  -24.6242  -15.8209   20.4909 H   0  0  0  0  0  0
  -26.2456  -15.6230   20.0587 H   0  0  0  0  0  0
  -26.7179  -32.5436   23.1081 H   0  0  0  0  0  0
  -25.0056  -33.9710   25.0399 H   0  0  0  0  0  0
  -22.7168  -31.2979   21.3940 H   0  0  0  0  0  0
  -23.3750  -35.9624   23.3304 H   0  0  0  0  0  0
  -24.3580  -36.8911   22.2054 H   0  0  0  0  0  0
  -23.7244  -37.6492   23.6664 H   0  0  0  0  0  0
  -26.0922  -31.5470   20.5991 H   0  0  0  0  0  0
  -26.8434  -30.8387   21.9983 H   0  0  0  0  0  0
  -28.1244  -28.9892   21.1744 H   0  0  0  0  0  0
  -25.9965  -25.8983   19.0381 H   0  0  0  0  0  0
  -23.9813  -27.2779   19.0329 H   0  0  0  0  0  0
  -23.7583  -30.5768   19.3996 H   0  0  0  0  0  0
  -22.7595  -29.2319   19.8599 H   0  0  0  0  0  0
  -25.1298  -36.1925   25.0820 H   0  0  0  0  0  0
  -20.9978  -28.3265   24.1405 H   0  0  0  0  0  0
  -20.5675  -26.2301   23.3614 H   0  0  0  0  0  0
  -21.6643  -26.7441   22.1207 H   0  0  0  0  0  0
  -19.6912  -25.6294   21.1245 H   0  0  0  0  0  0
  -19.6687  -27.3194   20.6744 H   0  0  0  0  0  0
  -17.4201  -26.6678   21.4028 H   0  0  0  0  0  0
  -18.0330  -26.0070   22.9021 H   0  0  0  0  0  0
  -19.7937  -30.7274   24.2265 H   0  0  0  0  0  0
  -17.5015  -31.6267   24.5165 H   0  0  0  0  0  0
  -15.5354  -30.2988   23.7652 H   0  0  0  0  0  0
  -15.8675  -28.0822   22.7067 H   0  0  0  0  0  0
  -24.5901  -30.7069   25.7761 H   0  0  0  0  0  0
  -24.8910  -32.2890   26.4855 H   0  0  0  0  0  0
  -25.8047  -30.8904   27.0213 H   0  0  0  0  0  0
  -26.2911  -29.6758   24.1195 H   0  0  0  0  0  0
  -27.4039  -29.7269   25.4670 H   0  0  0  0  0  0
  -27.8775  -30.4297   23.9385 H   0  0  0  0  0  0
  -27.2657  -33.3622   26.2056 H   0  0  0  0  0  0
  -28.3862  -32.6881   25.0315 H   0  0  0  0  0  0
  -28.0713  -31.8450   26.5403 H   0  0  0  0  0  0
  -28.2598  -38.0096   24.7508 H   0  0  0  0  0  0
  -28.1073  -36.2626   24.6298 H   0  0  0  0  0  0
  -27.2296  -37.1456   25.8869 H   0  0  0  0  0  0
  -20.9374  -29.8754   21.6877 H   0  0  0  0  0  0
  -26.0172  -38.2848   24.1403 H   0  0  0  0  0  0
  -30.1135  -22.4115   22.8997 H   0  0  0  0  0  0
  -30.7772  -19.7097   17.7798 H   0  0  0  0  0  0
  -31.4140  -18.1330   18.1453 H   0  0  0  0  0  0
  -32.0639  -19.5310   18.9636 H   0  0  0  0  0  0
  -31.5263  -24.0240   19.3505 H   0  0  0  0  0  0
  -30.7050  -25.5555   19.0953 H   0  0  0  0  0  0
  -30.1197  -24.1230   18.2952 H   0  0  0  0  0  0
  -31.2855  -24.4802   21.8613 H   0  0  0  0  0  0
  -29.6913  -24.7668   22.5616 H   0  0  0  0  0  0
  -30.4233  -25.9575   21.5079 H   0  0  0  0  0  0
  -28.2336  -17.2288   21.5332 H   0  0  0  0  0  0
  -29.0374  -15.9399   22.4103 H   0  0  0  0  0  0
  -27.8032  -15.5982   21.2061 H   0  0  0  0  0  0
  -28.1698  -16.7395   18.9198 H   0  0  0  0  0  0
  -28.9928  -15.2692   18.4641 H   0  0  0  0  0  0
  -29.7804  -16.7415   18.2163 H   0  0  0  0  0  0
  -28.3863  -22.4684   18.3285 H   0  0  0  0  0  0
  -28.6006  -20.7300   18.1259 H   0  0  0  0  0  0
  -29.9649  -21.8359   17.8045 H   0  0  0  0  0  0
  -30.4766  -17.8509   21.6406 H   0  0  0  0  0  0
  -31.5998  -17.4377   20.4431 H   0  0  0  0  0  0
  -27.5648  -24.7486   21.0135 H   0  0  0  0  0  0
  -27.7971  -24.6408   19.2864 H   0  0  0  0  0  0
  -29.1282  -18.7597   19.3013 H   0  0  0  0  0  0
  -30.3850  -19.9846   22.3916 H   0  0  0  0  0  0
  1 25  1  0  0  0
  1 30  2  0  0  0
  1 84  1  0  0  0
  2  3  1  0  0  0
  2 25  1  0  0  0
  2 87  1  0  0  0
  2 88  1  0  0  0
  3  4  1  0  0  0
  3 89  1  0  0  0
  3 90  1  0  0  0
  4  5  1  0  0  0
  4 91  1  0  0  0
  4 92  1  0  0  0
  5  6  1  0  0  0
  5 26  1  0  0  0
  5 93  1  0  0  0
  6 25  1  0  0  0
  6 94  1  0  0  0
  6 95  1  0  0  0
  7  8  2  0  0  0
  7 26  1  0  0  0
  7 29  1  0  0  0
  8  9  1  0  0  0
  8 22  1  0  0  0
  9 10  1  0  0  0
  9 27  2  0  0  0
 10 11  2  0  0  0
 10 15  1  0  0  0
 11 12  1  0  0  0
 11 96  1  0  0  0
 12 13  2  0  0  0
 12 97  1  0  0  0
 13 14  1  0  0  0
 13 31  1  0  0  0
 14 15  2  0  0  0
 14 98  1  0  0  0
 15 99  1  0  0  0
 16 17  2  0  0  0
 16 21  1  0  0  0
 16 31  1  0  0  0
 17 18  1  0  0  0
 17100  1  0  0  0
 18 19  2  0  0  0
 18101  1  0  0  0
 19 20  1  0  0  0
 19 24  1  0  0  0
 20 21  2  0  0  0
 20102  1  0  0  0
 21 23  1  0  0  0
 22 28  1  0  0  0
 22 32  2  0  0  0
 26 27  1  0  0  0
 28103  1  0  0  0
 28104  1  0  0  0
 29105  1  0  0  0
 29106  1  0  0  0
 33 34  1  0  0  0
 33 66  1  0  0  0
 33 70  2  0  0  0
 34 36  1  0  0  0
 34 59  1  0  0  0
 34107  1  0  0  0
 35 44  2  0  0  0
 35 45  1  0  0  0
 35 68  1  0  0  0
 36 56  1  0  0  0
 36108  1  0  0  0
 37 39  1  0  0  0
 37 47  1  0  0  0
 37 66  1  0  0  0
 37109  1  0  0  0
 38 43  2  0  0  0
 38 46  1  0  0  0
 38 47  1  0  0  0
 39 64  1  0  0  0
 39 67  2  0  0  0
 40 52  1  0  0  0
 40 53  2  0  0  0
 40 58  1  0  0  0
 41110  1  0  0  0
 41111  1  0  0  0
 41112  1  0  0  0
 41 48  1  0  0  0
 42 43  1  0  0  0
 42 66  1  0  0  0
 42113  1  0  0  0
 42114  1  0  0  0
 43 44  1  0  0  0
 44115  1  0  0  0
 45 46  2  0  0  0
 45116  1  0  0  0
 46117  1  0  0  0
 47118  1  0  0  0
 47119  1  0  0  0
 48 56  1  0  0  0
 48 65  1  0  0  0
 48120  1  0  0  0
 49 50  1  0  0  0
 49 53  1  0  0  0
 49 64  1  0  0  0
 49121  1  0  0  0
 50 51  1  0  0  0
 50122  1  0  0  0
 50123  1  0  0  0
 51 52  1  0  0  0
 51124  1  0  0  0
 51125  1  0  0  0
 52126  1  0  0  0
 52127  1  0  0  0
 53 54  1  0  0  0
 54 55  2  0  0  0
 54128  1  0  0  0
 55 57  1  0  0  0
 55129  1  0  0  0
 56 69  2  0  0  0
 57 58  2  0  0  0
 57130  1  0  0  0
 58131  1  0  0  0
 59 60  1  0  0  0
 59 61  1  0  0  0
 59 62  1  0  0  0
 60132  1  0  0  0
 60133  1  0  0  0
 60134  1  0  0  0
 61135  1  0  0  0
 61136  1  0  0  0
 61137  1  0  0  0
 62138  1  0  0  0
 62139  1  0  0  0
 62140  1  0  0  0
 63 65  1  0  0  0
 63141  1  0  0  0
 63142  1  0  0  0
 63143  1  0  0  0
 64144  1  0  0  0
 65145  1  0  0  0
 68 81  1  0  0  0
 71 72  2  0  0  0
 71 86  1  0  0  0
 71146  1  0  0  0
 72 83  1  0  0  0
 72 85  1  0  0  0
 73 82  1  0  0  0
 73 85  1  0  0  0
 73 86  2  0  0  0
 74147  1  0  0  0
 74148  1  0  0  0
 74149  1  0  0  0
 74 82  1  0  0  0
 75150  1  0  0  0
 75151  1  0  0  0
 75152  1  0  0  0
 75 83  1  0  0  0
 76 83  1  0  0  0
 76153  1  0  0  0
 76154  1  0  0  0
 76155  1  0  0  0
 77156  1  0  0  0
 77157  1  0  0  0
 77158  1  0  0  0
 77 84  1  0  0  0
 78 84  1  0  0  0
 78159  1  0  0  0
 78160  1  0  0  0
 78161  1  0  0  0
 79 85  1  0  0  0
 79162  1  0  0  0
 79163  1  0  0  0
 79164  1  0  0  0
 80 82  1  0  0  0
 80 84  1  0  0  0
 80165  1  0  0  0
 80166  1  0  0  0
 81 83  1  0  0  0
 81167  1  0  0  0
 81168  1  0  0  0
 82169  1  0  0  0
 86170  1  0  0  0
M  CHG  1  86   1
M  ISO  4   1 100  68 101  81 101  84 100
M  END
> <chiral flag>
0

> <version>
0

> <s_m_source_file>
/data/baiqing/PycharmProjects/Reinvent-master-3.2/result/LINK_invent/BTK/process_docking_weight1_custom_sum_contain_oxygen_bond_distance_aromatic_linkinvent_7_9_3/rearranged_h_0069.sdf

> <i_m_source_file_index>
61

> <r_mmod_Potential_Energy-OPLS-2005>
241.141479492188

> <r_mmod_Stretch_Energy-OPLS-2005>
133.29719543457

> <r_mmod_Bend_Energy-OPLS-2005>
188.354034423828

> <r_mmod_Torsional_Energy-OPLS-2005>
270.555419921875

> <r_mmod_Improper_Torsional_Energy-OPLS-2005>
8.63069534301758

> <r_mmod_Van_der_Waal_Energy-OPLS-2005>
143.974594116211

> <r_mmod_Electrostatic_Energy-OPLS-2005>
-189.797286987305

> <r_mmod_Solvation_Energy-OPLS-2005>
-389.508605957031

> <b_mmod_Minimization_Converged-OPLS-2005>
0

> <r_mmod_RMS_Derivative-OPLS-2005>
0.32421949505806

$$$$
61
                    3D
 Structure written by MMmdl.
163171  0  0  1  0            999 V2000
  -30.6812  -14.4654   20.6586 C   0  0  0  0  0  0
  -30.4084  -12.3323   19.4248 C   0  0  0  0  0  0
  -29.4843  -12.5085   18.2016 C   0  0  0  0  0  0
  -28.0053  -12.3608   18.6024 C   0  0  0  0  0  0
  -27.6438  -13.1967   19.8555 C   0  0  2  0  0  0
  -28.6733  -12.9903   20.9855 C   0  0  0  0  0  0
  -25.2508  -13.8155   20.5581 C   0  0  0  0  0  0
  -24.1830  -13.0439   20.9272 C   0  0  0  0  0  0
  -24.6375  -11.6908   20.8794 C   0  0  0  0  0  0
  -23.9052  -10.4276   21.0448 C   0  0  0  0  0  0
  -24.3600   -9.4206   21.9229 C   0  0  0  0  0  0
  -23.6261   -8.2269   22.0785 C   0  0  0  0  0  0
  -22.4254   -8.0293   21.3566 C   0  0  0  0  0  0
  -21.9909   -9.0276   20.4671 C   0  0  0  0  0  0
  -22.7244  -10.2143   20.3071 C   0  0  0  0  0  0
  -21.6864   -6.0696   22.5271 C   0  0  0  0  0  0
  -21.4007   -6.5601   23.8198 C   0  0  0  0  0  0
  -21.3644   -5.6769   24.9177 C   0  0  0  0  0  0
  -21.6052   -4.3033   24.7258 C   0  0  0  0  0  0
  -21.8824   -3.8120   23.4378 C   0  0  0  0  0  0
  -21.9208   -4.6922   22.3417 C   0  0  0  0  0  0
  -22.7852  -13.5231   21.1898 C   0  0  0  0  0  0
  -22.1710   -4.2093   21.1014 F   0  0  0  0  0  0
  -21.5626   -3.4538   25.7785 F   0  0  0  0  0  0
  -30.0025  -13.3076   20.4494 N   0  0  0  0  0  0
  -26.2890  -12.9289   20.3193 N   0  0  0  0  0  0
  -25.9265  -11.6476   20.5712 N   0  0  0  0  0  0
  -22.0461  -12.8265   22.0456 N   0  0  0  0  0  0
  -25.4132  -15.1872   20.3781 N   0  0  0  0  0  0
  -31.8120  -14.6631   20.2054 O   0  0  0  0  0  0
  -21.6642   -6.8872   21.4245 O   0  0  0  0  0  0
  -22.3550  -14.5499   20.6668 O   0  0  0  0  0  0
  -24.6193  -31.8663   23.2115 C   0  0  0  0  0  0
  -25.9072  -32.4817   23.8393 C   0  0  1  0  0  0
  -27.2234  -27.4147   20.0723 C   0  0  0  0  0  0
  -25.5934  -33.8621   24.2323 N   0  0  0  0  0  0
  -23.4045  -30.4946   21.5534 C   0  0  2  0  0  0
  -24.8439  -28.9620   20.1175 C   0  0  0  0  0  0
  -22.7420  -29.4664   22.5007 C   0  0  0  0  0  0
  -18.0277  -28.1366   22.8467 C   0  0  0  0  0  0
  -24.1496  -36.7284   23.2635 C   0  0  0  0  0  0
  -25.9386  -30.8275   21.3669 C   0  0  0  0  0  0
  -26.0125  -29.4638   20.7053 C   0  0  0  0  0  0
  -27.2015  -28.6977   20.6775 C   0  0  0  0  0  0
  -26.0180  -26.9200   19.5153 C   0  0  0  0  0  0
  -24.8404  -27.6908   19.5283 C   0  0  0  0  0  0
  -23.6127  -29.8382   20.1669 C   0  0  0  0  0  0
  -25.4112  -36.3070   24.0335 C   0  0  1  0  0  0
  -20.5871  -28.3662   23.1299 C   0  0  2  0  0  0
  -20.6773  -26.9415   22.5377 C   0  0  0  0  0  0
  -19.5762  -26.6403   21.5170 C   0  0  0  0  0  0
  -18.1939  -26.7921   22.1591 C   0  0  0  0  0  0
  -19.1530  -28.8834   23.2883 C   0  0  0  0  0  0
  -18.9446  -30.1433   23.8900 C   0  0  0  0  0  0
  -17.6449  -30.6572   24.0548 C   0  0  0  0  0  0
  -25.9038  -34.9456   23.5116 C   0  0  0  0  0  0
  -16.5348  -29.9048   23.6309 C   0  0  0  0  0  0
  -16.7275  -28.6472   23.0334 C   0  0  0  0  0  0
  -26.4487  -31.6594   25.0735 C   0  0  0  0  0  0
  -25.3740  -31.3737   26.1476 C   0  0  0  0  0  0
  -27.0316  -30.3027   24.6165 C   0  0  0  0  0  0
  -27.6092  -32.4296   25.7491 C   0  0  0  0  0  0
  -27.5572  -37.1790   24.8470 C   0  0  0  0  0  0
  -21.4154  -29.3039   22.3721 N   0  0  0  0  0  0
  -26.4280  -37.3766   23.9420 N   0  0  0  0  0  0
  -24.6732  -31.0748   22.1038 N   0  0  0  0  0  0
  -23.4192  -28.8197   23.3056 O   0  0  0  0  0  0
  -28.4186  -26.7137   20.0640 O   0  0  0  0  0  0
  -26.5593  -34.8903   22.4679 O   0  0  0  0  0  0
  -23.5370  -32.1444   23.7479 O   0  0  0  0  0  0
  -29.2016  -18.5297   23.7372 C   0  0  0  0  0  0
  -28.0088  -19.6066   22.2137 C   0  0  0  0  0  0
  -28.9332  -17.6282   21.7232 C   0  0  0  0  0  0
  -28.5722  -17.5507   18.4131 C   0  0  0  0  0  0
  -27.3389  -20.8971   21.7300 C   0  0  0  0  0  0
  -28.3559  -22.0370   21.4757 C   0  0  0  0  0  0
  -27.9258  -23.1157   20.4505 C   0  0  0  0  0  0
  -28.9036  -24.3159   20.4148 C   0  0  0  0  0  0
  -28.5475  -25.4346   19.4107 C   0  0  0  0  0  0
  -29.1568  -16.4548   20.7385 C   0  0  1  0  0  0
  -29.6276  -16.8537   19.2845 C   0  0  2  0  0  0
  -28.4656  -19.6010   23.4564 N   0  0  0  0  0  0
  -29.4965  -17.5183   22.9265 N   0  0  0  0  0  0
  -28.1814  -18.6473   21.3112 N   0  0  0  0  0  0
  -30.0312  -15.4220   21.3374 N   0  0  0  0  0  0
  -30.8171  -17.6338   19.2711 O   0  0  0  0  0  0
  -31.4501  -12.4550   19.1278 H   0  0  0  0  0  0
  -30.3266  -11.3199   19.8270 H   0  0  0  0  0  0
  -29.7297  -11.7811   17.4269 H   0  0  0  0  0  0
  -29.6444  -13.4937   17.7633 H   0  0  0  0  0  0
  -27.8112  -11.3046   18.7935 H   0  0  0  0  0  0
  -27.3640  -12.6431   17.7673 H   0  0  0  0  0  0
  -27.6746  -14.2350   19.5346 H   0  0  0  0  0  0
  -28.6605  -11.9563   21.3307 H   0  0  0  0  0  0
  -28.4075  -13.5847   21.8608 H   0  0  0  0  0  0
  -25.2744   -9.5666   22.4820 H   0  0  0  0  0  0
  -23.9962   -7.4695   22.7551 H   0  0  0  0  0  0
  -21.0841   -8.8867   19.8975 H   0  0  0  0  0  0
  -22.3752  -10.9698   19.6172 H   0  0  0  0  0  0
  -21.1987   -7.6120   23.9702 H   0  0  0  0  0  0
  -21.1441   -6.0496   25.9065 H   0  0  0  0  0  0
  -22.0597   -2.7567   23.2923 H   0  0  0  0  0  0
  -22.3990  -11.9980   22.4991 H   0  0  0  0  0  0
  -21.0994  -13.1176   22.2352 H   0  0  0  0  0  0
  -24.5953  -15.7863   20.4286 H   0  0  0  0  0  0
  -26.1234  -15.5629   19.7648 H   0  0  0  0  0  0
  -26.7146  -32.5499   23.1137 H   0  0  0  0  0  0
  -25.0171  -33.9808   25.0524 H   0  0  0  0  0  0
  -22.6959  -31.3147   21.4150 H   0  0  0  0  0  0
  -23.3736  -35.9631   23.3314 H   0  0  0  0  0  0
  -24.3576  -36.8895   22.2036 H   0  0  0  0  0  0
  -23.7251  -37.6515   23.6619 H   0  0  0  0  0  0
  -26.0561  -31.6021   20.6084 H   0  0  0  0  0  0
  -26.8221  -30.8676   21.9920 H   0  0  0  0  0  0
  -28.1053  -29.0909   21.1179 H   0  0  0  0  0  0
  -25.9302  -25.9439   19.0676 H   0  0  0  0  0  0
  -23.9350  -27.2903   19.0976 H   0  0  0  0  0  0
  -23.7440  -30.6208   19.4206 H   0  0  0  0  0  0
  -22.7292  -29.2787   19.8547 H   0  0  0  0  0  0
  -25.1255  -36.1935   25.0818 H   0  0  0  0  0  0
  -20.9933  -28.3193   24.1429 H   0  0  0  0  0  0
  -20.5627  -26.2293   23.3553 H   0  0  0  0  0  0
  -21.6645  -26.7439   22.1188 H   0  0  0  0  0  0
  -19.6939  -25.6306   21.1210 H   0  0  0  0  0  0
  -19.6685  -27.3215   20.6688 H   0  0  0  0  0  0
  -17.4190  -26.6668   21.4008 H   0  0  0  0  0  0
  -18.0355  -26.0063   22.8986 H   0  0  0  0  0  0
  -19.7937  -30.7246   24.2303 H   0  0  0  0  0  0
  -17.4999  -31.6266   24.5133 H   0  0  0  0  0  0
  -15.5343  -30.2933   23.7647 H   0  0  0  0  0  0
  -15.8690  -28.0785   22.7027 H   0  0  0  0  0  0
  -24.5909  -30.7096   25.7798 H   0  0  0  0  0  0
  -24.8923  -32.2915   26.4873 H   0  0  0  0  0  0
  -25.8065  -30.8923   27.0261 H   0  0  0  0  0  0
  -26.2904  -29.6818   24.1139 H   0  0  0  0  0  0
  -27.3982  -29.7244   25.4653 H   0  0  0  0  0  0
  -27.8765  -30.4341   23.9408 H   0  0  0  0  0  0
  -27.2765  -33.3601   26.2123 H   0  0  0  0  0  0
  -28.3888  -32.6883   25.0298 H   0  0  0  0  0  0
  -28.0795  -31.8385   26.5373 H   0  0  0  0  0  0
  -28.2575  -38.0095   24.7465 H   0  0  0  0  0  0
  -28.1078  -36.2610   24.6319 H   0  0  0  0  0  0
  -27.2300  -37.1475   25.8885 H   0  0  0  0  0  0
  -20.9310  -29.8768   21.6957 H   0  0  0  0  0  0
  -26.0162  -38.2854   24.1415 H   0  0  0  0  0  0
  -29.6141  -18.4880   24.7359 H   0  0  0  0  0  0
  -27.6175  -17.0250   18.4493 H   0  0  0  0  0  0
  -28.8851  -17.5624   17.3700 H   0  0  0  0  0  0
  -28.4002  -18.5847   18.7097 H   0  0  0  0  0  0
  -26.6022  -21.2262   22.4653 H   0  0  0  0  0  0
  -26.7770  -20.6907   20.8190 H   0  0  0  0  0  0
  -29.2964  -21.6017   21.1373 H   0  0  0  0  0  0
  -28.5746  -22.5140   22.4319 H   0  0  0  0  0  0
  -26.9168  -23.4629   20.6756 H   0  0  0  0  0  0
  -27.8743  -22.6675   19.4566 H   0  0  0  0  0  0
  -29.8944  -23.9415   20.1584 H   0  0  0  0  0  0
  -29.0049  -24.7438   21.4129 H   0  0  0  0  0  0
  -27.7277  -25.1242   18.7714 H   0  0  0  0  0  0
  -29.3816  -25.5315   18.7152 H   0  0  0  0  0  0
  -28.1737  -15.9961   20.6611 H   0  0  0  0  0  0
  -29.8548  -15.9501   18.7203 H   0  0  0  0  0  0
  -30.5900  -15.9128   22.0228 H   0  0  0  0  0  0
  -30.6034  -18.4996   19.6061 H   0  0  0  0  0  0
  1 25  1  0  0  0
  1 30  2  0  0  0
  1 85  1  0  0  0
  2  3  1  0  0  0
  2 25  1  0  0  0
  2 87  1  0  0  0
  2 88  1  0  0  0
  3  4  1  0  0  0
  3 89  1  0  0  0
  3 90  1  0  0  0
  4  5  1  0  0  0
  4 91  1  0  0  0
  4 92  1  0  0  0
  5  6  1  0  0  0
  5 26  1  0  0  0
  5 93  1  0  0  0
  6 25  1  0  0  0
  6 94  1  0  0  0
  6 95  1  0  0  0
  7  8  2  0  0  0
  7 26  1  0  0  0
  7 29  1  0  0  0
  8  9  1  0  0  0
  8 22  1  0  0  0
  9 10  1  0  0  0
  9 27  2  0  0  0
 10 11  2  0  0  0
 10 15  1  0  0  0
 11 12  1  0  0  0
 11 96  1  0  0  0
 12 13  2  0  0  0
 12 97  1  0  0  0
 13 14  1  0  0  0
 13 31  1  0  0  0
 14 15  2  0  0  0
 14 98  1  0  0  0
 15 99  1  0  0  0
 16 17  2  0  0  0
 16 21  1  0  0  0
 16 31  1  0  0  0
 17 18  1  0  0  0
 17100  1  0  0  0
 18 19  2  0  0  0
 18101  1  0  0  0
 19 20  1  0  0  0
 19 24  1  0  0  0
 20 21  2  0  0  0
 20102  1  0  0  0
 21 23  1  0  0  0
 22 28  1  0  0  0
 22 32  2  0  0  0
 26 27  1  0  0  0
 28103  1  0  0  0
 28104  1  0  0  0
 29105  1  0  0  0
 29106  1  0  0  0
 33 34  1  0  0  0
 33 66  1  0  0  0
 33 70  2  0  0  0
 34 36  1  0  0  0
 34 59  1  0  0  0
 34107  1  0  0  0
 35 44  2  0  0  0
 35 45  1  0  0  0
 35 68  1  0  0  0
 36 56  1  0  0  0
 36108  1  0  0  0
 37 39  1  0  0  0
 37 47  1  0  0  0
 37 66  1  0  0  0
 37109  1  0  0  0
 38 43  2  0  0  0
 38 46  1  0  0  0
 38 47  1  0  0  0
 39 64  1  0  0  0
 39 67  2  0  0  0
 40 52  1  0  0  0
 40 53  2  0  0  0
 40 58  1  0  0  0
 41110  1  0  0  0
 41111  1  0  0  0
 41112  1  0  0  0
 41 48  1  0  0  0
 42 43  1  0  0  0
 42 66  1  0  0  0
 42113  1  0  0  0
 42114  1  0  0  0
 43 44  1  0  0  0
 44115  1  0  0  0
 45 46  2  0  0  0
 45116  1  0  0  0
 46117  1  0  0  0
 47118  1  0  0  0
 47119  1  0  0  0
 48 56  1  0  0  0
 48 65  1  0  0  0
 48120  1  0  0  0
 49 50  1  0  0  0
 49 53  1  0  0  0
 49 64  1  0  0  0
 49121  1  0  0  0
 50 51  1  0  0  0
 50122  1  0  0  0
 50123  1  0  0  0
 51 52  1  0  0  0
 51124  1  0  0  0
 51125  1  0  0  0
 52126  1  0  0  0
 52127  1  0  0  0
 53 54  1  0  0  0
 54 55  2  0  0  0
 54128  1  0  0  0
 55 57  1  0  0  0
 55129  1  0  0  0
 56 69  2  0  0  0
 57 58  2  0  0  0
 57130  1  0  0  0
 58131  1  0  0  0
 59 60  1  0  0  0
 59 61  1  0  0  0
 59 62  1  0  0  0
 60132  1  0  0  0
 60133  1  0  0  0
 60134  1  0  0  0
 61135  1  0  0  0
 61136  1  0  0  0
 61137  1  0  0  0
 62138  1  0  0  0
 62139  1  0  0  0
 62140  1  0  0  0
 63 65  1  0  0  0
 63141  1  0  0  0
 63142  1  0  0  0
 63143  1  0  0  0
 64144  1  0  0  0
 65145  1  0  0  0
 68 79  1  0  0  0
 71 82  2  0  0  0
 71 83  1  0  0  0
 71146  1  0  0  0
 72 75  1  0  0  0
 72 82  1  0  0  0
 72 84  2  0  0  0
 73 80  1  0  0  0
 73 83  2  0  0  0
 73 84  1  0  0  0
 74147  1  0  0  0
 74148  1  0  0  0
 74149  1  0  0  0
 74 81  1  0  0  0
 75 76  1  0  0  0
 75150  1  0  0  0
 75151  1  0  0  0
 76 77  1  0  0  0
 76152  1  0  0  0
 76153  1  0  0  0
 77 78  1  0  0  0
 77154  1  0  0  0
 77155  1  0  0  0
 78 79  1  0  0  0
 78156  1  0  0  0
 78157  1  0  0  0
 79158  1  0  0  0
 79159  1  0  0  0
 80 81  1  0  0  0
 80 85  1  0  0  0
 80160  1  0  0  0
 81 86  1  0  0  0
 81161  1  0  0  0
 85162  1  0  0  0
 86163  1  0  0  0
M  ISO  4   1 100  68 101  79 101  85 100
M  END
> <chiral flag>
0

> <version>
0

> <s_m_source_file>
/data/baiqing/PycharmProjects/Reinvent-master-3.2/result/LINK_invent/BTK/process_docking_weight1_custom_sum_contain_oxygen_bond_distance_aromatic_linkinvent_7_9_3/rearranged_h_0069.sdf

> <i_m_source_file_index>
62

> <r_mmod_Potential_Energy-OPLS-2005>
-721.217468261719

> <r_mmod_Stretch_Energy-OPLS-2005>
40.1907348632812

> <r_mmod_Bend_Energy-OPLS-2005>
119.992179870605

> <r_mmod_Torsional_Energy-OPLS-2005>
273.255798339844

> <r_mmod_Improper_Torsional_Energy-OPLS-2005>
9.21529197692871

> <r_mmod_Van_der_Waal_Energy-OPLS-2005>
179.918823242188

> <r_mmod_Electrostatic_Energy-OPLS-2005>
-1122.92175292969

> <r_mmod_Solvation_Energy-OPLS-2005>
-237.332733154297

> <b_mmod_Minimization_Converged-OPLS-2005>
0

> <r_mmod_RMS_Derivative-OPLS-2005>
5.68163347244263

$$$$
62
                    3D
 Structure written by MMmdl.
152160  0  0  1  0            999 V2000
  -30.6408  -14.8155   20.4095 C   0  0  0  0  0  0
  -30.4146  -12.4894   19.5111 C   0  0  0  0  0  0
  -29.5136  -12.4948   18.2574 C   0  0  0  0  0  0
  -28.0396  -12.3191   18.6624 C   0  0  0  0  0  0
  -27.6278  -13.2529   19.8325 C   0  0  2  0  0  0
  -28.6646  -13.2706   20.9729 C   0  0  0  0  0  0
  -25.2456  -13.8257   20.5727 C   0  0  0  0  0  0
  -24.1763  -13.0463   20.9206 C   0  0  0  0  0  0
  -24.6383  -11.6951   20.8739 C   0  0  0  0  0  0
  -23.9074  -10.4308   21.0396 C   0  0  0  0  0  0
  -24.3623   -9.4222   21.9172 C   0  0  0  0  0  0
  -23.6298   -8.2254   22.0746 C   0  0  0  0  0  0
  -22.4280   -8.0287   21.3537 C   0  0  0  0  0  0
  -21.9914   -9.0259   20.4640 C   0  0  0  0  0  0
  -22.7243  -10.2142   20.3046 C   0  0  0  0  0  0
  -21.6858   -6.0734   22.5276 C   0  0  0  0  0  0
  -21.4019   -6.5635   23.8212 C   0  0  0  0  0  0
  -21.3663   -5.6788   24.9173 C   0  0  0  0  0  0
  -21.6047   -4.3050   24.7222 C   0  0  0  0  0  0
  -21.8819   -3.8141   23.4342 C   0  0  0  0  0  0
  -21.9194   -4.6959   22.3399 C   0  0  0  0  0  0
  -22.7782  -13.5225   21.1872 C   0  0  0  0  0  0
  -22.1661   -4.2147   21.0975 F   0  0  0  0  0  0
  -21.5632   -3.4531   25.7732 F   0  0  0  0  0  0
  -29.9661  -13.6045   20.3896 N   0  0  0  0  0  0
  -26.2873  -12.9498   20.3225 N   0  0  0  0  0  0
  -25.9316  -11.6618   20.5724 N   0  0  0  0  0  0
  -22.0440  -12.8211   22.0436 N   0  0  0  0  0  0
  -25.4163  -15.1986   20.4243 N   0  0  0  0  0  0
  -31.8469  -14.7798   20.1440 O   0  0  0  0  0  0
  -21.6642   -6.8880   21.4240 O   0  0  0  0  0  0
  -22.3455  -14.5524   20.6718 O   0  0  0  0  0  0
  -24.6366  -31.8511   23.1945 C   0  0  0  0  0  0
  -25.9171  -32.4734   23.8310 C   0  0  1  0  0  0
  -27.2067  -27.2049   20.1344 C   0  0  0  0  0  0
  -25.5951  -33.8538   24.2238 N   0  0  0  0  0  0
  -23.4356  -30.4740   21.5388 C   0  0  2  0  0  0
  -24.8814  -28.9161   20.1055 C   0  0  0  0  0  0
  -22.7534  -29.4581   22.4881 C   0  0  0  0  0  0
  -18.0304  -28.1386   22.8478 C   0  0  0  0  0  0
  -24.1488  -36.7270   23.2636 C   0  0  0  0  0  0
  -25.9859  -30.7463   21.3819 C   0  0  0  0  0  0
  -26.0554  -29.3637   20.7242 C   0  0  0  0  0  0
  -27.2204  -28.5209   20.7277 C   0  0  0  0  0  0
  -26.0139  -26.8517   19.4640 C   0  0  0  0  0  0
  -24.8694  -27.6716   19.4614 C   0  0  0  0  0  0
  -23.6555  -29.8089   20.1549 C   0  0  0  0  0  0
  -25.4118  -36.3057   24.0320 C   0  0  1  0  0  0
  -20.5912  -28.3705   23.1244 C   0  0  2  0  0  0
  -20.6784  -26.9416   22.5396 C   0  0  0  0  0  0
  -19.5761  -26.6379   21.5195 C   0  0  0  0  0  0
  -18.1947  -26.7926   22.1616 C   0  0  0  0  0  0
  -19.1560  -28.8863   23.2858 C   0  0  0  0  0  0
  -18.9474  -30.1459   23.8886 C   0  0  0  0  0  0
  -17.6471  -30.6583   24.0558 C   0  0  0  0  0  0
  -25.9065  -34.9427   23.5083 C   0  0  0  0  0  0
  -16.5365  -29.9078   23.6326 C   0  0  0  0  0  0
  -16.7291  -28.6493   23.0354 C   0  0  0  0  0  0
  -26.4525  -31.6570   25.0715 C   0  0  0  0  0  0
  -25.3732  -31.3719   26.1421 C   0  0  0  0  0  0
  -27.0370  -30.2979   24.6225 C   0  0  0  0  0  0
  -27.6082  -32.4306   25.7495 C   0  0  0  0  0  0
  -27.5577  -37.1792   24.8471 C   0  0  0  0  0  0
  -21.4233  -29.3050   22.3631 N   0  0  0  0  0  0
  -26.4289  -37.3760   23.9413 N   0  0  0  0  0  0
  -24.7055  -31.0437   22.0942 N   0  0  0  0  0  0
  -23.4214  -28.8114   23.2990 O   0  0  0  0  0  0
  -28.2658  -26.2521   20.2222 O   0  0  0  0  0  0
  -26.5633  -34.8912   22.4650 O   0  0  0  0  0  0
  -23.5502  -32.1352   23.7212 O   0  0  0  0  0  0
  -30.5696  -17.3009   19.6018 C   0  0  0  0  0  0
  -30.0130  -16.2770   20.4433 C   0  0  0  0  0  0
  -28.7988  -18.0990   21.4275 C   0  0  0  0  0  0
  -29.4100  -19.1214   20.6086 C   0  0  0  0  0  0
  -27.8125  -18.4783   22.5134 C   0  0  0  0  0  0
  -29.4080  -20.7153   20.9367 C   0  0  0  0  0  0
  -28.6187  -21.9286   20.1581 C   0  0  0  0  0  0
  -28.9084  -23.5166   20.5316 C   0  0  0  0  0  0
  -27.9922  -24.7667   19.9799 C   0  0  0  0  0  0
  -30.2886  -18.6553   19.6729 N   0  0  0  0  0  0
  -29.0864  -16.7367   21.3508 N   0  0  0  0  0  0
  -31.4607  -12.5737   19.2139 H   0  0  0  0  0  0
  -30.3387  -11.5368   20.0381 H   0  0  0  0  0  0
  -29.8094  -11.6963   17.5755 H   0  0  0  0  0  0
  -29.6411  -13.4310   17.7124 H   0  0  0  0  0  0
  -27.9050  -11.2768   18.9545 H   0  0  0  0  0  0
  -27.3878  -12.4781   17.8025 H   0  0  0  0  0  0
  -27.5995  -14.2586   19.4115 H   0  0  0  0  0  0
  -28.7054  -12.3056   21.4791 H   0  0  0  0  0  0
  -28.3866  -14.0072   21.7280 H   0  0  0  0  0  0
  -25.2765   -9.5705   22.4749 H   0  0  0  0  0  0
  -24.0010   -7.4650   22.7468 H   0  0  0  0  0  0
  -21.0842   -8.8779   19.8952 H   0  0  0  0  0  0
  -22.3690  -10.9677   19.6159 H   0  0  0  0  0  0
  -21.2011   -7.6144   23.9715 H   0  0  0  0  0  0
  -21.1488   -6.0515   25.9077 H   0  0  0  0  0  0
  -22.0593   -2.7602   23.2840 H   0  0  0  0  0  0
  -22.4077  -11.9888   22.4837 H   0  0  0  0  0  0
  -21.1056  -13.1225   22.2649 H   0  0  0  0  0  0
  -24.6605  -15.8594   20.5674 H   0  0  0  0  0  0
  -26.2934  -15.6434   20.1812 H   0  0  0  0  0  0
  -26.7238  -32.5371   23.1047 H   0  0  0  0  0  0
  -25.0113  -33.9672   25.0396 H   0  0  0  0  0  0
  -22.7343  -31.2980   21.3914 H   0  0  0  0  0  0
  -23.3754  -35.9599   23.3290 H   0  0  0  0  0  0
  -24.3578  -36.8901   22.2052 H   0  0  0  0  0  0
  -23.7235  -37.6465   23.6669 H   0  0  0  0  0  0
  -26.1306  -31.5015   20.6080 H   0  0  0  0  0  0
  -26.8622  -30.7988   22.0167 H   0  0  0  0  0  0
  -28.1142  -28.8536   21.2359 H   0  0  0  0  0  0
  -25.9299  -25.9070   18.9483 H   0  0  0  0  0  0
  -23.9744  -27.3299   18.9600 H   0  0  0  0  0  0
  -23.7848  -30.5850   19.3998 H   0  0  0  0  0  0
  -22.7721  -29.2453   19.8483 H   0  0  0  0  0  0
  -25.1300  -36.1893   25.0810 H   0  0  0  0  0  0
  -21.0014  -28.3284   24.1359 H   0  0  0  0  0  0
  -20.5655  -26.2324   23.3611 H   0  0  0  0  0  0
  -21.6654  -26.7413   22.1209 H   0  0  0  0  0  0
  -19.6919  -25.6282   21.1242 H   0  0  0  0  0  0
  -19.6692  -27.3170   20.6711 H   0  0  0  0  0  0
  -17.4209  -26.6664   21.4028 H   0  0  0  0  0  0
  -18.0362  -26.0072   22.9020 H   0  0  0  0  0  0
  -19.7951  -30.7276   24.2257 H   0  0  0  0  0  0
  -17.5024  -31.6262   24.5159 H   0  0  0  0  0  0
  -15.5364  -30.2973   23.7648 H   0  0  0  0  0  0
  -15.8695  -28.0798   22.7082 H   0  0  0  0  0  0
  -24.5942  -30.7034   25.7735 H   0  0  0  0  0  0
  -24.8886  -32.2880   26.4805 H   0  0  0  0  0  0
  -25.8037  -30.8929   27.0223 H   0  0  0  0  0  0
  -26.2952  -29.6725   24.1246 H   0  0  0  0  0  0
  -27.4031  -29.7252   25.4755 H   0  0  0  0  0  0
  -27.8846  -30.4240   23.9486 H   0  0  0  0  0  0
  -27.2711  -33.3631   26.2035 H   0  0  0  0  0  0
  -28.3921  -32.6814   25.0335 H   0  0  0  0  0  0
  -28.0722  -31.8446   26.5443 H   0  0  0  0  0  0
  -28.2593  -38.0090   24.7519 H   0  0  0  0  0  0
  -28.1076  -36.2623   24.6298 H   0  0  0  0  0  0
  -27.2302  -37.1437   25.8875 H   0  0  0  0  0  0
  -20.9422  -29.8792   21.6849 H   0  0  0  0  0  0
  -26.0161  -38.2832   24.1411 H   0  0  0  0  0  0
  -31.3235  -17.0379   18.8731 H   0  0  0  0  0  0
  -27.1780  -17.6337   22.7839 H   0  0  0  0  0  0
  -27.1617  -19.2844   22.1734 H   0  0  0  0  0  0
  -28.3388  -18.8125   23.4078 H   0  0  0  0  0  0
  -30.4625  -20.9924   20.9189 H   0  0  0  0  0  0
  -29.1421  -20.8041   21.9895 H   0  0  0  0  0  0
  -27.5503  -21.7505   20.2827 H   0  0  0  0  0  0
  -28.8045  -21.8090   19.0904 H   0  0  0  0  0  0
  -28.9052  -23.5920   21.6190 H   0  0  0  0  0  0
  -29.9384  -23.7255   20.2419 H   0  0  0  0  0  0
  -26.9930  -24.5566   20.3625 H   0  0  0  0  0  0
  -27.9228  -24.6499   18.8973 H   0  0  0  0  0  0
  1 25  1  0  0  0
  1 30  2  0  0  0
  1 72  1  0  0  0
  2  3  1  0  0  0
  2 25  1  0  0  0
  2 82  1  0  0  0
  2 83  1  0  0  0
  3  4  1  0  0  0
  3 84  1  0  0  0
  3 85  1  0  0  0
  4  5  1  0  0  0
  4 86  1  0  0  0
  4 87  1  0  0  0
  5  6  1  0  0  0
  5 26  1  0  0  0
  5 88  1  0  0  0
  6 25  1  0  0  0
  6 89  1  0  0  0
  6 90  1  0  0  0
  7  8  2  0  0  0
  7 26  1  0  0  0
  7 29  1  0  0  0
  8  9  1  0  0  0
  8 22  1  0  0  0
  9 10  1  0  0  0
  9 27  2  0  0  0
 10 11  2  0  0  0
 10 15  1  0  0  0
 11 12  1  0  0  0
 11 91  1  0  0  0
 12 13  2  0  0  0
 12 92  1  0  0  0
 13 14  1  0  0  0
 13 31  1  0  0  0
 14 15  2  0  0  0
 14 93  1  0  0  0
 15 94  1  0  0  0
 16 17  2  0  0  0
 16 21  1  0  0  0
 16 31  1  0  0  0
 17 18  1  0  0  0
 17 95  1  0  0  0
 18 19  2  0  0  0
 18 96  1  0  0  0
 19 20  1  0  0  0
 19 24  1  0  0  0
 20 21  2  0  0  0
 20 97  1  0  0  0
 21 23  1  0  0  0
 22 28  1  0  0  0
 22 32  2  0  0  0
 26 27  1  0  0  0
 28 98  1  0  0  0
 28 99  1  0  0  0
 29100  1  0  0  0
 29101  1  0  0  0
 33 34  1  0  0  0
 33 66  1  0  0  0
 33 70  2  0  0  0
 34 36  1  0  0  0
 34 59  1  0  0  0
 34102  1  0  0  0
 35 44  2  0  0  0
 35 45  1  0  0  0
 35 68  1  0  0  0
 36 56  1  0  0  0
 36103  1  0  0  0
 37 39  1  0  0  0
 37 47  1  0  0  0
 37 66  1  0  0  0
 37104  1  0  0  0
 38 43  2  0  0  0
 38 46  1  0  0  0
 38 47  1  0  0  0
 39 64  1  0  0  0
 39 67  2  0  0  0
 40 52  1  0  0  0
 40 53  2  0  0  0
 40 58  1  0  0  0
 41105  1  0  0  0
 41106  1  0  0  0
 41107  1  0  0  0
 41 48  1  0  0  0
 42 43  1  0  0  0
 42 66  1  0  0  0
 42108  1  0  0  0
 42109  1  0  0  0
 43 44  1  0  0  0
 44110  1  0  0  0
 45 46  2  0  0  0
 45111  1  0  0  0
 46112  1  0  0  0
 47113  1  0  0  0
 47114  1  0  0  0
 48 56  1  0  0  0
 48 65  1  0  0  0
 48115  1  0  0  0
 49 50  1  0  0  0
 49 53  1  0  0  0
 49 64  1  0  0  0
 49116  1  0  0  0
 50 51  1  0  0  0
 50117  1  0  0  0
 50118  1  0  0  0
 51 52  1  0  0  0
 51119  1  0  0  0
 51120  1  0  0  0
 52121  1  0  0  0
 52122  1  0  0  0
 53 54  1  0  0  0
 54 55  2  0  0  0
 54123  1  0  0  0
 55 57  1  0  0  0
 55124  1  0  0  0
 56 69  2  0  0  0
 57 58  2  0  0  0
 57125  1  0  0  0
 58126  1  0  0  0
 59 60  1  0  0  0
 59 61  1  0  0  0
 59 62  1  0  0  0
 60127  1  0  0  0
 60128  1  0  0  0
 60129  1  0  0  0
 61130  1  0  0  0
 61131  1  0  0  0
 61132  1  0  0  0
 62133  1  0  0  0
 62134  1  0  0  0
 62135  1  0  0  0
 63 65  1  0  0  0
 63136  1  0  0  0
 63137  1  0  0  0
 63138  1  0  0  0
 64139  1  0  0  0
 65140  1  0  0  0
 68 79  1  0  0  0
 71 72  2  0  0  0
 71 80  1  0  0  0
 71141  1  0  0  0
 72 81  1  0  0  0
 73 74  1  0  0  0
 73 75  1  0  0  0
 73 81  2  0  0  0
 74 76  1  0  0  0
 74 80  2  0  0  0
 75142  1  0  0  0
 75143  1  0  0  0
 75144  1  0  0  0
 76 77  1  0  0  0
 76145  1  0  0  0
 76146  1  0  0  0
 77 78  1  0  0  0
 77147  1  0  0  0
 77148  1  0  0  0
 78 79  1  0  0  0
 78149  1  0  0  0
 78150  1  0  0  0
 79151  1  0  0  0
 79152  1  0  0  0
M  ISO  4   1 100  68 101  72 100  79 101
M  END
> <chiral flag>
0

> <version>
0

> <s_m_source_file>
/data/baiqing/PycharmProjects/Reinvent-master-3.2/result/LINK_invent/BTK/process_docking_weight1_custom_sum_contain_oxygen_bond_distance_aromatic_linkinvent_7_9_3/rearranged_h_0069.sdf

> <i_m_source_file_index>
63

> <r_mmod_Potential_Energy-OPLS-2005>
474.853302001953

> <r_mmod_Stretch_Energy-OPLS-2005>
174.717666625977

> <r_mmod_Bend_Energy-OPLS-2005>
218.749237060547

> <r_mmod_Torsional_Energy-OPLS-2005>
203.619323730469

> <r_mmod_Improper_Torsional_Energy-OPLS-2005>
9.05648994445801

> <r_mmod_Van_der_Waal_Energy-OPLS-2005>
138.568511962891

> <r_mmod_Electrostatic_Energy-OPLS-2005>
-200.955551147461

> <r_mmod_Solvation_Energy-OPLS-2005>
-197.068084716797

> <b_mmod_Minimization_Converged-OPLS-2005>
0

> <r_mmod_RMS_Derivative-OPLS-2005>
0.85312420129776

$$$$
63
                    3D
 Structure written by MMmdl.
172180  0  0  1  0            999 V2000
  -30.6499  -14.5888   20.4130 C   0  0  0  0  0  0
  -30.4314  -12.3293   19.4521 C   0  0  0  0  0  0
  -29.5047  -12.3799   18.2211 C   0  0  0  0  0  0
  -28.0159  -12.2972   18.6301 C   0  0  0  0  0  0
  -27.6424  -13.1947   19.8450 C   0  0  2  0  0  0
  -28.6950  -13.1012   20.9682 C   0  0  0  0  0  0
  -25.2568  -13.8120   20.5730 C   0  0  0  0  0  0
  -24.1808  -13.0404   20.9212 C   0  0  0  0  0  0
  -24.6347  -11.6879   20.8758 C   0  0  0  0  0  0
  -23.9016  -10.4262   21.0413 C   0  0  0  0  0  0
  -24.3580   -9.4186   21.9183 C   0  0  0  0  0  0
  -23.6261   -8.2237   22.0760 C   0  0  0  0  0  0
  -22.4247   -8.0261   21.3557 C   0  0  0  0  0  0
  -21.9874   -9.0221   20.4673 C   0  0  0  0  0  0
  -22.7182  -10.2111   20.3072 C   0  0  0  0  0  0
  -21.6872   -6.0709   22.5273 C   0  0  0  0  0  0
  -21.4014   -6.5620   23.8198 C   0  0  0  0  0  0
  -21.3664   -5.6785   24.9171 C   0  0  0  0  0  0
  -21.6040   -4.3047   24.7225 C   0  0  0  0  0  0
  -21.8832   -3.8124   23.4350 C   0  0  0  0  0  0
  -21.9226   -4.6940   22.3403 C   0  0  0  0  0  0
  -22.7838  -13.5242   21.1860 C   0  0  0  0  0  0
  -22.1678   -4.2107   21.0980 F   0  0  0  0  0  0
  -21.5628   -3.4557   25.7748 F   0  0  0  0  0  0
  -30.0031  -13.3900   20.3745 N   0  0  0  0  0  0
  -26.2942  -12.9242   20.3320 N   0  0  0  0  0  0
  -25.9275  -11.6432   20.5805 N   0  0  0  0  0  0
  -22.0482  -12.8263   22.0438 N   0  0  0  0  0  0
  -25.4360  -15.1830   20.4134 N   0  0  0  0  0  0
  -31.8621  -14.6839   20.2098 O   0  0  0  0  0  0
  -21.6627   -6.8853   21.4248 O   0  0  0  0  0  0
  -22.3570  -14.5559   20.6718 O   0  0  0  0  0  0
  -24.6161  -31.8642   23.2087 C   0  0  0  0  0  0
  -25.9047  -32.4804   23.8377 C   0  0  1  0  0  0
  -27.2338  -27.4164   20.1039 C   0  0  0  0  0  0
  -25.5902  -33.8602   24.2316 N   0  0  0  0  0  0
  -23.4043  -30.4891   21.5482 C   0  0  2  0  0  0
  -24.8494  -28.9465   20.1171 C   0  0  0  0  0  0
  -22.7405  -29.4656   22.4976 C   0  0  0  0  0  0
  -18.0279  -28.1374   22.8499 C   0  0  0  0  0  0
  -24.1484  -36.7312   23.2643 C   0  0  0  0  0  0
  -25.9337  -30.8239   21.3627 C   0  0  0  0  0  0
  -26.0090  -29.4561   20.7140 C   0  0  0  0  0  0
  -27.2022  -28.6976   20.7045 C   0  0  0  0  0  0
  -26.0573  -26.9246   19.4953 C   0  0  0  0  0  0
  -24.8688  -27.6801   19.5059 C   0  0  0  0  0  0
  -23.6121  -29.8156   20.1649 C   0  0  0  0  0  0
  -25.4105  -36.3103   24.0342 C   0  0  1  0  0  0
  -20.5869  -28.3661   23.1304 C   0  0  2  0  0  0
  -20.6760  -26.9389   22.5417 C   0  0  0  0  0  0
  -19.5742  -26.6384   21.5209 C   0  0  0  0  0  0
  -18.1923  -26.7927   22.1619 C   0  0  0  0  0  0
  -19.1529  -28.8834   23.2908 C   0  0  0  0  0  0
  -18.9457  -30.1441   23.8920 C   0  0  0  0  0  0
  -17.6460  -30.6583   24.0568 C   0  0  0  0  0  0
  -25.9027  -34.9466   23.5130 C   0  0  0  0  0  0
  -16.5351  -29.9086   23.6329 C   0  0  0  0  0  0
  -16.7267  -28.6500   23.0352 C   0  0  0  0  0  0
  -26.4488  -31.6591   25.0709 C   0  0  0  0  0  0
  -25.3777  -31.3679   26.1480 C   0  0  0  0  0  0
  -27.0329  -30.3043   24.6072 C   0  0  0  0  0  0
  -27.6065  -32.4318   25.7468 C   0  0  0  0  0  0
  -27.5580  -37.1813   24.8470 C   0  0  0  0  0  0
  -21.4134  -29.3040   22.3715 N   0  0  0  0  0  0
  -26.4291  -37.3789   23.9415 N   0  0  0  0  0  0
  -24.6701  -31.0742   22.0984 N   0  0  0  0  0  0
  -23.4167  -28.8193   23.3018 O   0  0  0  0  0  0
  -28.4141  -26.6987   20.1271 O   0  0  0  0  0  0
  -26.5593  -34.8927   22.4689 O   0  0  0  0  0  0
  -23.5353  -32.1398   23.7488 O   0  0  0  0  0  0
  -29.2740  -22.0656   21.5941 C   0  0  0  0  0  0
  -30.1513  -22.4103   19.5952 C   0  0  0  0  0  0
  -29.6339  -23.0913   20.6608 C   0  0  0  0  0  0
  -29.6554  -20.8193   21.1379 C   0  0  0  0  0  0
  -30.8825  -25.2346   20.2913 C   0  0  0  0  0  0
  -29.4273  -24.9919   22.3114 C   0  0  0  0  0  0
  -31.0267  -19.3240   22.5789 C   0  0  0  0  0  0
  -28.6048  -19.5349   23.0229 C   0  0  0  0  0  0
  -30.8497  -20.1053   18.9788 C   0  0  0  0  0  0
  -29.3890  -16.0908   19.0216 C   0  0  0  0  0  0
  -29.2829  -18.1849   21.0292 C   0  0  0  0  0  0
  -30.2216  -16.9175   21.1540 C   0  0  0  0  0  0
  -28.3724  -25.2581   20.0309 C   0  0  0  0  0  0
  -29.5620  -24.6270   20.8181 C   0  0  0  0  0  0
  -29.6511  -19.4682   21.8869 C   0  0  0  0  0  0
  -30.2261  -21.0554   19.8844 N   0  0  0  0  0  0
  -29.8591  -15.7083   20.3629 N   0  0  0  0  0  0
  -31.4710  -12.4376   19.1412 H   0  0  0  0  0  0
  -30.3680  -11.3613   19.9473 H   0  0  0  0  0  0
  -29.7455  -11.5404   17.5672 H   0  0  0  0  0  0
  -29.6989  -13.2680   17.6236 H   0  0  0  0  0  0
  -27.8220  -11.2541   18.8798 H   0  0  0  0  0  0
  -27.3745  -12.5181   17.7779 H   0  0  0  0  0  0
  -27.6310  -14.2141   19.4703 H   0  0  0  0  0  0
  -28.7042  -12.1083   21.4176 H   0  0  0  0  0  0
  -28.4694  -13.8117   21.7684 H   0  0  0  0  0  0
  -25.2731   -9.5680   22.4751 H   0  0  0  0  0  0
  -23.9985   -7.4642   22.7484 H   0  0  0  0  0  0
  -21.0802   -8.8708   19.8992 H   0  0  0  0  0  0
  -22.3599  -10.9638   19.6174 H   0  0  0  0  0  0
  -21.1965   -7.6121   23.9673 H   0  0  0  0  0  0
  -21.1499   -6.0525   25.9074 H   0  0  0  0  0  0
  -22.0614   -2.7589   23.2858 H   0  0  0  0  0  0
  -22.4039  -11.9905   22.4812 H   0  0  0  0  0  0
  -21.1108  -13.1338   22.2642 H   0  0  0  0  0  0
  -24.6855  -15.8527   20.5327 H   0  0  0  0  0  0
  -26.3162  -15.6111   20.1534 H   0  0  0  0  0  0
  -26.7112  -32.5515   23.1129 H   0  0  0  0  0  0
  -25.0083  -33.9749   25.0487 H   0  0  0  0  0  0
  -22.6948  -31.3073   21.4054 H   0  0  0  0  0  0
  -23.3736  -35.9659   23.3323 H   0  0  0  0  0  0
  -24.3577  -36.8905   22.2055 H   0  0  0  0  0  0
  -23.7247  -37.6529   23.6641 H   0  0  0  0  0  0
  -26.0454  -31.5821   20.5874 H   0  0  0  0  0  0
  -26.8217  -30.8803   21.9798 H   0  0  0  0  0  0
  -28.0972  -29.0821   21.1739 H   0  0  0  0  0  0
  -26.0451  -25.9615   19.0055 H   0  0  0  0  0  0
  -23.9775  -27.2796   19.0428 H   0  0  0  0  0  0
  -23.7221  -30.5851   19.3998 H   0  0  0  0  0  0
  -22.7354  -29.2338   19.8730 H   0  0  0  0  0  0
  -25.1284  -36.1969   25.0837 H   0  0  0  0  0  0
  -20.9982  -28.3238   24.1414 H   0  0  0  0  0  0
  -20.5642  -26.2273   23.3614 H   0  0  0  0  0  0
  -21.6632  -26.7422   22.1217 H   0  0  0  0  0  0
  -19.6897  -25.6302   21.1227 H   0  0  0  0  0  0
  -19.6686  -27.3205   20.6748 H   0  0  0  0  0  0
  -17.4196  -26.6694   21.4019 H   0  0  0  0  0  0
  -18.0316  -26.0057   22.8999 H   0  0  0  0  0  0
  -19.7936  -30.7251   24.2293 H   0  0  0  0  0  0
  -17.5019  -31.6266   24.5161 H   0  0  0  0  0  0
  -15.5351  -30.2991   23.7648 H   0  0  0  0  0  0
  -15.8671  -28.0829   22.7048 H   0  0  0  0  0  0
  -24.5930  -30.7046   25.7826 H   0  0  0  0  0  0
  -24.8999  -32.2827   26.4994 H   0  0  0  0  0  0
  -25.8162  -30.8805   27.0196 H   0  0  0  0  0  0
  -26.2855  -29.6777   24.1190 H   0  0  0  0  0  0
  -27.4184  -29.7308   25.4508 H   0  0  0  0  0  0
  -27.8652  -30.4382   23.9160 H   0  0  0  0  0  0
  -27.2676  -33.3594   26.2091 H   0  0  0  0  0  0
  -28.3846  -32.6914   25.0278 H   0  0  0  0  0  0
  -28.0765  -31.8418   26.5343 H   0  0  0  0  0  0
  -28.2615  -38.0091   24.7498 H   0  0  0  0  0  0
  -28.1054  -36.2625   24.6316 H   0  0  0  0  0  0
  -27.2301  -37.1492   25.8873 H   0  0  0  0  0  0
  -20.9286  -29.8766   21.6950 H   0  0  0  0  0  0
  -26.0183  -38.2874   24.1398 H   0  0  0  0  0  0
  -28.8451  -22.2457   22.5687 H   0  0  0  0  0  0
  -30.5476  -22.7883   18.6615 H   0  0  0  0  0  0
  -31.7482  -24.8155   20.8069 H   0  0  0  0  0  0
  -30.9177  -26.3156   20.4281 H   0  0  0  0  0  0
  -31.0128  -25.0483   19.2251 H   0  0  0  0  0  0
  -30.2644  -24.6026   22.8924 H   0  0  0  0  0  0
  -28.5100  -24.5932   22.7443 H   0  0  0  0  0  0
  -29.4061  -26.0722   22.4611 H   0  0  0  0  0  0
  -31.2065  -20.1646   23.2502 H   0  0  0  0  0  0
  -31.8481  -19.3112   21.8642 H   0  0  0  0  0  0
  -31.0984  -18.4274   23.1945 H   0  0  0  0  0  0
  -28.8216  -20.3304   23.7346 H   0  0  0  0  0  0
  -28.5668  -18.6054   23.5916 H   0  0  0  0  0  0
  -27.6042  -19.7176   22.6270 H   0  0  0  0  0  0
  -31.5987  -20.6065   18.3649 H   0  0  0  0  0  0
  -30.0970  -19.6772   18.3165 H   0  0  0  0  0  0
  -31.3422  -19.3092   19.5335 H   0  0  0  0  0  0
  -30.0464  -16.8386   18.5752 H   0  0  0  0  0  0
  -28.3805  -16.5014   19.0650 H   0  0  0  0  0  0
  -29.3561  -15.2630   18.3174 H   0  0  0  0  0  0
  -28.2649  -17.8697   21.2631 H   0  0  0  0  0  0
  -29.1884  -18.4807   19.9907 H   0  0  0  0  0  0
  -30.2518  -16.6055   22.1962 H   0  0  0  0  0  0
  -31.2388  -17.2016   20.8791 H   0  0  0  0  0  0
  -27.4381  -24.8521   20.4233 H   0  0  0  0  0  0
  -28.4302  -24.9780   18.9774 H   0  0  0  0  0  0
  1 25  1  0  0  0
  1 30  2  0  0  0
  1 87  1  0  0  0
  2  3  1  0  0  0
  2 25  1  0  0  0
  2 88  1  0  0  0
  2 89  1  0  0  0
  3  4  1  0  0  0
  3 90  1  0  0  0
  3 91  1  0  0  0
  4  5  1  0  0  0
  4 92  1  0  0  0
  4 93  1  0  0  0
  5  6  1  0  0  0
  5 26  1  0  0  0
  5 94  1  0  0  0
  6 25  1  0  0  0
  6 95  1  0  0  0
  6 96  1  0  0  0
  7  8  2  0  0  0
  7 26  1  0  0  0
  7 29  1  0  0  0
  8  9  1  0  0  0
  8 22  1  0  0  0
  9 10  1  0  0  0
  9 27  2  0  0  0
 10 11  2  0  0  0
 10 15  1  0  0  0
 11 12  1  0  0  0
 11 97  1  0  0  0
 12 13  2  0  0  0
 12 98  1  0  0  0
 13 14  1  0  0  0
 13 31  1  0  0  0
 14 15  2  0  0  0
 14 99  1  0  0  0
 15100  1  0  0  0
 16 17  2  0  0  0
 16 21  1  0  0  0
 16 31  1  0  0  0
 17 18  1  0  0  0
 17101  1  0  0  0
 18 19  2  0  0  0
 18102  1  0  0  0
 19 20  1  0  0  0
 19 24  1  0  0  0
 20 21  2  0  0  0
 20103  1  0  0  0
 21 23  1  0  0  0
 22 28  1  0  0  0
 22 32  2  0  0  0
 26 27  1  0  0  0
 28104  1  0  0  0
 28105  1  0  0  0
 29106  1  0  0  0
 29107  1  0  0  0
 33 34  1  0  0  0
 33 66  1  0  0  0
 33 70  2  0  0  0
 34 36  1  0  0  0
 34 59  1  0  0  0
 34108  1  0  0  0
 35 44  2  0  0  0
 35 45  1  0  0  0
 35 68  1  0  0  0
 36 56  1  0  0  0
 36109  1  0  0  0
 37 39  1  0  0  0
 37 47  1  0  0  0
 37 66  1  0  0  0
 37110  1  0  0  0
 38 43  2  0  0  0
 38 46  1  0  0  0
 38 47  1  0  0  0
 39 64  1  0  0  0
 39 67  2  0  0  0
 40 52  1  0  0  0
 40 53  2  0  0  0
 40 58  1  0  0  0
 41111  1  0  0  0
 41112  1  0  0  0
 41113  1  0  0  0
 41 48  1  0  0  0
 42 43  1  0  0  0
 42 66  1  0  0  0
 42114  1  0  0  0
 42115  1  0  0  0
 43 44  1  0  0  0
 44116  1  0  0  0
 45 46  2  0  0  0
 45117  1  0  0  0
 46118  1  0  0  0
 47119  1  0  0  0
 47120  1  0  0  0
 48 56  1  0  0  0
 48 65  1  0  0  0
 48121  1  0  0  0
 49 50  1  0  0  0
 49 53  1  0  0  0
 49 64  1  0  0  0
 49122  1  0  0  0
 50 51  1  0  0  0
 50123  1  0  0  0
 50124  1  0  0  0
 51 52  1  0  0  0
 51125  1  0  0  0
 51126  1  0  0  0
 52127  1  0  0  0
 52128  1  0  0  0
 53 54  1  0  0  0
 54 55  2  0  0  0
 54129  1  0  0  0
 55 57  1  0  0  0
 55130  1  0  0  0
 56 69  2  0  0  0
 57 58  2  0  0  0
 57131  1  0  0  0
 58132  1  0  0  0
 59 60  1  0  0  0
 59 61  1  0  0  0
 59 62  1  0  0  0
 60133  1  0  0  0
 60134  1  0  0  0
 60135  1  0  0  0
 61136  1  0  0  0
 61137  1  0  0  0
 61138  1  0  0  0
 62139  1  0  0  0
 62140  1  0  0  0
 62141  1  0  0  0
 63 65  1  0  0  0
 63142  1  0  0  0
 63143  1  0  0  0
 63144  1  0  0  0
 64145  1  0  0  0
 65146  1  0  0  0
 68 83  1  0  0  0
 71 73  1  0  0  0
 71 74  2  0  0  0
 71147  1  0  0  0
 72 73  2  0  0  0
 72 86  1  0  0  0
 72148  1  0  0  0
 73 84  1  0  0  0
 74 85  1  0  0  0
 74 86  1  0  0  0
 75149  1  0  0  0
 75150  1  0  0  0
 75151  1  0  0  0
 75 84  1  0  0  0
 76 84  1  0  0  0
 76152  1  0  0  0
 76153  1  0  0  0
 76154  1  0  0  0
 77155  1  0  0  0
 77156  1  0  0  0
 77157  1  0  0  0
 77 85  1  0  0  0
 78 85  1  0  0  0
 78158  1  0  0  0
 78159  1  0  0  0
 78160  1  0  0  0
 79 86  1  0  0  0
 79161  1  0  0  0
 79162  1  0  0  0
 79163  1  0  0  0
 80 87  1  0  0  0
 80164  1  0  0  0
 80165  1  0  0  0
 80166  1  0  0  0
 81 82  1  0  0  0
 81 85  1  0  0  0
 81167  1  0  0  0
 81168  1  0  0  0
 82 87  1  0  0  0
 82169  1  0  0  0
 82170  1  0  0  0
 83 84  1  0  0  0
 83171  1  0  0  0
 83172  1  0  0  0
M  ISO  4   1 100  68 101  83 101  87 100
M  END
> <chiral flag>
0

> <version>
0

> <s_m_source_file>
/data/baiqing/PycharmProjects/Reinvent-master-3.2/result/LINK_invent/BTK/process_docking_weight1_custom_sum_contain_oxygen_bond_distance_aromatic_linkinvent_7_9_3/rearranged_h_0069.sdf

> <i_m_source_file_index>
64

> <r_mmod_Potential_Energy-OPLS-2005>
177.33854675293

> <r_mmod_Stretch_Energy-OPLS-2005>
53.6863021850586

> <r_mmod_Bend_Energy-OPLS-2005>
133.656539916992

> <r_mmod_Torsional_Energy-OPLS-2005>
329.241455078125

> <r_mmod_Improper_Torsional_Energy-OPLS-2005>
12.520393371582

> <r_mmod_Van_der_Waal_Energy-OPLS-2005>
145.72331237793

> <r_mmod_Electrostatic_Energy-OPLS-2005>
-350.623474121094

> <r_mmod_Solvation_Energy-OPLS-2005>
-183.446960449219

> <b_mmod_Minimization_Converged-OPLS-2005>
0

> <r_mmod_RMS_Derivative-OPLS-2005>
3.24870729446411

$$$$
64
                    3D
 Structure written by MMmdl.
172180  0  0  1  0            999 V2000
  -30.7599  -14.4438   20.6031 C   0  0  0  0  0  0
  -30.4238  -12.3035   19.4304 C   0  0  0  0  0  0
  -29.5059  -12.5161   18.2096 C   0  0  0  0  0  0
  -28.0286  -12.3820   18.6261 C   0  0  0  0  0  0
  -27.6689  -13.2251   19.8776 C   0  0  2  0  0  0
  -28.7095  -13.0217   21.0040 C   0  0  0  0  0  0
  -25.2614  -13.8189   20.5709 C   0  0  0  0  0  0
  -24.1880  -13.0419   20.9217 C   0  0  0  0  0  0
  -24.6454  -11.6920   20.8748 C   0  0  0  0  0  0
  -23.9117  -10.4285   21.0445 C   0  0  0  0  0  0
  -24.3656   -9.4195   21.9214 C   0  0  0  0  0  0
  -23.6330   -8.2227   22.0761 C   0  0  0  0  0  0
  -22.4296   -8.0283   21.3568 C   0  0  0  0  0  0
  -21.9969   -9.0253   20.4663 C   0  0  0  0  0  0
  -22.7295  -10.2128   20.3093 C   0  0  0  0  0  0
  -21.6821   -6.0758   22.5306 C   0  0  0  0  0  0
  -21.3967   -6.5652   23.8247 C   0  0  0  0  0  0
  -21.3689   -5.6805   24.9209 C   0  0  0  0  0  0
  -21.6061   -4.3062   24.7245 C   0  0  0  0  0  0
  -21.8807   -3.8167   23.4358 C   0  0  0  0  0  0
  -21.9191   -4.6995   22.3425 C   0  0  0  0  0  0
  -22.7908  -13.5220   21.1899 C   0  0  0  0  0  0
  -22.1681   -4.2182   21.0996 F   0  0  0  0  0  0
  -21.5670   -3.4542   25.7759 F   0  0  0  0  0  0
  -30.0453  -13.2966   20.4505 N   0  0  0  0  0  0
  -26.3080  -12.9403   20.3378 N   0  0  0  0  0  0
  -25.9390  -11.6536   20.5757 N   0  0  0  0  0  0
  -22.0548  -12.8170   22.0436 N   0  0  0  0  0  0
  -25.4296  -15.1886   20.4103 N   0  0  0  0  0  0
  -31.8611  -14.6106   20.0812 O   0  0  0  0  0  0
  -21.6632   -6.8903   21.4266 O   0  0  0  0  0  0
  -22.3601  -14.5529   20.6790 O   0  0  0  0  0  0
  -24.6117  -31.8708   23.2143 C   0  0  0  0  0  0
  -25.9003  -32.4864   23.8433 C   0  0  1  0  0  0
  -27.2439  -27.4495   20.0847 C   0  0  0  0  0  0
  -25.5860  -33.8658   24.2357 N   0  0  0  0  0  0
  -23.4005  -30.4946   21.5555 C   0  0  2  0  0  0
  -24.8501  -28.9604   20.1269 C   0  0  0  0  0  0
  -22.7407  -29.4650   22.5013 C   0  0  0  0  0  0
  -18.0250  -28.1385   22.8491 C   0  0  0  0  0  0
  -24.1469  -36.7347   23.2645 C   0  0  0  0  0  0
  -25.9317  -30.8341   21.3707 C   0  0  0  0  0  0
  -26.0107  -29.4644   20.7307 C   0  0  0  0  0  0
  -27.2113  -28.7132   20.7245 C   0  0  0  0  0  0
  -26.0619  -26.9555   19.4952 C   0  0  0  0  0  0
  -24.8670  -27.6971   19.5137 C   0  0  0  0  0  0
  -23.6123  -29.8290   20.1709 C   0  0  0  0  0  0
  -25.4095  -36.3153   24.0350 C   0  0  1  0  0  0
  -20.5851  -28.3650   23.1334 C   0  0  2  0  0  0
  -20.6748  -26.9389   22.5438 C   0  0  0  0  0  0
  -19.5730  -26.6375   21.5231 C   0  0  0  0  0  0
  -18.1896  -26.7934   22.1615 C   0  0  0  0  0  0
  -19.1505  -28.8829   23.2908 C   0  0  0  0  0  0
  -18.9445  -30.1441   23.8913 C   0  0  0  0  0  0
  -17.6453  -30.6593   24.0563 C   0  0  0  0  0  0
  -25.9017  -34.9506   23.5165 C   0  0  0  0  0  0
  -16.5340  -29.9105   23.6324 C   0  0  0  0  0  0
  -16.7242  -28.6524   23.0341 C   0  0  0  0  0  0
  -26.4445  -31.6641   25.0748 C   0  0  0  0  0  0
  -25.3734  -31.3717   26.1509 C   0  0  0  0  0  0
  -27.0265  -30.3092   24.6099 C   0  0  0  0  0  0
  -27.6017  -32.4360   25.7505 C   0  0  0  0  0  0
  -27.5587  -37.1826   24.8460 C   0  0  0  0  0  0
  -21.4132  -29.3012   22.3749 N   0  0  0  0  0  0
  -26.4291  -37.3830   23.9420 N   0  0  0  0  0  0
  -24.6666  -31.0809   22.1054 N   0  0  0  0  0  0
  -23.4191  -28.8179   23.3021 O   0  0  0  0  0  0
  -28.3515  -26.6415   19.9466 O   0  0  0  0  0  0
  -26.5595  -34.8948   22.4733 O   0  0  0  0  0  0
  -23.5303  -32.1452   23.7537 O   0  0  0  0  0  0
  -31.6531  -19.6318   22.0068 C   0  0  0  0  0  0
  -31.2105  -20.2690   19.9243 C   0  0  0  0  0  0
  -31.0959  -19.1958   20.7685 C   0  0  0  0  0  0
  -32.0885  -20.9247   21.8735 C   0  0  0  0  0  0
  -32.7021  -21.8353   22.8876 C   0  0  0  0  0  0
  -33.1145  -22.4265   18.7853 C   0  0  0  0  0  0
  -30.9652  -17.3888   19.0461 C   0  0  0  0  0  0
  -28.9287  -18.0814   20.3562 C   0  0  0  0  0  0
  -30.1701  -24.3388   20.4278 C   0  0  0  0  0  0
  -30.5785  -25.8188   20.1798 C   0  0  0  0  0  0
  -30.8218  -23.3176   19.4594 C   0  0  0  0  0  0
  -30.7637  -16.7736   21.5194 C   0  0  0  0  0  0
  -29.5542  -26.8776   20.6633 C   0  0  0  0  0  0
  -32.1198  -22.6240   19.9479 C   0  0  1  0  0  0
  -30.4497  -17.8512   20.4302 C   0  0  0  0  0  0
  -31.8250  -21.3277   20.5723 N   0  0  0  0  0  0
  -30.1694  -15.4380   21.2872 N   0  0  0  0  0  0
  -31.4738  -12.3812   19.1395 H   0  0  0  0  0  0
  -30.3001  -11.2928   19.8233 H   0  0  0  0  0  0
  -29.7388  -11.7916   17.4283 H   0  0  0  0  0  0
  -29.6880  -13.5007   17.7741 H   0  0  0  0  0  0
  -27.8516  -11.3269   18.8352 H   0  0  0  0  0  0
  -27.3742  -12.6451   17.7962 H   0  0  0  0  0  0
  -27.7049  -14.2731   19.5684 H   0  0  0  0  0  0
  -28.6765  -11.9961   21.3713 H   0  0  0  0  0  0
  -28.4738  -13.6459   21.8685 H   0  0  0  0  0  0
  -25.2812   -9.5608   22.4783 H   0  0  0  0  0  0
  -24.0052   -7.4574   22.7437 H   0  0  0  0  0  0
  -21.0930   -8.8762   19.8934 H   0  0  0  0  0  0
  -22.3805  -10.9666   19.6183 H   0  0  0  0  0  0
  -21.1878   -7.6145   23.9742 H   0  0  0  0  0  0
  -21.1561   -6.0548   25.9126 H   0  0  0  0  0  0
  -22.0548   -2.7631   23.2838 H   0  0  0  0  0  0
  -22.4173  -11.9819   22.4810 H   0  0  0  0  0  0
  -21.1151  -13.1186   22.2627 H   0  0  0  0  0  0
  -24.6573  -15.8401   20.4957 H   0  0  0  0  0  0
  -26.2865  -15.6259   20.0973 H   0  0  0  0  0  0
  -26.7072  -32.5581   23.1196 H   0  0  0  0  0  0
  -24.9974  -33.9833   25.0471 H   0  0  0  0  0  0
  -22.6868  -31.3104   21.4199 H   0  0  0  0  0  0
  -23.3746  -35.9661   23.3306 H   0  0  0  0  0  0
  -24.3565  -36.8962   22.2058 H   0  0  0  0  0  0
  -23.7196  -37.6543   23.6656 H   0  0  0  0  0  0
  -26.0377  -31.5837   20.5852 H   0  0  0  0  0  0
  -26.8239  -30.9006   21.9826 H   0  0  0  0  0  0
  -28.0980  -29.1152   21.1926 H   0  0  0  0  0  0
  -26.0661  -25.9869   19.0141 H   0  0  0  0  0  0
  -23.9738  -27.3007   19.0498 H   0  0  0  0  0  0
  -23.7230  -30.6062   19.4137 H   0  0  0  0  0  0
  -22.7345  -29.2540   19.8708 H   0  0  0  0  0  0
  -25.1272  -36.2053   25.0845 H   0  0  0  0  0  0
  -20.9923  -28.3228   24.1458 H   0  0  0  0  0  0
  -20.5647  -26.2265   23.3632 H   0  0  0  0  0  0
  -21.6625  -26.7431   22.1238 H   0  0  0  0  0  0
  -19.6894  -25.6289   21.1250 H   0  0  0  0  0  0
  -19.6693  -27.3196   20.6778 H   0  0  0  0  0  0
  -17.4185  -26.6689   21.3998 H   0  0  0  0  0  0
  -18.0265  -26.0078   22.9001 H   0  0  0  0  0  0
  -19.7923  -30.7238   24.2310 H   0  0  0  0  0  0
  -17.5010  -31.6272   24.5171 H   0  0  0  0  0  0
  -15.5345  -30.3019   23.7641 H   0  0  0  0  0  0
  -15.8633  -28.0856   22.7050 H   0  0  0  0  0  0
  -24.5901  -30.7070   25.7861 H   0  0  0  0  0  0
  -24.8922  -32.2845   26.5021 H   0  0  0  0  0  0
  -25.8099  -30.8859   27.0242 H   0  0  0  0  0  0
  -26.2793  -29.6891   24.1130 H   0  0  0  0  0  0
  -27.4017  -29.7299   25.4548 H   0  0  0  0  0  0
  -27.8640  -30.4433   23.9249 H   0  0  0  0  0  0
  -27.2625  -33.3621   26.2159 H   0  0  0  0  0  0
  -28.3776  -32.6999   25.0311 H   0  0  0  0  0  0
  -28.0749  -31.8458   26.5362 H   0  0  0  0  0  0
  -28.2616  -38.0118   24.7538 H   0  0  0  0  0  0
  -28.1076  -36.2658   24.6248 H   0  0  0  0  0  0
  -27.2318  -37.1444   25.8866 H   0  0  0  0  0  0
  -20.9308  -29.8760   21.6994 H   0  0  0  0  0  0
  -26.0205  -38.2915   24.1438 H   0  0  0  0  0  0
  -31.7041  -19.0540   22.9214 H   0  0  0  0  0  0
  -30.8862  -20.3812   18.8968 H   0  0  0  0  0  0
  -32.7868  -21.3387   23.8528 H   0  0  0  0  0  0
  -32.0864  -22.7247   23.0266 H   0  0  0  0  0  0
  -33.7039  -22.1503   22.5968 H   0  0  0  0  0  0
  -33.3997  -23.3779   18.3391 H   0  0  0  0  0  0
  -32.6946  -21.8140   17.9893 H   0  0  0  0  0  0
  -34.0333  -21.9434   19.1147 H   0  0  0  0  0  0
  -30.9045  -18.1678   18.2854 H   0  0  0  0  0  0
  -30.3911  -16.5436   18.6731 H   0  0  0  0  0  0
  -32.0080  -17.0734   19.0897 H   0  0  0  0  0  0
  -28.6886  -18.8430   19.6157 H   0  0  0  0  0  0
  -28.5286  -18.4356   21.3085 H   0  0  0  0  0  0
  -28.3884  -17.1752   20.0842 H   0  0  0  0  0  0
  -29.0924  -24.2522   20.2846 H   0  0  0  0  0  0
  -30.3522  -24.0551   21.4665 H   0  0  0  0  0  0
  -30.7224  -25.9817   19.1105 H   0  0  0  0  0  0
  -31.5484  -26.0099   20.6411 H   0  0  0  0  0  0
  -31.0070  -23.7912   18.4954 H   0  0  0  0  0  0
  -30.0763  -22.5540   19.2301 H   0  0  0  0  0  0
  -30.4185  -17.1131   22.4966 H   0  0  0  0  0  0
  -31.8462  -16.6770   21.6258 H   0  0  0  0  0  0
  -29.9345  -27.8760   20.4429 H   0  0  0  0  0  0
  -29.3817  -26.8114   21.7386 H   0  0  0  0  0  0
  -32.6182  -23.2689   20.6724 H   0  0  0  0  0  0
  -29.2732  -15.2354   21.7081 H   0  0  0  0  0  0
  1 25  1  0  0  0
  1 30  2  0  0  0
  1 87  1  0  0  0
  2  3  1  0  0  0
  2 25  1  0  0  0
  2 88  1  0  0  0
  2 89  1  0  0  0
  3  4  1  0  0  0
  3 90  1  0  0  0
  3 91  1  0  0  0
  4  5  1  0  0  0
  4 92  1  0  0  0
  4 93  1  0  0  0
  5  6  1  0  0  0
  5 26  1  0  0  0
  5 94  1  0  0  0
  6 25  1  0  0  0
  6 95  1  0  0  0
  6 96  1  0  0  0
  7  8  2  0  0  0
  7 26  1  0  0  0
  7 29  1  0  0  0
  8  9  1  0  0  0
  8 22  1  0  0  0
  9 10  1  0  0  0
  9 27  2  0  0  0
 10 11  2  0  0  0
 10 15  1  0  0  0
 11 12  1  0  0  0
 11 97  1  0  0  0
 12 13  2  0  0  0
 12 98  1  0  0  0
 13 14  1  0  0  0
 13 31  1  0  0  0
 14 15  2  0  0  0
 14 99  1  0  0  0
 15100  1  0  0  0
 16 17  2  0  0  0
 16 21  1  0  0  0
 16 31  1  0  0  0
 17 18  1  0  0  0
 17101  1  0  0  0
 18 19  2  0  0  0
 18102  1  0  0  0
 19 20  1  0  0  0
 19 24  1  0  0  0
 20 21  2  0  0  0
 20103  1  0  0  0
 21 23  1  0  0  0
 22 28  1  0  0  0
 22 32  2  0  0  0
 26 27  1  0  0  0
 28104  1  0  0  0
 28105  1  0  0  0
 29106  1  0  0  0
 29107  1  0  0  0
 33 34  1  0  0  0
 33 66  1  0  0  0
 33 70  2  0  0  0
 34 36  1  0  0  0
 34 59  1  0  0  0
 34108  1  0  0  0
 35 44  2  0  0  0
 35 45  1  0  0  0
 35 68  1  0  0  0
 36 56  1  0  0  0
 36109  1  0  0  0
 37 39  1  0  0  0
 37 47  1  0  0  0
 37 66  1  0  0  0
 37110  1  0  0  0
 38 43  2  0  0  0
 38 46  1  0  0  0
 38 47  1  0  0  0
 39 64  1  0  0  0
 39 67  2  0  0  0
 40 52  1  0  0  0
 40 53  2  0  0  0
 40 58  1  0  0  0
 41111  1  0  0  0
 41112  1  0  0  0
 41113  1  0  0  0
 41 48  1  0  0  0
 42 43  1  0  0  0
 42 66  1  0  0  0
 42114  1  0  0  0
 42115  1  0  0  0
 43 44  1  0  0  0
 44116  1  0  0  0
 45 46  2  0  0  0
 45117  1  0  0  0
 46118  1  0  0  0
 47119  1  0  0  0
 47120  1  0  0  0
 48 56  1  0  0  0
 48 65  1  0  0  0
 48121  1  0  0  0
 49 50  1  0  0  0
 49 53  1  0  0  0
 49 64  1  0  0  0
 49122  1  0  0  0
 50 51  1  0  0  0
 50123  1  0  0  0
 50124  1  0  0  0
 51 52  1  0  0  0
 51125  1  0  0  0
 51126  1  0  0  0
 52127  1  0  0  0
 52128  1  0  0  0
 53 54  1  0  0  0
 54 55  2  0  0  0
 54129  1  0  0  0
 55 57  1  0  0  0
 55130  1  0  0  0
 56 69  2  0  0  0
 57 58  2  0  0  0
 57131  1  0  0  0
 58132  1  0  0  0
 59 60  1  0  0  0
 59 61  1  0  0  0
 59 62  1  0  0  0
 60133  1  0  0  0
 60134  1  0  0  0
 60135  1  0  0  0
 61136  1  0  0  0
 61137  1  0  0  0
 61138  1  0  0  0
 62139  1  0  0  0
 62140  1  0  0  0
 62141  1  0  0  0
 63 65  1  0  0  0
 63142  1  0  0  0
 63143  1  0  0  0
 63144  1  0  0  0
 64145  1  0  0  0
 65146  1  0  0  0
 68 83  1  0  0  0
 71 73  1  0  0  0
 71 74  2  0  0  0
 71147  1  0  0  0
 72 73  2  0  0  0
 72 86  1  0  0  0
 72148  1  0  0  0
 73 85  1  0  0  0
 74 75  1  0  0  0
 74 86  1  0  0  0
 75149  1  0  0  0
 75150  1  0  0  0
 75151  1  0  0  0
 76152  1  0  0  0
 76153  1  0  0  0
 76154  1  0  0  0
 76 84  1  0  0  0
 77155  1  0  0  0
 77156  1  0  0  0
 77157  1  0  0  0
 77 85  1  0  0  0
 78 85  1  0  0  0
 78158  1  0  0  0
 78159  1  0  0  0
 78160  1  0  0  0
 79 80  1  0  0  0
 79 81  1  0  0  0
 79161  1  0  0  0
 79162  1  0  0  0
 80 83  1  0  0  0
 80163  1  0  0  0
 80164  1  0  0  0
 81 84  1  0  0  0
 81165  1  0  0  0
 81166  1  0  0  0
 82 85  1  0  0  0
 82 87  1  0  0  0
 82167  1  0  0  0
 82168  1  0  0  0
 83169  1  0  0  0
 83170  1  0  0  0
 84 86  1  0  0  0
 84171  1  0  0  0
 87172  1  0  0  0
M  ISO  4   1 100  68 101  83 101  87 100
M  END
> <chiral flag>
0

> <version>
0

> <s_m_source_file>
/data/baiqing/PycharmProjects/Reinvent-master-3.2/result/LINK_invent/BTK/process_docking_weight1_custom_sum_contain_oxygen_bond_distance_aromatic_linkinvent_7_9_3/rearranged_h_0069.sdf

> <i_m_source_file_index>
65

> <r_mmod_Potential_Energy-OPLS-2005>
-113.374809265137

> <r_mmod_Stretch_Energy-OPLS-2005>
37.8598480224609

> <r_mmod_Bend_Energy-OPLS-2005>
118.464302062988

> <r_mmod_Torsional_Energy-OPLS-2005>
244.551391601562

> <r_mmod_Improper_Torsional_Energy-OPLS-2005>
2.35490250587463

> <r_mmod_Van_der_Waal_Energy-OPLS-2005>
132.50065612793

> <r_mmod_Electrostatic_Energy-OPLS-2005>
-464.208557128906

> <r_mmod_Solvation_Energy-OPLS-2005>
-197.017944335938

> <b_mmod_Minimization_Converged-OPLS-2005>
0

> <r_mmod_RMS_Derivative-OPLS-2005>
4.9156174659729

$$$$
65
                    3D
 Structure written by MMmdl.
171179  0  0  1  0            999 V2000
  -30.7661  -14.6944   20.4637 C   0  0  0  0  0  0
  -30.3861  -12.4210   19.4985 C   0  0  0  0  0  0
  -29.4931  -12.5198   18.2451 C   0  0  0  0  0  0
  -28.0172  -12.3728   18.6519 C   0  0  0  0  0  0
  -27.6428  -13.2603   19.8686 C   0  0  2  0  0  0
  -28.6994  -13.2199   21.0004 C   0  0  0  0  0  0
  -25.2463  -13.8289   20.5865 C   0  0  0  0  0  0
  -24.1732  -13.0492   20.9273 C   0  0  0  0  0  0
  -24.6355  -11.6999   20.8739 C   0  0  0  0  0  0
  -23.9031  -10.4336   21.0367 C   0  0  0  0  0  0
  -24.3581   -9.4252   21.9144 C   0  0  0  0  0  0
  -23.6282   -8.2273   22.0735 C   0  0  0  0  0  0
  -22.4250   -8.0311   21.3549 C   0  0  0  0  0  0
  -21.9895   -9.0256   20.4617 C   0  0  0  0  0  0
  -22.7212  -10.2154   20.3027 C   0  0  0  0  0  0
  -21.6867   -6.0729   22.5276 C   0  0  0  0  0  0
  -21.4023   -6.5623   23.8214 C   0  0  0  0  0  0
  -21.3699   -5.6763   24.9167 C   0  0  0  0  0  0
  -21.6073   -4.3032   24.7212 C   0  0  0  0  0  0
  -21.8800   -3.8132   23.4328 C   0  0  0  0  0  0
  -21.9167   -4.6946   22.3391 C   0  0  0  0  0  0
  -22.7756  -13.5282   21.1876 C   0  0  0  0  0  0
  -22.1640   -4.2141   21.0960 F   0  0  0  0  0  0
  -21.5667   -3.4507   25.7724 F   0  0  0  0  0  0
  -30.0115  -13.5309   20.4181 N   0  0  0  0  0  0
  -26.2947  -12.9564   20.3478 N   0  0  0  0  0  0
  -25.9326  -11.6680   20.5832 N   0  0  0  0  0  0
  -22.0372  -12.8274   22.0429 N   0  0  0  0  0  0
  -25.4071  -15.1992   20.4352 N   0  0  0  0  0  0
  -31.8862  -14.6182   19.9545 O   0  0  0  0  0  0
  -21.6658   -6.8882   21.4247 O   0  0  0  0  0  0
  -22.3447  -14.5553   20.6678 O   0  0  0  0  0  0
  -24.6260  -31.8622   23.2070 C   0  0  0  0  0  0
  -25.9129  -32.4787   23.8388 C   0  0  1  0  0  0
  -27.2220  -27.3072   20.1541 C   0  0  0  0  0  0
  -25.5959  -33.8563   24.2331 N   0  0  0  0  0  0
  -23.4211  -30.4873   21.5463 C   0  0  2  0  0  0
  -24.8742  -28.9470   20.1119 C   0  0  0  0  0  0
  -22.7518  -29.4622   22.4932 C   0  0  0  0  0  0
  -18.0300  -28.1358   22.8502 C   0  0  0  0  0  0
  -24.1462  -36.7265   23.2632 C   0  0  0  0  0  0
  -25.9636  -30.7927   21.3851 C   0  0  0  0  0  0
  -26.0396  -29.4180   20.7290 C   0  0  0  0  0  0
  -27.2186  -28.6120   20.7398 C   0  0  0  0  0  0
  -26.0460  -26.9047   19.4878 C   0  0  0  0  0  0
  -24.8816  -27.6940   19.4767 C   0  0  0  0  0  0
  -23.6455  -29.8321   20.1575 C   0  0  0  0  0  0
  -25.4081  -36.3058   24.0341 C   0  0  1  0  0  0
  -20.5908  -28.3681   23.1301 C   0  0  2  0  0  0
  -20.6817  -26.9434   22.5383 C   0  0  0  0  0  0
  -19.5798  -26.6461   21.5152 C   0  0  0  0  0  0
  -18.1985  -26.7931   22.1597 C   0  0  0  0  0  0
  -19.1548  -28.8830   23.2892 C   0  0  0  0  0  0
  -18.9449  -30.1427   23.8916 C   0  0  0  0  0  0
  -17.6425  -30.6516   24.0595 C   0  0  0  0  0  0
  -25.9032  -34.9443   23.5120 C   0  0  0  0  0  0
  -16.5343  -29.8995   23.6349 C   0  0  0  0  0  0
  -16.7299  -28.6441   23.0346 C   0  0  0  0  0  0
  -26.4538  -31.6581   25.0737 C   0  0  0  0  0  0
  -25.3802  -31.3722   26.1500 C   0  0  0  0  0  0
  -27.0387  -30.2988   24.6196 C   0  0  0  0  0  0
  -27.6090  -32.4326   25.7506 C   0  0  0  0  0  0
  -27.5555  -37.1791   24.8465 C   0  0  0  0  0  0
  -21.4210  -29.3097   22.3754 N   0  0  0  0  0  0
  -26.4254  -37.3759   23.9417 N   0  0  0  0  0  0
  -24.6871  -31.0641   22.1026 N   0  0  0  0  0  0
  -23.4278  -28.8153   23.2982 O   0  0  0  0  0  0
  -28.2983  -26.4065   20.2238 O   0  0  0  0  0  0
  -26.5572  -34.8935   22.4664 O   0  0  0  0  0  0
  -23.5428  -32.1429   23.7407 O   0  0  0  0  0  0
  -29.0497  -19.6937   20.6997 C   0  0  0  0  0  0
  -29.0653  -18.5378   18.6020 C   0  0  0  0  0  0
  -29.1444  -18.4376   19.9982 C   0  0  0  0  0  0
  -28.7464  -20.9436   20.0214 C   0  0  0  0  0  0
  -28.6620  -20.8430   18.6063 C   0  0  0  0  0  0
  -28.2462  -21.9950   17.7029 C   0  0  0  0  0  0
  -27.0960  -21.2364   22.8202 C   0  0  0  0  0  0
  -27.9811  -16.9755   21.7115 C   0  0  0  0  0  0
  -30.5841  -16.0377   22.5988 C   0  0  0  0  0  0
  -31.6099  -17.1354   20.6479 C   0  0  0  0  0  0
  -28.2657  -22.0983   22.3046 C   0  0  0  0  0  0
  -28.8849  -23.7403   20.3838 C   0  0  0  0  0  0
  -27.9888  -25.0325   20.7362 C   0  0  0  0  0  0
  -29.0943  -16.9793   20.6395 C   0  0  2  0  0  0
  -28.2881  -22.2830   20.7666 C   0  0  1  0  0  0
  -30.4405  -16.1747   21.0626 C   0  0  0  0  0  0
  -28.8667  -19.6924   17.9317 N   0  0  0  0  0  0
  -31.4374  -12.4262   19.2115 H   0  0  0  0  0  0
  -30.2414  -11.4583   19.9877 H   0  0  0  0  0  0
  -29.7599  -11.7471   17.5224 H   0  0  0  0  0  0
  -29.6468  -13.4787   17.7465 H   0  0  0  0  0  0
  -27.8430  -11.3215   18.8862 H   0  0  0  0  0  0
  -27.3684  -12.6104   17.8088 H   0  0  0  0  0  0
  -27.6329  -14.2838   19.4939 H   0  0  0  0  0  0
  -28.7184  -12.2359   21.4731 H   0  0  0  0  0  0
  -28.4571  -13.9231   21.7934 H   0  0  0  0  0  0
  -25.2703   -9.5794   22.4735 H   0  0  0  0  0  0
  -23.9975   -7.4686   22.7491 H   0  0  0  0  0  0
  -21.0839   -8.8805   19.8922 H   0  0  0  0  0  0
  -22.3655  -10.9693   19.6147 H   0  0  0  0  0  0
  -21.2035   -7.6133   23.9748 H   0  0  0  0  0  0
  -21.1546   -6.0466   25.9082 H   0  0  0  0  0  0
  -22.0522   -2.7599   23.2807 H   0  0  0  0  0  0
  -22.3912  -11.9934   22.4841 H   0  0  0  0  0  0
  -21.1001  -13.1344   22.2579 H   0  0  0  0  0  0
  -24.6489  -15.8500   20.6104 H   0  0  0  0  0  0
  -26.2781  -15.6570   20.1998 H   0  0  0  0  0  0
  -26.7207  -32.5489   23.1167 H   0  0  0  0  0  0
  -25.0208  -33.9713   25.0547 H   0  0  0  0  0  0
  -22.7048  -31.2991   21.4017 H   0  0  0  0  0  0
  -23.3742  -35.9585   23.3292 H   0  0  0  0  0  0
  -24.3571  -36.8880   22.2044 H   0  0  0  0  0  0
  -23.7212  -37.6461   23.6656 H   0  0  0  0  0  0
  -26.0930  -31.5598   20.6219 H   0  0  0  0  0  0
  -26.8417  -30.8426   22.0182 H   0  0  0  0  0  0
  -28.1035  -28.9644   21.2493 H   0  0  0  0  0  0
  -26.0171  -25.9554   18.9745 H   0  0  0  0  0  0
  -23.9969  -27.3232   18.9812 H   0  0  0  0  0  0
  -23.7855  -30.6146   19.4097 H   0  0  0  0  0  0
  -22.7633  -29.2704   19.8417 H   0  0  0  0  0  0
  -25.1258  -36.1902   25.0834 H   0  0  0  0  0  0
  -21.0005  -28.3217   24.1420 H   0  0  0  0  0  0
  -20.5707  -26.2337   23.3577 H   0  0  0  0  0  0
  -21.6693  -26.7485   22.1230 H   0  0  0  0  0  0
  -19.6967  -25.6447   21.1003 H   0  0  0  0  0  0
  -19.6676  -27.3384   20.6763 H   0  0  0  0  0  0
  -17.4268  -26.6771   21.3940 H   0  0  0  0  0  0
  -18.0396  -25.9961   22.8885 H   0  0  0  0  0  0
  -19.7912  -30.7272   24.2228 H   0  0  0  0  0  0
  -17.4918  -31.6207   24.5171 H   0  0  0  0  0  0
  -15.5309  -30.2838   23.7585 H   0  0  0  0  0  0
  -15.8764  -28.0754   22.6974 H   0  0  0  0  0  0
  -24.5960  -30.7076   25.7854 H   0  0  0  0  0  0
  -24.9042  -32.2882   26.4960 H   0  0  0  0  0  0
  -25.8169  -30.8879   27.0238 H   0  0  0  0  0  0
  -26.2956  -29.6728   24.1239 H   0  0  0  0  0  0
  -27.4074  -29.7254   25.4704 H   0  0  0  0  0  0
  -27.8832  -30.4244   23.9438 H   0  0  0  0  0  0
  -27.2695  -33.3622   26.2100 H   0  0  0  0  0  0
  -28.3918  -32.6909   25.0354 H   0  0  0  0  0  0
  -28.0782  -31.8457   26.5433 H   0  0  0  0  0  0
  -28.2587  -38.0076   24.7511 H   0  0  0  0  0  0
  -28.1054  -36.2611   24.6291 H   0  0  0  0  0  0
  -27.2303  -37.1445   25.8883 H   0  0  0  0  0  0
  -20.9324  -29.8929   21.7090 H   0  0  0  0  0  0
  -26.0133  -38.2819   24.1464 H   0  0  0  0  0  0
  -29.1186  -19.6575   21.7750 H   0  0  0  0  0  0
  -29.0686  -17.6452   17.9931 H   0  0  0  0  0  0
  -27.4545  -22.5989   18.1467 H   0  0  0  0  0  0
  -27.8571  -21.6202   16.7527 H   0  0  0  0  0  0
  -29.0993  -22.6305   17.4718 H   0  0  0  0  0  0
  -27.1391  -21.1491   23.9044 H   0  0  0  0  0  0
  -27.0855  -20.2285   22.4088 H   0  0  0  0  0  0
  -26.1346  -21.6865   22.5709 H   0  0  0  0  0  0
  -27.0757  -17.4518   21.3328 H   0  0  0  0  0  0
  -28.2625  -17.5282   22.6091 H   0  0  0  0  0  0
  -27.6952  -15.9744   22.0260 H   0  0  0  0  0  0
  -30.5082  -17.0018   23.1054 H   0  0  0  0  0  0
  -31.5516  -15.6082   22.8694 H   0  0  0  0  0  0
  -29.8283  -15.3797   23.0218 H   0  0  0  0  0  0
  -31.6109  -17.3388   19.5752 H   0  0  0  0  0  0
  -32.6033  -16.7494   20.8846 H   0  0  0  0  0  0
  -31.5535  -18.0980   21.1594 H   0  0  0  0  0  0
  -29.2198  -21.6974   22.6499 H   0  0  0  0  0  0
  -28.1800  -23.0686   22.7946 H   0  0  0  0  0  0
  -29.8612  -23.8430   20.8615 H   0  0  0  0  0  0
  -29.0991  -23.8019   19.3240 H   0  0  0  0  0  0
  -27.9860  -25.1335   21.8222 H   0  0  0  0  0  0
  -26.9601  -24.7569   20.5101 H   0  0  0  0  0  0
  -28.6900  -16.3722   19.8297 H   0  0  0  0  0  0
  -27.2384  -22.3548   20.4780 H   0  0  0  0  0  0
  1 25  1  0  0  0
  1 30  2  0  0  0
  1 86  1  0  0  0
  2  3  1  0  0  0
  2 25  1  0  0  0
  2 88  1  0  0  0
  2 89  1  0  0  0
  3  4  1  0  0  0
  3 90  1  0  0  0
  3 91  1  0  0  0
  4  5  1  0  0  0
  4 92  1  0  0  0
  4 93  1  0  0  0
  5  6  1  0  0  0
  5 26  1  0  0  0
  5 94  1  0  0  0
  6 25  1  0  0  0
  6 95  1  0  0  0
  6 96  1  0  0  0
  7  8  2  0  0  0
  7 26  1  0  0  0
  7 29  1  0  0  0
  8  9  1  0  0  0
  8 22  1  0  0  0
  9 10  1  0  0  0
  9 27  2  0  0  0
 10 11  2  0  0  0
 10 15  1  0  0  0
 11 12  1  0  0  0
 11 97  1  0  0  0
 12 13  2  0  0  0
 12 98  1  0  0  0
 13 14  1  0  0  0
 13 31  1  0  0  0
 14 15  2  0  0  0
 14 99  1  0  0  0
 15100  1  0  0  0
 16 17  2  0  0  0
 16 21  1  0  0  0
 16 31  1  0  0  0
 17 18  1  0  0  0
 17101  1  0  0  0
 18 19  2  0  0  0
 18102  1  0  0  0
 19 20  1  0  0  0
 19 24  1  0  0  0
 20 21  2  0  0  0
 20103  1  0  0  0
 21 23  1  0  0  0
 22 28  1  0  0  0
 22 32  2  0  0  0
 26 27  1  0  0  0
 28104  1  0  0  0
 28105  1  0  0  0
 29106  1  0  0  0
 29107  1  0  0  0
 33 34  1  0  0  0
 33 66  1  0  0  0
 33 70  2  0  0  0
 34 36  1  0  0  0
 34 59  1  0  0  0
 34108  1  0  0  0
 35 44  2  0  0  0
 35 45  1  0  0  0
 35 68  1  0  0  0
 36 56  1  0  0  0
 36109  1  0  0  0
 37 39  1  0  0  0
 37 47  1  0  0  0
 37 66  1  0  0  0
 37110  1  0  0  0
 38 43  2  0  0  0
 38 46  1  0  0  0
 38 47  1  0  0  0
 39 64  1  0  0  0
 39 67  2  0  0  0
 40 52  1  0  0  0
 40 53  2  0  0  0
 40 58  1  0  0  0
 41111  1  0  0  0
 41112  1  0  0  0
 41113  1  0  0  0
 41 48  1  0  0  0
 42 43  1  0  0  0
 42 66  1  0  0  0
 42114  1  0  0  0
 42115  1  0  0  0
 43 44  1  0  0  0
 44116  1  0  0  0
 45 46  2  0  0  0
 45117  1  0  0  0
 46118  1  0  0  0
 47119  1  0  0  0
 47120  1  0  0  0
 48 56  1  0  0  0
 48 65  1  0  0  0
 48121  1  0  0  0
 49 50  1  0  0  0
 49 53  1  0  0  0
 49 64  1  0  0  0
 49122  1  0  0  0
 50 51  1  0  0  0
 50123  1  0  0  0
 50124  1  0  0  0
 51 52  1  0  0  0
 51125  1  0  0  0
 51126  1  0  0  0
 52127  1  0  0  0
 52128  1  0  0  0
 53 54  1  0  0  0
 54 55  2  0  0  0
 54129  1  0  0  0
 55 57  1  0  0  0
 55130  1  0  0  0
 56 69  2  0  0  0
 57 58  2  0  0  0
 57131  1  0  0  0
 58132  1  0  0  0
 59 60  1  0  0  0
 59 61  1  0  0  0
 59 62  1  0  0  0
 60133  1  0  0  0
 60134  1  0  0  0
 60135  1  0  0  0
 61136  1  0  0  0
 61137  1  0  0  0
 61138  1  0  0  0
 62139  1  0  0  0
 62140  1  0  0  0
 62141  1  0  0  0
 63 65  1  0  0  0
 63142  1  0  0  0
 63143  1  0  0  0
 63144  1  0  0  0
 64145  1  0  0  0
 65146  1  0  0  0
 68 83  1  0  0  0
 71 73  2  0  0  0
 71 74  1  0  0  0
 71147  1  0  0  0
 72 73  1  0  0  0
 72 87  2  0  0  0
 72148  1  0  0  0
 73 84  1  0  0  0
 74 75  2  0  0  0
 74 85  1  0  0  0
 75 76  1  0  0  0
 75 87  1  0  0  0
 76149  1  0  0  0
 76150  1  0  0  0
 76151  1  0  0  0
 77 81  1  0  0  0
 77152  1  0  0  0
 77153  1  0  0  0
 77154  1  0  0  0
 78155  1  0  0  0
 78156  1  0  0  0
 78157  1  0  0  0
 78 84  1  0  0  0
 79158  1  0  0  0
 79159  1  0  0  0
 79160  1  0  0  0
 79 86  1  0  0  0
 80 86  1  0  0  0
 80161  1  0  0  0
 80162  1  0  0  0
 80163  1  0  0  0
 81164  1  0  0  0
 81165  1  0  0  0
 81 85  1  0  0  0
 82 83  1  0  0  0
 82 85  1  0  0  0
 82166  1  0  0  0
 82167  1  0  0  0
 83168  1  0  0  0
 83169  1  0  0  0
 84 86  1  0  0  0
 84170  1  0  0  0
 85171  1  0  0  0
M  ISO  4   1 100  68 101  83 101  86 100
M  END
> <chiral flag>
0

> <version>
0

> <s_m_source_file>
/data/baiqing/PycharmProjects/Reinvent-master-3.2/result/LINK_invent/BTK/process_docking_weight1_custom_sum_contain_oxygen_bond_distance_aromatic_linkinvent_7_9_3/rearranged_h_0069.sdf

> <i_m_source_file_index>
66

> <r_mmod_Potential_Energy-OPLS-2005>
179.931274414062

> <r_mmod_Stretch_Energy-OPLS-2005>
129.009628295898

> <r_mmod_Bend_Energy-OPLS-2005>
215.870239257812

> <r_mmod_Torsional_Energy-OPLS-2005>
232.317245483398

> <r_mmod_Improper_Torsional_Energy-OPLS-2005>
4.11877536773682

> <r_mmod_Van_der_Waal_Energy-OPLS-2005>
165.161865234375

> <r_mmod_Electrostatic_Energy-OPLS-2005>
-447.554626464844

> <r_mmod_Solvation_Energy-OPLS-2005>
-192.543243408203

> <b_mmod_Minimization_Converged-OPLS-2005>
0

> <r_mmod_RMS_Derivative-OPLS-2005>
6.43764734268188

$$$$
66
                    3D
 Structure written by MMmdl.
159167  0  0  1  0            999 V2000
  -30.5791  -14.9487   20.4319 C   0  0  0  0  0  0
  -30.4389  -12.5880   19.5127 C   0  0  0  0  0  0
  -29.5258  -12.5458   18.2675 C   0  0  0  0  0  0
  -28.0557  -12.3451   18.6775 C   0  0  0  0  0  0
  -27.6378  -13.2619   19.8542 C   0  0  2  0  0  0
  -28.6791  -13.2931   20.9969 C   0  0  0  0  0  0
  -25.2468  -13.8283   20.5720 C   0  0  0  0  0  0
  -24.1790  -13.0462   20.9236 C   0  0  0  0  0  0
  -24.6470  -11.6991   20.8813 C   0  0  0  0  0  0
  -23.9173  -10.4317   21.0473 C   0  0  0  0  0  0
  -24.3708   -9.4216   21.9230 C   0  0  0  0  0  0
  -23.6355   -8.2256   22.0787 C   0  0  0  0  0  0
  -22.4341   -8.0281   21.3547 C   0  0  0  0  0  0
  -22.0012   -9.0293   20.4673 C   0  0  0  0  0  0
  -22.7353  -10.2174   20.3113 C   0  0  0  0  0  0
  -21.6841   -6.0737   22.5267 C   0  0  0  0  0  0
  -21.3991   -6.5663   23.8191 C   0  0  0  0  0  0
  -21.3691   -5.6812   24.9153 C   0  0  0  0  0  0
  -21.6085   -4.3066   24.7238 C   0  0  0  0  0  0
  -21.8822   -3.8165   23.4343 C   0  0  0  0  0  0
  -21.9202   -4.6962   22.3391 C   0  0  0  0  0  0
  -22.7787  -13.5172   21.1870 C   0  0  0  0  0  0
  -22.1659   -4.2160   21.0964 F   0  0  0  0  0  0
  -21.5686   -3.4566   25.7757 F   0  0  0  0  0  0
  -29.9646  -13.6899   20.4082 N   0  0  0  0  0  0
  -26.2915  -12.9557   20.3314 N   0  0  0  0  0  0
  -25.9400  -11.6668   20.5815 N   0  0  0  0  0  0
  -22.0490  -12.8097   22.0446 N   0  0  0  0  0  0
  -25.4127  -15.2000   20.4095 N   0  0  0  0  0  0
  -31.7238  -14.9988   19.9647 O   0  0  0  0  0  0
  -21.6653   -6.8908   21.4230 O   0  0  0  0  0  0
  -22.3425  -14.5468   20.6755 O   0  0  0  0  0  0
  -24.6364  -31.8444   23.1937 C   0  0  0  0  0  0
  -25.9158  -32.4694   23.8283 C   0  0  1  0  0  0
  -27.1959  -27.1559   20.1385 C   0  0  0  0  0  0
  -25.5953  -33.8521   24.2206 N   0  0  0  0  0  0
  -23.4330  -30.4623   21.5428 C   0  0  2  0  0  0
  -24.8749  -28.8971   20.1012 C   0  0  0  0  0  0
  -22.7505  -29.4504   22.4932 C   0  0  0  0  0  0
  -18.0260  -28.1342   22.8468 C   0  0  0  0  0  0
  -24.1483  -36.7270   23.2642 C   0  0  0  0  0  0
  -25.9801  -30.7257   21.3786 C   0  0  0  0  0  0
  -26.0474  -29.3368   20.7274 C   0  0  0  0  0  0
  -27.2016  -28.4756   20.7440 C   0  0  0  0  0  0
  -26.0080  -26.8145   19.4559 C   0  0  0  0  0  0
  -24.8681  -27.6509   19.4500 C   0  0  0  0  0  0
  -23.6525  -29.8006   20.1546 C   0  0  0  0  0  0
  -25.4113  -36.3045   24.0320 C   0  0  1  0  0  0
  -20.5864  -28.3630   23.1304 C   0  0  2  0  0  0
  -20.6735  -26.9350   22.5434 C   0  0  0  0  0  0
  -19.5751  -26.6344   21.5198 C   0  0  0  0  0  0
  -18.1916  -26.7880   22.1597 C   0  0  0  0  0  0
  -19.1508  -28.8808   23.2867 C   0  0  0  0  0  0
  -18.9449  -30.1412   23.8869 C   0  0  0  0  0  0
  -17.6458  -30.6568   24.0530 C   0  0  0  0  0  0
  -25.9062  -34.9415   23.5067 C   0  0  0  0  0  0
  -16.5350  -29.9055   23.6324 C   0  0  0  0  0  0
  -16.7249  -28.6467   23.0354 C   0  0  0  0  0  0
  -26.4515  -31.6549   25.0691 C   0  0  0  0  0  0
  -25.3769  -31.3700   26.1434 C   0  0  0  0  0  0
  -27.0375  -30.2985   24.6150 C   0  0  0  0  0  0
  -27.6044  -32.4287   25.7531 C   0  0  0  0  0  0
  -27.5575  -37.1807   24.8465 C   0  0  0  0  0  0
  -21.4213  -29.2979   22.3723 N   0  0  0  0  0  0
  -26.4266  -37.3765   23.9421 N   0  0  0  0  0  0
  -24.7029  -31.0312   22.0965 N   0  0  0  0  0  0
  -23.4161  -28.8025   23.3062 O   0  0  0  0  0  0
  -28.2581  -26.2013   20.2706 O   0  0  0  0  0  0
  -26.5654  -34.8929   22.4650 O   0  0  0  0  0  0
  -23.5506  -32.1308   23.7216 O   0  0  0  0  0  0
  -31.1606  -18.0485   21.1302 C   0  0  0  0  0  0
  -29.9683  -16.3416   21.0504 C   0  0  0  0  0  0
  -28.0102  -23.2577   21.7338 C   0  0  0  0  0  0
  -30.5590  -22.0103   20.5749 C   0  0  0  0  0  0
  -29.5692  -22.2117   18.3107 C   0  0  0  0  0  0
  -28.7482  -20.2804   19.7527 C   0  0  0  0  0  0
  -28.9939  -18.9185   20.7144 C   0  0  0  0  0  0
  -28.3848  -24.8053   19.6150 C   0  0  0  0  0  0
  -28.2249  -23.2222   20.2159 C   0  0  1  0  0  0
  -29.2301  -21.9135   19.7942 C   0  0  0  0  0  0
  -31.2974  -17.4638   22.3279 N   0  0  0  0  0  0
  -30.3508  -16.4536   22.3319 N   0  0  0  0  0  0
  -30.0003  -17.7013   20.5444 N   0  0  0  0  0  0
  -31.4726  -12.7225   19.1893 H   0  0  0  0  0  0
  -30.4365  -11.6311   20.0412 H   0  0  0  0  0  0
  -29.8344  -11.7439   17.5926 H   0  0  0  0  0  0
  -29.6279  -13.4739   17.7022 H   0  0  0  0  0  0
  -27.9279  -11.3006   18.9600 H   0  0  0  0  0  0
  -27.4018  -12.5144   17.8215 H   0  0  0  0  0  0
  -27.6069  -14.2687   19.4337 H   0  0  0  0  0  0
  -28.7613  -12.3254   21.4957 H   0  0  0  0  0  0
  -28.3841  -14.0118   21.7613 H   0  0  0  0  0  0
  -25.2877   -9.5637   22.4777 H   0  0  0  0  0  0
  -24.0086   -7.4624   22.7499 H   0  0  0  0  0  0
  -21.0974   -8.8849   19.8931 H   0  0  0  0  0  0
  -22.3874  -10.9737   19.6226 H   0  0  0  0  0  0
  -21.1923   -7.6156   23.9680 H   0  0  0  0  0  0
  -21.1528   -6.0546   25.9064 H   0  0  0  0  0  0
  -22.0587   -2.7623   23.2827 H   0  0  0  0  0  0
  -22.4156  -11.9743   22.4750 H   0  0  0  0  0  0
  -21.1106  -13.1068   22.2736 H   0  0  0  0  0  0
  -24.6463  -15.8550   20.5235 H   0  0  0  0  0  0
  -26.2601  -15.6394   20.0768 H   0  0  0  0  0  0
  -26.7197  -32.5289   23.0992 H   0  0  0  0  0  0
  -25.0117  -33.9650   25.0358 H   0  0  0  0  0  0
  -22.7266  -31.2842   21.4021 H   0  0  0  0  0  0
  -23.3761  -35.9583   23.3266 H   0  0  0  0  0  0
  -24.3543  -36.8942   22.2057 H   0  0  0  0  0  0
  -23.7231  -37.6455   23.6704 H   0  0  0  0  0  0
  -26.1134  -31.4756   20.5965 H   0  0  0  0  0  0
  -26.8560  -30.7855   22.0123 H   0  0  0  0  0  0
  -28.0834  -28.8017   21.2754 H   0  0  0  0  0  0
  -25.9228  -25.8617   18.9559 H   0  0  0  0  0  0
  -23.9732  -27.3194   18.9433 H   0  0  0  0  0  0
  -23.7984  -30.5852   19.4105 H   0  0  0  0  0  0
  -22.7593  -29.2604   19.8335 H   0  0  0  0  0  0
  -25.1309  -36.1876   25.0814 H   0  0  0  0  0  0
  -20.9901  -28.3177   24.1446 H   0  0  0  0  0  0
  -20.5581  -26.2236   23.3611 H   0  0  0  0  0  0
  -21.6619  -26.7346   22.1295 H   0  0  0  0  0  0
  -19.6927  -25.6248   21.1244 H   0  0  0  0  0  0
  -19.6725  -27.3123   20.6703 H   0  0  0  0  0  0
  -17.4199  -26.6599   21.3986 H   0  0  0  0  0  0
  -18.0340  -25.9993   22.8977 H   0  0  0  0  0  0
  -19.7930  -30.7223   24.2228 H   0  0  0  0  0  0
  -17.5019  -31.6245   24.5131 H   0  0  0  0  0  0
  -15.5340  -30.2964   23.7658 H   0  0  0  0  0  0
  -15.8641  -28.0783   22.7100 H   0  0  0  0  0  0
  -24.5910  -30.7066   25.7800 H   0  0  0  0  0  0
  -24.9007  -32.2874   26.4908 H   0  0  0  0  0  0
  -25.8124  -30.8870   27.0191 H   0  0  0  0  0  0
  -26.2950  -29.6745   24.1146 H   0  0  0  0  0  0
  -27.4058  -29.7217   25.4645 H   0  0  0  0  0  0
  -27.8831  -30.4291   23.9386 H   0  0  0  0  0  0
  -27.2589  -33.3544   26.2156 H   0  0  0  0  0  0
  -28.3889  -32.6896   25.0416 H   0  0  0  0  0  0
  -28.0666  -31.8367   26.5445 H   0  0  0  0  0  0
  -28.2585  -38.0113   24.7520 H   0  0  0  0  0  0
  -28.1080  -36.2643   24.6281 H   0  0  0  0  0  0
  -27.2295  -37.1467   25.8868 H   0  0  0  0  0  0
  -20.9378  -29.8761   21.7000 H   0  0  0  0  0  0
  -26.0136  -38.2830   24.1445 H   0  0  0  0  0  0
  -31.5799  -19.0395   21.0074 H   0  0  0  0  0  0
  -27.2337  -23.9715   22.0133 H   0  0  0  0  0  0
  -28.9257  -23.5436   22.2466 H   0  0  0  0  0  0
  -27.7060  -22.2785   22.1109 H   0  0  0  0  0  0
  -31.3487  -21.4359   20.0879 H   0  0  0  0  0  0
  -30.4631  -21.6353   21.5911 H   0  0  0  0  0  0
  -30.9088  -23.0405   20.6483 H   0  0  0  0  0  0
  -30.2105  -21.4486   17.8689 H   0  0  0  0  0  0
  -30.1065  -23.1493   18.1853 H   0  0  0  0  0  0
  -28.6657  -22.2753   17.7021 H   0  0  0  0  0  0
  -27.6644  -20.3944   19.7973 H   0  0  0  0  0  0
  -28.8854  -19.9058   18.7383 H   0  0  0  0  0  0
  -28.0164  -18.4350   20.7570 H   0  0  0  0  0  0
  -29.1120  -19.2866   21.7359 H   0  0  0  0  0  0
  -27.8593  -24.8523   18.6614 H   0  0  0  0  0  0
  -29.4266  -24.8650   19.3129 H   0  0  0  0  0  0
  -27.2503  -22.9142   19.8296 H   0  0  0  0  0  0
  1 25  1  0  0  0
  1 30  2  0  0  0
  1 72  1  0  0  0
  2  3  1  0  0  0
  2 25  1  0  0  0
  2 84  1  0  0  0
  2 85  1  0  0  0
  3  4  1  0  0  0
  3 86  1  0  0  0
  3 87  1  0  0  0
  4  5  1  0  0  0
  4 88  1  0  0  0
  4 89  1  0  0  0
  5  6  1  0  0  0
  5 26  1  0  0  0
  5 90  1  0  0  0
  6 25  1  0  0  0
  6 91  1  0  0  0
  6 92  1  0  0  0
  7  8  2  0  0  0
  7 26  1  0  0  0
  7 29  1  0  0  0
  8  9  1  0  0  0
  8 22  1  0  0  0
  9 10  1  0  0  0
  9 27  2  0  0  0
 10 11  2  0  0  0
 10 15  1  0  0  0
 11 12  1  0  0  0
 11 93  1  0  0  0
 12 13  2  0  0  0
 12 94  1  0  0  0
 13 14  1  0  0  0
 13 31  1  0  0  0
 14 15  2  0  0  0
 14 95  1  0  0  0
 15 96  1  0  0  0
 16 17  2  0  0  0
 16 21  1  0  0  0
 16 31  1  0  0  0
 17 18  1  0  0  0
 17 97  1  0  0  0
 18 19  2  0  0  0
 18 98  1  0  0  0
 19 20  1  0  0  0
 19 24  1  0  0  0
 20 21  2  0  0  0
 20 99  1  0  0  0
 21 23  1  0  0  0
 22 28  1  0  0  0
 22 32  2  0  0  0
 26 27  1  0  0  0
 28100  1  0  0  0
 28101  1  0  0  0
 29102  1  0  0  0
 29103  1  0  0  0
 33 34  1  0  0  0
 33 66  1  0  0  0
 33 70  2  0  0  0
 34 36  1  0  0  0
 34 59  1  0  0  0
 34104  1  0  0  0
 35 44  2  0  0  0
 35 45  1  0  0  0
 35 68  1  0  0  0
 36 56  1  0  0  0
 36105  1  0  0  0
 37 39  1  0  0  0
 37 47  1  0  0  0
 37 66  1  0  0  0
 37106  1  0  0  0
 38 43  2  0  0  0
 38 46  1  0  0  0
 38 47  1  0  0  0
 39 64  1  0  0  0
 39 67  2  0  0  0
 40 52  1  0  0  0
 40 53  2  0  0  0
 40 58  1  0  0  0
 41107  1  0  0  0
 41108  1  0  0  0
 41109  1  0  0  0
 41 48  1  0  0  0
 42 43  1  0  0  0
 42 66  1  0  0  0
 42110  1  0  0  0
 42111  1  0  0  0
 43 44  1  0  0  0
 44112  1  0  0  0
 45 46  2  0  0  0
 45113  1  0  0  0
 46114  1  0  0  0
 47115  1  0  0  0
 47116  1  0  0  0
 48 56  1  0  0  0
 48 65  1  0  0  0
 48117  1  0  0  0
 49 50  1  0  0  0
 49 53  1  0  0  0
 49 64  1  0  0  0
 49118  1  0  0  0
 50 51  1  0  0  0
 50119  1  0  0  0
 50120  1  0  0  0
 51 52  1  0  0  0
 51121  1  0  0  0
 51122  1  0  0  0
 52123  1  0  0  0
 52124  1  0  0  0
 53 54  1  0  0  0
 54 55  2  0  0  0
 54125  1  0  0  0
 55 57  1  0  0  0
 55126  1  0  0  0
 56 69  2  0  0  0
 57 58  2  0  0  0
 57127  1  0  0  0
 58128  1  0  0  0
 59 60  1  0  0  0
 59 61  1  0  0  0
 59 62  1  0  0  0
 60129  1  0  0  0
 60130  1  0  0  0
 60131  1  0  0  0
 61132  1  0  0  0
 61133  1  0  0  0
 61134  1  0  0  0
 62135  1  0  0  0
 62136  1  0  0  0
 62137  1  0  0  0
 63 65  1  0  0  0
 63138  1  0  0  0
 63139  1  0  0  0
 63140  1  0  0  0
 64141  1  0  0  0
 65142  1  0  0  0
 68 78  1  0  0  0
 71 81  2  0  0  0
 71 83  1  0  0  0
 71143  1  0  0  0
 72 82  2  0  0  0
 72 83  1  0  0  0
 73144  1  0  0  0
 73145  1  0  0  0
 73146  1  0  0  0
 73 79  1  0  0  0
 74147  1  0  0  0
 74148  1  0  0  0
 74149  1  0  0  0
 74 80  1  0  0  0
 75 80  1  0  0  0
 75150  1  0  0  0
 75151  1  0  0  0
 75152  1  0  0  0
 76 77  1  0  0  0
 76 80  1  0  0  0
 76153  1  0  0  0
 76154  1  0  0  0
 77 83  1  0  0  0
 77155  1  0  0  0
 77156  1  0  0  0
 78 79  1  0  0  0
 78157  1  0  0  0
 78158  1  0  0  0
 79 80  1  0  0  0
 79159  1  0  0  0
 81 82  1  0  0  0
M  ISO  4   1 100  68 101  72 100  78 101
M  END
> <chiral flag>
0

> <version>
0

> <s_m_source_file>
/data/baiqing/PycharmProjects/Reinvent-master-3.2/result/LINK_invent/BTK/process_docking_weight1_custom_sum_contain_oxygen_bond_distance_aromatic_linkinvent_7_9_3/rearranged_h_0069.sdf

> <i_m_source_file_index>
67

> <r_mmod_Potential_Energy-OPLS-2005>
1096.76306152344

> <r_mmod_Stretch_Energy-OPLS-2005>
301.23486328125

> <r_mmod_Bend_Energy-OPLS-2005>
445.090362548828

> <r_mmod_Torsional_Energy-OPLS-2005>
429.418884277344

> <r_mmod_Improper_Torsional_Energy-OPLS-2005>
51.0093650817871

> <r_mmod_Van_der_Waal_Energy-OPLS-2005>
113.389587402344

> <r_mmod_Electrostatic_Energy-OPLS-2005>
-216.688888549805

> <r_mmod_Solvation_Energy-OPLS-2005>
-209.847869873047

> <b_mmod_Minimization_Converged-OPLS-2005>
0

> <r_mmod_RMS_Derivative-OPLS-2005>
5.27895450592041

$$$$
67
                    3D
 Structure written by MMmdl.
170178  0  0  1  0            999 V2000
  -30.6311  -14.7682   20.4351 C   0  0  0  0  0  0
  -30.4264  -12.4750   19.4746 C   0  0  0  0  0  0
  -29.5077  -12.5022   18.2376 C   0  0  0  0  0  0
  -28.0409  -12.3141   18.6684 C   0  0  0  0  0  0
  -27.6364  -13.2368   19.8491 C   0  0  2  0  0  0
  -28.6805  -13.2240   20.9813 C   0  0  0  0  0  0
  -25.2508  -13.8210   20.5787 C   0  0  0  0  0  0
  -24.1785  -13.0456   20.9230 C   0  0  0  0  0  0
  -24.6381  -11.6931   20.8745 C   0  0  0  0  0  0
  -23.9083  -10.4303   21.0428 C   0  0  0  0  0  0
  -24.3642   -9.4206   21.9209 C   0  0  0  0  0  0
  -23.6305   -8.2240   22.0773 C   0  0  0  0  0  0
  -22.4276   -8.0302   21.3558 C   0  0  0  0  0  0
  -21.9913   -9.0282   20.4650 C   0  0  0  0  0  0
  -22.7256  -10.2157   20.3066 C   0  0  0  0  0  0
  -21.6856   -6.0742   22.5267 C   0  0  0  0  0  0
  -21.4007   -6.5641   23.8206 C   0  0  0  0  0  0
  -21.3652   -5.6796   24.9169 C   0  0  0  0  0  0
  -21.6047   -4.3065   24.7228 C   0  0  0  0  0  0
  -21.8810   -3.8157   23.4351 C   0  0  0  0  0  0
  -21.9200   -4.6964   22.3399 C   0  0  0  0  0  0
  -22.7803  -13.5224   21.1912 C   0  0  0  0  0  0
  -22.1674   -4.2157   21.0985 F   0  0  0  0  0  0
  -21.5624   -3.4544   25.7739 F   0  0  0  0  0  0
  -29.9724  -13.5625   20.3736 N   0  0  0  0  0  0
  -26.2910  -12.9422   20.3304 N   0  0  0  0  0  0
  -25.9305  -11.6552   20.5715 N   0  0  0  0  0  0
  -22.0489  -12.8154   22.0446 N   0  0  0  0  0  0
  -25.4294  -15.1943   20.4314 N   0  0  0  0  0  0
  -31.8501  -14.7751   20.2328 O   0  0  0  0  0  0
  -21.6651   -6.8895   21.4231 O   0  0  0  0  0  0
  -22.3469  -14.5569   20.6819 O   0  0  0  0  0  0
  -24.6302  -31.8577   23.2040 C   0  0  0  0  0  0
  -25.9122  -32.4779   23.8394 C   0  0  1  0  0  0
  -27.2031  -27.2609   20.1311 C   0  0  0  0  0  0
  -25.5923  -33.8596   24.2300 N   0  0  0  0  0  0
  -23.4278  -30.4865   21.5457 C   0  0  2  0  0  0
  -24.8703  -28.9443   20.1038 C   0  0  0  0  0  0
  -22.7530  -29.4610   22.4906 C   0  0  0  0  0  0
  -18.0299  -28.1433   22.8434 C   0  0  0  0  0  0
  -24.1490  -36.7295   23.2640 C   0  0  0  0  0  0
  -25.9748  -30.7734   21.3857 C   0  0  0  0  0  0
  -26.0408  -29.3995   20.7186 C   0  0  0  0  0  0
  -27.2091  -28.5706   20.7200 C   0  0  0  0  0  0
  -26.0031  -26.8742   19.4873 C   0  0  0  0  0  0
  -24.8574  -27.6906   19.4738 C   0  0  0  0  0  0
  -23.6457  -29.8376   20.1542 C   0  0  0  0  0  0
  -25.4123  -36.3098   24.0330 C   0  0  1  0  0  0
  -20.5896  -28.3710   23.1279 C   0  0  2  0  0  0
  -20.6741  -26.9411   22.5506 C   0  0  0  0  0  0
  -19.5810  -26.6408   21.5234 C   0  0  0  0  0  0
  -18.1957  -26.7985   22.1549 C   0  0  0  0  0  0
  -19.1543  -28.8895   23.2859 C   0  0  0  0  0  0
  -18.9443  -30.1465   23.8900 C   0  0  0  0  0  0
  -17.6429  -30.6580   24.0577 C   0  0  0  0  0  0
  -25.9057  -34.9457   23.5126 C   0  0  0  0  0  0
  -16.5333  -29.9082   23.6318 C   0  0  0  0  0  0
  -16.7277  -28.6529   23.0293 C   0  0  0  0  0  0
  -26.4520  -31.6613   25.0778 C   0  0  0  0  0  0
  -25.3745  -31.3698   26.1479 C   0  0  0  0  0  0
  -27.0351  -30.3026   24.6263 C   0  0  0  0  0  0
  -27.6088  -32.4356   25.7515 C   0  0  0  0  0  0
  -27.5594  -37.1800   24.8463 C   0  0  0  0  0  0
  -21.4248  -29.3004   22.3606 N   0  0  0  0  0  0
  -26.4309  -37.3777   23.9397 N   0  0  0  0  0  0
  -24.6965  -31.0565   22.1010 N   0  0  0  0  0  0
  -23.4212  -28.8168   23.3032 O   0  0  0  0  0  0
  -28.3189  -26.3932   20.2138 O   0  0  0  0  0  0
  -26.5629  -34.8906   22.4692 O   0  0  0  0  0  0
  -23.5442  -32.1379   23.7323 O   0  0  0  0  0  0
  -27.9691  -21.8891   19.0744 C   0  0  0  0  0  0
  -29.1229  -21.0835   21.0099 C   0  0  0  0  0  0
  -28.5803  -22.2245   20.3028 C   0  0  0  0  0  0
  -27.9167  -20.5441   18.6417 C   0  0  0  0  0  0
  -29.0312  -19.7226   20.5159 C   0  0  0  0  0  0
  -27.2075  -20.1603   17.3616 C   0  0  0  0  0  0
  -29.8825  -24.0231   21.5918 C   0  0  0  0  0  0
  -27.4204  -23.7944   21.8937 C   0  0  0  0  0  0
  -29.2072  -18.6228   22.7427 C   0  0  0  0  0  0
  -31.1714  -18.5044   21.1774 C   0  0  0  0  0  0
  -30.1821  -16.4201   18.7075 C   0  0  0  0  0  0
  -29.1134  -16.9239   20.8792 C   0  0  0  0  0  0
  -28.2994  -24.9394   19.8065 C   0  0  0  0  0  0
  -28.5559  -23.7310   20.8608 C   0  0  0  0  0  0
  -29.6343  -18.4379   21.2636 C   0  0  0  0  0  0
  -28.4382  -19.5007   19.3274 N   0  0  0  0  0  0
  -29.9268  -15.9195   20.0651 N   0  0  0  0  0  0
  -31.4655  -12.5951   19.1696 H   0  0  0  0  0  0
  -30.3764  -11.5101   19.9787 H   0  0  0  0  0  0
  -29.7958  -11.7280   17.5277 H   0  0  0  0  0  0
  -29.6183  -13.4481   17.7084 H   0  0  0  0  0  0
  -27.9259  -11.2701   18.9630 H   0  0  0  0  0  0
  -27.3696  -12.4738   17.8240 H   0  0  0  0  0  0
  -27.6181  -14.2465   19.4400 H   0  0  0  0  0  0
  -28.7220  -12.2523   21.4741 H   0  0  0  0  0  0
  -28.4224  -13.9556   21.7509 H   0  0  0  0  0  0
  -25.2798   -9.5644   22.4782 H   0  0  0  0  0  0
  -24.0024   -7.4596   22.7449 H   0  0  0  0  0  0
  -21.0868   -8.8777   19.8936 H   0  0  0  0  0  0
  -22.3740  -10.9707   19.6171 H   0  0  0  0  0  0
  -21.1994   -7.6147   23.9689 H   0  0  0  0  0  0
  -21.1481   -6.0555   25.9079 H   0  0  0  0  0  0
  -22.0608   -2.7621   23.2856 H   0  0  0  0  0  0
  -22.4155  -11.9795   22.4742 H   0  0  0  0  0  0
  -21.1111  -13.1125   22.2741 H   0  0  0  0  0  0
  -24.6862  -15.8702   20.5778 H   0  0  0  0  0  0
  -26.3025  -15.6237   20.1558 H   0  0  0  0  0  0
  -26.7171  -32.5409   23.1116 H   0  0  0  0  0  0
  -25.0046  -33.9780   25.0426 H   0  0  0  0  0  0
  -22.7263  -31.3112   21.4069 H   0  0  0  0  0  0
  -23.3773  -35.9609   23.3313 H   0  0  0  0  0  0
  -24.3546  -36.8894   22.2045 H   0  0  0  0  0  0
  -23.7221  -37.6491   23.6651 H   0  0  0  0  0  0
  -26.1194  -31.5453   20.6278 H   0  0  0  0  0  0
  -26.8472  -30.8039   22.0281 H   0  0  0  0  0  0
  -28.1049  -28.9173   21.2127 H   0  0  0  0  0  0
  -25.8817  -25.9292   18.9885 H   0  0  0  0  0  0
  -23.9633  -27.3397   18.9784 H   0  0  0  0  0  0
  -23.7836  -30.6240   19.4080 H   0  0  0  0  0  0
  -22.7566  -29.2893   19.8364 H   0  0  0  0  0  0
  -25.1312  -36.1963   25.0824 H   0  0  0  0  0  0
  -20.9972  -28.3296   24.1396 H   0  0  0  0  0  0
  -21.6617  -26.7341   22.1403 H   0  0  0  0  0  0
  -20.5488  -26.2372   23.3739 H   0  0  0  0  0  0
  -19.7009  -25.6320   21.1280 H   0  0  0  0  0  0
  -19.6838  -27.3226   20.6789 H   0  0  0  0  0  0
  -17.4310  -26.6868   21.3831 H   0  0  0  0  0  0
  -18.0227  -26.0082   22.8857 H   0  0  0  0  0  0
  -19.7904  -30.7277   24.2294 H   0  0  0  0  0  0
  -17.4969  -31.6224   24.5246 H   0  0  0  0  0  0
  -15.5327  -30.2994   23.7677 H   0  0  0  0  0  0
  -15.8677  -28.0878   22.6961 H   0  0  0  0  0  0
  -24.5943  -30.7056   25.7745 H   0  0  0  0  0  0
  -24.8941  -32.2838   26.4981 H   0  0  0  0  0  0
  -25.8075  -30.8787   27.0199 H   0  0  0  0  0  0
  -26.2916  -29.6760   24.1323 H   0  0  0  0  0  0
  -27.4025  -29.7315   25.4796 H   0  0  0  0  0  0
  -27.8814  -30.4285   23.9502 H   0  0  0  0  0  0
  -27.2729  -33.3643   26.2129 H   0  0  0  0  0  0
  -28.3867  -32.6924   25.0317 H   0  0  0  0  0  0
  -28.0815  -31.8479   26.5385 H   0  0  0  0  0  0
  -28.2614  -38.0098   24.7507 H   0  0  0  0  0  0
  -28.1091  -36.2621   24.6319 H   0  0  0  0  0  0
  -27.2292  -37.1464   25.8860 H   0  0  0  0  0  0
  -20.9488  -29.8646   21.6728 H   0  0  0  0  0  0
  -26.0207  -38.2844   24.1431 H   0  0  0  0  0  0
  -27.5212  -22.6556   18.4597 H   0  0  0  0  0  0
  -29.6135  -21.2557   21.9549 H   0  0  0  0  0  0
  -26.7894  -21.0319   16.8602 H   0  0  0  0  0  0
  -26.3868  -19.4770   17.5829 H   0  0  0  0  0  0
  -27.8919  -19.6567   16.6773 H   0  0  0  0  0  0
  -30.0360  -23.3597   22.4446 H   0  0  0  0  0  0
  -29.8970  -25.0385   21.9884 H   0  0  0  0  0  0
  -30.7377  -23.9163   20.9243 H   0  0  0  0  0  0
  -27.5321  -23.0176   22.6504 H   0  0  0  0  0  0
  -26.4458  -23.6607   21.4214 H   0  0  0  0  0  0
  -27.4104  -24.7546   22.4070 H   0  0  0  0  0  0
  -29.6139  -19.5261   23.1960 H   0  0  0  0  0  0
  -29.5206  -17.7987   23.3828 H   0  0  0  0  0  0
  -28.1190  -18.7002   22.8184 H   0  0  0  0  0  0
  -31.5575  -19.4134   21.6452 H   0  0  0  0  0  0
  -31.5028  -18.5195   20.1400 H   0  0  0  0  0  0
  -31.6380  -17.6512   21.6715 H   0  0  0  0  0  0
  -29.4968  -17.2153   18.4151 H   0  0  0  0  0  0
  -30.0659  -15.6283   17.9676 H   0  0  0  0  0  0
  -31.1999  -16.7998   18.6153 H   0  0  0  0  0  0
  -28.1171  -16.9916   20.4392 H   0  0  0  0  0  0
  -28.9356  -16.3845   21.8083 H   0  0  0  0  0  0
  -27.4010  -24.6901   19.2592 H   0  0  0  0  0  0
  -29.0829  -24.8553   19.0520 H   0  0  0  0  0  0
  1 25  1  0  0  0
  1 30  2  0  0  0
  1 87  1  0  0  0
  2  3  1  0  0  0
  2 25  1  0  0  0
  2 88  1  0  0  0
  2 89  1  0  0  0
  3  4  1  0  0  0
  3 90  1  0  0  0
  3 91  1  0  0  0
  4  5  1  0  0  0
  4 92  1  0  0  0
  4 93  1  0  0  0
  5  6  1  0  0  0
  5 26  1  0  0  0
  5 94  1  0  0  0
  6 25  1  0  0  0
  6 95  1  0  0  0
  6 96  1  0  0  0
  7  8  2  0  0  0
  7 26  1  0  0  0
  7 29  1  0  0  0
  8  9  1  0  0  0
  8 22  1  0  0  0
  9 10  1  0  0  0
  9 27  2  0  0  0
 10 11  2  0  0  0
 10 15  1  0  0  0
 11 12  1  0  0  0
 11 97  1  0  0  0
 12 13  2  0  0  0
 12 98  1  0  0  0
 13 14  1  0  0  0
 13 31  1  0  0  0
 14 15  2  0  0  0
 14 99  1  0  0  0
 15100  1  0  0  0
 16 17  2  0  0  0
 16 21  1  0  0  0
 16 31  1  0  0  0
 17 18  1  0  0  0
 17101  1  0  0  0
 18 19  2  0  0  0
 18102  1  0  0  0
 19 20  1  0  0  0
 19 24  1  0  0  0
 20 21  2  0  0  0
 20103  1  0  0  0
 21 23  1  0  0  0
 22 28  1  0  0  0
 22 32  2  0  0  0
 26 27  1  0  0  0
 28104  1  0  0  0
 28105  1  0  0  0
 29106  1  0  0  0
 29107  1  0  0  0
 33 34  1  0  0  0
 33 66  1  0  0  0
 33 70  2  0  0  0
 34 36  1  0  0  0
 34 59  1  0  0  0
 34108  1  0  0  0
 35 44  2  0  0  0
 35 45  1  0  0  0
 35 68  1  0  0  0
 36 56  1  0  0  0
 36109  1  0  0  0
 37 39  1  0  0  0
 37 47  1  0  0  0
 37 66  1  0  0  0
 37110  1  0  0  0
 38 43  2  0  0  0
 38 46  1  0  0  0
 38 47  1  0  0  0
 39 64  1  0  0  0
 39 67  2  0  0  0
 40 52  1  0  0  0
 40 53  2  0  0  0
 40 58  1  0  0  0
 41111  1  0  0  0
 41112  1  0  0  0
 41113  1  0  0  0
 41 48  1  0  0  0
 42 43  1  0  0  0
 42 66  1  0  0  0
 42114  1  0  0  0
 42115  1  0  0  0
 43 44  1  0  0  0
 44116  1  0  0  0
 45 46  2  0  0  0
 45117  1  0  0  0
 46118  1  0  0  0
 47119  1  0  0  0
 47120  1  0  0  0
 48 56  1  0  0  0
 48 65  1  0  0  0
 48121  1  0  0  0
 49 50  1  0  0  0
 49 53  1  0  0  0
 49 64  1  0  0  0
 49122  1  0  0  0
 50 51  1  0  0  0
 50123  1  0  0  0
 50124  1  0  0  0
 51 52  1  0  0  0
 51125  1  0  0  0
 51126  1  0  0  0
 52127  1  0  0  0
 52128  1  0  0  0
 53 54  1  0  0  0
 54 55  2  0  0  0
 54129  1  0  0  0
 55 57  1  0  0  0
 55130  1  0  0  0
 56 69  2  0  0  0
 57 58  2  0  0  0
 57131  1  0  0  0
 58132  1  0  0  0
 59 60  1  0  0  0
 59 61  1  0  0  0
 59 62  1  0  0  0
 60133  1  0  0  0
 60134  1  0  0  0
 60135  1  0  0  0
 61136  1  0  0  0
 61137  1  0  0  0
 61138  1  0  0  0
 62139  1  0  0  0
 62140  1  0  0  0
 62141  1  0  0  0
 63 65  1  0  0  0
 63142  1  0  0  0
 63143  1  0  0  0
 63144  1  0  0  0
 64145  1  0  0  0
 65146  1  0  0  0
 68 83  1  0  0  0
 71 73  2  0  0  0
 71 74  1  0  0  0
 71147  1  0  0  0
 72 73  1  0  0  0
 72 75  2  0  0  0
 72148  1  0  0  0
 73 84  1  0  0  0
 74 76  1  0  0  0
 74 86  2  0  0  0
 75 85  1  0  0  0
 75 86  1  0  0  0
 76149  1  0  0  0
 76150  1  0  0  0
 76151  1  0  0  0
 77152  1  0  0  0
 77153  1  0  0  0
 77154  1  0  0  0
 77 84  1  0  0  0
 78 84  1  0  0  0
 78155  1  0  0  0
 78156  1  0  0  0
 78157  1  0  0  0
 79158  1  0  0  0
 79159  1  0  0  0
 79160  1  0  0  0
 79 85  1  0  0  0
 80 85  1  0  0  0
 80161  1  0  0  0
 80162  1  0  0  0
 80163  1  0  0  0
 81 87  1  0  0  0
 81164  1  0  0  0
 81165  1  0  0  0
 81166  1  0  0  0
 82 85  1  0  0  0
 82 87  1  0  0  0
 82167  1  0  0  0
 82168  1  0  0  0
 83 84  1  0  0  0
 83169  1  0  0  0
 83170  1  0  0  0
M  ISO  4   1 100  68 101  83 101  87 100
M  END
> <chiral flag>
0

> <version>
0

> <s_m_source_file>
/data/baiqing/PycharmProjects/Reinvent-master-3.2/result/LINK_invent/BTK/process_docking_weight1_custom_sum_contain_oxygen_bond_distance_aromatic_linkinvent_7_9_3/rearranged_h_0069.sdf

> <i_m_source_file_index>
68

> <r_mmod_Potential_Energy-OPLS-2005>
213.186187744141

> <r_mmod_Stretch_Energy-OPLS-2005>
135.239517211914

> <r_mmod_Bend_Energy-OPLS-2005>
203.519653320312

> <r_mmod_Torsional_Energy-OPLS-2005>
322.385131835938

> <r_mmod_Improper_Torsional_Energy-OPLS-2005>
24.6995658874512

> <r_mmod_Van_der_Waal_Energy-OPLS-2005>
142.628372192383

> <r_mmod_Electrostatic_Energy-OPLS-2005>
-524.595458984375

> <r_mmod_Solvation_Energy-OPLS-2005>
-186.83349609375

> <b_mmod_Minimization_Converged-OPLS-2005>
0

> <r_mmod_RMS_Derivative-OPLS-2005>
5.07867050170898

$$$$
68
                    3D
 Structure written by MMmdl.
171179  0  0  1  0            999 V2000
  -30.7811  -14.3568   20.7432 C   0  0  0  0  0  0
  -30.4112  -12.3147   19.3802 C   0  0  0  0  0  0
  -29.4625  -12.5387   18.1883 C   0  0  0  0  0  0
  -27.9965  -12.3451   18.6128 C   0  0  0  0  0  0
  -27.6552  -13.1754   19.8739 C   0  0  2  0  0  0
  -28.7020  -12.9156   20.9828 C   0  0  0  0  0  0
  -25.2551  -13.8051   20.5643 C   0  0  0  0  0  0
  -24.1794  -13.0352   20.9213 C   0  0  0  0  0  0
  -24.6341  -11.6832   20.8788 C   0  0  0  0  0  0
  -23.9023  -10.4252   21.0473 C   0  0  0  0  0  0
  -24.3582   -9.4167   21.9247 C   0  0  0  0  0  0
  -23.6265   -8.2194   22.0779 C   0  0  0  0  0  0
  -22.4252   -8.0257   21.3549 C   0  0  0  0  0  0
  -21.9889   -9.0239   20.4657 C   0  0  0  0  0  0
  -22.7217  -10.2116   20.3102 C   0  0  0  0  0  0
  -21.6824   -6.0738   22.5277 C   0  0  0  0  0  0
  -21.4012   -6.5644   23.8219 C   0  0  0  0  0  0
  -21.3658   -5.6794   24.9176 C   0  0  0  0  0  0
  -21.6041   -4.3064   24.7221 C   0  0  0  0  0  0
  -21.8807   -3.8151   23.4347 C   0  0  0  0  0  0
  -21.9174   -4.6965   22.3398 C   0  0  0  0  0  0
  -22.7836  -13.5215   21.1863 C   0  0  0  0  0  0
  -22.1638   -4.2149   21.0975 F   0  0  0  0  0  0
  -21.5624   -3.4542   25.7741 F   0  0  0  0  0  0
  -30.0368  -13.2498   20.4547 N   0  0  0  0  0  0
  -26.2960  -12.9178   20.3382 N   0  0  0  0  0  0
  -25.9255  -11.6373   20.5821 N   0  0  0  0  0  0
  -22.0468  -12.8214   22.0430 N   0  0  0  0  0  0
  -25.4166  -15.1743   20.3904 N   0  0  0  0  0  0
  -31.7646  -14.6656   20.0655 O   0  0  0  0  0  0
  -21.6597   -6.8865   21.4246 O   0  0  0  0  0  0
  -22.3534  -14.5524   20.6717 O   0  0  0  0  0  0
  -24.6146  -31.8659   23.2173 C   0  0  0  0  0  0
  -25.9019  -32.4791   23.8503 C   0  0  1  0  0  0
  -27.2528  -27.4457   20.1035 C   0  0  0  0  0  0
  -25.5857  -33.8581   24.2400 N   0  0  0  0  0  0
  -23.4038  -30.4932   21.5497 C   0  0  2  0  0  0
  -24.8588  -28.9675   20.1188 C   0  0  0  0  0  0
  -22.7421  -29.4609   22.4928 C   0  0  0  0  0  0
  -18.0310  -28.1358   22.8450 C   0  0  0  0  0  0
  -24.1485  -36.7316   23.2650 C   0  0  0  0  0  0
  -25.9327  -30.8469   21.3631 C   0  0  0  0  0  0
  -26.0202  -29.4784   20.7123 C   0  0  0  0  0  0
  -27.2175  -28.7269   20.7011 C   0  0  0  0  0  0
  -26.0634  -26.9501   19.5077 C   0  0  0  0  0  0
  -24.8749  -27.7004   19.5145 C   0  0  0  0  0  0
  -23.6176  -29.8275   20.1630 C   0  0  0  0  0  0
  -25.4090  -36.3074   24.0372 C   0  0  1  0  0  0
  -20.5891  -28.3634   23.1267 C   0  0  2  0  0  0
  -20.6754  -26.9353   22.5394 C   0  0  0  0  0  0
  -19.5749  -26.6356   21.5162 C   0  0  0  0  0  0
  -18.1934  -26.7891   22.1583 C   0  0  0  0  0  0
  -19.1554  -28.8806   23.2857 C   0  0  0  0  0  0
  -18.9472  -30.1422   23.8854 C   0  0  0  0  0  0
  -17.6445  -30.6530   24.0539 C   0  0  0  0  0  0
  -25.8981  -34.9420   23.5173 C   0  0  0  0  0  0
  -16.5346  -29.9027   23.6303 C   0  0  0  0  0  0
  -16.7288  -28.6478   23.0288 C   0  0  0  0  0  0
  -26.4486  -31.6585   25.0802 C   0  0  0  0  0  0
  -25.3720  -31.3683   26.1525 C   0  0  0  0  0  0
  -27.0325  -30.3037   24.6134 C   0  0  0  0  0  0
  -27.6080  -32.4318   25.7531 C   0  0  0  0  0  0
  -27.5576  -37.1790   24.8471 C   0  0  0  0  0  0
  -21.4148  -29.3009   22.3683 N   0  0  0  0  0  0
  -26.4267  -37.3768   23.9459 N   0  0  0  0  0  0
  -24.6685  -31.0831   22.1022 N   0  0  0  0  0  0
  -23.4199  -28.8059   23.2895 O   0  0  0  0  0  0
  -28.4289  -26.7132   20.1396 O   0  0  0  0  0  0
  -26.5535  -34.8856   22.4722 O   0  0  0  0  0  0
  -23.5353  -32.1333   23.7578 O   0  0  0  0  0  0
  -31.8128  -18.8940   22.0818 C   0  0  0  0  0  0
  -31.8554  -17.4755   22.0912 C   0  0  0  0  0  0
  -30.6673  -16.7526   21.7729 C   0  0  0  0  0  0
  -30.6193  -19.5651   21.7271 C   0  0  0  0  0  0
  -29.5753  -17.5207   21.2953 C   0  0  0  0  0  0
  -33.1707  -16.7912   22.4408 C   0  0  0  0  0  0
  -28.3027  -16.9153   20.7403 C   0  0  0  0  0  0
  -31.1516  -14.6222   23.2444 C   0  0  0  0  0  0
  -29.2552  -21.2006   23.0074 C   0  0  0  0  0  0
  -31.5793  -21.8530   22.4292 C   0  0  0  0  0  0
  -28.9167  -22.9435   20.5612 C   0  0  0  0  0  0
  -29.4664  -24.3875   20.4565 C   0  0  0  0  0  0
  -29.9064  -21.7450   20.5568 C   0  0  0  0  0  0
  -28.2727  -25.2930   20.0566 C   0  0  0  0  0  0
  -30.4644  -15.2219   21.9949 C   0  0  2  0  0  0
  -30.3464  -21.0857   21.9135 C   0  0  0  0  0  0
  -29.5557  -18.8616   21.2952 N   0  0  0  0  0  0
  -31.4486  -12.4265   19.0616 H   0  0  0  0  0  0
  -30.3288  -11.2881   19.7430 H   0  0  0  0  0  0
  -29.7095  -11.8574   17.3747 H   0  0  0  0  0  0
  -29.5932  -13.5500   17.8015 H   0  0  0  0  0  0
  -27.8310  -11.2849   18.8104 H   0  0  0  0  0  0
  -27.3281  -12.6040   17.7906 H   0  0  0  0  0  0
  -27.7011  -14.2160   19.5714 H   0  0  0  0  0  0
  -28.6885  -11.8560   21.2404 H   0  0  0  0  0  0
  -28.4270  -13.4160   21.9067 H   0  0  0  0  0  0
  -25.2716   -9.5601   22.4852 H   0  0  0  0  0  0
  -23.9938   -7.4562   22.7499 H   0  0  0  0  0  0
  -21.0812   -8.8786   19.8963 H   0  0  0  0  0  0
  -22.3710  -10.9676   19.6216 H   0  0  0  0  0  0
  -21.2028   -7.6150   23.9716 H   0  0  0  0  0  0
  -21.1495   -6.0534   25.9076 H   0  0  0  0  0  0
  -22.0595   -2.7612   23.2840 H   0  0  0  0  0  0
  -22.4033  -11.9833   22.4756 H   0  0  0  0  0  0
  -21.1137  -13.1326   22.2731 H   0  0  0  0  0  0
  -24.6307  -15.8116   20.4828 H   0  0  0  0  0  0
  -26.2245  -15.6020   19.9602 H   0  0  0  0  0  0
  -26.7071  -32.5546   23.1287 H   0  0  0  0  0  0
  -25.0061  -33.9768   25.0576 H   0  0  0  0  0  0
  -22.6908  -31.3074   21.4067 H   0  0  0  0  0  0
  -23.3687  -35.9684   23.3280 H   0  0  0  0  0  0
  -24.3604  -36.8943   22.2061 H   0  0  0  0  0  0
  -23.7264  -37.6523   23.6663 H   0  0  0  0  0  0
  -26.0319  -31.6162   20.5970 H   0  0  0  0  0  0
  -26.8255  -30.9141   21.9730 H   0  0  0  0  0  0
  -28.1133  -29.1098   21.1736 H   0  0  0  0  0  0
  -26.0261  -25.9815   19.0314 H   0  0  0  0  0  0
  -23.9813  -27.3083   19.0488 H   0  0  0  0  0  0
  -23.7161  -30.5953   19.3927 H   0  0  0  0  0  0
  -22.7450  -29.2371   19.8761 H   0  0  0  0  0  0
  -25.1248  -36.1940   25.0861 H   0  0  0  0  0  0
  -21.0058  -28.3198   24.1366 H   0  0  0  0  0  0
  -20.5615  -26.2232   23.3578 H   0  0  0  0  0  0
  -21.6627  -26.7328   22.1193 H   0  0  0  0  0  0
  -19.6891  -25.6261   21.1200 H   0  0  0  0  0  0
  -19.6694  -27.3144   20.6661 H   0  0  0  0  0  0
  -17.4191  -26.6614   21.3994 H   0  0  0  0  0  0
  -18.0338  -26.0023   22.8991 H   0  0  0  0  0  0
  -19.7947  -30.7258   24.2197 H   0  0  0  0  0  0
  -17.5000  -31.6227   24.5159 H   0  0  0  0  0  0
  -15.5356  -30.2907   23.7666 H   0  0  0  0  0  0
  -15.8686  -28.0836   22.6954 H   0  0  0  0  0  0
  -24.5944  -30.6988   25.7857 H   0  0  0  0  0  0
  -24.8853  -32.2828   26.4910 H   0  0  0  0  0  0
  -25.8059  -30.8902   27.0314 H   0  0  0  0  0  0
  -26.2858  -29.6777   24.1213 H   0  0  0  0  0  0
  -27.4142  -29.7321   25.4604 H   0  0  0  0  0  0
  -27.8683  -30.4426   23.9264 H   0  0  0  0  0  0
  -27.2746  -33.3655   26.2099 H   0  0  0  0  0  0
  -28.3886  -32.6812   25.0326 H   0  0  0  0  0  0
  -28.0719  -31.8412   26.5450 H   0  0  0  0  0  0
  -28.2536  -38.0130   24.7491 H   0  0  0  0  0  0
  -28.1114  -36.2633   24.6284 H   0  0  0  0  0  0
  -27.2303  -37.1435   25.8874 H   0  0  0  0  0  0
  -20.9284  -29.8809   21.6989 H   0  0  0  0  0  0
  -26.0120  -38.2831   24.1440 H   0  0  0  0  0  0
  -32.6900  -19.4527   22.3768 H   0  0  0  0  0  0
  -34.0170  -17.4682   22.3151 H   0  0  0  0  0  0
  -33.3408  -15.9462   21.7726 H   0  0  0  0  0  0
  -33.1791  -16.4407   23.4751 H   0  0  0  0  0  0
  -28.5365  -16.0695   20.1019 H   0  0  0  0  0  0
  -27.7587  -17.6242   20.1126 H   0  0  0  0  0  0
  -27.6441  -16.5956   21.5471 H   0  0  0  0  0  0
  -31.1672  -15.3164   24.0857 H   0  0  0  0  0  0
  -32.1745  -14.2973   23.0506 H   0  0  0  0  0  0
  -30.6123  -13.7377   23.5826 H   0  0  0  0  0  0
  -29.5249  -20.6234   23.8921 H   0  0  0  0  0  0
  -28.2976  -20.8103   22.6573 H   0  0  0  0  0  0
  -29.0966  -22.2286   23.3354 H   0  0  0  0  0  0
  -31.9171  -21.4637   23.3898 H   0  0  0  0  0  0
  -31.3481  -22.9076   22.5775 H   0  0  0  0  0  0
  -32.4074  -21.8061   21.7232 H   0  0  0  0  0  0
  -28.2160  -22.8905   21.3914 H   0  0  0  0  0  0
  -28.2797  -22.7966   19.6835 H   0  0  0  0  0  0
  -30.2643  -24.4525   19.7135 H   0  0  0  0  0  0
  -29.9048  -24.6921   21.4074 H   0  0  0  0  0  0
  -30.7704  -21.9683   19.9327 H   0  0  0  0  0  0
  -29.3654  -20.9842   19.9937 H   0  0  0  0  0  0
  -28.0219  -25.0535   19.0238 H   0  0  0  0  0  0
  -27.4292  -25.0077   20.6892 H   0  0  0  0  0  0
  -29.4099  -15.1589   22.2312 H   0  0  0  0  0  0
  1 25  1  0  0  0
  1 30  2  0  0  0
  1 85  1  0  0  0
  2  3  1  0  0  0
  2 25  1  0  0  0
  2 88  1  0  0  0
  2 89  1  0  0  0
  3  4  1  0  0  0
  3 90  1  0  0  0
  3 91  1  0  0  0
  4  5  1  0  0  0
  4 92  1  0  0  0
  4 93  1  0  0  0
  5  6  1  0  0  0
  5 26  1  0  0  0
  5 94  1  0  0  0
  6 25  1  0  0  0
  6 95  1  0  0  0
  6 96  1  0  0  0
  7  8  2  0  0  0
  7 26  1  0  0  0
  7 29  1  0  0  0
  8  9  1  0  0  0
  8 22  1  0  0  0
  9 10  1  0  0  0
  9 27  2  0  0  0
 10 11  2  0  0  0
 10 15  1  0  0  0
 11 12  1  0  0  0
 11 97  1  0  0  0
 12 13  2  0  0  0
 12 98  1  0  0  0
 13 14  1  0  0  0
 13 31  1  0  0  0
 14 15  2  0  0  0
 14 99  1  0  0  0
 15100  1  0  0  0
 16 17  2  0  0  0
 16 21  1  0  0  0
 16 31  1  0  0  0
 17 18  1  0  0  0
 17101  1  0  0  0
 18 19  2  0  0  0
 18102  1  0  0  0
 19 20  1  0  0  0
 19 24  1  0  0  0
 20 21  2  0  0  0
 20103  1  0  0  0
 21 23  1  0  0  0
 22 28  1  0  0  0
 22 32  2  0  0  0
 26 27  1  0  0  0
 28104  1  0  0  0
 28105  1  0  0  0
 29106  1  0  0  0
 29107  1  0  0  0
 33 34  1  0  0  0
 33 66  1  0  0  0
 33 70  2  0  0  0
 34 36  1  0  0  0
 34 59  1  0  0  0
 34108  1  0  0  0
 35 44  2  0  0  0
 35 45  1  0  0  0
 35 68  1  0  0  0
 36 56  1  0  0  0
 36109  1  0  0  0
 37 39  1  0  0  0
 37 47  1  0  0  0
 37 66  1  0  0  0
 37110  1  0  0  0
 38 43  2  0  0  0
 38 46  1  0  0  0
 38 47  1  0  0  0
 39 64  1  0  0  0
 39 67  2  0  0  0
 40 52  1  0  0  0
 40 53  2  0  0  0
 40 58  1  0  0  0
 41111  1  0  0  0
 41112  1  0  0  0
 41113  1  0  0  0
 41 48  1  0  0  0
 42 43  1  0  0  0
 42 66  1  0  0  0
 42114  1  0  0  0
 42115  1  0  0  0
 43 44  1  0  0  0
 44116  1  0  0  0
 45 46  2  0  0  0
 45117  1  0  0  0
 46118  1  0  0  0
 47119  1  0  0  0
 47120  1  0  0  0
 48 56  1  0  0  0
 48 65  1  0  0  0
 48121  1  0  0  0
 49 50  1  0  0  0
 49 53  1  0  0  0
 49 64  1  0  0  0
 49122  1  0  0  0
 50 51  1  0  0  0
 50123  1  0  0  0
 50124  1  0  0  0
 51 52  1  0  0  0
 51125  1  0  0  0
 51126  1  0  0  0
 52127  1  0  0  0
 52128  1  0  0  0
 53 54  1  0  0  0
 54 55  2  0  0  0
 54129  1  0  0  0
 55 57  1  0  0  0
 55130  1  0  0  0
 56 69  2  0  0  0
 57 58  2  0  0  0
 57131  1  0  0  0
 58132  1  0  0  0
 59 60  1  0  0  0
 59 61  1  0  0  0
 59 62  1  0  0  0
 60133  1  0  0  0
 60134  1  0  0  0
 60135  1  0  0  0
 61136  1  0  0  0
 61137  1  0  0  0
 61138  1  0  0  0
 62139  1  0  0  0
 62140  1  0  0  0
 62141  1  0  0  0
 63 65  1  0  0  0
 63142  1  0  0  0
 63143  1  0  0  0
 63144  1  0  0  0
 64145  1  0  0  0
 65146  1  0  0  0
 68 84  1  0  0  0
 71 72  2  0  0  0
 71 74  1  0  0  0
 71147  1  0  0  0
 72 73  1  0  0  0
 72 76  1  0  0  0
 73 75  2  0  0  0
 73 85  1  0  0  0
 74 86  1  0  0  0
 74 87  2  0  0  0
 75 77  1  0  0  0
 75 87  1  0  0  0
 76148  1  0  0  0
 76149  1  0  0  0
 76150  1  0  0  0
 77151  1  0  0  0
 77152  1  0  0  0
 77153  1  0  0  0
 78154  1  0  0  0
 78155  1  0  0  0
 78156  1  0  0  0
 78 85  1  0  0  0
 79157  1  0  0  0
 79158  1  0  0  0
 79159  1  0  0  0
 79 86  1  0  0  0
 80 86  1  0  0  0
 80160  1  0  0  0
 80161  1  0  0  0
 80162  1  0  0  0
 81 82  1  0  0  0
 81 83  1  0  0  0
 81163  1  0  0  0
 81164  1  0  0  0
 82 84  1  0  0  0
 82165  1  0  0  0
 82166  1  0  0  0
 83 86  1  0  0  0
 83167  1  0  0  0
 83168  1  0  0  0
 84169  1  0  0  0
 84170  1  0  0  0
 85171  1  0  0  0
M  ISO  4   1 100  68 101  84 101  85 100
M  END
> <chiral flag>
0

> <version>
0

> <s_m_source_file>
/data/baiqing/PycharmProjects/Reinvent-master-3.2/result/LINK_invent/BTK/process_docking_weight1_custom_sum_contain_oxygen_bond_distance_aromatic_linkinvent_7_9_3/rearranged_h_0069.sdf

> <i_m_source_file_index>
69

> <r_mmod_Potential_Energy-OPLS-2005>
-117.582824707031

> <r_mmod_Stretch_Energy-OPLS-2005>
47.029052734375

> <r_mmod_Bend_Energy-OPLS-2005>
137.295211791992

> <r_mmod_Torsional_Energy-OPLS-2005>
201.527496337891

> <r_mmod_Improper_Torsional_Energy-OPLS-2005>
2.78188395500183

> <r_mmod_Van_der_Waal_Energy-OPLS-2005>
176.209655761719

> <r_mmod_Electrostatic_Energy-OPLS-2005>
-503.801818847656

> <r_mmod_Solvation_Energy-OPLS-2005>
-189.145141601562

> <b_mmod_Minimization_Converged-OPLS-2005>
0

> <r_mmod_RMS_Derivative-OPLS-2005>
5.54616403579712

$$$$
69
                    3D
 Structure written by MMmdl.
164172  0  0  1  0            999 V2000
  -30.6449  -14.5887   20.5312 C   0  0  0  0  0  0
  -30.4363  -12.3652   19.4496 C   0  0  0  0  0  0
  -29.5089  -12.5126   18.2235 C   0  0  0  0  0  0
  -28.0287  -12.3628   18.6282 C   0  0  0  0  0  0
  -27.6594  -13.2139   19.8723 C   0  0  2  0  0  0
  -28.7022  -13.0351   21.0002 C   0  0  0  0  0  0
  -25.2588  -13.8168   20.5693 C   0  0  0  0  0  0
  -24.1844  -13.0442   20.9187 C   0  0  0  0  0  0
  -24.6398  -11.6909   20.8723 C   0  0  0  0  0  0
  -23.9058  -10.4300   21.0387 C   0  0  0  0  0  0
  -24.3611   -9.4222   21.9169 C   0  0  0  0  0  0
  -23.6299   -8.2249   22.0741 C   0  0  0  0  0  0
  -22.4281   -8.0277   21.3536 C   0  0  0  0  0  0
  -21.9906   -9.0244   20.4635 C   0  0  0  0  0  0
  -22.7223  -10.2133   20.3042 C   0  0  0  0  0  0
  -21.6858   -6.0730   22.5279 C   0  0  0  0  0  0
  -21.4011   -6.5636   23.8212 C   0  0  0  0  0  0
  -21.3667   -5.6790   24.9176 C   0  0  0  0  0  0
  -21.6049   -4.3051   24.7224 C   0  0  0  0  0  0
  -21.8821   -3.8143   23.4346 C   0  0  0  0  0  0
  -21.9195   -4.6959   22.3402 C   0  0  0  0  0  0
  -22.7866  -13.5236   21.1847 C   0  0  0  0  0  0
  -22.1665   -4.2144   21.0981 F   0  0  0  0  0  0
  -21.5633   -3.4535   25.7739 F   0  0  0  0  0  0
  -30.0257  -13.3715   20.4490 N   0  0  0  0  0  0
  -26.3020  -12.9342   20.3348 N   0  0  0  0  0  0
  -25.9328  -11.6499   20.5745 N   0  0  0  0  0  0
  -22.0499  -12.8234   22.0401 N   0  0  0  0  0  0
  -25.4321  -15.1885   20.4123 N   0  0  0  0  0  0
  -31.7803  -14.7560   20.0873 O   0  0  0  0  0  0
  -21.6645   -6.8872   21.4240 O   0  0  0  0  0  0
  -22.3554  -14.5544   20.6696 O   0  0  0  0  0  0
  -24.6202  -31.8630   23.2065 C   0  0  0  0  0  0
  -25.9073  -32.4795   23.8380 C   0  0  1  0  0  0
  -27.2205  -27.3556   20.1319 C   0  0  0  0  0  0
  -25.5908  -33.8597   24.2305 N   0  0  0  0  0  0
  -23.4138  -30.4872   21.5461 C   0  0  2  0  0  0
  -24.8647  -28.9502   20.1082 C   0  0  0  0  0  0
  -22.7455  -29.4636   22.4940 C   0  0  0  0  0  0
  -18.0287  -28.1388   22.8498 C   0  0  0  0  0  0
  -24.1483  -36.7297   23.2644 C   0  0  0  0  0  0
  -25.9518  -30.8033   21.3776 C   0  0  0  0  0  0
  -26.0277  -29.4331   20.7243 C   0  0  0  0  0  0
  -27.2108  -28.6430   20.7362 C   0  0  0  0  0  0
  -26.0578  -26.9352   19.4527 C   0  0  0  0  0  0
  -24.8788  -27.7033   19.4635 C   0  0  0  0  0  0
  -23.6287  -29.8237   20.1595 C   0  0  0  0  0  0
  -25.4108  -36.3095   24.0336 C   0  0  1  0  0  0
  -20.5884  -28.3679   23.1297 C   0  0  2  0  0  0
  -20.6774  -26.9406   22.5410 C   0  0  0  0  0  0
  -19.5744  -26.6385   21.5216 C   0  0  0  0  0  0
  -18.1928  -26.7934   22.1632 C   0  0  0  0  0  0
  -19.1541  -28.8851   23.2895 C   0  0  0  0  0  0
  -18.9463  -30.1465   23.8896 C   0  0  0  0  0  0
  -17.6462  -30.6591   24.0571 C   0  0  0  0  0  0
  -25.9036  -34.9462   23.5121 C   0  0  0  0  0  0
  -16.5355  -29.9089   23.6340 C   0  0  0  0  0  0
  -16.7275  -28.6510   23.0354 C   0  0  0  0  0  0
  -26.4480  -31.6595   25.0730 C   0  0  0  0  0  0
  -25.3729  -31.3722   26.1465 C   0  0  0  0  0  0
  -27.0323  -30.3029   24.6153 C   0  0  0  0  0  0
  -27.6043  -32.4328   25.7491 C   0  0  0  0  0  0
  -27.5577  -37.1807   24.8471 C   0  0  0  0  0  0
  -21.4175  -29.3039   22.3689 N   0  0  0  0  0  0
  -26.4292  -37.3783   23.9410 N   0  0  0  0  0  0
  -24.6799  -31.0679   22.1002 N   0  0  0  0  0  0
  -23.4197  -28.8178   23.3004 O   0  0  0  0  0  0
  -28.3146  -26.4889   20.1710 O   0  0  0  0  0  0
  -26.5599  -34.8922   22.4682 O   0  0  0  0  0  0
  -23.5374  -32.1412   23.7418 O   0  0  0  0  0  0
  -31.1711  -21.6507   21.0345 C   0  0  0  0  0  0
  -30.7414  -19.6015   20.8760 C   0  0  0  0  0  0
  -31.9856  -17.6517   21.8520 C   0  0  0  0  0  0
  -31.7027  -17.9237   19.3307 C   0  0  0  0  0  0
  -26.8369  -24.8544   21.4611 C   0  0  0  0  0  0
  -28.9909  -25.7716   22.3312 C   0  0  0  0  0  0
  -29.0383  -24.0453   20.4463 C   0  0  0  0  0  0
  -28.8299  -22.6352   21.1524 C   0  0  0  0  0  0
  -29.7707  -17.1131   20.7701 C   0  0  0  0  0  0
  -31.0298  -18.0734   20.7126 C   0  0  0  0  0  0
  -28.2684  -25.2996   21.0572 C   0  0  0  0  0  0
  -31.7961  -20.4771   20.9817 N   0  0  0  0  0  0
  -29.5412  -20.2217   20.8186 N   0  0  0  0  0  0
  -29.8455  -21.5694   20.9376 N   0  0  0  0  0  0
  -29.8564  -15.6125   20.9703 N   0  0  0  0  0  0
  -31.4783  -12.4832   19.1464 H   0  0  0  0  0  0
  -30.3604  -11.3616   19.8707 H   0  0  0  0  0  0
  -29.7653  -11.7695   17.4668 H   0  0  0  0  0  0
  -29.6663  -13.4874   17.7596 H   0  0  0  0  0  0
  -27.8500  -11.3078   18.8370 H   0  0  0  0  0  0
  -27.3806  -12.6206   17.7895 H   0  0  0  0  0  0
  -27.6887  -14.2556   19.5541 H   0  0  0  0  0  0
  -28.7025  -12.0037   21.3573 H   0  0  0  0  0  0
  -28.4491  -13.6451   21.8682 H   0  0  0  0  0  0
  -25.2752   -9.5713   22.4743 H   0  0  0  0  0  0
  -24.0015   -7.4646   22.7463 H   0  0  0  0  0  0
  -21.0833   -8.8760   19.8943 H   0  0  0  0  0  0
  -22.3670  -10.9670   19.6154 H   0  0  0  0  0  0
  -21.1996   -7.6143   23.9715 H   0  0  0  0  0  0
  -21.1488   -6.0518   25.9083 H   0  0  0  0  0  0
  -22.0591   -2.7604   23.2848 H   0  0  0  0  0  0
  -22.4112  -11.9910   22.4818 H   0  0  0  0  0  0
  -21.1104  -13.1250   22.2564 H   0  0  0  0  0  0
  -24.6671  -15.8461   20.5213 H   0  0  0  0  0  0
  -26.2839  -15.6255   20.0838 H   0  0  0  0  0  0
  -26.7145  -32.5484   23.1137 H   0  0  0  0  0  0
  -25.0065  -33.9755   25.0459 H   0  0  0  0  0  0
  -22.7057  -31.3065   21.4057 H   0  0  0  0  0  0
  -23.3742  -35.9634   23.3320 H   0  0  0  0  0  0
  -24.3578  -36.8889   22.2055 H   0  0  0  0  0  0
  -23.7238  -37.6510   23.6647 H   0  0  0  0  0  0
  -26.0817  -31.5668   20.6093 H   0  0  0  0  0  0
  -26.8342  -30.8521   22.0039 H   0  0  0  0  0  0
  -28.1000  -29.0001   21.2372 H   0  0  0  0  0  0
  -26.0516  -25.9824   18.9428 H   0  0  0  0  0  0
  -23.9928  -27.3323   18.9679 H   0  0  0  0  0  0
  -23.7430  -30.6020   19.4036 H   0  0  0  0  0  0
  -22.7507  -29.2490   19.8585 H   0  0  0  0  0  0
  -25.1291  -36.1953   25.0830 H   0  0  0  0  0  0
  -20.9998  -28.3246   24.1408 H   0  0  0  0  0  0
  -20.5679  -26.2287   23.3603 H   0  0  0  0  0  0
  -21.6643  -26.7436   22.1202 H   0  0  0  0  0  0
  -19.6895  -25.6295   21.1240 H   0  0  0  0  0  0
  -19.6683  -27.3205   20.6751 H   0  0  0  0  0  0
  -17.4199  -26.6702   21.4030 H   0  0  0  0  0  0
  -18.0328  -26.0071   22.9020 H   0  0  0  0  0  0
  -19.7936  -30.7300   24.2246 H   0  0  0  0  0  0
  -17.5009  -31.6266   24.5179 H   0  0  0  0  0  0
  -15.5356  -30.2986   23.7659 H   0  0  0  0  0  0
  -15.8679  -28.0830   22.7053 H   0  0  0  0  0  0
  -24.5903  -30.7063   25.7812 H   0  0  0  0  0  0
  -24.8915  -32.2883   26.4901 H   0  0  0  0  0  0
  -25.8068  -30.8906   27.0234 H   0  0  0  0  0  0
  -26.2891  -29.6780   24.1182 H   0  0  0  0  0  0
  -27.4058  -29.7277   25.4636 H   0  0  0  0  0  0
  -27.8747  -30.4347   23.9352 H   0  0  0  0  0  0
  -27.2660  -33.3632   26.2066 H   0  0  0  0  0  0
  -28.3850  -32.6875   25.0310 H   0  0  0  0  0  0
  -28.0711  -31.8448   26.5401 H   0  0  0  0  0  0
  -28.2613  -38.0088   24.7504 H   0  0  0  0  0  0
  -28.1054  -36.2619   24.6317 H   0  0  0  0  0  0
  -27.2295  -37.1483   25.8875 H   0  0  0  0  0  0
  -20.9336  -29.8753   21.6905 H   0  0  0  0  0  0
  -26.0172  -38.2861   24.1400 H   0  0  0  0  0  0
  -31.6881  -22.5886   21.1870 H   0  0  0  0  0  0
  -32.9208  -18.2109   21.8193 H   0  0  0  0  0  0
  -32.2571  -16.6002   21.8092 H   0  0  0  0  0  0
  -31.5310  -17.8343   22.8258 H   0  0  0  0  0  0
  -32.6211  -18.5079   19.2723 H   0  0  0  0  0  0
  -31.0429  -18.2864   18.5421 H   0  0  0  0  0  0
  -31.9683  -16.9035   19.0817 H   0  0  0  0  0  0
  -26.2546  -25.6682   21.8945 H   0  0  0  0  0  0
  -26.8510  -24.0779   22.2256 H   0  0  0  0  0  0
  -26.2857  -24.4484   20.6133 H   0  0  0  0  0  0
  -29.0214  -24.9945   23.0949 H   0  0  0  0  0  0
  -28.4933  -26.6362   22.7722 H   0  0  0  0  0  0
  -30.0201  -26.0613   22.1175 H   0  0  0  0  0  0
  -28.7432  -23.9325   19.4027 H   0  0  0  0  0  0
  -30.1020  -24.2806   20.4152 H   0  0  0  0  0  0
  -27.8529  -22.2346   20.8817 H   0  0  0  0  0  0
  -28.7987  -22.7886   22.2310 H   0  0  0  0  0  0
  -29.1645  -17.2880   19.8804 H   0  0  0  0  0  0
  -29.1478  -17.4639   21.5940 H   0  0  0  0  0  0
  -29.0055  -15.2466   21.3711 H   0  0  0  0  0  0
  1 25  1  0  0  0
  1 30  2  0  0  0
  1 85  1  0  0  0
  2  3  1  0  0  0
  2 25  1  0  0  0
  2 86  1  0  0  0
  2 87  1  0  0  0
  3  4  1  0  0  0
  3 88  1  0  0  0
  3 89  1  0  0  0
  4  5  1  0  0  0
  4 90  1  0  0  0
  4 91  1  0  0  0
  5  6  1  0  0  0
  5 26  1  0  0  0
  5 92  1  0  0  0
  6 25  1  0  0  0
  6 93  1  0  0  0
  6 94  1  0  0  0
  7  8  2  0  0  0
  7 26  1  0  0  0
  7 29  1  0  0  0
  8  9  1  0  0  0
  8 22  1  0  0  0
  9 10  1  0  0  0
  9 27  2  0  0  0
 10 11  2  0  0  0
 10 15  1  0  0  0
 11 12  1  0  0  0
 11 95  1  0  0  0
 12 13  2  0  0  0
 12 96  1  0  0  0
 13 14  1  0  0  0
 13 31  1  0  0  0
 14 15  2  0  0  0
 14 97  1  0  0  0
 15 98  1  0  0  0
 16 17  2  0  0  0
 16 21  1  0  0  0
 16 31  1  0  0  0
 17 18  1  0  0  0
 17 99  1  0  0  0
 18 19  2  0  0  0
 18100  1  0  0  0
 19 20  1  0  0  0
 19 24  1  0  0  0
 20 21  2  0  0  0
 20101  1  0  0  0
 21 23  1  0  0  0
 22 28  1  0  0  0
 22 32  2  0  0  0
 26 27  1  0  0  0
 28102  1  0  0  0
 28103  1  0  0  0
 29104  1  0  0  0
 29105  1  0  0  0
 33 34  1  0  0  0
 33 66  1  0  0  0
 33 70  2  0  0  0
 34 36  1  0  0  0
 34 59  1  0  0  0
 34106  1  0  0  0
 35 44  2  0  0  0
 35 45  1  0  0  0
 35 68  1  0  0  0
 36 56  1  0  0  0
 36107  1  0  0  0
 37 39  1  0  0  0
 37 47  1  0  0  0
 37 66  1  0  0  0
 37108  1  0  0  0
 38 43  2  0  0  0
 38 46  1  0  0  0
 38 47  1  0  0  0
 39 64  1  0  0  0
 39 67  2  0  0  0
 40 52  1  0  0  0
 40 53  2  0  0  0
 40 58  1  0  0  0
 41109  1  0  0  0
 41110  1  0  0  0
 41111  1  0  0  0
 41 48  1  0  0  0
 42 43  1  0  0  0
 42 66  1  0  0  0
 42112  1  0  0  0
 42113  1  0  0  0
 43 44  1  0  0  0
 44114  1  0  0  0
 45 46  2  0  0  0
 45115  1  0  0  0
 46116  1  0  0  0
 47117  1  0  0  0
 47118  1  0  0  0
 48 56  1  0  0  0
 48 65  1  0  0  0
 48119  1  0  0  0
 49 50  1  0  0  0
 49 53  1  0  0  0
 49 64  1  0  0  0
 49120  1  0  0  0
 50 51  1  0  0  0
 50121  1  0  0  0
 50122  1  0  0  0
 51 52  1  0  0  0
 51123  1  0  0  0
 51124  1  0  0  0
 52125  1  0  0  0
 52126  1  0  0  0
 53 54  1  0  0  0
 54 55  2  0  0  0
 54127  1  0  0  0
 55 57  1  0  0  0
 55128  1  0  0  0
 56 69  2  0  0  0
 57 58  2  0  0  0
 57129  1  0  0  0
 58130  1  0  0  0
 59 60  1  0  0  0
 59 61  1  0  0  0
 59 62  1  0  0  0
 60131  1  0  0  0
 60132  1  0  0  0
 60133  1  0  0  0
 61134  1  0  0  0
 61135  1  0  0  0
 61136  1  0  0  0
 62137  1  0  0  0
 62138  1  0  0  0
 62139  1  0  0  0
 63 65  1  0  0  0
 63140  1  0  0  0
 63141  1  0  0  0
 63142  1  0  0  0
 64143  1  0  0  0
 65144  1  0  0  0
 68 81  1  0  0  0
 71 82  2  0  0  0
 71 84  1  0  0  0
 71145  1  0  0  0
 72 80  1  0  0  0
 72 82  1  0  0  0
 72 83  2  0  0  0
 73146  1  0  0  0
 73147  1  0  0  0
 73148  1  0  0  0
 73 80  1  0  0  0
 74 80  1  0  0  0
 74149  1  0  0  0
 74150  1  0  0  0
 74151  1  0  0  0
 75152  1  0  0  0
 75153  1  0  0  0
 75154  1  0  0  0
 75 81  1  0  0  0
 76 81  1  0  0  0
 76155  1  0  0  0
 76156  1  0  0  0
 76157  1  0  0  0
 77 78  1  0  0  0
 77 81  1  0  0  0
 77158  1  0  0  0
 77159  1  0  0  0
 78 84  1  0  0  0
 78160  1  0  0  0
 78161  1  0  0  0
 79 80  1  0  0  0
 79 85  1  0  0  0
 79162  1  0  0  0
 79163  1  0  0  0
 83 84  1  0  0  0
 85164  1  0  0  0
M  ISO  4   1 100  68 101  81 101  85 100
M  END
> <chiral flag>
0

> <version>
0

> <s_m_source_file>
/data/baiqing/PycharmProjects/Reinvent-master-3.2/result/LINK_invent/BTK/process_docking_weight1_custom_sum_contain_oxygen_bond_distance_aromatic_linkinvent_7_9_3/rearranged_h_0069.sdf

> <i_m_source_file_index>
70

> <r_mmod_Potential_Energy-OPLS-2005>
12.1107358932495

> <r_mmod_Stretch_Energy-OPLS-2005>
78.5856399536133

> <r_mmod_Bend_Energy-OPLS-2005>
169.962295532227

> <r_mmod_Torsional_Energy-OPLS-2005>
250.515487670898

> <r_mmod_Improper_Torsional_Energy-OPLS-2005>
5.85945844650269

> <r_mmod_Van_der_Waal_Energy-OPLS-2005>
132.731979370117

> <r_mmod_Electrostatic_Energy-OPLS-2005>
-443.544830322266

> <r_mmod_Solvation_Energy-OPLS-2005>
-218.283599853516

> <b_mmod_Minimization_Converged-OPLS-2005>
0

> <r_mmod_RMS_Derivative-OPLS-2005>
1.32476782798767

$$$$
70
                    3D
 Structure written by MMmdl.
188196  0  0  1  0            999 V2000
  -28.8012  -16.4659   20.4049 C   0  0  0  0  0  0
  -30.0259  -13.9082   19.6055 C   0  0  0  0  0  0
  -29.4552  -12.9759   18.4541 C   0  0  0  0  0  0
  -28.1797  -12.2655   18.9117 C   0  0  0  0  0  0
  -27.4292  -13.2523   19.8073 C   0  0  2  0  0  0
  -28.2288  -13.8368   20.9694 C   0  0  0  0  0  0
  -25.1496  -13.7591   20.6103 C   0  0  0  0  0  0
  -24.1005  -12.9874   20.9532 C   0  0  0  0  0  0
  -24.5792  -11.6443   20.8844 C   0  0  0  0  0  0
  -23.8677  -10.3932   21.0480 C   0  0  0  0  0  0
  -24.3365   -9.3961   21.9267 C   0  0  0  0  0  0
  -23.6119   -8.1979   22.0784 C   0  0  0  0  0  0
  -22.4128   -8.0043   21.3537 C   0  0  0  0  0  0
  -21.9687   -8.9970   20.4640 C   0  0  0  0  0  0
  -22.6927  -10.1859   20.3080 C   0  0  0  0  0  0
  -21.6755   -6.0620   22.5298 C   0  0  0  0  0  0
  -21.3942   -6.5570   23.8220 C   0  0  0  0  0  0
  -21.3639   -5.6751   24.9205 C   0  0  0  0  0  0
  -21.6039   -4.3014   24.7269 C   0  0  0  0  0  0
  -21.8834   -3.8077   23.4405 C   0  0  0  0  0  0
  -21.9170   -4.6869   22.3441 C   0  0  0  0  0  0
  -22.7184  -13.4868   21.2165 C   0  0  0  0  0  0
  -22.1654   -4.2069   21.1015 F   0  0  0  0  0  0
  -21.5648   -3.4516   25.7787 F   0  0  0  0  0  0
  -28.9738  -14.9082   20.3123 N   0  0  0  0  0  0
  -26.1600  -12.8810   20.2961 N   0  0  0  0  0  0
  -25.8585  -11.5965   20.5456 N   0  0  0  0  0  0
  -21.9785  -12.7967   22.0705 N   0  0  0  0  0  0
  -25.3141  -15.1244   20.5234 N   0  0  0  0  0  0
  -30.1004  -16.5520   20.3573 O   0  0  0  0  0  0
  -21.6505   -6.8689   21.4239 O   0  0  0  0  0  0
  -22.3114  -14.5284   20.7016 O   0  0  0  0  0  0
  -24.6453  -31.9139   23.1975 C   0  0  0  0  0  0
  -25.9299  -32.5056   23.8436 C   0  0  1  0  0  0
  -27.2091  -27.4732   20.0285 C   0  0  0  0  0  0
  -25.6106  -33.8790   24.2406 N   0  0  0  0  0  0
  -23.4771  -30.5011   21.5691 C   0  0  2  0  0  0
  -24.8612  -29.0255   20.0668 C   0  0  0  0  0  0
  -23.1093  -29.3730   22.5382 C   0  0  0  0  0  0
  -18.4696  -27.6343   22.2387 C   0  0  0  0  0  0
  -24.1496  -36.7352   23.2618 C   0  0  0  0  0  0
  -25.9744  -30.8633   21.3546 C   0  0  0  0  0  0
  -26.0227  -29.5024   20.6916 C   0  0  0  0  0  0
  -27.1974  -28.7219   20.6881 C   0  0  0  0  0  0
  -26.0548  -27.0466   19.3362 C   0  0  0  0  0  0
  -24.8659  -27.7930   19.3932 C   0  0  0  0  0  0
  -23.6469  -29.9179   20.1462 C   0  0  0  0  0  0
  -25.4101  -36.3192   24.0343 C   0  0  1  0  0  0
  -21.4376  -27.9160   23.3918 C   0  0  2  0  0  0
  -21.7469  -25.5187   23.7230 C   0  0  0  0  0  0
  -20.0611  -24.2404   22.2101 C   0  0  0  0  0  0
  -18.4913  -25.7828   21.5679 C   0  0  0  0  0  0
  -19.6934  -28.5504   22.8314 C   0  0  0  0  0  0
  -19.2907  -29.7901   23.4997 C   0  0  0  0  0  0
  -17.9586  -30.2470   23.7183 C   0  0  0  0  0  0
  -25.9084  -34.9603   23.5115 C   0  0  0  0  0  0
  -16.8938  -29.4522   23.2738 C   0  0  0  0  0  0
  -17.1612  -28.2249   22.5784 C   0  0  0  0  0  0
  -26.4556  -31.6668   25.0729 C   0  0  0  0  0  0
  -25.3712  -31.3715   26.1328 C   0  0  0  0  0  0
  -27.0397  -30.3168   24.5989 C   0  0  0  0  0  0
  -27.6103  -32.4283   25.7574 C   0  0  0  0  0  0
  -27.5581  -37.1861   24.8471 C   0  0  0  0  0  0
  -21.9673  -28.7913   22.3802 N   0  0  0  0  0  0
  -26.4286  -37.3872   23.9441 N   0  0  0  0  0  0
  -24.7143  -31.1471   22.0727 N   0  0  0  0  0  0
  -23.8498  -28.9718   23.4252 O   0  0  0  0  0  0
  -28.3376  -26.6951   20.0463 O   0  0  0  0  0  0
  -26.5557  -34.9026   22.4631 O   0  0  0  0  0  0
  -23.5587  -32.1732   23.7334 O   0  0  0  0  0  0
  -24.8779  -23.4225   21.3874 C   0  0  0  0  0  0
  -24.4766  -22.0873   21.0890 C   0  0  0  0  0  0
  -22.5512  -24.5513   21.5399 C   0  0  0  0  0  0
  -27.0002  -21.3876   20.1086 C   0  0  0  0  0  0
  -24.9799  -20.2444   19.1717 C   0  0  0  0  0  0
  -19.7433  -26.6281   24.2280 C   0  0  0  0  0  0
  -19.2496  -25.6245   23.7625 C   0  0  0  0  0  0
  -20.6289  -27.0398   20.5743 C   0  0  0  0  0  0
  -28.4196  -18.9574   19.6364 C   0  0  0  0  0  0
  -25.3649  -24.6773   24.5371 C   0  0  0  0  0  0
  -26.4897  -26.7955   23.8948 C   0  0  0  0  0  0
  -28.3741  -25.2313   21.9814 C   0  0  0  0  0  0
  -27.3052  -24.6583   22.9658 C   0  0  0  0  0  0
  -24.8310  -25.7237   22.2625 C   0  0  0  0  0  0
  -28.1232  -25.3385   20.4553 C   0  0  0  0  0  0
  -25.8822  -20.3464   20.4261 C   0  0  0  0  0  0
  -20.7322  -26.2655   21.9974 C   0  0  0  0  0  0
  -27.2140  -18.1820   20.2534 C   0  0  2  0  0  0
  -25.9798  -25.4444   23.3523 C   0  0  0  0  0  0
  -26.4228  -17.5307   19.0393 C   0  0  0  0  0  0
  -23.9931  -24.5719   21.7330 N   0  0  0  0  0  0
  -22.9678  -22.9705   21.1744 N   0  3  0  0  0  0
  -25.1159  -17.4790   19.2682 F   0  0  0  0  0  0
  -26.8080  -16.2982   18.7483 F   0  0  0  0  0  0
  -26.6055  -18.1350   17.8658 F   0  0  0  0  0  0
  -30.7975  -14.5179   19.1326 H   0  0  0  0  0  0
  -30.5687  -13.3126   20.3403 H   0  0  0  0  0  0
  -30.2055  -12.2694   18.0976 H   0  0  0  0  0  0
  -29.1997  -13.6111   17.6031 H   0  0  0  0  0  0
  -28.4506  -11.3817   19.4891 H   0  0  0  0  0  0
  -27.5771  -11.9252   18.0684 H   0  0  0  0  0  0
  -27.1740  -14.0371   19.0958 H   0  0  0  0  0  0
  -28.8069  -13.0895   21.5174 H   0  0  0  0  0  0
  -27.5880  -14.3068   21.7163 H   0  0  0  0  0  0
  -25.2503   -9.5525   22.4875 H   0  0  0  0  0  0
  -23.9844   -7.4369   22.7504 H   0  0  0  0  0  0
  -21.0619   -8.8446   19.8933 H   0  0  0  0  0  0
  -22.3384  -10.9432   19.6217 H   0  0  0  0  0  0
  -21.1892   -7.6078   23.9696 H   0  0  0  0  0  0
  -21.1465   -6.0497   25.9108 H   0  0  0  0  0  0
  -22.0642   -2.7544   23.2925 H   0  0  0  0  0  0
  -22.3335  -11.9590   22.5084 H   0  0  0  0  0  0
  -21.0465  -13.1147   22.2956 H   0  0  0  0  0  0
  -24.4591  -15.6683   20.5046 H   0  0  0  0  0  0
  -25.9743  -15.4427   19.8216 H   0  0  0  0  0  0
  -26.7432  -32.5740   23.1261 H   0  0  0  0  0  0
  -25.0268  -33.9915   25.0582 H   0  0  0  0  0  0
  -22.6649  -31.2265   21.5527 H   0  0  0  0  0  0
  -23.3763  -35.9675   23.3293 H   0  0  0  0  0  0
  -24.3617  -36.8938   22.2041 H   0  0  0  0  0  0
  -23.7254  -37.6565   23.6602 H   0  0  0  0  0  0
  -26.1046  -31.6283   20.5943 H   0  0  0  0  0  0
  -26.8585  -30.9034   21.9731 H   0  0  0  0  0  0
  -28.0878  -29.0704   21.1870 H   0  0  0  0  0  0
  -26.0541  -26.1268   18.7623 H   0  0  0  0  0  0
  -23.9867  -27.4477   18.8627 H   0  0  0  0  0  0
  -23.7914  -30.7440   19.4446 H   0  0  0  0  0  0
  -22.7474  -29.3988   19.8143 H   0  0  0  0  0  0
  -25.1279  -36.2038   25.0829 H   0  0  0  0  0  0
  -21.6885  -28.4027   24.3397 H   0  0  0  0  0  0
  -21.6523  -25.1556   24.7468 H   0  0  0  0  0  0
  -22.7869  -25.2676   23.7398 H   0  0  0  0  0  0
  -19.6609  -23.3401   22.6902 H   0  0  0  0  0  0
  -20.3836  -23.7964   21.2662 H   0  0  0  0  0  0
  -18.4231  -25.8081   20.4780 H   0  0  0  0  0  0
  -17.5056  -25.3662   21.7669 H   0  0  0  0  0  0
  -20.0763  -30.3804   23.9465 H   0  0  0  0  0  0
  -17.7715  -31.1696   24.2498 H   0  0  0  0  0  0
  -15.8749  -29.7596   23.4588 H   0  0  0  0  0  0
  -16.2909  -27.6491   22.2918 H   0  0  0  0  0  0
  -24.5958  -30.7057   25.7536 H   0  0  0  0  0  0
  -24.8834  -32.2842   26.4740 H   0  0  0  0  0  0
  -25.7978  -30.8857   27.0110 H   0  0  0  0  0  0
  -26.2993  -29.7070   24.0860 H   0  0  0  0  0  0
  -27.4081  -29.7245   25.4372 H   0  0  0  0  0  0
  -27.8827  -30.4538   23.9226 H   0  0  0  0  0  0
  -27.2757  -33.3539   26.2225 H   0  0  0  0  0  0
  -28.3935  -32.6867   25.0461 H   0  0  0  0  0  0
  -28.0725  -31.8317   26.5432 H   0  0  0  0  0  0
  -28.2588  -38.0166   24.7490 H   0  0  0  0  0  0
  -28.1073  -36.2697   24.6283 H   0  0  0  0  0  0
  -27.2306  -37.1512   25.8872 H   0  0  0  0  0  0
  -21.3406  -29.1054   21.6531 H   0  0  0  0  0  0
  -26.0167  -38.2931   24.1427 H   0  0  0  0  0  0
  -25.9019  -23.6776   21.3486 H   0  0  0  0  0  0
  -27.4884  -21.2798   19.1488 H   0  0  0  0  0  0
  -27.7237  -21.4665   20.9176 H   0  0  0  0  0  0
  -26.6038  -22.3740   19.9159 H   0  0  0  0  0  0
  -24.1052  -19.6250   19.3698 H   0  0  0  0  0  0
  -25.4716  -19.9209   18.2671 H   0  0  0  0  0  0
  -24.5908  -21.2143   18.8707 H   0  0  0  0  0  0
  -20.3241  -26.4581   25.2216 H   0  0  0  0  0  0
  -18.8751  -27.3675   24.5634 H   0  0  0  0  0  0
  -19.9836  -27.4778   24.9037 H   0  0  0  0  0  0
  -19.5471  -24.6784   24.4071 H   0  0  0  0  0  0
  -18.5335  -24.7763   23.6575 H   0  0  0  0  0  0
  -18.0626  -25.7496   23.7742 H   0  0  0  0  0  0
  -21.6282  -27.3447   20.2724 H   0  0  0  0  0  0
  -20.0212  -27.9366   20.4417 H   0  0  0  0  0  0
  -20.3524  -26.3581   19.7678 H   0  0  0  0  0  0
  -28.8992  -19.6057   20.3692 H   0  0  0  0  0  0
  -29.2156  -18.3929   19.1587 H   0  0  0  0  0  0
  -28.1367  -19.5114   18.7540 H   0  0  0  0  0  0
  -24.9911  -23.6971   24.2261 H   0  0  0  0  0  0
  -24.5502  -25.2370   25.0036 H   0  0  0  0  0  0
  -26.0952  -24.5112   25.3358 H   0  0  0  0  0  0
  -27.2804  -26.6478   24.6319 H   0  0  0  0  0  0
  -25.7148  -27.3761   24.3867 H   0  0  0  0  0  0
  -26.9232  -27.4118   23.1094 H   0  0  0  0  0  0
  -28.7840  -26.1766   22.3447 H   0  0  0  0  0  0
  -29.2235  -24.5537   22.0694 H   0  0  0  0  0  0
  -27.8856  -24.6002   23.8890 H   0  0  0  0  0  0
  -27.1570  -23.5903   22.8106 H   0  0  0  0  0  0
  -25.3501  -26.1259   21.4223 H   0  0  0  0  0  0
  -24.1630  -26.5126   22.5922 H   0  0  0  0  0  0
  -27.1582  -24.9300   20.1746 H   0  0  0  0  0  0
  -28.8431  -24.7283   19.9082 H   0  0  0  0  0  0
  -22.1789  -22.3890   20.9214 H   0  0  0  0  0  0
  1 25  1  0  0  0
  1 30  2  0  0  0
  1 88  1  0  0  0
  2  3  1  0  0  0
  2 25  1  0  0  0
  2 96  1  0  0  0
  2 97  1  0  0  0
  3  4  1  0  0  0
  3 98  1  0  0  0
  3 99  1  0  0  0
  4  5  1  0  0  0
  4100  1  0  0  0
  4101  1  0  0  0
  5  6  1  0  0  0
  5 26  1  0  0  0
  5102  1  0  0  0
  6 25  1  0  0  0
  6103  1  0  0  0
  6104  1  0  0  0
  7  8  2  0  0  0
  7 26  1  0  0  0
  7 29  1  0  0  0
  8  9  1  0  0  0
  8 22  1  0  0  0
  9 10  1  0  0  0
  9 27  2  0  0  0
 10 11  2  0  0  0
 10 15  1  0  0  0
 11 12  1  0  0  0
 11105  1  0  0  0
 12 13  2  0  0  0
 12106  1  0  0  0
 13 14  1  0  0  0
 13 31  1  0  0  0
 14 15  2  0  0  0
 14107  1  0  0  0
 15108  1  0  0  0
 16 17  2  0  0  0
 16 21  1  0  0  0
 16 31  1  0  0  0
 17 18  1  0  0  0
 17109  1  0  0  0
 18 19  2  0  0  0
 18110  1  0  0  0
 19 20  1  0  0  0
 19 24  1  0  0  0
 20 21  2  0  0  0
 20111  1  0  0  0
 21 23  1  0  0  0
 22 28  1  0  0  0
 22 32  2  0  0  0
 26 27  1  0  0  0
 28112  1  0  0  0
 28113  1  0  0  0
 29114  1  0  0  0
 29115  1  0  0  0
 33 34  1  0  0  0
 33 66  1  0  0  0
 33 70  2  0  0  0
 34 36  1  0  0  0
 34 59  1  0  0  0
 34116  1  0  0  0
 35 44  2  0  0  0
 35 45  1  0  0  0
 35 68  1  0  0  0
 36 56  1  0  0  0
 36117  1  0  0  0
 37 39  1  0  0  0
 37 47  1  0  0  0
 37 66  1  0  0  0
 37118  1  0  0  0
 38 43  2  0  0  0
 38 46  1  0  0  0
 38 47  1  0  0  0
 39 64  1  0  0  0
 39 67  2  0  0  0
 40 52  1  0  0  0
 40 53  2  0  0  0
 40 58  1  0  0  0
 41119  1  0  0  0
 41120  1  0  0  0
 41121  1  0  0  0
 41 48  1  0  0  0
 42 43  1  0  0  0
 42 66  1  0  0  0
 42122  1  0  0  0
 42123  1  0  0  0
 43 44  1  0  0  0
 44124  1  0  0  0
 45 46  2  0  0  0
 45125  1  0  0  0
 46126  1  0  0  0
 47127  1  0  0  0
 47128  1  0  0  0
 48 56  1  0  0  0
 48 65  1  0  0  0
 48129  1  0  0  0
 49 50  1  0  0  0
 49 53  1  0  0  0
 49 64  1  0  0  0
 49130  1  0  0  0
 50 51  1  0  0  0
 50131  1  0  0  0
 50132  1  0  0  0
 51 52  1  0  0  0
 51133  1  0  0  0
 51134  1  0  0  0
 52135  1  0  0  0
 52136  1  0  0  0
 53 54  1  0  0  0
 54 55  2  0  0  0
 54137  1  0  0  0
 55 57  1  0  0  0
 55138  1  0  0  0
 56 69  2  0  0  0
 57 58  2  0  0  0
 57139  1  0  0  0
 58140  1  0  0  0
 59 60  1  0  0  0
 59 61  1  0  0  0
 59 62  1  0  0  0
 60141  1  0  0  0
 60142  1  0  0  0
 60143  1  0  0  0
 61144  1  0  0  0
 61145  1  0  0  0
 61146  1  0  0  0
 62147  1  0  0  0
 62148  1  0  0  0
 62149  1  0  0  0
 63 65  1  0  0  0
 63150  1  0  0  0
 63151  1  0  0  0
 63152  1  0  0  0
 64153  1  0  0  0
 65154  1  0  0  0
 68 85  1  0  0  0
 71 72  2  0  0  0
 71 91  1  0  0  0
 71155  1  0  0  0
 72 86  1  0  0  0
 72 92  1  0  0  0
 73 87  1  0  0  0
 73 91  1  0  0  0
 73 92  2  0  0  0
 74156  1  0  0  0
 74157  1  0  0  0
 74158  1  0  0  0
 74 86  1  0  0  0
 75 86  1  0  0  0
 75159  1  0  0  0
 75160  1  0  0  0
 75161  1  0  0  0
 76162  1  0  0  0
 76163  1  0  0  0
 76164  1  0  0  0
 76 87  1  0  0  0
 77 87  1  0  0  0
 77165  1  0  0  0
 77166  1  0  0  0
 77167  1  0  0  0
 78 87  1  0  0  0
 78168  1  0  0  0
 78169  1  0  0  0
 78170  1  0  0  0
 79171  1  0  0  0
 79172  1  0  0  0
 79173  1  0  0  0
 79 88  1  0  0  0
 80174  1  0  0  0
 80175  1  0  0  0
 80176  1  0  0  0
 80 89  1  0  0  0
 81 89  1  0  0  0
 81177  1  0  0  0
 81178  1  0  0  0
 81179  1  0  0  0
 82 83  1  0  0  0
 82 85  1  0  0  0
 82180  1  0  0  0
 82181  1  0  0  0
 83 89  1  0  0  0
 83182  1  0  0  0
 83183  1  0  0  0
 84 89  1  0  0  0
 84 91  1  0  0  0
 84184  1  0  0  0
 84185  1  0  0  0
 85186  1  0  0  0
 85187  1  0  0  0
 86 88  1  0  0  0
 88 90  1  0  0  0
 90 93  1  0  0  0
 90 94  1  0  0  0
 90 95  1  0  0  0
 92188  1  0  0  0
M  CHG  1  92   1
M  ISO  4   1 100  68 101  85 101  88 100
M  END
> <chiral flag>
0

> <version>
0

> <s_m_source_file>
/data/baiqing/PycharmProjects/Reinvent-master-3.2/result/LINK_invent/BTK/process_docking_weight1_custom_sum_contain_oxygen_bond_distance_aromatic_linkinvent_7_9_3/rearranged_h_0069.sdf

> <i_m_source_file_index>
71

> <r_mmod_Potential_Energy-OPLS-2005>
20395.27734375

> <r_mmod_Stretch_Energy-OPLS-2005>
10506.9091796875

> <r_mmod_Bend_Energy-OPLS-2005>
2988.35913085938

> <r_mmod_Torsional_Energy-OPLS-2005>
407.024475097656

> <r_mmod_Improper_Torsional_Energy-OPLS-2005>
26.7135028839111

> <r_mmod_Van_der_Waal_Energy-OPLS-2005>
2867.95947265625

> <r_mmod_Electrostatic_Energy-OPLS-2005>
-220.436630249023

> <r_mmod_Solvation_Energy-OPLS-2005>
-330.794616699219

> <b_mmod_Minimization_Converged-OPLS-2005>
0

> <r_mmod_RMS_Derivative-OPLS-2005>
16.6212291717529

$$$$
71
                    3D
 Structure written by MMmdl.
179187  0  0  1  0            999 V2000
  -30.6407  -14.6645   20.7052 C   0  0  0  0  0  0
  -30.4182  -12.4723   19.5156 C   0  0  0  0  0  0
  -29.5029  -12.5717   18.2744 C   0  0  0  0  0  0
  -28.0231  -12.4166   18.6463 C   0  0  0  0  0  0
  -27.6511  -13.2442   19.9081 C   0  0  2  0  0  0
  -28.6711  -13.0918   21.0619 C   0  0  0  0  0  0
  -25.2509  -13.8289   20.5661 C   0  0  0  0  0  0
  -24.1728  -13.0437   20.9213 C   0  0  0  0  0  0
  -24.6360  -11.7022   20.8788 C   0  0  0  0  0  0
  -23.9013  -10.4340   21.0417 C   0  0  0  0  0  0
  -24.3572   -9.4237   21.9171 C   0  0  0  0  0  0
  -23.6245   -8.2262   22.0753 C   0  0  0  0  0  0
  -22.4276   -8.0266   21.3520 C   0  0  0  0  0  0
  -21.9877   -9.0252   20.4661 C   0  0  0  0  0  0
  -22.7204  -10.2150   20.3059 C   0  0  0  0  0  0
  -21.6824   -6.0711   22.5282 C   0  0  0  0  0  0
  -21.4015   -6.5626   23.8212 C   0  0  0  0  0  0
  -21.3676   -5.6774   24.9187 C   0  0  0  0  0  0
  -21.6027   -4.3047   24.7242 C   0  0  0  0  0  0
  -21.8823   -3.8121   23.4382 C   0  0  0  0  0  0
  -21.9202   -4.6945   22.3419 C   0  0  0  0  0  0
  -22.7840  -13.5343   21.1835 C   0  0  0  0  0  0
  -22.1648   -4.2116   21.0989 F   0  0  0  0  0  0
  -21.5648   -3.4548   25.7754 F   0  0  0  0  0  0
  -29.9858  -13.4600   20.5426 N   0  0  0  0  0  0
  -26.2933  -12.9456   20.3614 N   0  0  0  0  0  0
  -25.9269  -11.6573   20.5837 N   0  0  0  0  0  0
  -22.0384  -12.8255   22.0402 N   0  0  0  0  0  0
  -25.4149  -15.1858   20.3873 N   0  0  0  0  0  0
  -31.5906  -14.8512   19.9296 O   0  0  0  0  0  0
  -21.6661   -6.8892   21.4243 O   0  0  0  0  0  0
  -22.3487  -14.5574   20.6700 O   0  0  0  0  0  0
  -24.6530  -31.8618   23.2024 C   0  0  0  0  0  0
  -25.9500  -32.4792   23.8378 C   0  0  1  0  0  0
  -27.0958  -27.2012   20.1150 C   0  0  0  0  0  0
  -25.6330  -33.8581   24.2368 N   0  0  0  0  0  0
  -23.4366  -30.5130   21.5680 C   0  0  2  0  0  0
  -24.8386  -28.9818   20.0925 C   0  0  0  0  0  0
  -22.7553  -29.4932   22.5148 C   0  0  0  0  0  0
  -18.0606  -28.1283   22.8154 C   0  0  0  0  0  0
  -24.1498  -36.7270   23.2644 C   0  0  0  0  0  0
  -25.9874  -30.7451   21.4058 C   0  0  0  0  0  0
  -26.0243  -29.3942   20.7022 C   0  0  0  0  0  0
  -27.1610  -28.5112   20.7020 C   0  0  0  0  0  0
  -25.9226  -26.9333   19.3988 C   0  0  0  0  0  0
  -24.8088  -27.7581   19.4252 C   0  0  0  0  0  0
  -23.6070  -29.8445   20.1842 C   0  0  0  0  0  0
  -25.4125  -36.3139   24.0324 C   0  0  1  0  0  0
  -20.5873  -28.4175   23.1030 C   0  0  2  0  0  0
  -20.7407  -27.0142   22.4343 C   0  0  0  0  0  0
  -19.6039  -26.5841   21.4855 C   0  0  0  0  0  0
  -18.2394  -26.7686   22.1601 C   0  0  0  0  0  0
  -19.1521  -28.8940   23.2919 C   0  0  0  0  0  0
  -18.8990  -30.1265   23.9301 C   0  0  0  0  0  0
  -17.5728  -30.6205   24.0583 C   0  0  0  0  0  0
  -25.9152  -34.9489   23.5144 C   0  0  0  0  0  0
  -16.4976  -29.8617   23.5760 C   0  0  0  0  0  0
  -16.7357  -28.6163   22.9670 C   0  0  0  0  0  0
  -26.4648  -31.6634   25.0891 C   0  0  0  0  0  0
  -25.3743  -31.3896   26.1556 C   0  0  0  0  0  0
  -27.0532  -30.2961   24.6566 C   0  0  0  0  0  0
  -27.6140  -32.4370   25.7717 C   0  0  0  0  0  0
  -27.5560  -37.1836   24.8494 C   0  0  0  0  0  0
  -21.4167  -29.4134   22.4246 N   0  0  0  0  0  0
  -26.4294  -37.3796   23.9445 N   0  0  0  0  0  0
  -24.7126  -31.0553   22.1046 N   0  0  0  0  0  0
  -23.4363  -28.8110   23.2948 O   0  0  0  0  0  0
  -28.1169  -26.2093   20.1465 O   0  0  0  0  0  0
  -26.5520  -34.8916   22.4596 O   0  0  0  0  0  0
  -23.5657  -32.1507   23.7284 O   0  0  0  0  0  0
  -26.0025  -20.9912   22.7054 C   0  0  0  0  0  0
  -26.0139  -19.8786   23.5687 C   0  0  0  0  0  0
  -26.7126  -20.9426   21.4888 C   0  0  0  0  0  0
  -27.2076  -18.6588   21.9911 C   0  0  0  0  0  0
  -25.5450  -21.2449   25.7094 C   0  0  0  0  0  0
  -31.9174  -16.2182   22.1807 C   0  0  0  0  0  0
  -29.9636  -15.3366   23.2309 C   0  0  0  0  0  0
  -29.9800  -18.4210   22.4447 C   0  0  0  0  0  0
  -29.8679  -17.6868   20.0160 C   0  0  0  0  0  0
  -29.4608  -24.4476   19.4287 C   0  0  0  0  0  0
  -27.2590  -24.3302   18.4815 C   0  0  0  0  0  0
  -25.3120  -19.9287   24.9426 C   0  0  0  0  0  0
  -26.8543  -22.1804   20.5090 C   0  0  0  0  0  0
  -27.9409  -17.3086   21.5788 C   0  0  0  0  0  0
  -27.4764  -23.6216   20.9298 C   0  0  0  0  0  0
  -30.3947  -15.8546   21.8377 C   0  0  0  0  0  0
  -29.5608  -17.2617   21.4762 C   0  0  0  0  0  0
  -27.9645  -24.7077   19.8095 C   0  0  0  0  0  0
  -26.6472  -18.7418   23.2078 N   0  0  0  0  0  0
  -27.2669  -19.7279   21.1462 N   0  0  0  0  0  0
  -31.4535  -12.5960   19.1921 H   0  0  0  0  0  0
  -30.3913  -11.4687   19.9332 H   0  0  0  0  0  0
  -29.7785  -11.8137   17.5293 H   0  0  0  0  0  0
  -29.6689  -13.5403   17.7893 H   0  0  0  0  0  0
  -27.8259  -11.3663   18.8251 H   0  0  0  0  0  0
  -27.3953  -12.7281   17.8200 H   0  0  0  0  0  0
  -27.6841  -14.2994   19.6105 H   0  0  0  0  0  0
  -28.7080  -12.0712   21.4287 H   0  0  0  0  0  0
  -28.3731  -13.7237   21.8936 H   0  0  0  0  0  0
  -25.2715   -9.5760   22.4783 H   0  0  0  0  0  0
  -23.9979   -7.4688   22.7477 H   0  0  0  0  0  0
  -21.0813   -8.8768   19.8969 H   0  0  0  0  0  0
  -22.3609  -10.9692   19.6194 H   0  0  0  0  0  0
  -21.1967   -7.6131   23.9708 H   0  0  0  0  0  0
  -21.1489   -6.0519   25.9086 H   0  0  0  0  0  0
  -22.0576   -2.7590   23.2890 H   0  0  0  0  0  0
  -22.3943  -11.9926   22.4843 H   0  0  0  0  0  0
  -21.1018  -13.1385   22.2602 H   0  0  0  0  0  0
  -24.6310  -15.8297   20.3978 H   0  0  0  0  0  0
  -26.2062  -15.5538   19.8685 H   0  0  0  0  0  0
  -26.7754  -32.5355   23.1261 H   0  0  0  0  0  0
  -25.0687  -33.9721   25.0638 H   0  0  0  0  0  0
  -22.7637  -31.3546   21.4210 H   0  0  0  0  0  0
  -23.3791  -35.9588   23.3304 H   0  0  0  0  0  0
  -24.3675  -36.8823   22.2103 H   0  0  0  0  0  0
  -23.7229  -37.6441   23.6609 H   0  0  0  0  0  0
  -26.2074  -31.5236   20.6920 H   0  0  0  0  0  0
  -26.8516  -30.7393   22.0516 H   0  0  0  0  0  0
  -28.0797  -28.8303   21.1698 H   0  0  0  0  0  0
  -25.7605  -26.0633   18.8253 H   0  0  0  0  0  0
  -23.9165  -27.4219   18.9155 H   0  0  0  0  0  0
  -23.6960  -30.6054   19.3926 H   0  0  0  0  0  0
  -22.7289  -29.2400   19.9501 H   0  0  0  0  0  0
  -25.1287  -36.1922   25.0767 H   0  0  0  0  0  0
  -20.9733  -28.3437   24.1117 H   0  0  0  0  0  0
  -20.8611  -26.2923   23.2403 H   0  0  0  0  0  0
  -21.6607  -26.9788   21.8558 H   0  0  0  0  0  0
  -19.8307  -25.5770   21.1138 H   0  0  0  0  0  0
  -19.6032  -27.1932   20.5920 H   0  0  0  0  0  0
  -17.4331  -26.6046   21.4517 H   0  0  0  0  0  0
  -18.1531  -26.0397   22.9517 H   0  0  0  0  0  0
  -19.7186  -30.7219   24.3162 H   0  0  0  0  0  0
  -17.3652  -31.5842   24.5199 H   0  0  0  0  0  0
  -15.4806  -30.2162   23.6390 H   0  0  0  0  0  0
  -15.8933  -28.0326   22.5857 H   0  0  0  0  0  0
  -24.5938  -30.7223   25.7934 H   0  0  0  0  0  0
  -24.8947  -32.3117   26.4774 H   0  0  0  0  0  0
  -25.7959  -30.9243   27.0453 H   0  0  0  0  0  0
  -26.3230  -29.6672   24.1416 H   0  0  0  0  0  0
  -27.3993  -29.7295   25.5256 H   0  0  0  0  0  0
  -27.9229  -30.4245   24.0079 H   0  0  0  0  0  0
  -27.2761  -33.3670   26.2170 H   0  0  0  0  0  0
  -28.3987  -32.6813   25.0625 H   0  0  0  0  0  0
  -28.0715  -31.8571   26.5689 H   0  0  0  0  0  0
  -28.2556  -38.0105   24.7472 H   0  0  0  0  0  0
  -28.1036  -36.2669   24.6374 H   0  0  0  0  0  0
  -27.2331  -37.1557   25.8884 H   0  0  0  0  0  0
  -20.9367  -30.0978   21.8441 H   0  0  0  0  0  0
  -26.0147  -38.2813   24.1427 H   0  0  0  0  0  0
  -25.4357  -21.8835   22.9710 H   0  0  0  0  0  0
  -26.2674  -21.1107   26.4963 H   0  0  0  0  0  0
  -24.6319  -21.6538   26.1424 H   0  0  0  0  0  0
  -25.9433  -22.0156   25.0594 H   0  0  0  0  0  0
  -32.1238  -17.1009   22.7708 H   0  0  0  0  0  0
  -32.5984  -16.3274   21.3320 H   0  0  0  0  0  0
  -32.3671  -15.4527   22.8185 H   0  0  0  0  0  0
  -30.3207  -16.0216   23.9939 H   0  0  0  0  0  0
  -30.4180  -14.3817   23.4614 H   0  0  0  0  0  0
  -28.9051  -15.2572   23.3790 H   0  0  0  0  0  0
  -29.5653  -19.4017   22.1939 H   0  0  0  0  0  0
  -31.0244  -18.7102   22.4967 H   0  0  0  0  0  0
  -29.6307  -18.2190   23.4650 H   0  0  0  0  0  0
  -29.3402  -18.6023   19.7515 H   0  0  0  0  0  0
  -29.5249  -16.9272   19.3194 H   0  0  0  0  0  0
  -30.9241  -17.8591   19.8406 H   0  0  0  0  0  0
  -29.6962  -23.3839   19.2043 H   0  0  0  0  0  0
  -30.1608  -24.7928   20.1819 H   0  0  0  0  0  0
  -29.6633  -25.0132   18.5175 H   0  0  0  0  0  0
  -27.3103  -25.0946   17.6963 H   0  0  0  0  0  0
  -26.2245  -24.0438   18.6282 H   0  0  0  0  0  0
  -27.6891  -23.4227   18.0811 H   0  0  0  0  0  0
  -25.6279  -19.0938   25.5626 H   0  0  0  0  0  0
  -24.2436  -19.7956   24.7941 H   0  0  0  0  0  0
  -25.8434  -22.3757   20.1557 H   0  0  0  0  0  0
  -27.4002  -21.8225   19.6371 H   0  0  0  0  0  0
  -27.5119  -17.0250   20.6176 H   0  0  0  0  0  0
  -27.5760  -16.5340   22.2487 H   0  0  0  0  0  0
  -28.3307  -23.4580   21.5726 H   0  0  0  0  0  0
  -26.7520  -24.1224   21.5634 H   0  0  0  0  0  0
  1 25  1  0  0  0
  1 30  2  0  0  0
  1 86  1  0  0  0
  2  3  1  0  0  0
  2 25  1  0  0  0
  2 91  1  0  0  0
  2 92  1  0  0  0
  3  4  1  0  0  0
  3 93  1  0  0  0
  3 94  1  0  0  0
  4  5  1  0  0  0
  4 95  1  0  0  0
  4 96  1  0  0  0
  5  6  1  0  0  0
  5 26  1  0  0  0
  5 97  1  0  0  0
  6 25  1  0  0  0
  6 98  1  0  0  0
  6 99  1  0  0  0
  7  8  2  0  0  0
  7 26  1  0  0  0
  7 29  1  0  0  0
  8  9  1  0  0  0
  8 22  1  0  0  0
  9 10  1  0  0  0
  9 27  2  0  0  0
 10 11  2  0  0  0
 10 15  1  0  0  0
 11 12  1  0  0  0
 11100  1  0  0  0
 12 13  2  0  0  0
 12101  1  0  0  0
 13 14  1  0  0  0
 13 31  1  0  0  0
 14 15  2  0  0  0
 14102  1  0  0  0
 15103  1  0  0  0
 16 17  2  0  0  0
 16 21  1  0  0  0
 16 31  1  0  0  0
 17 18  1  0  0  0
 17104  1  0  0  0
 18 19  2  0  0  0
 18105  1  0  0  0
 19 20  1  0  0  0
 19 24  1  0  0  0
 20 21  2  0  0  0
 20106  1  0  0  0
 21 23  1  0  0  0
 22 28  1  0  0  0
 22 32  2  0  0  0
 26 27  1  0  0  0
 28107  1  0  0  0
 28108  1  0  0  0
 29109  1  0  0  0
 29110  1  0  0  0
 33 34  1  0  0  0
 33 66  1  0  0  0
 33 70  2  0  0  0
 34 36  1  0  0  0
 34 59  1  0  0  0
 34111  1  0  0  0
 35 44  2  0  0  0
 35 45  1  0  0  0
 35 68  1  0  0  0
 36 56  1  0  0  0
 36112  1  0  0  0
 37 39  1  0  0  0
 37 47  1  0  0  0
 37 66  1  0  0  0
 37113  1  0  0  0
 38 43  2  0  0  0
 38 46  1  0  0  0
 38 47  1  0  0  0
 39 64  1  0  0  0
 39 67  2  0  0  0
 40 52  1  0  0  0
 40 53  2  0  0  0
 40 58  1  0  0  0
 41114  1  0  0  0
 41115  1  0  0  0
 41116  1  0  0  0
 41 48  1  0  0  0
 42 43  1  0  0  0
 42 66  1  0  0  0
 42117  1  0  0  0
 42118  1  0  0  0
 43 44  1  0  0  0
 44119  1  0  0  0
 45 46  2  0  0  0
 45120  1  0  0  0
 46121  1  0  0  0
 47122  1  0  0  0
 47123  1  0  0  0
 48 56  1  0  0  0
 48 65  1  0  0  0
 48124  1  0  0  0
 49 50  1  0  0  0
 49 53  1  0  0  0
 49 64  1  0  0  0
 49125  1  0  0  0
 50 51  1  0  0  0
 50126  1  0  0  0
 50127  1  0  0  0
 51 52  1  0  0  0
 51128  1  0  0  0
 51129  1  0  0  0
 52130  1  0  0  0
 52131  1  0  0  0
 53 54  1  0  0  0
 54 55  2  0  0  0
 54132  1  0  0  0
 55 57  1  0  0  0
 55133  1  0  0  0
 56 69  2  0  0  0
 57 58  2  0  0  0
 57134  1  0  0  0
 58135  1  0  0  0
 59 60  1  0  0  0
 59 61  1  0  0  0
 59 62  1  0  0  0
 60136  1  0  0  0
 60137  1  0  0  0
 60138  1  0  0  0
 61139  1  0  0  0
 61140  1  0  0  0
 61141  1  0  0  0
 62142  1  0  0  0
 62143  1  0  0  0
 62144  1  0  0  0
 63 65  1  0  0  0
 63145  1  0  0  0
 63146  1  0  0  0
 63147  1  0  0  0
 64148  1  0  0  0
 65149  1  0  0  0
 68 88  1  0  0  0
 71 72  2  0  0  0
 71 73  1  0  0  0
 71150  1  0  0  0
 72 82  1  0  0  0
 72 89  1  0  0  0
 73 83  1  0  0  0
 73 90  2  0  0  0
 74 84  1  0  0  0
 74 89  2  0  0  0
 74 90  1  0  0  0
 75 82  1  0  0  0
 75151  1  0  0  0
 75152  1  0  0  0
 75153  1  0  0  0
 76154  1  0  0  0
 76155  1  0  0  0
 76156  1  0  0  0
 76 86  1  0  0  0
 77 86  1  0  0  0
 77157  1  0  0  0
 77158  1  0  0  0
 77159  1  0  0  0
 78160  1  0  0  0
 78161  1  0  0  0
 78162  1  0  0  0
 78 87  1  0  0  0
 79 87  1  0  0  0
 79163  1  0  0  0
 79164  1  0  0  0
 79165  1  0  0  0
 80166  1  0  0  0
 80167  1  0  0  0
 80168  1  0  0  0
 80 88  1  0  0  0
 81 88  1  0  0  0
 81169  1  0  0  0
 81170  1  0  0  0
 81171  1  0  0  0
 82172  1  0  0  0
 82173  1  0  0  0
 83 85  1  0  0  0
 83174  1  0  0  0
 83175  1  0  0  0
 84 87  1  0  0  0
 84176  1  0  0  0
 84177  1  0  0  0
 85 88  1  0  0  0
 85178  1  0  0  0
 85179  1  0  0  0
 86 87  1  0  0  0
M  ISO  4   1 100  68 101  86 100  88 101
M  END
> <chiral flag>
0

> <version>
0

> <s_m_source_file>
/data/baiqing/PycharmProjects/Reinvent-master-3.2/result/LINK_invent/BTK/process_docking_weight1_custom_sum_contain_oxygen_bond_distance_aromatic_linkinvent_7_9_3/rearranged_h_0069.sdf

> <i_m_source_file_index>
72

> <r_mmod_Potential_Energy-OPLS-2005>
135.039993286133

> <r_mmod_Stretch_Energy-OPLS-2005>
197.329132080078

> <r_mmod_Bend_Energy-OPLS-2005>
314.055114746094

> <r_mmod_Torsional_Energy-OPLS-2005>
218.679641723633

> <r_mmod_Improper_Torsional_Energy-OPLS-2005>
4.18658685684204

> <r_mmod_Van_der_Waal_Energy-OPLS-2005>
203.77978515625

> <r_mmod_Electrostatic_Energy-OPLS-2005>
-727.752807617188

> <r_mmod_Solvation_Energy-OPLS-2005>
-194.035568237305

> <b_mmod_Minimization_Converged-OPLS-2005>
0

> <r_mmod_RMS_Derivative-OPLS-2005>
31.3033809661865

$$$$
72
                    3D
 Structure written by MMmdl.
160168  0  0  1  0            999 V2000
  -30.5765  -14.8974   20.4395 C   0  0  0  0  0  0
  -30.4407  -12.5586   19.4866 C   0  0  0  0  0  0
  -29.5183  -12.5211   18.2470 C   0  0  0  0  0  0
  -28.0492  -12.3189   18.6653 C   0  0  0  0  0  0
  -27.6330  -13.2456   19.8382 C   0  0  2  0  0  0
  -28.6796  -13.2564   20.9730 C   0  0  0  0  0  0
  -25.2479  -13.8217   20.5717 C   0  0  0  0  0  0
  -24.1790  -13.0443   20.9229 C   0  0  0  0  0  0
  -24.6398  -11.6925   20.8752 C   0  0  0  0  0  0
  -23.9080  -10.4297   21.0406 C   0  0  0  0  0  0
  -24.3628   -9.4208   21.9180 C   0  0  0  0  0  0
  -23.6301   -8.2246   22.0751 C   0  0  0  0  0  0
  -22.4282   -8.0286   21.3545 C   0  0  0  0  0  0
  -21.9919   -9.0259   20.4644 C   0  0  0  0  0  0
  -22.7253  -10.2137   20.3051 C   0  0  0  0  0  0
  -21.6856   -6.0738   22.5279 C   0  0  0  0  0  0
  -21.4020   -6.5639   23.8214 C   0  0  0  0  0  0
  -21.3658   -5.6791   24.9174 C   0  0  0  0  0  0
  -21.6040   -4.3053   24.7226 C   0  0  0  0  0  0
  -21.8818   -3.8144   23.4346 C   0  0  0  0  0  0
  -21.9195   -4.6964   22.3401 C   0  0  0  0  0  0
  -22.7808  -13.5217   21.1878 C   0  0  0  0  0  0
  -22.1663   -4.2149   21.0982 F   0  0  0  0  0  0
  -21.5622   -3.4534   25.7738 F   0  0  0  0  0  0
  -29.9603  -13.6532   20.3730 N   0  0  0  0  0  0
  -26.2905  -12.9444   20.3248 N   0  0  0  0  0  0
  -25.9332  -11.6574   20.5739 N   0  0  0  0  0  0
  -22.0454  -12.8207   22.0431 N   0  0  0  0  0  0
  -25.4134  -15.1947   20.4136 N   0  0  0  0  0  0
  -31.7826  -14.9593   20.1866 O   0  0  0  0  0  0
  -21.6644   -6.8884   21.4242 O   0  0  0  0  0  0
  -22.3490  -14.5518   20.6717 O   0  0  0  0  0  0
  -24.6463  -31.8478   23.1947 C   0  0  0  0  0  0
  -25.9239  -32.4717   23.8319 C   0  0  1  0  0  0
  -27.1965  -27.1265   20.1326 C   0  0  0  0  0  0
  -25.5984  -33.8522   24.2224 N   0  0  0  0  0  0
  -23.4475  -30.4764   21.5425 C   0  0  2  0  0  0
  -24.8915  -28.9215   20.1105 C   0  0  0  0  0  0
  -22.7584  -29.4579   22.4866 C   0  0  0  0  0  0
  -18.0309  -28.1403   22.8471 C   0  0  0  0  0  0
  -24.1491  -36.7261   23.2637 C   0  0  0  0  0  0
  -26.0104  -30.7180   21.3997 C   0  0  0  0  0  0
  -26.0762  -29.3337   20.7329 C   0  0  0  0  0  0
  -27.2297  -28.4546   20.7304 C   0  0  0  0  0  0
  -25.9831  -26.8523   19.4562 C   0  0  0  0  0  0
  -24.8595  -27.6914   19.4559 C   0  0  0  0  0  0
  -23.6730  -29.8249   20.1572 C   0  0  0  0  0  0
  -25.4122  -36.3046   24.0316 C   0  0  1  0  0  0
  -20.5925  -28.3731   23.1221 C   0  0  2  0  0  0
  -20.6795  -26.9435   22.5389 C   0  0  0  0  0  0
  -19.5764  -26.6388   21.5203 C   0  0  0  0  0  0
  -18.1949  -26.7937   22.1621 C   0  0  0  0  0  0
  -19.1568  -28.8883   23.2837 C   0  0  0  0  0  0
  -18.9485  -30.1477   23.8867 C   0  0  0  0  0  0
  -17.6480  -30.6592   24.0560 C   0  0  0  0  0  0
  -25.9078  -34.9420   23.5072 C   0  0  0  0  0  0
  -16.5371  -29.9083   23.6337 C   0  0  0  0  0  0
  -16.7295  -28.6508   23.0351 C   0  0  0  0  0  0
  -26.4540  -31.6578   25.0762 C   0  0  0  0  0  0
  -25.3712  -31.3776   26.1447 C   0  0  0  0  0  0
  -27.0401  -30.2963   24.6371 C   0  0  0  0  0  0
  -27.6074  -32.4340   25.7544 C   0  0  0  0  0  0
  -27.5575  -37.1794   24.8464 C   0  0  0  0  0  0
  -21.4276  -29.3065   22.3605 N   0  0  0  0  0  0
  -26.4285  -37.3757   23.9409 N   0  0  0  0  0  0
  -24.7217  -31.0337   22.0996 N   0  0  0  0  0  0
  -23.4231  -28.8099   23.2993 O   0  0  0  0  0  0
  -28.2244  -26.0939   20.2080 O   0  0  0  0  0  0
  -26.5652  -34.8907   22.4645 O   0  0  0  0  0  0
  -23.5581  -32.1361   23.7160 O   0  0  0  0  0  0
  -28.2104  -20.4346   22.7643 C   0  0  0  0  0  0
  -28.5682  -21.6155   20.4498 C   0  0  0  0  0  0
  -27.2635  -21.2988   20.8847 C   0  0  0  0  0  0
  -29.4159  -20.4573   20.8540 C   0  0  0  0  0  0
  -26.0119  -21.5132   20.0574 C   0  0  0  0  0  0
  -26.8561  -24.4932   21.3585 C   0  0  0  0  0  0
  -27.3930  -24.1754   18.8081 C   0  0  0  0  0  0
  -28.9642  -23.2372   20.5275 C   0  0  0  0  0  0
  -29.2567  -18.9093   20.2956 C   0  0  0  0  0  0
  -30.2081  -17.5996   20.7500 C   0  0  0  0  0  0
  -27.9137  -24.5410   20.2218 C   0  0  0  0  0  0
  -27.0934  -20.7549   22.1092 N   0  0  0  0  0  0
  -29.4116  -20.3144   22.1952 N   0  0  0  0  0  0
  -29.8130  -16.0793   20.5894 N   0  0  0  0  0  0
  -31.4748  -12.7101   19.1730 H   0  0  0  0  0  0
  -30.4262  -11.6029   20.0131 H   0  0  0  0  0  0
  -29.8277  -11.7253   17.5683 H   0  0  0  0  0  0
  -29.6160  -13.4545   17.6902 H   0  0  0  0  0  0
  -27.9337  -11.2763   18.9629 H   0  0  0  0  0  0
  -27.3877  -12.4658   17.8106 H   0  0  0  0  0  0
  -27.6018  -14.2519   19.4195 H   0  0  0  0  0  0
  -28.7566  -12.2766   21.4465 H   0  0  0  0  0  0
  -28.3893  -13.9574   21.7569 H   0  0  0  0  0  0
  -25.2769   -9.5686   22.4762 H   0  0  0  0  0  0
  -24.0004   -7.4637   22.7472 H   0  0  0  0  0  0
  -21.0846   -8.8782   19.8955 H   0  0  0  0  0  0
  -22.3705  -10.9678   19.6164 H   0  0  0  0  0  0
  -21.2017   -7.6149   23.9720 H   0  0  0  0  0  0
  -21.1480   -6.0521   25.9080 H   0  0  0  0  0  0
  -22.0599   -2.7608   23.2846 H   0  0  0  0  0  0
  -22.4075  -11.9877   22.4834 H   0  0  0  0  0  0
  -21.1066  -13.1223   22.2625 H   0  0  0  0  0  0
  -24.6411  -15.8429   20.5240 H   0  0  0  0  0  0
  -26.2492  -15.6346   20.0524 H   0  0  0  0  0  0
  -26.7310  -32.5317   23.1049 H   0  0  0  0  0  0
  -25.0123  -33.9640   25.0367 H   0  0  0  0  0  0
  -22.7495  -31.3038   21.3974 H   0  0  0  0  0  0
  -23.3761  -35.9585   23.3288 H   0  0  0  0  0  0
  -24.3581  -36.8903   22.2054 H   0  0  0  0  0  0
  -23.7231  -37.6451   23.6675 H   0  0  0  0  0  0
  -26.1750  -31.4753   20.6324 H   0  0  0  0  0  0
  -26.8781  -30.7590   22.0460 H   0  0  0  0  0  0
  -28.1266  -28.7653   21.2476 H   0  0  0  0  0  0
  -25.8104  -25.9431   18.9242 H   0  0  0  0  0  0
  -23.9612  -27.3714   18.9456 H   0  0  0  0  0  0
  -23.8168  -30.6088   19.4127 H   0  0  0  0  0  0
  -22.7850  -29.2768   19.8368 H   0  0  0  0  0  0
  -25.1304  -36.1883   25.0807 H   0  0  0  0  0  0
  -21.0017  -28.3319   24.1341 H   0  0  0  0  0  0
  -20.5689  -26.2349   23.3611 H   0  0  0  0  0  0
  -21.6658  -26.7440   22.1184 H   0  0  0  0  0  0
  -19.6924  -25.6290   21.1249 H   0  0  0  0  0  0
  -19.6693  -27.3184   20.6720 H   0  0  0  0  0  0
  -17.4211  -26.6673   21.4030 H   0  0  0  0  0  0
  -18.0358  -26.0089   22.9030 H   0  0  0  0  0  0
  -19.7960  -30.7301   24.2222 H   0  0  0  0  0  0
  -17.5033  -31.6266   24.5172 H   0  0  0  0  0  0
  -15.5368  -30.2977   23.7677 H   0  0  0  0  0  0
  -15.8696  -28.0818   22.7073 H   0  0  0  0  0  0
  -24.5909  -30.7102   25.7767 H   0  0  0  0  0  0
  -24.8878  -32.2958   26.4793 H   0  0  0  0  0  0
  -25.7984  -30.9007   27.0277 H   0  0  0  0  0  0
  -26.3028  -29.6691   24.1346 H   0  0  0  0  0  0
  -27.3947  -29.7265   25.4970 H   0  0  0  0  0  0
  -27.8970  -30.4174   23.9744 H   0  0  0  0  0  0
  -27.2675  -33.3661   26.2068 H   0  0  0  0  0  0
  -28.3914  -32.6865   25.0392 H   0  0  0  0  0  0
  -28.0713  -31.8503   26.5506 H   0  0  0  0  0  0
  -28.2588  -38.0095   24.7515 H   0  0  0  0  0  0
  -28.1076  -36.2625   24.6285 H   0  0  0  0  0  0
  -27.2298  -37.1436   25.8869 H   0  0  0  0  0  0
  -20.9488  -29.8808   21.6811 H   0  0  0  0  0  0
  -26.0156  -38.2828   24.1412 H   0  0  0  0  0  0
  -28.1231  -20.1617   23.8047 H   0  0  0  0  0  0
  -26.2572  -21.6278   19.0029 H   0  0  0  0  0  0
  -25.4378  -22.3756   20.3890 H   0  0  0  0  0  0
  -25.3626  -20.6413   20.1346 H   0  0  0  0  0  0
  -25.8517  -24.7452   21.0228 H   0  0  0  0  0  0
  -27.1180  -25.1953   22.1513 H   0  0  0  0  0  0
  -26.7887  -23.5409   21.8702 H   0  0  0  0  0  0
  -27.8812  -23.2970   18.3864 H   0  0  0  0  0  0
  -27.5953  -24.9707   18.0910 H   0  0  0  0  0  0
  -26.3272  -23.9552   18.7932 H   0  0  0  0  0  0
  -29.8207  -23.3577   19.8624 H   0  0  0  0  0  0
  -29.3814  -23.3893   21.5240 H   0  0  0  0  0  0
  -29.3154  -18.9822   19.2096 H   0  0  0  0  0  0
  -28.2228  -18.6214   20.4850 H   0  0  0  0  0  0
  -30.3796  -17.7110   21.8208 H   0  0  0  0  0  0
  -31.1938  -17.7359   20.3035 H   0  0  0  0  0  0
  -28.8263  -15.8972   20.6963 H   0  0  0  0  0  0
  1 25  1  0  0  0
  1 30  2  0  0  0
  1 84  1  0  0  0
  2  3  1  0  0  0
  2 25  1  0  0  0
  2 85  1  0  0  0
  2 86  1  0  0  0
  3  4  1  0  0  0
  3 87  1  0  0  0
  3 88  1  0  0  0
  4  5  1  0  0  0
  4 89  1  0  0  0
  4 90  1  0  0  0
  5  6  1  0  0  0
  5 26  1  0  0  0
  5 91  1  0  0  0
  6 25  1  0  0  0
  6 92  1  0  0  0
  6 93  1  0  0  0
  7  8  2  0  0  0
  7 26  1  0  0  0
  7 29  1  0  0  0
  8  9  1  0  0  0
  8 22  1  0  0  0
  9 10  1  0  0  0
  9 27  2  0  0  0
 10 11  2  0  0  0
 10 15  1  0  0  0
 11 12  1  0  0  0
 11 94  1  0  0  0
 12 13  2  0  0  0
 12 95  1  0  0  0
 13 14  1  0  0  0
 13 31  1  0  0  0
 14 15  2  0  0  0
 14 96  1  0  0  0
 15 97  1  0  0  0
 16 17  2  0  0  0
 16 21  1  0  0  0
 16 31  1  0  0  0
 17 18  1  0  0  0
 17 98  1  0  0  0
 18 19  2  0  0  0
 18 99  1  0  0  0
 19 20  1  0  0  0
 19 24  1  0  0  0
 20 21  2  0  0  0
 20100  1  0  0  0
 21 23  1  0  0  0
 22 28  1  0  0  0
 22 32  2  0  0  0
 26 27  1  0  0  0
 28101  1  0  0  0
 28102  1  0  0  0
 29103  1  0  0  0
 29104  1  0  0  0
 33 34  1  0  0  0
 33 66  1  0  0  0
 33 70  2  0  0  0
 34 36  1  0  0  0
 34 59  1  0  0  0
 34105  1  0  0  0
 35 44  2  0  0  0
 35 45  1  0  0  0
 35 68  1  0  0  0
 36 56  1  0  0  0
 36106  1  0  0  0
 37 39  1  0  0  0
 37 47  1  0  0  0
 37 66  1  0  0  0
 37107  1  0  0  0
 38 43  2  0  0  0
 38 46  1  0  0  0
 38 47  1  0  0  0
 39 64  1  0  0  0
 39 67  2  0  0  0
 40 52  1  0  0  0
 40 53  2  0  0  0
 40 58  1  0  0  0
 41108  1  0  0  0
 41109  1  0  0  0
 41110  1  0  0  0
 41 48  1  0  0  0
 42 43  1  0  0  0
 42 66  1  0  0  0
 42111  1  0  0  0
 42112  1  0  0  0
 43 44  1  0  0  0
 44113  1  0  0  0
 45 46  2  0  0  0
 45114  1  0  0  0
 46115  1  0  0  0
 47116  1  0  0  0
 47117  1  0  0  0
 48 56  1  0  0  0
 48 65  1  0  0  0
 48118  1  0  0  0
 49 50  1  0  0  0
 49 53  1  0  0  0
 49 64  1  0  0  0
 49119  1  0  0  0
 50 51  1  0  0  0
 50120  1  0  0  0
 50121  1  0  0  0
 51 52  1  0  0  0
 51122  1  0  0  0
 51123  1  0  0  0
 52124  1  0  0  0
 52125  1  0  0  0
 53 54  1  0  0  0
 54 55  2  0  0  0
 54126  1  0  0  0
 55 57  1  0  0  0
 55127  1  0  0  0
 56 69  2  0  0  0
 57 58  2  0  0  0
 57128  1  0  0  0
 58129  1  0  0  0
 59 60  1  0  0  0
 59 61  1  0  0  0
 59 62  1  0  0  0
 60130  1  0  0  0
 60131  1  0  0  0
 60132  1  0  0  0
 61133  1  0  0  0
 61134  1  0  0  0
 61135  1  0  0  0
 62136  1  0  0  0
 62137  1  0  0  0
 62138  1  0  0  0
 63 65  1  0  0  0
 63139  1  0  0  0
 63140  1  0  0  0
 63141  1  0  0  0
 64142  1  0  0  0
 65143  1  0  0  0
 68 81  1  0  0  0
 71 82  2  0  0  0
 71 83  1  0  0  0
 71144  1  0  0  0
 72 73  2  0  0  0
 72 74  1  0  0  0
 72 78  1  0  0  0
 73 75  1  0  0  0
 73 82  1  0  0  0
 74 79  1  0  0  0
 74 83  2  0  0  0
 75145  1  0  0  0
 75146  1  0  0  0
 75147  1  0  0  0
 76148  1  0  0  0
 76149  1  0  0  0
 76150  1  0  0  0
 76 81  1  0  0  0
 77 81  1  0  0  0
 77151  1  0  0  0
 77152  1  0  0  0
 77153  1  0  0  0
 78 81  1  0  0  0
 78154  1  0  0  0
 78155  1  0  0  0
 79 80  1  0  0  0
 79156  1  0  0  0
 79157  1  0  0  0
 80 84  1  0  0  0
 80158  1  0  0  0
 80159  1  0  0  0
 84160  1  0  0  0
M  ISO  4   1 100  68 101  81 101  84 100
M  END
> <chiral flag>
0

> <version>
0

> <s_m_source_file>
/data/baiqing/PycharmProjects/Reinvent-master-3.2/result/LINK_invent/BTK/process_docking_weight1_custom_sum_contain_oxygen_bond_distance_aromatic_linkinvent_7_9_3/rearranged_h_0069.sdf

> <i_m_source_file_index>
73

> <r_mmod_Potential_Energy-OPLS-2005>
391.061462402344

> <r_mmod_Stretch_Energy-OPLS-2005>
284.337249755859

> <r_mmod_Bend_Energy-OPLS-2005>
311.61083984375

> <r_mmod_Torsional_Energy-OPLS-2005>
437.974060058594

> <r_mmod_Improper_Torsional_Energy-OPLS-2005>
35.8237915039062

> <r_mmod_Van_der_Waal_Energy-OPLS-2005>
179.395492553711

> <r_mmod_Electrostatic_Energy-OPLS-2005>
-807.414611816406

> <r_mmod_Solvation_Energy-OPLS-2005>
-233.899353027344

> <b_mmod_Minimization_Converged-OPLS-2005>
0

> <r_mmod_RMS_Derivative-OPLS-2005>
0.777720093727112

$$$$
73
                    3D
 Structure written by MMmdl.
161169  0  0  1  0            999 V2000
  -30.6796  -14.6216   20.4453 C   0  0  0  0  0  0
  -30.4176  -12.3719   19.4646 C   0  0  0  0  0  0
  -29.5035  -12.4875   18.2271 C   0  0  0  0  0  0
  -28.0271  -12.3365   18.6399 C   0  0  0  0  0  0
  -27.6472  -13.2286   19.8529 C   0  0  2  0  0  0
  -28.6923  -13.1400   20.9884 C   0  0  0  0  0  0
  -25.2532  -13.8207   20.5687 C   0  0  0  0  0  0
  -24.1813  -13.0448   20.9186 C   0  0  0  0  0  0
  -24.6401  -11.6923   20.8737 C   0  0  0  0  0  0
  -23.9072  -10.4296   21.0397 C   0  0  0  0  0  0
  -24.3621   -9.4211   21.9182 C   0  0  0  0  0  0
  -23.6290   -8.2248   22.0759 C   0  0  0  0  0  0
  -22.4274   -8.0288   21.3547 C   0  0  0  0  0  0
  -21.9908   -9.0259   20.4646 C   0  0  0  0  0  0
  -22.7240  -10.2136   20.3049 C   0  0  0  0  0  0
  -21.6857   -6.0734   22.5277 C   0  0  0  0  0  0
  -21.4021   -6.5637   23.8211 C   0  0  0  0  0  0
  -21.3657   -5.6787   24.9169 C   0  0  0  0  0  0
  -21.6043   -4.3049   24.7225 C   0  0  0  0  0  0
  -21.8823   -3.8140   23.4347 C   0  0  0  0  0  0
  -21.9194   -4.6957   22.3400 C   0  0  0  0  0  0
  -22.7833  -13.5230   21.1849 C   0  0  0  0  0  0
  -22.1661   -4.2139   21.0978 F   0  0  0  0  0  0
  -21.5623   -3.4535   25.7737 F   0  0  0  0  0  0
  -30.0086  -13.4307   20.4095 N   0  0  0  0  0  0
  -26.2966  -12.9412   20.3293 N   0  0  0  0  0  0
  -25.9334  -11.6555   20.5757 N   0  0  0  0  0  0
  -22.0480  -12.8219   22.0405 N   0  0  0  0  0  0
  -25.4205  -15.1936   20.4125 N   0  0  0  0  0  0
  -31.8738  -14.6771   20.1446 O   0  0  0  0  0  0
  -21.6646   -6.8881   21.4239 O   0  0  0  0  0  0
  -22.3506  -14.5532   20.6698 O   0  0  0  0  0  0
  -24.6241  -31.8618   23.2060 C   0  0  0  0  0  0
  -25.9106  -32.4790   23.8366 C   0  0  1  0  0  0
  -27.2156  -27.3378   20.1226 C   0  0  0  0  0  0
  -25.5911  -33.8587   24.2287 N   0  0  0  0  0  0
  -23.4173  -30.4862   21.5480 C   0  0  2  0  0  0
  -24.8644  -28.9480   20.1082 C   0  0  0  0  0  0
  -22.7463  -29.4634   22.4944 C   0  0  0  0  0  0
  -18.0281  -28.1360   22.8483 C   0  0  0  0  0  0
  -24.1489  -36.7307   23.2638 C   0  0  0  0  0  0
  -25.9556  -30.7990   21.3750 C   0  0  0  0  0  0
  -26.0319  -29.4291   20.7160 C   0  0  0  0  0  0
  -27.2159  -28.6360   20.7138 C   0  0  0  0  0  0
  -26.0373  -26.9152   19.4714 C   0  0  0  0  0  0
  -24.8685  -27.6963   19.4739 C   0  0  0  0  0  0
  -23.6307  -29.8245   20.1617 C   0  0  0  0  0  0
  -25.4116  -36.3094   24.0326 C   0  0  1  0  0  0
  -20.5881  -28.3672   23.1272 C   0  0  2  0  0  0
  -20.6777  -26.9397   22.5403 C   0  0  0  0  0  0
  -19.5755  -26.6367   21.5199 C   0  0  0  0  0  0
  -18.1936  -26.7907   22.1610 C   0  0  0  0  0  0
  -19.1532  -28.8830   23.2879 C   0  0  0  0  0  0
  -18.9462  -30.1430   23.8900 C   0  0  0  0  0  0
  -17.6469  -30.6579   24.0548 C   0  0  0  0  0  0
  -25.9044  -34.9457   23.5111 C   0  0  0  0  0  0
  -16.5359  -29.9073   23.6322 C   0  0  0  0  0  0
  -16.7271  -28.6482   23.0356 C   0  0  0  0  0  0
  -26.4495  -31.6593   25.0729 C   0  0  0  0  0  0
  -25.3734  -31.3717   26.1459 C   0  0  0  0  0  0
  -27.0341  -30.3018   24.6180 C   0  0  0  0  0  0
  -27.6061  -32.4324   25.7498 C   0  0  0  0  0  0
  -27.5587  -37.1809   24.8459 C   0  0  0  0  0  0
  -21.4177  -29.3047   22.3681 N   0  0  0  0  0  0
  -26.4301  -37.3784   23.9405 N   0  0  0  0  0  0
  -24.6840  -31.0640   22.1008 N   0  0  0  0  0  0
  -23.4195  -28.8172   23.3017 O   0  0  0  0  0  0
  -28.3037  -26.4622   20.1727 O   0  0  0  0  0  0
  -26.5613  -34.8914   22.4680 O   0  0  0  0  0  0
  -23.5412  -32.1413   23.7401 O   0  0  0  0  0  0
  -30.1318  -20.8905   20.2142 C   0  0  0  0  0  0
  -30.6602  -19.5879   20.0369 C   0  0  0  0  0  0
  -28.7868  -21.0576   20.6096 C   0  0  0  0  0  0
  -29.8624  -18.4398   20.2537 C   0  0  0  0  0  0
  -28.0612  -19.8402   20.8298 C   0  0  0  0  0  0
  -26.5461  -19.5490   22.8402 C   0  0  0  0  0  0
  -30.0883  -16.8905   18.2942 C   0  0  0  0  0  0
  -28.1508  -22.4785   20.8444 C   0  0  0  0  0  0
  -26.6228  -19.8190   21.3324 C   0  0  0  0  0  0
  -28.7973  -23.8257   20.3000 C   0  0  0  0  0  0
  -28.0125  -25.1321   20.7522 C   0  0  0  0  0  0
  -30.3821  -17.0377   19.8009 C   0  0  2  0  0  0
  -28.5774  -18.5867   20.6465 N   0  0  0  0  0  0
  -29.9469  -15.7763   20.4914 N   0  0  0  0  0  0
  -31.4639  -12.4540   19.1655 H   0  0  0  0  0  0
  -30.3187  -11.3908   19.9312 H   0  0  0  0  0  0
  -29.7651  -11.7257   17.4918 H   0  0  0  0  0  0
  -29.6564  -13.4516   17.7394 H   0  0  0  0  0  0
  -27.8647  -11.2870   18.8893 H   0  0  0  0  0  0
  -27.3741  -12.5512   17.7931 H   0  0  0  0  0  0
  -27.6502  -14.2544   19.4843 H   0  0  0  0  0  0
  -28.6918  -12.1480   21.4422 H   0  0  0  0  0  0
  -28.4551  -13.8438   21.7876 H   0  0  0  0  0  0
  -25.2766   -9.5687   22.4760 H   0  0  0  0  0  0
  -23.9991   -7.4646   22.7491 H   0  0  0  0  0  0
  -21.0832   -8.8784   19.8958 H   0  0  0  0  0  0
  -22.3699  -10.9677   19.6157 H   0  0  0  0  0  0
  -21.2028   -7.6147   23.9710 H   0  0  0  0  0  0
  -21.1470   -6.0520   25.9074 H   0  0  0  0  0  0
  -22.0607   -2.7604   23.2851 H   0  0  0  0  0  0
  -22.4089  -11.9873   22.4785 H   0  0  0  0  0  0
  -21.1106  -13.1258   22.2626 H   0  0  0  0  0  0
  -24.6531  -15.8461   20.5324 H   0  0  0  0  0  0
  -26.2753  -15.6428   20.1084 H   0  0  0  0  0  0
  -26.7185  -32.5484   23.1123 H   0  0  0  0  0  0
  -25.0055  -33.9730   25.0427 H   0  0  0  0  0  0
  -22.7102  -31.3069   21.4089 H   0  0  0  0  0  0
  -23.3747  -35.9643   23.3295 H   0  0  0  0  0  0
  -24.3577  -36.8928   22.2053 H   0  0  0  0  0  0
  -23.7243  -37.6505   23.6665 H   0  0  0  0  0  0
  -26.0838  -31.5672   20.6108 H   0  0  0  0  0  0
  -26.8349  -30.8467   22.0043 H   0  0  0  0  0  0
  -28.1112  -28.9976   21.2002 H   0  0  0  0  0  0
  -26.0080  -25.9553   18.9736 H   0  0  0  0  0  0
  -23.9771  -27.3261   18.9866 H   0  0  0  0  0  0
  -23.7480  -30.6023   19.4068 H   0  0  0  0  0  0
  -22.7520  -29.2509   19.8610 H   0  0  0  0  0  0
  -25.1298  -36.1953   25.0817 H   0  0  0  0  0  0
  -20.9975  -28.3249   24.1391 H   0  0  0  0  0  0
  -20.5648  -26.2294   23.3601 H   0  0  0  0  0  0
  -21.6651  -26.7424   22.1217 H   0  0  0  0  0  0
  -19.6912  -25.6273   21.1226 H   0  0  0  0  0  0
  -19.6679  -27.3171   20.6720 H   0  0  0  0  0  0
  -17.4206  -26.6646   21.4011 H   0  0  0  0  0  0
  -18.0350  -26.0033   22.8986 H   0  0  0  0  0  0
  -19.7945  -30.7235   24.2274 H   0  0  0  0  0  0
  -17.5031  -31.6255   24.5152 H   0  0  0  0  0  0
  -15.5362  -30.2978   23.7642 H   0  0  0  0  0  0
  -15.8670  -28.0793   22.7081 H   0  0  0  0  0  0
  -24.5911  -30.7065   25.7777 H   0  0  0  0  0  0
  -24.8931  -32.2884   26.4898 H   0  0  0  0  0  0
  -25.8072  -30.8880   27.0224 H   0  0  0  0  0  0
  -26.2914  -29.6756   24.1225 H   0  0  0  0  0  0
  -27.4057  -29.7286   25.4684 H   0  0  0  0  0  0
  -27.8772  -30.4289   23.9386 H   0  0  0  0  0  0
  -27.2679  -33.3629   26.2071 H   0  0  0  0  0  0
  -28.3884  -32.6870   25.0333 H   0  0  0  0  0  0
  -28.0719  -31.8447   26.5418 H   0  0  0  0  0  0
  -28.2603  -38.0108   24.7528 H   0  0  0  0  0  0
  -28.1085  -36.2645   24.6273 H   0  0  0  0  0  0
  -27.2302  -37.1446   25.8857 H   0  0  0  0  0  0
  -20.9349  -29.8777   21.6903 H   0  0  0  0  0  0
  -26.0178  -38.2858   24.1410 H   0  0  0  0  0  0
  -30.7577  -21.7515   20.0303 H   0  0  0  0  0  0
  -31.6756  -19.4775   19.6799 H   0  0  0  0  0  0
  -25.5109  -19.5280   23.1793 H   0  0  0  0  0  0
  -27.0711  -20.3228   23.4003 H   0  0  0  0  0  0
  -26.9989  -18.5882   23.0879 H   0  0  0  0  0  0
  -30.5345  -17.7107   17.7310 H   0  0  0  0  0  0
  -29.0157  -16.9074   18.1002 H   0  0  0  0  0  0
  -30.4878  -15.9646   17.8807 H   0  0  0  0  0  0
  -28.0133  -22.5789   21.9216 H   0  0  0  0  0  0
  -27.1477  -22.4557   20.4216 H   0  0  0  0  0  0
  -26.0791  -19.0356   20.8023 H   0  0  0  0  0  0
  -26.0920  -20.7369   21.0952 H   0  0  0  0  0  0
  -28.8269  -23.7861   19.2111 H   0  0  0  0  0  0
  -29.8320  -23.9044   20.6342 H   0  0  0  0  0  0
  -28.1642  -25.2416   21.8260 H   0  0  0  0  0  0
  -26.9542  -24.8911   20.6638 H   0  0  0  0  0  0
  -31.4657  -17.1064   19.9142 H   0  0  0  0  0  0
  -28.9752  -15.7265   20.7548 H   0  0  0  0  0  0
  1 25  1  0  0  0
  1 30  2  0  0  0
  1 84  1  0  0  0
  2  3  1  0  0  0
  2 25  1  0  0  0
  2 85  1  0  0  0
  2 86  1  0  0  0
  3  4  1  0  0  0
  3 87  1  0  0  0
  3 88  1  0  0  0
  4  5  1  0  0  0
  4 89  1  0  0  0
  4 90  1  0  0  0
  5  6  1  0  0  0
  5 26  1  0  0  0
  5 91  1  0  0  0
  6 25  1  0  0  0
  6 92  1  0  0  0
  6 93  1  0  0  0
  7  8  2  0  0  0
  7 26  1  0  0  0
  7 29  1  0  0  0
  8  9  1  0  0  0
  8 22  1  0  0  0
  9 10  1  0  0  0
  9 27  2  0  0  0
 10 11  2  0  0  0
 10 15  1  0  0  0
 11 12  1  0  0  0
 11 94  1  0  0  0
 12 13  2  0  0  0
 12 95  1  0  0  0
 13 14  1  0  0  0
 13 31  1  0  0  0
 14 15  2  0  0  0
 14 96  1  0  0  0
 15 97  1  0  0  0
 16 17  2  0  0  0
 16 21  1  0  0  0
 16 31  1  0  0  0
 17 18  1  0  0  0
 17 98  1  0  0  0
 18 19  2  0  0  0
 18 99  1  0  0  0
 19 20  1  0  0  0
 19 24  1  0  0  0
 20 21  2  0  0  0
 20100  1  0  0  0
 21 23  1  0  0  0
 22 28  1  0  0  0
 22 32  2  0  0  0
 26 27  1  0  0  0
 28101  1  0  0  0
 28102  1  0  0  0
 29103  1  0  0  0
 29104  1  0  0  0
 33 34  1  0  0  0
 33 66  1  0  0  0
 33 70  2  0  0  0
 34 36  1  0  0  0
 34 59  1  0  0  0
 34105  1  0  0  0
 35 44  2  0  0  0
 35 45  1  0  0  0
 35 68  1  0  0  0
 36 56  1  0  0  0
 36106  1  0  0  0
 37 39  1  0  0  0
 37 47  1  0  0  0
 37 66  1  0  0  0
 37107  1  0  0  0
 38 43  2  0  0  0
 38 46  1  0  0  0
 38 47  1  0  0  0
 39 64  1  0  0  0
 39 67  2  0  0  0
 40 52  1  0  0  0
 40 53  2  0  0  0
 40 58  1  0  0  0
 41108  1  0  0  0
 41109  1  0  0  0
 41110  1  0  0  0
 41 48  1  0  0  0
 42 43  1  0  0  0
 42 66  1  0  0  0
 42111  1  0  0  0
 42112  1  0  0  0
 43 44  1  0  0  0
 44113  1  0  0  0
 45 46  2  0  0  0
 45114  1  0  0  0
 46115  1  0  0  0
 47116  1  0  0  0
 47117  1  0  0  0
 48 56  1  0  0  0
 48 65  1  0  0  0
 48118  1  0  0  0
 49 50  1  0  0  0
 49 53  1  0  0  0
 49 64  1  0  0  0
 49119  1  0  0  0
 50 51  1  0  0  0
 50120  1  0  0  0
 50121  1  0  0  0
 51 52  1  0  0  0
 51122  1  0  0  0
 51123  1  0  0  0
 52124  1  0  0  0
 52125  1  0  0  0
 53 54  1  0  0  0
 54 55  2  0  0  0
 54126  1  0  0  0
 55 57  1  0  0  0
 55127  1  0  0  0
 56 69  2  0  0  0
 57 58  2  0  0  0
 57128  1  0  0  0
 58129  1  0  0  0
 59 60  1  0  0  0
 59 61  1  0  0  0
 59 62  1  0  0  0
 60130  1  0  0  0
 60131  1  0  0  0
 60132  1  0  0  0
 61133  1  0  0  0
 61134  1  0  0  0
 61135  1  0  0  0
 62136  1  0  0  0
 62137  1  0  0  0
 62138  1  0  0  0
 63 65  1  0  0  0
 63139  1  0  0  0
 63140  1  0  0  0
 63141  1  0  0  0
 64142  1  0  0  0
 65143  1  0  0  0
 68 81  1  0  0  0
 71 72  2  0  0  0
 71 73  1  0  0  0
 71144  1  0  0  0
 72 74  1  0  0  0
 72145  1  0  0  0
 73 75  2  0  0  0
 73 78  1  0  0  0
 74 82  1  0  0  0
 74 83  2  0  0  0
 75 79  1  0  0  0
 75 83  1  0  0  0
 76 79  1  0  0  0
 76146  1  0  0  0
 76147  1  0  0  0
 76148  1  0  0  0
 77149  1  0  0  0
 77150  1  0  0  0
 77151  1  0  0  0
 77 82  1  0  0  0
 78 80  1  0  0  0
 78152  1  0  0  0
 78153  1  0  0  0
 79154  1  0  0  0
 79155  1  0  0  0
 80 81  1  0  0  0
 80156  1  0  0  0
 80157  1  0  0  0
 81158  1  0  0  0
 81159  1  0  0  0
 82 84  1  0  0  0
 82160  1  0  0  0
 84161  1  0  0  0
M  ISO  4   1 100  68 101  81 101  84 100
M  END
> <chiral flag>
0

> <version>
0

> <s_m_source_file>
/data/baiqing/PycharmProjects/Reinvent-master-3.2/result/LINK_invent/BTK/process_docking_weight1_custom_sum_contain_oxygen_bond_distance_aromatic_linkinvent_7_9_3/rearranged_h_0069.sdf

> <i_m_source_file_index>
74

> <r_mmod_Potential_Energy-OPLS-2005>
-222.822891235352

> <r_mmod_Stretch_Energy-OPLS-2005>
71.1304321289062

> <r_mmod_Bend_Energy-OPLS-2005>
136.768707275391

> <r_mmod_Torsional_Energy-OPLS-2005>
216.634552001953

> <r_mmod_Improper_Torsional_Energy-OPLS-2005>
10.3748168945312

> <r_mmod_Van_der_Waal_Energy-OPLS-2005>
145.892211914062

> <r_mmod_Electrostatic_Energy-OPLS-2005>
-649.223388671875

> <r_mmod_Solvation_Energy-OPLS-2005>
-204.669815063477

> <b_mmod_Minimization_Converged-OPLS-2005>
0

> <r_mmod_RMS_Derivative-OPLS-2005>
1.51821255683899

$$$$
74
                    3D
 Structure written by MMmdl.
167175  0  0  1  0            999 V2000
  -30.6662  -14.5390   20.5404 C   0  0  0  0  0  0
  -30.4184  -12.3420   19.4528 C   0  0  0  0  0  0
  -29.5071  -12.4945   18.2191 C   0  0  0  0  0  0
  -28.0248  -12.3370   18.6237 C   0  0  0  0  0  0
  -27.6465  -13.2081   19.8507 C   0  0  2  0  0  0
  -28.6787  -13.0508   20.9902 C   0  0  0  0  0  0
  -25.2475  -13.8097   20.5501 C   0  0  0  0  0  0
  -24.1783  -13.0390   20.9179 C   0  0  0  0  0  0
  -24.6348  -11.6888   20.8710 C   0  0  0  0  0  0
  -23.9013  -10.4266   21.0384 C   0  0  0  0  0  0
  -24.3588   -9.4190   21.9158 C   0  0  0  0  0  0
  -23.6280   -8.2212   22.0740 C   0  0  0  0  0  0
  -22.4254   -8.0263   21.3542 C   0  0  0  0  0  0
  -21.9882   -9.0214   20.4626 C   0  0  0  0  0  0
  -22.7189  -10.2103   20.3036 C   0  0  0  0  0  0
  -21.6872   -6.0741   22.5275 C   0  0  0  0  0  0
  -21.4000   -6.5640   23.8207 C   0  0  0  0  0  0
  -21.3661   -5.6787   24.9178 C   0  0  0  0  0  0
  -21.6041   -4.3047   24.7224 C   0  0  0  0  0  0
  -21.8821   -3.8146   23.4343 C   0  0  0  0  0  0
  -21.9188   -4.6970   22.3404 C   0  0  0  0  0  0
  -22.7837  -13.5240   21.1830 C   0  0  0  0  0  0
  -22.1665   -4.2156   21.0989 F   0  0  0  0  0  0
  -21.5618   -3.4534   25.7736 F   0  0  0  0  0  0
  -30.0079  -13.3528   20.4367 N   0  0  0  0  0  0
  -26.2912  -12.9272   20.3159 N   0  0  0  0  0  0
  -25.9250  -11.6455   20.5679 N   0  0  0  0  0  0
  -22.0490  -12.8258   22.0410 N   0  0  0  0  0  0
  -25.4025  -15.1781   20.3697 N   0  0  0  0  0  0
  -31.8316  -14.6640   20.1636 O   0  0  0  0  0  0
  -21.6631   -6.8862   21.4235 O   0  0  0  0  0  0
  -22.3538  -14.5555   20.6701 O   0  0  0  0  0  0
  -24.6146  -31.8677   23.2074 C   0  0  0  0  0  0
  -25.9054  -32.4811   23.8360 C   0  0  1  0  0  0
  -27.2399  -27.4275   20.0863 C   0  0  0  0  0  0
  -25.5901  -33.8594   24.2305 N   0  0  0  0  0  0
  -23.4009  -30.4901   21.5507 C   0  0  2  0  0  0
  -24.8452  -28.9528   20.1153 C   0  0  0  0  0  0
  -22.7432  -29.4656   22.5001 C   0  0  0  0  0  0
  -18.0253  -28.1434   22.8489 C   0  0  0  0  0  0
  -24.1501  -36.7289   23.2641 C   0  0  0  0  0  0
  -25.9288  -30.8326   21.3565 C   0  0  0  0  0  0
  -26.0041  -29.4632   20.7074 C   0  0  0  0  0  0
  -27.1994  -28.7082   20.6896 C   0  0  0  0  0  0
  -26.0484  -26.9242   19.5090 C   0  0  0  0  0  0
  -24.8638  -27.6818   19.5135 C   0  0  0  0  0  0
  -23.6070  -29.8191   20.1659 C   0  0  0  0  0  0
  -25.4112  -36.3095   24.0335 C   0  0  1  0  0  0
  -20.5853  -28.3670   23.1318 C   0  0  2  0  0  0
  -20.6713  -26.9392   22.5433 C   0  0  0  0  0  0
  -19.5708  -26.6424   21.5188 C   0  0  0  0  0  0
  -18.1859  -26.8043   22.1507 C   0  0  0  0  0  0
  -19.1534  -28.8879   23.2900 C   0  0  0  0  0  0
  -18.9478  -30.1475   23.8911 C   0  0  0  0  0  0
  -17.6493  -30.6635   24.0576 C   0  0  0  0  0  0
  -25.9026  -34.9459   23.5128 C   0  0  0  0  0  0
  -16.5359  -29.9122   23.6391 C   0  0  0  0  0  0
  -16.7260  -28.6555   23.0384 C   0  0  0  0  0  0
  -26.4469  -31.6556   25.0660 C   0  0  0  0  0  0
  -25.3737  -31.3650   26.1395 C   0  0  0  0  0  0
  -27.0287  -30.3007   24.5992 C   0  0  0  0  0  0
  -27.6056  -32.4259   25.7432 C   0  0  0  0  0  0
  -27.5584  -37.1806   24.8467 C   0  0  0  0  0  0
  -21.4157  -29.3036   22.3753 N   0  0  0  0  0  0
  -26.4297  -37.3772   23.9408 N   0  0  0  0  0  0
  -24.6684  -31.0790   22.0958 N   0  0  0  0  0  0
  -23.4197  -28.8211   23.3060 O   0  0  0  0  0  0
  -28.4421  -26.7399   20.0932 O   0  0  0  0  0  0
  -26.5622  -34.8923   22.4706 O   0  0  0  0  0  0
  -23.5363  -32.1422   23.7478 O   0  0  0  0  0  0
  -29.9373  -21.6042   21.5397 C   0  0  0  0  0  0
  -29.0327  -21.6834   20.5150 C   0  0  0  0  0  0
  -29.2138  -19.5138   21.1800 C   0  0  0  0  0  0
  -29.1473  -17.7465   22.9617 C   0  0  0  0  0  0
  -27.6818  -17.4702   21.0386 C   0  0  0  0  0  0
  -27.6648  -19.9576   19.2575 C   0  0  0  0  0  0
  -28.5786  -22.8873   19.6983 C   0  0  0  0  0  0
  -28.6629  -24.2686   20.4095 C   0  0  0  0  0  0
  -28.5964  -25.4722   19.4292 C   0  0  0  0  0  0
  -29.0926  -17.9770   21.4221 C   0  0  0  0  0  0
  -30.2196  -17.0739   20.7128 C   0  0  2  0  0  0
  -30.4612  -17.4184   19.1980 C   0  0  0  0  0  0
  -28.6178  -20.3701   20.2972 N   0  0  0  0  0  0
  -30.0341  -20.2884   21.8986 N   0  3  0  0  0  0
  -29.9102  -15.6155   20.8740 N   0  0  0  0  0  0
  -31.4536  -17.3636   21.3546 O   0  0  0  0  0  0
  -29.4383  -16.9846   18.4614 F   0  0  0  0  0  0
  -31.5694  -16.8474   18.7349 F   0  0  0  0  0  0
  -30.6140  -18.7262   18.9954 F   0  0  0  0  0  0
  -31.4631  -12.4481   19.1594 H   0  0  0  0  0  0
  -30.3296  -11.3438   19.8822 H   0  0  0  0  0  0
  -29.7759  -11.7564   17.4610 H   0  0  0  0  0  0
  -29.6654  -13.4746   17.7633 H   0  0  0  0  0  0
  -27.8570  -11.2834   18.8508 H   0  0  0  0  0  0
  -27.3799  -12.5680   17.7771 H   0  0  0  0  0  0
  -27.6695  -14.2465   19.5168 H   0  0  0  0  0  0
  -28.6638  -12.0315   21.3780 H   0  0  0  0  0  0
  -28.4333  -13.6965   21.8347 H   0  0  0  0  0  0
  -25.2743   -9.5701   22.4731 H   0  0  0  0  0  0
  -24.0002   -7.4623   22.7482 H   0  0  0  0  0  0
  -21.0805   -8.8723   19.8957 H   0  0  0  0  0  0
  -22.3620  -10.9637   19.6153 H   0  0  0  0  0  0
  -21.1991   -7.6147   23.9723 H   0  0  0  0  0  0
  -21.1470   -6.0512   25.9077 H   0  0  0  0  0  0
  -22.0595   -2.7614   23.2839 H   0  0  0  0  0  0
  -22.4146  -11.9953   22.4786 H   0  0  0  0  0  0
  -21.1099  -13.1258   22.2590 H   0  0  0  0  0  0
  -24.5887  -15.7828   20.3962 H   0  0  0  0  0  0
  -26.1697  -15.5801   19.8492 H   0  0  0  0  0  0
  -26.7124  -32.5552   23.1143 H   0  0  0  0  0  0
  -25.0006  -33.9739   25.0418 H   0  0  0  0  0  0
  -22.6876  -31.3052   21.4136 H   0  0  0  0  0  0
  -23.3756  -35.9636   23.3342 H   0  0  0  0  0  0
  -24.3597  -36.8866   22.2053 H   0  0  0  0  0  0
  -23.7264  -37.6496   23.6637 H   0  0  0  0  0  0
  -26.0362  -31.5935   20.5807 H   0  0  0  0  0  0
  -26.8199  -30.8935   21.9703 H   0  0  0  0  0  0
  -28.0976  -29.1031   21.1414 H   0  0  0  0  0  0
  -25.9971  -25.9464   19.0591 H   0  0  0  0  0  0
  -23.9696  -27.2844   19.0517 H   0  0  0  0  0  0
  -23.7113  -30.5940   19.4081 H   0  0  0  0  0  0
  -22.7290  -29.2397   19.8740 H   0  0  0  0  0  0
  -25.1301  -36.1955   25.0822 H   0  0  0  0  0  0
  -20.9946  -28.3236   24.1433 H   0  0  0  0  0  0
  -20.5468  -26.2282   23.3611 H   0  0  0  0  0  0
  -21.6577  -26.7352   22.1278 H   0  0  0  0  0  0
  -19.6785  -25.6327   21.1203 H   0  0  0  0  0  0
  -19.6711  -27.3234   20.6733 H   0  0  0  0  0  0
  -17.4191  -26.7021   21.3819 H   0  0  0  0  0  0
  -18.0034  -26.0114   22.8776 H   0  0  0  0  0  0
  -19.7966  -30.7303   24.2236 H   0  0  0  0  0  0
  -17.5060  -31.6313   24.5183 H   0  0  0  0  0  0
  -15.5369  -30.3058   23.7728 H   0  0  0  0  0  0
  -15.8631  -28.0905   22.7128 H   0  0  0  0  0  0
  -24.5904  -30.7008   25.7721 H   0  0  0  0  0  0
  -24.8932  -32.2791   26.4855 H   0  0  0  0  0  0
  -25.8073  -30.8800   27.0139 H   0  0  0  0  0  0
  -26.2843  -29.6824   24.0948 H   0  0  0  0  0  0
  -27.3983  -29.7160   25.4419 H   0  0  0  0  0  0
  -27.8710  -30.4346   23.9199 H   0  0  0  0  0  0
  -27.2681  -33.3544   26.2044 H   0  0  0  0  0  0
  -28.3842  -32.6820   25.0238 H   0  0  0  0  0  0
  -28.0741  -31.8345   26.5315 H   0  0  0  0  0  0
  -28.2609  -38.0090   24.7482 H   0  0  0  0  0  0
  -28.1079  -36.2624   24.6346 H   0  0  0  0  0  0
  -27.2311  -37.1501   25.8869 H   0  0  0  0  0  0
  -20.9347  -29.8692   21.6908 H   0  0  0  0  0  0
  -26.0207  -38.2861   24.1359 H   0  0  0  0  0  0
  -30.5173  -22.3770   22.0260 H   0  0  0  0  0  0
  -28.3715  -18.3179   23.4741 H   0  0  0  0  0  0
  -30.0983  -18.0426   23.4037 H   0  0  0  0  0  0
  -28.9956  -16.6994   23.2264 H   0  0  0  0  0  0
  -26.9025  -18.1032   21.4713 H   0  0  0  0  0  0
  -27.4933  -16.4679   21.4218 H   0  0  0  0  0  0
  -27.5176  -17.4218   19.9635 H   0  0  0  0  0  0
  -26.7053  -19.7094   19.7129 H   0  0  0  0  0  0
  -27.5136  -20.7568   18.5362 H   0  0  0  0  0  0
  -28.0580  -19.1084   18.7046 H   0  0  0  0  0  0
  -27.5438  -22.7496   19.3861 H   0  0  0  0  0  0
  -29.1770  -22.9182   18.7849 H   0  0  0  0  0  0
  -29.6019  -24.3579   20.9543 H   0  0  0  0  0  0
  -27.8680  -24.3372   21.1533 H   0  0  0  0  0  0
  -27.8921  -25.3035   18.6159 H   0  0  0  0  0  0
  -29.5597  -25.5272   18.9196 H   0  0  0  0  0  0
  -30.6364  -19.9450   22.6346 H   0  0  0  0  0  0
  -28.9567  -15.4142   21.1323 H   0  0  0  0  0  0
  -32.1272  -17.0979   20.7358 H   0  0  0  0  0  0
  1 25  1  0  0  0
  1 30  2  0  0  0
  1 85  1  0  0  0
  2  3  1  0  0  0
  2 25  1  0  0  0
  2 90  1  0  0  0
  2 91  1  0  0  0
  3  4  1  0  0  0
  3 92  1  0  0  0
  3 93  1  0  0  0
  4  5  1  0  0  0
  4 94  1  0  0  0
  4 95  1  0  0  0
  5  6  1  0  0  0
  5 26  1  0  0  0
  5 96  1  0  0  0
  6 25  1  0  0  0
  6 97  1  0  0  0
  6 98  1  0  0  0
  7  8  2  0  0  0
  7 26  1  0  0  0
  7 29  1  0  0  0
  8  9  1  0  0  0
  8 22  1  0  0  0
  9 10  1  0  0  0
  9 27  2  0  0  0
 10 11  2  0  0  0
 10 15  1  0  0  0
 11 12  1  0  0  0
 11 99  1  0  0  0
 12 13  2  0  0  0
 12100  1  0  0  0
 13 14  1  0  0  0
 13 31  1  0  0  0
 14 15  2  0  0  0
 14101  1  0  0  0
 15102  1  0  0  0
 16 17  2  0  0  0
 16 21  1  0  0  0
 16 31  1  0  0  0
 17 18  1  0  0  0
 17103  1  0  0  0
 18 19  2  0  0  0
 18104  1  0  0  0
 19 20  1  0  0  0
 19 24  1  0  0  0
 20 21  2  0  0  0
 20105  1  0  0  0
 21 23  1  0  0  0
 22 28  1  0  0  0
 22 32  2  0  0  0
 26 27  1  0  0  0
 28106  1  0  0  0
 28107  1  0  0  0
 29108  1  0  0  0
 29109  1  0  0  0
 33 34  1  0  0  0
 33 66  1  0  0  0
 33 70  2  0  0  0
 34 36  1  0  0  0
 34 59  1  0  0  0
 34110  1  0  0  0
 35 44  2  0  0  0
 35 45  1  0  0  0
 35 68  1  0  0  0
 36 56  1  0  0  0
 36111  1  0  0  0
 37 39  1  0  0  0
 37 47  1  0  0  0
 37 66  1  0  0  0
 37112  1  0  0  0
 38 43  2  0  0  0
 38 46  1  0  0  0
 38 47  1  0  0  0
 39 64  1  0  0  0
 39 67  2  0  0  0
 40 52  1  0  0  0
 40 53  2  0  0  0
 40 58  1  0  0  0
 41113  1  0  0  0
 41114  1  0  0  0
 41115  1  0  0  0
 41 48  1  0  0  0
 42 43  1  0  0  0
 42 66  1  0  0  0
 42116  1  0  0  0
 42117  1  0  0  0
 43 44  1  0  0  0
 44118  1  0  0  0
 45 46  2  0  0  0
 45119  1  0  0  0
 46120  1  0  0  0
 47121  1  0  0  0
 47122  1  0  0  0
 48 56  1  0  0  0
 48 65  1  0  0  0
 48123  1  0  0  0
 49 50  1  0  0  0
 49 53  1  0  0  0
 49 64  1  0  0  0
 49124  1  0  0  0
 50 51  1  0  0  0
 50125  1  0  0  0
 50126  1  0  0  0
 51 52  1  0  0  0
 51127  1  0  0  0
 51128  1  0  0  0
 52129  1  0  0  0
 52130  1  0  0  0
 53 54  1  0  0  0
 54 55  2  0  0  0
 54131  1  0  0  0
 55 57  1  0  0  0
 55132  1  0  0  0
 56 69  2  0  0  0
 57 58  2  0  0  0
 57133  1  0  0  0
 58134  1  0  0  0
 59 60  1  0  0  0
 59 61  1  0  0  0
 59 62  1  0  0  0
 60135  1  0  0  0
 60136  1  0  0  0
 60137  1  0  0  0
 61138  1  0  0  0
 61139  1  0  0  0
 61140  1  0  0  0
 62141  1  0  0  0
 62142  1  0  0  0
 62143  1  0  0  0
 63 65  1  0  0  0
 63144  1  0  0  0
 63145  1  0  0  0
 63146  1  0  0  0
 64147  1  0  0  0
 65148  1  0  0  0
 68 79  1  0  0  0
 71 72  2  0  0  0
 71 84  1  0  0  0
 71149  1  0  0  0
 72 77  1  0  0  0
 72 83  1  0  0  0
 73 80  1  0  0  0
 73 83  1  0  0  0
 73 84  2  0  0  0
 74150  1  0  0  0
 74151  1  0  0  0
 74152  1  0  0  0
 74 80  1  0  0  0
 75 80  1  0  0  0
 75153  1  0  0  0
 75154  1  0  0  0
 75155  1  0  0  0
 76 83  1  0  0  0
 76156  1  0  0  0
 76157  1  0  0  0
 76158  1  0  0  0
 77 78  1  0  0  0
 77159  1  0  0  0
 77160  1  0  0  0
 78 79  1  0  0  0
 78161  1  0  0  0
 78162  1  0  0  0
 79163  1  0  0  0
 79164  1  0  0  0
 80 81  1  0  0  0
 81 82  1  0  0  0
 81 85  1  0  0  0
 81 86  1  0  0  0
 82 87  1  0  0  0
 82 88  1  0  0  0
 82 89  1  0  0  0
 84165  1  0  0  0
 85166  1  0  0  0
 86167  1  0  0  0
M  CHG  1  84   1
M  ISO  4   1 100  68 101  79 101  85 100
M  END
> <chiral flag>
0

> <version>
0

> <s_m_source_file>
/data/baiqing/PycharmProjects/Reinvent-master-3.2/result/LINK_invent/BTK/process_docking_weight1_custom_sum_contain_oxygen_bond_distance_aromatic_linkinvent_7_9_3/rearranged_h_0069.sdf

> <i_m_source_file_index>
75

> <r_mmod_Potential_Energy-OPLS-2005>
-125.860206604004

> <r_mmod_Stretch_Energy-OPLS-2005>
58.9657096862793

> <r_mmod_Bend_Energy-OPLS-2005>
129.126983642578

> <r_mmod_Torsional_Energy-OPLS-2005>
213.448806762695

> <r_mmod_Improper_Torsional_Energy-OPLS-2005>
6.74926900863647

> <r_mmod_Van_der_Waal_Energy-OPLS-2005>
150.965103149414

> <r_mmod_Electrostatic_Energy-OPLS-2005>
-303.327758789062

> <r_mmod_Solvation_Energy-OPLS-2005>
-402.950988769531

> <b_mmod_Minimization_Converged-OPLS-2005>
0

> <r_mmod_RMS_Derivative-OPLS-2005>
6.31392860412598

$$$$
75
                    3D
 Structure written by MMmdl.
172180  0  0  1  0            999 V2000
  -30.7301  -14.4220   20.6362 C   0  0  0  0  0  0
  -30.4211  -12.2992   19.4141 C   0  0  0  0  0  0
  -29.4919  -12.5214   18.2043 C   0  0  0  0  0  0
  -28.0150  -12.3764   18.6178 C   0  0  0  0  0  0
  -27.6668  -13.2039   19.8834 C   0  0  2  0  0  0
  -28.7051  -12.9585   21.0021 C   0  0  0  0  0  0
  -25.2610  -13.8158   20.5686 C   0  0  0  0  0  0
  -24.1852  -13.0444   20.9168 C   0  0  0  0  0  0
  -24.6398  -11.6907   20.8729 C   0  0  0  0  0  0
  -23.9061  -10.4296   21.0403 C   0  0  0  0  0  0
  -24.3613   -9.4210   21.9181 C   0  0  0  0  0  0
  -23.6290   -8.2246   22.0753 C   0  0  0  0  0  0
  -22.4271   -8.0282   21.3545 C   0  0  0  0  0  0
  -21.9907   -9.0257   20.4647 C   0  0  0  0  0  0
  -22.7234  -10.2137   20.3055 C   0  0  0  0  0  0
  -21.6855   -6.0736   22.5279 C   0  0  0  0  0  0
  -21.4016   -6.5640   23.8211 C   0  0  0  0  0  0
  -21.3660   -5.6792   24.9175 C   0  0  0  0  0  0
  -21.6044   -4.3056   24.7226 C   0  0  0  0  0  0
  -21.8819   -3.8146   23.4346 C   0  0  0  0  0  0
  -21.9192   -4.6963   22.3401 C   0  0  0  0  0  0
  -22.7877  -13.5246   21.1835 C   0  0  0  0  0  0
  -22.1661   -4.2149   21.0980 F   0  0  0  0  0  0
  -21.5629   -3.4538   25.7739 F   0  0  0  0  0  0
  -30.0445  -13.2595   20.4632 N   0  0  0  0  0  0
  -26.3050  -12.9325   20.3396 N   0  0  0  0  0  0
  -25.9326  -11.6484   20.5768 N   0  0  0  0  0  0
  -22.0514  -12.8239   22.0387 N   0  0  0  0  0  0
  -25.4357  -15.1875   20.4100 N   0  0  0  0  0  0
  -31.7708  -14.6813   20.0251 O   0  0  0  0  0  0
  -21.6638   -6.8878   21.4240 O   0  0  0  0  0  0
  -22.3569  -14.5558   20.6689 O   0  0  0  0  0  0
  -24.6148  -31.8677   23.2093 C   0  0  0  0  0  0
  -25.9044  -32.4820   23.8392 C   0  0  1  0  0  0
  -27.2335  -27.4319   20.0941 C   0  0  0  0  0  0
  -25.5894  -33.8621   24.2317 N   0  0  0  0  0  0
  -23.4026  -30.4899   21.5506 C   0  0  2  0  0  0
  -24.8469  -28.9571   20.1111 C   0  0  0  0  0  0
  -22.7416  -29.4646   22.4997 C   0  0  0  0  0  0
  -18.0266  -28.1363   22.8489 C   0  0  0  0  0  0
  -24.1485  -36.7313   23.2640 C   0  0  0  0  0  0
  -25.9301  -30.8332   21.3621 C   0  0  0  0  0  0
  -26.0058  -29.4682   20.7073 C   0  0  0  0  0  0
  -27.2000  -28.7131   20.6928 C   0  0  0  0  0  0
  -26.0580  -26.9417   19.4792 C   0  0  0  0  0  0
  -24.8686  -27.6941   19.4938 C   0  0  0  0  0  0
  -23.6090  -29.8223   20.1648 C   0  0  0  0  0  0
  -25.4105  -36.3110   24.0337 C   0  0  1  0  0  0
  -20.5857  -28.3653   23.1316 C   0  0  2  0  0  0
  -20.6758  -26.9388   22.5414 C   0  0  0  0  0  0
  -19.5733  -26.6371   21.5209 C   0  0  0  0  0  0
  -18.1910  -26.7910   22.1618 C   0  0  0  0  0  0
  -19.1517  -28.8825   23.2894 C   0  0  0  0  0  0
  -18.9453  -30.1438   23.8893 C   0  0  0  0  0  0
  -17.6454  -30.6572   24.0564 C   0  0  0  0  0  0
  -25.9032  -34.9475   23.5122 C   0  0  0  0  0  0
  -16.5343  -29.9075   23.6326 C   0  0  0  0  0  0
  -16.7258  -28.6496   23.0340 C   0  0  0  0  0  0
  -26.4454  -31.6615   25.0735 C   0  0  0  0  0  0
  -25.3712  -31.3727   26.1487 C   0  0  0  0  0  0
  -27.0291  -30.3056   24.6121 C   0  0  0  0  0  0
  -27.6020  -32.4346   25.7500 C   0  0  0  0  0  0
  -27.5576  -37.1810   24.8463 C   0  0  0  0  0  0
  -21.4139  -29.3029   22.3741 N   0  0  0  0  0  0
  -26.4288  -37.3790   23.9406 N   0  0  0  0  0  0
  -24.6673  -31.0782   22.0991 N   0  0  0  0  0  0
  -23.4188  -28.8191   23.3040 O   0  0  0  0  0  0
  -28.4154  -26.7187   20.1319 O   0  0  0  0  0  0
  -26.5594  -34.8926   22.4684 O   0  0  0  0  0  0
  -23.5343  -32.1421   23.7490 O   0  0  0  0  0  0
  -30.1624  -19.2047   24.0368 C   0  0  0  0  0  0
  -29.8210  -18.9879   22.6827 C   0  0  0  0  0  0
  -30.4496  -21.4544   23.6274 C   0  0  0  0  0  0
  -30.0351  -21.2761   22.2741 C   0  0  0  0  0  0
  -30.8267  -22.7952   24.2296 C   0  0  0  0  0  0
  -30.1862  -22.1402   19.8733 C   0  0  0  0  0  0
  -26.5794  -24.7432   21.8013 C   0  0  0  0  0  0
  -28.8723  -25.2730   22.6030 C   0  0  0  0  0  0
  -29.5025  -17.5736   22.1857 C   0  0  0  0  0  0
  -28.3433  -23.0309   21.4510 C   0  0  0  0  0  0
  -28.4163  -25.2754   20.1107 C   0  0  0  0  0  0
  -29.7952  -22.4748   21.3271 C   0  0  1  0  0  0
  -30.6965  -16.6373   21.8017 C   0  0  1  0  0  0
  -28.0810  -24.5829   21.4720 C   0  0  0  0  0  0
  -31.8170  -16.5026   22.8768 C   0  0  0  0  0  0
  -30.4985  -20.4247   24.5030 N   0  0  0  0  0  0
  -29.7240  -20.0291   21.8088 N   0  0  0  0  0  0
  -30.1703  -15.3005   21.4789 N   0  0  0  0  0  0
  -31.2702  -16.3305   24.0809 F   0  0  0  0  0  0
  -32.6003  -15.4436   22.6636 F   0  0  0  0  0  0
  -32.8868  -17.9318   22.9008 Cl  0  0  0  0  0  0
  -31.4662  -12.3957   19.1137 H   0  0  0  0  0  0
  -30.3174  -11.2805   19.7911 H   0  0  0  0  0  0
  -29.7288  -11.8119   17.4104 H   0  0  0  0  0  0
  -29.6611  -13.5157   17.7873 H   0  0  0  0  0  0
  -27.8248  -11.3186   18.8036 H   0  0  0  0  0  0
  -27.3627  -12.6610   17.7912 H   0  0  0  0  0  0
  -27.7213  -14.2563   19.6038 H   0  0  0  0  0  0
  -28.6735  -11.9165   21.3238 H   0  0  0  0  0  0
  -28.4549  -13.5376   21.8914 H   0  0  0  0  0  0
  -25.2762   -9.5687   22.4751 H   0  0  0  0  0  0
  -24.0001   -7.4640   22.7474 H   0  0  0  0  0  0
  -21.0835   -8.8775   19.8955 H   0  0  0  0  0  0
  -22.3691  -10.9674   19.6162 H   0  0  0  0  0  0
  -21.2008   -7.6149   23.9715 H   0  0  0  0  0  0
  -21.1483   -6.0523   25.9077 H   0  0  0  0  0  0
  -22.0598   -2.7609   23.2847 H   0  0  0  0  0  0
  -22.4122  -11.9893   22.4767 H   0  0  0  0  0  0
  -21.1137  -13.1275   22.2601 H   0  0  0  0  0  0
  -24.6717  -15.8455   20.5179 H   0  0  0  0  0  0
  -26.2895  -15.6227   20.0843 H   0  0  0  0  0  0
  -26.7129  -32.5519   23.1171 H   0  0  0  0  0  0
  -25.0074  -33.9785   25.0483 H   0  0  0  0  0  0
  -22.6912  -31.3061   21.4124 H   0  0  0  0  0  0
  -23.3737  -35.9657   23.3310 H   0  0  0  0  0  0
  -24.3563  -36.8918   22.2050 H   0  0  0  0  0  0
  -23.7253  -37.6525   23.6654 H   0  0  0  0  0  0
  -26.0432  -31.6012   20.5951 H   0  0  0  0  0  0
  -26.8174  -30.8843   21.9808 H   0  0  0  0  0  0
  -28.0950  -29.1036   21.1576 H   0  0  0  0  0  0
  -26.0379  -25.9802   18.9897 H   0  0  0  0  0  0
  -23.9784  -27.2963   19.0244 H   0  0  0  0  0  0
  -23.7117  -30.5967   19.4040 H   0  0  0  0  0  0
  -22.7340  -29.2385   19.8734 H   0  0  0  0  0  0
  -25.1280  -36.1971   25.0829 H   0  0  0  0  0  0
  -20.9937  -28.3219   24.1438 H   0  0  0  0  0  0
  -20.5654  -26.2255   23.3599 H   0  0  0  0  0  0
  -21.6631  -26.7429   22.1208 H   0  0  0  0  0  0
  -19.6894  -25.6282   21.1233 H   0  0  0  0  0  0
  -19.6676  -27.3190   20.6749 H   0  0  0  0  0  0
  -17.4184  -26.6660   21.4019 H   0  0  0  0  0  0
  -18.0303  -26.0049   22.9007 H   0  0  0  0  0  0
  -19.7938  -30.7246   24.2254 H   0  0  0  0  0  0
  -17.5019  -31.6254   24.5161 H   0  0  0  0  0  0
  -15.5344  -30.2974   23.7659 H   0  0  0  0  0  0
  -15.8657  -28.0821   22.7044 H   0  0  0  0  0  0
  -24.5872  -30.7083   25.7827 H   0  0  0  0  0  0
  -24.8908  -32.2885   26.4952 H   0  0  0  0  0  0
  -25.8061  -30.8889   27.0244 H   0  0  0  0  0  0
  -26.2843  -29.6794   24.1197 H   0  0  0  0  0  0
  -27.4073  -29.7316   25.4588 H   0  0  0  0  0  0
  -27.8662  -30.4350   23.9256 H   0  0  0  0  0  0
  -27.2634  -33.3644   26.2087 H   0  0  0  0  0  0
  -28.3832  -32.6915   25.0335 H   0  0  0  0  0  0
  -28.0684  -31.8468   26.5415 H   0  0  0  0  0  0
  -28.2603  -38.0099   24.7503 H   0  0  0  0  0  0
  -28.1063  -36.2630   24.6300 H   0  0  0  0  0  0
  -27.2284  -37.1468   25.8863 H   0  0  0  0  0  0
  -20.9301  -29.8778   21.6984 H   0  0  0  0  0  0
  -26.0173  -38.2865   24.1414 H   0  0  0  0  0  0
  -30.1993  -18.3938   24.7491 H   0  0  0  0  0  0
  -31.4234  -23.4007   23.5504 H   0  0  0  0  0  0
  -31.4224  -22.6631   25.1332 H   0  0  0  0  0  0
  -29.9309  -23.3438   24.5114 H   0  0  0  0  0  0
  -31.2175  -21.7909   19.8196 H   0  0  0  0  0  0
  -30.1021  -23.0044   19.2173 H   0  0  0  0  0  0
  -29.5503  -21.3584   19.4572 H   0  0  0  0  0  0
  -26.3097  -24.2156   22.7168 H   0  0  0  0  0  0
  -25.9517  -24.3466   21.0029 H   0  0  0  0  0  0
  -26.2975  -25.7828   21.9614 H   0  0  0  0  0  0
  -28.6283  -24.8473   23.5745 H   0  0  0  0  0  0
  -28.6251  -26.3332   22.6646 H   0  0  0  0  0  0
  -29.9505  -25.2167   22.4598 H   0  0  0  0  0  0
  -28.8280  -17.6566   21.3330 H   0  0  0  0  0  0
  -28.9187  -17.0914   22.9707 H   0  0  0  0  0  0
  -27.9527  -22.6452   22.3938 H   0  0  0  0  0  0
  -27.7174  -22.5556   20.6943 H   0  0  0  0  0  0
  -27.8199  -24.8665   19.2959 H   0  0  0  0  0  0
  -29.4437  -25.0227   19.8545 H   0  0  0  0  0  0
  -30.4900  -23.2546   21.6207 H   0  0  0  0  0  0
  -31.1544  -17.0474   20.8996 H   0  0  0  0  0  0
  -29.3539  -14.9973   21.9822 H   0  0  0  0  0  0
  1 25  1  0  0  0
  1 30  2  0  0  0
  1 88  1  0  0  0
  2  3  1  0  0  0
  2 25  1  0  0  0
  2 92  1  0  0  0
  2 93  1  0  0  0
  3  4  1  0  0  0
  3 94  1  0  0  0
  3 95  1  0  0  0
  4  5  1  0  0  0
  4 96  1  0  0  0
  4 97  1  0  0  0
  5  6  1  0  0  0
  5 26  1  0  0  0
  5 98  1  0  0  0
  6 25  1  0  0  0
  6 99  1  0  0  0
  6100  1  0  0  0
  7  8  2  0  0  0
  7 26  1  0  0  0
  7 29  1  0  0  0
  8  9  1  0  0  0
  8 22  1  0  0  0
  9 10  1  0  0  0
  9 27  2  0  0  0
 10 11  2  0  0  0
 10 15  1  0  0  0
 11 12  1  0  0  0
 11101  1  0  0  0
 12 13  2  0  0  0
 12102  1  0  0  0
 13 14  1  0  0  0
 13 31  1  0  0  0
 14 15  2  0  0  0
 14103  1  0  0  0
 15104  1  0  0  0
 16 17  2  0  0  0
 16 21  1  0  0  0
 16 31  1  0  0  0
 17 18  1  0  0  0
 17105  1  0  0  0
 18 19  2  0  0  0
 18106  1  0  0  0
 19 20  1  0  0  0
 19 24  1  0  0  0
 20 21  2  0  0  0
 20107  1  0  0  0
 21 23  1  0  0  0
 22 28  1  0  0  0
 22 32  2  0  0  0
 26 27  1  0  0  0
 28108  1  0  0  0
 28109  1  0  0  0
 29110  1  0  0  0
 29111  1  0  0  0
 33 34  1  0  0  0
 33 66  1  0  0  0
 33 70  2  0  0  0
 34 36  1  0  0  0
 34 59  1  0  0  0
 34112  1  0  0  0
 35 44  2  0  0  0
 35 45  1  0  0  0
 35 68  1  0  0  0
 36 56  1  0  0  0
 36113  1  0  0  0
 37 39  1  0  0  0
 37 47  1  0  0  0
 37 66  1  0  0  0
 37114  1  0  0  0
 38 43  2  0  0  0
 38 46  1  0  0  0
 38 47  1  0  0  0
 39 64  1  0  0  0
 39 67  2  0  0  0
 40 52  1  0  0  0
 40 53  2  0  0  0
 40 58  1  0  0  0
 41115  1  0  0  0
 41116  1  0  0  0
 41117  1  0  0  0
 41 48  1  0  0  0
 42 43  1  0  0  0
 42 66  1  0  0  0
 42118  1  0  0  0
 42119  1  0  0  0
 43 44  1  0  0  0
 44120  1  0  0  0
 45 46  2  0  0  0
 45121  1  0  0  0
 46122  1  0  0  0
 47123  1  0  0  0
 47124  1  0  0  0
 48 56  1  0  0  0
 48 65  1  0  0  0
 48125  1  0  0  0
 49 50  1  0  0  0
 49 53  1  0  0  0
 49 64  1  0  0  0
 49126  1  0  0  0
 50 51  1  0  0  0
 50127  1  0  0  0
 50128  1  0  0  0
 51 52  1  0  0  0
 51129  1  0  0  0
 51130  1  0  0  0
 52131  1  0  0  0
 52132  1  0  0  0
 53 54  1  0  0  0
 54 55  2  0  0  0
 54133  1  0  0  0
 55 57  1  0  0  0
 55134  1  0  0  0
 56 69  2  0  0  0
 57 58  2  0  0  0
 57135  1  0  0  0
 58136  1  0  0  0
 59 60  1  0  0  0
 59 61  1  0  0  0
 59 62  1  0  0  0
 60137  1  0  0  0
 60138  1  0  0  0
 60139  1  0  0  0
 61140  1  0  0  0
 61141  1  0  0  0
 61142  1  0  0  0
 62143  1  0  0  0
 62144  1  0  0  0
 62145  1  0  0  0
 63 65  1  0  0  0
 63146  1  0  0  0
 63147  1  0  0  0
 63148  1  0  0  0
 64149  1  0  0  0
 65150  1  0  0  0
 68 81  1  0  0  0
 71 72  2  0  0  0
 71 86  1  0  0  0
 71151  1  0  0  0
 72 79  1  0  0  0
 72 87  1  0  0  0
 73 74  1  0  0  0
 73 75  1  0  0  0
 73 86  2  0  0  0
 74 82  1  0  0  0
 74 87  2  0  0  0
 75152  1  0  0  0
 75153  1  0  0  0
 75154  1  0  0  0
 76155  1  0  0  0
 76156  1  0  0  0
 76157  1  0  0  0
 76 82  1  0  0  0
 77158  1  0  0  0
 77159  1  0  0  0
 77160  1  0  0  0
 77 84  1  0  0  0
 78 84  1  0  0  0
 78161  1  0  0  0
 78162  1  0  0  0
 78163  1  0  0  0
 79164  1  0  0  0
 79165  1  0  0  0
 79 83  1  0  0  0
 80 82  1  0  0  0
 80 84  1  0  0  0
 80166  1  0  0  0
 80167  1  0  0  0
 81 84  1  0  0  0
 81168  1  0  0  0
 81169  1  0  0  0
 82170  1  0  0  0
 83 85  1  0  0  0
 83 88  1  0  0  0
 83171  1  0  0  0
 85 89  1  0  0  0
 85 90  1  0  0  0
 85 91  1  0  0  0
 88172  1  0  0  0
M  ISO  4   1 100  68 101  81 101  88 100
M  END
> <chiral flag>
0

> <version>
0

> <s_m_source_file>
/data/baiqing/PycharmProjects/Reinvent-master-3.2/result/LINK_invent/BTK/process_docking_weight1_custom_sum_contain_oxygen_bond_distance_aromatic_linkinvent_7_9_3/rearranged_h_0069.sdf

> <i_m_source_file_index>
76

> <r_mmod_Potential_Energy-OPLS-2005>
-152.246978759766

> <r_mmod_Stretch_Energy-OPLS-2005>
47.5710220336914

> <r_mmod_Bend_Energy-OPLS-2005>
127.437980651855

> <r_mmod_Torsional_Energy-OPLS-2005>
209.008804321289

> <r_mmod_Improper_Torsional_Energy-OPLS-2005>
2.48457193374634

> <r_mmod_Van_der_Waal_Energy-OPLS-2005>
164.966537475586

> <r_mmod_Electrostatic_Energy-OPLS-2005>
-495.345855712891

> <r_mmod_Solvation_Energy-OPLS-2005>
-218.484924316406

> <b_mmod_Minimization_Converged-OPLS-2005>
0

> <r_mmod_RMS_Derivative-OPLS-2005>
1.06064832210541

$$$$
76
                    3D
 Structure written by MMmdl.
166174  0  0  1  0            999 V2000
  -30.7282  -14.4837   20.6001 C   0  0  0  0  0  0
  -30.4245  -12.3250   19.4216 C   0  0  0  0  0  0
  -29.4972  -12.5167   18.2041 C   0  0  0  0  0  0
  -28.0201  -12.3682   18.6160 C   0  0  0  0  0  0
  -27.6637  -13.2086   19.8744 C   0  0  2  0  0  0
  -28.7075  -13.0085   20.9977 C   0  0  0  0  0  0
  -25.2495  -13.8087   20.5547 C   0  0  0  0  0  0
  -24.1816  -13.0379   20.9183 C   0  0  0  0  0  0
  -24.6415  -11.6865   20.8760 C   0  0  0  0  0  0
  -23.9067  -10.4267   21.0414 C   0  0  0  0  0  0
  -24.3612   -9.4184   21.9195 C   0  0  0  0  0  0
  -23.6267   -8.2236   22.0774 C   0  0  0  0  0  0
  -22.4253   -8.0269   21.3553 C   0  0  0  0  0  0
  -21.9904   -9.0247   20.4661 C   0  0  0  0  0  0
  -22.7234  -10.2121   20.3066 C   0  0  0  0  0  0
  -21.6857   -6.0715   22.5278 C   0  0  0  0  0  0
  -21.4011   -6.5628   23.8208 C   0  0  0  0  0  0
  -21.3663   -5.6781   24.9168 C   0  0  0  0  0  0
  -21.6050   -4.3043   24.7228 C   0  0  0  0  0  0
  -21.8806   -3.8136   23.4348 C   0  0  0  0  0  0
  -21.9175   -4.6943   22.3405 C   0  0  0  0  0  0
  -22.7829  -13.5174   21.1836 C   0  0  0  0  0  0
  -22.1627   -4.2130   21.0975 F   0  0  0  0  0  0
  -21.5661   -3.4531   25.7741 F   0  0  0  0  0  0
  -30.0418  -13.3120   20.4480 N   0  0  0  0  0  0
  -26.3027  -12.9328   20.3348 N   0  0  0  0  0  0
  -25.9364  -11.6486   20.5835 N   0  0  0  0  0  0
  -22.0469  -12.8201   22.0407 N   0  0  0  0  0  0
  -25.3977  -15.1775   20.3661 N   0  0  0  0  0  0
  -31.8017  -14.7034   20.0298 O   0  0  0  0  0  0
  -21.6631   -6.8865   21.4240 O   0  0  0  0  0  0
  -22.3519  -14.5480   20.6674 O   0  0  0  0  0  0
  -24.6165  -31.8672   23.2077 C   0  0  0  0  0  0
  -25.9048  -32.4820   23.8391 C   0  0  1  0  0  0
  -27.2269  -27.4177   20.0952 C   0  0  0  0  0  0
  -25.5895  -33.8620   24.2325 N   0  0  0  0  0  0
  -23.4053  -30.4909   21.5509 C   0  0  2  0  0  0
  -24.8497  -28.9543   20.1142 C   0  0  0  0  0  0
  -22.7420  -29.4653   22.4990 C   0  0  0  0  0  0
  -18.0283  -28.1364   22.8506 C   0  0  0  0  0  0
  -24.1487  -36.7322   23.2635 C   0  0  0  0  0  0
  -25.9373  -30.8267   21.3625 C   0  0  0  0  0  0
  -26.0131  -29.4596   20.7098 C   0  0  0  0  0  0
  -27.2086  -28.6999   20.6941 C   0  0  0  0  0  0
  -26.0494  -26.9352   19.4853 C   0  0  0  0  0  0
  -24.8644  -27.6920   19.4958 C   0  0  0  0  0  0
  -23.6128  -29.8228   20.1663 C   0  0  0  0  0  0
  -25.4105  -36.3123   24.0342 C   0  0  1  0  0  0
  -20.5874  -28.3653   23.1324 C   0  0  2  0  0  0
  -20.6772  -26.9381   22.5423 C   0  0  0  0  0  0
  -19.5746  -26.6366   21.5227 C   0  0  0  0  0  0
  -18.1925  -26.7907   22.1640 C   0  0  0  0  0  0
  -19.1532  -28.8828   23.2913 C   0  0  0  0  0  0
  -18.9456  -30.1439   23.8921 C   0  0  0  0  0  0
  -17.6455  -30.6577   24.0560 C   0  0  0  0  0  0
  -25.9034  -34.9487   23.5138 C   0  0  0  0  0  0
  -16.5345  -29.9073   23.6324 C   0  0  0  0  0  0
  -16.7271  -28.6482   23.0357 C   0  0  0  0  0  0
  -26.4465  -31.6600   25.0727 C   0  0  0  0  0  0
  -25.3725  -31.3705   26.1470 C   0  0  0  0  0  0
  -27.0256  -30.3042   24.6066 C   0  0  0  0  0  0
  -27.6053  -32.4302   25.7480 C   0  0  0  0  0  0
  -27.5587  -37.1818   24.8469 C   0  0  0  0  0  0
  -21.4145  -29.3031   22.3737 N   0  0  0  0  0  0
  -26.4304  -37.3801   23.9413 N   0  0  0  0  0  0
  -24.6722  -31.0759   22.0983 N   0  0  0  0  0  0
  -23.4193  -28.8183   23.3024 O   0  0  0  0  0  0
  -28.3653  -26.6365   20.0980 O   0  0  0  0  0  0
  -26.5604  -34.8934   22.4705 O   0  0  0  0  0  0
  -23.5351  -32.1426   23.7458 O   0  0  0  0  0  0
  -30.0225  -20.4788   18.1877 C   0  0  0  0  0  0
  -29.3080  -20.3599   20.7761 C   0  0  0  0  0  0
  -29.0818  -21.5245   19.9875 C   0  0  0  0  0  0
  -29.9951  -19.2794   20.1445 C   0  0  0  0  0  0
  -27.2797  -20.2141   22.3359 C   0  0  0  0  0  0
  -28.1449  -16.9289   21.1754 C   0  0  0  0  0  0
  -30.4172  -15.5566   22.7452 C   0  0  0  0  0  0
  -28.8149  -20.2807   22.2261 C   0  0  0  0  0  0
  -28.3492  -22.7808   20.4920 C   0  0  0  0  0  0
  -30.4817  -17.9781   20.8344 C   0  0  0  0  0  0
  -28.8331  -24.1527   19.9386 C   0  0  0  0  0  0
  -28.2062  -25.3406   20.7146 C   0  0  0  0  0  0
  -29.5812  -16.7048   20.6819 C   0  0  1  0  0  0
  -29.4237  -21.5490   18.6878 N   0  0  0  0  0  0
  -30.3289  -19.3680   18.8438 N   0  0  0  0  0  0
  -30.1159  -15.4641   21.3144 N   0  0  0  0  0  0
  -31.4672  -12.4238   19.1148 H   0  0  0  0  0  0
  -30.3273  -11.3125   19.8200 H   0  0  0  0  0  0
  -29.7427  -11.8009   17.4175 H   0  0  0  0  0  0
  -29.6606  -13.5041   17.7707 H   0  0  0  0  0  0
  -27.8311  -11.3107   18.8070 H   0  0  0  0  0  0
  -27.3752  -12.6433   17.7805 H   0  0  0  0  0  0
  -27.7042  -14.2575   19.5788 H   0  0  0  0  0  0
  -28.6830  -11.9824   21.3655 H   0  0  0  0  0  0
  -28.4629  -13.6292   21.8587 H   0  0  0  0  0  0
  -25.2770   -9.5651   22.4753 H   0  0  0  0  0  0
  -23.9972   -7.4633   22.7504 H   0  0  0  0  0  0
  -21.0840   -8.8756   19.8974 H   0  0  0  0  0  0
  -22.3688  -10.9659   19.6169 H   0  0  0  0  0  0
  -21.1998   -7.6137   23.9691 H   0  0  0  0  0  0
  -21.1515   -6.0528   25.9064 H   0  0  0  0  0  0
  -22.0588   -2.7607   23.2854 H   0  0  0  0  0  0
  -22.4090  -11.9880   22.4833 H   0  0  0  0  0  0
  -21.1093  -13.1276   22.2565 H   0  0  0  0  0  0
  -24.6312  -15.8267   20.4984 H   0  0  0  0  0  0
  -26.2327  -15.6204   20.0091 H   0  0  0  0  0  0
  -26.7106  -32.5535   23.1150 H   0  0  0  0  0  0
  -25.0048  -33.9757   25.0472 H   0  0  0  0  0  0
  -22.6961  -31.3103   21.4125 H   0  0  0  0  0  0
  -23.3749  -35.9658   23.3313 H   0  0  0  0  0  0
  -24.3587  -36.8911   22.2046 H   0  0  0  0  0  0
  -23.7229  -37.6532   23.6627 H   0  0  0  0  0  0
  -26.0495  -31.5864   20.5878 H   0  0  0  0  0  0
  -26.8276  -30.8840   21.9776 H   0  0  0  0  0  0
  -28.1079  -29.0827   21.1556 H   0  0  0  0  0  0
  -26.0496  -25.9671   19.0039 H   0  0  0  0  0  0
  -23.9731  -27.2977   19.0272 H   0  0  0  0  0  0
  -23.7208  -30.5994   19.4085 H   0  0  0  0  0  0
  -22.7370  -29.2424   19.8694 H   0  0  0  0  0  0
  -25.1276  -36.2008   25.0835 H   0  0  0  0  0  0
  -20.9965  -28.3211   24.1445 H   0  0  0  0  0  0
  -20.5670  -26.2256   23.3616 H   0  0  0  0  0  0
  -21.6646  -26.7419   22.1214 H   0  0  0  0  0  0
  -19.6899  -25.6279   21.1253 H   0  0  0  0  0  0
  -19.6684  -27.3185   20.6762 H   0  0  0  0  0  0
  -17.4188  -26.6672   21.4035 H   0  0  0  0  0  0
  -18.0318  -26.0039   22.9032 H   0  0  0  0  0  0
  -19.7930  -30.7259   24.2295 H   0  0  0  0  0  0
  -17.5002  -31.6262   24.5146 H   0  0  0  0  0  0
  -15.5339  -30.2978   23.7629 H   0  0  0  0  0  0
  -15.8674  -28.0791   22.7076 H   0  0  0  0  0  0
  -24.5937  -30.6990   25.7838 H   0  0  0  0  0  0
  -24.8847  -32.2834   26.4892 H   0  0  0  0  0  0
  -25.8080  -30.8929   27.0253 H   0  0  0  0  0  0
  -26.2771  -29.6861   24.1076 H   0  0  0  0  0  0
  -27.3990  -29.7224   25.4506 H   0  0  0  0  0  0
  -27.8643  -30.4381   23.9225 H   0  0  0  0  0  0
  -27.2707  -33.3615   26.2063 H   0  0  0  0  0  0
  -28.3858  -32.6825   25.0292 H   0  0  0  0  0  0
  -28.0717  -31.8405   26.5379 H   0  0  0  0  0  0
  -28.2622  -38.0100   24.7519 H   0  0  0  0  0  0
  -28.1065  -36.2635   24.6300 H   0  0  0  0  0  0
  -27.2308  -37.1482   25.8873 H   0  0  0  0  0  0
  -20.9318  -29.8753   21.6949 H   0  0  0  0  0  0
  -26.0204  -38.2893   24.1388 H   0  0  0  0  0  0
  -30.3083  -20.5271   17.1474 H   0  0  0  0  0  0
  -26.9686  -20.0871   23.3740 H   0  0  0  0  0  0
  -26.8669  -19.3799   21.7698 H   0  0  0  0  0  0
  -26.7929  -21.1175   21.9743 H   0  0  0  0  0  0
  -27.5785  -17.5443   20.4777 H   0  0  0  0  0  0
  -28.1236  -17.4146   22.1494 H   0  0  0  0  0  0
  -27.6259  -15.9833   21.3028 H   0  0  0  0  0  0
  -30.2407  -14.5993   23.2365 H   0  0  0  0  0  0
  -29.7994  -16.2959   23.2548 H   0  0  0  0  0  0
  -31.4614  -15.8277   22.9040 H   0  0  0  0  0  0
  -29.2211  -19.4131   22.7389 H   0  0  0  0  0  0
  -29.1927  -21.1307   22.7938 H   0  0  0  0  0  0
  -28.4308  -22.8280   21.5747 H   0  0  0  0  0  0
  -27.2876  -22.6612   20.2754 H   0  0  0  0  0  0
  -30.7066  -18.1801   21.8794 H   0  0  0  0  0  0
  -31.4558  -17.7393   20.4065 H   0  0  0  0  0  0
  -28.5684  -24.2184   18.8824 H   0  0  0  0  0  0
  -29.9202  -24.2149   19.9919 H   0  0  0  0  0  0
  -28.6713  -25.3993   21.7004 H   0  0  0  0  0  0
  -27.1591  -25.0992   20.9075 H   0  0  0  0  0  0
  -29.5004  -16.5012   19.6117 H   0  0  0  0  0  0
  1 25  1  0  0  0
  1 30  2  0  0  0
  1 86  1  0  0  0
  2  3  1  0  0  0
  2 25  1  0  0  0
  2 87  1  0  0  0
  2 88  1  0  0  0
  3  4  1  0  0  0
  3 89  1  0  0  0
  3 90  1  0  0  0
  4  5  1  0  0  0
  4 91  1  0  0  0
  4 92  1  0  0  0
  5  6  1  0  0  0
  5 26  1  0  0  0
  5 93  1  0  0  0
  6 25  1  0  0  0
  6 94  1  0  0  0
  6 95  1  0  0  0
  7  8  2  0  0  0
  7 26  1  0  0  0
  7 29  1  0  0  0
  8  9  1  0  0  0
  8 22  1  0  0  0
  9 10  1  0  0  0
  9 27  2  0  0  0
 10 11  2  0  0  0
 10 15  1  0  0  0
 11 12  1  0  0  0
 11 96  1  0  0  0
 12 13  2  0  0  0
 12 97  1  0  0  0
 13 14  1  0  0  0
 13 31  1  0  0  0
 14 15  2  0  0  0
 14 98  1  0  0  0
 15 99  1  0  0  0
 16 17  2  0  0  0
 16 21  1  0  0  0
 16 31  1  0  0  0
 17 18  1  0  0  0
 17100  1  0  0  0
 18 19  2  0  0  0
 18101  1  0  0  0
 19 20  1  0  0  0
 19 24  1  0  0  0
 20 21  2  0  0  0
 20102  1  0  0  0
 21 23  1  0  0  0
 22 28  1  0  0  0
 22 32  2  0  0  0
 26 27  1  0  0  0
 28103  1  0  0  0
 28104  1  0  0  0
 29105  1  0  0  0
 29106  1  0  0  0
 33 34  1  0  0  0
 33 66  1  0  0  0
 33 70  2  0  0  0
 34 36  1  0  0  0
 34 59  1  0  0  0
 34107  1  0  0  0
 35 44  2  0  0  0
 35 45  1  0  0  0
 35 68  1  0  0  0
 36 56  1  0  0  0
 36108  1  0  0  0
 37 39  1  0  0  0
 37 47  1  0  0  0
 37 66  1  0  0  0
 37109  1  0  0  0
 38 43  2  0  0  0
 38 46  1  0  0  0
 38 47  1  0  0  0
 39 64  1  0  0  0
 39 67  2  0  0  0
 40 52  1  0  0  0
 40 53  2  0  0  0
 40 58  1  0  0  0
 41110  1  0  0  0
 41111  1  0  0  0
 41112  1  0  0  0
 41 48  1  0  0  0
 42 43  1  0  0  0
 42 66  1  0  0  0
 42113  1  0  0  0
 42114  1  0  0  0
 43 44  1  0  0  0
 44115  1  0  0  0
 45 46  2  0  0  0
 45116  1  0  0  0
 46117  1  0  0  0
 47118  1  0  0  0
 47119  1  0  0  0
 48 56  1  0  0  0
 48 65  1  0  0  0
 48120  1  0  0  0
 49 50  1  0  0  0
 49 53  1  0  0  0
 49 64  1  0  0  0
 49121  1  0  0  0
 50 51  1  0  0  0
 50122  1  0  0  0
 50123  1  0  0  0
 51 52  1  0  0  0
 51124  1  0  0  0
 51125  1  0  0  0
 52126  1  0  0  0
 52127  1  0  0  0
 53 54  1  0  0  0
 54 55  2  0  0  0
 54128  1  0  0  0
 55 57  1  0  0  0
 55129  1  0  0  0
 56 69  2  0  0  0
 57 58  2  0  0  0
 57130  1  0  0  0
 58131  1  0  0  0
 59 60  1  0  0  0
 59 61  1  0  0  0
 59 62  1  0  0  0
 60132  1  0  0  0
 60133  1  0  0  0
 60134  1  0  0  0
 61135  1  0  0  0
 61136  1  0  0  0
 61137  1  0  0  0
 62138  1  0  0  0
 62139  1  0  0  0
 62140  1  0  0  0
 63 65  1  0  0  0
 63141  1  0  0  0
 63142  1  0  0  0
 63143  1  0  0  0
 64144  1  0  0  0
 65145  1  0  0  0
 68 82  1  0  0  0
 71 84  2  0  0  0
 71 85  1  0  0  0
 71146  1  0  0  0
 72 73  2  0  0  0
 72 74  1  0  0  0
 72 78  1  0  0  0
 73 79  1  0  0  0
 73 84  1  0  0  0
 74 80  1  0  0  0
 74 85  2  0  0  0
 75 78  1  0  0  0
 75147  1  0  0  0
 75148  1  0  0  0
 75149  1  0  0  0
 76150  1  0  0  0
 76151  1  0  0  0
 76152  1  0  0  0
 76 83  1  0  0  0
 77 86  1  0  0  0
 77153  1  0  0  0
 77154  1  0  0  0
 77155  1  0  0  0
 78156  1  0  0  0
 78157  1  0  0  0
 79 81  1  0  0  0
 79158  1  0  0  0
 79159  1  0  0  0
 80 83  1  0  0  0
 80160  1  0  0  0
 80161  1  0  0  0
 81 82  1  0  0  0
 81162  1  0  0  0
 81163  1  0  0  0
 82164  1  0  0  0
 82165  1  0  0  0
 83 86  1  0  0  0
 83166  1  0  0  0
M  ISO  4   1 100  68 101  82 101  86 100
M  END
> <chiral flag>
0

> <version>
0

> <s_m_source_file>
/data/baiqing/PycharmProjects/Reinvent-master-3.2/result/LINK_invent/BTK/process_docking_weight1_custom_sum_contain_oxygen_bond_distance_aromatic_linkinvent_7_9_3/rearranged_h_0069.sdf

> <i_m_source_file_index>
77

> <r_mmod_Potential_Energy-OPLS-2005>
-204.181015014648

> <r_mmod_Stretch_Energy-OPLS-2005>
47.2936630249023

> <r_mmod_Bend_Energy-OPLS-2005>
108.454299926758

> <r_mmod_Torsional_Energy-OPLS-2005>
319.20263671875

> <r_mmod_Improper_Torsional_Energy-OPLS-2005>
4.4209303855896

> <r_mmod_Van_der_Waal_Energy-OPLS-2005>
155.822540283203

> <r_mmod_Electrostatic_Energy-OPLS-2005>
-642.19384765625

> <r_mmod_Solvation_Energy-OPLS-2005>
-211.8251953125

> <b_mmod_Minimization_Converged-OPLS-2005>
0

> <r_mmod_RMS_Derivative-OPLS-2005>
3.31605124473572

$$$$
77
                    3D
 Structure written by MMmdl.
161169  0  0  1  0            999 V2000
  -30.6273  -14.7246   20.4568 C   0  0  0  0  0  0
  -30.4259  -12.4444   19.4572 C   0  0  0  0  0  0
  -29.5011  -12.4997   18.2223 C   0  0  0  0  0  0
  -28.0276  -12.3317   18.6418 C   0  0  0  0  0  0
  -27.6390  -13.2317   19.8462 C   0  0  2  0  0  0
  -28.6882  -13.1630   20.9767 C   0  0  0  0  0  0
  -25.2498  -13.8184   20.5694 C   0  0  0  0  0  0
  -24.1804  -13.0433   20.9217 C   0  0  0  0  0  0
  -24.6398  -11.6910   20.8763 C   0  0  0  0  0  0
  -23.9071  -10.4289   21.0408 C   0  0  0  0  0  0
  -24.3621   -9.4206   21.9189 C   0  0  0  0  0  0
  -23.6297   -8.2242   22.0756 C   0  0  0  0  0  0
  -22.4279   -8.0281   21.3545 C   0  0  0  0  0  0
  -21.9916   -9.0257   20.4649 C   0  0  0  0  0  0
  -22.7242  -10.2132   20.3062 C   0  0  0  0  0  0
  -21.6858   -6.0736   22.5283 C   0  0  0  0  0  0
  -21.4008   -6.5638   23.8216 C   0  0  0  0  0  0
  -21.3662   -5.6792   24.9179 C   0  0  0  0  0  0
  -21.6042   -4.3056   24.7227 C   0  0  0  0  0  0
  -21.8824   -3.8150   23.4350 C   0  0  0  0  0  0
  -21.9189   -4.6963   22.3404 C   0  0  0  0  0  0
  -22.7826  -13.5218   21.1880 C   0  0  0  0  0  0
  -22.1665   -4.2152   21.0984 F   0  0  0  0  0  0
  -21.5630   -3.4543   25.7740 F   0  0  0  0  0  0
  -29.9855  -13.5103   20.3859 N   0  0  0  0  0  0
  -26.2930  -12.9402   20.3283 N   0  0  0  0  0  0
  -25.9324  -11.6538   20.5751 N   0  0  0  0  0  0
  -22.0473  -12.8210   22.0421 N   0  0  0  0  0  0
  -25.4151  -15.1917   20.4099 N   0  0  0  0  0  0
  -31.8281  -14.7840   20.1884 O   0  0  0  0  0  0
  -21.6645   -6.8881   21.4242 O   0  0  0  0  0  0
  -22.3520  -14.5532   20.6722 O   0  0  0  0  0  0
  -24.6291  -31.8545   23.1941 C   0  0  0  0  0  0
  -25.9099  -32.4765   23.8305 C   0  0  1  0  0  0
  -27.2225  -27.2777   20.1392 C   0  0  0  0  0  0
  -25.5854  -33.8561   24.2215 N   0  0  0  0  0  0
  -23.4264  -30.4779   21.5365 C   0  0  2  0  0  0
  -24.8732  -28.9145   20.1192 C   0  0  0  0  0  0
  -22.7500  -29.4599   22.4866 C   0  0  0  0  0  0
  -18.0283  -28.1435   22.8508 C   0  0  0  0  0  0
  -24.1443  -36.7277   23.2661 C   0  0  0  0  0  0
  -25.9689  -30.7775   21.3655 C   0  0  0  0  0  0
  -26.0443  -29.3952   20.7210 C   0  0  0  0  0  0
  -27.2260  -28.5913   20.7124 C   0  0  0  0  0  0
  -26.0295  -26.8463   19.5282 C   0  0  0  0  0  0
  -24.8684  -27.6455   19.5148 C   0  0  0  0  0  0
  -23.6476  -29.8067   20.1541 C   0  0  0  0  0  0
  -25.4079  -36.3079   24.0338 C   0  0  1  0  0  0
  -20.5898  -28.3732   23.1263 C   0  0  2  0  0  0
  -20.6764  -26.9445   22.5418 C   0  0  0  0  0  0
  -19.5728  -26.6417   21.5238 C   0  0  0  0  0  0
  -18.1913  -26.7968   22.1652 C   0  0  0  0  0  0
  -19.1547  -28.8891   23.2893 C   0  0  0  0  0  0
  -18.9496  -30.1489   23.8928 C   0  0  0  0  0  0
  -17.6509  -30.6642   24.0583 C   0  0  0  0  0  0
  -25.9033  -34.9460   23.5094 C   0  0  0  0  0  0
  -16.5388  -29.9175   23.6336 C   0  0  0  0  0  0
  -16.7278  -28.6581   23.0366 C   0  0  0  0  0  0
  -26.4473  -31.6606   25.0701 C   0  0  0  0  0  0
  -25.3700  -31.3770   26.1436 C   0  0  0  0  0  0
  -27.0329  -30.3033   24.6175 C   0  0  0  0  0  0
  -27.6003  -32.4371   25.7498 C   0  0  0  0  0  0
  -27.5539  -37.1788   24.8483 C   0  0  0  0  0  0
  -21.4205  -29.3065   22.3637 N   0  0  0  0  0  0
  -26.4242  -37.3786   23.9448 N   0  0  0  0  0  0
  -24.6945  -31.0543   22.0894 N   0  0  0  0  0  0
  -23.4207  -28.8136   23.2957 O   0  0  0  0  0  0
  -28.3389  -26.4241   20.0762 O   0  0  0  0  0  0
  -26.5677  -34.8945   22.4705 O   0  0  0  0  0  0
  -23.5446  -32.1344   23.7258 O   0  0  0  0  0  0
  -28.3594  -21.1826   23.0954 C   0  0  0  0  0  0
  -28.3132  -22.3570   22.3283 C   0  0  0  0  0  0
  -28.6358  -19.9319   22.5051 C   0  0  0  0  0  0
  -28.6039  -22.3199   20.9552 C   0  0  0  0  0  0
  -28.9233  -19.8861   21.1107 C   0  0  0  0  0  0
  -31.4555  -17.7213   19.8348 C   0  0  0  0  0  0
  -29.5645  -25.4058   21.7756 C   0  0  0  0  0  0
  -28.5279  -23.6813   20.1113 C   0  0  0  0  0  0
  -29.0672  -18.4745   20.3603 C   0  0  0  0  0  0
  -30.2236  -17.3776   20.7001 C   0  0  1  0  0  0
  -28.3690  -25.1372   20.8409 C   0  0  2  0  0  0
  -28.5835  -18.7016   23.4221 C   0  0  0  0  0  0
  -28.9072  -21.0824   20.3766 N   0  0  0  0  0  0
  -29.8626  -15.8755   20.6214 N   0  0  0  0  0  0
  -29.8111  -18.4163   23.8492 F   0  0  0  0  0  0
  -27.8293  -18.9467   24.4949 F   0  0  0  0  0  0
  -28.0657  -17.6267   22.8320 F   0  0  0  0  0  0
  -31.4666  -12.5600   19.1513 H   0  0  0  0  0  0
  -30.3634  -11.4677   19.9402 H   0  0  0  0  0  0
  -29.7757  -11.7217   17.5080 H   0  0  0  0  0  0
  -29.6314  -13.4515   17.7027 H   0  0  0  0  0  0
  -27.8821  -11.2826   18.9038 H   0  0  0  0  0  0
  -27.3678  -12.5260   17.7944 H   0  0  0  0  0  0
  -27.6323  -14.2533   19.4644 H   0  0  0  0  0  0
  -28.7234  -12.1646   21.4153 H   0  0  0  0  0  0
  -28.4315  -13.8453   21.7877 H   0  0  0  0  0  0
  -25.2764   -9.5689   22.4769 H   0  0  0  0  0  0
  -24.0009   -7.4637   22.7478 H   0  0  0  0  0  0
  -21.0851   -8.8774   19.8965 H   0  0  0  0  0  0
  -22.3698  -10.9674   19.6180 H   0  0  0  0  0  0
  -21.1998   -7.6149   23.9717 H   0  0  0  0  0  0
  -21.1480   -6.0526   25.9080 H   0  0  0  0  0  0
  -22.0596   -2.7614   23.2850 H   0  0  0  0  0  0
  -22.4082  -11.9861   22.4808 H   0  0  0  0  0  0
  -21.1095  -13.1238   22.2623 H   0  0  0  0  0  0
  -24.6390  -15.8338   20.5223 H   0  0  0  0  0  0
  -26.2465  -15.6385   20.0493 H   0  0  0  0  0  0
  -26.7174  -32.5435   23.1068 H   0  0  0  0  0  0
  -24.9840  -33.9669   25.0250 H   0  0  0  0  0  0
  -22.7243  -31.2994   21.3855 H   0  0  0  0  0  0
  -23.3704  -35.9602   23.3353 H   0  0  0  0  0  0
  -24.3503  -36.8891   22.2064 H   0  0  0  0  0  0
  -23.7188  -37.6478   23.6684 H   0  0  0  0  0  0
  -26.0970  -31.5315   20.5878 H   0  0  0  0  0  0
  -26.8511  -30.8373   21.9922 H   0  0  0  0  0  0
  -28.1344  -28.9622   21.1668 H   0  0  0  0  0  0
  -25.9982  -25.8728   19.0594 H   0  0  0  0  0  0
  -23.9700  -27.2665   19.0455 H   0  0  0  0  0  0
  -23.7862  -30.5822   19.3991 H   0  0  0  0  0  0
  -22.7655  -29.2472   19.8388 H   0  0  0  0  0  0
  -25.1259  -36.1915   25.0824 H   0  0  0  0  0  0
  -21.0013  -28.3327   24.1375 H   0  0  0  0  0  0
  -20.5658  -26.2352   23.3633 H   0  0  0  0  0  0
  -21.6626  -26.7450   22.1214 H   0  0  0  0  0  0
  -19.6869  -25.6334   21.1262 H   0  0  0  0  0  0
  -19.6654  -27.3226   20.6774 H   0  0  0  0  0  0
  -17.4167  -26.6732   21.4072 H   0  0  0  0  0  0
  -18.0306  -26.0134   22.9065 H   0  0  0  0  0  0
  -19.7982  -30.7283   24.2309 H   0  0  0  0  0  0
  -17.5090  -31.6324   24.5191 H   0  0  0  0  0  0
  -15.5401  -30.3118   23.7637 H   0  0  0  0  0  0
  -15.8665  -28.0928   22.7069 H   0  0  0  0  0  0
  -24.5855  -30.7133   25.7790 H   0  0  0  0  0  0
  -24.8898  -32.2949   26.4850 H   0  0  0  0  0  0
  -25.8009  -30.8976   27.0234 H   0  0  0  0  0  0
  -26.2921  -29.6804   24.1147 H   0  0  0  0  0  0
  -27.3986  -29.7285   25.4689 H   0  0  0  0  0  0
  -27.8797  -30.4342   23.9434 H   0  0  0  0  0  0
  -27.2577  -33.3686   26.2026 H   0  0  0  0  0  0
  -28.3841  -32.6915   25.0349 H   0  0  0  0  0  0
  -28.0630  -31.8531   26.5470 H   0  0  0  0  0  0
  -28.2600  -38.0046   24.7510 H   0  0  0  0  0  0
  -28.0986  -36.2587   24.6324 H   0  0  0  0  0  0
  -27.2269  -37.1470   25.8890 H   0  0  0  0  0  0
  -20.9380  -29.8824   21.6884 H   0  0  0  0  0  0
  -26.0123  -38.2844   24.1505 H   0  0  0  0  0  0
  -28.1452  -21.2575   24.1519 H   0  0  0  0  0  0
  -28.0397  -23.2783   22.8212 H   0  0  0  0  0  0
  -31.6718  -18.7899   19.8730 H   0  0  0  0  0  0
  -31.2952  -17.4537   18.7893 H   0  0  0  0  0  0
  -32.3595  -17.2180   20.1754 H   0  0  0  0  0  0
  -29.7379  -24.6175   22.5034 H   0  0  0  0  0  0
  -29.4227  -26.3325   22.3319 H   0  0  0  0  0  0
  -30.4825  -25.5078   21.1977 H   0  0  0  0  0  0
  -29.4135  -23.7169   19.4788 H   0  0  0  0  0  0
  -27.6889  -23.5633   19.4255 H   0  0  0  0  0  0
  -29.1197  -18.6915   19.2931 H   0  0  0  0  0  0
  -28.0981  -17.9867   20.4607 H   0  0  0  0  0  0
  -30.5207  -17.5323   21.7339 H   0  0  0  0  0  0
  -27.4625  -25.0959   21.4469 H   0  0  0  0  0  0
  -28.8836  -15.6761   20.7594 H   0  0  0  0  0  0
  1 25  1  0  0  0
  1 30  2  0  0  0
  1 84  1  0  0  0
  2  3  1  0  0  0
  2 25  1  0  0  0
  2 88  1  0  0  0
  2 89  1  0  0  0
  3  4  1  0  0  0
  3 90  1  0  0  0
  3 91  1  0  0  0
  4  5  1  0  0  0
  4 92  1  0  0  0
  4 93  1  0  0  0
  5  6  1  0  0  0
  5 26  1  0  0  0
  5 94  1  0  0  0
  6 25  1  0  0  0
  6 95  1  0  0  0
  6 96  1  0  0  0
  7  8  2  0  0  0
  7 26  1  0  0  0
  7 29  1  0  0  0
  8  9  1  0  0  0
  8 22  1  0  0  0
  9 10  1  0  0  0
  9 27  2  0  0  0
 10 11  2  0  0  0
 10 15  1  0  0  0
 11 12  1  0  0  0
 11 97  1  0  0  0
 12 13  2  0  0  0
 12 98  1  0  0  0
 13 14  1  0  0  0
 13 31  1  0  0  0
 14 15  2  0  0  0
 14 99  1  0  0  0
 15100  1  0  0  0
 16 17  2  0  0  0
 16 21  1  0  0  0
 16 31  1  0  0  0
 17 18  1  0  0  0
 17101  1  0  0  0
 18 19  2  0  0  0
 18102  1  0  0  0
 19 20  1  0  0  0
 19 24  1  0  0  0
 20 21  2  0  0  0
 20103  1  0  0  0
 21 23  1  0  0  0
 22 28  1  0  0  0
 22 32  2  0  0  0
 26 27  1  0  0  0
 28104  1  0  0  0
 28105  1  0  0  0
 29106  1  0  0  0
 29107  1  0  0  0
 33 34  1  0  0  0
 33 66  1  0  0  0
 33 70  2  0  0  0
 34 36  1  0  0  0
 34 59  1  0  0  0
 34108  1  0  0  0
 35 44  2  0  0  0
 35 45  1  0  0  0
 35 68  1  0  0  0
 36 56  1  0  0  0
 36109  1  0  0  0
 37 39  1  0  0  0
 37 47  1  0  0  0
 37 66  1  0  0  0
 37110  1  0  0  0
 38 43  2  0  0  0
 38 46  1  0  0  0
 38 47  1  0  0  0
 39 64  1  0  0  0
 39 67  2  0  0  0
 40 52  1  0  0  0
 40 53  2  0  0  0
 40 58  1  0  0  0
 41111  1  0  0  0
 41112  1  0  0  0
 41113  1  0  0  0
 41 48  1  0  0  0
 42 43  1  0  0  0
 42 66  1  0  0  0
 42114  1  0  0  0
 42115  1  0  0  0
 43 44  1  0  0  0
 44116  1  0  0  0
 45 46  2  0  0  0
 45117  1  0  0  0
 46118  1  0  0  0
 47119  1  0  0  0
 47120  1  0  0  0
 48 56  1  0  0  0
 48 65  1  0  0  0
 48121  1  0  0  0
 49 50  1  0  0  0
 49 53  1  0  0  0
 49 64  1  0  0  0
 49122  1  0  0  0
 50 51  1  0  0  0
 50123  1  0  0  0
 50124  1  0  0  0
 51 52  1  0  0  0
 51125  1  0  0  0
 51126  1  0  0  0
 52127  1  0  0  0
 52128  1  0  0  0
 53 54  1  0  0  0
 54 55  2  0  0  0
 54129  1  0  0  0
 55 57  1  0  0  0
 55130  1  0  0  0
 56 69  2  0  0  0
 57 58  2  0  0  0
 57131  1  0  0  0
 58132  1  0  0  0
 59 60  1  0  0  0
 59 61  1  0  0  0
 59 62  1  0  0  0
 60133  1  0  0  0
 60134  1  0  0  0
 60135  1  0  0  0
 61136  1  0  0  0
 61137  1  0  0  0
 61138  1  0  0  0
 62139  1  0  0  0
 62140  1  0  0  0
 62141  1  0  0  0
 63 65  1  0  0  0
 63142  1  0  0  0
 63143  1  0  0  0
 63144  1  0  0  0
 64145  1  0  0  0
 65146  1  0  0  0
 68 81  1  0  0  0
 71 72  2  0  0  0
 71 73  1  0  0  0
 71147  1  0  0  0
 72 74  1  0  0  0
 72148  1  0  0  0
 73 75  2  0  0  0
 73 82  1  0  0  0
 74 78  1  0  0  0
 74 83  2  0  0  0
 75 79  1  0  0  0
 75 83  1  0  0  0
 76149  1  0  0  0
 76150  1  0  0  0
 76151  1  0  0  0
 76 80  1  0  0  0
 77152  1  0  0  0
 77153  1  0  0  0
 77154  1  0  0  0
 77 81  1  0  0  0
 78 81  1  0  0  0
 78155  1  0  0  0
 78156  1  0  0  0
 79 80  1  0  0  0
 79157  1  0  0  0
 79158  1  0  0  0
 80 84  1  0  0  0
 80159  1  0  0  0
 81160  1  0  0  0
 82 85  1  0  0  0
 82 86  1  0  0  0
 82 87  1  0  0  0
 84161  1  0  0  0
M  ISO  4   1 100  68 101  81 101  84 100
M  END
> <chiral flag>
0

> <version>
0

> <s_m_source_file>
/data/baiqing/PycharmProjects/Reinvent-master-3.2/result/LINK_invent/BTK/process_docking_weight1_custom_sum_contain_oxygen_bond_distance_aromatic_linkinvent_7_9_3/rearranged_h_0069.sdf

> <i_m_source_file_index>
78

> <r_mmod_Potential_Energy-OPLS-2005>
153.933990478516

> <r_mmod_Stretch_Energy-OPLS-2005>
136.428756713867

> <r_mmod_Bend_Energy-OPLS-2005>
182.313064575195

> <r_mmod_Torsional_Energy-OPLS-2005>
231.869522094727

> <r_mmod_Improper_Torsional_Energy-OPLS-2005>
5.41914558410645

> <r_mmod_Van_der_Waal_Energy-OPLS-2005>
141.19856262207

> <r_mmod_Electrostatic_Energy-OPLS-2005>
-408.68115234375

> <r_mmod_Solvation_Energy-OPLS-2005>
-208.348892211914

> <b_mmod_Minimization_Converged-OPLS-2005>
0

> <r_mmod_RMS_Derivative-OPLS-2005>
2.49346089363098

$$$$
78
                    3D
 Structure written by MMmdl.
172180  0  0  1  0            999 V2000
  -30.7097  -14.6053   20.5361 C   0  0  0  0  0  0
  -30.4260  -12.4005   19.4257 C   0  0  0  0  0  0
  -29.4889  -12.5102   18.2054 C   0  0  0  0  0  0
  -28.0145  -12.3388   18.6225 C   0  0  0  0  0  0
  -27.6494  -13.2021   19.8555 C   0  0  2  0  0  0
  -28.7057  -13.0339   20.9724 C   0  0  0  0  0  0
  -25.2536  -13.8117   20.5639 C   0  0  0  0  0  0
  -24.1809  -13.0401   20.9193 C   0  0  0  0  0  0
  -24.6388  -11.6887   20.8777 C   0  0  0  0  0  0
  -23.9059  -10.4277   21.0439 C   0  0  0  0  0  0
  -24.3619   -9.4185   21.9201 C   0  0  0  0  0  0
  -23.6302   -8.2220   22.0767 C   0  0  0  0  0  0
  -22.4276   -8.0270   21.3558 C   0  0  0  0  0  0
  -21.9919   -9.0237   20.4639 C   0  0  0  0  0  0
  -22.7248  -10.2121   20.3067 C   0  0  0  0  0  0
  -21.6823   -6.0739   22.5275 C   0  0  0  0  0  0
  -21.3994   -6.5637   23.8212 C   0  0  0  0  0  0
  -21.3672   -5.6793   24.9175 C   0  0  0  0  0  0
  -21.6064   -4.3061   24.7225 C   0  0  0  0  0  0
  -21.8823   -3.8156   23.4343 C   0  0  0  0  0  0
  -21.9186   -4.6972   22.3400 C   0  0  0  0  0  0
  -22.7828  -13.5198   21.1847 C   0  0  0  0  0  0
  -22.1650   -4.2157   21.0983 F   0  0  0  0  0  0
  -21.5652   -3.4554   25.7744 F   0  0  0  0  0  0
  -30.0015  -13.4300   20.4018 N   0  0  0  0  0  0
  -26.2976  -12.9291   20.3322 N   0  0  0  0  0  0
  -25.9308  -11.6461   20.5796 N   0  0  0  0  0  0
  -22.0461  -12.8197   22.0403 N   0  0  0  0  0  0
  -25.4144  -15.1828   20.3937 N   0  0  0  0  0  0
  -31.8874  -14.6271   20.1729 O   0  0  0  0  0  0
  -21.6633   -6.8875   21.4239 O   0  0  0  0  0  0
  -22.3504  -14.5508   20.6711 O   0  0  0  0  0  0
  -24.6208  -31.8613   23.2048 C   0  0  0  0  0  0
  -25.9086  -32.4785   23.8351 C   0  0  1  0  0  0
  -27.2377  -27.3824   20.1119 C   0  0  0  0  0  0
  -25.5921  -33.8584   24.2281 N   0  0  0  0  0  0
  -23.4116  -30.4834   21.5452 C   0  0  2  0  0  0
  -24.8596  -28.9367   20.1163 C   0  0  0  0  0  0
  -22.7434  -29.4628   22.4959 C   0  0  0  0  0  0
  -18.0277  -28.1387   22.8491 C   0  0  0  0  0  0
  -24.1485  -36.7304   23.2635 C   0  0  0  0  0  0
  -25.9442  -30.8137   21.3630 C   0  0  0  0  0  0
  -26.0227  -29.4430   20.7115 C   0  0  0  0  0  0
  -27.2170  -28.6773   20.6945 C   0  0  0  0  0  0
  -26.0546  -26.8968   19.5180 C   0  0  0  0  0  0
  -24.8731  -27.6657   19.5145 C   0  0  0  0  0  0
  -23.6233  -29.8100   20.1620 C   0  0  0  0  0  0
  -25.4107  -36.3086   24.0325 C   0  0  1  0  0  0
  -20.5865  -28.3686   23.1303 C   0  0  2  0  0  0
  -20.6763  -26.9414   22.5415 C   0  0  0  0  0  0
  -19.5743  -26.6388   21.5219 C   0  0  0  0  0  0
  -18.1925  -26.7933   22.1624 C   0  0  0  0  0  0
  -19.1525  -28.8855   23.2890 C   0  0  0  0  0  0
  -18.9453  -30.1460   23.8902 C   0  0  0  0  0  0
  -17.6455  -30.6595   24.0576 C   0  0  0  0  0  0
  -25.9043  -34.9457   23.5102 C   0  0  0  0  0  0
  -16.5344  -29.9098   23.6335 C   0  0  0  0  0  0
  -16.7262  -28.6514   23.0350 C   0  0  0  0  0  0
  -26.4498  -31.6588   25.0707 C   0  0  0  0  0  0
  -25.3747  -31.3712   26.1445 C   0  0  0  0  0  0
  -27.0350  -30.3019   24.6137 C   0  0  0  0  0  0
  -27.6059  -32.4321   25.7477 C   0  0  0  0  0  0
  -27.5582  -37.1792   24.8451 C   0  0  0  0  0  0
  -21.4148  -29.3041   22.3701 N   0  0  0  0  0  0
  -26.4280  -37.3788   23.9417 N   0  0  0  0  0  0
  -24.6774  -31.0685   22.0958 N   0  0  0  0  0  0
  -23.4178  -28.8185   23.3033 O   0  0  0  0  0  0
  -28.3953  -26.6189   20.0877 O   0  0  0  0  0  0
  -26.5611  -34.8920   22.4667 O   0  0  0  0  0  0
  -23.5389  -32.1384   23.7428 O   0  0  0  0  0  0
  -29.5317  -20.0800   17.8253 C   0  0  0  0  0  0
  -29.2123  -20.2218   19.1951 C   0  0  0  0  0  0
  -30.3112  -18.1736   19.6133 C   0  0  0  0  0  0
  -30.6175  -18.0705   18.2226 C   0  0  0  0  0  0
  -26.3407  -19.7041   19.4737 C   0  0  0  0  0  0
  -25.8475  -22.0568   20.1199 C   0  0  0  0  0  0
  -27.0241  -20.5546   21.7259 C   0  0  0  0  0  0
  -28.8584  -16.0268   21.5646 C   0  0  0  0  0  0
  -30.8110  -17.1282   20.6491 C   0  0  0  0  0  0
  -28.5391  -24.0837   19.6470 C   0  0  0  0  0  0
  -28.9351  -22.6787   20.2637 C   0  0  0  0  0  0
  -28.3486  -25.2764   20.6490 C   0  0  0  0  0  0
  -28.2725  -21.3993   19.6148 C   0  0  2  0  0  0
  -31.4191  -16.9104   17.6136 C   0  0  0  0  0  0
  -26.9013  -20.9331   20.2329 C   0  0  0  0  0  0
  -30.2233  -19.0278   17.3435 N   0  0  0  0  0  0
  -29.6365  -19.2747   20.0945 N   0  0  0  0  0  0
  -30.0829  -15.8178   20.7806 N   0  0  0  0  0  0
  -32.6069  -16.7850   18.2040 F   0  0  0  0  0  0
  -30.7348  -15.7748   17.7289 F   0  0  0  0  0  0
  -31.6439  -17.1088   16.3107 F   0  0  0  0  0  0
  -31.4623  -12.5131   19.0983 H   0  0  0  0  0  0
  -30.3772  -11.4030   19.8670 H   0  0  0  0  0  0
  -29.7558  -11.7659   17.4553 H   0  0  0  0  0  0
  -29.6173  -13.4817   17.7271 H   0  0  0  0  0  0
  -27.8467  -11.2840   18.8431 H   0  0  0  0  0  0
  -27.3574  -12.5837   17.7866 H   0  0  0  0  0  0
  -27.6682  -14.2275   19.4901 H   0  0  0  0  0  0
  -28.7429  -11.9898   21.2882 H   0  0  0  0  0  0
  -28.4481  -13.5681   21.8819 H   0  0  0  0  0  0
  -25.2759   -9.5658   22.4782 H   0  0  0  0  0  0
  -24.0009   -7.4598   22.7479 H   0  0  0  0  0  0
  -21.0867   -8.8742   19.8919 H   0  0  0  0  0  0
  -22.3705  -10.9666   19.6185 H   0  0  0  0  0  0
  -21.1956   -7.6135   23.9713 H   0  0  0  0  0  0
  -21.1496   -6.0524   25.9082 H   0  0  0  0  0  0
  -22.0596   -2.7613   23.2835 H   0  0  0  0  0  0
  -22.4085  -11.9888   22.4839 H   0  0  0  0  0  0
  -21.1056  -13.1190   22.2568 H   0  0  0  0  0  0
  -24.6400  -15.8288   20.4978 H   0  0  0  0  0  0
  -26.2538  -15.6276   20.0477 H   0  0  0  0  0  0
  -26.7159  -32.5483   23.1113 H   0  0  0  0  0  0
  -25.0085  -33.9729   25.0438 H   0  0  0  0  0  0
  -22.7043  -31.3024   21.4009 H   0  0  0  0  0  0
  -23.3754  -35.9628   23.3266 H   0  0  0  0  0  0
  -24.3585  -36.8966   22.2057 H   0  0  0  0  0  0
  -23.7224  -37.6488   23.6685 H   0  0  0  0  0  0
  -26.0622  -31.5771   20.5933 H   0  0  0  0  0  0
  -26.8289  -30.8667   21.9852 H   0  0  0  0  0  0
  -28.1192  -29.0680   21.1455 H   0  0  0  0  0  0
  -26.0488  -25.9215   19.0525 H   0  0  0  0  0  0
  -23.9799  -27.2708   19.0502 H   0  0  0  0  0  0
  -23.7365  -30.5819   19.3998 H   0  0  0  0  0  0
  -22.7455  -29.2316   19.8670 H   0  0  0  0  0  0
  -25.1283  -36.1929   25.0815 H   0  0  0  0  0  0
  -20.9962  -28.3262   24.1420 H   0  0  0  0  0  0
  -20.5687  -26.2291   23.3606 H   0  0  0  0  0  0
  -21.6635  -26.7456   22.1204 H   0  0  0  0  0  0
  -19.6910  -25.6304   21.1246 H   0  0  0  0  0  0
  -19.6690  -27.3199   20.6754 H   0  0  0  0  0  0
  -17.4193  -26.6688   21.4024 H   0  0  0  0  0  0
  -18.0320  -26.0068   22.9010 H   0  0  0  0  0  0
  -19.7921  -30.7281   24.2268 H   0  0  0  0  0  0
  -17.5004  -31.6271   24.5180 H   0  0  0  0  0  0
  -15.5347  -30.3008   23.7655 H   0  0  0  0  0  0
  -15.8655  -28.0848   22.7058 H   0  0  0  0  0  0
  -24.5904  -30.7095   25.7762 H   0  0  0  0  0  0
  -24.8975  -32.2881   26.4905 H   0  0  0  0  0  0
  -25.8079  -30.8845   27.0192 H   0  0  0  0  0  0
  -26.2917  -29.6749   24.1204 H   0  0  0  0  0  0
  -27.4112  -29.7296   25.4631 H   0  0  0  0  0  0
  -27.8753  -30.4322   23.9311 H   0  0  0  0  0  0
  -27.2674  -33.3622   26.2059 H   0  0  0  0  0  0
  -28.3876  -32.6879   25.0307 H   0  0  0  0  0  0
  -28.0730  -31.8440   26.5395 H   0  0  0  0  0  0
  -28.2552  -38.0136   24.7566 H   0  0  0  0  0  0
  -28.1124  -36.2669   24.6187 H   0  0  0  0  0  0
  -27.2311  -37.1337   25.8853 H   0  0  0  0  0  0
  -20.9328  -29.8750   21.6897 H   0  0  0  0  0  0
  -26.0156  -38.2848   24.1469 H   0  0  0  0  0  0
  -29.2007  -20.7997   17.0912 H   0  0  0  0  0  0
  -25.3452  -19.4346   19.8284 H   0  0  0  0  0  0
  -26.9626  -18.8167   19.5987 H   0  0  0  0  0  0
  -26.2608  -19.8968   18.4031 H   0  0  0  0  0  0
  -24.8785  -21.7308   20.5013 H   0  0  0  0  0  0
  -25.6985  -22.3734   19.0864 H   0  0  0  0  0  0
  -26.1314  -22.9373   20.6971 H   0  0  0  0  0  0
  -26.0867  -20.1350   22.0979 H   0  0  0  0  0  0
  -27.2512  -21.4154   22.3533 H   0  0  0  0  0  0
  -27.7954  -19.8057   21.9024 H   0  0  0  0  0  0
  -28.9485  -15.5948   22.5624 H   0  0  0  0  0  0
  -27.9859  -15.6210   21.0696 H   0  0  0  0  0  0
  -28.6218  -17.0829   21.7063 H   0  0  0  0  0  0
  -30.8060  -17.6113   21.6292 H   0  0  0  0  0  0
  -31.8779  -16.9882   20.4825 H   0  0  0  0  0  0
  -27.6303  -23.9946   19.0531 H   0  0  0  0  0  0
  -29.3155  -24.3592   18.9338 H   0  0  0  0  0  0
  -28.7629  -22.6859   21.3377 H   0  0  0  0  0  0
  -30.0181  -22.5811   20.1720 H   0  0  0  0  0  0
  -29.1581  -25.2364   21.3779 H   0  0  0  0  0  0
  -27.4358  -25.1277   21.2294 H   0  0  0  0  0  0
  -27.9696  -21.7704   18.6351 H   0  0  0  0  0  0
  1 25  1  0  0  0
  1 30  2  0  0  0
  1 88  1  0  0  0
  2  3  1  0  0  0
  2 25  1  0  0  0
  2 92  1  0  0  0
  2 93  1  0  0  0
  3  4  1  0  0  0
  3 94  1  0  0  0
  3 95  1  0  0  0
  4  5  1  0  0  0
  4 96  1  0  0  0
  4 97  1  0  0  0
  5  6  1  0  0  0
  5 26  1  0  0  0
  5 98  1  0  0  0
  6 25  1  0  0  0
  6 99  1  0  0  0
  6100  1  0  0  0
  7  8  2  0  0  0
  7 26  1  0  0  0
  7 29  1  0  0  0
  8  9  1  0  0  0
  8 22  1  0  0  0
  9 10  1  0  0  0
  9 27  2  0  0  0
 10 11  2  0  0  0
 10 15  1  0  0  0
 11 12  1  0  0  0
 11101  1  0  0  0
 12 13  2  0  0  0
 12102  1  0  0  0
 13 14  1  0  0  0
 13 31  1  0  0  0
 14 15  2  0  0  0
 14103  1  0  0  0
 15104  1  0  0  0
 16 17  2  0  0  0
 16 21  1  0  0  0
 16 31  1  0  0  0
 17 18  1  0  0  0
 17105  1  0  0  0
 18 19  2  0  0  0
 18106  1  0  0  0
 19 20  1  0  0  0
 19 24  1  0  0  0
 20 21  2  0  0  0
 20107  1  0  0  0
 21 23  1  0  0  0
 22 28  1  0  0  0
 22 32  2  0  0  0
 26 27  1  0  0  0
 28108  1  0  0  0
 28109  1  0  0  0
 29110  1  0  0  0
 29111  1  0  0  0
 33 34  1  0  0  0
 33 66  1  0  0  0
 33 70  2  0  0  0
 34 36  1  0  0  0
 34 59  1  0  0  0
 34112  1  0  0  0
 35 44  2  0  0  0
 35 45  1  0  0  0
 35 68  1  0  0  0
 36 56  1  0  0  0
 36113  1  0  0  0
 37 39  1  0  0  0
 37 47  1  0  0  0
 37 66  1  0  0  0
 37114  1  0  0  0
 38 43  2  0  0  0
 38 46  1  0  0  0
 38 47  1  0  0  0
 39 64  1  0  0  0
 39 67  2  0  0  0
 40 52  1  0  0  0
 40 53  2  0  0  0
 40 58  1  0  0  0
 41115  1  0  0  0
 41116  1  0  0  0
 41117  1  0  0  0
 41 48  1  0  0  0
 42 43  1  0  0  0
 42 66  1  0  0  0
 42118  1  0  0  0
 42119  1  0  0  0
 43 44  1  0  0  0
 44120  1  0  0  0
 45 46  2  0  0  0
 45121  1  0  0  0
 46122  1  0  0  0
 47123  1  0  0  0
 47124  1  0  0  0
 48 56  1  0  0  0
 48 65  1  0  0  0
 48125  1  0  0  0
 49 50  1  0  0  0
 49 53  1  0  0  0
 49 64  1  0  0  0
 49126  1  0  0  0
 50 51  1  0  0  0
 50127  1  0  0  0
 50128  1  0  0  0
 51 52  1  0  0  0
 51129  1  0  0  0
 51130  1  0  0  0
 52131  1  0  0  0
 52132  1  0  0  0
 53 54  1  0  0  0
 54 55  2  0  0  0
 54133  1  0  0  0
 55 57  1  0  0  0
 55134  1  0  0  0
 56 69  2  0  0  0
 57 58  2  0  0  0
 57135  1  0  0  0
 58136  1  0  0  0
 59 60  1  0  0  0
 59 61  1  0  0  0
 59 62  1  0  0  0
 60137  1  0  0  0
 60138  1  0  0  0
 60139  1  0  0  0
 61140  1  0  0  0
 61141  1  0  0  0
 61142  1  0  0  0
 62143  1  0  0  0
 62144  1  0  0  0
 62145  1  0  0  0
 63 65  1  0  0  0
 63146  1  0  0  0
 63147  1  0  0  0
 63148  1  0  0  0
 64149  1  0  0  0
 65150  1  0  0  0
 68 82  1  0  0  0
 71 72  2  0  0  0
 71 86  1  0  0  0
 71151  1  0  0  0
 72 83  1  0  0  0
 72 87  1  0  0  0
 73 74  1  0  0  0
 73 79  1  0  0  0
 73 87  2  0  0  0
 74 84  1  0  0  0
 74 86  2  0  0  0
 75152  1  0  0  0
 75153  1  0  0  0
 75154  1  0  0  0
 75 85  1  0  0  0
 76 85  1  0  0  0
 76155  1  0  0  0
 76156  1  0  0  0
 76157  1  0  0  0
 77 85  1  0  0  0
 77158  1  0  0  0
 77159  1  0  0  0
 77160  1  0  0  0
 78 88  1  0  0  0
 78161  1  0  0  0
 78162  1  0  0  0
 78163  1  0  0  0
 79 88  1  0  0  0
 79164  1  0  0  0
 79165  1  0  0  0
 80 81  1  0  0  0
 80 82  1  0  0  0
 80166  1  0  0  0
 80167  1  0  0  0
 81168  1  0  0  0
 81169  1  0  0  0
 81 83  1  0  0  0
 82170  1  0  0  0
 82171  1  0  0  0
 83 85  1  0  0  0
 83172  1  0  0  0
 84 89  1  0  0  0
 84 90  1  0  0  0
 84 91  1  0  0  0
M  ISO  4   1 100  68 101  82 101  88 100
M  END
> <chiral flag>
0

> <version>
0

> <s_m_source_file>
/data/baiqing/PycharmProjects/Reinvent-master-3.2/result/LINK_invent/BTK/process_docking_weight1_custom_sum_contain_oxygen_bond_distance_aromatic_linkinvent_7_9_3/rearranged_h_0069.sdf

> <i_m_source_file_index>
79

> <r_mmod_Potential_Energy-OPLS-2005>
354.433013916016

> <r_mmod_Stretch_Energy-OPLS-2005>
75.0453872680664

> <r_mmod_Bend_Energy-OPLS-2005>
164.862777709961

> <r_mmod_Torsional_Energy-OPLS-2005>
276.991577148438

> <r_mmod_Improper_Torsional_Energy-OPLS-2005>
8.51414394378662

> <r_mmod_Van_der_Waal_Energy-OPLS-2005>
162.401840209961

> <r_mmod_Electrostatic_Energy-OPLS-2005>
-181.580429077148

> <r_mmod_Solvation_Energy-OPLS-2005>
-183.716567993164

> <b_mmod_Minimization_Converged-OPLS-2005>
0

> <r_mmod_RMS_Derivative-OPLS-2005>
2.51893091201782

$$$$
79
                    3D
 Structure written by MMmdl.
179187  0  0  1  0            999 V2000
  -30.7205  -14.5000   20.5783 C   0  0  0  0  0  0
  -30.4109  -12.3235   19.4438 C   0  0  0  0  0  0
  -29.4944  -12.5128   18.2174 C   0  0  0  0  0  0
  -28.0137  -12.3632   18.6183 C   0  0  0  0  0  0
  -27.6515  -13.2136   19.8654 C   0  0  2  0  0  0
  -28.6913  -13.0365   20.9940 C   0  0  0  0  0  0
  -25.2542  -13.8177   20.5662 C   0  0  0  0  0  0
  -24.1809  -13.0430   20.9167 C   0  0  0  0  0  0
  -24.6371  -11.6905   20.8724 C   0  0  0  0  0  0
  -23.9057  -10.4293   21.0394 C   0  0  0  0  0  0
  -24.3617   -9.4217   21.9171 C   0  0  0  0  0  0
  -23.6292   -8.2249   22.0760 C   0  0  0  0  0  0
  -22.4278   -8.0284   21.3541 C   0  0  0  0  0  0
  -21.9903   -9.0255   20.4644 C   0  0  0  0  0  0
  -22.7230  -10.2126   20.3048 C   0  0  0  0  0  0
  -21.6855   -6.0742   22.5280 C   0  0  0  0  0  0
  -21.4017   -6.5646   23.8216 C   0  0  0  0  0  0
  -21.3663   -5.6793   24.9178 C   0  0  0  0  0  0
  -21.6039   -4.3053   24.7218 C   0  0  0  0  0  0
  -21.8820   -3.8150   23.4337 C   0  0  0  0  0  0
  -21.9192   -4.6971   22.3399 C   0  0  0  0  0  0
  -22.7839  -13.5235   21.1830 C   0  0  0  0  0  0
  -22.1662   -4.2160   21.0976 F   0  0  0  0  0  0
  -21.5622   -3.4542   25.7730 F   0  0  0  0  0  0
  -30.0217  -13.3332   20.4466 N   0  0  0  0  0  0
  -26.2968  -12.9354   20.3314 N   0  0  0  0  0  0
  -25.9301  -11.6501   20.5753 N   0  0  0  0  0  0
  -22.0506  -12.8222   22.0401 N   0  0  0  0  0  0
  -25.4223  -15.1878   20.4048 N   0  0  0  0  0  0
  -31.8788  -14.5607   20.1673 O   0  0  0  0  0  0
  -21.6638   -6.8881   21.4241 O   0  0  0  0  0  0
  -22.3530  -14.5545   20.6694 O   0  0  0  0  0  0
  -24.6161  -31.8680   23.2095 C   0  0  0  0  0  0
  -25.9043  -32.4811   23.8411 C   0  0  1  0  0  0
  -27.2322  -27.4172   20.1227 C   0  0  0  0  0  0
  -25.5921  -33.8609   24.2338 N   0  0  0  0  0  0
  -23.4041  -30.4930   21.5467 C   0  0  2  0  0  0
  -24.8531  -28.9596   20.1116 C   0  0  0  0  0  0
  -22.7431  -29.4659   22.4953 C   0  0  0  0  0  0
  -18.0278  -28.1391   22.8468 C   0  0  0  0  0  0
  -24.1501  -36.7306   23.2646 C   0  0  0  0  0  0
  -25.9355  -30.8351   21.3624 C   0  0  0  0  0  0
  -26.0142  -29.4685   20.7078 C   0  0  0  0  0  0
  -27.2065  -28.7081   20.7008 C   0  0  0  0  0  0
  -26.0552  -26.9220   19.5218 C   0  0  0  0  0  0
  -24.8718  -27.6881   19.5117 C   0  0  0  0  0  0
  -23.6163  -29.8304   20.1583 C   0  0  0  0  0  0
  -25.4109  -36.3083   24.0350 C   0  0  1  0  0  0
  -20.5876  -28.3664   23.1322 C   0  0  2  0  0  0
  -20.6776  -26.9399   22.5418 C   0  0  0  0  0  0
  -19.5746  -26.6375   21.5229 C   0  0  0  0  0  0
  -18.1914  -26.7927   22.1624 C   0  0  0  0  0  0
  -19.1539  -28.8843   23.2877 C   0  0  0  0  0  0
  -18.9471  -30.1452   23.8874 C   0  0  0  0  0  0
  -17.6471  -30.6581   24.0558 C   0  0  0  0  0  0
  -25.9045  -34.9450   23.5130 C   0  0  0  0  0  0
  -16.5357  -29.9077   23.6328 C   0  0  0  0  0  0
  -16.7275  -28.6519   23.0313 C   0  0  0  0  0  0
  -26.4471  -31.6602   25.0750 C   0  0  0  0  0  0
  -25.3731  -31.3715   26.1500 C   0  0  0  0  0  0
  -27.0323  -30.3063   24.6110 C   0  0  0  0  0  0
  -27.6046  -32.4337   25.7504 C   0  0  0  0  0  0
  -27.5566  -37.1798   24.8464 C   0  0  0  0  0  0
  -21.4155  -29.3042   22.3731 N   0  0  0  0  0  0
  -26.4276  -37.3780   23.9408 N   0  0  0  0  0  0
  -24.6698  -31.0786   22.0991 N   0  0  0  0  0  0
  -23.4207  -28.8176   23.2958 O   0  0  0  0  0  0
  -28.4002  -26.6809   20.1156 O   0  0  0  0  0  0
  -26.5596  -34.8904   22.4687 O   0  0  0  0  0  0
  -23.5351  -32.1465   23.7477 O   0  0  0  0  0  0
  -27.3593  -19.4571   20.8373 C   0  0  0  0  0  0
  -27.9235  -18.1846   20.5957 C   0  0  0  0  0  0
  -28.3556  -20.3825   20.9959 C   0  0  0  0  0  0
  -29.2845  -18.2892   20.5668 C   0  0  0  0  0  0
  -31.4307  -19.9415   22.5826 C   0  0  0  0  0  0
  -26.6282  -22.2209   21.1894 C   0  0  0  0  0  0
  -28.6262  -22.3421   22.6259 C   0  0  0  0  0  0
  -31.6867  -17.5399   19.9164 C   0  0  0  0  0  0
  -29.7259  -16.6797   18.7285 C   0  0  0  0  0  0
  -28.2660  -24.2016   19.7117 C   0  0  0  0  0  0
  -28.8451  -22.8054   20.1262 C   0  0  0  0  0  0
  -30.8859  -20.2432   21.1787 C   0  0  0  0  0  0
  -30.5657  -16.1701   22.5427 C   0  0  0  0  0  0
  -28.3770  -25.3718   20.7281 C   0  0  0  0  0  0
  -30.0636  -15.8350   21.1091 C   0  0  1  0  0  0
  -28.1482  -21.9124   21.2233 C   0  0  0  0  0  0
  -30.2120  -17.1101   20.1407 C   0  0  0  0  0  0
  -29.5700  -19.6454   20.9257 N   0  0  0  0  0  0
  -29.9537  -15.3834   23.6362 N   0  3  0  0  0  0
  -31.4566  -12.4002   19.1417 H   0  0  0  0  0  0
  -30.2972  -11.3194   19.8572 H   0  0  0  0  0  0
  -29.7486  -11.7955   17.4362 H   0  0  0  0  0  0
  -29.6584  -13.5023   17.7873 H   0  0  0  0  0  0
  -27.8248  -11.3070   18.8176 H   0  0  0  0  0  0
  -27.3689  -12.6328   17.7798 H   0  0  0  0  0  0
  -27.6807  -14.2567   19.5503 H   0  0  0  0  0  0
  -28.6712  -12.0126   21.3736 H   0  0  0  0  0  0
  -28.4409  -13.6621   21.8493 H   0  0  0  0  0  0
  -25.2767   -9.5703   22.4729 H   0  0  0  0  0  0
  -24.0007   -7.4658   22.7490 H   0  0  0  0  0  0
  -21.0833   -8.8759   19.8959 H   0  0  0  0  0  0
  -22.3684  -10.9655   19.6152 H   0  0  0  0  0  0
  -21.2019   -7.6154   23.9721 H   0  0  0  0  0  0
  -21.1482   -6.0524   25.9078 H   0  0  0  0  0  0
  -22.0595   -2.7613   23.2832 H   0  0  0  0  0  0
  -22.4131  -11.9859   22.4725 H   0  0  0  0  0  0
  -21.1141  -13.1253   22.2662 H   0  0  0  0  0  0
  -24.6452  -15.8345   20.4952 H   0  0  0  0  0  0
  -26.2576  -15.6226   20.0391 H   0  0  0  0  0  0
  -26.7114  -32.5527   23.1177 H   0  0  0  0  0  0
  -25.0093  -33.9780   25.0498 H   0  0  0  0  0  0
  -22.6939  -31.3090   21.4066 H   0  0  0  0  0  0
  -23.3741  -35.9663   23.3319 H   0  0  0  0  0  0
  -24.3607  -36.8920   22.2058 H   0  0  0  0  0  0
  -23.7276  -37.6525   23.6669 H   0  0  0  0  0  0
  -26.0516  -31.6040   20.5973 H   0  0  0  0  0  0
  -26.8210  -30.8867   21.9837 H   0  0  0  0  0  0
  -28.1070  -29.0985   21.1547 H   0  0  0  0  0  0
  -26.0469  -25.9518   19.0501 H   0  0  0  0  0  0
  -23.9824  -27.2897   19.0449 H   0  0  0  0  0  0
  -23.7301  -30.6096   19.4035 H   0  0  0  0  0  0
  -22.7391  -29.2572   19.8535 H   0  0  0  0  0  0
  -25.1279  -36.1946   25.0847 H   0  0  0  0  0  0
  -20.9966  -28.3205   24.1445 H   0  0  0  0  0  0
  -20.5723  -26.2256   23.3606 H   0  0  0  0  0  0
  -21.6627  -26.7456   22.1177 H   0  0  0  0  0  0
  -19.6908  -25.6284   21.1263 H   0  0  0  0  0  0
  -19.6682  -27.3171   20.6757 H   0  0  0  0  0  0
  -17.4197  -26.6716   21.4003 H   0  0  0  0  0  0
  -18.0244  -26.0083   22.9031 H   0  0  0  0  0  0
  -19.7949  -30.7268   24.2219 H   0  0  0  0  0  0
  -17.5028  -31.6258   24.5161 H   0  0  0  0  0  0
  -15.5346  -30.2970   23.7670 H   0  0  0  0  0  0
  -15.8680  -28.0843   22.6999 H   0  0  0  0  0  0
  -24.5901  -30.7081   25.7819 H   0  0  0  0  0  0
  -24.8939  -32.2894   26.4932 H   0  0  0  0  0  0
  -25.8081  -30.8882   27.0259 H   0  0  0  0  0  0
  -26.2879  -29.6812   24.1186 H   0  0  0  0  0  0
  -27.4157  -29.7310   25.4539 H   0  0  0  0  0  0
  -27.8672  -30.4423   23.9231 H   0  0  0  0  0  0
  -27.2668  -33.3641   26.2082 H   0  0  0  0  0  0
  -28.3840  -32.6906   25.0312 H   0  0  0  0  0  0
  -28.0747  -31.8483   26.5420 H   0  0  0  0  0  0
  -28.2558  -38.0107   24.7478 H   0  0  0  0  0  0
  -28.1077  -36.2631   24.6313 H   0  0  0  0  0  0
  -27.2295  -37.1470   25.8870 H   0  0  0  0  0  0
  -20.9309  -29.8837   21.7028 H   0  0  0  0  0  0
  -26.0162  -38.2859   24.1409 H   0  0  0  0  0  0
  -26.2995  -19.6620   20.8626 H   0  0  0  0  0  0
  -27.3651  -17.2811   20.4024 H   0  0  0  0  0  0
  -32.3417  -20.5107   22.7688 H   0  0  0  0  0  0
  -31.6805  -18.8952   22.7241 H   0  0  0  0  0  0
  -30.7104  -20.2176   23.3525 H   0  0  0  0  0  0
  -26.0862  -21.6553   21.9469 H   0  0  0  0  0  0
  -26.1975  -21.9639   20.2222 H   0  0  0  0  0  0
  -26.4004  -23.2689   21.3824 H   0  0  0  0  0  0
  -28.1469  -21.7450   23.4039 H   0  0  0  0  0  0
  -28.3801  -23.3835   22.8344 H   0  0  0  0  0  0
  -29.7028  -22.2492   22.7534 H   0  0  0  0  0  0
  -31.7494  -18.3256   19.1655 H   0  0  0  0  0  0
  -32.3201  -16.7592   19.5074 H   0  0  0  0  0  0
  -32.1780  -17.8732   20.8259 H   0  0  0  0  0  0
  -29.7003  -17.5245   18.0389 H   0  0  0  0  0  0
  -28.7227  -16.2560   18.7473 H   0  0  0  0  0  0
  -30.3770  -15.9327   18.2703 H   0  0  0  0  0  0
  -27.2406  -24.0977   19.3641 H   0  0  0  0  0  0
  -28.8274  -24.5079   18.8274 H   0  0  0  0  0  0
  -29.8892  -22.9794   20.3708 H   0  0  0  0  0  0
  -28.8618  -22.2076   19.2141 H   0  0  0  0  0  0
  -31.5919  -20.0001   20.3965 H   0  0  0  0  0  0
  -30.8243  -21.3183   21.0982 H   0  0  0  0  0  0
  -30.3396  -17.2084   22.7719 H   0  0  0  0  0  0
  -31.6512  -16.0734   22.5957 H   0  0  0  0  0  0
  -29.3147  -25.2743   21.2771 H   0  0  0  0  0  0
  -27.5943  -25.3113   21.4843 H   0  0  0  0  0  0
  -28.9931  -15.6652   21.1728 H   0  0  0  0  0  0
  -30.3447  -15.6914   24.5103 H   0  0  0  0  0  0
  -30.1370  -14.3989   23.5631 H   0  0  0  0  0  0
  -28.9622  -15.5421   23.6908 H   0  0  0  0  0  0
  1 25  1  0  0  0
  1 30  2  0  0  0
  1 85  1  0  0  0
  2  3  1  0  0  0
  2 25  1  0  0  0
  2 90  1  0  0  0
  2 91  1  0  0  0
  3  4  1  0  0  0
  3 92  1  0  0  0
  3 93  1  0  0  0
  4  5  1  0  0  0
  4 94  1  0  0  0
  4 95  1  0  0  0
  5  6  1  0  0  0
  5 26  1  0  0  0
  5 96  1  0  0  0
  6 25  1  0  0  0
  6 97  1  0  0  0
  6 98  1  0  0  0
  7  8  2  0  0  0
  7 26  1  0  0  0
  7 29  1  0  0  0
  8  9  1  0  0  0
  8 22  1  0  0  0
  9 10  1  0  0  0
  9 27  2  0  0  0
 10 11  2  0  0  0
 10 15  1  0  0  0
 11 12  1  0  0  0
 11 99  1  0  0  0
 12 13  2  0  0  0
 12100  1  0  0  0
 13 14  1  0  0  0
 13 31  1  0  0  0
 14 15  2  0  0  0
 14101  1  0  0  0
 15102  1  0  0  0
 16 17  2  0  0  0
 16 21  1  0  0  0
 16 31  1  0  0  0
 17 18  1  0  0  0
 17103  1  0  0  0
 18 19  2  0  0  0
 18104  1  0  0  0
 19 20  1  0  0  0
 19 24  1  0  0  0
 20 21  2  0  0  0
 20105  1  0  0  0
 21 23  1  0  0  0
 22 28  1  0  0  0
 22 32  2  0  0  0
 26 27  1  0  0  0
 28106  1  0  0  0
 28107  1  0  0  0
 29108  1  0  0  0
 29109  1  0  0  0
 33 34  1  0  0  0
 33 66  1  0  0  0
 33 70  2  0  0  0
 34 36  1  0  0  0
 34 59  1  0  0  0
 34110  1  0  0  0
 35 44  2  0  0  0
 35 45  1  0  0  0
 35 68  1  0  0  0
 36 56  1  0  0  0
 36111  1  0  0  0
 37 39  1  0  0  0
 37 47  1  0  0  0
 37 66  1  0  0  0
 37112  1  0  0  0
 38 43  2  0  0  0
 38 46  1  0  0  0
 38 47  1  0  0  0
 39 64  1  0  0  0
 39 67  2  0  0  0
 40 52  1  0  0  0
 40 53  2  0  0  0
 40 58  1  0  0  0
 41113  1  0  0  0
 41114  1  0  0  0
 41115  1  0  0  0
 41 48  1  0  0  0
 42 43  1  0  0  0
 42 66  1  0  0  0
 42116  1  0  0  0
 42117  1  0  0  0
 43 44  1  0  0  0
 44118  1  0  0  0
 45 46  2  0  0  0
 45119  1  0  0  0
 46120  1  0  0  0
 47121  1  0  0  0
 47122  1  0  0  0
 48 56  1  0  0  0
 48 65  1  0  0  0
 48123  1  0  0  0
 49 50  1  0  0  0
 49 53  1  0  0  0
 49 64  1  0  0  0
 49124  1  0  0  0
 50 51  1  0  0  0
 50125  1  0  0  0
 50126  1  0  0  0
 51 52  1  0  0  0
 51127  1  0  0  0
 51128  1  0  0  0
 52129  1  0  0  0
 52130  1  0  0  0
 53 54  1  0  0  0
 54 55  2  0  0  0
 54131  1  0  0  0
 55 57  1  0  0  0
 55132  1  0  0  0
 56 69  2  0  0  0
 57 58  2  0  0  0
 57133  1  0  0  0
 58134  1  0  0  0
 59 60  1  0  0  0
 59 61  1  0  0  0
 59 62  1  0  0  0
 60135  1  0  0  0
 60136  1  0  0  0
 60137  1  0  0  0
 61138  1  0  0  0
 61139  1  0  0  0
 61140  1  0  0  0
 62141  1  0  0  0
 62142  1  0  0  0
 62143  1  0  0  0
 63 65  1  0  0  0
 63144  1  0  0  0
 63145  1  0  0  0
 63146  1  0  0  0
 64147  1  0  0  0
 65148  1  0  0  0
 68 84  1  0  0  0
 71 72  1  0  0  0
 71 73  2  0  0  0
 71149  1  0  0  0
 72 74  2  0  0  0
 72150  1  0  0  0
 73 86  1  0  0  0
 73 88  1  0  0  0
 74 87  1  0  0  0
 74 88  1  0  0  0
 75 82  1  0  0  0
 75151  1  0  0  0
 75152  1  0  0  0
 75153  1  0  0  0
 76154  1  0  0  0
 76155  1  0  0  0
 76156  1  0  0  0
 76 86  1  0  0  0
 77 86  1  0  0  0
 77157  1  0  0  0
 77158  1  0  0  0
 77159  1  0  0  0
 78160  1  0  0  0
 78161  1  0  0  0
 78162  1  0  0  0
 78 87  1  0  0  0
 79 87  1  0  0  0
 79163  1  0  0  0
 79164  1  0  0  0
 79165  1  0  0  0
 80 81  1  0  0  0
 80 84  1  0  0  0
 80166  1  0  0  0
 80167  1  0  0  0
 81 86  1  0  0  0
 81168  1  0  0  0
 81169  1  0  0  0
 82 88  1  0  0  0
 82170  1  0  0  0
 82171  1  0  0  0
 83 89  1  0  0  0
 83172  1  0  0  0
 83173  1  0  0  0
 83 85  1  0  0  0
 84174  1  0  0  0
 84175  1  0  0  0
 85 87  1  0  0  0
 85176  1  0  0  0
 89177  1  0  0  0
 89178  1  0  0  0
 89179  1  0  0  0
M  CHG  1  89   1
M  ISO  4   1 100  68 101  84 101  85 100
M  END
> <chiral flag>
0

> <version>
0

> <s_m_source_file>
/data/baiqing/PycharmProjects/Reinvent-master-3.2/result/LINK_invent/BTK/process_docking_weight1_custom_sum_contain_oxygen_bond_distance_aromatic_linkinvent_7_9_3/rearranged_h_0069.sdf

> <i_m_source_file_index>
80

> <r_mmod_Potential_Energy-OPLS-2005>
-144.045867919922

> <r_mmod_Stretch_Energy-OPLS-2005>
73.4038543701172

> <r_mmod_Bend_Energy-OPLS-2005>
165.188980102539

> <r_mmod_Torsional_Energy-OPLS-2005>
234.539688110352

> <r_mmod_Improper_Torsional_Energy-OPLS-2005>
3.18392372131348

> <r_mmod_Van_der_Waal_Energy-OPLS-2005>
142.321395874023

> <r_mmod_Electrostatic_Energy-OPLS-2005>
-322.462585449219

> <r_mmod_Solvation_Energy-OPLS-2005>
-458.999877929688

> <b_mmod_Minimization_Converged-OPLS-2005>
0

> <r_mmod_RMS_Derivative-OPLS-2005>
3.14272022247314

$$$$
80
                    3D
 Structure written by MMmdl.
175183  0  0  1  0            999 V2000
  -30.6691  -14.5231   20.4840 C   0  0  0  0  0  0
  -30.4292  -12.3153   19.4345 C   0  0  0  0  0  0
  -29.5001  -12.4920   18.2127 C   0  0  0  0  0  0
  -28.0201  -12.3525   18.6237 C   0  0  0  0  0  0
  -27.6589  -13.2086   19.8663 C   0  0  2  0  0  0
  -28.7050  -13.0257   20.9930 C   0  0  0  0  0  0
  -25.2579  -13.8166   20.5690 C   0  0  0  0  0  0
  -24.1840  -13.0442   20.9171 C   0  0  0  0  0  0
  -24.6392  -11.6911   20.8713 C   0  0  0  0  0  0
  -23.9055  -10.4301   21.0390 C   0  0  0  0  0  0
  -24.3617   -9.4224   21.9170 C   0  0  0  0  0  0
  -23.6303   -8.2254   22.0747 C   0  0  0  0  0  0
  -22.4285   -8.0284   21.3538 C   0  0  0  0  0  0
  -21.9917   -9.0255   20.4637 C   0  0  0  0  0  0
  -22.7226  -10.2137   20.3043 C   0  0  0  0  0  0
  -21.6871   -6.0739   22.5271 C   0  0  0  0  0  0
  -21.4025   -6.5644   23.8203 C   0  0  0  0  0  0
  -21.3643   -5.6795   24.9161 C   0  0  0  0  0  0
  -21.6041   -4.3057   24.7213 C   0  0  0  0  0  0
  -21.8827   -3.8145   23.4337 C   0  0  0  0  0  0
  -21.9210   -4.6969   22.3396 C   0  0  0  0  0  0
  -22.7860  -13.5235   21.1848 C   0  0  0  0  0  0
  -22.1690   -4.2155   21.0975 F   0  0  0  0  0  0
  -21.5611   -3.4540   25.7721 F   0  0  0  0  0  0
  -30.0368  -13.3185   20.4360 N   0  0  0  0  0  0
  -26.3015  -12.9337   20.3327 N   0  0  0  0  0  0
  -25.9320  -11.6498   20.5739 N   0  0  0  0  0  0
  -22.0535  -12.8197   22.0389 N   0  0  0  0  0  0
  -25.4251  -15.1891   20.4125 N   0  0  0  0  0  0
  -31.8316  -14.6845   20.1044 O   0  0  0  0  0  0
  -21.6653   -6.8880   21.4231 O   0  0  0  0  0  0
  -22.3528  -14.5551   20.6717 O   0  0  0  0  0  0
  -24.6146  -31.8657   23.2088 C   0  0  0  0  0  0
  -25.9038  -32.4806   23.8378 C   0  0  1  0  0  0
  -27.2436  -27.4241   20.1119 C   0  0  0  0  0  0
  -25.5900  -33.8603   24.2313 N   0  0  0  0  0  0
  -23.4024  -30.4886   21.5473 C   0  0  2  0  0  0
  -24.8526  -28.9479   20.1213 C   0  0  0  0  0  0
  -22.7398  -29.4645   22.4976 C   0  0  0  0  0  0
  -18.0274  -28.1389   22.8486 C   0  0  0  0  0  0
  -24.1497  -36.7305   23.2636 C   0  0  0  0  0  0
  -25.9305  -30.8322   21.3609 C   0  0  0  0  0  0
  -26.0115  -29.4628   20.7146 C   0  0  0  0  0  0
  -27.2084  -28.7095   20.7022 C   0  0  0  0  0  0
  -26.0643  -26.9242   19.5135 C   0  0  0  0  0  0
  -24.8743  -27.6790   19.5175 C   0  0  0  0  0  0
  -23.6141  -29.8160   20.1644 C   0  0  0  0  0  0
  -25.4113  -36.3091   24.0332 C   0  0  1  0  0  0
  -20.5856  -28.3669   23.1319 C   0  0  2  0  0  0
  -20.6761  -26.9406   22.5419 C   0  0  0  0  0  0
  -19.5752  -26.6391   21.5202 C   0  0  0  0  0  0
  -18.1927  -26.7933   22.1607 C   0  0  0  0  0  0
  -19.1520  -28.8845   23.2901 C   0  0  0  0  0  0
  -18.9452  -30.1454   23.8913 C   0  0  0  0  0  0
  -17.6457  -30.6594   24.0571 C   0  0  0  0  0  0
  -25.9037  -34.9458   23.5119 C   0  0  0  0  0  0
  -16.5346  -29.9100   23.6333 C   0  0  0  0  0  0
  -16.7260  -28.6520   23.0342 C   0  0  0  0  0  0
  -26.4489  -31.6576   25.0698 C   0  0  0  0  0  0
  -25.3786  -31.3655   26.1468 C   0  0  0  0  0  0
  -27.0318  -30.3024   24.6042 C   0  0  0  0  0  0
  -27.6065  -32.4284   25.7478 C   0  0  0  0  0  0
  -27.5582  -37.1806   24.8462 C   0  0  0  0  0  0
  -21.4122  -29.3036   22.3715 N   0  0  0  0  0  0
  -26.4294  -37.3779   23.9408 N   0  0  0  0  0  0
  -24.6667  -31.0774   22.0980 N   0  0  0  0  0  0
  -23.4170  -28.8189   23.3016 O   0  0  0  0  0  0
  -28.4335  -26.7198   20.1020 O   0  0  0  0  0  0
  -26.5590  -34.8918   22.4677 O   0  0  0  0  0  0
  -23.5340  -32.1398   23.7503 O   0  0  0  0  0  0
  -28.7411  -22.4162   21.0799 C   0  0  0  0  0  0
  -28.9083  -21.0600   21.4480 C   0  0  0  0  0  0
  -29.8362  -23.1159   20.5272 C   0  0  0  0  0  0
  -30.1639  -20.4367   21.1853 C   0  0  0  0  0  0
  -27.7597  -20.3713   22.1653 C   0  0  0  0  0  0
  -31.6132  -19.1383   22.7884 C   0  0  0  0  0  0
  -31.9710  -18.4138   19.5855 C   0  0  0  0  0  0
  -30.3131  -24.8938   18.7885 C   0  0  0  0  0  0
  -30.7531  -25.3482   21.2369 C   0  0  0  0  0  0
  -28.4222  -17.4845   20.2579 C   0  0  0  0  0  0
  -29.9451  -16.7336   18.5072 C   0  0  0  0  0  0
  -28.3961  -25.2949   20.3364 C   0  0  0  0  0  0
  -30.5415  -19.0056   21.6865 C   0  0  2  0  0  0
  -30.9679  -17.8885   20.6377 C   0  0  1  0  0  0
  -29.8163  -24.6453   20.2301 C   0  0  0  0  0  0
  -29.8426  -16.9206   20.0496 C   0  0  0  0  0  0
  -31.0144  -22.4669   20.3200 N   0  0  0  0  0  0
  -31.1669  -21.1702   20.6284 N   0  0  0  0  0  0
  -29.8379  -15.5731   20.6854 N   0  0  0  0  0  0
  -31.4724  -12.4165   19.1317 H   0  0  0  0  0  0
  -30.3324  -11.3121   19.8514 H   0  0  0  0  0  0
  -29.7458  -11.7596   17.4426 H   0  0  0  0  0  0
  -29.6627  -13.4708   17.7614 H   0  0  0  0  0  0
  -27.8354  -11.2985   18.8326 H   0  0  0  0  0  0
  -27.3713  -12.6105   17.7854 H   0  0  0  0  0  0
  -27.6864  -14.2487   19.5418 H   0  0  0  0  0  0
  -28.6834  -12.0034   21.3722 H   0  0  0  0  0  0
  -28.4736  -13.6647   21.8467 H   0  0  0  0  0  0
  -25.2788   -9.5716   22.4708 H   0  0  0  0  0  0
  -24.0033   -7.4653   22.7468 H   0  0  0  0  0  0
  -21.0854   -8.8761   19.8945 H   0  0  0  0  0  0
  -22.3697  -10.9663   19.6129 H   0  0  0  0  0  0
  -21.2030   -7.6158   23.9704 H   0  0  0  0  0  0
  -21.1452   -6.0526   25.9059 H   0  0  0  0  0  0
  -22.0626   -2.7615   23.2832 H   0  0  0  0  0  0
  -22.4229  -11.9861   22.4711 H   0  0  0  0  0  0
  -21.1139  -13.1148   22.2626 H   0  0  0  0  0  0
  -24.6518  -15.8367   20.5198 H   0  0  0  0  0  0
  -26.2661  -15.6316   20.0673 H   0  0  0  0  0  0
  -26.7099  -32.5523   23.1133 H   0  0  0  0  0  0
  -25.0091  -33.9761   25.0486 H   0  0  0  0  0  0
  -22.6922  -31.3054   21.4034 H   0  0  0  0  0  0
  -23.3750  -35.9645   23.3294 H   0  0  0  0  0  0
  -24.3599  -36.8926   22.2053 H   0  0  0  0  0  0
  -23.7271  -37.6513   23.6662 H   0  0  0  0  0  0
  -26.0340  -31.5955   20.5884 H   0  0  0  0  0  0
  -26.8210  -30.8936   21.9749 H   0  0  0  0  0  0
  -28.1037  -29.1061   21.1611 H   0  0  0  0  0  0
  -26.0490  -25.9630   19.0223 H   0  0  0  0  0  0
  -23.9836  -27.2794   19.0521 H   0  0  0  0  0  0
  -23.7262  -30.5866   19.4009 H   0  0  0  0  0  0
  -22.7391  -29.2342   19.8676 H   0  0  0  0  0  0
  -25.1296  -36.1935   25.0824 H   0  0  0  0  0  0
  -20.9948  -28.3240   24.1435 H   0  0  0  0  0  0
  -20.5650  -26.2276   23.3599 H   0  0  0  0  0  0
  -21.6637  -26.7446   22.1221 H   0  0  0  0  0  0
  -19.6920  -25.6298   21.1239 H   0  0  0  0  0  0
  -19.6710  -27.3196   20.6728 H   0  0  0  0  0  0
  -17.4191  -26.6675   21.4012 H   0  0  0  0  0  0
  -18.0344  -26.0077   22.9009 H   0  0  0  0  0  0
  -19.7933  -30.7268   24.2280 H   0  0  0  0  0  0
  -17.5020  -31.6274   24.5176 H   0  0  0  0  0  0
  -15.5351  -30.3016   23.7658 H   0  0  0  0  0  0
  -15.8654  -28.0860   22.7038 H   0  0  0  0  0  0
  -24.5955  -30.7003   25.7814 H   0  0  0  0  0  0
  -24.8996  -32.2802   26.4966 H   0  0  0  0  0  0
  -25.8185  -30.8797   27.0186 H   0  0  0  0  0  0
  -26.2840  -29.6779   24.1148 H   0  0  0  0  0  0
  -27.4154  -29.7265   25.4471 H   0  0  0  0  0  0
  -27.8644  -30.4346   23.9131 H   0  0  0  0  0  0
  -27.2671  -33.3549   26.2115 H   0  0  0  0  0  0
  -28.3868  -32.6885   25.0317 H   0  0  0  0  0  0
  -28.0740  -31.8366   26.5357 H   0  0  0  0  0  0
  -28.2587  -38.0113   24.7508 H   0  0  0  0  0  0
  -28.1088  -36.2644   24.6284 H   0  0  0  0  0  0
  -27.2300  -37.1445   25.8864 H   0  0  0  0  0  0
  -20.9273  -29.8766   21.6945 H   0  0  0  0  0  0
  -26.0171  -38.2845   24.1426 H   0  0  0  0  0  0
  -27.8026  -22.9117   21.2744 H   0  0  0  0  0  0
  -27.0390  -21.1062   22.5254 H   0  0  0  0  0  0
  -28.1001  -19.8204   23.0407 H   0  0  0  0  0  0
  -27.2276  -19.6975   21.4965 H   0  0  0  0  0  0
  -31.2917  -19.8365   23.5617 H   0  0  0  0  0  0
  -32.5583  -19.5054   22.3876 H   0  0  0  0  0  0
  -31.8110  -18.1821   23.2735 H   0  0  0  0  0  0
  -32.7702  -18.9857   20.0560 H   0  0  0  0  0  0
  -31.4952  -19.0644   18.8511 H   0  0  0  0  0  0
  -32.4637  -17.5991   19.0541 H   0  0  0  0  0  0
  -31.3367  -24.5480   18.6487 H   0  0  0  0  0  0
  -30.3000  -25.9542   18.5371 H   0  0  0  0  0  0
  -29.6847  -24.3756   18.0645 H   0  0  0  0  0  0
  -31.7768  -24.9840   21.1500 H   0  0  0  0  0  0
  -30.4284  -25.1675   22.2621 H   0  0  0  0  0  0
  -30.7838  -26.4278   21.0854 H   0  0  0  0  0  0
  -28.3339  -18.4880   19.8401 H   0  0  0  0  0  0
  -28.1264  -17.5169   21.3061 H   0  0  0  0  0  0
  -27.6711  -16.8750   19.7552 H   0  0  0  0  0  0
  -29.8441  -17.6819   17.9784 H   0  0  0  0  0  0
  -29.1555  -16.0834   18.1260 H   0  0  0  0  0  0
  -30.8868  -16.2841   18.1930 H   0  0  0  0  0  0
  -27.9815  -25.1338   21.3328 H   0  0  0  0  0  0
  -27.7356  -24.7951   19.6291 H   0  0  0  0  0  0
  -29.6977  -18.6095   22.2374 H   0  0  0  0  0  0
  -31.5867  -17.2082   21.2225 H   0  0  0  0  0  0
  -28.9497  -15.2986   21.0760 H   0  0  0  0  0  0
  1 25  1  0  0  0
  1 30  2  0  0  0
  1 89  1  0  0  0
  2  3  1  0  0  0
  2 25  1  0  0  0
  2 90  1  0  0  0
  2 91  1  0  0  0
  3  4  1  0  0  0
  3 92  1  0  0  0
  3 93  1  0  0  0
  4  5  1  0  0  0
  4 94  1  0  0  0
  4 95  1  0  0  0
  5  6  1  0  0  0
  5 26  1  0  0  0
  5 96  1  0  0  0
  6 25  1  0  0  0
  6 97  1  0  0  0
  6 98  1  0  0  0
  7  8  2  0  0  0
  7 26  1  0  0  0
  7 29  1  0  0  0
  8  9  1  0  0  0
  8 22  1  0  0  0
  9 10  1  0  0  0
  9 27  2  0  0  0
 10 11  2  0  0  0
 10 15  1  0  0  0
 11 12  1  0  0  0
 11 99  1  0  0  0
 12 13  2  0  0  0
 12100  1  0  0  0
 13 14  1  0  0  0
 13 31  1  0  0  0
 14 15  2  0  0  0
 14101  1  0  0  0
 15102  1  0  0  0
 16 17  2  0  0  0
 16 21  1  0  0  0
 16 31  1  0  0  0
 17 18  1  0  0  0
 17103  1  0  0  0
 18 19  2  0  0  0
 18104  1  0  0  0
 19 20  1  0  0  0
 19 24  1  0  0  0
 20 21  2  0  0  0
 20105  1  0  0  0
 21 23  1  0  0  0
 22 28  1  0  0  0
 22 32  2  0  0  0
 26 27  1  0  0  0
 28106  1  0  0  0
 28107  1  0  0  0
 29108  1  0  0  0
 29109  1  0  0  0
 33 34  1  0  0  0
 33 66  1  0  0  0
 33 70  2  0  0  0
 34 36  1  0  0  0
 34 59  1  0  0  0
 34110  1  0  0  0
 35 44  2  0  0  0
 35 45  1  0  0  0
 35 68  1  0  0  0
 36 56  1  0  0  0
 36111  1  0  0  0
 37 39  1  0  0  0
 37 47  1  0  0  0
 37 66  1  0  0  0
 37112  1  0  0  0
 38 43  2  0  0  0
 38 46  1  0  0  0
 38 47  1  0  0  0
 39 64  1  0  0  0
 39 67  2  0  0  0
 40 52  1  0  0  0
 40 53  2  0  0  0
 40 58  1  0  0  0
 41113  1  0  0  0
 41114  1  0  0  0
 41115  1  0  0  0
 41 48  1  0  0  0
 42 43  1  0  0  0
 42 66  1  0  0  0
 42116  1  0  0  0
 42117  1  0  0  0
 43 44  1  0  0  0
 44118  1  0  0  0
 45 46  2  0  0  0
 45119  1  0  0  0
 46120  1  0  0  0
 47121  1  0  0  0
 47122  1  0  0  0
 48 56  1  0  0  0
 48 65  1  0  0  0
 48123  1  0  0  0
 49 50  1  0  0  0
 49 53  1  0  0  0
 49 64  1  0  0  0
 49124  1  0  0  0
 50 51  1  0  0  0
 50125  1  0  0  0
 50126  1  0  0  0
 51 52  1  0  0  0
 51127  1  0  0  0
 51128  1  0  0  0
 52129  1  0  0  0
 52130  1  0  0  0
 53 54  1  0  0  0
 54 55  2  0  0  0
 54131  1  0  0  0
 55 57  1  0  0  0
 55132  1  0  0  0
 56 69  2  0  0  0
 57 58  2  0  0  0
 57133  1  0  0  0
 58134  1  0  0  0
 59 60  1  0  0  0
 59 61  1  0  0  0
 59 62  1  0  0  0
 60135  1  0  0  0
 60136  1  0  0  0
 60137  1  0  0  0
 61138  1  0  0  0
 61139  1  0  0  0
 61140  1  0  0  0
 62141  1  0  0  0
 62142  1  0  0  0
 62143  1  0  0  0
 63 65  1  0  0  0
 63144  1  0  0  0
 63145  1  0  0  0
 63146  1  0  0  0
 64147  1  0  0  0
 65148  1  0  0  0
 68 82  1  0  0  0
 71 72  2  0  0  0
 71 73  1  0  0  0
 71149  1  0  0  0
 72 74  1  0  0  0
 72 75  1  0  0  0
 73 85  1  0  0  0
 73 87  2  0  0  0
 74 83  1  0  0  0
 74 88  2  0  0  0
 75150  1  0  0  0
 75151  1  0  0  0
 75152  1  0  0  0
 76153  1  0  0  0
 76154  1  0  0  0
 76155  1  0  0  0
 76 83  1  0  0  0
 77156  1  0  0  0
 77157  1  0  0  0
 77158  1  0  0  0
 77 84  1  0  0  0
 78159  1  0  0  0
 78160  1  0  0  0
 78161  1  0  0  0
 78 85  1  0  0  0
 79 85  1  0  0  0
 79162  1  0  0  0
 79163  1  0  0  0
 79164  1  0  0  0
 80165  1  0  0  0
 80166  1  0  0  0
 80167  1  0  0  0
 80 86  1  0  0  0
 81 86  1  0  0  0
 81168  1  0  0  0
 81169  1  0  0  0
 81170  1  0  0  0
 82 85  1  0  0  0
 82171  1  0  0  0
 82172  1  0  0  0
 83 84  1  0  0  0
 83173  1  0  0  0
 84 86  1  0  0  0
 84174  1  0  0  0
 86 89  1  0  0  0
 87 88  1  0  0  0
 89175  1  0  0  0
M  ISO  4   1 100  68 101  82 101  89 100
M  END
> <chiral flag>
0

> <version>
0

> <s_m_source_file>
/data/baiqing/PycharmProjects/Reinvent-master-3.2/result/LINK_invent/BTK/process_docking_weight1_custom_sum_contain_oxygen_bond_distance_aromatic_linkinvent_7_9_3/rearranged_h_0069.sdf

> <i_m_source_file_index>
81

> <r_mmod_Potential_Energy-OPLS-2005>
85.461540222168

> <r_mmod_Stretch_Energy-OPLS-2005>
60.2132606506348

> <r_mmod_Bend_Energy-OPLS-2005>
142.314865112305

> <r_mmod_Torsional_Energy-OPLS-2005>
240.399002075195

> <r_mmod_Improper_Torsional_Energy-OPLS-2005>
9.92561054229736

> <r_mmod_Van_der_Waal_Energy-OPLS-2005>
166.361923217773

> <r_mmod_Electrostatic_Energy-OPLS-2005>
-337.063507080078

> <r_mmod_Solvation_Energy-OPLS-2005>
-214.993194580078

> <b_mmod_Minimization_Converged-OPLS-2005>
0

> <r_mmod_RMS_Derivative-OPLS-2005>
2.06285786628723

$$$$
81
                    3D
 Structure written by MMmdl.
161169  0  0  1  0            999 V2000
  -30.6909  -14.6912   20.3830 C   0  0  0  0  0  0
  -30.3919  -12.4297   19.4492 C   0  0  0  0  0  0
  -29.4907  -12.5225   18.2032 C   0  0  0  0  0  0
  -28.0174  -12.3359   18.6063 C   0  0  0  0  0  0
  -27.6127  -13.2207   19.8156 C   0  0  2  0  0  0
  -28.6593  -13.2273   20.9431 C   0  0  0  0  0  0
  -25.2457  -13.8082   20.5713 C   0  0  0  0  0  0
  -24.1767  -13.0325   20.9245 C   0  0  0  0  0  0
  -24.6352  -11.6818   20.8783 C   0  0  0  0  0  0
  -23.9025  -10.4205   21.0430 C   0  0  0  0  0  0
  -24.3590   -9.4131   21.9197 C   0  0  0  0  0  0
  -23.6249   -8.2176   22.0804 C   0  0  0  0  0  0
  -22.4236   -8.0228   21.3597 C   0  0  0  0  0  0
  -21.9850   -9.0203   20.4724 C   0  0  0  0  0  0
  -22.7190  -10.2068   20.3086 C   0  0  0  0  0  0
  -21.6829   -6.0658   22.5285 C   0  0  0  0  0  0
  -21.3947   -6.5570   23.8203 C   0  0  0  0  0  0
  -21.3698   -5.6764   24.9197 C   0  0  0  0  0  0
  -21.6067   -4.3029   24.7266 C   0  0  0  0  0  0
  -21.8768   -3.8080   23.4394 C   0  0  0  0  0  0
  -21.9151   -4.6872   22.3426 C   0  0  0  0  0  0
  -22.7821  -13.5249   21.1845 C   0  0  0  0  0  0
  -22.1602   -4.2029   21.1004 F   0  0  0  0  0  0
  -21.5726   -3.4541   25.7804 F   0  0  0  0  0  0
  -29.9723  -13.5218   20.3566 N   0  0  0  0  0  0
  -26.2815  -12.9244   20.3179 N   0  0  0  0  0  0
  -25.9269  -11.6406   20.5712 N   0  0  0  0  0  0
  -22.0404  -12.8319   22.0410 N   0  0  0  0  0  0
  -25.3998  -15.1789   20.4149 N   0  0  0  0  0  0
  -31.9139  -14.5910   20.2893 O   0  0  0  0  0  0
  -21.6610   -6.8811   21.4274 O   0  0  0  0  0  0
  -22.3596  -14.5581   20.6706 O   0  0  0  0  0  0
  -24.6219  -31.8636   23.2017 C   0  0  0  0  0  0
  -25.9055  -32.4834   23.8352 C   0  0  1  0  0  0
  -27.2077  -27.3486   20.0982 C   0  0  0  0  0  0
  -25.5901  -33.8626   24.2279 N   0  0  0  0  0  0
  -23.4166  -30.4807   21.5509 C   0  0  2  0  0  0
  -24.8589  -28.9416   20.1179 C   0  0  0  0  0  0
  -22.7504  -29.4566   22.5029 C   0  0  0  0  0  0
  -18.0253  -28.1324   22.8526 C   0  0  0  0  0  0
  -24.1480  -36.7230   23.2677 C   0  0  0  0  0  0
  -25.9575  -30.8087   21.3655 C   0  0  0  0  0  0
  -26.0314  -29.4379   20.7039 C   0  0  0  0  0  0
  -27.2211  -28.6562   20.6712 C   0  0  0  0  0  0
  -26.0156  -26.8872   19.5124 C   0  0  0  0  0  0
  -24.8518  -27.6754   19.5129 C   0  0  0  0  0  0
  -23.6247  -29.8136   20.1647 C   0  0  0  0  0  0
  -25.4140  -36.3129   24.0356 C   0  0  1  0  0  0
  -20.5878  -28.3578   23.1381 C   0  0  2  0  0  0
  -20.6728  -26.9300   22.5470 C   0  0  0  0  0  0
  -19.5688  -26.6323   21.5291 C   0  0  0  0  0  0
  -18.1865  -26.7865   22.1674 C   0  0  0  0  0  0
  -19.1523  -28.8780   23.2921 C   0  0  0  0  0  0
  -18.9464  -30.1424   23.8857 C   0  0  0  0  0  0
  -17.6462  -30.6562   24.0546 C   0  0  0  0  0  0
  -25.9075  -34.9488   23.5124 C   0  0  0  0  0  0
  -16.5338  -29.9065   23.6351 C   0  0  0  0  0  0
  -16.7247  -28.6487   23.0367 C   0  0  0  0  0  0
  -26.4424  -31.6650   25.0713 C   0  0  0  0  0  0
  -25.3678  -31.3724   26.1471 C   0  0  0  0  0  0
  -27.0265  -30.3121   24.6055 C   0  0  0  0  0  0
  -27.5983  -32.4426   25.7429 C   0  0  0  0  0  0
  -27.5560  -37.1795   24.8502 C   0  0  0  0  0  0
  -21.4221  -29.2943   22.3820 N   0  0  0  0  0  0
  -26.4289  -37.3849   23.9432 N   0  0  0  0  0  0
  -24.6848  -31.0668   22.0947 N   0  0  0  0  0  0
  -23.4277  -28.8131   23.3086 O   0  0  0  0  0  0
  -28.3136  -26.5057   20.0804 O   0  0  0  0  0  0
  -26.5676  -34.8953   22.4713 O   0  0  0  0  0  0
  -23.5369  -32.1387   23.7342 O   0  0  0  0  0  0
  -29.4291  -20.5921   21.4566 C   0  0  0  0  0  0
  -27.3508  -20.1368   20.4508 C   0  0  0  0  0  0
  -28.2282  -21.1315   20.9466 C   0  0  0  0  0  0
  -28.7959  -18.3971   21.0278 C   0  0  0  0  0  0
  -29.3900  -16.4931   22.6343 C   0  0  0  0  0  0
  -31.3533  -17.1448   20.0217 C   0  0  0  0  0  0
  -29.5248  -16.2742   18.7113 C   0  0  0  0  0  0
  -27.8170  -22.6401   21.1577 C   0  0  0  0  0  0
  -28.1321  -23.8081   20.1255 C   0  0  0  0  0  0
  -28.1783  -25.2447   20.8174 C   0  0  0  0  0  0
  -29.0956  -16.8446   21.1640 C   0  0  2  0  0  0
  -30.1238  -16.1868   20.1340 C   0  0  0  0  0  0
  -29.6935  -19.2636   21.5017 N   0  0  0  0  0  0
  -27.6376  -18.8031   20.4970 N   0  0  0  0  0  0
  -31.4411  -12.4937   19.1564 H   0  0  0  0  0  0
  -30.2730  -11.4592   19.9299 H   0  0  0  0  0  0
  -29.7873  -11.7874   17.4541 H   0  0  0  0  0  0
  -29.6164  -13.4958   17.7263 H   0  0  0  0  0  0
  -27.8720  -11.2831   18.8424 H   0  0  0  0  0  0
  -27.3651  -12.5406   17.7561 H   0  0  0  0  0  0
  -27.5410  -14.2242   19.4240 H   0  0  0  0  0  0
  -28.6947  -12.2621   21.4498 H   0  0  0  0  0  0
  -28.3565  -13.9639   21.6873 H   0  0  0  0  0  0
  -25.2749   -9.5582   22.4764 H   0  0  0  0  0  0
  -23.9911   -7.4587   22.7582 H   0  0  0  0  0  0
  -21.0706   -8.8744   19.9127 H   0  0  0  0  0  0
  -22.3645  -10.9599   19.6200 H   0  0  0  0  0  0
  -21.1825   -7.6055   23.9648 H   0  0  0  0  0  0
  -21.1651   -6.0528   25.9110 H   0  0  0  0  0  0
  -22.0494   -2.7520   23.2947 H   0  0  0  0  0  0
  -22.3984  -12.0001   22.4829 H   0  0  0  0  0  0
  -21.1045  -13.1477   22.2531 H   0  0  0  0  0  0
  -24.5844  -15.7770   20.4710 H   0  0  0  0  0  0
  -26.1907  -15.6374   19.9822 H   0  0  0  0  0  0
  -26.7128  -32.5489   23.1103 H   0  0  0  0  0  0
  -25.0079  -33.9816   25.0441 H   0  0  0  0  0  0
  -22.7064  -31.2981   21.4068 H   0  0  0  0  0  0
  -23.3824  -35.9498   23.3443 H   0  0  0  0  0  0
  -24.3531  -36.8714   22.2069 H   0  0  0  0  0  0
  -23.7118  -37.6407   23.6619 H   0  0  0  0  0  0
  -26.0859  -31.5763   20.6005 H   0  0  0  0  0  0
  -26.8408  -30.8552   21.9895 H   0  0  0  0  0  0
  -28.1374  -29.0394   21.0959 H   0  0  0  0  0  0
  -25.9759  -25.9037   19.0623 H   0  0  0  0  0  0
  -23.9485  -27.2853   19.0636 H   0  0  0  0  0  0
  -23.7393  -30.5865   19.4032 H   0  0  0  0  0  0
  -22.7486  -29.2301   19.8739 H   0  0  0  0  0  0
  -25.1316  -36.2002   25.0848 H   0  0  0  0  0  0
  -20.9896  -28.3075   24.1530 H   0  0  0  0  0  0
  -20.5632  -26.2157   23.3646 H   0  0  0  0  0  0
  -21.6593  -26.7325   22.1253 H   0  0  0  0  0  0
  -19.6838  -25.6259   21.1251 H   0  0  0  0  0  0
  -19.6620  -27.3221   20.6889 H   0  0  0  0  0  0
  -17.4159  -26.6700   21.4052 H   0  0  0  0  0  0
  -18.0165  -25.9976   22.9022 H   0  0  0  0  0  0
  -19.7949  -30.7274   24.2154 H   0  0  0  0  0  0
  -17.5019  -31.6232   24.5160 H   0  0  0  0  0  0
  -15.5339  -30.2950   23.7677 H   0  0  0  0  0  0
  -15.8649  -28.0812   22.7051 H   0  0  0  0  0  0
  -24.5866  -30.7044   25.7813 H   0  0  0  0  0  0
  -24.8845  -32.2847   26.4976 H   0  0  0  0  0  0
  -25.8053  -30.8855   27.0191 H   0  0  0  0  0  0
  -26.2779  -29.6919   24.1109 H   0  0  0  0  0  0
  -27.4088  -29.7317   25.4451 H   0  0  0  0  0  0
  -27.8592  -30.4529   23.9169 H   0  0  0  0  0  0
  -27.2590  -33.3771   26.1927 H   0  0  0  0  0  0
  -28.3759  -32.6949   25.0206 H   0  0  0  0  0  0
  -28.0687  -31.8608   26.5355 H   0  0  0  0  0  0
  -28.2688  -38.0004   24.7531 H   0  0  0  0  0  0
  -28.0917  -36.2521   24.6383 H   0  0  0  0  0  0
  -27.2217  -37.1508   25.8893 H   0  0  0  0  0  0
  -20.9415  -29.8706   21.7061 H   0  0  0  0  0  0
  -26.0169  -38.2907   24.1518 H   0  0  0  0  0  0
  -30.1811  -21.2179   21.9150 H   0  0  0  0  0  0
  -26.3719  -20.4016   20.0738 H   0  0  0  0  0  0
  -28.5294  -16.7250   23.2646 H   0  0  0  0  0  0
  -30.2505  -17.0507   22.9998 H   0  0  0  0  0  0
  -29.6196  -15.4403   22.7688 H   0  0  0  0  0  0
  -31.8398  -17.2784   20.9866 H   0  0  0  0  0  0
  -31.0890  -18.1361   19.6504 H   0  0  0  0  0  0
  -32.1091  -16.7897   19.3170 H   0  0  0  0  0  0
  -29.2585  -17.3021   18.4622 H   0  0  0  0  0  0
  -28.6163  -15.7051   18.5840 H   0  0  0  0  0  0
  -30.2340  -15.9388   17.9538 H   0  0  0  0  0  0
  -28.2684  -22.9498   22.1021 H   0  0  0  0  0  0
  -26.7429  -22.6766   21.3637 H   0  0  0  0  0  0
  -27.3881  -23.7843   19.3263 H   0  0  0  0  0  0
  -29.0901  -23.6241   19.6384 H   0  0  0  0  0  0
  -29.0497  -25.2485   21.4724 H   0  0  0  0  0  0
  -27.3319  -25.3256   21.4987 H   0  0  0  0  0  0
  -28.1425  -16.3565   20.9577 H   0  0  0  0  0  0
  1 25  1  0  0  0
  1 30  2  0  0  0
  1 82  1  0  0  0
  2  3  1  0  0  0
  2 25  1  0  0  0
  2 85  1  0  0  0
  2 86  1  0  0  0
  3  4  1  0  0  0
  3 87  1  0  0  0
  3 88  1  0  0  0
  4  5  1  0  0  0
  4 89  1  0  0  0
  4 90  1  0  0  0
  5  6  1  0  0  0
  5 26  1  0  0  0
  5 91  1  0  0  0
  6 25  1  0  0  0
  6 92  1  0  0  0
  6 93  1  0  0  0
  7  8  2  0  0  0
  7 26  1  0  0  0
  7 29  1  0  0  0
  8  9  1  0  0  0
  8 22  1  0  0  0
  9 10  1  0  0  0
  9 27  2  0  0  0
 10 11  2  0  0  0
 10 15  1  0  0  0
 11 12  1  0  0  0
 11 94  1  0  0  0
 12 13  2  0  0  0
 12 95  1  0  0  0
 13 14  1  0  0  0
 13 31  1  0  0  0
 14 15  2  0  0  0
 14 96  1  0  0  0
 15 97  1  0  0  0
 16 17  2  0  0  0
 16 21  1  0  0  0
 16 31  1  0  0  0
 17 18  1  0  0  0
 17 98  1  0  0  0
 18 19  2  0  0  0
 18 99  1  0  0  0
 19 20  1  0  0  0
 19 24  1  0  0  0
 20 21  2  0  0  0
 20100  1  0  0  0
 21 23  1  0  0  0
 22 28  1  0  0  0
 22 32  2  0  0  0
 26 27  1  0  0  0
 28101  1  0  0  0
 28102  1  0  0  0
 29103  1  0  0  0
 29104  1  0  0  0
 33 34  1  0  0  0
 33 66  1  0  0  0
 33 70  2  0  0  0
 34 36  1  0  0  0
 34 59  1  0  0  0
 34105  1  0  0  0
 35 44  2  0  0  0
 35 45  1  0  0  0
 35 68  1  0  0  0
 36 56  1  0  0  0
 36106  1  0  0  0
 37 39  1  0  0  0
 37 47  1  0  0  0
 37 66  1  0  0  0
 37107  1  0  0  0
 38 43  2  0  0  0
 38 46  1  0  0  0
 38 47  1  0  0  0
 39 64  1  0  0  0
 39 67  2  0  0  0
 40 52  1  0  0  0
 40 53  2  0  0  0
 40 58  1  0  0  0
 41108  1  0  0  0
 41109  1  0  0  0
 41110  1  0  0  0
 41 48  1  0  0  0
 42 43  1  0  0  0
 42 66  1  0  0  0
 42111  1  0  0  0
 42112  1  0  0  0
 43 44  1  0  0  0
 44113  1  0  0  0
 45 46  2  0  0  0
 45114  1  0  0  0
 46115  1  0  0  0
 47116  1  0  0  0
 47117  1  0  0  0
 48 56  1  0  0  0
 48 65  1  0  0  0
 48118  1  0  0  0
 49 50  1  0  0  0
 49 53  1  0  0  0
 49 64  1  0  0  0
 49119  1  0  0  0
 50 51  1  0  0  0
 50120  1  0  0  0
 50121  1  0  0  0
 51 52  1  0  0  0
 51122  1  0  0  0
 51123  1  0  0  0
 52124  1  0  0  0
 52125  1  0  0  0
 53 54  1  0  0  0
 54 55  2  0  0  0
 54126  1  0  0  0
 55 57  1  0  0  0
 55127  1  0  0  0
 56 69  2  0  0  0
 57 58  2  0  0  0
 57128  1  0  0  0
 58129  1  0  0  0
 59 60  1  0  0  0
 59 61  1  0  0  0
 59 62  1  0  0  0
 60130  1  0  0  0
 60131  1  0  0  0
 60132  1  0  0  0
 61133  1  0  0  0
 61134  1  0  0  0
 61135  1  0  0  0
 62136  1  0  0  0
 62137  1  0  0  0
 62138  1  0  0  0
 63 65  1  0  0  0
 63139  1  0  0  0
 63140  1  0  0  0
 63141  1  0  0  0
 64142  1  0  0  0
 65143  1  0  0  0
 68 80  1  0  0  0
 71 73  2  0  0  0
 71 83  1  0  0  0
 71144  1  0  0  0
 72 73  1  0  0  0
 72 84  2  0  0  0
 72145  1  0  0  0
 73 78  1  0  0  0
 74 81  1  0  0  0
 74 83  2  0  0  0
 74 84  1  0  0  0
 75146  1  0  0  0
 75147  1  0  0  0
 75148  1  0  0  0
 75 81  1  0  0  0
 76149  1  0  0  0
 76150  1  0  0  0
 76151  1  0  0  0
 76 82  1  0  0  0
 77 82  1  0  0  0
 77152  1  0  0  0
 77153  1  0  0  0
 77154  1  0  0  0
 78 79  1  0  0  0
 78155  1  0  0  0
 78156  1  0  0  0
 79 80  1  0  0  0
 79157  1  0  0  0
 79158  1  0  0  0
 80159  1  0  0  0
 80160  1  0  0  0
 81 82  1  0  0  0
 81161  1  0  0  0
M  ISO  4   1 100  68 101  80 101  82 100
M  END
> <chiral flag>
0

> <version>
0

> <s_m_source_file>
/data/baiqing/PycharmProjects/Reinvent-master-3.2/result/LINK_invent/BTK/process_docking_weight1_custom_sum_contain_oxygen_bond_distance_aromatic_linkinvent_7_9_3/rearranged_h_0069.sdf

> <i_m_source_file_index>
82

> <r_mmod_Potential_Energy-OPLS-2005>
-161.921722412109

> <r_mmod_Stretch_Energy-OPLS-2005>
85.0388336181641

> <r_mmod_Bend_Energy-OPLS-2005>
179.014739990234

> <r_mmod_Torsional_Energy-OPLS-2005>
226.93913269043

> <r_mmod_Improper_Torsional_Energy-OPLS-2005>
11.6045265197754

> <r_mmod_Van_der_Waal_Energy-OPLS-2005>
158.209182739258

> <r_mmod_Electrostatic_Energy-OPLS-2005>
-696.078796386719

> <r_mmod_Solvation_Energy-OPLS-2005>
-198.495010375977

> <b_mmod_Minimization_Converged-OPLS-2005>
0

> <r_mmod_RMS_Derivative-OPLS-2005>
6.74327802658081

$$$$
83
                    3D
 Structure written by MMmdl.
167175  0  0  1  0            999 V2000
  -30.6787  -14.6271   20.5388 C   0  0  0  0  0  0
  -30.4292  -12.4073   19.4427 C   0  0  0  0  0  0
  -29.5004  -12.5280   18.2149 C   0  0  0  0  0  0
  -28.0258  -12.3387   18.6245 C   0  0  0  0  0  0
  -27.6513  -13.1938   19.8616 C   0  0  2  0  0  0
  -28.7020  -13.0317   20.9833 C   0  0  0  0  0  0
  -25.2569  -13.8110   20.5766 C   0  0  0  0  0  0
  -24.1784  -13.0408   20.9207 C   0  0  0  0  0  0
  -24.6346  -11.6887   20.8732 C   0  0  0  0  0  0
  -23.8995  -10.4284   21.0410 C   0  0  0  0  0  0
  -24.3583   -9.4193   21.9163 C   0  0  0  0  0  0
  -23.6286   -8.2237   22.0745 C   0  0  0  0  0  0
  -22.4243   -8.0284   21.3565 C   0  0  0  0  0  0
  -21.9869   -9.0248   20.4652 C   0  0  0  0  0  0
  -22.7185  -10.2127   20.3054 C   0  0  0  0  0  0
  -21.6845   -6.0753   22.5312 C   0  0  0  0  0  0
  -21.4040   -6.5666   23.8233 C   0  0  0  0  0  0
  -21.3629   -5.6804   24.9183 C   0  0  0  0  0  0
  -21.6014   -4.3067   24.7233 C   0  0  0  0  0  0
  -21.8814   -3.8166   23.4355 C   0  0  0  0  0  0
  -21.9195   -4.6991   22.3419 C   0  0  0  0  0  0
  -22.7816  -13.5225   21.1886 C   0  0  0  0  0  0
  -22.1650   -4.2179   21.0992 F   0  0  0  0  0  0
  -21.5574   -3.4539   25.7736 F   0  0  0  0  0  0
  -30.0045  -13.4292   20.4280 N   0  0  0  0  0  0
  -26.2957  -12.9248   20.3312 N   0  0  0  0  0  0
  -25.9269  -11.6432   20.5757 N   0  0  0  0  0  0
  -22.0482  -12.8233   22.0477 N   0  0  0  0  0  0
  -25.4322  -15.1823   20.4389 N   0  0  0  0  0  0
  -31.8577  -14.6526   20.1736 O   0  0  0  0  0  0
  -21.6607   -6.8896   21.4268 O   0  0  0  0  0  0
  -22.3468  -14.5533   20.6752 O   0  0  0  0  0  0
  -24.6234  -31.8600   23.2046 C   0  0  0  0  0  0
  -25.9109  -32.4767   23.8362 C   0  0  1  0  0  0
  -27.2466  -27.3677   20.0888 C   0  0  0  0  0  0
  -25.5937  -33.8567   24.2299 N   0  0  0  0  0  0
  -23.4149  -30.4822   21.5460 C   0  0  2  0  0  0
  -24.8594  -28.9333   20.1131 C   0  0  0  0  0  0
  -22.7466  -29.4612   22.4946 C   0  0  0  0  0  0
  -18.0294  -28.1364   22.8474 C   0  0  0  0  0  0
  -24.1487  -36.7302   23.2638 C   0  0  0  0  0  0
  -25.9501  -30.8003   21.3669 C   0  0  0  0  0  0
  -26.0237  -29.4308   20.7109 C   0  0  0  0  0  0
  -27.2143  -28.6554   20.6937 C   0  0  0  0  0  0
  -26.0480  -26.8861   19.5149 C   0  0  0  0  0  0
  -24.8686  -27.6608   19.5167 C   0  0  0  0  0  0
  -23.6253  -29.8134   20.1606 C   0  0  0  0  0  0
  -25.4107  -36.3082   24.0332 C   0  0  1  0  0  0
  -20.5885  -28.3668   23.1279 C   0  0  2  0  0  0
  -20.6781  -26.9395   22.5396 C   0  0  0  0  0  0
  -19.5765  -26.6374   21.5188 C   0  0  0  0  0  0
  -18.1944  -26.7913   22.1596 C   0  0  0  0  0  0
  -19.1542  -28.8826   23.2882 C   0  0  0  0  0  0
  -18.9472  -30.1425   23.8897 C   0  0  0  0  0  0
  -17.6472  -30.6568   24.0546 C   0  0  0  0  0  0
  -25.9041  -34.9445   23.5114 C   0  0  0  0  0  0
  -16.5365  -29.9067   23.6304 C   0  0  0  0  0  0
  -16.7282  -28.6486   23.0331 C   0  0  0  0  0  0
  -26.4515  -31.6558   25.0709 C   0  0  0  0  0  0
  -25.3786  -31.3667   26.1460 C   0  0  0  0  0  0
  -27.0353  -30.2994   24.6125 C   0  0  0  0  0  0
  -27.6099  -32.4280   25.7462 C   0  0  0  0  0  0
  -27.5589  -37.1790   24.8461 C   0  0  0  0  0  0
  -21.4183  -29.3042   22.3692 N   0  0  0  0  0  0
  -26.4293  -37.3776   23.9420 N   0  0  0  0  0  0
  -24.6817  -31.0643   22.0974 N   0  0  0  0  0  0
  -23.4198  -28.8152   23.3014 O   0  0  0  0  0  0
  -28.4288  -26.6253   20.1150 O   0  0  0  0  0  0
  -26.5611  -34.8909   22.4673 O   0  0  0  0  0  0
  -23.5408  -32.1396   23.7394 O   0  0  0  0  0  0
  -30.9037  -19.8663   20.4056 C   0  0  0  0  0  0
  -30.0641  -18.7354   20.1959 C   0  0  0  0  0  0
  -29.2316  -21.3641   19.7231 C   0  0  0  0  0  0
  -28.3595  -20.2352   19.5948 C   0  0  0  0  0  0
  -26.0108  -21.0033   20.2138 C   0  0  0  0  0  0
  -30.6612  -16.9705   18.5508 C   0  0  0  0  0  0
  -28.5555  -16.1967   21.0342 C   0  0  0  0  0  0
  -30.5964  -16.2693   22.4315 C   0  0  0  0  0  0
  -28.9113  -22.7825   19.1364 C   0  0  0  0  0  0
  -26.9053  -20.3372   19.1615 C   0  0  0  0  0  0
  -28.7691  -24.0437   20.0736 C   0  0  0  0  0  0
  -28.6253  -25.4220   19.3114 C   0  0  0  0  0  0
  -30.6499  -17.2752   20.0702 C   0  0  2  0  0  0
  -30.0895  -16.0593   20.9846 C   0  0  0  0  0  0
  -30.5026  -21.1551   20.1660 N   0  0  0  0  0  0
  -28.7790  -18.9564   19.8166 N   0  0  0  0  0  0
  -31.4695  -12.5161   19.1365 H   0  0  0  0  0  0
  -30.3647  -11.4058   19.8716 H   0  0  0  0  0  0
  -29.7758  -11.8014   17.4518 H   0  0  0  0  0  0
  -29.6263  -13.5111   17.7548 H   0  0  0  0  0  0
  -27.8645  -11.2798   18.8360 H   0  0  0  0  0  0
  -27.3775  -12.5765   17.7795 H   0  0  0  0  0  0
  -27.6698  -14.2138   19.4984 H   0  0  0  0  0  0
  -28.7347  -11.9884   21.2962 H   0  0  0  0  0  0
  -28.4636  -13.5500   21.9085 H   0  0  0  0  0  0
  -25.2756   -9.5656   22.4679 H   0  0  0  0  0  0
  -24.0042   -7.4618   22.7428 H   0  0  0  0  0  0
  -21.0808   -8.8722   19.8972 H   0  0  0  0  0  0
  -22.3642  -10.9641   19.6136 H   0  0  0  0  0  0
  -21.2104   -7.6188   23.9755 H   0  0  0  0  0  0
  -21.1408   -6.0523   25.9068 H   0  0  0  0  0  0
  -22.0631   -2.7649   23.2835 H   0  0  0  0  0  0
  -22.4072  -11.9926   22.4925 H   0  0  0  0  0  0
  -21.1106  -13.1261   22.2673 H   0  0  0  0  0  0
  -24.7047  -15.8501   20.6663 H   0  0  0  0  0  0
  -26.3214  -15.6180   20.2340 H   0  0  0  0  0  0
  -26.7170  -32.5432   23.1094 H   0  0  0  0  0  0
  -25.0081  -33.9698   25.0448 H   0  0  0  0  0  0
  -22.7085  -31.3031   21.4051 H   0  0  0  0  0  0
  -23.3748  -35.9634   23.3265 H   0  0  0  0  0  0
  -24.3598  -36.8960   22.2065 H   0  0  0  0  0  0
  -23.7227  -37.6487   23.6680 H   0  0  0  0  0  0
  -26.0742  -31.5626   20.5965 H   0  0  0  0  0  0
  -26.8344  -30.8494   21.9900 H   0  0  0  0  0  0
  -28.1142  -29.0400   21.1515 H   0  0  0  0  0  0
  -25.9866  -25.8986   19.0853 H   0  0  0  0  0  0
  -23.9688  -27.2598   19.0707 H   0  0  0  0  0  0
  -23.7462  -30.5912   19.4065 H   0  0  0  0  0  0
  -22.7433  -29.2471   19.8572 H   0  0  0  0  0  0
  -25.1266  -36.1935   25.0825 H   0  0  0  0  0  0
  -20.9987  -28.3254   24.1397 H   0  0  0  0  0  0
  -20.5665  -26.2287   23.3608 H   0  0  0  0  0  0
  -21.6659  -26.7420   22.1206 H   0  0  0  0  0  0
  -19.6924  -25.6290   21.1215 H   0  0  0  0  0  0
  -19.6689  -27.3188   20.6729 H   0  0  0  0  0  0
  -17.4215  -26.6663   21.4003 H   0  0  0  0  0  0
  -18.0331  -26.0045   22.8980 H   0  0  0  0  0  0
  -19.7952  -30.7228   24.2286 H   0  0  0  0  0  0
  -17.5031  -31.6243   24.5161 H   0  0  0  0  0  0
  -15.5363  -30.2959   23.7625 H   0  0  0  0  0  0
  -15.8696  -28.0800   22.7023 H   0  0  0  0  0  0
  -24.5969  -30.6990   25.7808 H   0  0  0  0  0  0
  -24.8951  -32.2812   26.4914 H   0  0  0  0  0  0
  -25.8147  -30.8844   27.0218 H   0  0  0  0  0  0
  -26.2892  -29.6710   24.1244 H   0  0  0  0  0  0
  -27.4179  -29.7263   25.4578 H   0  0  0  0  0  0
  -27.8708  -30.4279   23.9241 H   0  0  0  0  0  0
  -27.2762  -33.3617   26.2000 H   0  0  0  0  0  0
  -28.3939  -32.6774   25.0301 H   0  0  0  0  0  0
  -28.0744  -31.8423   26.5407 H   0  0  0  0  0  0
  -28.2569  -38.0126   24.7550 H   0  0  0  0  0  0
  -28.1120  -36.2649   24.6218 H   0  0  0  0  0  0
  -27.2320  -37.1364   25.8870 H   0  0  0  0  0  0
  -20.9362  -29.8797   21.6925 H   0  0  0  0  0  0
  -26.0164  -38.2839   24.1457 H   0  0  0  0  0  0
  -31.9446  -19.7350   20.6620 H   0  0  0  0  0  0
  -24.9616  -20.9240   19.9243 H   0  0  0  0  0  0
  -26.2480  -22.0586   20.3232 H   0  0  0  0  0  0
  -26.1257  -20.5363   21.1945 H   0  0  0  0  0  0
  -31.1695  -17.7730   18.0167 H   0  0  0  0  0  0
  -29.6509  -16.8947   18.1489 H   0  0  0  0  0  0
  -31.1871  -16.0580   18.2736 H   0  0  0  0  0  0
  -28.2747  -17.1449   21.4873 H   0  0  0  0  0  0
  -28.0398  -15.4793   21.6573 H   0  0  0  0  0  0
  -28.1355  -16.2005   20.0301 H   0  0  0  0  0  0
  -30.1742  -15.5217   23.1093 H   0  0  0  0  0  0
  -30.3170  -17.2508   22.8181 H   0  0  0  0  0  0
  -31.6821  -16.1982   22.5044 H   0  0  0  0  0  0
  -28.0184  -22.7236   18.5137 H   0  0  0  0  0  0
  -29.7089  -22.9876   18.4196 H   0  0  0  0  0  0
  -26.5259  -19.3271   18.9918 H   0  0  0  0  0  0
  -26.8336  -20.8458   18.2003 H   0  0  0  0  0  0
  -29.6541  -24.1080   20.7081 H   0  0  0  0  0  0
  -27.9168  -23.9118   20.7386 H   0  0  0  0  0  0
  -27.9111  -25.3408   18.4936 H   0  0  0  0  0  0
  -29.5727  -25.5931   18.7989 H   0  0  0  0  0  0
  -31.7010  -17.3774   20.3451 H   0  0  0  0  0  0
  1 25  1  0  0  0
  1 30  2  0  0  0
  1 84  1  0  0  0
  2  3  1  0  0  0
  2 25  1  0  0  0
  2 87  1  0  0  0
  2 88  1  0  0  0
  3  4  1  0  0  0
  3 89  1  0  0  0
  3 90  1  0  0  0
  4  5  1  0  0  0
  4 91  1  0  0  0
  4 92  1  0  0  0
  5  6  1  0  0  0
  5 26  1  0  0  0
  5 93  1  0  0  0
  6 25  1  0  0  0
  6 94  1  0  0  0
  6 95  1  0  0  0
  7  8  2  0  0  0
  7 26  1  0  0  0
  7 29  1  0  0  0
  8  9  1  0  0  0
  8 22  1  0  0  0
  9 10  1  0  0  0
  9 27  2  0  0  0
 10 11  2  0  0  0
 10 15  1  0  0  0
 11 12  1  0  0  0
 11 96  1  0  0  0
 12 13  2  0  0  0
 12 97  1  0  0  0
 13 14  1  0  0  0
 13 31  1  0  0  0
 14 15  2  0  0  0
 14 98  1  0  0  0
 15 99  1  0  0  0
 16 17  2  0  0  0
 16 21  1  0  0  0
 16 31  1  0  0  0
 17 18  1  0  0  0
 17100  1  0  0  0
 18 19  2  0  0  0
 18101  1  0  0  0
 19 20  1  0  0  0
 19 24  1  0  0  0
 20 21  2  0  0  0
 20102  1  0  0  0
 21 23  1  0  0  0
 22 28  1  0  0  0
 22 32  2  0  0  0
 26 27  1  0  0  0
 28103  1  0  0  0
 28104  1  0  0  0
 29105  1  0  0  0
 29106  1  0  0  0
 33 34  1  0  0  0
 33 66  1  0  0  0
 33 70  2  0  0  0
 34 36  1  0  0  0
 34 59  1  0  0  0
 34107  1  0  0  0
 35 44  2  0  0  0
 35 45  1  0  0  0
 35 68  1  0  0  0
 36 56  1  0  0  0
 36108  1  0  0  0
 37 39  1  0  0  0
 37 47  1  0  0  0
 37 66  1  0  0  0
 37109  1  0  0  0
 38 43  2  0  0  0
 38 46  1  0  0  0
 38 47  1  0  0  0
 39 64  1  0  0  0
 39 67  2  0  0  0
 40 52  1  0  0  0
 40 53  2  0  0  0
 40 58  1  0  0  0
 41110  1  0  0  0
 41111  1  0  0  0
 41112  1  0  0  0
 41 48  1  0  0  0
 42 43  1  0  0  0
 42 66  1  0  0  0
 42113  1  0  0  0
 42114  1  0  0  0
 43 44  1  0  0  0
 44115  1  0  0  0
 45 46  2  0  0  0
 45116  1  0  0  0
 46117  1  0  0  0
 47118  1  0  0  0
 47119  1  0  0  0
 48 56  1  0  0  0
 48 65  1  0  0  0
 48120  1  0  0  0
 49 50  1  0  0  0
 49 53  1  0  0  0
 49 64  1  0  0  0
 49121  1  0  0  0
 50 51  1  0  0  0
 50122  1  0  0  0
 50123  1  0  0  0
 51 52  1  0  0  0
 51124  1  0  0  0
 51125  1  0  0  0
 52126  1  0  0  0
 52127  1  0  0  0
 53 54  1  0  0  0
 54 55  2  0  0  0
 54128  1  0  0  0
 55 57  1  0  0  0
 55129  1  0  0  0
 56 69  2  0  0  0
 57 58  2  0  0  0
 57130  1  0  0  0
 58131  1  0  0  0
 59 60  1  0  0  0
 59 61  1  0  0  0
 59 62  1  0  0  0
 60132  1  0  0  0
 60133  1  0  0  0
 60134  1  0  0  0
 61135  1  0  0  0
 61136  1  0  0  0
 61137  1  0  0  0
 62138  1  0  0  0
 62139  1  0  0  0
 62140  1  0  0  0
 63 65  1  0  0  0
 63141  1  0  0  0
 63142  1  0  0  0
 63143  1  0  0  0
 64144  1  0  0  0
 65145  1  0  0  0
 68 82  1  0  0  0
 71 72  2  0  0  0
 71 85  1  0  0  0
 71146  1  0  0  0
 72 83  1  0  0  0
 72 86  1  0  0  0
 73 74  1  0  0  0
 73 79  1  0  0  0
 73 85  2  0  0  0
 74 80  1  0  0  0
 74 86  2  0  0  0
 75 80  1  0  0  0
 75147  1  0  0  0
 75148  1  0  0  0
 75149  1  0  0  0
 76150  1  0  0  0
 76151  1  0  0  0
 76152  1  0  0  0
 76 83  1  0  0  0
 77153  1  0  0  0
 77154  1  0  0  0
 77155  1  0  0  0
 77 84  1  0  0  0
 78 84  1  0  0  0
 78156  1  0  0  0
 78157  1  0  0  0
 78158  1  0  0  0
 79 81  1  0  0  0
 79159  1  0  0  0
 79160  1  0  0  0
 80161  1  0  0  0
 80162  1  0  0  0
 81 82  1  0  0  0
 81163  1  0  0  0
 81164  1  0  0  0
 82165  1  0  0  0
 82166  1  0  0  0
 83 84  1  0  0  0
 83167  1  0  0  0
M  ISO  4   1 100  68 101  82 101  84 100
M  END
> <chiral flag>
0

> <version>
0

> <s_m_source_file>
/data/baiqing/PycharmProjects/Reinvent-master-3.2/result/LINK_invent/BTK/process_docking_weight1_custom_sum_contain_oxygen_bond_distance_aromatic_linkinvent_7_9_3/rearranged_h_0069.sdf

> <i_m_source_file_index>
83

> <r_mmod_Potential_Energy-OPLS-2005>
181.99755859375

> <r_mmod_Stretch_Energy-OPLS-2005>
86.1090621948242

> <r_mmod_Bend_Energy-OPLS-2005>
180.36653137207

> <r_mmod_Torsional_Energy-OPLS-2005>
175.700958251953

> <r_mmod_Improper_Torsional_Energy-OPLS-2005>
5.66604089736938

> <r_mmod_Van_der_Waal_Energy-OPLS-2005>
162.732467651367

> <r_mmod_Electrostatic_Energy-OPLS-2005>
-274.749267578125

> <r_mmod_Solvation_Energy-OPLS-2005>
-189.002868652344

> <b_mmod_Minimization_Converged-OPLS-2005>
0

> <r_mmod_RMS_Derivative-OPLS-2005>
4.64539432525635

$$$$
84
                    3D
 Structure written by MMmdl.
167175  0  0  1  0            999 V2000
  -30.4652  -15.0368   20.2673 C   0  0  0  0  0  0
  -30.4402  -12.6336   19.4660 C   0  0  0  0  0  0
  -29.5173  -12.4943   18.2334 C   0  0  0  0  0  0
  -28.0628  -12.2389   18.6798 C   0  0  0  0  0  0
  -27.6135  -13.1990   19.8136 C   0  0  2  0  0  0
  -28.6612  -13.3270   20.9335 C   0  0  0  0  0  0
  -25.2744  -13.7854   20.6408 C   0  0  0  0  0  0
  -24.1770  -13.0239   20.9231 C   0  0  0  0  0  0
  -24.6259  -11.6699   20.8566 C   0  0  0  0  0  0
  -23.8918  -10.4166   21.0312 C   0  0  0  0  0  0
  -24.3520   -9.4160   21.9167 C   0  0  0  0  0  0
  -23.6193   -8.2231   22.0785 C   0  0  0  0  0  0
  -22.4196   -8.0228   21.3560 C   0  0  0  0  0  0
  -21.9770   -9.0165   20.4676 C   0  0  0  0  0  0
  -22.7079  -10.2012   20.3020 C   0  0  0  0  0  0
  -21.6833   -6.0701   22.5290 C   0  0  0  0  0  0
  -21.4016   -6.5627   23.8208 C   0  0  0  0  0  0
  -21.3655   -5.6794   24.9178 C   0  0  0  0  0  0
  -21.6040   -4.3053   24.7237 C   0  0  0  0  0  0
  -21.8825   -3.8124   23.4364 C   0  0  0  0  0  0
  -21.9216   -4.6942   22.3408 C   0  0  0  0  0  0
  -22.7878  -13.5208   21.1943 C   0  0  0  0  0  0
  -22.1709   -4.2128   21.0991 F   0  0  0  0  0  0
  -21.5590   -3.4546   25.7750 F   0  0  0  0  0  0
  -29.9120  -13.7536   20.3004 N   0  0  0  0  0  0
  -26.2878  -12.9013   20.3296 N   0  0  0  0  0  0
  -25.9147  -11.6182   20.5468 N   0  0  0  0  0  0
  -22.0363  -12.8286   22.0438 N   0  0  0  0  0  0
  -25.5140  -15.1474   20.6299 N   0  0  0  0  0  0
  -31.6989  -15.0685   20.1636 O   0  0  0  0  0  0
  -21.6602   -6.8807   21.4241 O   0  0  0  0  0  0
  -22.3758  -14.5632   20.6835 O   0  0  0  0  0  0
  -24.6513  -31.8298   23.1825 C   0  0  0  0  0  0
  -25.9265  -32.4547   23.8242 C   0  0  1  0  0  0
  -27.2242  -27.0964   20.1110 C   0  0  0  0  0  0
  -25.5996  -33.8375   24.2137 N   0  0  0  0  0  0
  -23.4574  -30.4533   21.5205 C   0  0  2  0  0  0
  -24.9055  -28.8661   20.0947 C   0  0  0  0  0  0
  -22.7565  -29.4510   22.4750 C   0  0  0  0  0  0
  -18.0295  -28.1418   22.8439 C   0  0  0  0  0  0
  -24.1530  -36.7259   23.2651 C   0  0  0  0  0  0
  -26.0178  -30.6824   21.3933 C   0  0  0  0  0  0
  -26.0819  -29.2940   20.7241 C   0  0  0  0  0  0
  -27.2324  -28.4187   20.7275 C   0  0  0  0  0  0
  -26.0250  -26.7722   19.4465 C   0  0  0  0  0  0
  -24.8878  -27.6156   19.4499 C   0  0  0  0  0  0
  -23.6880  -29.7779   20.1387 C   0  0  0  0  0  0
  -25.4139  -36.2936   24.0301 C   0  0  1  0  0  0
  -20.5900  -28.3775   23.1190 C   0  0  2  0  0  0
  -20.6817  -26.9472   22.5382 C   0  0  0  0  0  0
  -19.5808  -26.6408   21.5183 C   0  0  0  0  0  0
  -18.1961  -26.7961   22.1570 C   0  0  0  0  0  0
  -19.1557  -28.8902   23.2816 C   0  0  0  0  0  0
  -18.9459  -30.1467   23.8900 C   0  0  0  0  0  0
  -17.6465  -30.6603   24.0565 C   0  0  0  0  0  0
  -25.9082  -34.9311   23.5019 C   0  0  0  0  0  0
  -16.5353  -29.9105   23.6343 C   0  0  0  0  0  0
  -16.7268  -28.6525   23.0348 C   0  0  0  0  0  0
  -26.4612  -31.6441   25.0708 C   0  0  0  0  0  0
  -25.3871  -31.3563   26.1442 C   0  0  0  0  0  0
  -27.0489  -30.2804   24.6386 C   0  0  0  0  0  0
  -27.6089  -32.4274   25.7497 C   0  0  0  0  0  0
  -27.5583  -37.1739   24.8456 C   0  0  0  0  0  0
  -21.4255  -29.3079   22.3526 N   0  0  0  0  0  0
  -26.4300  -37.3645   23.9388 N   0  0  0  0  0  0
  -24.7298  -31.0097   22.0873 N   0  0  0  0  0  0
  -23.4156  -28.8049   23.2933 O   0  0  0  0  0  0
  -28.2891  -26.1204   20.2068 O   0  0  0  0  0  0
  -26.5645  -34.8838   22.4576 O   0  0  0  0  0  0
  -23.5630  -32.1206   23.7018 O   0  0  0  0  0  0
  -30.0940  -17.8047   20.2102 C   0  0  0  0  0  0
  -29.6642  -16.4482   20.1043 C   0  0  0  0  0  0
  -28.0913  -17.9094   19.2532 C   0  0  0  0  0  0
  -30.1866  -21.5437   17.2745 C   0  0  0  0  0  0
  -27.4511  -18.1820   16.8638 C   0  0  0  0  0  0
  -26.0693  -19.4915   18.5611 C   0  0  0  0  0  0
  -25.8552  -17.0694   18.3547 C   0  0  0  0  0  0
  -30.4166  -20.4885   18.3637 C   0  0  0  0  0  0
  -28.0852  -23.1179   20.1351 C   0  0  0  0  0  0
  -28.9875  -21.6615   20.2843 C   0  0  0  0  0  0
  -28.4306  -24.6858   19.5695 C   0  0  0  0  0  0
  -29.1838  -20.3055   19.2830 C   0  0  2  0  0  0
  -26.9032  -18.1982   18.3010 C   0  0  0  0  0  0
  -29.1178  -18.7257   19.6774 N   0  0  0  0  0  0
  -28.4239  -16.6121   19.5254 N   0  3  0  0  0  0
  -31.4646  -12.8197   19.1407 H   0  0  0  0  0  0
  -30.4771  -11.6960   20.0229 H   0  0  0  0  0  0
  -29.8606  -11.6787   17.5917 H   0  0  0  0  0  0
  -29.5727  -13.4003   17.6280 H   0  0  0  0  0  0
  -28.0201  -11.2048   19.0291 H   0  0  0  0  0  0
  -27.3875  -12.3014   17.8266 H   0  0  0  0  0  0
  -27.5247  -14.1641   19.3243 H   0  0  0  0  0  0
  -28.8011  -12.3894   21.4746 H   0  0  0  0  0  0
  -28.3502  -14.0682   21.6719 H   0  0  0  0  0  0
  -25.2676   -9.5669   22.4712 H   0  0  0  0  0  0
  -23.9881   -7.4674   22.7572 H   0  0  0  0  0  0
  -21.0674   -8.8643   19.9038 H   0  0  0  0  0  0
  -22.3554  -10.9520   19.6086 H   0  0  0  0  0  0
  -21.2025   -7.6151   23.9678 H   0  0  0  0  0  0
  -21.1468   -6.0560   25.9064 H   0  0  0  0  0  0
  -22.0612   -2.7598   23.2874 H   0  0  0  0  0  0
  -22.3657  -11.9736   22.4687 H   0  0  0  0  0  0
  -21.1080  -13.1524   22.2691 H   0  0  0  0  0  0
  -24.6865  -15.7103   20.7934 H   0  0  0  0  0  0
  -26.1949  -15.3856   21.3430 H   0  0  0  0  0  0
  -26.7313  -32.5085   23.0948 H   0  0  0  0  0  0
  -25.0195  -33.9489   25.0317 H   0  0  0  0  0  0
  -22.7710  -31.2858   21.3541 H   0  0  0  0  0  0
  -23.3743  -35.9637   23.3273 H   0  0  0  0  0  0
  -24.3686  -36.8956   22.2088 H   0  0  0  0  0  0
  -23.7347  -37.6455   23.6770 H   0  0  0  0  0  0
  -26.2038  -31.4338   20.6256 H   0  0  0  0  0  0
  -26.8778  -30.7080   22.0506 H   0  0  0  0  0  0
  -28.1242  -28.7306   21.2554 H   0  0  0  0  0  0
  -25.9433  -25.8173   18.9476 H   0  0  0  0  0  0
  -23.9872  -27.2842   18.9502 H   0  0  0  0  0  0
  -23.8374  -30.5515   19.3848 H   0  0  0  0  0  0
  -22.8045  -29.2254   19.8191 H   0  0  0  0  0  0
  -25.1319  -36.1756   25.0792 H   0  0  0  0  0  0
  -20.9988  -28.3405   24.1314 H   0  0  0  0  0  0
  -20.5742  -26.2373   23.3605 H   0  0  0  0  0  0
  -21.6684  -26.7510   22.1167 H   0  0  0  0  0  0
  -19.7016  -25.6315   21.1233 H   0  0  0  0  0  0
  -19.6784  -27.3224   20.6737 H   0  0  0  0  0  0
  -17.4239  -26.6665   21.3975 H   0  0  0  0  0  0
  -18.0395  -26.0087   22.8979 H   0  0  0  0  0  0
  -19.7933  -30.7253   24.2321 H   0  0  0  0  0  0
  -17.5022  -31.6301   24.5156 H   0  0  0  0  0  0
  -15.5358  -30.3017   23.7692 H   0  0  0  0  0  0
  -15.8654  -28.0858   22.7096 H   0  0  0  0  0  0
  -24.6117  -30.6806   25.7831 H   0  0  0  0  0  0
  -24.9017  -32.2683   26.4903 H   0  0  0  0  0  0
  -25.8285  -30.8777   27.0190 H   0  0  0  0  0  0
  -26.3072  -29.6394   24.1588 H   0  0  0  0  0  0
  -27.4216  -29.7253   25.5007 H   0  0  0  0  0  0
  -27.8988  -30.3951   23.9644 H   0  0  0  0  0  0
  -27.2637  -33.3615   26.1952 H   0  0  0  0  0  0
  -28.3975  -32.6736   25.0372 H   0  0  0  0  0  0
  -28.0684  -31.8470   26.5500 H   0  0  0  0  0  0
  -28.2471  -38.0135   24.7496 H   0  0  0  0  0  0
  -28.1163  -36.2624   24.6263 H   0  0  0  0  0  0
  -27.2308  -37.1389   25.8856 H   0  0  0  0  0  0
  -20.9464  -29.8782   21.6697 H   0  0  0  0  0  0
  -26.0144  -38.2705   24.1345 H   0  0  0  0  0  0
  -31.0629  -18.1582   20.5283 H   0  0  0  0  0  0
  -31.0026  -21.5446   16.5509 H   0  0  0  0  0  0
  -30.1047  -22.5448   17.7058 H   0  0  0  0  0  0
  -29.2720  -21.3362   16.7186 H   0  0  0  0  0  0
  -28.3308  -18.8167   16.7469 H   0  0  0  0  0  0
  -26.7125  -18.5074   16.1313 H   0  0  0  0  0  0
  -27.7503  -17.1711   16.5864 H   0  0  0  0  0  0
  -26.4298  -20.3846   18.0541 H   0  0  0  0  0  0
  -25.9498  -19.7137   19.6216 H   0  0  0  0  0  0
  -25.0567  -19.3805   18.1639 H   0  0  0  0  0  0
  -26.2843  -16.0721   18.2667 H   0  0  0  0  0  0
  -25.1214  -17.1533   17.5528 H   0  0  0  0  0  0
  -25.2846  -17.1485   19.2773 H   0  0  0  0  0  0
  -31.3019  -20.7342   18.9544 H   0  0  0  0  0  0
  -30.6642  -19.5467   17.8652 H   0  0  0  0  0  0
  -27.8139  -23.3253   21.1696 H   0  0  0  0  0  0
  -27.1286  -22.8296   19.6950 H   0  0  0  0  0  0
  -28.5435  -21.2031   21.1686 H   0  0  0  0  0  0
  -29.9809  -21.9406   20.6337 H   0  0  0  0  0  0
  -27.9626  -24.7545   18.5891 H   0  0  0  0  0  0
  -29.4908  -24.6411   19.3248 H   0  0  0  0  0  0
  -28.3810  -20.4181   18.5733 H   0  0  0  0  0  0
  -27.8482  -15.8490   19.1979 H   0  0  0  0  0  0
  1 25  1  0  0  0
  1 30  2  0  0  0
  1 72  1  0  0  0
  2  3  1  0  0  0
  2 25  1  0  0  0
  2 86  1  0  0  0
  2 87  1  0  0  0
  3  4  1  0  0  0
  3 88  1  0  0  0
  3 89  1  0  0  0
  4  5  1  0  0  0
  4 90  1  0  0  0
  4 91  1  0  0  0
  5  6  1  0  0  0
  5 26  1  0  0  0
  5 92  1  0  0  0
  6 25  1  0  0  0
  6 93  1  0  0  0
  6 94  1  0  0  0
  7  8  2  0  0  0
  7 26  1  0  0  0
  7 29  1  0  0  0
  8  9  1  0  0  0
  8 22  1  0  0  0
  9 10  1  0  0  0
  9 27  2  0  0  0
 10 11  2  0  0  0
 10 15  1  0  0  0
 11 12  1  0  0  0
 11 95  1  0  0  0
 12 13  2  0  0  0
 12 96  1  0  0  0
 13 14  1  0  0  0
 13 31  1  0  0  0
 14 15  2  0  0  0
 14 97  1  0  0  0
 15 98  1  0  0  0
 16 17  2  0  0  0
 16 21  1  0  0  0
 16 31  1  0  0  0
 17 18  1  0  0  0
 17 99  1  0  0  0
 18 19  2  0  0  0
 18100  1  0  0  0
 19 20  1  0  0  0
 19 24  1  0  0  0
 20 21  2  0  0  0
 20101  1  0  0  0
 21 23  1  0  0  0
 22 28  1  0  0  0
 22 32  2  0  0  0
 26 27  1  0  0  0
 28102  1  0  0  0
 28103  1  0  0  0
 29104  1  0  0  0
 29105  1  0  0  0
 33 34  1  0  0  0
 33 66  1  0  0  0
 33 70  2  0  0  0
 34 36  1  0  0  0
 34 59  1  0  0  0
 34106  1  0  0  0
 35 44  2  0  0  0
 35 45  1  0  0  0
 35 68  1  0  0  0
 36 56  1  0  0  0
 36107  1  0  0  0
 37 39  1  0  0  0
 37 47  1  0  0  0
 37 66  1  0  0  0
 37108  1  0  0  0
 38 43  2  0  0  0
 38 46  1  0  0  0
 38 47  1  0  0  0
 39 64  1  0  0  0
 39 67  2  0  0  0
 40 52  1  0  0  0
 40 53  2  0  0  0
 40 58  1  0  0  0
 41109  1  0  0  0
 41110  1  0  0  0
 41111  1  0  0  0
 41 48  1  0  0  0
 42 43  1  0  0  0
 42 66  1  0  0  0
 42112  1  0  0  0
 42113  1  0  0  0
 43 44  1  0  0  0
 44114  1  0  0  0
 45 46  2  0  0  0
 45115  1  0  0  0
 46116  1  0  0  0
 47117  1  0  0  0
 47118  1  0  0  0
 48 56  1  0  0  0
 48 65  1  0  0  0
 48119  1  0  0  0
 49 50  1  0  0  0
 49 53  1  0  0  0
 49 64  1  0  0  0
 49120  1  0  0  0
 50 51  1  0  0  0
 50121  1  0  0  0
 50122  1  0  0  0
 51 52  1  0  0  0
 51123  1  0  0  0
 51124  1  0  0  0
 52125  1  0  0  0
 52126  1  0  0  0
 53 54  1  0  0  0
 54 55  2  0  0  0
 54127  1  0  0  0
 55 57  1  0  0  0
 55128  1  0  0  0
 56 69  2  0  0  0
 57 58  2  0  0  0
 57129  1  0  0  0
 58130  1  0  0  0
 59 60  1  0  0  0
 59 61  1  0  0  0
 59 62  1  0  0  0
 60131  1  0  0  0
 60132  1  0  0  0
 60133  1  0  0  0
 61134  1  0  0  0
 61135  1  0  0  0
 61136  1  0  0  0
 62137  1  0  0  0
 62138  1  0  0  0
 62139  1  0  0  0
 63 65  1  0  0  0
 63140  1  0  0  0
 63141  1  0  0  0
 63142  1  0  0  0
 64143  1  0  0  0
 65144  1  0  0  0
 68 81  1  0  0  0
 71 72  2  0  0  0
 71 84  1  0  0  0
 71145  1  0  0  0
 72 85  1  0  0  0
 73 83  1  0  0  0
 73 84  1  0  0  0
 73 85  2  0  0  0
 74 78  1  0  0  0
 74146  1  0  0  0
 74147  1  0  0  0
 74148  1  0  0  0
 75149  1  0  0  0
 75150  1  0  0  0
 75151  1  0  0  0
 75 83  1  0  0  0
 76 83  1  0  0  0
 76152  1  0  0  0
 76153  1  0  0  0
 76154  1  0  0  0
 77 83  1  0  0  0
 77155  1  0  0  0
 77156  1  0  0  0
 77157  1  0  0  0
 78158  1  0  0  0
 78159  1  0  0  0
 78 82  1  0  0  0
 79 80  1  0  0  0
 79 81  1  0  0  0
 79160  1  0  0  0
 79161  1  0  0  0
 80 82  1  0  0  0
 80162  1  0  0  0
 80163  1  0  0  0
 81164  1  0  0  0
 81165  1  0  0  0
 82 84  1  0  0  0
 82166  1  0  0  0
 85167  1  0  0  0
M  CHG  1  85   1
M  ISO  4   1 100  68 101  72 100  81 101
M  END
> <chiral flag>
0

> <version>
0

> <s_m_source_file>
/data/baiqing/PycharmProjects/Reinvent-master-3.2/result/LINK_invent/BTK/process_docking_weight1_custom_sum_contain_oxygen_bond_distance_aromatic_linkinvent_7_9_3/rearranged_h_0069.sdf

> <i_m_source_file_index>
84

> <r_mmod_Potential_Energy-OPLS-2005>
815.425170898438

> <r_mmod_Stretch_Energy-OPLS-2005>
310.320159912109

> <r_mmod_Bend_Energy-OPLS-2005>
386.643310546875

> <r_mmod_Torsional_Energy-OPLS-2005>
321.807647705078

> <r_mmod_Improper_Torsional_Energy-OPLS-2005>
16.5147933959961

> <r_mmod_Van_der_Waal_Energy-OPLS-2005>
116.262153625488

> <r_mmod_Electrostatic_Energy-OPLS-2005>
-220.221878051758

> <r_mmod_Solvation_Energy-OPLS-2005>
-380.241149902344

> <b_mmod_Minimization_Converged-OPLS-2005>
0

> <r_mmod_RMS_Derivative-OPLS-2005>
6.91701459884644

$$$$
85
                    3D
 Structure written by MMmdl.
161169  0  0  1  0            999 V2000
  -30.6456  -14.7137   20.5226 C   0  0  0  0  0  0
  -30.4298  -12.4539   19.4658 C   0  0  0  0  0  0
  -29.5026  -12.5126   18.2311 C   0  0  0  0  0  0
  -28.0218  -12.3498   18.6306 C   0  0  0  0  0  0
  -27.6391  -13.2215   19.8551 C   0  0  2  0  0  0
  -28.6872  -13.0715   20.9744 C   0  0  0  0  0  0
  -25.2440  -13.8153   20.5711 C   0  0  0  0  0  0
  -24.1755  -13.0404   20.9234 C   0  0  0  0  0  0
  -24.6372  -11.6885   20.8765 C   0  0  0  0  0  0
  -23.9064  -10.4269   21.0410 C   0  0  0  0  0  0
  -24.3620   -9.4180   21.9178 C   0  0  0  0  0  0
  -23.6286   -8.2231   22.0746 C   0  0  0  0  0  0
  -22.4265   -8.0271   21.3542 C   0  0  0  0  0  0
  -21.9914   -9.0246   20.4640 C   0  0  0  0  0  0
  -22.7254  -10.2118   20.3053 C   0  0  0  0  0  0
  -21.6839   -6.0732   22.5286 C   0  0  0  0  0  0
  -21.4014   -6.5638   23.8220 C   0  0  0  0  0  0
  -21.3670   -5.6797   24.9184 C   0  0  0  0  0  0
  -21.6047   -4.3059   24.7228 C   0  0  0  0  0  0
  -21.8818   -3.8147   23.4359 C   0  0  0  0  0  0
  -21.9196   -4.6960   22.3413 C   0  0  0  0  0  0
  -22.7768  -13.5164   21.1919 C   0  0  0  0  0  0
  -22.1648   -4.2142   21.0987 F   0  0  0  0  0  0
  -21.5640   -3.4551   25.7750 F   0  0  0  0  0  0
  -29.9801  -13.5014   20.4157 N   0  0  0  0  0  0
  -26.2893  -12.9379   20.3301 N   0  0  0  0  0  0
  -25.9300  -11.6525   20.5755 N   0  0  0  0  0  0
  -22.0440  -12.8148   22.0478 N   0  0  0  0  0  0
  -25.4019  -15.1887   20.4151 N   0  0  0  0  0  0
  -31.8236  -14.7602   20.1519 O   0  0  0  0  0  0
  -21.6626   -6.8871   21.4242 O   0  0  0  0  0  0
  -22.3450  -14.5472   20.6763 O   0  0  0  0  0  0
  -24.6281  -31.8572   23.1969 C   0  0  0  0  0  0
  -25.9106  -32.4762   23.8334 C   0  0  1  0  0  0
  -27.2183  -27.2916   20.1287 C   0  0  0  0  0  0
  -25.5919  -33.8566   24.2260 N   0  0  0  0  0  0
  -23.4256  -30.4790   21.5412 C   0  0  2  0  0  0
  -24.8712  -28.9298   20.1147 C   0  0  0  0  0  0
  -22.7509  -29.4590   22.4901 C   0  0  0  0  0  0
  -18.0306  -28.1397   22.8477 C   0  0  0  0  0  0
  -24.1483  -36.7264   23.2641 C   0  0  0  0  0  0
  -25.9675  -30.7802   21.3729 C   0  0  0  0  0  0
  -26.0424  -29.4045   20.7192 C   0  0  0  0  0  0
  -27.2220  -28.5988   20.7125 C   0  0  0  0  0  0
  -26.0276  -26.8756   19.4969 C   0  0  0  0  0  0
  -24.8673  -27.6721   19.4937 C   0  0  0  0  0  0
  -23.6406  -29.8139   20.1587 C   0  0  0  0  0  0
  -25.4119  -36.3057   24.0320 C   0  0  1  0  0  0
  -20.5907  -28.3703   23.1275 C   0  0  2  0  0  0
  -20.6781  -26.9418   22.5420 C   0  0  0  0  0  0
  -19.5760  -26.6388   21.5220 C   0  0  0  0  0  0
  -18.1944  -26.7944   22.1628 C   0  0  0  0  0  0
  -19.1556  -28.8870   23.2868 C   0  0  0  0  0  0
  -18.9475  -30.1470   23.8885 C   0  0  0  0  0  0
  -17.6469  -30.6594   24.0562 C   0  0  0  0  0  0
  -25.9067  -34.9437   23.5095 C   0  0  0  0  0  0
  -16.5360  -29.9085   23.6331 C   0  0  0  0  0  0
  -16.7293  -28.6513   23.0338 C   0  0  0  0  0  0
  -26.4514  -31.6562   25.0691 C   0  0  0  0  0  0
  -25.3723  -31.3676   26.1385 C   0  0  0  0  0  0
  -27.0375  -30.3001   24.6118 C   0  0  0  0  0  0
  -27.6085  -32.4300   25.7454 C   0  0  0  0  0  0
  -27.5585  -37.1776   24.8465 C   0  0  0  0  0  0
  -21.4216  -29.3031   22.3645 N   0  0  0  0  0  0
  -26.4293  -37.3761   23.9410 N   0  0  0  0  0  0
  -24.6932  -31.0571   22.0934 N   0  0  0  0  0  0
  -23.4221  -28.8132   23.2991 O   0  0  0  0  0  0
  -28.3181  -26.4169   20.1420 O   0  0  0  0  0  0
  -26.5651  -34.8922   22.4675 O   0  0  0  0  0  0
  -23.5447  -32.1388   23.7278 O   0  0  0  0  0  0
  -29.5177  -19.7949   20.4985 C   0  0  0  0  0  0
  -28.8715  -20.9177   19.8469 C   0  0  0  0  0  0
  -29.6999  -18.5108   19.8541 C   0  0  0  0  0  0
  -28.3954  -20.6465   18.5445 C   0  0  0  0  0  0
  -29.2013  -18.4270   18.5276 C   0  0  0  0  0  0
  -27.6161  -21.6515   17.7150 C   0  0  0  0  0  0
  -28.8777  -16.0635   21.7272 C   0  0  0  0  0  0
  -28.5391  -22.2970   20.5750 C   0  0  0  0  0  0
  -30.5460  -17.3071   20.4708 C   0  0  0  0  0  0
  -28.8116  -23.7575   19.9312 C   0  0  0  0  0  0
  -28.0967  -25.0200   20.6230 C   0  0  0  0  0  0
  -29.3942  -17.1767   17.6497 C   0  0  0  0  0  0
  -28.5687  -19.4652   17.9244 N   0  0  0  0  0  0
  -29.9609  -15.9219   20.7488 N   0  0  0  0  0  0
  -30.6915  -16.9048   17.4954 F   0  0  0  0  0  0
  -28.7915  -16.1195   18.1935 F   0  0  0  0  0  0
  -28.8764  -17.3441   16.4288 F   0  0  0  0  0  0
  -31.4685  -12.5742   19.1559 H   0  0  0  0  0  0
  -30.3894  -11.4693   19.9345 H   0  0  0  0  0  0
  -29.7832  -11.7360   17.5190 H   0  0  0  0  0  0
  -29.6375  -13.4674   17.7189 H   0  0  0  0  0  0
  -27.8565  -11.2967   18.8640 H   0  0  0  0  0  0
  -27.3727  -12.5794   17.7835 H   0  0  0  0  0  0
  -27.6517  -14.2551   19.5126 H   0  0  0  0  0  0
  -28.7372  -12.0266   21.2865 H   0  0  0  0  0  0
  -28.3947  -13.6001   21.8741 H   0  0  0  0  0  0
  -25.2763   -9.5657   22.4753 H   0  0  0  0  0  0
  -24.0013   -7.4602   22.7446 H   0  0  0  0  0  0
  -21.0875   -8.8762   19.8920 H   0  0  0  0  0  0
  -22.3717  -10.9660   19.6161 H   0  0  0  0  0  0
  -21.1993   -7.6139   23.9733 H   0  0  0  0  0  0
  -21.1489   -6.0514   25.9091 H   0  0  0  0  0  0
  -22.0590   -2.7607   23.2866 H   0  0  0  0  0  0
  -22.4093  -11.9829   22.4869 H   0  0  0  0  0  0
  -21.1012  -13.1083   22.2656 H   0  0  0  0  0  0
  -24.6276  -15.8275   20.5600 H   0  0  0  0  0  0
  -26.2486  -15.6482   20.1102 H   0  0  0  0  0  0
  -26.7152  -32.5438   23.1073 H   0  0  0  0  0  0
  -25.0032  -33.9710   25.0385 H   0  0  0  0  0  0
  -22.7206  -31.2994   21.3942 H   0  0  0  0  0  0
  -23.3753  -35.9580   23.3302 H   0  0  0  0  0  0
  -24.3586  -36.8917   22.2061 H   0  0  0  0  0  0
  -23.7238  -37.6460   23.6700 H   0  0  0  0  0  0
  -26.1014  -31.5361   20.5978 H   0  0  0  0  0  0
  -26.8490  -30.8356   21.9996 H   0  0  0  0  0  0
  -28.1229  -28.9528   21.1930 H   0  0  0  0  0  0
  -25.9852  -25.9120   19.0080 H   0  0  0  0  0  0
  -23.9706  -27.3056   19.0138 H   0  0  0  0  0  0
  -23.7602  -30.5886   19.3988 H   0  0  0  0  0  0
  -22.7627  -29.2411   19.8565 H   0  0  0  0  0  0
  -25.1288  -36.1910   25.0812 H   0  0  0  0  0  0
  -21.0010  -28.3284   24.1388 H   0  0  0  0  0  0
  -20.5692  -26.2301   23.3621 H   0  0  0  0  0  0
  -21.6649  -26.7425   22.1215 H   0  0  0  0  0  0
  -19.6921  -25.6299   21.1257 H   0  0  0  0  0  0
  -19.6713  -27.3186   20.6752 H   0  0  0  0  0  0
  -17.4209  -26.6690   21.4029 H   0  0  0  0  0  0
  -18.0327  -26.0088   22.9036 H   0  0  0  0  0  0
  -19.7949  -30.7287   24.2246 H   0  0  0  0  0  0
  -17.5029  -31.6274   24.5160 H   0  0  0  0  0  0
  -15.5366  -30.2979   23.7676 H   0  0  0  0  0  0
  -15.8700  -28.0846   22.7031 H   0  0  0  0  0  0
  -24.5925  -30.7013   25.7678 H   0  0  0  0  0  0
  -24.8856  -32.2811   26.4799 H   0  0  0  0  0  0
  -25.8008  -30.8858   27.0172 H   0  0  0  0  0  0
  -26.2953  -29.6719   24.1172 H   0  0  0  0  0  0
  -27.4146  -29.7276   25.4603 H   0  0  0  0  0  0
  -27.8785  -30.4319   23.9299 H   0  0  0  0  0  0
  -27.2742  -33.3643   26.1979 H   0  0  0  0  0  0
  -28.3918  -32.6789   25.0273 H   0  0  0  0  0  0
  -28.0711  -31.8432   26.5399 H   0  0  0  0  0  0
  -28.2556  -38.0111   24.7553 H   0  0  0  0  0  0
  -28.1134  -36.2649   24.6251 H   0  0  0  0  0  0
  -27.2307  -37.1357   25.8866 H   0  0  0  0  0  0
  -20.9408  -29.8757   21.6845 H   0  0  0  0  0  0
  -26.0163  -38.2826   24.1450 H   0  0  0  0  0  0
  -29.8734  -19.9235   21.5107 H   0  0  0  0  0  0
  -26.9333  -22.2485   18.3202 H   0  0  0  0  0  0
  -27.0127  -21.1553   16.9539 H   0  0  0  0  0  0
  -28.3118  -22.3066   17.1949 H   0  0  0  0  0  0
  -29.0608  -15.4587   22.6156 H   0  0  0  0  0  0
  -27.9176  -15.7960   21.2940 H   0  0  0  0  0  0
  -28.7733  -17.0876   22.0921 H   0  0  0  0  0  0
  -29.0041  -22.2732   21.5612 H   0  0  0  0  0  0
  -27.4695  -22.2397   20.7822 H   0  0  0  0  0  0
  -30.9784  -17.6563   21.4110 H   0  0  0  0  0  0
  -31.4136  -17.1908   19.8216 H   0  0  0  0  0  0
  -28.5042  -23.7837   18.8911 H   0  0  0  0  0  0
  -29.8876  -23.9301   19.9104 H   0  0  0  0  0  0
  -28.3972  -25.0196   21.6708 H   0  0  0  0  0  0
  -27.0319  -24.7978   20.6671 H   0  0  0  0  0  0
  1 25  1  0  0  0
  1 30  2  0  0  0
  1 84  1  0  0  0
  2  3  1  0  0  0
  2 25  1  0  0  0
  2 88  1  0  0  0
  2 89  1  0  0  0
  3  4  1  0  0  0
  3 90  1  0  0  0
  3 91  1  0  0  0
  4  5  1  0  0  0
  4 92  1  0  0  0
  4 93  1  0  0  0
  5  6  1  0  0  0
  5 26  1  0  0  0
  5 94  1  0  0  0
  6 25  1  0  0  0
  6 95  1  0  0  0
  6 96  1  0  0  0
  7  8  2  0  0  0
  7 26  1  0  0  0
  7 29  1  0  0  0
  8  9  1  0  0  0
  8 22  1  0  0  0
  9 10  1  0  0  0
  9 27  2  0  0  0
 10 11  2  0  0  0
 10 15  1  0  0  0
 11 12  1  0  0  0
 11 97  1  0  0  0
 12 13  2  0  0  0
 12 98  1  0  0  0
 13 14  1  0  0  0
 13 31  1  0  0  0
 14 15  2  0  0  0
 14 99  1  0  0  0
 15100  1  0  0  0
 16 17  2  0  0  0
 16 21  1  0  0  0
 16 31  1  0  0  0
 17 18  1  0  0  0
 17101  1  0  0  0
 18 19  2  0  0  0
 18102  1  0  0  0
 19 20  1  0  0  0
 19 24  1  0  0  0
 20 21  2  0  0  0
 20103  1  0  0  0
 21 23  1  0  0  0
 22 28  1  0  0  0
 22 32  2  0  0  0
 26 27  1  0  0  0
 28104  1  0  0  0
 28105  1  0  0  0
 29106  1  0  0  0
 29107  1  0  0  0
 33 34  1  0  0  0
 33 66  1  0  0  0
 33 70  2  0  0  0
 34 36  1  0  0  0
 34 59  1  0  0  0
 34108  1  0  0  0
 35 44  2  0  0  0
 35 45  1  0  0  0
 35 68  1  0  0  0
 36 56  1  0  0  0
 36109  1  0  0  0
 37 39  1  0  0  0
 37 47  1  0  0  0
 37 66  1  0  0  0
 37110  1  0  0  0
 38 43  2  0  0  0
 38 46  1  0  0  0
 38 47  1  0  0  0
 39 64  1  0  0  0
 39 67  2  0  0  0
 40 52  1  0  0  0
 40 53  2  0  0  0
 40 58  1  0  0  0
 41111  1  0  0  0
 41112  1  0  0  0
 41113  1  0  0  0
 41 48  1  0  0  0
 42 43  1  0  0  0
 42 66  1  0  0  0
 42114  1  0  0  0
 42115  1  0  0  0
 43 44  1  0  0  0
 44116  1  0  0  0
 45 46  2  0  0  0
 45117  1  0  0  0
 46118  1  0  0  0
 47119  1  0  0  0
 47120  1  0  0  0
 48 56  1  0  0  0
 48 65  1  0  0  0
 48121  1  0  0  0
 49 50  1  0  0  0
 49 53  1  0  0  0
 49 64  1  0  0  0
 49122  1  0  0  0
 50 51  1  0  0  0
 50123  1  0  0  0
 50124  1  0  0  0
 51 52  1  0  0  0
 51125  1  0  0  0
 51126  1  0  0  0
 52127  1  0  0  0
 52128  1  0  0  0
 53 54  1  0  0  0
 54 55  2  0  0  0
 54129  1  0  0  0
 55 57  1  0  0  0
 55130  1  0  0  0
 56 69  2  0  0  0
 57 58  2  0  0  0
 57131  1  0  0  0
 58132  1  0  0  0
 59 60  1  0  0  0
 59 61  1  0  0  0
 59 62  1  0  0  0
 60133  1  0  0  0
 60134  1  0  0  0
 60135  1  0  0  0
 61136  1  0  0  0
 61137  1  0  0  0
 61138  1  0  0  0
 62139  1  0  0  0
 62140  1  0  0  0
 62141  1  0  0  0
 63 65  1  0  0  0
 63142  1  0  0  0
 63143  1  0  0  0
 63144  1  0  0  0
 64145  1  0  0  0
 65146  1  0  0  0
 68 81  1  0  0  0
 71 72  2  0  0  0
 71 73  1  0  0  0
 71147  1  0  0  0
 72 74  1  0  0  0
 72 78  1  0  0  0
 73 75  2  0  0  0
 73 79  1  0  0  0
 74 76  1  0  0  0
 74 83  2  0  0  0
 75 82  1  0  0  0
 75 83  1  0  0  0
 76148  1  0  0  0
 76149  1  0  0  0
 76150  1  0  0  0
 77 84  1  0  0  0
 77151  1  0  0  0
 77152  1  0  0  0
 77153  1  0  0  0
 78 80  1  0  0  0
 78154  1  0  0  0
 78155  1  0  0  0
 79 84  1  0  0  0
 79156  1  0  0  0
 79157  1  0  0  0
 80 81  1  0  0  0
 80158  1  0  0  0
 80159  1  0  0  0
 81160  1  0  0  0
 81161  1  0  0  0
 82 85  1  0  0  0
 82 86  1  0  0  0
 82 87  1  0  0  0
M  ISO  4   1 100  68 101  81 101  84 100
M  END
> <chiral flag>
0

> <version>
0

> <s_m_source_file>
/data/baiqing/PycharmProjects/Reinvent-master-3.2/result/LINK_invent/BTK/process_docking_weight1_custom_sum_contain_oxygen_bond_distance_aromatic_linkinvent_7_9_3/rearranged_h_0069.sdf

> <i_m_source_file_index>
85

> <r_mmod_Potential_Energy-OPLS-2005>
259.870178222656

> <r_mmod_Stretch_Energy-OPLS-2005>
118.77416229248

> <r_mmod_Bend_Energy-OPLS-2005>
177.356781005859

> <r_mmod_Torsional_Energy-OPLS-2005>
266.454223632812

> <r_mmod_Improper_Torsional_Energy-OPLS-2005>
9.66310024261475

> <r_mmod_Van_der_Waal_Energy-OPLS-2005>
153.188812255859

> <r_mmod_Electrostatic_Energy-OPLS-2005>
-332.620697021484

> <r_mmod_Solvation_Energy-OPLS-2005>
-198.032821655273

> <b_mmod_Minimization_Converged-OPLS-2005>
0

> <r_mmod_RMS_Derivative-OPLS-2005>
3.39535307884216

$$$$
86
                    3D
 Structure written by MMmdl.
166175  0  0  1  0            999 V2000
  -30.7562  -14.4113   20.6183 C   0  0  0  0  0  0
  -30.4173  -12.2949   19.4034 C   0  0  0  0  0  0
  -29.4823  -12.4929   18.1949 C   0  0  0  0  0  0
  -28.0051  -12.3693   18.6152 C   0  0  0  0  0  0
  -27.6635  -13.2082   19.8762 C   0  0  2  0  0  0
  -28.7075  -12.9757   20.9909 C   0  0  0  0  0  0
  -25.2614  -13.8189   20.5709 C   0  0  0  0  0  0
  -24.1855  -13.0462   20.9194 C   0  0  0  0  0  0
  -24.6406  -11.6927   20.8732 C   0  0  0  0  0  0
  -23.9073  -10.4309   21.0392 C   0  0  0  0  0  0
  -24.3622   -9.4221   21.9172 C   0  0  0  0  0  0
  -23.6303   -8.2257   22.0744 C   0  0  0  0  0  0
  -22.4283   -8.0297   21.3553 C   0  0  0  0  0  0
  -21.9923   -9.0263   20.4648 C   0  0  0  0  0  0
  -22.7245  -10.2148   20.3057 C   0  0  0  0  0  0
  -21.6844   -6.0751   22.5289 C   0  0  0  0  0  0
  -21.3992   -6.5649   23.8218 C   0  0  0  0  0  0
  -21.3648   -5.6800   24.9182 C   0  0  0  0  0  0
  -21.6043   -4.3061   24.7234 C   0  0  0  0  0  0
  -21.8817   -3.8167   23.4354 C   0  0  0  0  0  0
  -21.9179   -4.6980   22.3403 C   0  0  0  0  0  0
  -22.7865  -13.5243   21.1832 C   0  0  0  0  0  0
  -22.1650   -4.2171   21.0982 F   0  0  0  0  0  0
  -21.5634   -3.4532   25.7740 F   0  0  0  0  0  0
  -30.0383  -13.2720   20.4352 N   0  0  0  0  0  0
  -26.3045  -12.9352   20.3395 N   0  0  0  0  0  0
  -25.9331  -11.6508   20.5787 N   0  0  0  0  0  0
  -22.0501  -12.8242   22.0394 N   0  0  0  0  0  0
  -25.4364  -15.1905   20.4085 N   0  0  0  0  0  0
  -31.8687  -14.5812   20.1195 O   0  0  0  0  0  0
  -21.6649   -6.8898   21.4250 O   0  0  0  0  0  0
  -22.3532  -14.5525   20.6643 O   0  0  0  0  0  0
  -24.6097  -31.8713   23.2139 C   0  0  0  0  0  0
  -25.9011  -32.4847   23.8415 C   0  0  1  0  0  0
  -27.2456  -27.4898   20.0826 C   0  0  0  0  0  0
  -25.5884  -33.8643   24.2344 N   0  0  0  0  0  0
  -23.3970  -30.4927   21.5534 C   0  0  2  0  0  0
  -24.8478  -28.9709   20.1118 C   0  0  0  0  0  0
  -22.7399  -29.4653   22.5024 C   0  0  0  0  0  0
  -18.0264  -28.1373   22.8489 C   0  0  0  0  0  0
  -24.1487  -36.7326   23.2634 C   0  0  0  0  0  0
  -25.9191  -30.8569   21.3586 C   0  0  0  0  0  0
  -26.0042  -29.4968   20.7023 C   0  0  0  0  0  0
  -27.2088  -28.7649   20.6892 C   0  0  0  0  0  0
  -26.0734  -26.9636   19.5075 C   0  0  0  0  0  0
  -24.8747  -27.7009   19.5104 C   0  0  0  0  0  0
  -23.6040  -29.8263   20.1664 C   0  0  0  0  0  0
  -25.4105  -36.3121   24.0335 C   0  0  1  0  0  0
  -20.5850  -28.3641   23.1345 C   0  0  2  0  0  0
  -20.6752  -26.9385   22.5427 C   0  0  0  0  0  0
  -19.5736  -26.6381   21.5213 C   0  0  0  0  0  0
  -18.1913  -26.7919   22.1621 C   0  0  0  0  0  0
  -19.1512  -28.8824   23.2910 C   0  0  0  0  0  0
  -18.9439  -30.1433   23.8915 C   0  0  0  0  0  0
  -17.6443  -30.6579   24.0563 C   0  0  0  0  0  0
  -25.9027  -34.9489   23.5135 C   0  0  0  0  0  0
  -16.5335  -29.9083   23.6327 C   0  0  0  0  0  0
  -16.7253  -28.6503   23.0343 C   0  0  0  0  0  0
  -26.4464  -31.6606   25.0719 C   0  0  0  0  0  0
  -25.3741  -31.3704   26.1473 C   0  0  0  0  0  0
  -27.0277  -30.3052   24.6049 C   0  0  0  0  0  0
  -27.6047  -32.4319   25.7478 C   0  0  0  0  0  0
  -27.5587  -37.1806   24.8457 C   0  0  0  0  0  0
  -21.4130  -29.3015   22.3769 N   0  0  0  0  0  0
  -26.4294  -37.3804   23.9411 N   0  0  0  0  0  0
  -24.6596  -31.0854   22.1018 N   0  0  0  0  0  0
  -23.4189  -28.8198   23.3055 O   0  0  0  0  0  0
  -28.3493  -26.6780   20.0827 O   0  0  0  0  0  0
  -26.5589  -34.8932   22.4696 O   0  0  0  0  0  0
  -23.5304  -32.1443   23.7566 O   0  0  0  0  0  0
  -28.8274  -19.9116   21.9990 C   0  0  0  0  0  0
  -29.4539  -18.6875   22.2935 C   0  0  0  0  0  0
  -29.4011  -19.6276   19.6563 C   0  0  0  0  0  0
  -30.6280  -23.9005   19.2305 C   0  0  0  0  0  0
  -28.4824  -23.7071   18.8393 C   0  0  0  0  0  0
  -28.8005  -20.3936   20.6769 C   0  0  0  0  0  0
  -30.0780  -17.9238   21.2816 C   0  0  0  0  0  0
  -30.0607  -18.4065   19.9390 C   0  0  0  0  0  0
  -29.5507  -24.4979   18.5172 C   0  0  0  0  0  0
  -29.5508  -25.7195   17.6272 C   0  0  0  0  0  0
  -28.0947  -21.7098   20.3595 C   0  0  0  0  0  0
  -30.8066  -16.6461   21.7086 C   0  0  0  0  0  0
  -29.9679  -27.0498   18.3059 C   0  0  0  0  0  0
  -29.6311  -27.2195   19.8013 C   0  0  0  0  0  0
  -30.7415  -17.6600   18.7883 C   0  0  0  0  0  0
  -30.2443  -22.8557   19.9547 N   0  0  0  0  0  0
  -28.9186  -22.7211   19.6976 N   0  0  0  0  0  0
  -30.1617  -15.3833   21.3278 N   0  0  0  0  0  0
  -32.0145  -17.3945   19.0779 F   0  0  0  0  0  0
  -30.0884  -16.5292   18.5290 F   0  0  0  0  0  0
  -30.7433  -18.3818   17.6669 F   0  0  0  0  0  0
  -31.4564  -12.3945   19.0832 H   0  0  0  0  0  0
  -30.3329  -11.2824   19.7998 H   0  0  0  0  0  0
  -29.7134  -11.7583   17.4217 H   0  0  0  0  0  0
  -29.6576  -13.4718   17.7455 H   0  0  0  0  0  0
  -27.8057  -11.3147   18.8080 H   0  0  0  0  0  0
  -27.3528  -12.6543   17.7891 H   0  0  0  0  0  0
  -27.7154  -14.2595   19.5881 H   0  0  0  0  0  0
  -28.6798  -11.9366   21.3231 H   0  0  0  0  0  0
  -28.4737  -13.5688   21.8759 H   0  0  0  0  0  0
  -25.2757   -9.5686   22.4753 H   0  0  0  0  0  0
  -24.0003   -7.4632   22.7450 H   0  0  0  0  0  0
  -21.0861   -8.8781   19.8941 H   0  0  0  0  0  0
  -22.3698  -10.9685   19.6173 H   0  0  0  0  0  0
  -21.1984   -7.6155   23.9732 H   0  0  0  0  0  0
  -21.1460   -6.0530   25.9084 H   0  0  0  0  0  0
  -22.0606   -2.7634   23.2847 H   0  0  0  0  0  0
  -22.4110  -11.9915   22.4820 H   0  0  0  0  0  0
  -21.1096  -13.1252   22.2563 H   0  0  0  0  0  0
  -24.6859  -15.8580   20.5476 H   0  0  0  0  0  0
  -26.2859  -15.6174   20.0591 H   0  0  0  0  0  0
  -26.7095  -32.5589   23.1201 H   0  0  0  0  0  0
  -25.0029  -33.9817   25.0483 H   0  0  0  0  0  0
  -22.6822  -31.3065   21.4167 H   0  0  0  0  0  0
  -23.3750  -35.9659   23.3294 H   0  0  0  0  0  0
  -24.3587  -36.8944   22.2051 H   0  0  0  0  0  0
  -23.7241  -37.6530   23.6652 H   0  0  0  0  0  0
  -26.0206  -31.6301   20.5955 H   0  0  0  0  0  0
  -26.8098  -30.9137   21.9719 H   0  0  0  0  0  0
  -28.0866  -29.1742   21.1674 H   0  0  0  0  0  0
  -26.0936  -25.9823   19.0553 H   0  0  0  0  0  0
  -23.9857  -27.2860   19.0563 H   0  0  0  0  0  0
  -23.7058  -30.6022   19.4068 H   0  0  0  0  0  0
  -22.7323  -29.2382   19.8731 H   0  0  0  0  0  0
  -25.1281  -36.1988   25.0829 H   0  0  0  0  0  0
  -20.9924  -28.3184   24.1469 H   0  0  0  0  0  0
  -20.5657  -26.2237   23.3597 H   0  0  0  0  0  0
  -21.6625  -26.7433   22.1217 H   0  0  0  0  0  0
  -19.6898  -25.6295   21.1230 H   0  0  0  0  0  0
  -19.6687  -27.3204   20.6754 H   0  0  0  0  0  0
  -17.4186  -26.6667   21.4021 H   0  0  0  0  0  0
  -18.0311  -26.0055   22.9013 H   0  0  0  0  0  0
  -19.7915  -30.7244   24.2296 H   0  0  0  0  0  0
  -17.4999  -31.6263   24.5157 H   0  0  0  0  0  0
  -15.5339  -30.2991   23.7641 H   0  0  0  0  0  0
  -15.8650  -28.0832   22.7047 H   0  0  0  0  0  0
  -24.5915  -30.7050   25.7810 H   0  0  0  0  0  0
  -24.8931  -32.2862   26.4919 H   0  0  0  0  0  0
  -25.8101  -30.8874   27.0224 H   0  0  0  0  0  0
  -26.2796  -29.6834   24.1113 H   0  0  0  0  0  0
  -27.4075  -29.7260   25.4475 H   0  0  0  0  0  0
  -27.8621  -30.4375   23.9156 H   0  0  0  0  0  0
  -27.2664  -33.3606   26.2082 H   0  0  0  0  0  0
  -28.3839  -32.6901   25.0296 H   0  0  0  0  0  0
  -28.0731  -31.8427   26.5370 H   0  0  0  0  0  0
  -28.2590  -38.0117   24.7533 H   0  0  0  0  0  0
  -28.1094  -36.2653   24.6243 H   0  0  0  0  0  0
  -27.2309  -37.1411   25.8859 H   0  0  0  0  0  0
  -20.9290  -29.8738   21.6993 H   0  0  0  0  0  0
  -26.0184  -38.2878   24.1437 H   0  0  0  0  0  0
  -28.3680  -20.4819   22.7956 H   0  0  0  0  0  0
  -29.4672  -18.3467   23.3195 H   0  0  0  0  0  0
  -29.3646  -20.0001   18.6420 H   0  0  0  0  0  0
  -31.6634  -24.2114   19.2574 H   0  0  0  0  0  0
  -27.4436  -23.7790   18.5462 H   0  0  0  0  0  0
  -28.5503  -25.8622   17.2160 H   0  0  0  0  0  0
  -30.1851  -25.5584   16.7561 H   0  0  0  0  0  0
  -27.6899  -22.1543   21.2705 H   0  0  0  0  0  0
  -27.2385  -21.4902   19.7208 H   0  0  0  0  0  0
  -30.8898  -16.6332   22.7961 H   0  0  0  0  0  0
  -31.8417  -16.7041   21.3705 H   0  0  0  0  0  0
  -29.5401  -27.8767   17.7377 H   0  0  0  0  0  0
  -31.0484  -27.1641   18.2100 H   0  0  0  0  0  0
  -29.7462  -28.2617   20.0978 H   0  0  0  0  0  0
  -30.3501  -26.6612   20.4011 H   0  0  0  0  0  0
  -29.2375  -15.2019   21.6873 H   0  0  0  0  0  0
  1 25  1  0  0  0
  1 30  2  0  0  0
  1 88  1  0  0  0
  2  3  1  0  0  0
  2 25  1  0  0  0
  2 92  1  0  0  0
  2 93  1  0  0  0
  3  4  1  0  0  0
  3 94  1  0  0  0
  3 95  1  0  0  0
  4  5  1  0  0  0
  4 96  1  0  0  0
  4 97  1  0  0  0
  5  6  1  0  0  0
  5 26  1  0  0  0
  5 98  1  0  0  0
  6 25  1  0  0  0
  6 99  1  0  0  0
  6100  1  0  0  0
  7  8  2  0  0  0
  7 26  1  0  0  0
  7 29  1  0  0  0
  8  9  1  0  0  0
  8 22  1  0  0  0
  9 10  1  0  0  0
  9 27  2  0  0  0
 10 11  2  0  0  0
 10 15  1  0  0  0
 11 12  1  0  0  0
 11101  1  0  0  0
 12 13  2  0  0  0
 12102  1  0  0  0
 13 14  1  0  0  0
 13 31  1  0  0  0
 14 15  2  0  0  0
 14103  1  0  0  0
 15104  1  0  0  0
 16 17  2  0  0  0
 16 21  1  0  0  0
 16 31  1  0  0  0
 17 18  1  0  0  0
 17105  1  0  0  0
 18 19  2  0  0  0
 18106  1  0  0  0
 19 20  1  0  0  0
 19 24  1  0  0  0
 20 21  2  0  0  0
 20107  1  0  0  0
 21 23  1  0  0  0
 22 28  1  0  0  0
 22 32  2  0  0  0
 26 27  1  0  0  0
 28108  1  0  0  0
 28109  1  0  0  0
 29110  1  0  0  0
 29111  1  0  0  0
 33 34  1  0  0  0
 33 66  1  0  0  0
 33 70  2  0  0  0
 34 36  1  0  0  0
 34 59  1  0  0  0
 34112  1  0  0  0
 35 44  2  0  0  0
 35 45  1  0  0  0
 35 68  1  0  0  0
 36 56  1  0  0  0
 36113  1  0  0  0
 37 39  1  0  0  0
 37 47  1  0  0  0
 37 66  1  0  0  0
 37114  1  0  0  0
 38 43  2  0  0  0
 38 46  1  0  0  0
 38 47  1  0  0  0
 39 64  1  0  0  0
 39 67  2  0  0  0
 40 52  1  0  0  0
 40 53  2  0  0  0
 40 58  1  0  0  0
 41115  1  0  0  0
 41116  1  0  0  0
 41117  1  0  0  0
 41 48  1  0  0  0
 42 43  1  0  0  0
 42 66  1  0  0  0
 42118  1  0  0  0
 42119  1  0  0  0
 43 44  1  0  0  0
 44120  1  0  0  0
 45 46  2  0  0  0
 45121  1  0  0  0
 46122  1  0  0  0
 47123  1  0  0  0
 47124  1  0  0  0
 48 56  1  0  0  0
 48 65  1  0  0  0
 48125  1  0  0  0
 49 50  1  0  0  0
 49 53  1  0  0  0
 49 64  1  0  0  0
 49126  1  0  0  0
 50 51  1  0  0  0
 50127  1  0  0  0
 50128  1  0  0  0
 51 52  1  0  0  0
 51129  1  0  0  0
 51130  1  0  0  0
 52131  1  0  0  0
 52132  1  0  0  0
 53 54  1  0  0  0
 54 55  2  0  0  0
 54133  1  0  0  0
 55 57  1  0  0  0
 55134  1  0  0  0
 56 69  2  0  0  0
 57 58  2  0  0  0
 57135  1  0  0  0
 58136  1  0  0  0
 59 60  1  0  0  0
 59 61  1  0  0  0
 59 62  1  0  0  0
 60137  1  0  0  0
 60138  1  0  0  0
 60139  1  0  0  0
 61140  1  0  0  0
 61141  1  0  0  0
 61142  1  0  0  0
 62143  1  0  0  0
 62144  1  0  0  0
 62145  1  0  0  0
 63 65  1  0  0  0
 63146  1  0  0  0
 63147  1  0  0  0
 63148  1  0  0  0
 64149  1  0  0  0
 65150  1  0  0  0
 68 84  1  0  0  0
 71 72  2  0  0  0
 71 76  1  0  0  0
 71151  1  0  0  0
 72 77  1  0  0  0
 72152  1  0  0  0
 73 76  2  0  0  0
 73 78  1  0  0  0
 73153  1  0  0  0
 74 79  1  0  0  0
 74 86  2  0  0  0
 74154  1  0  0  0
 75 79  2  0  0  0
 75 87  1  0  0  0
 75155  1  0  0  0
 76 81  1  0  0  0
 77 78  2  0  0  0
 77 82  1  0  0  0
 78 85  1  0  0  0
 79 80  1  0  0  0
 80 83  1  0  0  0
 80156  1  0  0  0
 80157  1  0  0  0
 81 87  1  0  0  0
 81158  1  0  0  0
 81159  1  0  0  0
 82 88  1  0  0  0
 82160  1  0  0  0
 82161  1  0  0  0
 83 84  1  0  0  0
 83162  1  0  0  0
 83163  1  0  0  0
 84164  1  0  0  0
 84165  1  0  0  0
 85 89  1  0  0  0
 85 90  1  0  0  0
 85 91  1  0  0  0
 86 87  1  0  0  0
 88166  1  0  0  0
M  ISO  4   1 100  68 101  84 101  88 100
M  END
> <chiral flag>
0

> <version>
0

> <s_m_source_file>
/data/baiqing/PycharmProjects/Reinvent-master-3.2/result/LINK_invent/BTK/process_docking_weight1_custom_sum_contain_oxygen_bond_distance_aromatic_linkinvent_7_9_3/rearranged_h_0069.sdf

> <i_m_source_file_index>
86

> <r_mmod_Potential_Energy-OPLS-2005>
-30.3076553344727

> <r_mmod_Stretch_Energy-OPLS-2005>
34.548755645752

> <r_mmod_Bend_Energy-OPLS-2005>
108.064872741699

> <r_mmod_Torsional_Energy-OPLS-2005>
222.412109375

> <r_mmod_Improper_Torsional_Energy-OPLS-2005>
2.46921133995056

> <r_mmod_Van_der_Waal_Energy-OPLS-2005>
145.548004150391

> <r_mmod_Electrostatic_Energy-OPLS-2005>
-328.372924804688

> <r_mmod_Solvation_Energy-OPLS-2005>
-224.952072143555

> <b_mmod_Minimization_Converged-OPLS-2005>
0

> <r_mmod_RMS_Derivative-OPLS-2005>
2.2328622341156

$$$$
87
                    3D
 Structure written by MMmdl.
157165  0  0  1  0            999 V2000
  -30.5223  -14.9053   20.3189 C   0  0  0  0  0  0
  -30.4663  -12.5177   19.5045 C   0  0  0  0  0  0
  -29.5418  -12.3958   18.2675 C   0  0  0  0  0  0
  -28.0546  -12.2491   18.6690 C   0  0  0  0  0  0
  -27.6295  -13.1793   19.8336 C   0  0  2  0  0  0
  -28.6868  -13.2099   20.9588 C   0  0  0  0  0  0
  -25.2553  -13.7988   20.5734 C   0  0  0  0  0  0
  -24.1767  -13.0337   20.9192 C   0  0  0  0  0  0
  -24.6304  -11.6802   20.8773 C   0  0  0  0  0  0
  -23.8977  -10.4229   21.0437 C   0  0  0  0  0  0
  -24.3558   -9.4158   21.9205 C   0  0  0  0  0  0
  -23.6253   -8.2191   22.0757 C   0  0  0  0  0  0
  -22.4239   -8.0238   21.3541 C   0  0  0  0  0  0
  -21.9858   -9.0205   20.4647 C   0  0  0  0  0  0
  -22.7167  -10.2088   20.3068 C   0  0  0  0  0  0
  -21.6833   -6.0712   22.5280 C   0  0  0  0  0  0
  -21.3996   -6.5624   23.8210 C   0  0  0  0  0  0
  -21.3654   -5.6782   24.9175 C   0  0  0  0  0  0
  -21.6045   -4.3045   24.7230 C   0  0  0  0  0  0
  -21.8825   -3.8134   23.4353 C   0  0  0  0  0  0
  -21.9189   -4.6945   22.3406 C   0  0  0  0  0  0
  -22.7819  -13.5204   21.1853 C   0  0  0  0  0  0
  -22.1664   -4.2134   21.0984 F   0  0  0  0  0  0
  -21.5633   -3.4532   25.7745 F   0  0  0  0  0  0
  -29.9696  -13.6233   20.3654 N   0  0  0  0  0  0
  -26.2890  -12.9065   20.3297 N   0  0  0  0  0  0
  -25.9217  -11.6283   20.5807 N   0  0  0  0  0  0
  -22.0447  -12.8225   22.0423 N   0  0  0  0  0  0
  -25.4452  -15.1674   20.4271 N   0  0  0  0  0  0
  -31.7537  -14.9604   20.2020 O   0  0  0  0  0  0
  -21.6610   -6.8840   21.4236 O   0  0  0  0  0  0
  -22.3535  -14.5523   20.6703 O   0  0  0  0  0  0
  -24.6332  -31.8530   23.1964 C   0  0  0  0  0  0
  -25.9147  -32.4745   23.8317 C   0  0  1  0  0  0
  -27.2353  -27.2461   20.1377 C   0  0  0  0  0  0
  -25.5936  -33.8548   24.2242 N   0  0  0  0  0  0
  -23.4319  -30.4735   21.5399 C   0  0  2  0  0  0
  -24.8839  -28.9182   20.1102 C   0  0  0  0  0  0
  -22.7520  -29.4583   22.4907 C   0  0  0  0  0  0
  -18.0298  -28.1390   22.8483 C   0  0  0  0  0  0
  -24.1492  -36.7280   23.2639 C   0  0  0  0  0  0
  -25.9789  -30.7617   21.3793 C   0  0  0  0  0  0
  -26.0547  -29.3823   20.7226 C   0  0  0  0  0  0
  -27.2299  -28.5598   20.7248 C   0  0  0  0  0  0
  -26.0399  -26.8591   19.4863 C   0  0  0  0  0  0
  -24.8833  -27.6650   19.4798 C   0  0  0  0  0  0
  -23.6531  -29.8050   20.1569 C   0  0  0  0  0  0
  -25.4119  -36.3064   24.0324 C   0  0  1  0  0  0
  -20.5904  -28.3699   23.1269 C   0  0  2  0  0  0
  -20.6789  -26.9416   22.5412 C   0  0  0  0  0  0
  -19.5761  -26.6381   21.5221 C   0  0  0  0  0  0
  -18.1939  -26.7932   22.1627 C   0  0  0  0  0  0
  -19.1551  -28.8864   23.2869 C   0  0  0  0  0  0
  -18.9471  -30.1467   23.8883 C   0  0  0  0  0  0
  -17.6467  -30.6589   24.0562 C   0  0  0  0  0  0
  -25.9059  -34.9436   23.5086 C   0  0  0  0  0  0
  -16.5360  -29.9084   23.6334 C   0  0  0  0  0  0
  -16.7283  -28.6505   23.0349 C   0  0  0  0  0  0
  -26.4505  -31.6576   25.0715 C   0  0  0  0  0  0
  -25.3717  -31.3742   26.1426 C   0  0  0  0  0  0
  -27.0357  -30.2991   24.6216 C   0  0  0  0  0  0
  -27.6047  -32.4324   25.7497 C   0  0  0  0  0  0
  -27.5581  -37.1795   24.8464 C   0  0  0  0  0  0
  -21.4226  -29.3037   22.3652 N   0  0  0  0  0  0
  -26.4290  -37.3765   23.9410 N   0  0  0  0  0  0
  -24.7002  -31.0478   22.0949 N   0  0  0  0  0  0
  -23.4210  -28.8132   23.3022 O   0  0  0  0  0  0
  -28.3322  -26.3428   20.2206 O   0  0  0  0  0  0
  -26.5634  -34.8916   22.4657 O   0  0  0  0  0  0
  -23.5477  -32.1358   23.7247 O   0  0  0  0  0  0
  -28.8034  -19.8900   21.3827 C   0  0  0  0  0  0
  -29.0779  -18.4845   21.4446 C   0  0  0  0  0  0
  -29.3739  -20.7241   20.3827 C   0  0  0  0  0  0
  -29.9339  -17.8229   20.5055 C   0  0  0  0  0  0
  -30.3548  -20.0327   19.6045 C   0  0  0  0  0  0
  -31.1029  -20.7617   18.5071 C   0  0  0  0  0  0
  -28.7068  -22.1407   19.9802 C   0  0  0  0  0  0
  -29.1044  -23.6482   20.4561 C   0  0  0  0  0  0
  -28.1167  -24.8643   19.9788 C   0  0  0  0  0  0
  -29.6158  -16.2830   20.0418 C   0  0  1  0  0  0
  -29.3934  -16.3865   18.4816 C   0  0  0  0  0  0
  -30.6289  -18.6787   19.6855 N   0  0  0  0  0  0
  -28.3049  -16.0722   20.5455 O   0  0  0  0  0  0
  -30.5441  -16.5489   17.8230 F   0  0  0  0  0  0
  -28.8325  -15.3092   17.9496 F   0  0  0  0  0  0
  -28.5798  -17.4038   18.1728 F   0  0  0  0  0  0
  -31.4952  -12.6842   19.1818 H   0  0  0  0  0  0
  -30.4823  -11.5815   20.0648 H   0  0  0  0  0  0
  -29.8384  -11.5241   17.6833 H   0  0  0  0  0  0
  -29.6936  -13.2347   17.5950 H   0  0  0  0  0  0
  -27.9085  -11.2113   18.9694 H   0  0  0  0  0  0
  -27.4098  -12.4036   17.8030 H   0  0  0  0  0  0
  -27.5502  -14.1527   19.3795 H   0  0  0  0  0  0
  -28.7764  -12.2282   21.4262 H   0  0  0  0  0  0
  -28.3927  -13.8892   21.7592 H   0  0  0  0  0  0
  -25.2703   -9.5642   22.4775 H   0  0  0  0  0  0
  -23.9969   -7.4577   22.7466 H   0  0  0  0  0  0
  -21.0792   -8.8713   19.8953 H   0  0  0  0  0  0
  -22.3629  -10.9630   19.6182 H   0  0  0  0  0  0
  -21.1981   -7.6132   23.9708 H   0  0  0  0  0  0
  -21.1473   -6.0513   25.9075 H   0  0  0  0  0  0
  -22.0615   -2.7597   23.2857 H   0  0  0  0  0  0
  -22.4045  -11.9882   22.4814 H   0  0  0  0  0  0
  -21.1079  -13.1283   22.2643 H   0  0  0  0  0  0
  -24.7338  -15.8584   20.6352 H   0  0  0  0  0  0
  -26.3868  -15.5441   20.3612 H   0  0  0  0  0  0
  -26.7217  -32.5396   23.1060 H   0  0  0  0  0  0
  -25.0081  -33.9683   25.0385 H   0  0  0  0  0  0
  -22.7292  -31.2961   21.3914 H   0  0  0  0  0  0
  -23.3758  -35.9608   23.3290 H   0  0  0  0  0  0
  -24.3584  -36.8917   22.2056 H   0  0  0  0  0  0
  -23.7245  -37.6478   23.6672 H   0  0  0  0  0  0
  -26.1183  -31.5210   20.6084 H   0  0  0  0  0  0
  -26.8558  -30.8133   22.0128 H   0  0  0  0  0  0
  -28.1222  -28.9098   21.2248 H   0  0  0  0  0  0
  -25.9664  -25.9038   18.9889 H   0  0  0  0  0  0
  -23.9889  -27.3047   18.9901 H   0  0  0  0  0  0
  -23.7788  -30.5808   19.4009 H   0  0  0  0  0  0
  -22.7718  -29.2383   19.8508 H   0  0  0  0  0  0
  -25.1303  -36.1902   25.0817 H   0  0  0  0  0  0
  -20.9994  -28.3280   24.1392 H   0  0  0  0  0  0
  -20.5703  -26.2308   23.3619 H   0  0  0  0  0  0
  -21.6653  -26.7445   22.1198 H   0  0  0  0  0  0
  -19.6924  -25.6290   21.1257 H   0  0  0  0  0  0
  -19.6702  -27.3188   20.6749 H   0  0  0  0  0  0
  -17.4215  -26.6684   21.4025 H   0  0  0  0  0  0
  -18.0331  -26.0077   22.9024 H   0  0  0  0  0  0
  -19.7944  -30.7292   24.2241 H   0  0  0  0  0  0
  -17.5019  -31.6267   24.5166 H   0  0  0  0  0  0
  -15.5359  -30.2978   23.7668 H   0  0  0  0  0  0
  -15.8685  -28.0825   22.7059 H   0  0  0  0  0  0
  -24.5896  -30.7085   25.7756 H   0  0  0  0  0  0
  -24.8900  -32.2919   26.4814 H   0  0  0  0  0  0
  -25.8020  -30.8945   27.0226 H   0  0  0  0  0  0
  -26.2947  -29.6732   24.1227 H   0  0  0  0  0  0
  -27.4024  -29.7261   25.4743 H   0  0  0  0  0  0
  -27.8830  -30.4264   23.9473 H   0  0  0  0  0  0
  -27.2644  -33.3632   26.2048 H   0  0  0  0  0  0
  -28.3873  -32.6871   25.0337 H   0  0  0  0  0  0
  -28.0693  -31.8464   26.5438 H   0  0  0  0  0  0
  -28.2587  -38.0102   24.7517 H   0  0  0  0  0  0
  -28.1088  -36.2633   24.6280 H   0  0  0  0  0  0
  -27.2300  -37.1430   25.8866 H   0  0  0  0  0  0
  -20.9423  -29.8743   21.6836 H   0  0  0  0  0  0
  -26.0166  -38.2838   24.1411 H   0  0  0  0  0  0
  -28.0408  -20.2952   22.0328 H   0  0  0  0  0  0
  -28.4953  -17.9020   22.1463 H   0  0  0  0  0  0
  -31.3414  -21.7806   18.8127 H   0  0  0  0  0  0
  -30.4978  -20.8073   17.6019 H   0  0  0  0  0  0
  -32.0406  -20.2605   18.2664 H   0  0  0  0  0  0
  -27.6530  -22.0255   20.2359 H   0  0  0  0  0  0
  -28.7002  -22.1599   18.8899 H   0  0  0  0  0  0
  -30.1155  -23.8658   20.1122 H   0  0  0  0  0  0
  -29.1518  -23.6648   21.5451 H   0  0  0  0  0  0
  -27.1454  -24.6113   20.4049 H   0  0  0  0  0  0
  -27.9990  -24.7590   18.8998 H   0  0  0  0  0  0
  -27.9045  -16.9282   20.4366 H   0  0  0  0  0  0
  1 25  1  0  0  0
  1 30  2  0  0  0
  1 80  1  0  0  0
  2  3  1  0  0  0
  2 25  1  0  0  0
  2 87  1  0  0  0
  2 88  1  0  0  0
  3  4  1  0  0  0
  3 89  1  0  0  0
  3 90  1  0  0  0
  4  5  1  0  0  0
  4 91  1  0  0  0
  4 92  1  0  0  0
  5  6  1  0  0  0
  5 26  1  0  0  0
  5 93  1  0  0  0
  6 25  1  0  0  0
  6 94  1  0  0  0
  6 95  1  0  0  0
  7  8  2  0  0  0
  7 26  1  0  0  0
  7 29  1  0  0  0
  8  9  1  0  0  0
  8 22  1  0  0  0
  9 10  1  0  0  0
  9 27  2  0  0  0
 10 11  2  0  0  0
 10 15  1  0  0  0
 11 12  1  0  0  0
 11 96  1  0  0  0
 12 13  2  0  0  0
 12 97  1  0  0  0
 13 14  1  0  0  0
 13 31  1  0  0  0
 14 15  2  0  0  0
 14 98  1  0  0  0
 15 99  1  0  0  0
 16 17  2  0  0  0
 16 21  1  0  0  0
 16 31  1  0  0  0
 17 18  1  0  0  0
 17100  1  0  0  0
 18 19  2  0  0  0
 18101  1  0  0  0
 19 20  1  0  0  0
 19 24  1  0  0  0
 20 21  2  0  0  0
 20102  1  0  0  0
 21 23  1  0  0  0
 22 28  1  0  0  0
 22 32  2  0  0  0
 26 27  1  0  0  0
 28103  1  0  0  0
 28104  1  0  0  0
 29105  1  0  0  0
 29106  1  0  0  0
 33 34  1  0  0  0
 33 66  1  0  0  0
 33 70  2  0  0  0
 34 36  1  0  0  0
 34 59  1  0  0  0
 34107  1  0  0  0
 35 44  2  0  0  0
 35 45  1  0  0  0
 35 68  1  0  0  0
 36 56  1  0  0  0
 36108  1  0  0  0
 37 39  1  0  0  0
 37 47  1  0  0  0
 37 66  1  0  0  0
 37109  1  0  0  0
 38 43  2  0  0  0
 38 46  1  0  0  0
 38 47  1  0  0  0
 39 64  1  0  0  0
 39 67  2  0  0  0
 40 52  1  0  0  0
 40 53  2  0  0  0
 40 58  1  0  0  0
 41110  1  0  0  0
 41111  1  0  0  0
 41112  1  0  0  0
 41 48  1  0  0  0
 42 43  1  0  0  0
 42 66  1  0  0  0
 42113  1  0  0  0
 42114  1  0  0  0
 43 44  1  0  0  0
 44115  1  0  0  0
 45 46  2  0  0  0
 45116  1  0  0  0
 46117  1  0  0  0
 47118  1  0  0  0
 47119  1  0  0  0
 48 56  1  0  0  0
 48 65  1  0  0  0
 48120  1  0  0  0
 49 50  1  0  0  0
 49 53  1  0  0  0
 49 64  1  0  0  0
 49121  1  0  0  0
 50 51  1  0  0  0
 50122  1  0  0  0
 50123  1  0  0  0
 51 52  1  0  0  0
 51124  1  0  0  0
 51125  1  0  0  0
 52126  1  0  0  0
 52127  1  0  0  0
 53 54  1  0  0  0
 54 55  2  0  0  0
 54128  1  0  0  0
 55 57  1  0  0  0
 55129  1  0  0  0
 56 69  2  0  0  0
 57 58  2  0  0  0
 57130  1  0  0  0
 58131  1  0  0  0
 59 60  1  0  0  0
 59 61  1  0  0  0
 59 62  1  0  0  0
 60132  1  0  0  0
 60133  1  0  0  0
 60134  1  0  0  0
 61135  1  0  0  0
 61136  1  0  0  0
 61137  1  0  0  0
 62138  1  0  0  0
 62139  1  0  0  0
 62140  1  0  0  0
 63 65  1  0  0  0
 63141  1  0  0  0
 63142  1  0  0  0
 63143  1  0  0  0
 64144  1  0  0  0
 65145  1  0  0  0
 68 79  1  0  0  0
 71 72  2  0  0  0
 71 73  1  0  0  0
 71146  1  0  0  0
 72 74  1  0  0  0
 72147  1  0  0  0
 73 75  2  0  0  0
 73 77  1  0  0  0
 74 80  1  0  0  0
 74 82  2  0  0  0
 75 76  1  0  0  0
 75 82  1  0  0  0
 76148  1  0  0  0
 76149  1  0  0  0
 76150  1  0  0  0
 77 78  1  0  0  0
 77151  1  0  0  0
 77152  1  0  0  0
 78 79  1  0  0  0
 78153  1  0  0  0
 78154  1  0  0  0
 79155  1  0  0  0
 79156  1  0  0  0
 80 81  1  0  0  0
 80 83  1  0  0  0
 81 84  1  0  0  0
 81 85  1  0  0  0
 81 86  1  0  0  0
 83157  1  0  0  0
M  ISO  4   1 100  68 101  79 101  80 100
M  END
> <chiral flag>
0

> <version>
0

> <s_m_source_file>
/data/baiqing/PycharmProjects/Reinvent-master-3.2/result/LINK_invent/BTK/process_docking_weight1_custom_sum_contain_oxygen_bond_distance_aromatic_linkinvent_7_9_3/rearranged_h_0069.sdf

> <i_m_source_file_index>
87

> <r_mmod_Potential_Energy-OPLS-2005>
534.044128417969

> <r_mmod_Stretch_Energy-OPLS-2005>
173.720001220703

> <r_mmod_Bend_Energy-OPLS-2005>
242.624465942383

> <r_mmod_Torsional_Energy-OPLS-2005>
243.293701171875

> <r_mmod_Improper_Torsional_Energy-OPLS-2005>
17.8938045501709

> <r_mmod_Van_der_Waal_Energy-OPLS-2005>
167.662933349609

> <r_mmod_Electrostatic_Energy-OPLS-2005>
-252.633209228516

> <r_mmod_Solvation_Energy-OPLS-2005>
-202.143707275391

> <b_mmod_Minimization_Converged-OPLS-2005>
0

> <r_mmod_RMS_Derivative-OPLS-2005>
0.599856913089752

$$$$
88
                    3D
 Structure written by MMmdl.
161169  0  0  1  0            999 V2000
  -30.7224  -14.6616   20.4486 C   0  0  0  0  0  0
  -30.4170  -12.3950   19.4914 C   0  0  0  0  0  0
  -29.5121  -12.4875   18.2449 C   0  0  0  0  0  0
  -28.0356  -12.3288   18.6517 C   0  0  0  0  0  0
  -27.6469  -13.2412   19.8484 C   0  0  2  0  0  0
  -28.6928  -13.2020   20.9876 C   0  0  0  0  0  0
  -25.2519  -13.8210   20.5720 C   0  0  0  0  0  0
  -24.1821  -13.0447   20.9215 C   0  0  0  0  0  0
  -24.6415  -11.6922   20.8737 C   0  0  0  0  0  0
  -23.9064  -10.4298   21.0381 C   0  0  0  0  0  0
  -24.3598   -9.4214   21.9190 C   0  0  0  0  0  0
  -23.6282   -8.2239   22.0759 C   0  0  0  0  0  0
  -22.4285   -8.0252   21.3537 C   0  0  0  0  0  0
  -21.9908   -9.0212   20.4650 C   0  0  0  0  0  0
  -22.7210  -10.2108   20.3044 C   0  0  0  0  0  0
  -21.6861   -6.0706   22.5268 C   0  0  0  0  0  0
  -21.4006   -6.5625   23.8186 C   0  0  0  0  0  0
  -21.3660   -5.6799   24.9170 C   0  0  0  0  0  0
  -21.6047   -4.3057   24.7250 C   0  0  0  0  0  0
  -21.8810   -3.8136   23.4376 C   0  0  0  0  0  0
  -21.9193   -4.6937   22.3415 C   0  0  0  0  0  0
  -22.7846  -13.5219   21.1874 C   0  0  0  0  0  0
  -22.1662   -4.2119   21.1000 F   0  0  0  0  0  0
  -21.5640   -3.4550   25.7771 F   0  0  0  0  0  0
  -30.0159  -13.4795   20.4137 N   0  0  0  0  0  0
  -26.2993  -12.9449   20.3345 N   0  0  0  0  0  0
  -25.9369  -11.6576   20.5817 N   0  0  0  0  0  0
  -22.0482  -12.8204   22.0413 N   0  0  0  0  0  0
  -25.4227  -15.1932   20.4120 N   0  0  0  0  0  0
  -31.9039  -14.6704   20.0974 O   0  0  0  0  0  0
  -21.6640   -6.8845   21.4232 O   0  0  0  0  0  0
  -22.3525  -14.5528   20.6718 O   0  0  0  0  0  0
  -24.6300  -31.8570   23.2018 C   0  0  0  0  0  0
  -25.9152  -32.4740   23.8364 C   0  0  1  0  0  0
  -27.2331  -27.3168   20.1068 C   0  0  0  0  0  0
  -25.5969  -33.8558   24.2299 N   0  0  0  0  0  0
  -23.4240  -30.4796   21.5423 C   0  0  2  0  0  0
  -24.8697  -28.9343   20.1078 C   0  0  0  0  0  0
  -22.7486  -29.4594   22.4913 C   0  0  0  0  0  0
  -18.0282  -28.1403   22.8476 C   0  0  0  0  0  0
  -24.1476  -36.7297   23.2639 C   0  0  0  0  0  0
  -25.9618  -30.7805   21.3707 C   0  0  0  0  0  0
  -26.0345  -29.4055   20.7245 C   0  0  0  0  0  0
  -27.2136  -28.6037   20.7296 C   0  0  0  0  0  0
  -26.0461  -26.9112   19.4470 C   0  0  0  0  0  0
  -24.8774  -27.6940   19.4575 C   0  0  0  0  0  0
  -23.6387  -29.8153   20.1567 C   0  0  0  0  0  0
  -25.4092  -36.3069   24.0322 C   0  0  1  0  0  0
  -20.5875  -28.3696   23.1288 C   0  0  2  0  0  0
  -20.6761  -26.9420   22.5410 C   0  0  0  0  0  0
  -19.5736  -26.6389   21.5215 C   0  0  0  0  0  0
  -18.1909  -26.7949   22.1605 C   0  0  0  0  0  0
  -19.1525  -28.8869   23.2879 C   0  0  0  0  0  0
  -18.9454  -30.1466   23.8916 C   0  0  0  0  0  0
  -17.6458  -30.6600   24.0577 C   0  0  0  0  0  0
  -25.9037  -34.9414   23.5098 C   0  0  0  0  0  0
  -16.5344  -29.9108   23.6354 C   0  0  0  0  0  0
  -16.7267  -28.6519   23.0369 C   0  0  0  0  0  0
  -26.4548  -31.6554   25.0732 C   0  0  0  0  0  0
  -25.3787  -31.3601   26.1447 C   0  0  0  0  0  0
  -27.0375  -30.2999   24.6095 C   0  0  0  0  0  0
  -27.6098  -32.4284   25.7512 C   0  0  0  0  0  0
  -27.5553  -37.1807   24.8476 C   0  0  0  0  0  0
  -21.4188  -29.3051   22.3677 N   0  0  0  0  0  0
  -26.4280  -37.3758   23.9414 N   0  0  0  0  0  0
  -24.6913  -31.0539   22.0974 N   0  0  0  0  0  0
  -23.4197  -28.8118   23.2977 O   0  0  0  0  0  0
  -28.3659  -26.4864   20.1830 O   0  0  0  0  0  0
  -26.5555  -34.8900   22.4646 O   0  0  0  0  0  0
  -23.5467  -32.1394   23.7322 O   0  0  0  0  0  0
  -30.3282  -17.2033   19.8863 C   0  0  0  0  0  0
  -29.0804  -17.8074   21.5237 C   0  0  0  0  0  0
  -30.0649  -16.0556   20.6496 C   0  0  0  0  0  0
  -30.6158  -24.4866   20.4879 C   0  0  0  0  0  0
  -27.7394  -22.2536   19.1010 C   0  0  0  0  0  0
  -28.4010  -20.9731   21.8171 C   0  0  0  0  0  0
  -29.6093  -19.7276   19.8368 C   0  0  0  0  0  0
  -28.2975  -25.0791   19.7314 C   0  0  0  0  0  0
  -29.1773  -23.9442   20.4360 C   0  0  1  0  0  0
  -29.1076  -22.4413   19.7988 C   0  0  1  0  0  0
  -29.4296  -21.1049   20.6779 C   0  0  1  0  0  0
  -29.2665  -16.4903   21.7139 N   0  0  0  0  0  0
  -29.6849  -18.3392   20.4433 N   0  0  0  0  0  0
  -30.6743  -21.3120   21.3143 O   0  0  0  0  0  0
  -31.4663  -12.4514   19.1972 H   0  0  0  0  0  0
  -30.3120  -11.4268   19.9825 H   0  0  0  0  0  0
  -29.7880  -11.7134   17.5269 H   0  0  0  0  0  0
  -29.6632  -13.4456   17.7453 H   0  0  0  0  0  0
  -27.8859  -11.2833   18.9187 H   0  0  0  0  0  0
  -27.3800  -12.5166   17.8005 H   0  0  0  0  0  0
  -27.6371  -14.2602   19.4612 H   0  0  0  0  0  0
  -28.6990  -12.2341   21.4878 H   0  0  0  0  0  0
  -28.4409  -13.9400   21.7509 H   0  0  0  0  0  0
  -25.2707   -9.5716   22.4814 H   0  0  0  0  0  0
  -23.9960   -7.4639   22.7499 H   0  0  0  0  0  0
  -21.0818   -8.8696   19.8970 H   0  0  0  0  0  0
  -22.3607  -10.9629   19.6164 H   0  0  0  0  0  0
  -21.1966   -7.6133   23.9685 H   0  0  0  0  0  0
  -21.1503   -6.0548   25.9073 H   0  0  0  0  0  0
  -22.0590   -2.7598   23.2902 H   0  0  0  0  0  0
  -22.4072  -11.9823   22.4742 H   0  0  0  0  0  0
  -21.1121  -13.1260   22.2656 H   0  0  0  0  0  0
  -24.6549  -15.8512   20.4837 H   0  0  0  0  0  0
  -26.2967  -15.6264   20.1400 H   0  0  0  0  0  0
  -26.7194  -32.5381   23.1088 H   0  0  0  0  0  0
  -25.0319  -33.9722   25.0570 H   0  0  0  0  0  0
  -22.7233  -31.3032   21.3964 H   0  0  0  0  0  0
  -23.3713  -35.9657   23.3316 H   0  0  0  0  0  0
  -24.3594  -36.8920   22.2061 H   0  0  0  0  0  0
  -23.7252  -37.6506   23.6668 H   0  0  0  0  0  0
  -26.0748  -31.5218   20.5794 H   0  0  0  0  0  0
  -26.8544  -30.8512   21.9802 H   0  0  0  0  0  0
  -28.1002  -28.9487   21.2427 H   0  0  0  0  0  0
  -25.9733  -25.9821   18.9066 H   0  0  0  0  0  0
  -23.9916  -27.3375   18.9506 H   0  0  0  0  0  0
  -23.7670  -30.5938   19.4048 H   0  0  0  0  0  0
  -22.7595  -29.2492   19.8448 H   0  0  0  0  0  0
  -25.1258  -36.1938   25.0810 H   0  0  0  0  0  0
  -20.9974  -28.3274   24.1403 H   0  0  0  0  0  0
  -20.5725  -26.2288   23.3592 H   0  0  0  0  0  0
  -21.6625  -26.7476   22.1167 H   0  0  0  0  0  0
  -19.6939  -25.6316   21.1229 H   0  0  0  0  0  0
  -19.6709  -27.3215   20.6756 H   0  0  0  0  0  0
  -17.4194  -26.6733   21.3986 H   0  0  0  0  0  0
  -18.0314  -26.0068   22.8986 H   0  0  0  0  0  0
  -19.7925  -30.7273   24.2301 H   0  0  0  0  0  0
  -17.5007  -31.6287   24.5155 H   0  0  0  0  0  0
  -15.5356  -30.3026   23.7652 H   0  0  0  0  0  0
  -15.8653  -28.0850   22.7105 H   0  0  0  0  0  0
  -24.6036  -30.6866   25.7790 H   0  0  0  0  0  0
  -24.8876  -32.2686   26.4919 H   0  0  0  0  0  0
  -25.8173  -30.8795   27.0198 H   0  0  0  0  0  0
  -26.2939  -29.6756   24.1129 H   0  0  0  0  0  0
  -27.4142  -29.7231   25.4553 H   0  0  0  0  0  0
  -27.8769  -30.4328   23.9259 H   0  0  0  0  0  0
  -27.2779  -33.3658   26.1980 H   0  0  0  0  0  0
  -28.3987  -32.6715   25.0386 H   0  0  0  0  0  0
  -28.0642  -31.8434   26.5511 H   0  0  0  0  0  0
  -28.2559  -38.0104   24.7498 H   0  0  0  0  0  0
  -28.1051  -36.2632   24.6338 H   0  0  0  0  0  0
  -27.2261  -37.1502   25.8874 H   0  0  0  0  0  0
  -20.9395  -29.8822   21.6904 H   0  0  0  0  0  0
  -26.0141  -38.2828   24.1435 H   0  0  0  0  0  0
  -30.9271  -17.2844   18.9878 H   0  0  0  0  0  0
  -28.4668  -18.3792   22.1999 H   0  0  0  0  0  0
  -30.6480  -25.4269   21.0423 H   0  0  0  0  0  0
  -30.9873  -24.6860   19.4819 H   0  0  0  0  0  0
  -31.3072  -23.7969   20.9673 H   0  0  0  0  0  0
  -27.5805  -22.9839   18.3101 H   0  0  0  0  0  0
  -26.9205  -22.3541   19.8147 H   0  0  0  0  0  0
  -27.6341  -21.2890   18.6124 H   0  0  0  0  0  0
  -27.4911  -20.4722   21.4798 H   0  0  0  0  0  0
  -28.1033  -21.9452   22.2019 H   0  0  0  0  0  0
  -28.7930  -20.4305   22.6769 H   0  0  0  0  0  0
  -30.4980  -19.8357   19.2131 H   0  0  0  0  0  0
  -28.7957  -19.6514   19.1193 H   0  0  0  0  0  0
  -27.2756  -24.7235   19.8157 H   0  0  0  0  0  0
  -28.5480  -25.0962   18.6710 H   0  0  0  0  0  0
  -28.8258  -23.8985   21.4676 H   0  0  0  0  0  0
  -29.8474  -22.4512   18.9971 H   0  0  0  0  0  0
  -30.8644  -20.5484   21.8529 H   0  0  0  0  0  0
  1 25  1  0  0  0
  1 30  2  0  0  0
  1 73  1  0  0  0
  2  3  1  0  0  0
  2 25  1  0  0  0
  2 85  1  0  0  0
  2 86  1  0  0  0
  3  4  1  0  0  0
  3 87  1  0  0  0
  3 88  1  0  0  0
  4  5  1  0  0  0
  4 89  1  0  0  0
  4 90  1  0  0  0
  5  6  1  0  0  0
  5 26  1  0  0  0
  5 91  1  0  0  0
  6 25  1  0  0  0
  6 92  1  0  0  0
  6 93  1  0  0  0
  7  8  2  0  0  0
  7 26  1  0  0  0
  7 29  1  0  0  0
  8  9  1  0  0  0
  8 22  1  0  0  0
  9 10  1  0  0  0
  9 27  2  0  0  0
 10 11  2  0  0  0
 10 15  1  0  0  0
 11 12  1  0  0  0
 11 94  1  0  0  0
 12 13  2  0  0  0
 12 95  1  0  0  0
 13 14  1  0  0  0
 13 31  1  0  0  0
 14 15  2  0  0  0
 14 96  1  0  0  0
 15 97  1  0  0  0
 16 17  2  0  0  0
 16 21  1  0  0  0
 16 31  1  0  0  0
 17 18  1  0  0  0
 17 98  1  0  0  0
 18 19  2  0  0  0
 18 99  1  0  0  0
 19 20  1  0  0  0
 19 24  1  0  0  0
 20 21  2  0  0  0
 20100  1  0  0  0
 21 23  1  0  0  0
 22 28  1  0  0  0
 22 32  2  0  0  0
 26 27  1  0  0  0
 28101  1  0  0  0
 28102  1  0  0  0
 29103  1  0  0  0
 29104  1  0  0  0
 33 34  1  0  0  0
 33 66  1  0  0  0
 33 70  2  0  0  0
 34 36  1  0  0  0
 34 59  1  0  0  0
 34105  1  0  0  0
 35 44  2  0  0  0
 35 45  1  0  0  0
 35 68  1  0  0  0
 36 56  1  0  0  0
 36106  1  0  0  0
 37 39  1  0  0  0
 37 47  1  0  0  0
 37 66  1  0  0  0
 37107  1  0  0  0
 38 43  2  0  0  0
 38 46  1  0  0  0
 38 47  1  0  0  0
 39 64  1  0  0  0
 39 67  2  0  0  0
 40 52  1  0  0  0
 40 53  2  0  0  0
 40 58  1  0  0  0
 41108  1  0  0  0
 41109  1  0  0  0
 41110  1  0  0  0
 41 48  1  0  0  0
 42 43  1  0  0  0
 42 66  1  0  0  0
 42111  1  0  0  0
 42112  1  0  0  0
 43 44  1  0  0  0
 44113  1  0  0  0
 45 46  2  0  0  0
 45114  1  0  0  0
 46115  1  0  0  0
 47116  1  0  0  0
 47117  1  0  0  0
 48 56  1  0  0  0
 48 65  1  0  0  0
 48118  1  0  0  0
 49 50  1  0  0  0
 49 53  1  0  0  0
 49 64  1  0  0  0
 49119  1  0  0  0
 50 51  1  0  0  0
 50120  1  0  0  0
 50121  1  0  0  0
 51 52  1  0  0  0
 51122  1  0  0  0
 51123  1  0  0  0
 52124  1  0  0  0
 52125  1  0  0  0
 53 54  1  0  0  0
 54 55  2  0  0  0
 54126  1  0  0  0
 55 57  1  0  0  0
 55127  1  0  0  0
 56 69  2  0  0  0
 57 58  2  0  0  0
 57128  1  0  0  0
 58129  1  0  0  0
 59 60  1  0  0  0
 59 61  1  0  0  0
 59 62  1  0  0  0
 60130  1  0  0  0
 60131  1  0  0  0
 60132  1  0  0  0
 61133  1  0  0  0
 61134  1  0  0  0
 61135  1  0  0  0
 62136  1  0  0  0
 62137  1  0  0  0
 62138  1  0  0  0
 63 65  1  0  0  0
 63139  1  0  0  0
 63140  1  0  0  0
 63141  1  0  0  0
 64142  1  0  0  0
 65143  1  0  0  0
 68 78  1  0  0  0
 71 73  2  0  0  0
 71 83  1  0  0  0
 71144  1  0  0  0
 72 82  2  0  0  0
 72 83  1  0  0  0
 72145  1  0  0  0
 73 82  1  0  0  0
 74146  1  0  0  0
 74147  1  0  0  0
 74148  1  0  0  0
 74 79  1  0  0  0
 75149  1  0  0  0
 75150  1  0  0  0
 75151  1  0  0  0
 75 80  1  0  0  0
 76152  1  0  0  0
 76153  1  0  0  0
 76154  1  0  0  0
 76 81  1  0  0  0
 77 81  1  0  0  0
 77 83  1  0  0  0
 77155  1  0  0  0
 77156  1  0  0  0
 78 79  1  0  0  0
 78157  1  0  0  0
 78158  1  0  0  0
 79 80  1  0  0  0
 79159  1  0  0  0
 80 81  1  0  0  0
 80160  1  0  0  0
 81 84  1  0  0  0
 84161  1  0  0  0
M  ISO  4   1 100  68 101  73 100  78 101
M  END
> <chiral flag>
0

> <version>
0

> <s_m_source_file>
/data/baiqing/PycharmProjects/Reinvent-master-3.2/result/LINK_invent/BTK/process_docking_weight1_custom_sum_contain_oxygen_bond_distance_aromatic_linkinvent_7_9_3/rearranged_h_0069.sdf

> <i_m_source_file_index>
88

> <r_mmod_Potential_Energy-OPLS-2005>
239.160766601562

> <r_mmod_Stretch_Energy-OPLS-2005>
107.382362365723

> <r_mmod_Bend_Energy-OPLS-2005>
181.148803710938

> <r_mmod_Torsional_Energy-OPLS-2005>
231.95866394043

> <r_mmod_Improper_Torsional_Energy-OPLS-2005>
6.633873462677

> <r_mmod_Van_der_Waal_Energy-OPLS-2005>
132.123092651367

> <r_mmod_Electrostatic_Energy-OPLS-2005>
-272.567749023438

> <r_mmod_Solvation_Energy-OPLS-2005>
-207.497573852539

> <b_mmod_Minimization_Converged-OPLS-2005>
0

> <r_mmod_RMS_Derivative-OPLS-2005>
5.29874897003174

$$$$
89
                    3D
 Structure written by MMmdl.
187195  0  0  1  0            999 V2000
  -30.6430  -14.7669   20.3750 C   0  0  0  0  0  0
  -30.4501  -12.4589   19.4580 C   0  0  0  0  0  0
  -29.5078  -12.4546   18.2329 C   0  0  0  0  0  0
  -28.0381  -12.2574   18.6548 C   0  0  0  0  0  0
  -27.6353  -13.1754   19.8330 C   0  0  2  0  0  0
  -28.7060  -13.1310   20.9545 C   0  0  0  0  0  0
  -25.2418  -13.7854   20.5601 C   0  0  0  0  0  0
  -24.1733  -13.0206   20.9213 C   0  0  0  0  0  0
  -24.6341  -11.6723   20.8814 C   0  0  0  0  0  0
  -23.9024  -10.4168   21.0448 C   0  0  0  0  0  0
  -24.3586   -9.4112   21.9232 C   0  0  0  0  0  0
  -23.6255   -8.2162   22.0780 C   0  0  0  0  0  0
  -22.4241   -8.0233   21.3552 C   0  0  0  0  0  0
  -21.9866   -9.0203   20.4659 C   0  0  0  0  0  0
  -22.7207  -10.2064   20.3078 C   0  0  0  0  0  0
  -21.6813   -6.0729   22.5291 C   0  0  0  0  0  0
  -21.3994   -6.5640   23.8229 C   0  0  0  0  0  0
  -21.3649   -5.6793   24.9186 C   0  0  0  0  0  0
  -21.6034   -4.3056   24.7229 C   0  0  0  0  0  0
  -21.8813   -3.8150   23.4348 C   0  0  0  0  0  0
  -21.9183   -4.6965   22.3413 C   0  0  0  0  0  0
  -22.7782  -13.5075   21.1879 C   0  0  0  0  0  0
  -22.1662   -4.2168   21.0984 F   0  0  0  0  0  0
  -21.5624   -3.4536   25.7739 F   0  0  0  0  0  0
  -29.9963  -13.5373   20.3677 N   0  0  0  0  0  0
  -26.2903  -12.9062   20.3272 N   0  0  0  0  0  0
  -25.9269  -11.6272   20.5838 N   0  0  0  0  0  0
  -22.0395  -12.8142   22.0454 N   0  0  0  0  0  0
  -25.3732  -15.1504   20.3846 N   0  0  0  0  0  0
  -31.8691  -14.7436   20.2544 O   0  0  0  0  0  0
  -21.6581   -6.8854   21.4256 O   0  0  0  0  0  0
  -22.3531  -14.5429   20.6754 O   0  0  0  0  0  0
  -24.6214  -31.8620   23.2014 C   0  0  0  0  0  0
  -25.9082  -32.4786   23.8339 C   0  0  1  0  0  0
  -27.2563  -27.3799   20.1214 C   0  0  0  0  0  0
  -25.5912  -33.8584   24.2277 N   0  0  0  0  0  0
  -23.4138  -30.4802   21.5415 C   0  0  2  0  0  0
  -24.8673  -28.9282   20.1217 C   0  0  0  0  0  0
  -22.7437  -29.4636   22.4951 C   0  0  0  0  0  0
  -18.0277  -28.1398   22.8488 C   0  0  0  0  0  0
  -24.1488  -36.7294   23.2637 C   0  0  0  0  0  0
  -25.9461  -30.8121   21.3611 C   0  0  0  0  0  0
  -26.0284  -29.4381   20.7165 C   0  0  0  0  0  0
  -27.2253  -28.6754   20.7052 C   0  0  0  0  0  0
  -26.0743  -26.8916   19.5259 C   0  0  0  0  0  0
  -24.8867  -27.6552   19.5223 C   0  0  0  0  0  0
  -23.6299  -29.8010   20.1612 C   0  0  0  0  0  0
  -25.4111  -36.3086   24.0332 C   0  0  1  0  0  0
  -20.5872  -28.3694   23.1300 C   0  0  2  0  0  0
  -20.6773  -26.9425   22.5415 C   0  0  0  0  0  0
  -19.5758  -26.6402   21.5210 C   0  0  0  0  0  0
  -18.1932  -26.7943   22.1616 C   0  0  0  0  0  0
  -19.1530  -28.8857   23.2890 C   0  0  0  0  0  0
  -18.9460  -30.1457   23.8908 C   0  0  0  0  0  0
  -17.6464  -30.6597   24.0570 C   0  0  0  0  0  0
  -25.9046  -34.9456   23.5104 C   0  0  0  0  0  0
  -16.5350  -29.9103   23.6334 C   0  0  0  0  0  0
  -16.7265  -28.6525   23.0350 C   0  0  0  0  0  0
  -26.4495  -31.6583   25.0683 C   0  0  0  0  0  0
  -25.3749  -31.3719   26.1422 C   0  0  0  0  0  0
  -27.0326  -30.3015   24.6092 C   0  0  0  0  0  0
  -27.6057  -32.4304   25.7456 C   0  0  0  0  0  0
  -27.5582  -37.1796   24.8460 C   0  0  0  0  0  0
  -21.4157  -29.3046   22.3688 N   0  0  0  0  0  0
  -26.4288  -37.3780   23.9416 N   0  0  0  0  0  0
  -24.6785  -31.0674   22.0927 N   0  0  0  0  0  0
  -23.4178  -28.8197   23.3036 O   0  0  0  0  0  0
  -28.4284  -26.6321   20.0686 O   0  0  0  0  0  0
  -26.5607  -34.8926   22.4666 O   0  0  0  0  0  0
  -23.5389  -32.1387   23.7381 O   0  0  0  0  0  0
  -31.6268  -15.5639   15.6527 C   0  0  0  0  0  0
  -30.4418  -15.5083   16.3289 C   0  0  0  0  0  0
  -32.5085  -16.2084   16.5602 C   0  0  0  0  0  0
  -33.9444  -16.5887   16.3597 C   0  0  0  0  0  0
  -32.9877  -21.7477   19.9795 C   0  0  0  0  0  0
  -32.2221  -20.1361   18.1880 C   0  0  0  0  0  0
  -27.4512  -17.3246   20.3279 C   0  0  0  0  0  0
  -28.6444  -16.5669   22.4594 C   0  0  0  0  0  0
  -31.5627  -17.5501   21.8868 C   0  0  0  0  0  0
  -29.6813  -22.9070   20.6446 C   0  0  0  0  0  0
  -29.0961  -24.1492   19.8540 C   0  0  0  0  0  0
  -29.8644  -21.5679   19.8288 C   0  0  0  0  0  0
  -30.1417  -18.9863   20.2828 C   0  0  0  0  0  0
  -29.6046  -16.2737   18.6073 C   0  0  0  0  0  0
  -28.4542  -25.3164   20.6983 C   0  0  0  0  0  0
  -32.2301  -20.4400   19.6985 C   0  0  0  0  0  0
  -28.5595  -16.4062   20.9325 C   0  0  0  0  0  0
  -30.8541  -17.5650   20.5100 C   0  0  2  0  0  0
  -30.8258  -20.4104   20.3681 C   0  0  1  0  0  0
  -29.9427  -16.2388   20.1585 C   0  0  1  0  0  0
  -31.9072  -16.4995   17.7004 N   0  0  0  0  0  0
  -30.6388  -16.0467   17.5859 N   0  0  0  0  0  0
  -31.4792  -12.5993   19.1225 H   0  0  0  0  0  0
  -30.4355  -11.4936   19.9666 H   0  0  0  0  0  0
  -29.8057  -11.6699   17.5376 H   0  0  0  0  0  0
  -29.6076  -13.3881   17.6883 H   0  0  0  0  0  0
  -27.9219  -11.2138   18.9508 H   0  0  0  0  0  0
  -27.3733  -12.4077   17.8034 H   0  0  0  0  0  0
  -27.5854  -14.1564   19.3805 H   0  0  0  0  0  0
  -28.7773  -12.1175   21.3505 H   0  0  0  0  0  0
  -28.4458  -13.7285   21.8272 H   0  0  0  0  0  0
  -25.2729   -9.5597   22.4812 H   0  0  0  0  0  0
  -23.9957   -7.4545   22.7495 H   0  0  0  0  0  0
  -21.0795   -8.8730   19.8967 H   0  0  0  0  0  0
  -22.3688  -10.9622   19.6195 H   0  0  0  0  0  0
  -21.1986   -7.6150   23.9738 H   0  0  0  0  0  0
  -21.1473   -6.0521   25.9092 H   0  0  0  0  0  0
  -22.0595   -2.7617   23.2837 H   0  0  0  0  0  0
  -22.3933  -11.9781   22.4874 H   0  0  0  0  0  0
  -21.1051  -13.1283   22.2650 H   0  0  0  0  0  0
  -24.5858  -15.7760   20.5130 H   0  0  0  0  0  0
  -26.2246  -15.6309   20.1304 H   0  0  0  0  0  0
  -26.7144  -32.5492   23.1094 H   0  0  0  0  0  0
  -25.0081  -33.9720   25.0437 H   0  0  0  0  0  0
  -22.7068  -31.2985   21.3914 H   0  0  0  0  0  0
  -23.3751  -35.9625   23.3298 H   0  0  0  0  0  0
  -24.3591  -36.8915   22.2053 H   0  0  0  0  0  0
  -23.7240  -37.6498   23.6656 H   0  0  0  0  0  0
  -26.0615  -31.5718   20.5866 H   0  0  0  0  0  0
  -26.8321  -30.8718   21.9811 H   0  0  0  0  0  0
  -28.1247  -29.0741   21.1539 H   0  0  0  0  0  0
  -26.0771  -25.9195   19.0533 H   0  0  0  0  0  0
  -23.9963  -27.2545   19.0580 H   0  0  0  0  0  0
  -23.7437  -30.5688   19.3942 H   0  0  0  0  0  0
  -22.7547  -29.2194   19.8663 H   0  0  0  0  0  0
  -25.1294  -36.1934   25.0823 H   0  0  0  0  0  0
  -20.9963  -28.3272   24.1422 H   0  0  0  0  0  0
  -20.5683  -26.2300   23.3612 H   0  0  0  0  0  0
  -21.6649  -26.7471   22.1213 H   0  0  0  0  0  0
  -19.6926  -25.6317   21.1237 H   0  0  0  0  0  0
  -19.6709  -27.3214   20.6746 H   0  0  0  0  0  0
  -17.4211  -26.6691   21.4008 H   0  0  0  0  0  0
  -18.0326  -26.0082   22.9010 H   0  0  0  0  0  0
  -19.7938  -30.7261   24.2288 H   0  0  0  0  0  0
  -17.5028  -31.6280   24.5176 H   0  0  0  0  0  0
  -15.5357  -30.3017   23.7654 H   0  0  0  0  0  0
  -15.8664  -28.0848   22.7062 H   0  0  0  0  0  0
  -24.5916  -30.7068   25.7770 H   0  0  0  0  0  0
  -24.8946  -32.2886   26.4848 H   0  0  0  0  0  0
  -25.8090  -30.8905   27.0192 H   0  0  0  0  0  0
  -26.2873  -29.6758   24.1161 H   0  0  0  0  0  0
  -27.4104  -29.7273   25.4566 H   0  0  0  0  0  0
  -27.8710  -30.4324   23.9241 H   0  0  0  0  0  0
  -27.2671  -33.3604   26.2040 H   0  0  0  0  0  0
  -28.3871  -32.6864   25.0285 H   0  0  0  0  0  0
  -28.0719  -31.8418   26.5370 H   0  0  0  0  0  0
  -28.2589  -38.0101   24.7523 H   0  0  0  0  0  0
  -28.1081  -36.2634   24.6259 H   0  0  0  0  0  0
  -27.2305  -37.1423   25.8862 H   0  0  0  0  0  0
  -20.9331  -29.8743   21.6882 H   0  0  0  0  0  0
  -26.0168  -38.2851   24.1429 H   0  0  0  0  0  0
  -31.8283  -15.2207   14.6486 H   0  0  0  0  0  0
  -29.4766  -15.1305   16.0204 H   0  0  0  0  0  0
  -34.4272  -15.9414   15.6284 H   0  0  0  0  0  0
  -34.5107  -16.5182   17.2885 H   0  0  0  0  0  0
  -34.0282  -17.6142   15.9997 H   0  0  0  0  0  0
  -34.0154  -21.6880   19.6195 H   0  0  0  0  0  0
  -33.0303  -21.9615   21.0476 H   0  0  0  0  0  0
  -32.5185  -22.6000   19.4867 H   0  0  0  0  0  0
  -33.2374  -19.9959   17.8160 H   0  0  0  0  0  0
  -31.7769  -20.9385   17.6010 H   0  0  0  0  0  0
  -31.6746  -19.2229   17.9606 H   0  0  0  0  0  0
  -26.5968  -17.3759   21.0035 H   0  0  0  0  0  0
  -27.0833  -16.9411   19.3764 H   0  0  0  0  0  0
  -27.6983  -18.3588   20.1350 H   0  0  0  0  0  0
  -27.7174  -16.2414   22.9317 H   0  0  0  0  0  0
  -28.7873  -17.6061   22.7498 H   0  0  0  0  0  0
  -29.4468  -15.9665   22.8893 H   0  0  0  0  0  0
  -32.4208  -18.2220   21.8847 H   0  0  0  0  0  0
  -31.9466  -16.5657   22.1491 H   0  0  0  0  0  0
  -30.9272  -17.8908   22.7000 H   0  0  0  0  0  0
  -29.0345  -22.6958   21.4972 H   0  0  0  0  0  0
  -30.6398  -23.2015   21.0744 H   0  0  0  0  0  0
  -28.3457  -23.8039   19.1419 H   0  0  0  0  0  0
  -29.9019  -24.5649   19.2474 H   0  0  0  0  0  0
  -30.1671  -21.8350   18.8181 H   0  0  0  0  0  0
  -28.8634  -21.1553   19.6976 H   0  0  0  0  0  0
  -29.3650  -19.0637   21.0375 H   0  0  0  0  0  0
  -29.6547  -18.9756   19.3128 H   0  0  0  0  0  0
  -29.1353  -17.2117   18.3268 H   0  0  0  0  0  0
  -28.8316  -15.5397   18.4016 H   0  0  0  0  0  0
  -29.0367  -25.4369   21.6123 H   0  0  0  0  0  0
  -27.4583  -25.0155   21.0283 H   0  0  0  0  0  0
  -32.8189  -19.6502   20.1634 H   0  0  0  0  0  0
  -28.0494  -15.4775   20.8494 H   0  0  0  0  0  0
  -31.6949  -17.5528   19.8298 H   0  0  0  0  0  0
  -30.9799  -20.5964   21.4322 H   0  0  0  0  0  0
  1 25  1  0  0  0
  1 30  2  0  0  0
  1 90  1  0  0  0
  2  3  1  0  0  0
  2 25  1  0  0  0
  2 93  1  0  0  0
  2 94  1  0  0  0
  3  4  1  0  0  0
  3 95  1  0  0  0
  3 96  1  0  0  0
  4  5  1  0  0  0
  4 97  1  0  0  0
  4 98  1  0  0  0
  5  6  1  0  0  0
  5 26  1  0  0  0
  5 99  1  0  0  0
  6 25  1  0  0  0
  6100  1  0  0  0
  6101  1  0  0  0
  7  8  2  0  0  0
  7 26  1  0  0  0
  7 29  1  0  0  0
  8  9  1  0  0  0
  8 22  1  0  0  0
  9 10  1  0  0  0
  9 27  2  0  0  0
 10 11  2  0  0  0
 10 15  1  0  0  0
 11 12  1  0  0  0
 11102  1  0  0  0
 12 13  2  0  0  0
 12103  1  0  0  0
 13 14  1  0  0  0
 13 31  1  0  0  0
 14 15  2  0  0  0
 14104  1  0  0  0
 15105  1  0  0  0
 16 17  2  0  0  0
 16 21  1  0  0  0
 16 31  1  0  0  0
 17 18  1  0  0  0
 17106  1  0  0  0
 18 19  2  0  0  0
 18107  1  0  0  0
 19 20  1  0  0  0
 19 24  1  0  0  0
 20 21  2  0  0  0
 20108  1  0  0  0
 21 23  1  0  0  0
 22 28  1  0  0  0
 22 32  2  0  0  0
 26 27  1  0  0  0
 28109  1  0  0  0
 28110  1  0  0  0
 29111  1  0  0  0
 29112  1  0  0  0
 33 34  1  0  0  0
 33 66  1  0  0  0
 33 70  2  0  0  0
 34 36  1  0  0  0
 34 59  1  0  0  0
 34113  1  0  0  0
 35 44  2  0  0  0
 35 45  1  0  0  0
 35 68  1  0  0  0
 36 56  1  0  0  0
 36114  1  0  0  0
 37 39  1  0  0  0
 37 47  1  0  0  0
 37 66  1  0  0  0
 37115  1  0  0  0
 38 43  2  0  0  0
 38 46  1  0  0  0
 38 47  1  0  0  0
 39 64  1  0  0  0
 39 67  2  0  0  0
 40 52  1  0  0  0
 40 53  2  0  0  0
 40 58  1  0  0  0
 41116  1  0  0  0
 41117  1  0  0  0
 41118  1  0  0  0
 41 48  1  0  0  0
 42 43  1  0  0  0
 42 66  1  0  0  0
 42119  1  0  0  0
 42120  1  0  0  0
 43 44  1  0  0  0
 44121  1  0  0  0
 45 46  2  0  0  0
 45122  1  0  0  0
 46123  1  0  0  0
 47124  1  0  0  0
 47125  1  0  0  0
 48 56  1  0  0  0
 48 65  1  0  0  0
 48126  1  0  0  0
 49 50  1  0  0  0
 49 53  1  0  0  0
 49 64  1  0  0  0
 49127  1  0  0  0
 50 51  1  0  0  0
 50128  1  0  0  0
 50129  1  0  0  0
 51 52  1  0  0  0
 51130  1  0  0  0
 51131  1  0  0  0
 52132  1  0  0  0
 52133  1  0  0  0
 53 54  1  0  0  0
 54 55  2  0  0  0
 54134  1  0  0  0
 55 57  1  0  0  0
 55135  1  0  0  0
 56 69  2  0  0  0
 57 58  2  0  0  0
 57136  1  0  0  0
 58137  1  0  0  0
 59 60  1  0  0  0
 59 61  1  0  0  0
 59 62  1  0  0  0
 60138  1  0  0  0
 60139  1  0  0  0
 60140  1  0  0  0
 61141  1  0  0  0
 61142  1  0  0  0
 61143  1  0  0  0
 62144  1  0  0  0
 62145  1  0  0  0
 62146  1  0  0  0
 63 65  1  0  0  0
 63147  1  0  0  0
 63148  1  0  0  0
 63149  1  0  0  0
 64150  1  0  0  0
 65151  1  0  0  0
 68 85  1  0  0  0
 71 72  2  0  0  0
 71 73  1  0  0  0
 71152  1  0  0  0
 72 92  1  0  0  0
 72153  1  0  0  0
 73 74  1  0  0  0
 73 91  2  0  0  0
 74154  1  0  0  0
 74155  1  0  0  0
 74156  1  0  0  0
 75157  1  0  0  0
 75158  1  0  0  0
 75159  1  0  0  0
 75 86  1  0  0  0
 76 86  1  0  0  0
 76160  1  0  0  0
 76161  1  0  0  0
 76162  1  0  0  0
 77163  1  0  0  0
 77164  1  0  0  0
 77165  1  0  0  0
 77 87  1  0  0  0
 78 87  1  0  0  0
 78166  1  0  0  0
 78167  1  0  0  0
 78168  1  0  0  0
 79169  1  0  0  0
 79170  1  0  0  0
 79171  1  0  0  0
 79 88  1  0  0  0
 80 81  1  0  0  0
 80 82  1  0  0  0
 80172  1  0  0  0
 80173  1  0  0  0
 81 85  1  0  0  0
 81174  1  0  0  0
 81175  1  0  0  0
 82176  1  0  0  0
 82177  1  0  0  0
 82 89  1  0  0  0
 83 88  1  0  0  0
 83 89  1  0  0  0
 83178  1  0  0  0
 83179  1  0  0  0
 84 92  1  0  0  0
 84180  1  0  0  0
 84181  1  0  0  0
 84 90  1  0  0  0
 85182  1  0  0  0
 85183  1  0  0  0
 86 89  1  0  0  0
 86184  1  0  0  0
 87 90  1  0  0  0
 87185  1  0  0  0
 88 90  1  0  0  0
 88186  1  0  0  0
 89187  1  0  0  0
 91 92  1  0  0  0
M  ISO  4   1 100  68 101  85 101  90 100
M  END
> <chiral flag>
0

> <version>
0

> <s_m_source_file>
/data/baiqing/PycharmProjects/Reinvent-master-3.2/result/LINK_invent/BTK/process_docking_weight1_custom_sum_contain_oxygen_bond_distance_aromatic_linkinvent_7_9_3/rearranged_h_0069.sdf

> <i_m_source_file_index>
89

> <r_mmod_Potential_Energy-OPLS-2005>
365.980712890625

> <r_mmod_Stretch_Energy-OPLS-2005>
114.090454101562

> <r_mmod_Bend_Energy-OPLS-2005>
212.956909179688

> <r_mmod_Torsional_Energy-OPLS-2005>
297.008178710938

> <r_mmod_Improper_Torsional_Energy-OPLS-2005>
8.93810558319092

> <r_mmod_Van_der_Waal_Energy-OPLS-2005>
140.971862792969

> <r_mmod_Electrostatic_Energy-OPLS-2005>
-289.265167236328

> <r_mmod_Solvation_Energy-OPLS-2005>
-187.326187133789

> <b_mmod_Minimization_Converged-OPLS-2005>
0

> <r_mmod_RMS_Derivative-OPLS-2005>
1.95335984230042

$$$$
90
                    3D
 Structure written by MMmdl.
161169  0  0  1  0            999 V2000
  -30.6317  -14.8218   20.5281 C   0  0  0  0  0  0
  -30.4267  -12.5167   19.4831 C   0  0  0  0  0  0
  -29.5104  -12.5560   18.2373 C   0  0  0  0  0  0
  -28.0361  -12.3569   18.6376 C   0  0  0  0  0  0
  -27.6457  -13.2319   19.8565 C   0  0  2  0  0  0
  -28.6901  -13.1264   20.9852 C   0  0  0  0  0  0
  -25.2567  -13.8188   20.5708 C   0  0  0  0  0  0
  -24.1842  -13.0427   20.9187 C   0  0  0  0  0  0
  -24.6433  -11.6915   20.8732 C   0  0  0  0  0  0
  -23.9100  -10.4295   21.0416 C   0  0  0  0  0  0
  -24.3650   -9.4220   21.9199 C   0  0  0  0  0  0
  -23.6330   -8.2252   22.0764 C   0  0  0  0  0  0
  -22.4311   -8.0292   21.3552 C   0  0  0  0  0  0
  -21.9947   -9.0262   20.4655 C   0  0  0  0  0  0
  -22.7272  -10.2141   20.3069 C   0  0  0  0  0  0
  -21.6860   -6.0761   22.5286 C   0  0  0  0  0  0
  -21.4004   -6.5657   23.8220 C   0  0  0  0  0  0
  -21.3676   -5.6806   24.9182 C   0  0  0  0  0  0
  -21.6056   -4.3068   24.7220 C   0  0  0  0  0  0
  -21.8815   -3.8166   23.4337 C   0  0  0  0  0  0
  -21.9194   -4.6990   22.3400 C   0  0  0  0  0  0
  -22.7878  -13.5245   21.1844 C   0  0  0  0  0  0
  -22.1672   -4.2186   21.0975 F   0  0  0  0  0  0
  -21.5641   -3.4545   25.7726 F   0  0  0  0  0  0
  -29.9824  -13.5813   20.4381 N   0  0  0  0  0  0
  -26.2978  -12.9376   20.3306 N   0  0  0  0  0  0
  -25.9365  -11.6514   20.5733 N   0  0  0  0  0  0
  -22.0523  -12.8219   22.0387 N   0  0  0  0  0  0
  -25.4259  -15.1913   20.4214 N   0  0  0  0  0  0
  -31.7352  -14.8614   19.9684 O   0  0  0  0  0  0
  -21.6660   -6.8900   21.4250 O   0  0  0  0  0  0
  -22.3574  -14.5567   20.6728 O   0  0  0  0  0  0
  -24.6413  -31.8480   23.1923 C   0  0  0  0  0  0
  -25.9216  -32.4692   23.8295 C   0  0  1  0  0  0
  -27.2176  -27.1912   20.1352 C   0  0  0  0  0  0
  -25.5993  -33.8499   24.2203 N   0  0  0  0  0  0
  -23.4415  -30.4735   21.5344 C   0  0  2  0  0  0
  -24.8921  -28.9154   20.1013 C   0  0  0  0  0  0
  -22.7563  -29.4569   22.4828 C   0  0  0  0  0  0
  -18.0314  -28.1352   22.8498 C   0  0  0  0  0  0
  -24.1496  -36.7239   23.2644 C   0  0  0  0  0  0
  -25.9978  -30.7388   21.3873 C   0  0  0  0  0  0
  -26.0678  -29.3610   20.7185 C   0  0  0  0  0  0
  -27.2344  -28.5155   20.7160 C   0  0  0  0  0  0
  -26.0145  -26.8367   19.4822 C   0  0  0  0  0  0
  -24.8770  -27.6668   19.4647 C   0  0  0  0  0  0
  -23.6656  -29.8098   20.1503 C   0  0  0  0  0  0
  -25.4134  -36.3017   24.0304 C   0  0  1  0  0  0
  -20.5940  -28.3685   23.1233 C   0  0  2  0  0  0
  -20.6795  -26.9378   22.5403 C   0  0  0  0  0  0
  -19.5752  -26.6349   21.5215 C   0  0  0  0  0  0
  -18.1941  -26.7901   22.1636 C   0  0  0  0  0  0
  -19.1577  -28.8840   23.2867 C   0  0  0  0  0  0
  -18.9479  -30.1444   23.8884 C   0  0  0  0  0  0
  -17.6472  -30.6561   24.0549 C   0  0  0  0  0  0
  -25.9089  -34.9391   23.5047 C   0  0  0  0  0  0
  -16.5369  -29.9041   23.6328 C   0  0  0  0  0  0
  -16.7301  -28.6455   23.0364 C   0  0  0  0  0  0
  -26.4547  -31.6567   25.0741 C   0  0  0  0  0  0
  -25.3737  -31.3744   26.1442 C   0  0  0  0  0  0
  -27.0402  -30.2954   24.6332 C   0  0  0  0  0  0
  -27.6080  -32.4343   25.7519 C   0  0  0  0  0  0
  -27.5560  -37.1771   24.8460 C   0  0  0  0  0  0
  -21.4262  -29.3024   22.3601 N   0  0  0  0  0  0
  -26.4284  -37.3733   23.9398 N   0  0  0  0  0  0
  -24.7121  -31.0406   22.0920 N   0  0  0  0  0  0
  -23.4235  -28.8095   23.2942 O   0  0  0  0  0  0
  -28.2779  -26.2318   20.2196 O   0  0  0  0  0  0
  -26.5643  -34.8875   22.4608 O   0  0  0  0  0  0
  -23.5549  -32.1321   23.7190 O   0  0  0  0  0  0
  -28.2650  -19.5231   21.0445 C   0  0  0  0  0  0
  -29.0182  -20.4378   20.2614 C   0  0  0  0  0  0
  -30.1438  -19.7514   19.7026 C   0  0  0  0  0  0
  -29.6714  -17.6231   20.7020 C   0  0  0  0  0  0
  -32.4041  -20.8463   19.6248 C   0  0  0  0  0  0
  -31.5346  -16.6354   22.0512 C   0  0  0  0  0  0
  -29.3030  -15.8444   22.5544 C   0  0  0  0  0  0
  -28.4461  -21.9233   19.8769 C   0  0  0  0  0  0
  -31.1420  -20.4871   18.8296 C   0  0  0  0  0  0
  -28.9119  -23.4247   20.3879 C   0  0  0  0  0  0
  -28.0037  -24.7438   19.9572 C   0  0  0  0  0  0
  -30.2122  -16.2063   21.3540 C   0  0  0  0  0  0
  -28.5871  -18.2047   21.2544 N   0  0  0  0  0  0
  -30.4483  -18.4159   19.9292 N   0  0  0  0  0  0
  -31.4713  -12.6143   19.1857 H   0  0  0  0  0  0
  -30.3691  -11.5317   19.9477 H   0  0  0  0  0  0
  -29.8094  -11.7925   17.5180 H   0  0  0  0  0  0
  -29.6267  -13.5153   17.7306 H   0  0  0  0  0  0
  -27.8946  -11.3006   18.8728 H   0  0  0  0  0  0
  -27.3800  -12.5728   17.7925 H   0  0  0  0  0  0
  -27.6493  -14.2642   19.5087 H   0  0  0  0  0  0
  -28.7639  -12.0922   21.3264 H   0  0  0  0  0  0
  -28.3524  -13.6565   21.8627 H   0  0  0  0  0  0
  -25.2790   -9.5710   22.4778 H   0  0  0  0  0  0
  -24.0063   -7.4638   22.7472 H   0  0  0  0  0  0
  -21.0894   -8.8776   19.8936 H   0  0  0  0  0  0
  -22.3744  -10.9692   19.6185 H   0  0  0  0  0  0
  -21.1972   -7.6157   23.9732 H   0  0  0  0  0  0
  -21.1521   -6.0534   25.9095 H   0  0  0  0  0  0
  -22.0575   -2.7631   23.2817 H   0  0  0  0  0  0
  -22.4159  -11.9903   22.4777 H   0  0  0  0  0  0
  -21.1145  -13.1248   22.2568 H   0  0  0  0  0  0
  -24.6593  -15.8413   20.5542 H   0  0  0  0  0  0
  -26.2879  -15.6491   20.1501 H   0  0  0  0  0  0
  -26.7289  -32.5300   23.1032 H   0  0  0  0  0  0
  -25.0196  -33.9629   25.0387 H   0  0  0  0  0  0
  -22.7414  -31.2988   21.3827 H   0  0  0  0  0  0
  -23.3756  -35.9569   23.3304 H   0  0  0  0  0  0
  -24.3593  -36.8885   22.2062 H   0  0  0  0  0  0
  -23.7236  -37.6428   23.6689 H   0  0  0  0  0  0
  -26.1664  -31.5030   20.6280 H   0  0  0  0  0  0
  -26.8646  -30.7740   22.0356 H   0  0  0  0  0  0
  -28.1357  -28.8554   21.2071 H   0  0  0  0  0  0
  -25.9100  -25.8788   18.9956 H   0  0  0  0  0  0
  -23.9804  -27.3257   18.9648 H   0  0  0  0  0  0
  -23.7858  -30.5858   19.3921 H   0  0  0  0  0  0
  -22.7852  -29.2424   19.8455 H   0  0  0  0  0  0
  -25.1315  -36.1854   25.0792 H   0  0  0  0  0  0
  -21.0064  -28.3266   24.1339 H   0  0  0  0  0  0
  -20.5690  -26.2274   23.3616 H   0  0  0  0  0  0
  -21.6652  -26.7367   22.1183 H   0  0  0  0  0  0
  -19.6899  -25.6259   21.1230 H   0  0  0  0  0  0
  -19.6687  -27.3184   20.6764 H   0  0  0  0  0  0
  -17.4210  -26.6683   21.4032 H   0  0  0  0  0  0
  -18.0321  -26.0030   22.9017 H   0  0  0  0  0  0
  -19.7952  -30.7271   24.2238 H   0  0  0  0  0  0
  -17.5009  -31.6253   24.5124 H   0  0  0  0  0  0
  -15.5359  -30.2916   23.7647 H   0  0  0  0  0  0
  -15.8712  -28.0753   22.7073 H   0  0  0  0  0  0
  -24.5936  -30.7067   25.7770 H   0  0  0  0  0  0
  -24.8905  -32.2913   26.4826 H   0  0  0  0  0  0
  -25.8046  -30.8955   27.0244 H   0  0  0  0  0  0
  -26.3001  -29.6661   24.1375 H   0  0  0  0  0  0
  -27.4028  -29.7288   25.4923 H   0  0  0  0  0  0
  -27.8913  -30.4164   23.9628 H   0  0  0  0  0  0
  -27.2685  -33.3693   26.1991 H   0  0  0  0  0  0
  -28.3945  -32.6831   25.0377 H   0  0  0  0  0  0
  -28.0675  -31.8528   26.5524 H   0  0  0  0  0  0
  -28.2565  -38.0079   24.7531 H   0  0  0  0  0  0
  -28.1059  -36.2603   24.6273 H   0  0  0  0  0  0
  -27.2268  -37.1419   25.8860 H   0  0  0  0  0  0
  -20.9436  -29.8763   21.6834 H   0  0  0  0  0  0
  -26.0140  -38.2786   24.1438 H   0  0  0  0  0  0
  -27.3466  -19.8501   21.5099 H   0  0  0  0  0  0
  -32.1494  -21.3865   20.5378 H   0  0  0  0  0  0
  -33.0743  -21.4719   19.0370 H   0  0  0  0  0  0
  -32.9477  -19.9462   19.9131 H   0  0  0  0  0  0
  -31.3812  -17.4679   22.7377 H   0  0  0  0  0  0
  -32.2716  -16.9776   21.3226 H   0  0  0  0  0  0
  -31.9931  -15.8222   22.6137 H   0  0  0  0  0  0
  -29.3128  -16.6288   23.3123 H   0  0  0  0  0  0
  -29.6299  -14.9380   23.0640 H   0  0  0  0  0  0
  -28.2630  -15.7354   22.2485 H   0  0  0  0  0  0
  -27.3789  -21.8709   20.1024 H   0  0  0  0  0  0
  -28.4656  -21.9670   18.7878 H   0  0  0  0  0  0
  -30.6862  -21.3859   18.4168 H   0  0  0  0  0  0
  -31.4035  -19.8644   17.9720 H   0  0  0  0  0  0
  -29.9375  -23.5876   20.0563 H   0  0  0  0  0  0
  -28.9661  -23.4135   21.4758 H   0  0  0  0  0  0
  -27.0219  -24.5316   20.3830 H   0  0  0  0  0  0
  -27.8797  -24.6684   18.8767 H   0  0  0  0  0  0
  1 25  1  0  0  0
  1 30  2  0  0  0
  1 82  1  0  0  0
  2  3  1  0  0  0
  2 25  1  0  0  0
  2 85  1  0  0  0
  2 86  1  0  0  0
  3  4  1  0  0  0
  3 87  1  0  0  0
  3 88  1  0  0  0
  4  5  1  0  0  0
  4 89  1  0  0  0
  4 90  1  0  0  0
  5  6  1  0  0  0
  5 26  1  0  0  0
  5 91  1  0  0  0
  6 25  1  0  0  0
  6 92  1  0  0  0
  6 93  1  0  0  0
  7  8  2  0  0  0
  7 26  1  0  0  0
  7 29  1  0  0  0
  8  9  1  0  0  0
  8 22  1  0  0  0
  9 10  1  0  0  0
  9 27  2  0  0  0
 10 11  2  0  0  0
 10 15  1  0  0  0
 11 12  1  0  0  0
 11 94  1  0  0  0
 12 13  2  0  0  0
 12 95  1  0  0  0
 13 14  1  0  0  0
 13 31  1  0  0  0
 14 15  2  0  0  0
 14 96  1  0  0  0
 15 97  1  0  0  0
 16 17  2  0  0  0
 16 21  1  0  0  0
 16 31  1  0  0  0
 17 18  1  0  0  0
 17 98  1  0  0  0
 18 19  2  0  0  0
 18 99  1  0  0  0
 19 20  1  0  0  0
 19 24  1  0  0  0
 20 21  2  0  0  0
 20100  1  0  0  0
 21 23  1  0  0  0
 22 28  1  0  0  0
 22 32  2  0  0  0
 26 27  1  0  0  0
 28101  1  0  0  0
 28102  1  0  0  0
 29103  1  0  0  0
 29104  1  0  0  0
 33 34  1  0  0  0
 33 66  1  0  0  0
 33 70  2  0  0  0
 34 36  1  0  0  0
 34 59  1  0  0  0
 34105  1  0  0  0
 35 44  2  0  0  0
 35 45  1  0  0  0
 35 68  1  0  0  0
 36 56  1  0  0  0
 36106  1  0  0  0
 37 39  1  0  0  0
 37 47  1  0  0  0
 37 66  1  0  0  0
 37107  1  0  0  0
 38 43  2  0  0  0
 38 46  1  0  0  0
 38 47  1  0  0  0
 39 64  1  0  0  0
 39 67  2  0  0  0
 40 52  1  0  0  0
 40 53  2  0  0  0
 40 58  1  0  0  0
 41108  1  0  0  0
 41109  1  0  0  0
 41110  1  0  0  0
 41 48  1  0  0  0
 42 43  1  0  0  0
 42 66  1  0  0  0
 42111  1  0  0  0
 42112  1  0  0  0
 43 44  1  0  0  0
 44113  1  0  0  0
 45 46  2  0  0  0
 45114  1  0  0  0
 46115  1  0  0  0
 47116  1  0  0  0
 47117  1  0  0  0
 48 56  1  0  0  0
 48 65  1  0  0  0
 48118  1  0  0  0
 49 50  1  0  0  0
 49 53  1  0  0  0
 49 64  1  0  0  0
 49119  1  0  0  0
 50 51  1  0  0  0
 50120  1  0  0  0
 50121  1  0  0  0
 51 52  1  0  0  0
 51122  1  0  0  0
 51123  1  0  0  0
 52124  1  0  0  0
 52125  1  0  0  0
 53 54  1  0  0  0
 54 55  2  0  0  0
 54126  1  0  0  0
 55 57  1  0  0  0
 55127  1  0  0  0
 56 69  2  0  0  0
 57 58  2  0  0  0
 57128  1  0  0  0
 58129  1  0  0  0
 59 60  1  0  0  0
 59 61  1  0  0  0
 59 62  1  0  0  0
 60130  1  0  0  0
 60131  1  0  0  0
 60132  1  0  0  0
 61133  1  0  0  0
 61134  1  0  0  0
 61135  1  0  0  0
 62136  1  0  0  0
 62137  1  0  0  0
 62138  1  0  0  0
 63 65  1  0  0  0
 63139  1  0  0  0
 63140  1  0  0  0
 63141  1  0  0  0
 64142  1  0  0  0
 65143  1  0  0  0
 68 81  1  0  0  0
 71 72  2  0  0  0
 71 83  1  0  0  0
 71144  1  0  0  0
 72 73  1  0  0  0
 72 78  1  0  0  0
 73 79  1  0  0  0
 73 84  2  0  0  0
 74 82  1  0  0  0
 74 83  2  0  0  0
 74 84  1  0  0  0
 75 79  1  0  0  0
 75145  1  0  0  0
 75146  1  0  0  0
 75147  1  0  0  0
 76148  1  0  0  0
 76149  1  0  0  0
 76150  1  0  0  0
 76 82  1  0  0  0
 77 82  1  0  0  0
 77151  1  0  0  0
 77152  1  0  0  0
 77153  1  0  0  0
 78 80  1  0  0  0
 78154  1  0  0  0
 78155  1  0  0  0
 79156  1  0  0  0
 79157  1  0  0  0
 80 81  1  0  0  0
 80158  1  0  0  0
 80159  1  0  0  0
 81160  1  0  0  0
 81161  1  0  0  0
M  ISO  4   1 100  68 101  81 101  82 100
M  END
> <chiral flag>
0

> <version>
0

> <s_m_source_file>
/data/baiqing/PycharmProjects/Reinvent-master-3.2/result/LINK_invent/BTK/process_docking_weight1_custom_sum_contain_oxygen_bond_distance_aromatic_linkinvent_7_9_3/rearranged_h_0069.sdf

> <i_m_source_file_index>
90

> <r_mmod_Potential_Energy-OPLS-2005>
124.587562561035

> <r_mmod_Stretch_Energy-OPLS-2005>
206.140640258789

> <r_mmod_Bend_Energy-OPLS-2005>
291.098388671875

> <r_mmod_Torsional_Energy-OPLS-2005>
181.207672119141

> <r_mmod_Improper_Torsional_Energy-OPLS-2005>
7.73998403549194

> <r_mmod_Van_der_Waal_Energy-OPLS-2005>
162.942443847656

> <r_mmod_Electrostatic_Energy-OPLS-2005>
-641.240356445312

> <r_mmod_Solvation_Energy-OPLS-2005>
-203.915954589844

> <b_mmod_Minimization_Converged-OPLS-2005>
0

> <r_mmod_RMS_Derivative-OPLS-2005>
3.08513689041138

$$$$
91
                    3D
 Structure written by MMmdl.
160168  0  0  1  0            999 V2000
  -30.5941  -15.0200   20.2886 C   0  0  0  0  0  0
  -30.4262  -12.6424   19.4374 C   0  0  0  0  0  0
  -29.4878  -12.4702   18.2255 C   0  0  0  0  0  0
  -28.0357  -12.2576   18.6881 C   0  0  0  0  0  0
  -27.6028  -13.2442   19.8044 C   0  0  2  0  0  0
  -28.6730  -13.3913   20.9015 C   0  0  0  0  0  0
  -25.2416  -13.8077   20.5996 C   0  0  0  0  0  0
  -24.1682  -13.0329   20.9247 C   0  0  0  0  0  0
  -24.6329  -11.6827   20.8753 C   0  0  0  0  0  0
  -23.9018  -10.4230   21.0396 C   0  0  0  0  0  0
  -24.3570   -9.4160   21.9182 C   0  0  0  0  0  0
  -23.6238   -8.2206   22.0747 C   0  0  0  0  0  0
  -22.4228   -8.0246   21.3533 C   0  0  0  0  0  0
  -21.9862   -9.0214   20.4635 C   0  0  0  0  0  0
  -22.7189  -10.2089   20.3040 C   0  0  0  0  0  0
  -21.6835   -6.0715   22.5284 C   0  0  0  0  0  0
  -21.4020   -6.5626   23.8218 C   0  0  0  0  0  0
  -21.3651   -5.6779   24.9180 C   0  0  0  0  0  0
  -21.6026   -4.3042   24.7231 C   0  0  0  0  0  0
  -21.8813   -3.8128   23.4355 C   0  0  0  0  0  0
  -21.9189   -4.6944   22.3408 C   0  0  0  0  0  0
  -22.7718  -13.5145   21.1888 C   0  0  0  0  0  0
  -22.1648   -4.2130   21.0985 F   0  0  0  0  0  0
  -21.5608   -3.4526   25.7742 F   0  0  0  0  0  0
  -29.9159  -13.7967   20.2295 N   0  0  0  0  0  0
  -26.2807  -12.9347   20.3333 N   0  0  0  0  0  0
  -25.9265  -11.6478   20.5774 N   0  0  0  0  0  0
  -22.0338  -12.8171   22.0443 N   0  0  0  0  0  0
  -25.4216  -15.1791   20.4975 N   0  0  0  0  0  0
  -31.8018  -14.8615   20.4842 O   0  0  0  0  0  0
  -21.6588   -6.8852   21.4246 O   0  0  0  0  0  0
  -22.3431  -14.5464   20.6730 O   0  0  0  0  0  0
  -24.6434  -31.8444   23.1859 C   0  0  0  0  0  0
  -25.9198  -32.4694   23.8273 C   0  0  1  0  0  0
  -27.2229  -27.1432   20.1682 C   0  0  0  0  0  0
  -25.5946  -33.8498   24.2207 N   0  0  0  0  0  0
  -23.4474  -30.4625   21.5294 C   0  0  2  0  0  0
  -24.8986  -28.8800   20.1182 C   0  0  0  0  0  0
  -22.7548  -29.4566   22.4825 C   0  0  0  0  0  0
  -18.0324  -28.1355   22.8507 C   0  0  0  0  0  0
  -24.1494  -36.7257   23.2645 C   0  0  0  0  0  0
  -26.0029  -30.7222   21.3820 C   0  0  0  0  0  0
  -26.0756  -29.3300   20.7312 C   0  0  0  0  0  0
  -27.2419  -28.4793   20.7342 C   0  0  0  0  0  0
  -26.0239  -26.7860   19.5198 C   0  0  0  0  0  0
  -24.8839  -27.6196   19.4985 C   0  0  0  0  0  0
  -23.6769  -29.7847   20.1518 C   0  0  0  0  0  0
  -25.4121  -36.3029   24.0325 C   0  0  1  0  0  0
  -20.5939  -28.3717   23.1207 C   0  0  2  0  0  0
  -20.6794  -26.9403   22.5407 C   0  0  0  0  0  0
  -19.5761  -26.6411   21.5210 C   0  0  0  0  0  0
  -18.1991  -26.7845   22.1747 C   0  0  0  0  0  0
  -19.1582  -28.8862   23.2836 C   0  0  0  0  0  0
  -18.9500  -30.1465   23.8834 C   0  0  0  0  0  0
  -17.6492  -30.6584   24.0514 C   0  0  0  0  0  0
  -25.9070  -34.9404   23.5080 C   0  0  0  0  0  0
  -16.5381  -29.9059   23.6331 C   0  0  0  0  0  0
  -16.7312  -28.6464   23.0368 C   0  0  0  0  0  0
  -26.4521  -31.6548   25.0701 C   0  0  0  0  0  0
  -25.3721  -31.3720   26.1408 C   0  0  0  0  0  0
  -27.0382  -30.2953   24.6246 C   0  0  0  0  0  0
  -27.6064  -32.4301   25.7474 C   0  0  0  0  0  0
  -27.5578  -37.1780   24.8467 C   0  0  0  0  0  0
  -21.4248  -29.3057   22.3558 N   0  0  0  0  0  0
  -26.4286  -37.3733   23.9412 N   0  0  0  0  0  0
  -24.7177  -31.0305   22.0886 N   0  0  0  0  0  0
  -23.4181  -28.8122   23.2993 O   0  0  0  0  0  0
  -28.2906  -26.1808   20.1790 O   0  0  0  0  0  0
  -26.5652  -34.8907   22.4658 O   0  0  0  0  0  0
  -23.5546  -32.1313   23.7078 O   0  0  0  0  0  0
  -29.9845  -19.1720   20.5430 C   0  0  0  0  0  0
  -29.0322  -20.2996   20.3931 C   0  0  0  0  0  0
  -29.4781  -17.9335   20.0425 C   0  0  0  0  0  0
  -29.6456  -16.1094   18.1491 C   0  0  0  0  0  0
  -31.5999  -17.0860   19.1350 C   0  0  0  0  0  0
  -28.9161  -21.8656   20.8969 C   0  0  0  0  0  0
  -28.7492  -23.2852   20.0079 C   0  0  0  0  0  0
  -27.1060  -17.6828   18.9758 C   0  0  0  0  0  0
  -28.0805  -24.7052   20.6226 C   0  0  0  0  0  0
  -30.2038  -16.5099   19.5356 C   0  0  0  0  0  0
  -25.6748  -18.2484   19.1883 C   0  0  0  0  0  0
  -27.9627  -19.7301   19.8830 N   0  0  0  0  0  0
  -28.1841  -18.3842   19.6761 N   0  0  0  0  0  0
  -24.7978  -17.4367   18.5985 F   0  0  0  0  0  0
  -25.5096  -19.4521   18.6327 F   0  0  0  0  0  0
  -25.3602  -18.3203   20.4847 F   0  0  0  0  0  0
  -31.4446  -12.8081   19.0829 H   0  0  0  0  0  0
  -30.4585  -11.7330   20.0402 H   0  0  0  0  0  0
  -29.8133  -11.6244   17.6186 H   0  0  0  0  0  0
  -29.5395  -13.3405   17.5738 H   0  0  0  0  0  0
  -27.9678  -11.2370   19.0662 H   0  0  0  0  0  0
  -27.3530  -12.3079   17.8386 H   0  0  0  0  0  0
  -27.5056  -14.2094   19.3130 H   0  0  0  0  0  0
  -28.8063  -12.4561   21.4465 H   0  0  0  0  0  0
  -28.3802  -14.1467   21.6332 H   0  0  0  0  0  0
  -25.2714   -9.5622   22.4762 H   0  0  0  0  0  0
  -23.9926   -7.4601   22.7472 H   0  0  0  0  0  0
  -21.0782   -8.8732   19.8948 H   0  0  0  0  0  0
  -22.3648  -10.9624   19.6145 H   0  0  0  0  0  0
  -21.2029   -7.6141   23.9721 H   0  0  0  0  0  0
  -21.1477   -6.0514   25.9086 H   0  0  0  0  0  0
  -22.0607   -2.7591   23.2867 H   0  0  0  0  0  0
  -22.3914  -11.9825   22.4841 H   0  0  0  0  0  0
  -21.0983  -13.1258   22.2673 H   0  0  0  0  0  0
  -24.6700  -15.8168   20.7329 H   0  0  0  0  0  0
  -26.3375  -15.5800   20.6275 H   0  0  0  0  0  0
  -26.7274  -32.5311   23.1016 H   0  0  0  0  0  0
  -25.0070  -33.9610   25.0340 H   0  0  0  0  0  0
  -22.7526  -31.2889   21.3683 H   0  0  0  0  0  0
  -23.3756  -35.9585   23.3285 H   0  0  0  0  0  0
  -24.3594  -36.8893   22.2062 H   0  0  0  0  0  0
  -23.7247  -37.6452   23.6686 H   0  0  0  0  0  0
  -26.1536  -31.4737   20.6055 H   0  0  0  0  0  0
  -26.8751  -30.7795   22.0219 H   0  0  0  0  0  0
  -28.1435  -28.8230   21.2205 H   0  0  0  0  0  0
  -25.9579  -25.8213   19.0359 H   0  0  0  0  0  0
  -23.9868  -27.2671   19.0094 H   0  0  0  0  0  0
  -23.8237  -30.5544   19.3926 H   0  0  0  0  0  0
  -22.7920  -29.2288   19.8375 H   0  0  0  0  0  0
  -25.1302  -36.1869   25.0812 H   0  0  0  0  0  0
  -21.0058  -28.3303   24.1321 H   0  0  0  0  0  0
  -21.6659  -26.7365   22.1244 H   0  0  0  0  0  0
  -20.5632  -26.2336   23.3631 H   0  0  0  0  0  0
  -19.6965  -25.6378   21.1121 H   0  0  0  0  0  0
  -19.6604  -27.3326   20.6821 H   0  0  0  0  0  0
  -17.4141  -26.6365   21.4311 H   0  0  0  0  0  0
  -18.0629  -26.0054   22.9266 H   0  0  0  0  0  0
  -19.7978  -30.7315   24.2159 H   0  0  0  0  0  0
  -17.5068  -31.6284   24.5056 H   0  0  0  0  0  0
  -15.5381  -30.2960   23.7673 H   0  0  0  0  0  0
  -15.8707  -28.0764   22.7115 H   0  0  0  0  0  0
  -24.5929  -30.7021   25.7752 H   0  0  0  0  0  0
  -24.8868  -32.2880   26.4783 H   0  0  0  0  0  0
  -25.8037  -30.8955   27.0219 H   0  0  0  0  0  0
  -26.2991  -29.6667   24.1265 H   0  0  0  0  0  0
  -27.4035  -29.7254   25.4799 H   0  0  0  0  0  0
  -27.8881  -30.4205   23.9533 H   0  0  0  0  0  0
  -27.2685  -33.3634   26.1989 H   0  0  0  0  0  0
  -28.3906  -32.6789   25.0311 H   0  0  0  0  0  0
  -28.0692  -31.8450   26.5428 H   0  0  0  0  0  0
  -28.2581  -38.0087   24.7508 H   0  0  0  0  0  0
  -28.1089  -36.2617   24.6302 H   0  0  0  0  0  0
  -27.2298  -37.1430   25.8869 H   0  0  0  0  0  0
  -20.9473  -29.8688   21.6667 H   0  0  0  0  0  0
  -26.0162  -38.2803   24.1412 H   0  0  0  0  0  0
  -30.9854  -19.2839   20.9353 H   0  0  0  0  0  0
  -29.5543  -16.9748   17.4914 H   0  0  0  0  0  0
  -28.6795  -15.6206   18.1934 H   0  0  0  0  0  0
  -30.3150  -15.4167   17.6403 H   0  0  0  0  0  0
  -32.1634  -17.4197   20.0075 H   0  0  0  0  0  0
  -32.2295  -16.3698   18.6043 H   0  0  0  0  0  0
  -31.5096  -17.9463   18.4686 H   0  0  0  0  0  0
  -29.7567  -22.0420   21.5685 H   0  0  0  0  0  0
  -28.0610  -21.8820   21.5723 H   0  0  0  0  0  0
  -29.7421  -23.5290   19.6322 H   0  0  0  0  0  0
  -28.1724  -23.0363   19.1171 H   0  0  0  0  0  0
  -27.3296  -17.6954   17.9098 H   0  0  0  0  0  0
  -27.1254  -16.6475   19.2955 H   0  0  0  0  0  0
  -28.3826  -24.7210   21.6698 H   0  0  0  0  0  0
  -27.0059  -24.5287   20.6818 H   0  0  0  0  0  0
  1 25  1  0  0  0
  1 30  2  0  0  0
  1 80  1  0  0  0
  2  3  1  0  0  0
  2 25  1  0  0  0
  2 87  1  0  0  0
  2 88  1  0  0  0
  3  4  1  0  0  0
  3 89  1  0  0  0
  3 90  1  0  0  0
  4  5  1  0  0  0
  4 91  1  0  0  0
  4 92  1  0  0  0
  5  6  1  0  0  0
  5 26  1  0  0  0
  5 93  1  0  0  0
  6 25  1  0  0  0
  6 94  1  0  0  0
  6 95  1  0  0  0
  7  8  2  0  0  0
  7 26  1  0  0  0
  7 29  1  0  0  0
  8  9  1  0  0  0
  8 22  1  0  0  0
  9 10  1  0  0  0
  9 27  2  0  0  0
 10 11  2  0  0  0
 10 15  1  0  0  0
 11 12  1  0  0  0
 11 96  1  0  0  0
 12 13  2  0  0  0
 12 97  1  0  0  0
 13 14  1  0  0  0
 13 31  1  0  0  0
 14 15  2  0  0  0
 14 98  1  0  0  0
 15 99  1  0  0  0
 16 17  2  0  0  0
 16 21  1  0  0  0
 16 31  1  0  0  0
 17 18  1  0  0  0
 17100  1  0  0  0
 18 19  2  0  0  0
 18101  1  0  0  0
 19 20  1  0  0  0
 19 24  1  0  0  0
 20 21  2  0  0  0
 20102  1  0  0  0
 21 23  1  0  0  0
 22 28  1  0  0  0
 22 32  2  0  0  0
 26 27  1  0  0  0
 28103  1  0  0  0
 28104  1  0  0  0
 29105  1  0  0  0
 29106  1  0  0  0
 33 34  1  0  0  0
 33 66  1  0  0  0
 33 70  2  0  0  0
 34 36  1  0  0  0
 34 59  1  0  0  0
 34107  1  0  0  0
 35 44  2  0  0  0
 35 45  1  0  0  0
 35 68  1  0  0  0
 36 56  1  0  0  0
 36108  1  0  0  0
 37 39  1  0  0  0
 37 47  1  0  0  0
 37 66  1  0  0  0
 37109  1  0  0  0
 38 43  2  0  0  0
 38 46  1  0  0  0
 38 47  1  0  0  0
 39 64  1  0  0  0
 39 67  2  0  0  0
 40 52  1  0  0  0
 40 53  2  0  0  0
 40 58  1  0  0  0
 41110  1  0  0  0
 41111  1  0  0  0
 41112  1  0  0  0
 41 48  1  0  0  0
 42 43  1  0  0  0
 42 66  1  0  0  0
 42113  1  0  0  0
 42114  1  0  0  0
 43 44  1  0  0  0
 44115  1  0  0  0
 45 46  2  0  0  0
 45116  1  0  0  0
 46117  1  0  0  0
 47118  1  0  0  0
 47119  1  0  0  0
 48 56  1  0  0  0
 48 65  1  0  0  0
 48120  1  0  0  0
 49 50  1  0  0  0
 49 53  1  0  0  0
 49 64  1  0  0  0
 49121  1  0  0  0
 50 51  1  0  0  0
 50122  1  0  0  0
 50123  1  0  0  0
 51 52  1  0  0  0
 51124  1  0  0  0
 51125  1  0  0  0
 52126  1  0  0  0
 52127  1  0  0  0
 53 54  1  0  0  0
 54 55  2  0  0  0
 54128  1  0  0  0
 55 57  1  0  0  0
 55129  1  0  0  0
 56 69  2  0  0  0
 57 58  2  0  0  0
 57130  1  0  0  0
 58131  1  0  0  0
 59 60  1  0  0  0
 59 61  1  0  0  0
 59 62  1  0  0  0
 60132  1  0  0  0
 60133  1  0  0  0
 60134  1  0  0  0
 61135  1  0  0  0
 61136  1  0  0  0
 61137  1  0  0  0
 62138  1  0  0  0
 62139  1  0  0  0
 62140  1  0  0  0
 63 65  1  0  0  0
 63141  1  0  0  0
 63142  1  0  0  0
 63143  1  0  0  0
 64144  1  0  0  0
 65145  1  0  0  0
 68 79  1  0  0  0
 71 72  1  0  0  0
 71 73  2  0  0  0
 71146  1  0  0  0
 72 76  1  0  0  0
 72 82  2  0  0  0
 73 80  1  0  0  0
 73 83  1  0  0  0
 74147  1  0  0  0
 74148  1  0  0  0
 74149  1  0  0  0
 74 80  1  0  0  0
 75 80  1  0  0  0
 75150  1  0  0  0
 75151  1  0  0  0
 75152  1  0  0  0
 76 77  1  0  0  0
 76153  1  0  0  0
 76154  1  0  0  0
 77 79  1  0  0  0
 77155  1  0  0  0
 77156  1  0  0  0
 78 81  1  0  0  0
 78 83  1  0  0  0
 78157  1  0  0  0
 78158  1  0  0  0
 79159  1  0  0  0
 79160  1  0  0  0
 81 84  1  0  0  0
 81 85  1  0  0  0
 81 86  1  0  0  0
 82 83  1  0  0  0
M  ISO  4   1 100  68 101  79 101  80 100
M  END
> <chiral flag>
0

> <version>
0

> <s_m_source_file>
/data/baiqing/PycharmProjects/Reinvent-master-3.2/result/LINK_invent/BTK/process_docking_weight1_custom_sum_contain_oxygen_bond_distance_aromatic_linkinvent_7_9_3/rearranged_h_0069.sdf

> <i_m_source_file_index>
91

> <r_mmod_Potential_Energy-OPLS-2005>
842.377868652344

> <r_mmod_Stretch_Energy-OPLS-2005>
286.513671875

> <r_mmod_Bend_Energy-OPLS-2005>
352.959381103516

> <r_mmod_Torsional_Energy-OPLS-2005>
289.412414550781

> <r_mmod_Improper_Torsional_Energy-OPLS-2005>
27.1462688446045

> <r_mmod_Van_der_Waal_Energy-OPLS-2005>
129.6845703125

> <r_mmod_Electrostatic_Energy-OPLS-2005>
-292.175537109375

> <r_mmod_Solvation_Energy-OPLS-2005>
-195.027145385742

> <b_mmod_Minimization_Converged-OPLS-2005>
0

> <r_mmod_RMS_Derivative-OPLS-2005>
2.44198751449585

$$$$
92
                    3D
 Structure written by MMmdl.
170178  0  0  1  0            999 V2000
  -30.6432  -14.6210   20.5870 C   0  0  0  0  0  0
  -30.4348  -12.4085   19.4553 C   0  0  0  0  0  0
  -29.5122  -12.5336   18.2249 C   0  0  0  0  0  0
  -28.0283  -12.3703   18.6111 C   0  0  0  0  0  0
  -27.6481  -13.2150   19.8533 C   0  0  2  0  0  0
  -28.6772  -13.0167   20.9767 C   0  0  0  0  0  0
  -25.2497  -13.8186   20.5646 C   0  0  0  0  0  0
  -24.1760  -13.0471   20.9134 C   0  0  0  0  0  0
  -24.6341  -11.6930   20.8706 C   0  0  0  0  0  0
  -23.9026  -10.4317   21.0437 C   0  0  0  0  0  0
  -24.3613   -9.4231   21.9203 C   0  0  0  0  0  0
  -23.6296   -8.2258   22.0773 C   0  0  0  0  0  0
  -22.4266   -8.0289   21.3574 C   0  0  0  0  0  0
  -21.9893   -9.0257   20.4668 C   0  0  0  0  0  0
  -22.7206  -10.2148   20.3089 C   0  0  0  0  0  0
  -21.6842   -6.0733   22.5295 C   0  0  0  0  0  0
  -21.4003   -6.5639   23.8226 C   0  0  0  0  0  0
  -21.3679   -5.6804   24.9195 C   0  0  0  0  0  0
  -21.6047   -4.3060   24.7252 C   0  0  0  0  0  0
  -21.8813   -3.8150   23.4377 C   0  0  0  0  0  0
  -21.9192   -4.6958   22.3424 C   0  0  0  0  0  0
  -22.7775  -13.5247   21.1836 C   0  0  0  0  0  0
  -22.1646   -4.2139   21.1004 F   0  0  0  0  0  0
  -21.5651   -3.4552   25.7778 F   0  0  0  0  0  0
  -29.9986  -13.4094   20.4551 N   0  0  0  0  0  0
  -26.2910  -12.9361   20.3197 N   0  0  0  0  0  0
  -25.9252  -11.6521   20.5643 N   0  0  0  0  0  0
  -22.0415  -12.8288   22.0434 N   0  0  0  0  0  0
  -25.4275  -15.1905   20.4142 N   0  0  0  0  0  0
  -31.7528  -14.7923   20.0661 O   0  0  0  0  0  0
  -21.6643   -6.8868   21.4250 O   0  0  0  0  0  0
  -22.3440  -14.5532   20.6651 O   0  0  0  0  0  0
  -24.6252  -31.8578   23.2059 C   0  0  0  0  0  0
  -25.9109  -32.4740   23.8351 C   0  0  1  0  0  0
  -27.2077  -27.3023   20.1118 C   0  0  0  0  0  0
  -25.5928  -33.8546   24.2270 N   0  0  0  0  0  0
  -23.4207  -30.4856   21.5459 C   0  0  2  0  0  0
  -24.8660  -28.9384   20.1172 C   0  0  0  0  0  0
  -22.7471  -29.4622   22.4912 C   0  0  0  0  0  0
  -18.0289  -28.1397   22.8474 C   0  0  0  0  0  0
  -24.1509  -36.7300   23.2639 C   0  0  0  0  0  0
  -25.9646  -30.7706   21.3936 C   0  0  0  0  0  0
  -26.0320  -29.3955   20.7465 C   0  0  0  0  0  0
  -27.2061  -28.5839   20.7476 C   0  0  0  0  0  0
  -26.0507  -26.9459   19.4007 C   0  0  0  0  0  0
  -24.8790  -27.7185   19.4309 C   0  0  0  0  0  0
  -23.6382  -29.8231   20.1609 C   0  0  0  0  0  0
  -25.4132  -36.3064   24.0320 C   0  0  1  0  0  0
  -20.5886  -28.3714   23.1263 C   0  0  2  0  0  0
  -20.6759  -26.9430   22.5408 C   0  0  0  0  0  0
  -19.5738  -26.6409   21.5198 C   0  0  0  0  0  0
  -18.1931  -26.7934   22.1620 C   0  0  0  0  0  0
  -19.1534  -28.8870   23.2867 C   0  0  0  0  0  0
  -18.9441  -30.1459   23.8915 C   0  0  0  0  0  0
  -17.6439  -30.6587   24.0567 C   0  0  0  0  0  0
  -25.9067  -34.9423   23.5098 C   0  0  0  0  0  0
  -16.5345  -29.9090   23.6311 C   0  0  0  0  0  0
  -16.7270  -28.6504   23.0340 C   0  0  0  0  0  0
  -26.4516  -31.6538   25.0711 C   0  0  0  0  0  0
  -25.3752  -31.3639   26.1427 C   0  0  0  0  0  0
  -27.0370  -30.2963   24.6176 C   0  0  0  0  0  0
  -27.6098  -32.4259   25.7438 C   0  0  0  0  0  0
  -27.5596  -37.1802   24.8456 C   0  0  0  0  0  0
  -21.4187  -29.3052   22.3635 N   0  0  0  0  0  0
  -26.4311  -37.3754   23.9392 N   0  0  0  0  0  0
  -24.6879  -31.0573   22.1031 N   0  0  0  0  0  0
  -23.4186  -28.8139   23.2988 O   0  0  0  0  0  0
  -28.3131  -26.4436   20.0790 O   0  0  0  0  0  0
  -26.5641  -34.8892   22.4674 O   0  0  0  0  0  0
  -23.5417  -32.1408   23.7374 O   0  0  0  0  0  0
  -29.4209  -21.5801   19.4427 C   0  0  0  0  0  0
  -28.4272  -22.3270   20.1467 C   0  0  0  0  0  0
  -28.8478  -19.5645   20.5115 C   0  0  0  0  0  0
  -27.9232  -20.3228   21.3075 C   0  0  0  0  0  0
  -27.7603  -23.1696   17.0788 C   0  0  0  0  0  0
  -27.7104  -19.0679   23.5260 C   0  0  0  0  0  0
  -26.3127  -23.5171   19.6688 C   0  0  0  0  0  0
  -29.5375  -15.6304   22.5241 C   0  0  0  0  0  0
  -28.8542  -17.9900   20.4355 C   0  0  0  0  0  0
  -28.3150  -24.0703   18.2070 C   0  0  0  0  0  0
  -30.1658  -17.1504   20.7158 C   0  0  0  0  0  0
  -28.2217  -25.0330   20.5782 C   0  0  0  0  0  0
  -26.9700  -19.6993   22.3394 C   0  0  2  0  0  0
  -27.8563  -23.7456   19.6659 C   0  0  2  0  0  0
  -29.6235  -20.2350   19.6127 N   0  0  0  0  0  0
  -27.7640  -21.6769   21.1505 N   0  0  0  0  0  0
  -29.9504  -15.6997   21.1132 N   0  0  0  0  0  0
  -26.0561  -18.7696   21.7736 O   0  0  0  0  0  0
  -31.4701  -12.5552   19.1500 H   0  0  0  0  0  0
  -30.3955  -11.4025   19.8762 H   0  0  0  0  0  0
  -29.7933  -11.7979   17.4694 H   0  0  0  0  0  0
  -29.6653  -13.5118   17.7670 H   0  0  0  0  0  0
  -27.8360  -11.3138   18.8072 H   0  0  0  0  0  0
  -27.3981  -12.6437   17.7633 H   0  0  0  0  0  0
  -27.6860  -14.2616   19.5508 H   0  0  0  0  0  0
  -28.6952  -11.9696   21.2829 H   0  0  0  0  0  0
  -28.3526  -13.5565   21.8578 H   0  0  0  0  0  0
  -25.2771   -9.5700   22.4753 H   0  0  0  0  0  0
  -24.0017   -7.4645   22.7481 H   0  0  0  0  0  0
  -21.0831   -8.8767   19.8962 H   0  0  0  0  0  0
  -22.3664  -10.9691   19.6202 H   0  0  0  0  0  0
  -21.1961   -7.6143   23.9723 H   0  0  0  0  0  0
  -21.1511   -6.0538   25.9097 H   0  0  0  0  0  0
  -22.0571   -2.7604   23.2896 H   0  0  0  0  0  0
  -22.3986  -11.9973   22.4914 H   0  0  0  0  0  0
  -21.1028  -13.1352   22.2639 H   0  0  0  0  0  0
  -24.6754  -15.8574   20.5428 H   0  0  0  0  0  0
  -26.3046  -15.6295   20.1679 H   0  0  0  0  0  0
  -26.7153  -32.5379   23.1062 H   0  0  0  0  0  0
  -25.0005  -33.9673   25.0361 H   0  0  0  0  0  0
  -22.7162  -31.3077   21.4019 H   0  0  0  0  0  0
  -23.3744  -35.9658   23.3296 H   0  0  0  0  0  0
  -24.3614  -36.8926   22.2059 H   0  0  0  0  0  0
  -23.7298  -37.6510   23.6674 H   0  0  0  0  0  0
  -26.1169  -31.5234   20.6179 H   0  0  0  0  0  0
  -26.8423  -30.8139   22.0260 H   0  0  0  0  0  0
  -28.1025  -28.9272   21.2437 H   0  0  0  0  0  0
  -26.0720  -26.1083   18.7339 H   0  0  0  0  0  0
  -24.0095  -27.4065   18.8686 H   0  0  0  0  0  0
  -23.7635  -30.5986   19.4050 H   0  0  0  0  0  0
  -22.7583  -29.2560   19.8549 H   0  0  0  0  0  0
  -25.1312  -36.1920   25.0814 H   0  0  0  0  0  0
  -20.9987  -28.3320   24.1377 H   0  0  0  0  0  0
  -20.5655  -26.2335   23.3620 H   0  0  0  0  0  0
  -21.6621  -26.7442   22.1199 H   0  0  0  0  0  0
  -19.6912  -25.6324   21.1217 H   0  0  0  0  0  0
  -19.6669  -27.3222   20.6731 H   0  0  0  0  0  0
  -17.4185  -26.6673   21.4041 H   0  0  0  0  0  0
  -18.0350  -26.0083   22.9030 H   0  0  0  0  0  0
  -19.7918  -30.7259   24.2317 H   0  0  0  0  0  0
  -17.4994  -31.6260   24.5175 H   0  0  0  0  0  0
  -15.5344  -30.2995   23.7618 H   0  0  0  0  0  0
  -15.8672  -28.0822   22.7054 H   0  0  0  0  0  0
  -24.5949  -30.6975   25.7725 H   0  0  0  0  0  0
  -24.8911  -32.2778   26.4879 H   0  0  0  0  0  0
  -25.8078  -30.8787   27.0187 H   0  0  0  0  0  0
  -26.2954  -29.6687   24.1212 H   0  0  0  0  0  0
  -27.4092  -29.7225   25.4669 H   0  0  0  0  0  0
  -27.8825  -30.4240   23.9406 H   0  0  0  0  0  0
  -27.2748  -33.3559   26.2037 H   0  0  0  0  0  0
  -28.3868  -32.6807   25.0214 H   0  0  0  0  0  0
  -28.0819  -31.8368   26.5305 H   0  0  0  0  0  0
  -28.2585  -38.0121   24.7482 H   0  0  0  0  0  0
  -28.1120  -36.2643   24.6298 H   0  0  0  0  0  0
  -27.2308  -37.1451   25.8856 H   0  0  0  0  0  0
  -20.9398  -29.8759   21.6795 H   0  0  0  0  0  0
  -26.0190  -38.2832   24.1365 H   0  0  0  0  0  0
  -29.9967  -22.0234   18.6457 H   0  0  0  0  0  0
  -28.2526  -23.3911   16.1301 H   0  0  0  0  0  0
  -26.6928  -23.3410   16.9330 H   0  0  0  0  0  0
  -27.9002  -22.1070   17.2703 H   0  0  0  0  0  0
  -28.2902  -19.8221   24.0617 H   0  0  0  0  0  0
  -28.3999  -18.2867   23.2125 H   0  0  0  0  0  0
  -27.0153  -18.6211   24.2371 H   0  0  0  0  0  0
  -26.0583  -22.5822   19.1661 H   0  0  0  0  0  0
  -25.7115  -24.2628   19.1767 H   0  0  0  0  0  0
  -25.9283  -23.4423   20.6848 H   0  0  0  0  0  0
  -28.4552  -15.7479   22.6028 H   0  0  0  0  0  0
  -29.9952  -16.4141   23.1291 H   0  0  0  0  0  0
  -29.8154  -14.6913   23.0086 H   0  0  0  0  0  0
  -28.5013  -17.7351   19.4379 H   0  0  0  0  0  0
  -28.0789  -17.5989   21.0838 H   0  0  0  0  0  0
  -28.0221  -25.0868   17.9536 H   0  0  0  0  0  0
  -29.4036  -24.0890   18.1561 H   0  0  0  0  0  0
  -30.7392  -17.6532   21.4936 H   0  0  0  0  0  0
  -30.7989  -17.2169   19.8284 H   0  0  0  0  0  0
  -29.2345  -24.8425   20.9346 H   0  0  0  0  0  0
  -27.6257  -25.0236   21.4924 H   0  0  0  0  0  0
  -26.3508  -20.5014   22.7474 H   0  0  0  0  0  0
  -25.4884  -18.4483   22.4678 H   0  0  0  0  0  0
  1 25  1  0  0  0
  1 30  2  0  0  0
  1 87  1  0  0  0
  2  3  1  0  0  0
  2 25  1  0  0  0
  2 89  1  0  0  0
  2 90  1  0  0  0
  3  4  1  0  0  0
  3 91  1  0  0  0
  3 92  1  0  0  0
  4  5  1  0  0  0
  4 93  1  0  0  0
  4 94  1  0  0  0
  5  6  1  0  0  0
  5 26  1  0  0  0
  5 95  1  0  0  0
  6 25  1  0  0  0
  6 96  1  0  0  0
  6 97  1  0  0  0
  7  8  2  0  0  0
  7 26  1  0  0  0
  7 29  1  0  0  0
  8  9  1  0  0  0
  8 22  1  0  0  0
  9 10  1  0  0  0
  9 27  2  0  0  0
 10 11  2  0  0  0
 10 15  1  0  0  0
 11 12  1  0  0  0
 11 98  1  0  0  0
 12 13  2  0  0  0
 12 99  1  0  0  0
 13 14  1  0  0  0
 13 31  1  0  0  0
 14 15  2  0  0  0
 14100  1  0  0  0
 15101  1  0  0  0
 16 17  2  0  0  0
 16 21  1  0  0  0
 16 31  1  0  0  0
 17 18  1  0  0  0
 17102  1  0  0  0
 18 19  2  0  0  0
 18103  1  0  0  0
 19 20  1  0  0  0
 19 24  1  0  0  0
 20 21  2  0  0  0
 20104  1  0  0  0
 21 23  1  0  0  0
 22 28  1  0  0  0
 22 32  2  0  0  0
 26 27  1  0  0  0
 28105  1  0  0  0
 28106  1  0  0  0
 29107  1  0  0  0
 29108  1  0  0  0
 33 34  1  0  0  0
 33 66  1  0  0  0
 33 70  2  0  0  0
 34 36  1  0  0  0
 34 59  1  0  0  0
 34109  1  0  0  0
 35 44  2  0  0  0
 35 45  1  0  0  0
 35 68  1  0  0  0
 36 56  1  0  0  0
 36110  1  0  0  0
 37 39  1  0  0  0
 37 47  1  0  0  0
 37 66  1  0  0  0
 37111  1  0  0  0
 38 43  2  0  0  0
 38 46  1  0  0  0
 38 47  1  0  0  0
 39 64  1  0  0  0
 39 67  2  0  0  0
 40 52  1  0  0  0
 40 53  2  0  0  0
 40 58  1  0  0  0
 41112  1  0  0  0
 41113  1  0  0  0
 41114  1  0  0  0
 41 48  1  0  0  0
 42 43  1  0  0  0
 42 66  1  0  0  0
 42115  1  0  0  0
 42116  1  0  0  0
 43 44  1  0  0  0
 44117  1  0  0  0
 45 46  2  0  0  0
 45118  1  0  0  0
 46119  1  0  0  0
 47120  1  0  0  0
 47121  1  0  0  0
 48 56  1  0  0  0
 48 65  1  0  0  0
 48122  1  0  0  0
 49 50  1  0  0  0
 49 53  1  0  0  0
 49 64  1  0  0  0
 49123  1  0  0  0
 50 51  1  0  0  0
 50124  1  0  0  0
 50125  1  0  0  0
 51 52  1  0  0  0
 51126  1  0  0  0
 51127  1  0  0  0
 52128  1  0  0  0
 52129  1  0  0  0
 53 54  1  0  0  0
 54 55  2  0  0  0
 54130  1  0  0  0
 55 57  1  0  0  0
 55131  1  0  0  0
 56 69  2  0  0  0
 57 58  2  0  0  0
 57132  1  0  0  0
 58133  1  0  0  0
 59 60  1  0  0  0
 59 61  1  0  0  0
 59 62  1  0  0  0
 60134  1  0  0  0
 60135  1  0  0  0
 60136  1  0  0  0
 61137  1  0  0  0
 61138  1  0  0  0
 61139  1  0  0  0
 62140  1  0  0  0
 62141  1  0  0  0
 62142  1  0  0  0
 63 65  1  0  0  0
 63143  1  0  0  0
 63144  1  0  0  0
 63145  1  0  0  0
 64146  1  0  0  0
 65147  1  0  0  0
 68 82  1  0  0  0
 71 72  2  0  0  0
 71 85  1  0  0  0
 71148  1  0  0  0
 72 84  1  0  0  0
 72 86  1  0  0  0
 73 74  1  0  0  0
 73 79  1  0  0  0
 73 85  2  0  0  0
 74 83  1  0  0  0
 74 86  2  0  0  0
 75 80  1  0  0  0
 75149  1  0  0  0
 75150  1  0  0  0
 75151  1  0  0  0
 76152  1  0  0  0
 76153  1  0  0  0
 76154  1  0  0  0
 76 83  1  0  0  0
 77155  1  0  0  0
 77156  1  0  0  0
 77157  1  0  0  0
 77 84  1  0  0  0
 78 87  1  0  0  0
 78158  1  0  0  0
 78159  1  0  0  0
 78160  1  0  0  0
 79 81  1  0  0  0
 79161  1  0  0  0
 79162  1  0  0  0
 80 84  1  0  0  0
 80163  1  0  0  0
 80164  1  0  0  0
 81 87  1  0  0  0
 81165  1  0  0  0
 81166  1  0  0  0
 82 84  1  0  0  0
 82167  1  0  0  0
 82168  1  0  0  0
 83 88  1  0  0  0
 83169  1  0  0  0
 88170  1  0  0  0
M  ISO  4   1 100  68 101  82 101  87 100
M  END
> <chiral flag>
0

> <version>
0

> <s_m_source_file>
/data/baiqing/PycharmProjects/Reinvent-master-3.2/result/LINK_invent/BTK/process_docking_weight1_custom_sum_contain_oxygen_bond_distance_aromatic_linkinvent_7_9_3/rearranged_h_0069.sdf

> <i_m_source_file_index>
92

> <r_mmod_Potential_Energy-OPLS-2005>
382.491119384766

> <r_mmod_Stretch_Energy-OPLS-2005>
107.095008850098

> <r_mmod_Bend_Energy-OPLS-2005>
178.522476196289

> <r_mmod_Torsional_Energy-OPLS-2005>
302.076568603516

> <r_mmod_Improper_Torsional_Energy-OPLS-2005>
10.0581951141357

> <r_mmod_Van_der_Waal_Energy-OPLS-2005>
164.817825317383

> <r_mmod_Electrostatic_Energy-OPLS-2005>
-212.768310546875

> <r_mmod_Solvation_Energy-OPLS-2005>
-215.250183105469

> <b_mmod_Minimization_Converged-OPLS-2005>
0

> <r_mmod_RMS_Derivative-OPLS-2005>
3.83595323562622

$$$$
93
                    3D
 Structure written by MMmdl.
175183  0  0  1  0            999 V2000
  -30.6954  -14.5139   20.5690 C   0  0  0  0  0  0
  -30.4236  -12.3380   19.4232 C   0  0  0  0  0  0
  -29.4908  -12.4983   18.2048 C   0  0  0  0  0  0
  -28.0152  -12.3502   18.6244 C   0  0  0  0  0  0
  -27.6553  -13.2090   19.8659 C   0  0  2  0  0  0
  -28.6995  -13.0244   20.9895 C   0  0  0  0  0  0
  -25.2558  -13.8156   20.5668 C   0  0  0  0  0  0
  -24.1827  -13.0435   20.9200 C   0  0  0  0  0  0
  -24.6386  -11.6903   20.8755 C   0  0  0  0  0  0
  -23.9061  -10.4289   21.0414 C   0  0  0  0  0  0
  -24.3612   -9.4201   21.9189 C   0  0  0  0  0  0
  -23.6286   -8.2240   22.0756 C   0  0  0  0  0  0
  -22.4273   -8.0279   21.3545 C   0  0  0  0  0  0
  -21.9909   -9.0256   20.4646 C   0  0  0  0  0  0
  -22.7238  -10.2131   20.3059 C   0  0  0  0  0  0
  -21.6847   -6.0734   22.5276 C   0  0  0  0  0  0
  -21.4008   -6.5636   23.8214 C   0  0  0  0  0  0
  -21.3658   -5.6790   24.9174 C   0  0  0  0  0  0
  -21.6043   -4.3053   24.7229 C   0  0  0  0  0  0
  -21.8822   -3.8147   23.4350 C   0  0  0  0  0  0
  -21.9193   -4.6961   22.3402 C   0  0  0  0  0  0
  -22.7850  -13.5231   21.1855 C   0  0  0  0  0  0
  -22.1662   -4.2145   21.0981 F   0  0  0  0  0  0
  -21.5633   -3.4540   25.7744 F   0  0  0  0  0  0
  -30.0223  -13.3385   20.4261 N   0  0  0  0  0  0
  -26.2989  -12.9330   20.3329 N   0  0  0  0  0  0
  -25.9311  -11.6489   20.5777 N   0  0  0  0  0  0
  -22.0488  -12.8224   22.0411 N   0  0  0  0  0  0
  -25.4268  -15.1870   20.4007 N   0  0  0  0  0  0
  -31.8317  -14.6816   20.1200 O   0  0  0  0  0  0
  -21.6634   -6.8879   21.4237 O   0  0  0  0  0  0
  -22.3541  -14.5539   20.6703 O   0  0  0  0  0  0
  -24.6199  -31.8659   23.2099 C   0  0  0  0  0  0
  -25.9081  -32.4812   23.8400 C   0  0  1  0  0  0
  -27.2236  -27.3869   20.0985 C   0  0  0  0  0  0
  -25.5918  -33.8607   24.2329 N   0  0  0  0  0  0
  -23.4086  -30.4919   21.5531 C   0  0  2  0  0  0
  -24.8522  -28.9596   20.1142 C   0  0  0  0  0  0
  -22.7431  -29.4652   22.4985 C   0  0  0  0  0  0
  -18.0273  -28.1362   22.8480 C   0  0  0  0  0  0
  -24.1475  -36.7300   23.2639 C   0  0  0  0  0  0
  -25.9453  -30.8173   21.3721 C   0  0  0  0  0  0
  -26.0197  -29.4518   20.7116 C   0  0  0  0  0  0
  -27.2095  -28.6766   20.6957 C   0  0  0  0  0  0
  -26.0288  -26.9300   19.4903 C   0  0  0  0  0  0
  -24.8548  -27.7000   19.4994 C   0  0  0  0  0  0
  -23.6173  -29.8309   20.1667 C   0  0  0  0  0  0
  -25.4104  -36.3106   24.0340 C   0  0  1  0  0  0
  -20.5867  -28.3659   23.1294 C   0  0  2  0  0  0
  -20.6757  -26.9394   22.5400 C   0  0  0  0  0  0
  -19.5740  -26.6377   21.5188 C   0  0  0  0  0  0
  -18.1917  -26.7907   22.1601 C   0  0  0  0  0  0
  -19.1527  -28.8825   23.2877 C   0  0  0  0  0  0
  -18.9458  -30.1426   23.8895 C   0  0  0  0  0  0
  -17.6469  -30.6580   24.0547 C   0  0  0  0  0  0
  -25.9043  -34.9468   23.5133 C   0  0  0  0  0  0
  -16.5356  -29.9079   23.6324 C   0  0  0  0  0  0
  -16.7267  -28.6488   23.0362 C   0  0  0  0  0  0
  -26.4492  -31.6609   25.0748 C   0  0  0  0  0  0
  -25.3737  -31.3706   26.1475 C   0  0  0  0  0  0
  -27.0353  -30.3051   24.6171 C   0  0  0  0  0  0
  -27.6065  -32.4337   25.7508 C   0  0  0  0  0  0
  -27.5579  -37.1795   24.8465 C   0  0  0  0  0  0
  -21.4156  -29.3030   22.3703 N   0  0  0  0  0  0
  -26.4285  -37.3801   23.9419 N   0  0  0  0  0  0
  -24.6765  -31.0724   22.1026 N   0  0  0  0  0  0
  -23.4181  -28.8181   23.3037 O   0  0  0  0  0  0
  -28.3682  -26.5944   20.1284 O   0  0  0  0  0  0
  -26.5604  -34.8927   22.4694 O   0  0  0  0  0  0
  -23.5383  -32.1443   23.7459 O   0  0  0  0  0  0
  -30.7108  -19.3420   21.0546 C   0  0  0  0  0  0
  -30.1376  -18.0914   21.0005 C   0  0  0  0  0  0
  -28.8676  -19.5565   19.8642 C   0  0  0  0  0  0
  -27.7276  -20.0510   19.0308 C   0  0  0  0  0  0
  -31.7239  -20.6844   18.1073 C   0  0  0  0  0  0
  -28.8727  -16.8964   23.5845 C   0  0  0  0  0  0
  -31.0936  -15.7338   23.9389 C   0  0  0  0  0  0
  -31.4080  -22.1563   21.0228 C   0  0  0  0  0  0
  -30.8202  -21.8292   18.6043 C   0  0  0  0  0  0
  -29.3988  -24.2550   20.2603 C   0  0  0  0  0  0
  -29.0772  -22.7135   20.2434 C   0  0  0  0  0  0
  -28.1670  -25.1612   19.9874 C   0  0  0  0  0  0
  -30.5856  -16.7871   21.6546 C   0  0  1  0  0  0
  -30.3618  -16.8617   23.1881 C   0  0  0  0  0  0
  -30.2781  -21.7031   20.0595 C   0  0  2  0  0  0
  -29.9276  -20.2450   20.3520 N   0  0  0  0  0  0
  -29.0036  -18.2740   20.2539 N   0  3  0  0  0  0
  -30.0081  -15.5267   21.1413 N   0  0  0  0  0  0
  -31.4657  -12.4475   19.1166 H   0  0  0  0  0  0
  -30.3404  -11.3347   19.8423 H   0  0  0  0  0  0
  -29.7354  -11.7561   17.4433 H   0  0  0  0  0  0
  -29.6462  -13.4745   17.7426 H   0  0  0  0  0  0
  -27.8401  -11.2963   18.8430 H   0  0  0  0  0  0
  -27.3582  -12.5993   17.7898 H   0  0  0  0  0  0
  -27.6893  -14.2503   19.5440 H   0  0  0  0  0  0
  -28.6914  -11.9962   21.3542 H   0  0  0  0  0  0
  -28.4543  -13.6428   21.8537 H   0  0  0  0  0  0
  -25.2757   -9.5672   22.4765 H   0  0  0  0  0  0
  -23.9996   -7.4629   22.7477 H   0  0  0  0  0  0
  -21.0845   -8.8776   19.8950 H   0  0  0  0  0  0
  -22.3704  -10.9672   19.6169 H   0  0  0  0  0  0
  -21.1996   -7.6143   23.9712 H   0  0  0  0  0  0
  -21.1473   -6.0522   25.9079 H   0  0  0  0  0  0
  -22.0602   -2.7606   23.2856 H   0  0  0  0  0  0
  -22.4101  -11.9881   22.4790 H   0  0  0  0  0  0
  -21.1110  -13.1246   22.2625 H   0  0  0  0  0  0
  -24.6469  -15.8316   20.4760 H   0  0  0  0  0  0
  -26.2517  -15.6064   19.9950 H   0  0  0  0  0  0
  -26.7151  -32.5514   23.1162 H   0  0  0  0  0  0
  -25.0046  -33.9750   25.0455 H   0  0  0  0  0  0
  -22.6996  -31.3110   21.4161 H   0  0  0  0  0  0
  -23.3753  -35.9610   23.3297 H   0  0  0  0  0  0
  -24.3565  -36.8931   22.2053 H   0  0  0  0  0  0
  -23.7203  -37.6488   23.6670 H   0  0  0  0  0  0
  -26.0712  -31.5866   20.6086 H   0  0  0  0  0  0
  -26.8274  -30.8631   21.9992 H   0  0  0  0  0  0
  -28.1080  -29.0512   21.1652 H   0  0  0  0  0  0
  -25.9668  -25.9691   19.0029 H   0  0  0  0  0  0
  -23.9580  -27.3130   19.0348 H   0  0  0  0  0  0
  -23.7272  -30.6093   19.4109 H   0  0  0  0  0  0
  -22.7388  -29.2551   19.8686 H   0  0  0  0  0  0
  -25.1270  -36.1969   25.0832 H   0  0  0  0  0  0
  -20.9944  -28.3232   24.1420 H   0  0  0  0  0  0
  -20.5635  -26.2272   23.3588 H   0  0  0  0  0  0
  -21.6633  -26.7415   22.1216 H   0  0  0  0  0  0
  -19.6899  -25.6285   21.1224 H   0  0  0  0  0  0
  -19.6683  -27.3174   20.6708 H   0  0  0  0  0  0
  -17.4180  -26.6640   21.4013 H   0  0  0  0  0  0
  -18.0332  -26.0039   22.8993 H   0  0  0  0  0  0
  -19.7941  -30.7214   24.2291 H   0  0  0  0  0  0
  -17.5038  -31.6270   24.5130 H   0  0  0  0  0  0
  -15.5360  -30.2990   23.7652 H   0  0  0  0  0  0
  -15.8655  -28.0807   22.7110 H   0  0  0  0  0  0
  -24.5926  -30.7046   25.7794 H   0  0  0  0  0  0
  -24.8898  -32.2848   26.4920 H   0  0  0  0  0  0
  -25.8062  -30.8871   27.0243 H   0  0  0  0  0  0
  -26.2925  -29.6774   24.1231 H   0  0  0  0  0  0
  -27.4128  -29.7329   25.4658 H   0  0  0  0  0  0
  -27.8756  -30.4380   23.9350 H   0  0  0  0  0  0
  -27.2714  -33.3657   26.2075 H   0  0  0  0  0  0
  -28.3874  -32.6865   25.0324 H   0  0  0  0  0  0
  -28.0737  -31.8467   26.5428 H   0  0  0  0  0  0
  -28.2591  -38.0104   24.7562 H   0  0  0  0  0  0
  -28.1090  -36.2641   24.6246 H   0  0  0  0  0  0
  -27.2299  -37.1394   25.8868 H   0  0  0  0  0  0
  -20.9318  -29.8785   21.6946 H   0  0  0  0  0  0
  -26.0177  -38.2871   24.1457 H   0  0  0  0  0  0
  -31.6287  -19.6241   21.5478 H   0  0  0  0  0  0
  -28.1126  -20.6360   18.1977 H   0  0  0  0  0  0
  -27.0715  -20.6530   19.6594 H   0  0  0  0  0  0
  -27.1707  -19.1998   18.6416 H   0  0  0  0  0  0
  -32.1345  -20.9229   17.1259 H   0  0  0  0  0  0
  -31.1746  -19.7480   18.0014 H   0  0  0  0  0  0
  -32.5655  -20.5085   18.7783 H   0  0  0  0  0  0
  -28.7624  -17.0374   24.6601 H   0  0  0  0  0  0
  -28.3566  -15.9723   23.3234 H   0  0  0  0  0  0
  -28.3471  -17.7206   23.1015 H   0  0  0  0  0  0
  -31.0291  -15.8779   25.0182 H   0  0  0  0  0  0
  -32.1527  -15.7061   23.6790 H   0  0  0  0  0  0
  -30.6709  -14.7538   23.7149 H   0  0  0  0  0  0
  -31.7155  -23.1864   20.8475 H   0  0  0  0  0  0
  -32.3181  -21.5706   20.9029 H   0  0  0  0  0  0
  -31.0919  -22.0869   22.0642 H   0  0  0  0  0  0
  -29.9880  -21.9134   17.9049 H   0  0  0  0  0  0
  -31.3667  -22.7670   18.4985 H   0  0  0  0  0  0
  -30.1561  -24.4916   19.5135 H   0  0  0  0  0  0
  -29.8260  -24.5218   21.2272 H   0  0  0  0  0  0
  -28.3597  -22.5635   19.4397 H   0  0  0  0  0  0
  -28.5381  -22.4644   21.1584 H   0  0  0  0  0  0
  -27.3646  -24.8449   20.6566 H   0  0  0  0  0  0
  -27.8394  -24.9480   18.9696 H   0  0  0  0  0  0
  -31.6659  -16.7545   21.5009 H   0  0  0  0  0  0
  -30.8090  -17.7945   23.5355 H   0  0  0  0  0  0
  -28.3509  -17.5377   20.0160 H   0  0  0  0  0  0
  -29.0720  -15.3071   21.4403 H   0  0  0  0  0  0
  1 25  1  0  0  0
  1 30  2  0  0  0
  1 88  1  0  0  0
  2  3  1  0  0  0
  2 25  1  0  0  0
  2 89  1  0  0  0
  2 90  1  0  0  0
  3  4  1  0  0  0
  3 91  1  0  0  0
  3 92  1  0  0  0
  4  5  1  0  0  0
  4 93  1  0  0  0
  4 94  1  0  0  0
  5  6  1  0  0  0
  5 26  1  0  0  0
  5 95  1  0  0  0
  6 25  1  0  0  0
  6 96  1  0  0  0
  6 97  1  0  0  0
  7  8  2  0  0  0
  7 26  1  0  0  0
  7 29  1  0  0  0
  8  9  1  0  0  0
  8 22  1  0  0  0
  9 10  1  0  0  0
  9 27  2  0  0  0
 10 11  2  0  0  0
 10 15  1  0  0  0
 11 12  1  0  0  0
 11 98  1  0  0  0
 12 13  2  0  0  0
 12 99  1  0  0  0
 13 14  1  0  0  0
 13 31  1  0  0  0
 14 15  2  0  0  0
 14100  1  0  0  0
 15101  1  0  0  0
 16 17  2  0  0  0
 16 21  1  0  0  0
 16 31  1  0  0  0
 17 18  1  0  0  0
 17102  1  0  0  0
 18 19  2  0  0  0
 18103  1  0  0  0
 19 20  1  0  0  0
 19 24  1  0  0  0
 20 21  2  0  0  0
 20104  1  0  0  0
 21 23  1  0  0  0
 22 28  1  0  0  0
 22 32  2  0  0  0
 26 27  1  0  0  0
 28105  1  0  0  0
 28106  1  0  0  0
 29107  1  0  0  0
 29108  1  0  0  0
 33 34  1  0  0  0
 33 66  1  0  0  0
 33 70  2  0  0  0
 34 36  1  0  0  0
 34 59  1  0  0  0
 34109  1  0  0  0
 35 44  2  0  0  0
 35 45  1  0  0  0
 35 68  1  0  0  0
 36 56  1  0  0  0
 36110  1  0  0  0
 37 39  1  0  0  0
 37 47  1  0  0  0
 37 66  1  0  0  0
 37111  1  0  0  0
 38 43  2  0  0  0
 38 46  1  0  0  0
 38 47  1  0  0  0
 39 64  1  0  0  0
 39 67  2  0  0  0
 40 52  1  0  0  0
 40 53  2  0  0  0
 40 58  1  0  0  0
 41112  1  0  0  0
 41113  1  0  0  0
 41114  1  0  0  0
 41 48  1  0  0  0
 42 43  1  0  0  0
 42 66  1  0  0  0
 42115  1  0  0  0
 42116  1  0  0  0
 43 44  1  0  0  0
 44117  1  0  0  0
 45 46  2  0  0  0
 45118  1  0  0  0
 46119  1  0  0  0
 47120  1  0  0  0
 47121  1  0  0  0
 48 56  1  0  0  0
 48 65  1  0  0  0
 48122  1  0  0  0
 49 50  1  0  0  0
 49 53  1  0  0  0
 49 64  1  0  0  0
 49123  1  0  0  0
 50 51  1  0  0  0
 50124  1  0  0  0
 50125  1  0  0  0
 51 52  1  0  0  0
 51126  1  0  0  0
 51127  1  0  0  0
 52128  1  0  0  0
 52129  1  0  0  0
 53 54  1  0  0  0
 54 55  2  0  0  0
 54130  1  0  0  0
 55 57  1  0  0  0
 55131  1  0  0  0
 56 69  2  0  0  0
 57 58  2  0  0  0
 57132  1  0  0  0
 58133  1  0  0  0
 59 60  1  0  0  0
 59 61  1  0  0  0
 59 62  1  0  0  0
 60134  1  0  0  0
 60135  1  0  0  0
 60136  1  0  0  0
 61137  1  0  0  0
 61138  1  0  0  0
 61139  1  0  0  0
 62140  1  0  0  0
 62141  1  0  0  0
 62142  1  0  0  0
 63 65  1  0  0  0
 63143  1  0  0  0
 63144  1  0  0  0
 63145  1  0  0  0
 64146  1  0  0  0
 65147  1  0  0  0
 68 82  1  0  0  0
 71 72  2  0  0  0
 71 86  1  0  0  0
 71148  1  0  0  0
 72 83  1  0  0  0
 72 87  1  0  0  0
 73 74  1  0  0  0
 73 86  1  0  0  0
 73 87  2  0  0  0
 74149  1  0  0  0
 74150  1  0  0  0
 74151  1  0  0  0
 75 79  1  0  0  0
 75152  1  0  0  0
 75153  1  0  0  0
 75154  1  0  0  0
 76155  1  0  0  0
 76156  1  0  0  0
 76157  1  0  0  0
 76 84  1  0  0  0
 77 84  1  0  0  0
 77158  1  0  0  0
 77159  1  0  0  0
 77160  1  0  0  0
 78161  1  0  0  0
 78162  1  0  0  0
 78163  1  0  0  0
 78 85  1  0  0  0
 79 85  1  0  0  0
 79164  1  0  0  0
 79165  1  0  0  0
 80 81  1  0  0  0
 80 82  1  0  0  0
 80166  1  0  0  0
 80167  1  0  0  0
 81 85  1  0  0  0
 81168  1  0  0  0
 81169  1  0  0  0
 82170  1  0  0  0
 82171  1  0  0  0
 83 84  1  0  0  0
 83 88  1  0  0  0
 83172  1  0  0  0
 84173  1  0  0  0
 85 86  1  0  0  0
 87174  1  0  0  0
 88175  1  0  0  0
M  CHG  1  87   1
M  ISO  4   1 100  68 101  82 101  88 100
M  END
> <chiral flag>
0

> <version>
0

> <s_m_source_file>
/data/baiqing/PycharmProjects/Reinvent-master-3.2/result/LINK_invent/BTK/process_docking_weight1_custom_sum_contain_oxygen_bond_distance_aromatic_linkinvent_7_9_3/rearranged_h_0069.sdf

> <i_m_source_file_index>
93

> <r_mmod_Potential_Energy-OPLS-2005>
-120.250297546387

> <r_mmod_Stretch_Energy-OPLS-2005>
54.8476715087891

> <r_mmod_Bend_Energy-OPLS-2005>
120.552101135254

> <r_mmod_Torsional_Energy-OPLS-2005>
259.039337158203

> <r_mmod_Improper_Torsional_Energy-OPLS-2005>
4.01605224609375

> <r_mmod_Van_der_Waal_Energy-OPLS-2005>
138.07536315918

> <r_mmod_Electrostatic_Energy-OPLS-2005>
-316.584686279297

> <r_mmod_Solvation_Energy-OPLS-2005>
-401.531585693359

> <b_mmod_Minimization_Converged-OPLS-2005>
0

> <r_mmod_RMS_Derivative-OPLS-2005>
1.47995030879974

$$$$
94
                    3D
 Structure written by MMmdl.
179187  0  0  1  0            999 V2000
  -30.6977  -14.4666   20.5277 C   0  0  0  0  0  0
  -30.4252  -12.2891   19.4283 C   0  0  0  0  0  0
  -29.4988  -12.4729   18.2071 C   0  0  0  0  0  0
  -28.0164  -12.3547   18.6185 C   0  0  0  0  0  0
  -27.6590  -13.2053   19.8683 C   0  0  2  0  0  0
  -28.7023  -13.0046   20.9904 C   0  0  0  0  0  0
  -25.2580  -13.8164   20.5663 C   0  0  0  0  0  0
  -24.1824  -13.0441   20.9124 C   0  0  0  0  0  0
  -24.6382  -11.6908   20.8709 C   0  0  0  0  0  0
  -23.9048  -10.4291   21.0395 C   0  0  0  0  0  0
  -24.3602   -9.4213   21.9181 C   0  0  0  0  0  0
  -23.6279   -8.2244   22.0763 C   0  0  0  0  0  0
  -22.4266   -8.0270   21.3546 C   0  0  0  0  0  0
  -21.9888   -9.0246   20.4654 C   0  0  0  0  0  0
  -22.7210  -10.2132   20.3052 C   0  0  0  0  0  0
  -21.6855   -6.0711   22.5275 C   0  0  0  0  0  0
  -21.4019   -6.5631   23.8209 C   0  0  0  0  0  0
  -21.3661   -5.6790   24.9172 C   0  0  0  0  0  0
  -21.6037   -4.3049   24.7233 C   0  0  0  0  0  0
  -21.8818   -3.8133   23.4359 C   0  0  0  0  0  0
  -21.9194   -4.6935   22.3406 C   0  0  0  0  0  0
  -22.7846  -13.5272   21.1803 C   0  0  0  0  0  0
  -22.1657   -4.2111   21.0984 F   0  0  0  0  0  0
  -21.5627   -3.4548   25.7760 F   0  0  0  0  0  0
  -30.0325  -13.2879   20.4300 N   0  0  0  0  0  0
  -26.3023  -12.9326   20.3356 N   0  0  0  0  0  0
  -25.9318  -11.6492   20.5776 N   0  0  0  0  0  0
  -22.0464  -12.8273   22.0359 N   0  0  0  0  0  0
  -25.4317  -15.1883   20.4154 N   0  0  0  0  0  0
  -31.8741  -14.6089   20.1953 O   0  0  0  0  0  0
  -21.6639   -6.8859   21.4243 O   0  0  0  0  0  0
  -22.3561  -14.5597   20.6673 O   0  0  0  0  0  0
  -24.6128  -31.8708   23.2111 C   0  0  0  0  0  0
  -25.9033  -32.4835   23.8399 C   0  0  1  0  0  0
  -27.2398  -27.4611   20.0952 C   0  0  0  0  0  0
  -25.5902  -33.8630   24.2352 N   0  0  0  0  0  0
  -23.3999  -30.4927   21.5497 C   0  0  2  0  0  0
  -24.8504  -28.9580   20.1186 C   0  0  0  0  0  0
  -22.7396  -29.4686   22.5002 C   0  0  0  0  0  0
  -18.0299  -28.1362   22.8471 C   0  0  0  0  0  0
  -24.1490  -36.7323   23.2628 C   0  0  0  0  0  0
  -25.9263  -30.8414   21.3631 C   0  0  0  0  0  0
  -26.0056  -29.4738   20.7187 C   0  0  0  0  0  0
  -27.2043  -28.7294   20.7110 C   0  0  0  0  0  0
  -26.0760  -26.9561   19.4796 C   0  0  0  0  0  0
  -24.8774  -27.6960   19.4975 C   0  0  0  0  0  0
  -23.6096  -29.8216   20.1651 C   0  0  0  0  0  0
  -25.4109  -36.3125   24.0337 C   0  0  1  0  0  0
  -20.5879  -28.3718   23.1347 C   0  0  2  0  0  0
  -20.6839  -26.9453   22.5444 C   0  0  0  0  0  0
  -19.5836  -26.6432   21.5210 C   0  0  0  0  0  0
  -18.2002  -26.7908   22.1623 C   0  0  0  0  0  0
  -19.1515  -28.8858   23.2896 C   0  0  0  0  0  0
  -18.9412  -30.1475   23.8886 C   0  0  0  0  0  0
  -17.6396  -30.6575   24.0517 C   0  0  0  0  0  0
  -25.9030  -34.9485   23.5142 C   0  0  0  0  0  0
  -16.5314  -29.9029   23.6287 C   0  0  0  0  0  0
  -16.7275  -28.6445   23.0323 C   0  0  0  0  0  0
  -26.4472  -31.6607   25.0722 C   0  0  0  0  0  0
  -25.3752  -31.3696   26.1479 C   0  0  0  0  0  0
  -27.0286  -30.3058   24.6064 C   0  0  0  0  0  0
  -27.6074  -32.4294   25.7474 C   0  0  0  0  0  0
  -27.5585  -37.1820   24.8461 C   0  0  0  0  0  0
  -21.4138  -29.3070   22.3739 N   0  0  0  0  0  0
  -26.4304  -37.3812   23.9401 N   0  0  0  0  0  0
  -24.6640  -31.0828   22.0995 N   0  0  0  0  0  0
  -23.4157  -28.8235   23.3050 O   0  0  0  0  0  0
  -28.4003  -26.7280   20.0716 O   0  0  0  0  0  0
  -26.5597  -34.8938   22.4702 O   0  0  0  0  0  0
  -23.5335  -32.1447   23.7530 O   0  0  0  0  0  0
  -28.0889  -19.2865   22.2420 C   0  0  0  0  0  0
  -29.1537  -17.7102   21.3524 C   0  0  0  0  0  0
  -31.5226  -17.0064   18.3148 C   0  0  0  0  0  0
  -29.9916  -18.8774   18.7859 C   0  0  0  0  0  0
  -29.0468  -16.6446   18.2294 C   0  0  0  0  0  0
  -25.2510  -22.4902   23.0160 C   0  0  0  0  0  0
  -25.2634  -23.0042   20.5970 C   0  0  0  0  0  0
  -30.5477  -19.7644   21.9649 C   0  0  0  0  0  0
  -27.6780  -20.6713   22.6643 C   0  0  0  0  0  0
  -26.9986  -21.4252   21.4907 C   0  0  0  0  0  0
  -27.9595  -24.4650   20.9340 C   0  0  0  0  0  0
  -27.0775  -23.9498   22.0975 C   0  0  0  0  0  0
  -28.5644  -25.8619   21.1965 C   0  0  0  0  0  0
  -30.1890  -16.9492   20.5386 C   0  0  2  0  0  0
  -30.1828  -17.3552   19.0004 C   0  0  0  0  0  0
  -26.1816  -22.7133   21.8053 C   0  0  0  0  0  0
  -27.2060  -18.2933   22.1010 N   0  0  0  0  0  0
  -27.8985  -17.2637   21.5135 N   0  0  0  0  0  0
  -29.3446  -18.9489   21.8757 N   0  0  0  0  0  0
  -29.9113  -15.5214   20.7719 N   0  0  0  0  0  0
  -31.4710  -12.3859   19.1298 H   0  0  0  0  0  0
  -30.3233  -11.2854   19.8427 H   0  0  0  0  0  0
  -29.7333  -11.7273   17.4457 H   0  0  0  0  0  0
  -29.6813  -13.4414   17.7424 H   0  0  0  0  0  0
  -27.8165  -11.3013   18.8172 H   0  0  0  0  0  0
  -27.3743  -12.6311   17.7811 H   0  0  0  0  0  0
  -27.6895  -14.2496   19.5573 H   0  0  0  0  0  0
  -28.6731  -11.9779   21.3589 H   0  0  0  0  0  0
  -28.4783  -13.6371   21.8514 H   0  0  0  0  0  0
  -25.2748   -9.5688   22.4761 H   0  0  0  0  0  0
  -23.9974   -7.4649   22.7493 H   0  0  0  0  0  0
  -21.0809   -8.8770   19.8976 H   0  0  0  0  0  0
  -22.3664  -10.9672   19.6159 H   0  0  0  0  0  0
  -21.2021   -7.6144   23.9703 H   0  0  0  0  0  0
  -21.1483   -6.0523   25.9076 H   0  0  0  0  0  0
  -22.0601   -2.7591   23.2878 H   0  0  0  0  0  0
  -22.4065  -11.9926   22.4744 H   0  0  0  0  0  0
  -21.1098  -13.1340   22.2608 H   0  0  0  0  0  0
  -24.6784  -15.8450   20.5847 H   0  0  0  0  0  0
  -26.3227  -15.6522   20.2856 H   0  0  0  0  0  0
  -26.7108  -32.5570   23.1168 H   0  0  0  0  0  0
  -25.0072  -33.9797   25.0510 H   0  0  0  0  0  0
  -22.6856  -31.3071   21.4092 H   0  0  0  0  0  0
  -23.3755  -35.9652   23.3310 H   0  0  0  0  0  0
  -24.3583  -36.8926   22.2036 H   0  0  0  0  0  0
  -23.7249  -37.6536   23.6637 H   0  0  0  0  0  0
  -26.0342  -31.6016   20.5892 H   0  0  0  0  0  0
  -26.8170  -30.9014   21.9770 H   0  0  0  0  0  0
  -28.0988  -29.1201   21.1740 H   0  0  0  0  0  0
  -26.0933  -25.9982   18.9809 H   0  0  0  0  0  0
  -23.9917  -27.2966   19.0228 H   0  0  0  0  0  0
  -23.7159  -30.5964   19.4038 H   0  0  0  0  0  0
  -22.7377  -29.2355   19.8689 H   0  0  0  0  0  0
  -25.1283  -36.1993   25.0835 H   0  0  0  0  0  0
  -20.9950  -28.3329   24.1478 H   0  0  0  0  0  0
  -21.6738  -26.7510   22.1279 H   0  0  0  0  0  0
  -20.5722  -26.2312   23.3607 H   0  0  0  0  0  0
  -19.7041  -25.6366   21.1199 H   0  0  0  0  0  0
  -19.6772  -27.3270   20.6755 H   0  0  0  0  0  0
  -17.4291  -26.6545   21.4025 H   0  0  0  0  0  0
  -18.0460  -26.0077   22.9059 H   0  0  0  0  0  0
  -19.7870  -30.7323   24.2246 H   0  0  0  0  0  0
  -17.4896  -31.6267   24.5084 H   0  0  0  0  0  0
  -15.5295  -30.2888   23.7603 H   0  0  0  0  0  0
  -15.8679  -28.0737   22.7048 H   0  0  0  0  0  0
  -24.5916  -30.7055   25.7812 H   0  0  0  0  0  0
  -24.8949  -32.2844   26.4964 H   0  0  0  0  0  0
  -25.8108  -30.8833   27.0215 H   0  0  0  0  0  0
  -26.2806  -29.6842   24.1130 H   0  0  0  0  0  0
  -27.4086  -29.7278   25.4498 H   0  0  0  0  0  0
  -27.8637  -30.4396   23.9183 H   0  0  0  0  0  0
  -27.2721  -33.3576   26.2112 H   0  0  0  0  0  0
  -28.3853  -32.6874   25.0274 H   0  0  0  0  0  0
  -28.0780  -31.8367   26.5335 H   0  0  0  0  0  0
  -28.2621  -38.0102   24.7514 H   0  0  0  0  0  0
  -28.1067  -36.2638   24.6282 H   0  0  0  0  0  0
  -27.2304  -37.1468   25.8868 H   0  0  0  0  0  0
  -20.9312  -29.8753   21.6910 H   0  0  0  0  0  0
  -26.0195  -38.2898   24.1399 H   0  0  0  0  0  0
  -31.6160  -17.4849   17.3387 H   0  0  0  0  0  0
  -31.6290  -15.9381   18.1316 H   0  0  0  0  0  0
  -32.3746  -17.3325   18.9143 H   0  0  0  0  0  0
  -30.0164  -19.1423   17.7278 H   0  0  0  0  0  0
  -30.7832  -19.4523   19.2643 H   0  0  0  0  0  0
  -29.0341  -19.2378   19.1617 H   0  0  0  0  0  0
  -28.9952  -16.9757   17.1916 H   0  0  0  0  0  0
  -28.0732  -16.8394   18.6786 H   0  0  0  0  0  0
  -29.1851  -15.5668   18.2009 H   0  0  0  0  0  0
  -24.6683  -21.5737   22.9083 H   0  0  0  0  0  0
  -24.5421  -23.3122   23.1279 H   0  0  0  0  0  0
  -25.8033  -22.4261   23.9543 H   0  0  0  0  0  0
  -24.5058  -22.2273   20.4759 H   0  0  0  0  0  0
  -25.8151  -23.0381   19.6578 H   0  0  0  0  0  0
  -24.7384  -23.9540   20.7083 H   0  0  0  0  0  0
  -30.7367  -20.0242   23.0080 H   0  0  0  0  0  0
  -30.4168  -20.6823   21.3923 H   0  0  0  0  0  0
  -31.4228  -19.2364   21.5881 H   0  0  0  0  0  0
  -28.5312  -21.2303   23.0462 H   0  0  0  0  0  0
  -26.9913  -20.5514   23.5001 H   0  0  0  0  0  0
  -26.3072  -20.7180   21.0296 H   0  0  0  0  0  0
  -27.7395  -21.6251   20.7162 H   0  0  0  0  0  0
  -27.3819  -24.5144   20.0147 H   0  0  0  0  0  0
  -28.7612  -23.7544   20.7302 H   0  0  0  0  0  0
  -26.4206  -24.7672   22.3986 H   0  0  0  0  0  0
  -27.7101  -23.7556   22.9649 H   0  0  0  0  0  0
  -29.6324  -25.7610   21.3886 H   0  0  0  0  0  0
  -28.1468  -26.3152   22.0978 H   0  0  0  0  0  0
  -31.1671  -17.1561   20.9711 H   0  0  0  0  0  0
  -28.9621  -15.3280   21.0517 H   0  0  0  0  0  0
  1 25  1  0  0  0
  1 30  2  0  0  0
  1 90  1  0  0  0
  2  3  1  0  0  0
  2 25  1  0  0  0
  2 91  1  0  0  0
  2 92  1  0  0  0
  3  4  1  0  0  0
  3 93  1  0  0  0
  3 94  1  0  0  0
  4  5  1  0  0  0
  4 95  1  0  0  0
  4 96  1  0  0  0
  5  6  1  0  0  0
  5 26  1  0  0  0
  5 97  1  0  0  0
  6 25  1  0  0  0
  6 98  1  0  0  0
  6 99  1  0  0  0
  7  8  2  0  0  0
  7 26  1  0  0  0
  7 29  1  0  0  0
  8  9  1  0  0  0
  8 22  1  0  0  0
  9 10  1  0  0  0
  9 27  2  0  0  0
 10 11  2  0  0  0
 10 15  1  0  0  0
 11 12  1  0  0  0
 11100  1  0  0  0
 12 13  2  0  0  0
 12101  1  0  0  0
 13 14  1  0  0  0
 13 31  1  0  0  0
 14 15  2  0  0  0
 14102  1  0  0  0
 15103  1  0  0  0
 16 17  2  0  0  0
 16 21  1  0  0  0
 16 31  1  0  0  0
 17 18  1  0  0  0
 17104  1  0  0  0
 18 19  2  0  0  0
 18105  1  0  0  0
 19 20  1  0  0  0
 19 24  1  0  0  0
 20 21  2  0  0  0
 20106  1  0  0  0
 21 23  1  0  0  0
 22 28  1  0  0  0
 22 32  2  0  0  0
 26 27  1  0  0  0
 28107  1  0  0  0
 28108  1  0  0  0
 29109  1  0  0  0
 29110  1  0  0  0
 33 34  1  0  0  0
 33 66  1  0  0  0
 33 70  2  0  0  0
 34 36  1  0  0  0
 34 59  1  0  0  0
 34111  1  0  0  0
 35 44  2  0  0  0
 35 45  1  0  0  0
 35 68  1  0  0  0
 36 56  1  0  0  0
 36112  1  0  0  0
 37 39  1  0  0  0
 37 47  1  0  0  0
 37 66  1  0  0  0
 37113  1  0  0  0
 38 43  2  0  0  0
 38 46  1  0  0  0
 38 47  1  0  0  0
 39 64  1  0  0  0
 39 67  2  0  0  0
 40 52  1  0  0  0
 40 53  2  0  0  0
 40 58  1  0  0  0
 41114  1  0  0  0
 41115  1  0  0  0
 41116  1  0  0  0
 41 48  1  0  0  0
 42 43  1  0  0  0
 42 66  1  0  0  0
 42117  1  0  0  0
 42118  1  0  0  0
 43 44  1  0  0  0
 44119  1  0  0  0
 45 46  2  0  0  0
 45120  1  0  0  0
 46121  1  0  0  0
 47122  1  0  0  0
 47123  1  0  0  0
 48 56  1  0  0  0
 48 65  1  0  0  0
 48124  1  0  0  0
 49 50  1  0  0  0
 49 53  1  0  0  0
 49 64  1  0  0  0
 49125  1  0  0  0
 50 51  1  0  0  0
 50126  1  0  0  0
 50127  1  0  0  0
 51 52  1  0  0  0
 51128  1  0  0  0
 51129  1  0  0  0
 52130  1  0  0  0
 52131  1  0  0  0
 53 54  1  0  0  0
 54 55  2  0  0  0
 54132  1  0  0  0
 55 57  1  0  0  0
 55133  1  0  0  0
 56 69  2  0  0  0
 57 58  2  0  0  0
 57134  1  0  0  0
 58135  1  0  0  0
 59 60  1  0  0  0
 59 61  1  0  0  0
 59 62  1  0  0  0
 60136  1  0  0  0
 60137  1  0  0  0
 60138  1  0  0  0
 61139  1  0  0  0
 61140  1  0  0  0
 61141  1  0  0  0
 62142  1  0  0  0
 62143  1  0  0  0
 62144  1  0  0  0
 63 65  1  0  0  0
 63145  1  0  0  0
 63146  1  0  0  0
 63147  1  0  0  0
 64148  1  0  0  0
 65149  1  0  0  0
 68 83  1  0  0  0
 71 79  1  0  0  0
 71 87  2  0  0  0
 71 89  1  0  0  0
 72 84  1  0  0  0
 72 88  2  0  0  0
 72 89  1  0  0  0
 73150  1  0  0  0
 73151  1  0  0  0
 73152  1  0  0  0
 73 85  1  0  0  0
 74 85  1  0  0  0
 74153  1  0  0  0
 74154  1  0  0  0
 74155  1  0  0  0
 75 85  1  0  0  0
 75156  1  0  0  0
 75157  1  0  0  0
 75158  1  0  0  0
 76159  1  0  0  0
 76160  1  0  0  0
 76161  1  0  0  0
 76 86  1  0  0  0
 77 86  1  0  0  0
 77162  1  0  0  0
 77163  1  0  0  0
 77164  1  0  0  0
 78 89  1  0  0  0
 78165  1  0  0  0
 78166  1  0  0  0
 78167  1  0  0  0
 79 80  1  0  0  0
 79168  1  0  0  0
 79169  1  0  0  0
 80 86  1  0  0  0
 80170  1  0  0  0
 80171  1  0  0  0
 81 82  1  0  0  0
 81 83  1  0  0  0
 81172  1  0  0  0
 81173  1  0  0  0
 82 86  1  0  0  0
 82174  1  0  0  0
 82175  1  0  0  0
 83176  1  0  0  0
 83177  1  0  0  0
 84 85  1  0  0  0
 84 90  1  0  0  0
 84178  1  0  0  0
 87 88  1  0  0  0
 90179  1  0  0  0
M  ISO  4   1 100  68 101  83 101  90 100
M  END
> <chiral flag>
0

> <version>
0

> <s_m_source_file>
/data/baiqing/PycharmProjects/Reinvent-master-3.2/result/LINK_invent/BTK/process_docking_weight1_custom_sum_contain_oxygen_bond_distance_aromatic_linkinvent_7_9_3/rearranged_h_0069.sdf

> <i_m_source_file_index>
94

> <r_mmod_Potential_Energy-OPLS-2005>
-114.593925476074

> <r_mmod_Stretch_Energy-OPLS-2005>
41.2474708557129

> <r_mmod_Bend_Energy-OPLS-2005>
122.323448181152

> <r_mmod_Torsional_Energy-OPLS-2005>
268.172882080078

> <r_mmod_Improper_Torsional_Energy-OPLS-2005>
6.72089576721191

> <r_mmod_Van_der_Waal_Energy-OPLS-2005>
125.82502746582

> <r_mmod_Electrostatic_Energy-OPLS-2005>
-497.639373779297

> <r_mmod_Solvation_Energy-OPLS-2005>
-196.371719360352

> <b_mmod_Minimization_Converged-OPLS-2005>
0

> <r_mmod_RMS_Derivative-OPLS-2005>
2.66720151901245

$$$$
95
                    3D
 Structure written by MMmdl.
179187  0  0  1  0            999 V2000
  -31.2046  -13.9976   20.9926 C   0  0  0  0  0  0
  -30.5787  -12.1298   19.1771 C   0  0  0  0  0  0
  -30.1622  -12.7317   17.3891 C   0  0  0  0  0  0
  -28.8605  -14.1761   17.0223 C   0  0  0  0  0  0
  -27.7890  -14.3826   20.3341 C   0  0  2  0  0  0
  -28.8362  -13.1996   21.1930 C   0  0  0  0  0  0
  -25.1623  -14.6252   21.7010 C   0  0  0  0  0  0
  -23.7885  -13.5673   21.3841 C   0  0  0  0  0  0
  -24.2789  -12.1570   20.4253 C   0  0  0  0  0  0
  -23.7756  -10.7103   20.7480 C   0  0  0  0  0  0
  -24.3172   -9.7470   21.6892 C   0  0  0  0  0  0
  -23.6828   -8.4835   21.9694 C   0  0  0  0  0  0
  -22.4681   -8.1380   21.3212 C   0  0  0  0  0  0
  -21.9504   -9.0689   20.4054 C   0  0  0  0  0  0
  -22.5786  -10.3041   20.1359 C   0  0  0  0  0  0
  -21.7575   -6.1234   22.5280 C   0  0  0  0  0  0
  -21.4577   -6.6019   23.8225 C   0  0  0  0  0  0
  -21.3844   -5.7045   24.9111 C   0  0  0  0  0  0
  -21.6027   -4.3276   24.7105 C   0  0  0  0  0  0
  -21.8768   -3.8432   23.4206 C   0  0  0  0  0  0
  -21.9431   -4.7351   22.3341 C   0  0  0  0  0  0
  -22.3809  -13.7975   21.4710 C   0  0  0  0  0  0
  -22.1739   -4.2477   21.0907 F   0  0  0  0  0  0
  -21.5480   -3.4688   25.7570 F   0  0  0  0  0  0
  -30.3328  -12.9047   20.6931 N   0  0  0  0  0  0
  -26.5932  -13.8249   20.7755 N   0  0  0  0  0  0
  -25.8930  -12.3069   20.0149 N   0  0  0  0  0  0
  -21.7254  -12.8656   22.1328 N   0  0  0  0  0  0
  -25.2839  -15.9710   21.7743 N   0  0  0  0  0  0
  -32.2673  -14.0587   20.3794 O   0  0  0  0  0  0
  -21.7674   -6.9437   21.4212 O   0  0  0  0  0  0
  -21.8868  -14.7274   20.8554 O   0  0  0  0  0  0
  -24.7272  -31.7505   23.1238 C   0  0  0  0  0  0
  -25.9687  -32.4206   23.7873 C   0  0  1  0  0  0
  -26.7062  -26.1536   20.1022 C   0  0  0  0  0  0
  -25.6088  -33.8068   24.1690 N   0  0  0  0  0  0
  -23.5304  -30.3828   21.5060 C   0  0  2  0  0  0
  -24.8703  -28.6587   20.0659 C   0  0  0  0  0  0
  -22.7811  -29.4131   22.4627 C   0  0  0  0  0  0
  -18.0299  -28.1427   22.8424 C   0  0  0  0  0  0
  -24.1493  -36.7032   23.2658 C   0  0  0  0  0  0
  -26.1210  -30.2653   21.4577 C   0  0  0  0  0  0
  -26.0691  -28.7992   20.7646 C   0  0  0  0  0  0
  -26.9924  -27.5702   20.7485 C   0  0  0  0  0  0
  -25.5813  -26.3837   19.3036 C   0  0  0  0  0  0
  -24.7055  -27.4988   19.3059 C   0  0  0  0  0  0
  -23.7623  -29.7243   20.1225 C   0  0  0  0  0  0
  -25.4171  -36.2762   24.0243 C   0  0  1  0  0  0
  -20.5949  -28.3775   23.1098 C   0  0  2  0  0  0
  -20.6778  -26.9420   22.5409 C   0  0  0  0  0  0
  -19.5772  -26.6347   21.5209 C   0  0  0  0  0  0
  -18.1941  -26.7947   22.1593 C   0  0  0  0  0  0
  -19.1577  -28.8927   23.2736 C   0  0  0  0  0  0
  -18.9499  -30.1510   23.8786 C   0  0  0  0  0  0
  -17.6497  -30.6619   24.0535 C   0  0  0  0  0  0
  -25.9197  -34.9159   23.4835 C   0  0  0  0  0  0
  -16.5370  -29.9105   23.6375 C   0  0  0  0  0  0
  -16.7279  -28.6526   23.0374 C   0  0  0  0  0  0
  -26.4681  -31.6474   25.0716 C   0  0  0  0  0  0
  -25.3621  -31.3949   26.1256 C   0  0  0  0  0  0
  -27.0699  -30.2771   24.7013 C   0  0  0  0  0  0
  -27.6044  -32.4445   25.7547 C   0  0  0  0  0  0
  -27.5556  -37.1680   24.8462 C   0  0  0  0  0  0
  -21.4430  -29.2977   22.3387 N   0  0  0  0  0  0
  -26.4244  -37.3588   23.9435 N   0  0  0  0  0  0
  -24.8327  -30.8492   22.0768 N   0  0  0  0  0  0
  -23.4148  -28.7693   23.3007 O   0  0  0  0  0  0
  -27.2025  -24.5715   20.0636 O   0  0  0  0  0  0
  -26.5875  -34.8811   22.4492 O   0  0  0  0  0  0
  -23.6248  -32.0874   23.5981 O   0  0  0  0  0  0
  -29.5495  -14.3996   19.0400 C   0  0  0  0  0  0
  -29.3115  -15.8151   19.0036 C   0  0  0  0  0  0
  -26.9127  -13.8174   18.1814 C   0  0  0  0  0  0
  -26.8922  -15.4465   18.2848 C   0  0  0  0  0  0
  -26.6883  -11.6913   16.6466 C   0  0  0  0  0  0
  -23.2466  -17.0371   18.0558 C   0  0  0  0  0  0
  -25.2812  -17.2439   16.5158 C   0  0  0  0  0  0
  -24.8581  -14.4067   19.5314 C   0  0  0  0  0  0
  -32.0479  -16.2499   21.7891 C   0  0  0  0  0  0
  -29.9047  -15.6359   22.6693 C   0  0  0  0  0  0
  -30.1816  -16.4568   20.1199 C   0  0  0  0  0  0
  -26.0839  -13.0301   17.1108 C   0  0  0  0  0  0
  -26.6364  -20.5099   19.6093 C   0  0  0  0  0  0
  -25.7762  -18.4592   19.4717 C   0  0  0  0  0  0
  -26.4679  -22.7321   19.7714 C   0  0  0  0  0  0
  -24.6634  -16.4902   17.7194 C   0  0  0  0  0  0
  -25.6338  -16.2632   18.9449 C   0  0  1  0  0  0
  -30.7351  -15.5127   21.3572 C   0  0  0  0  0  0
  -28.2155  -13.0261   18.7194 N   0  0  0  0  0  0
  -28.0283  -16.2809   18.6077 N   0  0  0  0  0  0
  -31.6260  -11.8224   19.1617 H   0  0  0  0  0  0
  -30.0516  -11.1821   19.2932 H   0  0  0  0  0  0
  -29.8654  -11.8498   16.8211 H   0  0  0  0  0  0
  -31.1042  -13.0319   16.9288 H   0  0  0  0  0  0
  -28.2111  -13.9227   16.1817 H   0  0  0  0  0  0
  -29.3963  -15.0486   16.6331 H   0  0  0  0  0  0
  -27.7972  -15.3566   20.8231 H   0  0  0  0  0  0
  -28.3766  -12.2119   21.1229 H   0  0  0  0  0  0
  -28.8174  -13.3536   22.2684 H   0  0  0  0  0  0
  -25.2335   -9.9990   22.2042 H   0  0  0  0  0  0
  -24.1419   -7.7984   22.6683 H   0  0  0  0  0  0
  -21.0370   -8.8292   19.8788 H   0  0  0  0  0  0
  -22.1081  -10.9752   19.4307 H   0  0  0  0  0  0
  -21.2807   -7.6552   23.9843 H   0  0  0  0  0  0
  -21.1636   -6.0741   25.9019 H   0  0  0  0  0  0
  -22.0304   -2.7871   23.2586 H   0  0  0  0  0  0
  -22.2279  -12.1113   22.5792 H   0  0  0  0  0  0
  -20.7214  -12.9106   22.2254 H   0  0  0  0  0  0
  -24.5260  -16.5904   22.0356 H   0  0  0  0  0  0
  -26.1386  -16.4658   21.5528 H   0  0  0  0  0  0
  -26.7774  -32.4463   23.0547 H   0  0  0  0  0  0
  -25.0141  -33.9054   24.9785 H   0  0  0  0  0  0
  -22.8785  -31.2436   21.3430 H   0  0  0  0  0  0
  -23.3818  -35.9299   23.3221 H   0  0  0  0  0  0
  -24.3515  -36.8830   22.2088 H   0  0  0  0  0  0
  -23.7165  -37.6125   23.6838 H   0  0  0  0  0  0
  -26.4296  -30.9628   20.6779 H   0  0  0  0  0  0
  -26.9456  -30.2598   22.1558 H   0  0  0  0  0  0
  -27.8877  -27.6458   21.3503 H   0  0  0  0  0  0
  -25.2497  -25.5504   18.7003 H   0  0  0  0  0  0
  -23.8116  -27.4153   18.7042 H   0  0  0  0  0  0
  -24.0237  -30.5014   19.4042 H   0  0  0  0  0  0
  -22.8265  -29.2994   19.7579 H   0  0  0  0  0  0
  -25.1396  -36.1474   25.0726 H   0  0  0  0  0  0
  -20.9981  -28.3426   24.1247 H   0  0  0  0  0  0
  -20.5651  -26.2390   23.3677 H   0  0  0  0  0  0
  -21.6641  -26.7377   22.1221 H   0  0  0  0  0  0
  -19.6955  -25.6232   21.1314 H   0  0  0  0  0  0
  -19.6761  -27.3084   20.6687 H   0  0  0  0  0  0
  -17.4224  -26.6634   21.3992 H   0  0  0  0  0  0
  -18.0346  -26.0125   22.9026 H   0  0  0  0  0  0
  -19.7978  -30.7341   24.2116 H   0  0  0  0  0  0
  -17.5056  -31.6298   24.5149 H   0  0  0  0  0  0
  -15.5374  -30.2986   23.7791 H   0  0  0  0  0  0
  -15.8648  -28.0828   22.7174 H   0  0  0  0  0  0
  -24.5804  -30.7314   25.7535 H   0  0  0  0  0  0
  -24.8831  -32.3241   26.4364 H   0  0  0  0  0  0
  -25.7684  -30.9286   27.0248 H   0  0  0  0  0  0
  -26.3458  -29.6147   24.2280 H   0  0  0  0  0  0
  -27.4165  -29.7525   25.5930 H   0  0  0  0  0  0
  -27.9420  -30.3788   24.0555 H   0  0  0  0  0  0
  -27.2528  -33.3859   26.1783 H   0  0  0  0  0  0
  -28.4023  -32.6831   25.0498 H   0  0  0  0  0  0
  -28.0537  -31.8824   26.5748 H   0  0  0  0  0  0
  -28.2511  -38.0037   24.7567 H   0  0  0  0  0  0
  -28.1116  -36.2560   24.6243 H   0  0  0  0  0  0
  -27.2262  -37.1238   25.8854 H   0  0  0  0  0  0
  -20.9757  -29.8664   21.6452 H   0  0  0  0  0  0
  -26.0039  -38.2619   24.1486 H   0  0  0  0  0  0
  -30.6012  -14.3909   18.7788 H   0  0  0  0  0  0
  -26.0275  -11.2074   15.9271 H   0  0  0  0  0  0
  -26.8074  -11.0080   17.4874 H   0  0  0  0  0  0
  -27.6547  -11.8046   16.1659 H   0  0  0  0  0  0
  -22.6732  -17.1914   17.1415 H   0  0  0  0  0  0
  -23.2262  -17.9890   18.5820 H   0  0  0  0  0  0
  -22.6638  -16.3519   18.6678 H   0  0  0  0  0  0
  -24.8114  -16.9181   15.5878 H   0  0  0  0  0  0
  -26.3495  -17.0652   16.3975 H   0  0  0  0  0  0
  -25.1373  -18.3212   16.5738 H   0  0  0  0  0  0
  -25.4328  -12.8326   21.7136 H   0  0  0  0  0  0
  -24.3925  -13.8716   18.7243 H   0  0  0  0  0  0
  -23.9149  -14.9431   19.6296 H   0  0  0  0  0  0
  -31.8621  -17.2762   22.1079 H   0  0  0  0  0  0
  -32.7863  -16.3305   20.9878 H   0  0  0  0  0  0
  -32.5380  -15.7401   22.6210 H   0  0  0  0  0  0
  -30.0271  -16.6131   23.1385 H   0  0  0  0  0  0
  -30.2194  -14.9009   23.4108 H   0  0  0  0  0  0
  -28.8343  -15.5333   22.5597 H   0  0  0  0  0  0
  -29.6576  -17.3231   20.5265 H   0  0  0  0  0  0
  -31.0370  -16.8670   19.5828 H   0  0  0  0  0  0
  -25.9506  -13.6872   16.2500 H   0  0  0  0  0  0
  -25.0836  -12.7302   17.3833 H   0  0  0  0  0  0
  -27.3472  -20.4519   18.7876 H   0  0  0  0  0  0
  -27.2522  -20.3489   20.4946 H   0  0  0  0  0  0
  -25.0877  -18.8214   18.7209 H   0  0  0  0  0  0
  -25.1947  -18.4440   20.3917 H   0  0  0  0  0  0
  -25.6307  -22.8007   20.4662 H   0  0  0  0  0  0
  -25.9933  -22.9288   18.8090 H   0  0  0  0  0  0
  -24.4683  -15.5055   17.2993 H   0  0  0  0  0  0
  1 25  1  0  0  0
  1 30  2  0  0  0
  1 88  1  0  0  0
  2  3  1  0  0  0
  2 25  1  0  0  0
  2 91  1  0  0  0
  2 92  1  0  0  0
  3  4  1  0  0  0
  3 93  1  0  0  0
  3 94  1  0  0  0
  4  5  1  0  0  0
  4 95  1  0  0  0
  4 96  1  0  0  0
  5  6  1  0  0  0
  5 26  1  0  0  0
  5 97  1  0  0  0
  6 25  1  0  0  0
  6 98  1  0  0  0
  6 99  1  0  0  0
  7  8  2  0  0  0
  7 26  1  0  0  0
  7 29  1  0  0  0
  8  9  1  0  0  0
  8 22  1  0  0  0
  9 10  1  0  0  0
  9 27  2  0  0  0
 10 11  2  0  0  0
 10 15  1  0  0  0
 11 12  1  0  0  0
 11100  1  0  0  0
 12 13  2  0  0  0
 12101  1  0  0  0
 13 14  1  0  0  0
 13 31  1  0  0  0
 14 15  2  0  0  0
 14102  1  0  0  0
 15103  1  0  0  0
 16 17  2  0  0  0
 16 21  1  0  0  0
 16 31  1  0  0  0
 17 18  1  0  0  0
 17104  1  0  0  0
 18 19  2  0  0  0
 18105  1  0  0  0
 19 20  1  0  0  0
 19 24  1  0  0  0
 20 21  2  0  0  0
 20106  1  0  0  0
 21 23  1  0  0  0
 22 28  1  0  0  0
 22 32  2  0  0  0
 26 27  1  0  0  0
 28107  1  0  0  0
 28108  1  0  0  0
 29109  1  0  0  0
 29110  1  0  0  0
 33 34  1  0  0  0
 33 66  1  0  0  0
 33 70  2  0  0  0
 34 36  1  0  0  0
 34 59  1  0  0  0
 34111  1  0  0  0
 35 44  2  0  0  0
 35 45  1  0  0  0
 35 68  1  0  0  0
 36 56  1  0  0  0
 36112  1  0  0  0
 37 39  1  0  0  0
 37 47  1  0  0  0
 37 66  1  0  0  0
 37113  1  0  0  0
 38 43  2  0  0  0
 38 46  1  0  0  0
 38 47  1  0  0  0
 39 64  1  0  0  0
 39 67  2  0  0  0
 40 52  1  0  0  0
 40 53  2  0  0  0
 40 58  1  0  0  0
 41114  1  0  0  0
 41115  1  0  0  0
 41116  1  0  0  0
 41 48  1  0  0  0
 42 43  1  0  0  0
 42 66  1  0  0  0
 42117  1  0  0  0
 42118  1  0  0  0
 43 44  1  0  0  0
 44119  1  0  0  0
 45 46  2  0  0  0
 45120  1  0  0  0
 46121  1  0  0  0
 47122  1  0  0  0
 47123  1  0  0  0
 48 56  1  0  0  0
 48 65  1  0  0  0
 48124  1  0  0  0
 49 50  1  0  0  0
 49 53  1  0  0  0
 49 64  1  0  0  0
 49125  1  0  0  0
 50 51  1  0  0  0
 50126  1  0  0  0
 50127  1  0  0  0
 51 52  1  0  0  0
 51128  1  0  0  0
 51129  1  0  0  0
 52130  1  0  0  0
 52131  1  0  0  0
 53 54  1  0  0  0
 54 55  2  0  0  0
 54132  1  0  0  0
 55 57  1  0  0  0
 55133  1  0  0  0
 56 69  2  0  0  0
 57 58  2  0  0  0
 57134  1  0  0  0
 58135  1  0  0  0
 59 60  1  0  0  0
 59 61  1  0  0  0
 59 62  1  0  0  0
 60136  1  0  0  0
 60137  1  0  0  0
 60138  1  0  0  0
 61139  1  0  0  0
 61140  1  0  0  0
 61141  1  0  0  0
 62142  1  0  0  0
 62143  1  0  0  0
 62144  1  0  0  0
 63 65  1  0  0  0
 63145  1  0  0  0
 63146  1  0  0  0
 63147  1  0  0  0
 64148  1  0  0  0
 65149  1  0  0  0
 68 85  1  0  0  0
 71 72  2  0  0  0
 71 89  1  0  0  0
 71150  1  0  0  0
 72 81  1  0  0  0
 72 90  1  0  0  0
 73 74  1  0  0  0
 73 82  1  0  0  0
 73 89  2  0  0  0
 74 87  1  0  0  0
 74 90  2  0  0  0
 75 82  1  0  0  0
 75151  1  0  0  0
 75152  1  0  0  0
 75153  1  0  0  0
 76154  1  0  0  0
 76155  1  0  0  0
 76156  1  0  0  0
 76 86  1  0  0  0
 77 86  1  0  0  0
 77157  1  0  0  0
 77158  1  0  0  0
 77159  1  0  0  0
 78160  1  0  0  0
 78161  1  0  0  0
 78162  1  0  0  0
 78 87  1  0  0  0
 79163  1  0  0  0
 79164  1  0  0  0
 79165  1  0  0  0
 79 88  1  0  0  0
 80 88  1  0  0  0
 80166  1  0  0  0
 80167  1  0  0  0
 80168  1  0  0  0
 81 88  1  0  0  0
 81169  1  0  0  0
 81170  1  0  0  0
 82171  1  0  0  0
 82172  1  0  0  0
 83 84  1  0  0  0
 83 85  1  0  0  0
 83173  1  0  0  0
 83174  1  0  0  0
 84 87  1  0  0  0
 84175  1  0  0  0
 84176  1  0  0  0
 85177  1  0  0  0
 85178  1  0  0  0
 86 87  1  0  0  0
 86179  1  0  0  0
M  ISO  4   1 100  68 101  85 101  88 100
M  END
> <chiral flag>
0

> <version>
0

> <s_m_source_file>
/data/baiqing/PycharmProjects/Reinvent-master-3.2/result/LINK_invent/BTK/process_docking_weight1_custom_sum_contain_oxygen_bond_distance_aromatic_linkinvent_7_9_3/rearranged_h_0069.sdf

> <i_m_source_file_index>
95

> <r_mmod_Potential_Energy-OPLS-2005>
24484.044921875

> <r_mmod_Stretch_Energy-OPLS-2005>
14541.2255859375

> <r_mmod_Bend_Energy-OPLS-2005>
1435.65502929688

> <r_mmod_Torsional_Energy-OPLS-2005>
555.942321777344

> <r_mmod_Improper_Torsional_Energy-OPLS-2005>
95.7796630859375

> <r_mmod_Van_der_Waal_Energy-OPLS-2005>
5183.79052734375

> <r_mmod_Electrostatic_Energy-OPLS-2005>
-267.049407958984

> <r_mmod_Solvation_Energy-OPLS-2005>
-192.024520874023

> <b_mmod_Minimization_Converged-OPLS-2005>
0

> <r_mmod_RMS_Derivative-OPLS-2005>
8.70920658111572

$$$$
96
                    3D
 Structure written by MMmdl.
166174  0  0  1  0            999 V2000
  -30.6371  -14.6441   20.5377 C   0  0  0  0  0  0
  -30.4335  -12.4100   19.4486 C   0  0  0  0  0  0
  -29.5045  -12.5016   18.2164 C   0  0  0  0  0  0
  -28.0249  -12.3332   18.6247 C   0  0  0  0  0  0
  -27.6431  -13.1963   19.8546 C   0  0  2  0  0  0
  -28.6933  -13.0261   20.9770 C   0  0  0  0  0  0
  -25.2473  -13.8069   20.5648 C   0  0  0  0  0  0
  -24.1758  -13.0362   20.9150 C   0  0  0  0  0  0
  -24.6335  -11.6840   20.8710 C   0  0  0  0  0  0
  -23.9016  -10.4247   21.0382 C   0  0  0  0  0  0
  -24.3584   -9.4179   21.9164 C   0  0  0  0  0  0
  -23.6256   -8.2219   22.0747 C   0  0  0  0  0  0
  -22.4241   -8.0253   21.3539 C   0  0  0  0  0  0
  -21.9865   -9.0217   20.4629 C   0  0  0  0  0  0
  -22.7191  -10.2084   20.3028 C   0  0  0  0  0  0
  -21.6841   -6.0704   22.5286 C   0  0  0  0  0  0
  -21.4010   -6.5612   23.8220 C   0  0  0  0  0  0
  -21.3651   -5.6773   24.9181 C   0  0  0  0  0  0
  -21.6038   -4.3041   24.7249 C   0  0  0  0  0  0
  -21.8821   -3.8121   23.4381 C   0  0  0  0  0  0
  -21.9185   -4.6926   22.3421 C   0  0  0  0  0  0
  -22.7787  -13.5157   21.1834 C   0  0  0  0  0  0
  -22.1646   -4.2091   21.0996 F   0  0  0  0  0  0
  -21.5646   -3.4553   25.7780 F   0  0  0  0  0  0
  -29.9899  -13.4327   20.4253 N   0  0  0  0  0  0
  -26.2906  -12.9241   20.3271 N   0  0  0  0  0  0
  -25.9253  -11.6409   20.5705 N   0  0  0  0  0  0
  -22.0444  -12.8181   22.0400 N   0  0  0  0  0  0
  -25.4084  -15.1792   20.4092 N   0  0  0  0  0  0
  -31.8137  -14.6980   20.1642 O   0  0  0  0  0  0
  -21.6608   -6.8847   21.4245 O   0  0  0  0  0  0
  -22.3485  -14.5483   20.6676 O   0  0  0  0  0  0
  -24.6232  -31.8642   23.2053 C   0  0  0  0  0  0
  -25.9106  -32.4782   23.8363 C   0  0  1  0  0  0
  -27.2275  -27.3598   20.0914 C   0  0  0  0  0  0
  -25.5944  -33.8583   24.2300 N   0  0  0  0  0  0
  -23.4133  -30.4893   21.5469 C   0  0  2  0  0  0
  -24.8570  -28.9455   20.1131 C   0  0  0  0  0  0
  -22.7453  -29.4642   22.4937 C   0  0  0  0  0  0
  -18.0289  -28.1383   22.8474 C   0  0  0  0  0  0
  -24.1501  -36.7298   23.2636 C   0  0  0  0  0  0
  -25.9498  -30.8035   21.3715 C   0  0  0  0  0  0
  -26.0218  -29.4323   20.7160 C   0  0  0  0  0  0
  -27.2046  -28.6446   20.7077 C   0  0  0  0  0  0
  -26.0301  -26.9003   19.4964 C   0  0  0  0  0  0
  -24.8579  -27.6797   19.5058 C   0  0  0  0  0  0
  -23.6293  -29.8291   20.1595 C   0  0  0  0  0  0
  -25.4117  -36.3068   24.0327 C   0  0  1  0  0  0
  -20.5890  -28.3690   23.1289 C   0  0  2  0  0  0
  -20.6790  -26.9417   22.5412 C   0  0  0  0  0  0
  -19.5763  -26.6387   21.5213 C   0  0  0  0  0  0
  -18.1939  -26.7925   22.1607 C   0  0  0  0  0  0
  -19.1540  -28.8846   23.2880 C   0  0  0  0  0  0
  -18.9464  -30.1450   23.8892 C   0  0  0  0  0  0
  -17.6467  -30.6579   24.0572 C   0  0  0  0  0  0
  -25.9057  -34.9446   23.5105 C   0  0  0  0  0  0
  -16.5362  -29.9086   23.6317 C   0  0  0  0  0  0
  -16.7281  -28.6513   23.0319 C   0  0  0  0  0  0
  -26.4522  -31.6558   25.0698 C   0  0  0  0  0  0
  -25.3779  -31.3673   26.1438 C   0  0  0  0  0  0
  -27.0381  -30.2993   24.6105 C   0  0  0  0  0  0
  -27.6099  -32.4285   25.7452 C   0  0  0  0  0  0
  -27.5579  -37.1795   24.8462 C   0  0  0  0  0  0
  -21.4174  -29.3048   22.3675 N   0  0  0  0  0  0
  -26.4288  -37.3765   23.9408 N   0  0  0  0  0  0
  -24.6803  -31.0687   22.0988 N   0  0  0  0  0  0
  -23.4195  -28.8184   23.3007 O   0  0  0  0  0  0
  -28.3934  -26.5930   20.1204 O   0  0  0  0  0  0
  -26.5609  -34.8912   22.4659 O   0  0  0  0  0  0
  -23.5406  -32.1446   23.7401 O   0  0  0  0  0  0
  -28.4515  -20.3595   19.8371 C   0  0  0  0  0  0
  -29.4364  -21.3815   19.8912 C   0  0  0  0  0  0
  -30.0636  -18.7673   20.3437 C   0  0  0  0  0  0
  -26.0862  -20.5645   20.7340 C   0  0  0  0  0  0
  -30.5431  -17.0549   18.5905 C   0  0  0  0  0  0
  -28.4602  -16.1720   21.0036 C   0  0  0  0  0  0
  -30.4563  -16.2389   22.4713 C   0  0  0  0  0  0
  -26.9930  -20.6101   19.4960 C   0  0  0  0  0  0
  -29.2469  -22.8142   19.2981 C   0  0  0  0  0  0
  -28.6303  -23.9885   20.1482 C   0  0  0  0  0  0
  -28.5475  -25.3529   19.3584 C   0  0  0  0  0  0
  -30.5734  -17.2912   20.1243 C   0  0  2  0  0  0
  -30.0049  -16.0542   21.0030 C   0  0  0  0  0  0
  -28.7848  -19.0578   20.0489 N   0  0  0  0  0  0
  -30.6938  -21.0268   20.2751 N   0  0  0  0  0  0
  -31.0048  -19.7269   20.4927 N   0  0  0  0  0  0
  -31.4733  -12.5314   19.1438 H   0  0  0  0  0  0
  -30.3804  -11.4152   19.8911 H   0  0  0  0  0  0
  -29.7767  -11.7387   17.4858 H   0  0  0  0  0  0
  -29.6462  -13.4625   17.7166 H   0  0  0  0  0  0
  -27.8655  -11.2801   18.8565 H   0  0  0  0  0  0
  -27.3722  -12.5602   17.7814 H   0  0  0  0  0  0
  -27.6543  -14.2147   19.4841 H   0  0  0  0  0  0
  -28.7269  -11.9753   21.2625 H   0  0  0  0  0  0
  -28.4513  -13.5248   21.9112 H   0  0  0  0  0  0
  -25.2737   -9.5662   22.4727 H   0  0  0  0  0  0
  -23.9954   -7.4622   22.7491 H   0  0  0  0  0  0
  -21.0774   -8.8752   19.8960 H   0  0  0  0  0  0
  -22.3664  -10.9627   19.6126 H   0  0  0  0  0  0
  -21.2024   -7.6127   23.9716 H   0  0  0  0  0  0
  -21.1456   -6.0506   25.9075 H   0  0  0  0  0  0
  -22.0611   -2.7583   23.2914 H   0  0  0  0  0  0
  -22.4052  -11.9854   22.4804 H   0  0  0  0  0  0
  -21.1060  -13.1209   22.2599 H   0  0  0  0  0  0
  -24.6440  -15.8292   20.5545 H   0  0  0  0  0  0
  -26.2866  -15.6361   20.2050 H   0  0  0  0  0  0
  -26.7162  -32.5484   23.1109 H   0  0  0  0  0  0
  -25.0111  -33.9746   25.0450 H   0  0  0  0  0  0
  -22.7048  -31.3083   21.4056 H   0  0  0  0  0  0
  -23.3745  -35.9649   23.3290 H   0  0  0  0  0  0
  -24.3603  -36.8933   22.2052 H   0  0  0  0  0  0
  -23.7291  -37.6509   23.6673 H   0  0  0  0  0  0
  -26.0752  -31.5672   20.6024 H   0  0  0  0  0  0
  -26.8326  -30.8550   21.9964 H   0  0  0  0  0  0
  -28.0975  -29.0172   21.1903 H   0  0  0  0  0  0
  -25.9562  -25.9277   19.0373 H   0  0  0  0  0  0
  -23.9579  -27.2917   19.0506 H   0  0  0  0  0  0
  -23.7680  -30.6135   19.4140 H   0  0  0  0  0  0
  -22.7468  -29.2717   19.8404 H   0  0  0  0  0  0
  -25.1297  -36.1904   25.0819 H   0  0  0  0  0  0
  -20.9980  -28.3276   24.1412 H   0  0  0  0  0  0
  -20.5711  -26.2306   23.3617 H   0  0  0  0  0  0
  -21.6659  -26.7470   22.1200 H   0  0  0  0  0  0
  -19.6942  -25.6299   21.1240 H   0  0  0  0  0  0
  -19.6705  -27.3201   20.6747 H   0  0  0  0  0  0
  -17.4226  -26.6689   21.3993 H   0  0  0  0  0  0
  -18.0316  -26.0065   22.8992 H   0  0  0  0  0  0
  -19.7950  -30.7262   24.2266 H   0  0  0  0  0  0
  -17.5033  -31.6254   24.5180 H   0  0  0  0  0  0
  -15.5363  -30.2991   23.7645 H   0  0  0  0  0  0
  -15.8685  -28.0855   22.6994 H   0  0  0  0  0  0
  -24.5931  -30.7051   25.7754 H   0  0  0  0  0  0
  -24.9000  -32.2838   26.4905 H   0  0  0  0  0  0
  -25.8125  -30.8803   27.0178 H   0  0  0  0  0  0
  -26.2930  -29.6677   24.1246 H   0  0  0  0  0  0
  -27.4247  -29.7294   25.4565 H   0  0  0  0  0  0
  -27.8724  -30.4295   23.9208 H   0  0  0  0  0  0
  -27.2721  -33.3583   26.2039 H   0  0  0  0  0  0
  -28.3894  -32.6845   25.0260 H   0  0  0  0  0  0
  -28.0785  -31.8400   26.5350 H   0  0  0  0  0  0
  -28.2579  -38.0105   24.7499 H   0  0  0  0  0  0
  -28.1092  -36.2630   24.6290 H   0  0  0  0  0  0
  -27.2303  -37.1449   25.8869 H   0  0  0  0  0  0
  -20.9341  -29.8803   21.6916 H   0  0  0  0  0  0
  -26.0158  -38.2836   24.1406 H   0  0  0  0  0  0
  -25.0456  -20.7310   20.4576 H   0  0  0  0  0  0
  -26.3611  -21.3274   21.4647 H   0  0  0  0  0  0
  -26.1443  -19.5941   21.2265 H   0  0  0  0  0  0
  -31.0835  -17.8545   18.0794 H   0  0  0  0  0  0
  -29.5216  -17.0610   18.2112 H   0  0  0  0  0  0
  -31.0107  -16.1260   18.2736 H   0  0  0  0  0  0
  -28.1414  -17.0957   21.4837 H   0  0  0  0  0  0
  -27.9309  -15.4291   21.5813 H   0  0  0  0  0  0
  -28.0652  -16.2119   19.9897 H   0  0  0  0  0  0
  -30.0332  -15.4684   23.1186 H   0  0  0  0  0  0
  -30.1455  -17.2029   22.8739 H   0  0  0  0  0  0
  -31.5411  -16.1878   22.5709 H   0  0  0  0  0  0
  -26.6714  -19.8502   18.7817 H   0  0  0  0  0  0
  -26.8704  -21.5682   18.9970 H   0  0  0  0  0  0
  -28.6850  -22.7108   18.3702 H   0  0  0  0  0  0
  -30.2303  -23.1443   18.9602 H   0  0  0  0  0  0
  -29.2377  -24.1341   21.0400 H   0  0  0  0  0  0
  -27.6325  -23.7072   20.4881 H   0  0  0  0  0  0
  -27.8376  -25.2566   18.5387 H   0  0  0  0  0  0
  -29.4965  -25.4789   18.8374 H   0  0  0  0  0  0
  -31.6350  -17.3287   20.3773 H   0  0  0  0  0  0
  1 25  1  0  0  0
  1 30  2  0  0  0
  1 83  1  0  0  0
  2  3  1  0  0  0
  2 25  1  0  0  0
  2 87  1  0  0  0
  2 88  1  0  0  0
  3  4  1  0  0  0
  3 89  1  0  0  0
  3 90  1  0  0  0
  4  5  1  0  0  0
  4 91  1  0  0  0
  4 92  1  0  0  0
  5  6  1  0  0  0
  5 26  1  0  0  0
  5 93  1  0  0  0
  6 25  1  0  0  0
  6 94  1  0  0  0
  6 95  1  0  0  0
  7  8  2  0  0  0
  7 26  1  0  0  0
  7 29  1  0  0  0
  8  9  1  0  0  0
  8 22  1  0  0  0
  9 10  1  0  0  0
  9 27  2  0  0  0
 10 11  2  0  0  0
 10 15  1  0  0  0
 11 12  1  0  0  0
 11 96  1  0  0  0
 12 13  2  0  0  0
 12 97  1  0  0  0
 13 14  1  0  0  0
 13 31  1  0  0  0
 14 15  2  0  0  0
 14 98  1  0  0  0
 15 99  1  0  0  0
 16 17  2  0  0  0
 16 21  1  0  0  0
 16 31  1  0  0  0
 17 18  1  0  0  0
 17100  1  0  0  0
 18 19  2  0  0  0
 18101  1  0  0  0
 19 20  1  0  0  0
 19 24  1  0  0  0
 20 21  2  0  0  0
 20102  1  0  0  0
 21 23  1  0  0  0
 22 28  1  0  0  0
 22 32  2  0  0  0
 26 27  1  0  0  0
 28103  1  0  0  0
 28104  1  0  0  0
 29105  1  0  0  0
 29106  1  0  0  0
 33 34  1  0  0  0
 33 66  1  0  0  0
 33 70  2  0  0  0
 34 36  1  0  0  0
 34 59  1  0  0  0
 34107  1  0  0  0
 35 44  2  0  0  0
 35 45  1  0  0  0
 35 68  1  0  0  0
 36 56  1  0  0  0
 36108  1  0  0  0
 37 39  1  0  0  0
 37 47  1  0  0  0
 37 66  1  0  0  0
 37109  1  0  0  0
 38 43  2  0  0  0
 38 46  1  0  0  0
 38 47  1  0  0  0
 39 64  1  0  0  0
 39 67  2  0  0  0
 40 52  1  0  0  0
 40 53  2  0  0  0
 40 58  1  0  0  0
 41110  1  0  0  0
 41111  1  0  0  0
 41112  1  0  0  0
 41 48  1  0  0  0
 42 43  1  0  0  0
 42 66  1  0  0  0
 42113  1  0  0  0
 42114  1  0  0  0
 43 44  1  0  0  0
 44115  1  0  0  0
 45 46  2  0  0  0
 45116  1  0  0  0
 46117  1  0  0  0
 47118  1  0  0  0
 47119  1  0  0  0
 48 56  1  0  0  0
 48 65  1  0  0  0
 48120  1  0  0  0
 49 50  1  0  0  0
 49 53  1  0  0  0
 49 64  1  0  0  0
 49121  1  0  0  0
 50 51  1  0  0  0
 50122  1  0  0  0
 50123  1  0  0  0
 51 52  1  0  0  0
 51124  1  0  0  0
 51125  1  0  0  0
 52126  1  0  0  0
 52127  1  0  0  0
 53 54  1  0  0  0
 54 55  2  0  0  0
 54128  1  0  0  0
 55 57  1  0  0  0
 55129  1  0  0  0
 56 69  2  0  0  0
 57 58  2  0  0  0
 57130  1  0  0  0
 58131  1  0  0  0
 59 60  1  0  0  0
 59 61  1  0  0  0
 59 62  1  0  0  0
 60132  1  0  0  0
 60133  1  0  0  0
 60134  1  0  0  0
 61135  1  0  0  0
 61136  1  0  0  0
 61137  1  0  0  0
 62138  1  0  0  0
 62139  1  0  0  0
 62140  1  0  0  0
 63 65  1  0  0  0
 63141  1  0  0  0
 63142  1  0  0  0
 63143  1  0  0  0
 64144  1  0  0  0
 65145  1  0  0  0
 68 81  1  0  0  0
 71 72  2  0  0  0
 71 78  1  0  0  0
 71 84  1  0  0  0
 72 79  1  0  0  0
 72 85  1  0  0  0
 73 82  1  0  0  0
 73 84  2  0  0  0
 73 86  1  0  0  0
 74 78  1  0  0  0
 74146  1  0  0  0
 74147  1  0  0  0
 74148  1  0  0  0
 75149  1  0  0  0
 75150  1  0  0  0
 75151  1  0  0  0
 75 82  1  0  0  0
 76152  1  0  0  0
 76153  1  0  0  0
 76154  1  0  0  0
 76 83  1  0  0  0
 77 83  1  0  0  0
 77155  1  0  0  0
 77156  1  0  0  0
 77157  1  0  0  0
 78158  1  0  0  0
 78159  1  0  0  0
 79 80  1  0  0  0
 79160  1  0  0  0
 79161  1  0  0  0
 80 81  1  0  0  0
 80162  1  0  0  0
 80163  1  0  0  0
 81164  1  0  0  0
 81165  1  0  0  0
 82 83  1  0  0  0
 82166  1  0  0  0
 85 86  2  0  0  0
M  ISO  4   1 100  68 101  81 101  83 100
M  END
> <chiral flag>
0

> <version>
0

> <s_m_source_file>
/data/baiqing/PycharmProjects/Reinvent-master-3.2/result/LINK_invent/BTK/process_docking_weight1_custom_sum_contain_oxygen_bond_distance_aromatic_linkinvent_7_9_3/rearranged_h_0069.sdf

> <i_m_source_file_index>
96

> <r_mmod_Potential_Energy-OPLS-2005>
96.8981170654297

> <r_mmod_Stretch_Energy-OPLS-2005>
84.7395553588867

> <r_mmod_Bend_Energy-OPLS-2005>
184.299102783203

> <r_mmod_Torsional_Energy-OPLS-2005>
167.787078857422

> <r_mmod_Improper_Torsional_Energy-OPLS-2005>
6.25038003921509

> <r_mmod_Van_der_Waal_Energy-OPLS-2005>
168.882736206055

> <r_mmod_Electrostatic_Energy-OPLS-2005>
-348.714904785156

> <r_mmod_Solvation_Energy-OPLS-2005>
-204.579254150391

> <b_mmod_Minimization_Converged-OPLS-2005>
0

> <r_mmod_RMS_Derivative-OPLS-2005>
3.49561953544617

$$$$
97
                    3D
 Structure written by MMmdl.
170178  0  0  1  0            999 V2000
  -30.4831  -14.8270   20.5771 C   0  0  0  0  0  0
  -30.4701  -12.5259   19.4640 C   0  0  0  0  0  0
  -29.5304  -12.4799   18.2289 C   0  0  0  0  0  0
  -28.0529  -12.2724   18.6297 C   0  0  0  0  0  0
  -27.6523  -13.1777   19.8218 C   0  0  2  0  0  0
  -28.6881  -13.0965   20.9445 C   0  0  0  0  0  0
  -25.2851  -13.8095   20.5809 C   0  0  0  0  0  0
  -24.2125  -13.0388   20.9440 C   0  0  0  0  0  0
  -24.6516  -11.6770   20.8675 C   0  0  0  0  0  0
  -23.8991  -10.4298   21.0394 C   0  0  0  0  0  0
  -24.3278   -9.4272   21.9597 C   0  0  0  0  0  0
  -23.6016   -8.2214   22.0863 C   0  0  0  0  0  0
  -22.4103   -8.0251   21.3441 C   0  0  0  0  0  0
  -21.9876   -9.0141   20.4349 C   0  0  0  0  0  0
  -22.7128  -10.2128   20.3092 C   0  0  0  0  0  0
  -21.6737   -6.0701   22.5388 C   0  0  0  0  0  0
  -21.3865   -6.5535   23.8337 C   0  0  0  0  0  0
  -21.3616   -5.6717   24.9329 C   0  0  0  0  0  0
  -21.6123   -4.3019   24.7417 C   0  0  0  0  0  0
  -21.8648   -3.8044   23.4561 C   0  0  0  0  0  0
  -21.9055   -4.6902   22.3516 C   0  0  0  0  0  0
  -22.8180  -13.5303   21.2314 C   0  0  0  0  0  0
  -22.1445   -4.2012   21.1117 F   0  0  0  0  0  0
  -21.5732   -3.4457   25.7887 F   0  0  0  0  0  0
  -29.9489  -13.5579   20.4016 N   0  0  0  0  0  0
  -26.3099  -12.9158   20.3237 N   0  0  0  0  0  0
  -25.9444  -11.6272   20.5840 N   0  0  0  0  0  0
  -22.0866  -12.8979   22.1293 N   0  0  0  0  0  0
  -25.4705  -15.1927   20.4185 N   0  0  0  0  0  0
  -31.6649  -15.0163   20.2559 O   0  0  0  0  0  0
  -21.6509   -6.8836   21.4295 O   0  0  0  0  0  0
  -22.3932  -14.5664   20.7256 O   0  0  0  0  0  0
  -24.6388  -31.8527   23.1895 C   0  0  0  0  0  0
  -25.9186  -32.4734   23.8286 C   0  0  1  0  0  0
  -27.2095  -27.1972   20.1597 C   0  0  0  0  0  0
  -25.5961  -33.8535   24.2201 N   0  0  0  0  0  0
  -23.4357  -30.4693   21.5382 C   0  0  2  0  0  0
  -24.8770  -28.8907   20.1218 C   0  0  0  0  0  0
  -22.7527  -29.4579   22.4902 C   0  0  0  0  0  0
  -18.0284  -28.1390   22.8482 C   0  0  0  0  0  0
  -24.1478  -36.7261   23.2636 C   0  0  0  0  0  0
  -25.9850  -30.7418   21.3766 C   0  0  0  0  0  0
  -26.0547  -29.3546   20.7182 C   0  0  0  0  0  0
  -27.2248  -28.5239   20.7250 C   0  0  0  0  0  0
  -26.0143  -26.8070   19.5331 C   0  0  0  0  0  0
  -24.8662  -27.6273   19.5020 C   0  0  0  0  0  0
  -23.6571  -29.7920   20.1598 C   0  0  0  0  0  0
  -25.4115  -36.3042   24.0307 C   0  0  1  0  0  0
  -20.5901  -28.3715   23.1267 C   0  0  2  0  0  0
  -20.6784  -26.9428   22.5414 C   0  0  0  0  0  0
  -19.5760  -26.6373   21.5223 C   0  0  0  0  0  0
  -18.1933  -26.7937   22.1626 C   0  0  0  0  0  0
  -19.1551  -28.8858   23.2866 C   0  0  0  0  0  0
  -18.9476  -30.1464   23.8890 C   0  0  0  0  0  0
  -17.6485  -30.6595   24.0553 C   0  0  0  0  0  0
  -25.9075  -34.9426   23.5035 C   0  0  0  0  0  0
  -16.5358  -29.9091   23.6335 C   0  0  0  0  0  0
  -16.7285  -28.6495   23.0364 C   0  0  0  0  0  0
  -26.4509  -31.6589   25.0723 C   0  0  0  0  0  0
  -25.3710  -31.3806   26.1432 C   0  0  0  0  0  0
  -27.0382  -30.3001   24.6264 C   0  0  0  0  0  0
  -27.6024  -32.4381   25.7533 C   0  0  0  0  0  0
  -27.5564  -37.1786   24.8468 C   0  0  0  0  0  0
  -21.4251  -29.3046   22.3651 N   0  0  0  0  0  0
  -26.4270  -37.3752   23.9394 N   0  0  0  0  0  0
  -24.7056  -31.0416   22.0896 N   0  0  0  0  0  0
  -23.4195  -28.8112   23.3055 O   0  0  0  0  0  0
  -28.3064  -26.3022   20.1500 O   0  0  0  0  0  0
  -26.5655  -34.8914   22.4620 O   0  0  0  0  0  0
  -23.5534  -32.1340   23.7168 O   0  0  0  0  0  0
  -28.7741  -22.0799   20.7007 C   0  0  0  0  0  0
  -29.0076  -19.8987   21.1553 C   0  0  0  0  0  0
  -25.6586  -20.4743   20.8779 C   0  0  0  0  0  0
  -27.8096  -18.9327   22.9529 C   0  0  0  0  0  0
  -30.0961  -15.0763   23.6330 C   0  0  0  0  0  0
  -27.6009  -15.7240   23.3174 C   0  0  0  0  0  0
  -29.1934  -16.9786   24.7339 C   0  0  0  0  0  0
  -28.3311  -23.4712   20.0265 C   0  0  0  0  0  0
  -26.8507  -20.6019   19.9142 C   0  0  0  0  0  0
  -28.2382  -24.9213   20.7916 C   0  0  0  0  0  0
  -28.5381  -18.4376   21.6694 C   0  0  2  0  0  0
  -29.4750  -17.0305   21.9791 C   0  0  1  0  0  0
  -29.0824  -16.2394   23.3602 C   0  0  0  0  0  0
  -29.9662  -21.9034   21.2889 N   0  0  0  0  0  0
  -30.0952  -20.5484   21.6107 N   0  0  0  0  0  0
  -28.1484  -20.8363   20.5633 N   0  0  0  0  0  0
  -29.6180  -15.9148   20.8652 N   0  0  0  0  0  0
  -31.4875  -12.7421   19.1376 H   0  0  0  0  0  0
  -30.5159  -11.5502   19.9610 H   0  0  0  0  0  0
  -29.8436  -11.6960   17.5249 H   0  0  0  0  0  0
  -29.5869  -13.4198   17.6784 H   0  0  0  0  0  0
  -27.9177  -11.2240   18.8860 H   0  0  0  0  0  0
  -27.4020  -12.4395   17.7764 H   0  0  0  0  0  0
  -27.6785  -14.1899   19.4071 H   0  0  0  0  0  0
  -28.7636  -12.1042   21.3728 H   0  0  0  0  0  0
  -28.3969  -13.7437   21.7255 H   0  0  0  0  0  0
  -25.2255   -9.5687   22.5532 H   0  0  0  0  0  0
  -23.9733   -7.4375   22.7309 H   0  0  0  0  0  0
  -21.1174   -8.8424   19.8156 H   0  0  0  0  0  0
  -22.3649  -10.9675   19.6120 H   0  0  0  0  0  0
  -21.1596   -7.5952   23.9917 H   0  0  0  0  0  0
  -21.1742   -6.0381   25.9293 H   0  0  0  0  0  0
  -22.0431   -2.7483   23.3146 H   0  0  0  0  0  0
  -21.2571  -13.3948   22.4550 H   0  0  0  0  0  0
  -22.4487  -12.0738   22.5895 H   0  0  0  0  0  0
  -24.6955  -15.8417   20.5327 H   0  0  0  0  0  0
  -26.2935  -15.6400   20.0340 H   0  0  0  0  0  0
  -26.7248  -32.5341   23.1039 H   0  0  0  0  0  0
  -25.0131  -33.9652   25.0353 H   0  0  0  0  0  0
  -22.7370  -31.2926   21.3881 H   0  0  0  0  0  0
  -23.3739  -35.9597   23.3322 H   0  0  0  0  0  0
  -24.3540  -36.8878   22.2043 H   0  0  0  0  0  0
  -23.7244  -37.6458   23.6678 H   0  0  0  0  0  0
  -26.1291  -31.4908   20.5988 H   0  0  0  0  0  0
  -26.8634  -30.7974   22.0085 H   0  0  0  0  0  0
  -28.1321  -28.8770   21.1893 H   0  0  0  0  0  0
  -25.9654  -25.8358   19.0661 H   0  0  0  0  0  0
  -23.9661  -27.2628   19.0263 H   0  0  0  0  0  0
  -23.7845  -30.5662   19.4025 H   0  0  0  0  0  0
  -22.7743  -29.2331   19.8518 H   0  0  0  0  0  0
  -25.1308  -36.1856   25.0801 H   0  0  0  0  0  0
  -20.9989  -28.3270   24.1390 H   0  0  0  0  0  0
  -20.5681  -26.2319   23.3607 H   0  0  0  0  0  0
  -21.6649  -26.7437   22.1209 H   0  0  0  0  0  0
  -19.6921  -25.6270   21.1266 H   0  0  0  0  0  0
  -19.6697  -27.3161   20.6731 H   0  0  0  0  0  0
  -17.4203  -26.6677   21.4022 H   0  0  0  0  0  0
  -18.0337  -26.0083   22.9029 H   0  0  0  0  0  0
  -19.7955  -30.7285   24.2245 H   0  0  0  0  0  0
  -17.5032  -31.6287   24.5158 H   0  0  0  0  0  0
  -15.5362  -30.2995   23.7676 H   0  0  0  0  0  0
  -15.8674  -28.0814   22.7110 H   0  0  0  0  0  0
  -24.5862  -30.7183   25.7770 H   0  0  0  0  0  0
  -24.8939  -32.3016   26.4801 H   0  0  0  0  0  0
  -25.8003  -30.9015   27.0235 H   0  0  0  0  0  0
  -26.2949  -29.6695   24.1380 H   0  0  0  0  0  0
  -27.4136  -29.7344   25.4792 H   0  0  0  0  0  0
  -27.8799  -30.4259   23.9461 H   0  0  0  0  0  0
  -27.2553  -33.3647   26.2122 H   0  0  0  0  0  0
  -28.3852  -32.7012   25.0416 H   0  0  0  0  0  0
  -28.0686  -31.8526   26.5464 H   0  0  0  0  0  0
  -28.2591  -38.0069   24.7492 H   0  0  0  0  0  0
  -28.1048  -36.2599   24.6332 H   0  0  0  0  0  0
  -27.2283  -37.1488   25.8871 H   0  0  0  0  0  0
  -20.9424  -29.8749   21.6830 H   0  0  0  0  0  0
  -26.0145  -38.2811   24.1414 H   0  0  0  0  0  0
  -25.6576  -21.2381   21.6630 H   0  0  0  0  0  0
  -25.6210  -19.4848   21.3318 H   0  0  0  0  0  0
  -24.7149  -20.5800   20.3419 H   0  0  0  0  0  0
  -27.1953  -19.8110   22.8062 H   0  0  0  0  0  0
  -28.5346  -19.2827   23.6869 H   0  0  0  0  0  0
  -27.1085  -18.2276   23.3813 H   0  0  0  0  0  0
  -31.0512  -15.2208   23.1247 H   0  0  0  0  0  0
  -29.7066  -14.0958   23.3650 H   0  0  0  0  0  0
  -30.4055  -14.9709   24.6727 H   0  0  0  0  0  0
  -27.0827  -15.9038   24.2622 H   0  0  0  0  0  0
  -27.4115  -14.6758   23.1142 H   0  0  0  0  0  0
  -27.0094  -16.2287   22.5610 H   0  0  0  0  0  0
  -29.0726  -16.2666   25.5612 H   0  0  0  0  0  0
  -28.3877  -17.6586   24.9957 H   0  0  0  0  0  0
  -30.1612  -17.4547   24.8620 H   0  0  0  0  0  0
  -27.3637  -23.3313   19.5578 H   0  0  0  0  0  0
  -29.0116  -23.5961   19.1844 H   0  0  0  0  0  0
  -26.6380  -21.4067   19.2148 H   0  0  0  0  0  0
  -26.9211  -19.7072   19.2861 H   0  0  0  0  0  0
  -29.1164  -24.9406   21.4304 H   0  0  0  0  0  0
  -27.3908  -24.8967   21.4730 H   0  0  0  0  0  0
  -27.7469  -18.1175   20.9836 H   0  0  0  0  0  0
  -30.4790  -17.4071   22.1479 H   0  0  0  0  0  0
  -29.2447  -16.2561   19.9881 H   0  0  0  0  0  0
  1 25  1  0  0  0
  1 30  2  0  0  0
  1 87  1  0  0  0
  2  3  1  0  0  0
  2 25  1  0  0  0
  2 88  1  0  0  0
  2 89  1  0  0  0
  3  4  1  0  0  0
  3 90  1  0  0  0
  3 91  1  0  0  0
  4  5  1  0  0  0
  4 92  1  0  0  0
  4 93  1  0  0  0
  5  6  1  0  0  0
  5 26  1  0  0  0
  5 94  1  0  0  0
  6 25  1  0  0  0
  6 95  1  0  0  0
  6 96  1  0  0  0
  7  8  2  0  0  0
  7 26  1  0  0  0
  7 29  1  0  0  0
  8  9  1  0  0  0
  8 22  1  0  0  0
  9 10  1  0  0  0
  9 27  2  0  0  0
 10 11  2  0  0  0
 10 15  1  0  0  0
 11 12  1  0  0  0
 11 97  1  0  0  0
 12 13  2  0  0  0
 12 98  1  0  0  0
 13 14  1  0  0  0
 13 31  1  0  0  0
 14 15  2  0  0  0
 14 99  1  0  0  0
 15100  1  0  0  0
 16 17  2  0  0  0
 16 21  1  0  0  0
 16 31  1  0  0  0
 17 18  1  0  0  0
 17101  1  0  0  0
 18 19  2  0  0  0
 18102  1  0  0  0
 19 20  1  0  0  0
 19 24  1  0  0  0
 20 21  2  0  0  0
 20103  1  0  0  0
 21 23  1  0  0  0
 22 28  1  0  0  0
 22 32  2  0  0  0
 26 27  1  0  0  0
 28104  1  0  0  0
 28105  1  0  0  0
 29106  1  0  0  0
 29107  1  0  0  0
 33 34  1  0  0  0
 33 66  1  0  0  0
 33 70  2  0  0  0
 34 36  1  0  0  0
 34 59  1  0  0  0
 34108  1  0  0  0
 35 44  2  0  0  0
 35 45  1  0  0  0
 35 68  1  0  0  0
 36 56  1  0  0  0
 36109  1  0  0  0
 37 39  1  0  0  0
 37 47  1  0  0  0
 37 66  1  0  0  0
 37110  1  0  0  0
 38 43  2  0  0  0
 38 46  1  0  0  0
 38 47  1  0  0  0
 39 64  1  0  0  0
 39 67  2  0  0  0
 40 52  1  0  0  0
 40 53  2  0  0  0
 40 58  1  0  0  0
 41111  1  0  0  0
 41112  1  0  0  0
 41113  1  0  0  0
 41 48  1  0  0  0
 42 43  1  0  0  0
 42 66  1  0  0  0
 42114  1  0  0  0
 42115  1  0  0  0
 43 44  1  0  0  0
 44116  1  0  0  0
 45 46  2  0  0  0
 45117  1  0  0  0
 46118  1  0  0  0
 47119  1  0  0  0
 47120  1  0  0  0
 48 56  1  0  0  0
 48 65  1  0  0  0
 48121  1  0  0  0
 49 50  1  0  0  0
 49 53  1  0  0  0
 49 64  1  0  0  0
 49122  1  0  0  0
 50 51  1  0  0  0
 50123  1  0  0  0
 50124  1  0  0  0
 51 52  1  0  0  0
 51125  1  0  0  0
 51126  1  0  0  0
 52127  1  0  0  0
 52128  1  0  0  0
 53 54  1  0  0  0
 54 55  2  0  0  0
 54129  1  0  0  0
 55 57  1  0  0  0
 55130  1  0  0  0
 56 69  2  0  0  0
 57 58  2  0  0  0
 57131  1  0  0  0
 58132  1  0  0  0
 59 60  1  0  0  0
 59 61  1  0  0  0
 59 62  1  0  0  0
 60133  1  0  0  0
 60134  1  0  0  0
 60135  1  0  0  0
 61136  1  0  0  0
 61137  1  0  0  0
 61138  1  0  0  0
 62139  1  0  0  0
 62140  1  0  0  0
 62141  1  0  0  0
 63 65  1  0  0  0
 63142  1  0  0  0
 63143  1  0  0  0
 63144  1  0  0  0
 64145  1  0  0  0
 65146  1  0  0  0
 68 80  1  0  0  0
 71 78  1  0  0  0
 71 84  2  0  0  0
 71 86  1  0  0  0
 72 81  1  0  0  0
 72 85  2  0  0  0
 72 86  1  0  0  0
 73 79  1  0  0  0
 73147  1  0  0  0
 73148  1  0  0  0
 73149  1  0  0  0
 74150  1  0  0  0
 74151  1  0  0  0
 74152  1  0  0  0
 74 81  1  0  0  0
 75153  1  0  0  0
 75154  1  0  0  0
 75155  1  0  0  0
 75 83  1  0  0  0
 76 83  1  0  0  0
 76156  1  0  0  0
 76157  1  0  0  0
 76158  1  0  0  0
 77 83  1  0  0  0
 77159  1  0  0  0
 77160  1  0  0  0
 77161  1  0  0  0
 78 80  1  0  0  0
 78162  1  0  0  0
 78163  1  0  0  0
 79 86  1  0  0  0
 79164  1  0  0  0
 79165  1  0  0  0
 80166  1  0  0  0
 80167  1  0  0  0
 81 82  1  0  0  0
 81168  1  0  0  0
 82 83  1  0  0  0
 82 87  1  0  0  0
 82169  1  0  0  0
 84 85  1  0  0  0
 87170  1  0  0  0
M  ISO  4   1 100  68 101  80 101  87 100
M  END
> <chiral flag>
0

> <version>
0

> <s_m_source_file>
/data/baiqing/PycharmProjects/Reinvent-master-3.2/result/LINK_invent/BTK/process_docking_weight1_custom_sum_contain_oxygen_bond_distance_aromatic_linkinvent_7_9_3/rearranged_h_0069.sdf

> <i_m_source_file_index>
97

> <r_mmod_Potential_Energy-OPLS-2005>
585.055419921875

> <r_mmod_Stretch_Energy-OPLS-2005>
239.828002929688

> <r_mmod_Bend_Energy-OPLS-2005>
320.396423339844

> <r_mmod_Torsional_Energy-OPLS-2005>
373.316741943359

> <r_mmod_Improper_Torsional_Energy-OPLS-2005>
14.2115774154663

> <r_mmod_Van_der_Waal_Energy-OPLS-2005>
150.843948364258

> <r_mmod_Electrostatic_Energy-OPLS-2005>
-414.594451904297

> <r_mmod_Solvation_Energy-OPLS-2005>
-233.85920715332

> <b_mmod_Minimization_Converged-OPLS-2005>
0

> <r_mmod_RMS_Derivative-OPLS-2005>
20.6201610565186

$$$$
