0
                    3D
 Structure written by MMmdl.
163171  0  0  1  0            999 V2000
  -30.7107  -14.5259   20.5673 C   0  0  0  0  0  0
  -30.4244  -12.3464   19.4354 C   0  0  0  0  0  0
  -29.4974  -12.5031   18.2136 C   0  0  0  0  0  0
  -28.0187  -12.3608   18.6250 C   0  0  0  0  0  0
  -27.6561  -13.2186   19.8688 C   0  0  2  0  0  0
  -28.7007  -13.0520   20.9929 C   0  0  0  0  0  0
  -25.2557  -13.8189   20.5681 C   0  0  0  0  0  0
  -24.1827  -13.0442   20.9171 C   0  0  0  0  0  0
  -24.6392  -11.6925   20.8719 C   0  0  0  0  0  0
  -23.9065  -10.4305   21.0392 C   0  0  0  0  0  0
  -24.3622   -9.4215   21.9169 C   0  0  0  0  0  0
  -23.6311   -8.2227   22.0720 C   0  0  0  0  0  0
  -22.4293   -8.0257   21.3513 C   0  0  0  0  0  0
  -21.9927   -9.0229   20.4613 C   0  0  0  0  0  0
  -22.7234  -10.2125   20.3038 C   0  0  0  0  0  0
  -21.6856   -6.0743   22.5269 C   0  0  0  0  0  0
  -21.3992   -6.5640   23.8207 C   0  0  0  0  0  0
  -21.3676   -5.6789   24.9167 C   0  0  0  0  0  0
  -21.6065   -4.3056   24.7208 C   0  0  0  0  0  0
  -21.8820   -3.8144   23.4323 C   0  0  0  0  0  0
  -21.9186   -4.6964   22.3386 C   0  0  0  0  0  0
  -22.7839  -13.5222   21.1869 C   0  0  0  0  0  0
  -22.1650   -4.2148   21.0954 F   0  0  0  0  0  0
  -21.5660   -3.4542   25.7713 F   0  0  0  0  0  0
  -30.0245  -13.3575   20.4279 N   0  0  0  0  0  0
  -26.3011  -12.9371   20.3370 N   0  0  0  0  0  0
  -25.9334  -11.6526   20.5773 N   0  0  0  0  0  0
  -22.0489  -12.8201   22.0414 N   0  0  0  0  0  0
  -25.4269  -15.1904   20.4085 N   0  0  0  0  0  0
  -31.8571  -14.6688   20.1365 O   0  0  0  0  0  0
  -21.6626   -6.8875   21.4232 O   0  0  0  0  0  0
  -22.3521  -14.5559   20.6755 O   0  0  0  0  0  0
  -24.6172  -31.8653   23.2079 C   0  0  0  0  0  0
  -25.9051  -32.4817   23.8379 C   0  0  1  0  0  0
  -27.2330  -27.4031   20.0924 C   0  0  0  0  0  0
  -25.5901  -33.8616   24.2313 N   0  0  0  0  0  0
  -23.4051  -30.4879   21.5502 C   0  0  2  0  0  0
  -24.8466  -28.9467   20.1160 C   0  0  0  0  0  0
  -22.7424  -29.4641   22.4998 C   0  0  0  0  0  0
  -18.0267  -28.1374   22.8490 C   0  0  0  0  0  0
  -24.1479  -36.7316   23.2639 C   0  0  0  0  0  0
  -25.9352  -30.8220   21.3598 C   0  0  0  0  0  0
  -26.0081  -29.4521   20.7103 C   0  0  0  0  0  0
  -27.1989  -28.6877   20.6917 C   0  0  0  0  0  0
  -26.0433  -26.9090   19.5082 C   0  0  0  0  0  0
  -24.8609  -27.6767   19.5132 C   0  0  0  0  0  0
  -23.6109  -29.8185   20.1653 C   0  0  0  0  0  0
  -25.4100  -36.3114   24.0341 C   0  0  1  0  0  0
  -20.5862  -28.3648   23.1333 C   0  0  2  0  0  0
  -20.6753  -26.9389   22.5422 C   0  0  0  0  0  0
  -19.5737  -26.6379   21.5212 C   0  0  0  0  0  0
  -18.1916  -26.7920   22.1619 C   0  0  0  0  0  0
  -19.1516  -28.8825   23.2909 C   0  0  0  0  0  0
  -18.9446  -30.1438   23.8915 C   0  0  0  0  0  0
  -17.6444  -30.6583   24.0561 C   0  0  0  0  0  0
  -25.9034  -34.9478   23.5124 C   0  0  0  0  0  0
  -16.5335  -29.9079   23.6325 C   0  0  0  0  0  0
  -16.7259  -28.6496   23.0352 C   0  0  0  0  0  0
  -26.4469  -31.6615   25.0721 C   0  0  0  0  0  0
  -25.3740  -31.3721   26.1478 C   0  0  0  0  0  0
  -27.0287  -30.3063   24.6085 C   0  0  0  0  0  0
  -27.6048  -32.4334   25.7479 C   0  0  0  0  0  0
  -27.5580  -37.1809   24.8465 C   0  0  0  0  0  0
  -21.4147  -29.3021   22.3747 N   0  0  0  0  0  0
  -26.4289  -37.3800   23.9416 N   0  0  0  0  0  0
  -24.6719  -31.0729   22.0987 N   0  0  0  0  0  0
  -23.4196  -28.8188   23.3040 O   0  0  0  0  0  0
  -28.4328  -26.7082   20.1089 O   0  0  0  0  0  0
  -26.5599  -34.8931   22.4685 O   0  0  0  0  0  0
  -23.5364  -32.1418   23.7467 O   0  0  0  0  0  0
  -29.7137  -19.3108   21.4729 C   0  0  0  0  0  0
  -30.0513  -18.1414   20.8331 C   0  0  0  0  0  0
  -29.8256  -18.3858   19.4448 C   0  0  0  0  0  0
  -29.3480  -19.6702   19.2994 C   0  0  0  0  0  0
  -30.0774  -17.3908   18.3355 C   0  0  0  0  0  0
  -28.9403  -20.3797   18.0452 C   0  0  0  0  0  0
  -29.4305  -24.6290   21.8683 C   0  0  0  0  0  0
  -30.6078  -16.8738   21.5000 C   0  0  0  0  0  0
  -29.0025  -22.8444   20.0707 C   0  0  0  0  0  0
  -28.7503  -21.5948   20.9770 C   0  0  0  0  0  0
  -28.5814  -25.3664   19.5867 C   0  0  0  0  0  0
  -28.5607  -24.2315   20.6602 C   0  0  2  0  0  0
  -29.2782  -20.2665   20.5602 N   0  0  0  0  0  0
  -30.0346  -15.5724   21.0937 N   0  0  0  0  0  0
  -31.4647  -12.4586   19.1255 H   0  0  0  0  0  0
  -30.3373  -11.3461   19.8638 H   0  0  0  0  0  0
  -29.7493  -11.7645   17.4534 H   0  0  0  0  0  0
  -29.6582  -13.4829   17.7593 H   0  0  0  0  0  0
  -27.8272  -11.3081   18.8333 H   0  0  0  0  0  0
  -27.3700  -12.6210   17.7876 H   0  0  0  0  0  0
  -27.6883  -14.2597   19.5527 H   0  0  0  0  0  0
  -28.6880  -12.0346   21.3803 H   0  0  0  0  0  0
  -28.4586  -13.6958   21.8403 H   0  0  0  0  0  0
  -25.2755   -9.5707   22.4750 H   0  0  0  0  0  0
  -24.0026   -7.4634   22.7455 H   0  0  0  0  0  0
  -21.0846   -8.8752   19.8940 H   0  0  0  0  0  0
  -22.3672  -10.9664   19.6160 H   0  0  0  0  0  0
  -21.1942   -7.6146   23.9710 H   0  0  0  0  0  0
  -21.1528   -6.0509   25.9086 H   0  0  0  0  0  0
  -22.0590   -2.7609   23.2805 H   0  0  0  0  0  0
  -22.4103  -11.9877   22.4821 H   0  0  0  0  0  0
  -21.1107  -13.1225   22.2614 H   0  0  0  0  0  0
  -24.6683  -15.8531   20.5331 H   0  0  0  0  0  0
  -26.2828  -15.6298   20.0907 H   0  0  0  0  0  0
  -26.7116  -32.5507   23.1135 H   0  0  0  0  0  0
  -25.0064  -33.9778   25.0466 H   0  0  0  0  0  0
  -22.6948  -31.3055   21.4130 H   0  0  0  0  0  0
  -23.3746  -35.9649   23.3313 H   0  0  0  0  0  0
  -24.3569  -36.8920   22.2055 H   0  0  0  0  0  0
  -23.7229  -37.6520   23.6644 H   0  0  0  0  0  0
  -26.0437  -31.5837   20.5857 H   0  0  0  0  0  0
  -26.8262  -30.8808   21.9734 H   0  0  0  0  0  0
  -28.0987  -29.0792   21.1453 H   0  0  0  0  0  0
  -25.9928  -25.9345   19.0483 H   0  0  0  0  0  0
  -23.9645  -27.2826   19.0547 H   0  0  0  0  0  0
  -23.7186  -30.5927   19.4048 H   0  0  0  0  0  0
  -22.7336  -29.2401   19.8726 H   0  0  0  0  0  0
  -25.1276  -36.1979   25.0835 H   0  0  0  0  0  0
  -20.9949  -28.3198   24.1458 H   0  0  0  0  0  0
  -20.5645  -26.2256   23.3598 H   0  0  0  0  0  0
  -21.6625  -26.7421   22.1226 H   0  0  0  0  0  0
  -19.6895  -25.6294   21.1237 H   0  0  0  0  0  0
  -19.6693  -27.3194   20.6751 H   0  0  0  0  0  0
  -17.4193  -26.6682   21.4015 H   0  0  0  0  0  0
  -18.0309  -26.0058   22.9004 H   0  0  0  0  0  0
  -19.7921  -30.7244   24.2305 H   0  0  0  0  0  0
  -17.5001  -31.6265   24.5146 H   0  0  0  0  0  0
  -15.5339  -30.2982   23.7643 H   0  0  0  0  0  0
  -15.8662  -28.0819   22.7061 H   0  0  0  0  0  0
  -24.5906  -30.7072   25.7823 H   0  0  0  0  0  0
  -24.8936  -32.2875   26.4944 H   0  0  0  0  0  0
  -25.8100  -30.8883   27.0230 H   0  0  0  0  0  0
  -26.2817  -29.6841   24.1142 H   0  0  0  0  0  0
  -27.4073  -29.7278   25.4523 H   0  0  0  0  0  0
  -27.8647  -30.4396   23.9213 H   0  0  0  0  0  0
  -27.2674  -33.3627   26.2080 H   0  0  0  0  0  0
  -28.3841  -32.6912   25.0295 H   0  0  0  0  0  0
  -28.0739  -31.8449   26.5376 H   0  0  0  0  0  0
  -28.2607  -38.0100   24.7509 H   0  0  0  0  0  0
  -28.1065  -36.2628   24.6287 H   0  0  0  0  0  0
  -27.2302  -37.1466   25.8872 H   0  0  0  0  0  0
  -20.9309  -29.8757   21.6978 H   0  0  0  0  0  0
  -26.0181  -38.2882   24.1416 H   0  0  0  0  0  0
  -29.7350  -19.5532   22.5282 H   0  0  0  0  0  0
  -29.2403  -16.6972   18.2439 H   0  0  0  0  0  0
  -30.9758  -16.8094   18.5405 H   0  0  0  0  0  0
  -30.2281  -17.8826   17.3761 H   0  0  0  0  0  0
  -29.0232  -19.7384   17.1700 H   0  0  0  0  0  0
  -29.5766  -21.2438   17.8549 H   0  0  0  0  0  0
  -27.9022  -20.7060   18.0961 H   0  0  0  0  0  0
  -29.3553  -23.9086   22.6826 H   0  0  0  0  0  0
  -29.1196  -25.5921   22.2752 H   0  0  0  0  0  0
  -30.4815  -24.7164   21.5870 H   0  0  0  0  0  0
  -30.4501  -16.9672   22.5749 H   0  0  0  0  0  0
  -31.6921  -16.8830   21.3634 H   0  0  0  0  0  0
  -28.4544  -22.7150   19.1404 H   0  0  0  0  0  0
  -30.0584  -22.8884   19.7986 H   0  0  0  0  0  0
  -27.6779  -21.4888   21.1468 H   0  0  0  0  0  0
  -29.1847  -21.8005   21.9540 H   0  0  0  0  0  0
  -27.8984  -25.1443   18.7695 H   0  0  0  0  0  0
  -29.5660  -25.3558   19.1171 H   0  0  0  0  0  0
  -27.5320  -24.1350   21.0088 H   0  0  0  0  0  0
  -29.0608  -15.4238   21.3161 H   0  0  0  0  0  0
  1 25  1  0  0  0
  1 30  2  0  0  0
  1 84  1  0  0  0
  2  3  1  0  0  0
  2 25  1  0  0  0
  2 85  1  0  0  0
  2 86  1  0  0  0
  3  4  1  0  0  0
  3 87  1  0  0  0
  3 88  1  0  0  0
  4  5  1  0  0  0
  4 89  1  0  0  0
  4 90  1  0  0  0
  5  6  1  0  0  0
  5 26  1  0  0  0
  5 91  1  0  0  0
  6 25  1  0  0  0
  6 92  1  0  0  0
  6 93  1  0  0  0
  7  8  2  0  0  0
  7 26  1  0  0  0
  7 29  1  0  0  0
  8  9  1  0  0  0
  8 22  1  0  0  0
  9 10  1  0  0  0
  9 27  2  0  0  0
 10 11  2  0  0  0
 10 15  1  0  0  0
 11 12  1  0  0  0
 11 94  1  0  0  0
 12 13  2  0  0  0
 12 95  1  0  0  0
 13 14  1  0  0  0
 13 31  1  0  0  0
 14 15  2  0  0  0
 14 96  1  0  0  0
 15 97  1  0  0  0
 16 17  2  0  0  0
 16 21  1  0  0  0
 16 31  1  0  0  0
 17 18  1  0  0  0
 17 98  1  0  0  0
 18 19  2  0  0  0
 18 99  1  0  0  0
 19 20  1  0  0  0
 19 24  1  0  0  0
 20 21  2  0  0  0
 20100  1  0  0  0
 21 23  1  0  0  0
 22 28  1  0  0  0
 22 32  2  0  0  0
 26 27  1  0  0  0
 28101  1  0  0  0
 28102  1  0  0  0
 29103  1  0  0  0
 29104  1  0  0  0
 33 34  1  0  0  0
 33 66  1  0  0  0
 33 70  2  0  0  0
 34 36  1  0  0  0
 34 59  1  0  0  0
 34105  1  0  0  0
 35 44  2  0  0  0
 35 45  1  0  0  0
 35 68  1  0  0  0
 36 56  1  0  0  0
 36106  1  0  0  0
 37 39  1  0  0  0
 37 47  1  0  0  0
 37 66  1  0  0  0
 37107  1  0  0  0
 38 43  2  0  0  0
 38 46  1  0  0  0
 38 47  1  0  0  0
 39 64  1  0  0  0
 39 67  2  0  0  0
 40 52  1  0  0  0
 40 53  2  0  0  0
 40 58  1  0  0  0
 41108  1  0  0  0
 41109  1  0  0  0
 41110  1  0  0  0
 41 48  1  0  0  0
 42 43  1  0  0  0
 42 66  1  0  0  0
 42111  1  0  0  0
 42112  1  0  0  0
 43 44  1  0  0  0
 44113  1  0  0  0
 45 46  2  0  0  0
 45114  1  0  0  0
 46115  1  0  0  0
 47116  1  0  0  0
 47117  1  0  0  0
 48 56  1  0  0  0
 48 65  1  0  0  0
 48118  1  0  0  0
 49 50  1  0  0  0
 49 53  1  0  0  0
 49 64  1  0  0  0
 49119  1  0  0  0
 50 51  1  0  0  0
 50120  1  0  0  0
 50121  1  0  0  0
 51 52  1  0  0  0
 51122  1  0  0  0
 51123  1  0  0  0
 52124  1  0  0  0
 52125  1  0  0  0
 53 54  1  0  0  0
 54 55  2  0  0  0
 54126  1  0  0  0
 55 57  1  0  0  0
 55127  1  0  0  0
 56 69  2  0  0  0
 57 58  2  0  0  0
 57128  1  0  0  0
 58129  1  0  0  0
 59 60  1  0  0  0
 59 61  1  0  0  0
 59 62  1  0  0  0
 60130  1  0  0  0
 60131  1  0  0  0
 60132  1  0  0  0
 61133  1  0  0  0
 61134  1  0  0  0
 61135  1  0  0  0
 62136  1  0  0  0
 62137  1  0  0  0
 62138  1  0  0  0
 63 65  1  0  0  0
 63139  1  0  0  0
 63140  1  0  0  0
 63141  1  0  0  0
 64142  1  0  0  0
 65143  1  0  0  0
 68 81  1  0  0  0
 71 72  2  0  0  0
 71 83  1  0  0  0
 71144  1  0  0  0
 72 73  1  0  0  0
 72 78  1  0  0  0
 73 74  2  0  0  0
 73 75  1  0  0  0
 74 76  1  0  0  0
 74 83  1  0  0  0
 75145  1  0  0  0
 75146  1  0  0  0
 75147  1  0  0  0
 76148  1  0  0  0
 76149  1  0  0  0
 76150  1  0  0  0
 77151  1  0  0  0
 77152  1  0  0  0
 77153  1  0  0  0
 77 82  1  0  0  0
 78 84  1  0  0  0
 78154  1  0  0  0
 78155  1  0  0  0
 79 80  1  0  0  0
 79 82  1  0  0  0
 79156  1  0  0  0
 79157  1  0  0  0
 80 83  1  0  0  0
 80158  1  0  0  0
 80159  1  0  0  0
 81 82  1  0  0  0
 81160  1  0  0  0
 81161  1  0  0  0
 82162  1  0  0  0
 84163  1  0  0  0
M  ISO  4   1 100  68 101  81 101  84 100
M  END
> <chiral flag>
0

> <version>
0

> <s_m_source_file>
/data/baiqing/PycharmProjects/Reinvent-master-3.2/result/LINK_invent/BTK/process_docking_weight1_custom_sum_contain_oxygen_bond_distance_aromatic_linkinvent_7_9_3/rearranged_h_0098.sdf

> <i_m_source_file_index>
1

> <r_mmod_Potential_Energy-OPLS-2005>
-115.027374267578

> <r_mmod_Stretch_Energy-OPLS-2005>
45.3901901245117

> <r_mmod_Bend_Energy-OPLS-2005>
130.101776123047

> <r_mmod_Torsional_Energy-OPLS-2005>
206.969253540039

> <r_mmod_Improper_Torsional_Energy-OPLS-2005>
3.02728390693665

> <r_mmod_Van_der_Waal_Energy-OPLS-2005>
124.27571105957

> <r_mmod_Electrostatic_Energy-OPLS-2005>
-437.075378417969

> <r_mmod_Solvation_Energy-OPLS-2005>
-207.731399536133

> <b_mmod_Minimization_Converged-OPLS-2005>
0

> <r_mmod_RMS_Derivative-OPLS-2005>
3.37401652336121

$$$$
1
                    3D
 Structure written by MMmdl.
164172  0  0  1  0            999 V2000
  -30.6695  -14.5295   20.4771 C   0  0  0  0  0  0
  -30.4878  -12.3154   19.4408 C   0  0  0  0  0  0
  -29.5520  -12.4926   18.2199 C   0  0  0  0  0  0
  -28.0691  -12.3348   18.6394 C   0  0  0  0  0  0
  -27.6970  -13.1864   19.8875 C   0  0  2  0  0  0
  -28.7544  -12.9579   20.9989 C   0  0  0  0  0  0
  -25.2920  -13.8130   20.5686 C   0  0  0  0  0  0
  -24.2056  -13.0542   20.9113 C   0  0  0  0  0  0
  -24.6513  -11.6966   20.8719 C   0  0  0  0  0  0
  -23.9090  -10.4372   21.0420 C   0  0  0  0  0  0
  -24.3607   -9.4266   21.9191 C   0  0  0  0  0  0
  -23.6305   -8.2285   22.0725 C   0  0  0  0  0  0
  -22.4303   -8.0296   21.3511 C   0  0  0  0  0  0
  -21.9945   -9.0288   20.4623 C   0  0  0  0  0  0
  -22.7250  -10.2215   20.3068 C   0  0  0  0  0  0
  -21.6800   -6.0761   22.5296 C   0  0  0  0  0  0
  -21.3956   -6.5647   23.8251 C   0  0  0  0  0  0
  -21.3648   -5.6759   24.9217 C   0  0  0  0  0  0
  -21.6137   -4.3041   24.7227 C   0  0  0  0  0  0
  -21.8807   -3.8172   23.4332 C   0  0  0  0  0  0
  -21.9214   -4.7005   22.3436 C   0  0  0  0  0  0
  -22.8140  -13.5442   21.1725 C   0  0  0  0  0  0
  -22.1652   -4.2151   21.0992 F   0  0  0  0  0  0
  -21.5675   -3.4563   25.7770 F   0  0  0  0  0  0
  -30.0805  -13.3000   20.4621 N   0  0  0  0  0  0
  -26.3317  -12.9191   20.3482 N   0  0  0  0  0  0
  -25.9460  -11.6395   20.5814 N   0  0  0  0  0  0
  -22.0692  -12.8394   22.0170 N   0  0  0  0  0  0
  -25.5000  -15.1739   20.3991 N   0  0  0  0  0  0
  -31.7537  -14.7398   19.9388 O   0  0  0  0  0  0
  -21.6659   -6.8898   21.4226 O   0  0  0  0  0  0
  -22.3913  -14.5800   20.6612 O   0  0  0  0  0  0
  -24.6314  -31.8774   23.2040 C   0  0  0  0  0  0
  -25.9183  -32.4794   23.8367 C   0  0  1  0  0  0
  -27.2661  -27.4335   20.0970 C   0  0  0  0  0  0
  -25.5994  -33.8531   24.2328 N   0  0  0  0  0  0
  -23.4380  -30.4968   21.5694 C   0  0  2  0  0  0
  -24.8709  -28.9539   20.1257 C   0  0  0  0  0  0
  -22.7812  -29.4837   22.5297 C   0  0  0  0  0  0
  -17.9998  -28.1453   22.8474 C   0  0  0  0  0  0
  -24.1492  -36.7300   23.2618 C   0  0  0  0  0  0
  -25.9609  -30.8266   21.3728 C   0  0  0  0  0  0
  -26.0340  -29.4698   20.7126 C   0  0  0  0  0  0
  -27.2331  -28.7184   20.6902 C   0  0  0  0  0  0
  -26.0880  -26.9472   19.4969 C   0  0  0  0  0  0
  -24.8943  -27.6904   19.5077 C   0  0  0  0  0  0
  -23.6267  -29.8156   20.1853 C   0  0  0  0  0  0
  -25.4115  -36.3031   24.0287 C   0  0  1  0  0  0
  -20.4894  -28.4540   22.7890 C   0  0  2  0  0  0
  -20.6874  -26.9509   22.5985 C   0  0  0  0  0  0
  -19.5848  -26.4405   21.6467 C   0  0  0  0  0  0
  -18.1604  -26.7919   22.1470 C   0  0  0  0  0  0
  -19.1252  -28.9008   23.2518 C   0  0  0  0  0  0
  -18.9474  -30.1397   23.9025 C   0  0  0  0  0  0
  -17.6509  -30.6445   24.1152 C   0  0  0  0  0  0
  -25.9074  -34.9376   23.5060 C   0  0  0  0  0  0
  -16.5328  -29.9142   23.6775 C   0  0  0  0  0  0
  -16.7065  -28.6683   23.0539 C   0  0  0  0  0  0
  -26.4522  -31.6589   25.0749 C   0  0  0  0  0  0
  -25.3778  -31.3735   26.1487 C   0  0  0  0  0  0
  -27.0337  -30.2998   24.6210 C   0  0  0  0  0  0
  -27.6055  -32.4300   25.7630 C   0  0  0  0  0  0
  -27.5571  -37.1807   24.8456 C   0  0  0  0  0  0
  -21.4661  -29.4340   22.3991 N   0  0  0  0  0  0
  -26.4297  -37.3760   23.9340 N   0  0  0  0  0  0
  -24.6992  -31.0729   22.1082 N   0  0  0  0  0  0
  -23.4246  -28.7641   23.2915 O   0  0  0  0  0  0
  -28.4261  -26.6660   20.0998 O   0  0  0  0  0  0
  -26.5630  -34.8908   22.4609 O   0  0  0  0  0  0
  -23.5480  -32.1496   23.7462 O   0  0  0  0  0  0
  -29.6799  -20.5821   20.3440 C   0  0  0  0  0  0
  -27.6781  -21.8803   20.7310 C   0  0  0  0  0  0
  -29.0125  -21.8545   20.3101 C   0  0  0  0  0  0
  -28.9605  -19.4027   20.7418 C   0  0  0  0  0  0
  -27.5738  -19.5831   20.9990 C   0  0  0  0  0  0
  -25.2580  -18.6902   20.6523 C   0  0  0  0  0  0
  -26.4324  -18.4614   22.9196 C   0  0  0  0  0  0
  -29.6204  -23.1832   19.7926 C   0  0  0  0  0  0
  -29.6832  -18.0685   21.1114 C   0  0  0  0  0  0
  -29.5663  -24.4610   20.7055 C   0  0  0  0  0  0
  -29.7328  -16.8391   20.1550 C   0  0  0  0  0  0
  -28.2802  -25.3490   20.6728 C   0  0  0  0  0  0
  -26.6007  -18.4753   21.3913 C   0  0  0  0  0  0
  -26.9934  -20.7919   21.0538 N   0  0  0  0  0  0
  -29.9116  -15.5635   20.9135 N   0  0  0  0  0  0
  -31.5294  -12.4295   19.1323 H   0  0  0  0  0  0
  -30.4257  -11.2984   19.8292 H   0  0  0  0  0  0
  -29.8172  -11.7636   17.4501 H   0  0  0  0  0  0
  -29.7222  -13.4764   17.7737 H   0  0  0  0  0  0
  -27.9193  -11.2794   18.8659 H   0  0  0  0  0  0
  -27.4172  -12.5592   17.7985 H   0  0  0  0  0  0
  -27.7403  -14.2329   19.5824 H   0  0  0  0  0  0
  -28.7647  -11.9052   21.2880 H   0  0  0  0  0  0
  -28.5317  -13.5116   21.9103 H   0  0  0  0  0  0
  -25.2748   -9.5863   22.4749 H   0  0  0  0  0  0
  -24.0098   -7.4725   22.7451 H   0  0  0  0  0  0
  -21.0921   -8.8874   19.8883 H   0  0  0  0  0  0
  -22.3732  -10.9795   19.6216 H   0  0  0  0  0  0
  -21.1778   -7.6116   23.9722 H   0  0  0  0  0  0
  -21.1511   -6.0515   25.9112 H   0  0  0  0  0  0
  -22.0583   -2.7609   23.2895 H   0  0  0  0  0  0
  -22.4324  -11.9995   22.4424 H   0  0  0  0  0  0
  -21.1377  -13.1499   22.2397 H   0  0  0  0  0  0
  -24.7728  -15.8719   20.4805 H   0  0  0  0  0  0
  -26.3671  -15.5342   20.0267 H   0  0  0  0  0  0
  -26.7314  -32.5506   23.1174 H   0  0  0  0  0  0
  -25.0080  -33.9769   25.0440 H   0  0  0  0  0  0
  -22.7448  -31.3290   21.4168 H   0  0  0  0  0  0
  -23.3719  -35.9685   23.3280 H   0  0  0  0  0  0
  -24.3608  -36.8912   22.2046 H   0  0  0  0  0  0
  -23.7341  -37.6526   23.6672 H   0  0  0  0  0  0
  -26.0962  -31.6007   20.6166 H   0  0  0  0  0  0
  -26.8325  -30.8498   22.0081 H   0  0  0  0  0  0
  -28.1269  -29.1194   21.1416 H   0  0  0  0  0  0
  -26.0881  -25.9895   18.9862 H   0  0  0  0  0  0
  -24.0019  -27.2701   19.0643 H   0  0  0  0  0  0
  -23.7106  -30.5781   19.4080 H   0  0  0  0  0  0
  -22.7505  -29.2217   19.9129 H   0  0  0  0  0  0
  -25.1322  -36.1844   25.0802 H   0  0  0  0  0  0
  -20.1963  -28.6511   21.7596 H   0  0  0  0  0  0
  -20.5822  -26.4527   23.5623 H   0  0  0  0  0  0
  -21.6773  -26.7178   22.2174 H   0  0  0  0  0  0
  -19.6807  -25.3640   21.4904 H   0  0  0  0  0  0
  -19.7340  -26.8817   20.6580 H   0  0  0  0  0  0
  -17.4674  -26.7515   21.2955 H   0  0  0  0  0  0
  -17.8422  -26.0260   22.8552 H   0  0  0  0  0  0
  -19.7931  -30.7410   24.2004 H   0  0  0  0  0  0
  -17.5135  -31.6058   24.5932 H   0  0  0  0  0  0
  -15.5406  -30.3257   23.8127 H   0  0  0  0  0  0
  -15.8428  -28.1230   22.6951 H   0  0  0  0  0  0
  -24.5925  -30.7109   25.7827 H   0  0  0  0  0  0
  -24.9023  -32.2931   26.4908 H   0  0  0  0  0  0
  -25.8106  -30.8914   27.0263 H   0  0  0  0  0  0
  -26.2905  -29.6799   24.1163 H   0  0  0  0  0  0
  -27.3959  -29.7178   25.4692 H   0  0  0  0  0  0
  -27.8817  -30.4215   23.9464 H   0  0  0  0  0  0
  -27.2566  -33.3538   26.2258 H   0  0  0  0  0  0
  -28.3909  -32.6936   25.0534 H   0  0  0  0  0  0
  -28.0683  -31.8374   26.5548 H   0  0  0  0  0  0
  -28.2584  -38.0140   24.7472 H   0  0  0  0  0  0
  -28.1098  -36.2604   24.6299 H   0  0  0  0  0  0
  -27.2270  -37.1481   25.8896 H   0  0  0  0  0  0
  -21.0992  -30.1503   21.7904 H   0  0  0  0  0  0
  -26.0116  -38.2804   24.1397 H   0  0  0  0  0  0
  -30.7277  -20.5126   20.0694 H   0  0  0  0  0  0
  -27.1046  -22.7888   20.7929 H   0  0  0  0  0  0
  -25.4189  -18.6861   19.5768 H   0  0  0  0  0  0
  -24.8068  -19.6548   20.8889 H   0  0  0  0  0  0
  -24.5062  -17.9396   20.8881 H   0  0  0  0  0  0
  -27.4070  -18.5020   23.4076 H   0  0  0  0  0  0
  -25.9089  -17.5762   23.2874 H   0  0  0  0  0  0
  -25.8815  -19.3393   23.2509 H   0  0  0  0  0  0
  -29.1300  -23.4217   18.8487 H   0  0  0  0  0  0
  -30.6576  -22.9910   19.5336 H   0  0  0  0  0  0
  -29.2312  -17.7138   22.0363 H   0  0  0  0  0  0
  -30.7072  -18.2962   21.4102 H   0  0  0  0  0  0
  -30.3777  -25.1156   20.3809 H   0  0  0  0  0  0
  -29.8184  -24.2009   21.7403 H   0  0  0  0  0  0
  -30.5322  -16.9913   19.4169 H   0  0  0  0  0  0
  -28.8228  -16.7627   19.5451 H   0  0  0  0  0  0
  -27.9567  -25.5129   21.7107 H   0  0  0  0  0  0
  -27.4905  -24.8024   20.1613 H   0  0  0  0  0  0
  -27.0001  -17.5120   21.0700 H   0  0  0  0  0  0
  -29.2536  -15.3508   21.6862 H   0  0  0  0  0  0
  1 25  1  0  0  0
  1 30  2  0  0  0
  1 85  1  0  0  0
  2  3  1  0  0  0
  2 25  1  0  0  0
  2 86  1  0  0  0
  2 87  1  0  0  0
  3  4  1  0  0  0
  3 88  1  0  0  0
  3 89  1  0  0  0
  4  5  1  0  0  0
  4 90  1  0  0  0
  4 91  1  0  0  0
  5  6  1  0  0  0
  5 26  1  0  0  0
  5 92  1  0  0  0
  6 25  1  0  0  0
  6 93  1  0  0  0
  6 94  1  0  0  0
  7  8  2  0  0  0
  7 26  1  0  0  0
  7 29  1  0  0  0
  8  9  1  0  0  0
  8 22  1  0  0  0
  9 10  1  0  0  0
  9 27  2  0  0  0
 10 11  2  0  0  0
 10 15  1  0  0  0
 11 12  1  0  0  0
 11 95  1  0  0  0
 12 13  2  0  0  0
 12 96  1  0  0  0
 13 14  1  0  0  0
 13 31  1  0  0  0
 14 15  2  0  0  0
 14 97  1  0  0  0
 15 98  1  0  0  0
 16 17  2  0  0  0
 16 21  1  0  0  0
 16 31  1  0  0  0
 17 18  1  0  0  0
 17 99  1  0  0  0
 18 19  2  0  0  0
 18100  1  0  0  0
 19 20  1  0  0  0
 19 24  1  0  0  0
 20 21  2  0  0  0
 20101  1  0  0  0
 21 23  1  0  0  0
 22 28  1  0  0  0
 22 32  2  0  0  0
 26 27  1  0  0  0
 28102  1  0  0  0
 28103  1  0  0  0
 29104  1  0  0  0
 29105  1  0  0  0
 33 34  1  0  0  0
 33 66  1  0  0  0
 33 70  2  0  0  0
 34 36  1  0  0  0
 34 59  1  0  0  0
 34106  1  0  0  0
 35 44  2  0  0  0
 35 45  1  0  0  0
 35 68  1  0  0  0
 36 56  1  0  0  0
 36107  1  0  0  0
 37 39  1  0  0  0
 37 47  1  0  0  0
 37 66  1  0  0  0
 37108  1  0  0  0
 38 43  2  0  0  0
 38 46  1  0  0  0
 38 47  1  0  0  0
 39 64  1  0  0  0
 39 67  2  0  0  0
 40 52  1  0  0  0
 40 53  2  0  0  0
 40 58  1  0  0  0
 41109  1  0  0  0
 41110  1  0  0  0
 41111  1  0  0  0
 41 48  1  0  0  0
 42 43  1  0  0  0
 42 66  1  0  0  0
 42112  1  0  0  0
 42113  1  0  0  0
 43 44  1  0  0  0
 44114  1  0  0  0
 45 46  2  0  0  0
 45115  1  0  0  0
 46116  1  0  0  0
 47117  1  0  0  0
 47118  1  0  0  0
 48 56  1  0  0  0
 48 65  1  0  0  0
 48119  1  0  0  0
 49 50  1  0  0  0
 49 53  1  0  0  0
 49 64  1  0  0  0
 49120  1  0  0  0
 50 51  1  0  0  0
 50121  1  0  0  0
 50122  1  0  0  0
 51 52  1  0  0  0
 51123  1  0  0  0
 51124  1  0  0  0
 52125  1  0  0  0
 52126  1  0  0  0
 53 54  1  0  0  0
 54 55  2  0  0  0
 54127  1  0  0  0
 55 57  1  0  0  0
 55128  1  0  0  0
 56 69  2  0  0  0
 57 58  2  0  0  0
 57129  1  0  0  0
 58130  1  0  0  0
 59 60  1  0  0  0
 59 61  1  0  0  0
 59 62  1  0  0  0
 60131  1  0  0  0
 60132  1  0  0  0
 60133  1  0  0  0
 61134  1  0  0  0
 61135  1  0  0  0
 61136  1  0  0  0
 62137  1  0  0  0
 62138  1  0  0  0
 62139  1  0  0  0
 63 65  1  0  0  0
 63140  1  0  0  0
 63141  1  0  0  0
 63142  1  0  0  0
 64143  1  0  0  0
 65144  1  0  0  0
 68 82  1  0  0  0
 71 73  2  0  0  0
 71 74  1  0  0  0
 71145  1  0  0  0
 72 73  1  0  0  0
 72 84  2  0  0  0
 72146  1  0  0  0
 73 78  1  0  0  0
 74 75  2  0  0  0
 74 79  1  0  0  0
 75 83  1  0  0  0
 75 84  1  0  0  0
 76147  1  0  0  0
 76148  1  0  0  0
 76149  1  0  0  0
 76 83  1  0  0  0
 77 83  1  0  0  0
 77150  1  0  0  0
 77151  1  0  0  0
 77152  1  0  0  0
 78 80  1  0  0  0
 78153  1  0  0  0
 78154  1  0  0  0
 79 81  1  0  0  0
 79155  1  0  0  0
 79156  1  0  0  0
 80 82  1  0  0  0
 80157  1  0  0  0
 80158  1  0  0  0
 81 85  1  0  0  0
 81159  1  0  0  0
 81160  1  0  0  0
 82161  1  0  0  0
 82162  1  0  0  0
 83163  1  0  0  0
 85164  1  0  0  0
M  ISO  4   1 100  68 101  82 101  85 100
M  END
> <chiral flag>
0

> <version>
0

> <s_m_source_file>
/data/baiqing/PycharmProjects/Reinvent-master-3.2/result/LINK_invent/BTK/process_docking_weight1_custom_sum_contain_oxygen_bond_distance_aromatic_linkinvent_7_9_3/rearranged_h_0098.sdf

> <i_m_source_file_index>
2

> <r_mmod_Potential_Energy-OPLS-2005>
-3.9328465461731

> <r_mmod_Stretch_Energy-OPLS-2005>
55.4225387573242

> <r_mmod_Bend_Energy-OPLS-2005>
233.307769775391

> <r_mmod_Torsional_Energy-OPLS-2005>
276.028594970703

> <r_mmod_Improper_Torsional_Energy-OPLS-2005>
9.37558269500732

> <r_mmod_Van_der_Waal_Energy-OPLS-2005>
158.752105712891

> <r_mmod_Electrostatic_Energy-OPLS-2005>
-559.960876464844

> <r_mmod_Solvation_Energy-OPLS-2005>
-221.244705200195

> <b_mmod_Minimization_Converged-OPLS-2005>
0

> <r_mmod_RMS_Derivative-OPLS-2005>
17.8269443511963

$$$$
2
                    3D
 Structure written by MMmdl.
168176  0  0  1  0            999 V2000
  -30.6753  -14.4646   20.4694 C   0  0  0  0  0  0
  -30.4206  -12.2662   19.4410 C   0  0  0  0  0  0
  -29.5019  -12.4740   18.2172 C   0  0  0  0  0  0
  -28.0196  -12.3431   18.6237 C   0  0  0  0  0  0
  -27.6597  -13.1932   19.8714 C   0  0  2  0  0  0
  -28.7021  -13.0000   21.0012 C   0  0  0  0  0  0
  -25.2615  -13.8113   20.5704 C   0  0  0  0  0  0
  -24.1853  -13.0412   20.9198 C   0  0  0  0  0  0
  -24.6386  -11.6871   20.8725 C   0  0  0  0  0  0
  -23.9040  -10.4266   21.0387 C   0  0  0  0  0  0
  -24.3603   -9.4182   21.9165 C   0  0  0  0  0  0
  -23.6291   -8.2223   22.0740 C   0  0  0  0  0  0
  -22.4275   -8.0258   21.3536 C   0  0  0  0  0  0
  -21.9902   -9.0218   20.4631 C   0  0  0  0  0  0
  -22.7215  -10.2106   20.3032 C   0  0  0  0  0  0
  -21.6850   -6.0723   22.5269 C   0  0  0  0  0  0
  -21.3998   -6.5627   23.8203 C   0  0  0  0  0  0
  -21.3666   -5.6784   24.9169 C   0  0  0  0  0  0
  -21.6056   -4.3051   24.7220 C   0  0  0  0  0  0
  -21.8815   -3.8144   23.4337 C   0  0  0  0  0  0
  -21.9196   -4.6954   22.3391 C   0  0  0  0  0  0
  -22.7883  -13.5222   21.1867 C   0  0  0  0  0  0
  -22.1666   -4.2140   21.0969 F   0  0  0  0  0  0
  -21.5643   -3.4533   25.7740 F   0  0  0  0  0  0
  -30.0382  -13.2670   20.4465 N   0  0  0  0  0  0
  -26.3021  -12.9248   20.3362 N   0  0  0  0  0  0
  -25.9312  -11.6418   20.5767 N   0  0  0  0  0  0
  -22.0540  -12.8209   22.0422 N   0  0  0  0  0  0
  -25.4357  -15.1836   20.4099 N   0  0  0  0  0  0
  -31.8487  -14.6205   20.1218 O   0  0  0  0  0  0
  -21.6644   -6.8854   21.4231 O   0  0  0  0  0  0
  -22.3557  -14.5528   20.6722 O   0  0  0  0  0  0
  -24.6124  -31.8691   23.2117 C   0  0  0  0  0  0
  -25.9026  -32.4823   23.8399 C   0  0  1  0  0  0
  -27.2285  -27.4456   20.0911 C   0  0  0  0  0  0
  -25.5904  -33.8621   24.2334 N   0  0  0  0  0  0
  -23.3976  -30.4929   21.5545 C   0  0  2  0  0  0
  -24.8399  -28.9639   20.1162 C   0  0  0  0  0  0
  -22.7384  -29.4655   22.5027 C   0  0  0  0  0  0
  -18.0262  -28.1368   22.8496 C   0  0  0  0  0  0
  -24.1487  -36.7320   23.2637 C   0  0  0  0  0  0
  -25.9261  -30.8367   21.3632 C   0  0  0  0  0  0
  -26.0010  -29.4741   20.7086 C   0  0  0  0  0  0
  -27.1975  -28.7232   20.6916 C   0  0  0  0  0  0
  -26.0434  -26.9484   19.4940 C   0  0  0  0  0  0
  -24.8555  -27.6993   19.5062 C   0  0  0  0  0  0
  -23.6006  -29.8247   20.1689 C   0  0  0  0  0  0
  -25.4109  -36.3112   24.0334 C   0  0  1  0  0  0
  -20.5846  -28.3645   23.1331 C   0  0  2  0  0  0
  -20.6753  -26.9387   22.5421 C   0  0  0  0  0  0
  -19.5742  -26.6370   21.5212 C   0  0  0  0  0  0
  -18.1909  -26.7919   22.1609 C   0  0  0  0  0  0
  -19.1511  -28.8825   23.2906 C   0  0  0  0  0  0
  -18.9439  -30.1437   23.8904 C   0  0  0  0  0  0
  -17.6442  -30.6576   24.0560 C   0  0  0  0  0  0
  -25.9035  -34.9474   23.5130 C   0  0  0  0  0  0
  -16.5334  -29.9069   23.6336 C   0  0  0  0  0  0
  -16.7250  -28.6486   23.0357 C   0  0  0  0  0  0
  -26.4464  -31.6587   25.0716 C   0  0  0  0  0  0
  -25.3747  -31.3671   26.1471 C   0  0  0  0  0  0
  -27.0283  -30.3028   24.6077 C   0  0  0  0  0  0
  -27.6033  -32.4302   25.7497 C   0  0  0  0  0  0
  -27.5583  -37.1807   24.8457 C   0  0  0  0  0  0
  -21.4118  -29.3027   22.3752 N   0  0  0  0  0  0
  -26.4296  -37.3791   23.9400 N   0  0  0  0  0  0
  -24.6636  -31.0794   22.1018 N   0  0  0  0  0  0
  -23.4171  -28.8207   23.3063 O   0  0  0  0  0  0
  -28.4090  -26.7294   20.1044 O   0  0  0  0  0  0
  -26.5594  -34.8917   22.4690 O   0  0  0  0  0  0
  -23.5325  -32.1447   23.7523 O   0  0  0  0  0  0
  -28.6657  -22.4526   19.2151 C   0  0  0  0  0  0
  -31.0111  -22.4652   20.1931 C   0  0  0  0  0  0
  -28.7133  -20.9178   19.1879 C   0  0  0  0  0  0
  -31.0287  -20.9254   20.1045 C   0  0  0  0  0  0
  -29.5887  -23.0665   20.2898 C   0  0  1  0  0  0
  -30.1555  -20.4266   18.9313 C   0  0  1  0  0  0
  -31.7411  -18.6757   18.0354 C   0  0  0  0  0  0
  -29.3521  -18.5783   17.3887 C   0  0  0  0  0  0
  -29.6516  -24.6154   20.2107 C   0  0  0  0  0  0
  -30.0446  -17.9629   19.7872 C   0  0  0  0  0  0
  -29.8142  -16.4833   19.3972 C   0  0  0  0  0  0
  -28.2939  -25.3087   20.0074 C   0  0  0  0  0  0
  -30.3057  -18.9071   18.5668 C   0  0  0  0  0  0
  -29.8322  -15.5094   20.4978 N   0  0  0  0  0  0
  -31.4693  -12.3459   19.1493 H   0  0  0  0  0  0
  -30.3005  -11.2604   19.8471 H   0  0  0  0  0  0
  -29.7437  -11.7502   17.4382 H   0  0  0  0  0  0
  -29.6790  -13.4598   17.7834 H   0  0  0  0  0  0
  -27.8293  -11.2890   18.8279 H   0  0  0  0  0  0
  -27.3725  -12.6101   17.7868 H   0  0  0  0  0  0
  -27.6864  -14.2326   19.5499 H   0  0  0  0  0  0
  -28.6653  -11.9803   21.3860 H   0  0  0  0  0  0
  -28.4870  -13.6497   21.8518 H   0  0  0  0  0  0
  -25.2745   -9.5668   22.4747 H   0  0  0  0  0  0
  -24.0007   -7.4608   22.7455 H   0  0  0  0  0  0
  -21.0842   -8.8705   19.8935 H   0  0  0  0  0  0
  -22.3660  -10.9638   19.6139 H   0  0  0  0  0  0
  -21.1963   -7.6132   23.9707 H   0  0  0  0  0  0
  -21.1507   -6.0515   25.9076 H   0  0  0  0  0  0
  -22.0601   -2.7615   23.2839 H   0  0  0  0  0  0
  -22.4179  -11.9837   22.4738 H   0  0  0  0  0  0
  -21.1152  -13.1188   22.2654 H   0  0  0  0  0  0
  -24.6666  -15.8370   20.5113 H   0  0  0  0  0  0
  -26.2809  -15.6233   20.0714 H   0  0  0  0  0  0
  -26.7095  -32.5520   23.1157 H   0  0  0  0  0  0
  -25.0076  -33.9799   25.0494 H   0  0  0  0  0  0
  -22.6859  -31.3095   21.4165 H   0  0  0  0  0  0
  -23.3740  -35.9659   23.3294 H   0  0  0  0  0  0
  -24.3592  -36.8943   22.2053 H   0  0  0  0  0  0
  -23.7245  -37.6523   23.6665 H   0  0  0  0  0  0
  -26.0370  -31.6031   20.5951 H   0  0  0  0  0  0
  -26.8149  -30.8881   21.9793 H   0  0  0  0  0  0
  -28.0942  -29.1144   21.1518 H   0  0  0  0  0  0
  -26.0079  -25.9869   19.0062 H   0  0  0  0  0  0
  -23.9637  -27.2991   19.0434 H   0  0  0  0  0  0
  -23.6980  -30.5971   19.4052 H   0  0  0  0  0  0
  -22.7269  -29.2366   19.8814 H   0  0  0  0  0  0
  -25.1294  -36.1980   25.0830 H   0  0  0  0  0  0
  -20.9933  -28.3196   24.1453 H   0  0  0  0  0  0
  -20.5656  -26.2253   23.3605 H   0  0  0  0  0  0
  -21.6626  -26.7438   22.1205 H   0  0  0  0  0  0
  -19.6897  -25.6281   21.1240 H   0  0  0  0  0  0
  -19.6698  -27.3180   20.6748 H   0  0  0  0  0  0
  -17.4203  -26.6701   21.3983 H   0  0  0  0  0  0
  -18.0273  -26.0039   22.8974 H   0  0  0  0  0  0
  -19.7918  -30.7257   24.2262 H   0  0  0  0  0  0
  -17.4993  -31.6266   24.5137 H   0  0  0  0  0  0
  -15.5331  -30.2973   23.7662 H   0  0  0  0  0  0
  -15.8644  -28.0804   22.7079 H   0  0  0  0  0  0
  -24.5959  -30.6968   25.7820 H   0  0  0  0  0  0
  -24.8897  -32.2812   26.4905 H   0  0  0  0  0  0
  -25.8124  -30.8876   27.0237 H   0  0  0  0  0  0
  -26.2813  -29.6794   24.1147 H   0  0  0  0  0  0
  -27.4070  -29.7253   25.4521 H   0  0  0  0  0  0
  -27.8642  -30.4342   23.9200 H   0  0  0  0  0  0
  -27.2630  -33.3564   26.2136 H   0  0  0  0  0  0
  -28.3823  -32.6921   25.0325 H   0  0  0  0  0  0
  -28.0721  -31.8393   26.5372 H   0  0  0  0  0  0
  -28.2596  -38.0109   24.7513 H   0  0  0  0  0  0
  -28.1097  -36.2645   24.6284 H   0  0  0  0  0  0
  -27.2306  -37.1434   25.8861 H   0  0  0  0  0  0
  -20.9270  -29.8769   21.6999 H   0  0  0  0  0  0
  -26.0187  -38.2870   24.1406 H   0  0  0  0  0  0
  -27.6320  -22.7564   19.3865 H   0  0  0  0  0  0
  -28.9421  -22.8368   18.2318 H   0  0  0  0  0  0
  -31.5143  -22.8631   19.3096 H   0  0  0  0  0  0
  -31.6080  -22.7875   21.0472 H   0  0  0  0  0  0
  -28.0268  -20.5895   18.4096 H   0  0  0  0  0  0
  -28.3316  -20.5116   20.1256 H   0  0  0  0  0  0
  -30.6795  -20.4964   21.0437 H   0  0  0  0  0  0
  -32.0618  -20.6026   19.9894 H   0  0  0  0  0  0
  -29.1738  -22.7943   21.2611 H   0  0  0  0  0  0
  -30.4958  -20.9672   18.0451 H   0  0  0  0  0  0
  -31.9897  -19.3767   17.2377 H   0  0  0  0  0  0
  -31.8741  -17.6761   17.6208 H   0  0  0  0  0  0
  -32.4952  -18.7901   18.8131 H   0  0  0  0  0  0
  -29.4306  -19.3203   16.5931 H   0  0  0  0  0  0
  -28.3089  -18.5352   17.6991 H   0  0  0  0  0  0
  -29.5776  -17.6155   16.9301 H   0  0  0  0  0  0
  -30.3062  -24.9152   19.3920 H   0  0  0  0  0  0
  -30.1147  -24.9957   21.1221 H   0  0  0  0  0  0
  -30.8866  -18.0282   20.4775 H   0  0  0  0  0  0
  -29.1771  -18.3102   20.3469 H   0  0  0  0  0  0
  -30.5168  -16.1865   18.6184 H   0  0  0  0  0  0
  -28.8322  -16.3939   18.9307 H   0  0  0  0  0  0
  -27.5790  -24.9440   20.7460 H   0  0  0  0  0  0
  -27.9241  -25.0482   19.0153 H   0  0  0  0  0  0
  -28.9249  -15.2883   20.8794 H   0  0  0  0  0  0
  1 25  1  0  0  0
  1 30  2  0  0  0
  1 84  1  0  0  0
  2  3  1  0  0  0
  2 25  1  0  0  0
  2 85  1  0  0  0
  2 86  1  0  0  0
  3  4  1  0  0  0
  3 87  1  0  0  0
  3 88  1  0  0  0
  4  5  1  0  0  0
  4 89  1  0  0  0
  4 90  1  0  0  0
  5  6  1  0  0  0
  5 26  1  0  0  0
  5 91  1  0  0  0
  6 25  1  0  0  0
  6 92  1  0  0  0
  6 93  1  0  0  0
  7  8  2  0  0  0
  7 26  1  0  0  0
  7 29  1  0  0  0
  8  9  1  0  0  0
  8 22  1  0  0  0
  9 10  1  0  0  0
  9 27  2  0  0  0
 10 11  2  0  0  0
 10 15  1  0  0  0
 11 12  1  0  0  0
 11 94  1  0  0  0
 12 13  2  0  0  0
 12 95  1  0  0  0
 13 14  1  0  0  0
 13 31  1  0  0  0
 14 15  2  0  0  0
 14 96  1  0  0  0
 15 97  1  0  0  0
 16 17  2  0  0  0
 16 21  1  0  0  0
 16 31  1  0  0  0
 17 18  1  0  0  0
 17 98  1  0  0  0
 18 19  2  0  0  0
 18 99  1  0  0  0
 19 20  1  0  0  0
 19 24  1  0  0  0
 20 21  2  0  0  0
 20100  1  0  0  0
 21 23  1  0  0  0
 22 28  1  0  0  0
 22 32  2  0  0  0
 26 27  1  0  0  0
 28101  1  0  0  0
 28102  1  0  0  0
 29103  1  0  0  0
 29104  1  0  0  0
 33 34  1  0  0  0
 33 66  1  0  0  0
 33 70  2  0  0  0
 34 36  1  0  0  0
 34 59  1  0  0  0
 34105  1  0  0  0
 35 44  2  0  0  0
 35 45  1  0  0  0
 35 68  1  0  0  0
 36 56  1  0  0  0
 36106  1  0  0  0
 37 39  1  0  0  0
 37 47  1  0  0  0
 37 66  1  0  0  0
 37107  1  0  0  0
 38 43  2  0  0  0
 38 46  1  0  0  0
 38 47  1  0  0  0
 39 64  1  0  0  0
 39 67  2  0  0  0
 40 52  1  0  0  0
 40 53  2  0  0  0
 40 58  1  0  0  0
 41108  1  0  0  0
 41109  1  0  0  0
 41110  1  0  0  0
 41 48  1  0  0  0
 42 43  1  0  0  0
 42 66  1  0  0  0
 42111  1  0  0  0
 42112  1  0  0  0
 43 44  1  0  0  0
 44113  1  0  0  0
 45 46  2  0  0  0
 45114  1  0  0  0
 46115  1  0  0  0
 47116  1  0  0  0
 47117  1  0  0  0
 48 56  1  0  0  0
 48 65  1  0  0  0
 48118  1  0  0  0
 49 50  1  0  0  0
 49 53  1  0  0  0
 49 64  1  0  0  0
 49119  1  0  0  0
 50 51  1  0  0  0
 50120  1  0  0  0
 50121  1  0  0  0
 51 52  1  0  0  0
 51122  1  0  0  0
 51123  1  0  0  0
 52124  1  0  0  0
 52125  1  0  0  0
 53 54  1  0  0  0
 54 55  2  0  0  0
 54126  1  0  0  0
 55 57  1  0  0  0
 55127  1  0  0  0
 56 69  2  0  0  0
 57 58  2  0  0  0
 57128  1  0  0  0
 58129  1  0  0  0
 59 60  1  0  0  0
 59 61  1  0  0  0
 59 62  1  0  0  0
 60130  1  0  0  0
 60131  1  0  0  0
 60132  1  0  0  0
 61133  1  0  0  0
 61134  1  0  0  0
 61135  1  0  0  0
 62136  1  0  0  0
 62137  1  0  0  0
 62138  1  0  0  0
 63 65  1  0  0  0
 63139  1  0  0  0
 63140  1  0  0  0
 63141  1  0  0  0
 64142  1  0  0  0
 65143  1  0  0  0
 68 82  1  0  0  0
 71 73  1  0  0  0
 71 75  1  0  0  0
 71144  1  0  0  0
 71145  1  0  0  0
 72 74  1  0  0  0
 72 75  1  0  0  0
 72146  1  0  0  0
 72147  1  0  0  0
 73148  1  0  0  0
 73149  1  0  0  0
 73 76  1  0  0  0
 74 76  1  0  0  0
 74150  1  0  0  0
 74151  1  0  0  0
 75 79  1  0  0  0
 75152  1  0  0  0
 76 83  1  0  0  0
 76153  1  0  0  0
 77154  1  0  0  0
 77155  1  0  0  0
 77156  1  0  0  0
 77 83  1  0  0  0
 78 83  1  0  0  0
 78157  1  0  0  0
 78158  1  0  0  0
 78159  1  0  0  0
 79 82  1  0  0  0
 79160  1  0  0  0
 79161  1  0  0  0
 80 81  1  0  0  0
 80 83  1  0  0  0
 80162  1  0  0  0
 80163  1  0  0  0
 81 84  1  0  0  0
 81164  1  0  0  0
 81165  1  0  0  0
 82166  1  0  0  0
 82167  1  0  0  0
 84168  1  0  0  0
M  ISO  4   1 100  68 101  82 101  84 100
M  END
> <chiral flag>
0

> <version>
0

> <s_m_source_file>
/data/baiqing/PycharmProjects/Reinvent-master-3.2/result/LINK_invent/BTK/process_docking_weight1_custom_sum_contain_oxygen_bond_distance_aromatic_linkinvent_7_9_3/rearranged_h_0098.sdf

> <i_m_source_file_index>
3

> <r_mmod_Potential_Energy-OPLS-2005>
39.278133392334

> <r_mmod_Stretch_Energy-OPLS-2005>
36.9267196655273

> <r_mmod_Bend_Energy-OPLS-2005>
107.795265197754

> <r_mmod_Torsional_Energy-OPLS-2005>
279.038146972656

> <r_mmod_Improper_Torsional_Energy-OPLS-2005>
14.8206272125244

> <r_mmod_Van_der_Waal_Energy-OPLS-2005>
154.366256713867

> <r_mmod_Electrostatic_Energy-OPLS-2005>
-375.624786376953

> <r_mmod_Solvation_Energy-OPLS-2005>
-194.231506347656

> <b_mmod_Minimization_Converged-OPLS-2005>
0

> <r_mmod_RMS_Derivative-OPLS-2005>
2.27236866950989

$$$$
3
                    3D
 Structure written by MMmdl.
178186  0  0  1  0            999 V2000
  -30.5423  -14.7455   20.5154 C   0  0  0  0  0  0
  -30.4474  -12.4571   19.5107 C   0  0  0  0  0  0
  -29.5205  -12.4993   18.2736 C   0  0  0  0  0  0
  -28.0491  -12.3044   18.6862 C   0  0  0  0  0  0
  -27.6446  -13.2138   19.8753 C   0  0  2  0  0  0
  -28.6748  -13.1115   21.0212 C   0  0  0  0  0  0
  -25.2502  -13.8173   20.5704 C   0  0  0  0  0  0
  -24.1749  -13.0417   20.9242 C   0  0  0  0  0  0
  -24.6321  -11.6906   20.8805 C   0  0  0  0  0  0
  -23.9003  -10.4277   21.0432 C   0  0  0  0  0  0
  -24.3583   -9.4186   21.9190 C   0  0  0  0  0  0
  -23.6269   -8.2211   22.0744 C   0  0  0  0  0  0
  -22.4259   -8.0255   21.3527 C   0  0  0  0  0  0
  -21.9894   -9.0220   20.4634 C   0  0  0  0  0  0
  -22.7201  -10.2108   20.3051 C   0  0  0  0  0  0
  -21.6838   -6.0723   22.5268 C   0  0  0  0  0  0
  -21.4024   -6.5643   23.8207 C   0  0  0  0  0  0
  -21.3661   -5.6792   24.9173 C   0  0  0  0  0  0
  -21.6052   -4.3057   24.7223 C   0  0  0  0  0  0
  -21.8808   -3.8140   23.4350 C   0  0  0  0  0  0
  -21.9195   -4.6955   22.3401 C   0  0  0  0  0  0
  -22.7798  -13.5226   21.1902 C   0  0  0  0  0  0
  -22.1652   -4.2151   21.0975 F   0  0  0  0  0  0
  -21.5624   -3.4536   25.7732 F   0  0  0  0  0  0
  -29.9797  -13.4908   20.4623 N   0  0  0  0  0  0
  -26.2914  -12.9349   20.3382 N   0  0  0  0  0  0
  -25.9252  -11.6524   20.5854 N   0  0  0  0  0  0
  -22.0435  -12.8189   22.0476 N   0  0  0  0  0  0
  -25.4174  -15.1866   20.4030 N   0  0  0  0  0  0
  -31.6920  -14.9269   20.0984 O   0  0  0  0  0  0
  -21.6621   -6.8846   21.4217 O   0  0  0  0  0  0
  -22.3471  -14.5502   20.6729 O   0  0  0  0  0  0
  -24.6276  -31.8503   23.1989 C   0  0  0  0  0  0
  -25.9088  -32.4741   23.8331 C   0  0  1  0  0  0
  -27.2243  -27.2571   20.1231 C   0  0  0  0  0  0
  -25.5799  -33.8552   24.2226 N   0  0  0  0  0  0
  -23.4198  -30.4775   21.5501 C   0  0  2  0  0  0
  -24.8645  -28.9239   20.1082 C   0  0  0  0  0  0
  -22.7431  -29.4644   22.5024 C   0  0  0  0  0  0
  -18.0301  -28.1400   22.8641 C   0  0  0  0  0  0
  -24.1495  -36.7307   23.2658 C   0  0  0  0  0  0
  -25.9620  -30.7703   21.3703 C   0  0  0  0  0  0
  -26.0361  -29.3906   20.7137 C   0  0  0  0  0  0
  -27.2146  -28.5737   20.7032 C   0  0  0  0  0  0
  -26.0196  -26.8574   19.4977 C   0  0  0  0  0  0
  -24.8647  -27.6667   19.4886 C   0  0  0  0  0  0
  -23.6302  -29.8082   20.1648 C   0  0  0  0  0  0
  -25.4121  -36.3097   24.0325 C   0  0  1  0  0  0
  -20.5857  -28.3825   23.1410 C   0  0  2  0  0  0
  -20.6852  -26.9534   22.5500 C   0  0  0  0  0  0
  -19.5754  -26.6754   21.5220 C   0  0  0  0  0  0
  -18.2019  -26.7897   22.1942 C   0  0  0  0  0  0
  -19.1521  -28.8922   23.3016 C   0  0  0  0  0  0
  -18.9419  -30.1547   23.8993 C   0  0  0  0  0  0
  -17.6423  -30.6731   24.0407 C   0  0  0  0  0  0
  -25.9012  -34.9440   23.5116 C   0  0  0  0  0  0
  -16.5337  -29.9203   23.6103 C   0  0  0  0  0  0
  -16.7279  -28.6529   23.0345 C   0  0  0  0  0  0
  -26.4445  -31.6562   25.0720 C   0  0  0  0  0  0
  -25.3610  -31.3672   26.1394 C   0  0  0  0  0  0
  -27.0255  -30.2992   24.6138 C   0  0  0  0  0  0
  -27.6043  -32.4288   25.7465 C   0  0  0  0  0  0
  -27.5591  -37.1776   24.8466 C   0  0  0  0  0  0
  -21.4132  -29.3198   22.3792 N   0  0  0  0  0  0
  -26.4330  -37.3766   23.9381 N   0  0  0  0  0  0
  -24.6915  -31.0468   22.0967 N   0  0  0  0  0  0
  -23.4130  -28.8092   23.3079 O   0  0  0  0  0  0
  -28.3524  -26.3988   20.1985 O   0  0  0  0  0  0
  -26.5699  -34.8892   22.4761 O   0  0  0  0  0  0
  -23.5423  -32.1344   23.7286 O   0  0  0  0  0  0
  -28.5787  -21.2260   22.4989 C   0  0  0  0  0  0
  -27.2053  -20.8339   22.5788 C   0  0  0  0  0  0
  -28.8805  -20.9775   21.1976 C   0  0  0  0  0  0
  -27.0164  -19.9411   21.5364 C   0  0  0  0  0  0
  -24.5226  -19.7943   20.8850 C   0  0  0  0  0  0
  -25.7279  -20.2071   24.5554 C   0  0  0  0  0  0
  -25.1326  -25.4608   26.3932 C   0  0  0  0  0  0
  -28.8524  -22.1848   20.1771 C   0  0  0  0  0  0
  -25.8486  -19.0759   21.1307 C   0  0  0  0  0  0
  -28.6723  -23.7195   20.7154 C   0  0  0  0  0  0
  -26.6994  -22.5747   24.3816 C   0  0  0  0  0  0
  -28.7248  -18.2149   21.3120 C   0  0  0  0  0  0
  -29.8171  -17.3106   20.5670 C   0  0  0  0  0  0
  -25.5948  -23.4235   25.0530 C   0  0  0  0  0  0
  -28.4008  -24.9648   19.7162 C   0  0  0  0  0  0
  -26.1897  -21.3330   23.6062 C   0  0  1  0  0  0
  -28.2883  -19.6792   21.0261 N   0  0  0  0  0  0
  -29.7109  -15.8031   20.8447 N   0  0  0  0  0  0
  -26.1493  -24.6113   25.7420 N   0  3  0  0  0  0
  -31.4807  -12.6147   19.1983 H   0  0  0  0  0  0
  -30.4271  -11.4781   19.9944 H   0  0  0  0  0  0
  -29.8175  -11.7372   17.5522 H   0  0  0  0  0  0
  -29.6262  -13.4614   17.7736 H   0  0  0  0  0  0
  -27.9261  -11.2608   18.9807 H   0  0  0  0  0  0
  -27.3772  -12.4627   17.8417 H   0  0  0  0  0  0
  -27.6528  -14.2361   19.5004 H   0  0  0  0  0  0
  -28.7089  -12.0953   21.4170 H   0  0  0  0  0  0
  -28.3999  -13.7478   21.8652 H   0  0  0  0  0  0
  -25.2701   -9.5684   22.4804 H   0  0  0  0  0  0
  -23.9989   -7.4588   22.7454 H   0  0  0  0  0  0
  -21.0832   -8.8708   19.8921 H   0  0  0  0  0  0
  -22.3625  -10.9650   19.6185 H   0  0  0  0  0  0
  -21.2028   -7.6152   23.9717 H   0  0  0  0  0  0
  -21.1494   -6.0525   25.9079 H   0  0  0  0  0  0
  -22.0600   -2.7610   23.2834 H   0  0  0  0  0  0
  -22.4062  -11.9869   22.4858 H   0  0  0  0  0  0
  -21.1039  -13.1187   22.2640 H   0  0  0  0  0  0
  -24.6293  -15.8237   20.4588 H   0  0  0  0  0  0
  -26.2347  -15.6046   19.9760 H   0  0  0  0  0  0
  -26.7208  -32.5419   23.1121 H   0  0  0  0  0  0
  -24.9840  -33.9682   25.0292 H   0  0  0  0  0  0
  -22.7135  -31.3003   21.4128 H   0  0  0  0  0  0
  -23.3735  -35.9672   23.3374 H   0  0  0  0  0  0
  -24.3549  -36.8893   22.2061 H   0  0  0  0  0  0
  -23.7272  -37.6511   23.6692 H   0  0  0  0  0  0
  -26.0888  -31.5319   20.6018 H   0  0  0  0  0  0
  -26.8447  -30.8249   21.9936 H   0  0  0  0  0  0
  -28.1134  -28.9460   21.1775 H   0  0  0  0  0  0
  -25.9166  -25.9010   19.0142 H   0  0  0  0  0  0
  -23.9708  -27.2986   19.0038 H   0  0  0  0  0  0
  -23.7331  -30.5858   19.4063 H   0  0  0  0  0  0
  -22.7503  -29.2349   19.8667 H   0  0  0  0  0  0
  -25.1298  -36.1991   25.0817 H   0  0  0  0  0  0
  -20.9982  -28.3554   24.1530 H   0  0  0  0  0  0
  -20.5753  -26.2266   23.3598 H   0  0  0  0  0  0
  -21.6793  -26.7798   22.1387 H   0  0  0  0  0  0
  -19.6531  -27.4062   20.7121 H   0  0  0  0  0  0
  -19.7027  -25.7016   21.0516 H   0  0  0  0  0  0
  -17.3983  -26.6355   21.4746 H   0  0  0  0  0  0
  -18.0795  -26.0221   22.9619 H   0  0  0  0  0  0
  -19.7893  -30.7400   24.2327 H   0  0  0  0  0  0
  -17.4940  -31.6454   24.4790 H   0  0  0  0  0  0
  -15.5324  -30.3119   23.7201 H   0  0  0  0  0  0
  -15.8676  -28.0755   22.7149 H   0  0  0  0  0  0
  -24.5846  -30.6999   25.7619 H   0  0  0  0  0  0
  -24.8686  -32.2793   26.4755 H   0  0  0  0  0  0
  -25.7819  -30.8938   27.0277 H   0  0  0  0  0  0
  -26.2828  -29.6605   24.1332 H   0  0  0  0  0  0
  -27.4133  -29.7356   25.4619 H   0  0  0  0  0  0
  -27.8546  -30.4302   23.9188 H   0  0  0  0  0  0
  -27.2747  -33.3626   26.2040 H   0  0  0  0  0  0
  -28.3846  -32.6769   25.0267 H   0  0  0  0  0  0
  -28.0719  -31.8402   26.5350 H   0  0  0  0  0  0
  -28.2618  -38.0065   24.7541 H   0  0  0  0  0  0
  -28.1069  -36.2584   24.6311 H   0  0  0  0  0  0
  -27.2283  -37.1454   25.8859 H   0  0  0  0  0  0
  -20.9455  -29.8795   21.6798 H   0  0  0  0  0  0
  -26.0224  -38.2860   24.1321 H   0  0  0  0  0  0
  -29.0140  -22.0231   23.0865 H   0  0  0  0  0  0
  -24.6327  -20.5689   20.1239 H   0  0  0  0  0  0
  -24.1325  -20.2449   21.7949 H   0  0  0  0  0  0
  -23.7716  -19.0897   20.5248 H   0  0  0  0  0  0
  -25.2392  -19.4095   23.9988 H   0  0  0  0  0  0
  -25.0022  -20.5390   25.2982 H   0  0  0  0  0  0
  -26.5734  -19.7742   25.0924 H   0  0  0  0  0  0
  -25.5927  -26.3236   26.8731 H   0  0  0  0  0  0
  -24.5898  -24.9154   27.1636 H   0  0  0  0  0  0
  -24.4084  -25.8344   25.6679 H   0  0  0  0  0  0
  -28.0455  -21.9873   19.4715 H   0  0  0  0  0  0
  -29.7629  -22.1434   19.5810 H   0  0  0  0  0  0
  -25.7185  -18.2779   21.8664 H   0  0  0  0  0  0
  -26.0941  -18.5759   20.1960 H   0  0  0  0  0  0
  -29.5566  -23.9707   21.3006 H   0  0  0  0  0  0
  -27.8468  -23.7265   21.4228 H   0  0  0  0  0  0
  -27.4496  -22.2816   25.1134 H   0  0  0  0  0  0
  -27.2094  -23.2413   23.6879 H   0  0  0  0  0  0
  -28.9210  -18.1596   22.3824 H   0  0  0  0  0  0
  -27.8353  -17.5980   21.2022 H   0  0  0  0  0  0
  -30.8146  -17.6733   20.8236 H   0  0  0  0  0  0
  -29.6990  -17.4488   19.4920 H   0  0  0  0  0  0
  -25.0241  -22.8305   25.7727 H   0  0  0  0  0  0
  -24.8830  -23.7577   24.2981 H   0  0  0  0  0  0
  -27.5353  -24.7069   19.1196 H   0  0  0  0  0  0
  -29.2188  -24.9475   18.9930 H   0  0  0  0  0  0
  -25.3216  -21.6602   23.0333 H   0  0  0  0  0  0
  -28.8108  -15.5080   21.2081 H   0  0  0  0  0  0
  -26.7994  -24.3052   26.4439 H   0  0  0  0  0  0
  -26.6521  -25.1881   25.0832 H   0  0  0  0  0  0
  1 25  1  0  0  0
  1 30  2  0  0  0
  1 88  1  0  0  0
  2  3  1  0  0  0
  2 25  1  0  0  0
  2 90  1  0  0  0
  2 91  1  0  0  0
  3  4  1  0  0  0
  3 92  1  0  0  0
  3 93  1  0  0  0
  4  5  1  0  0  0
  4 94  1  0  0  0
  4 95  1  0  0  0
  5  6  1  0  0  0
  5 26  1  0  0  0
  5 96  1  0  0  0
  6 25  1  0  0  0
  6 97  1  0  0  0
  6 98  1  0  0  0
  7  8  2  0  0  0
  7 26  1  0  0  0
  7 29  1  0  0  0
  8  9  1  0  0  0
  8 22  1  0  0  0
  9 10  1  0  0  0
  9 27  2  0  0  0
 10 11  2  0  0  0
 10 15  1  0  0  0
 11 12  1  0  0  0
 11 99  1  0  0  0
 12 13  2  0  0  0
 12100  1  0  0  0
 13 14  1  0  0  0
 13 31  1  0  0  0
 14 15  2  0  0  0
 14101  1  0  0  0
 15102  1  0  0  0
 16 17  2  0  0  0
 16 21  1  0  0  0
 16 31  1  0  0  0
 17 18  1  0  0  0
 17103  1  0  0  0
 18 19  2  0  0  0
 18104  1  0  0  0
 19 20  1  0  0  0
 19 24  1  0  0  0
 20 21  2  0  0  0
 20105  1  0  0  0
 21 23  1  0  0  0
 22 28  1  0  0  0
 22 32  2  0  0  0
 26 27  1  0  0  0
 28106  1  0  0  0
 28107  1  0  0  0
 29108  1  0  0  0
 29109  1  0  0  0
 33 34  1  0  0  0
 33 66  1  0  0  0
 33 70  2  0  0  0
 34 36  1  0  0  0
 34 59  1  0  0  0
 34110  1  0  0  0
 35 44  2  0  0  0
 35 45  1  0  0  0
 35 68  1  0  0  0
 36 56  1  0  0  0
 36111  1  0  0  0
 37 39  1  0  0  0
 37 47  1  0  0  0
 37 66  1  0  0  0
 37112  1  0  0  0
 38 43  2  0  0  0
 38 46  1  0  0  0
 38 47  1  0  0  0
 39 64  1  0  0  0
 39 67  2  0  0  0
 40 52  1  0  0  0
 40 53  2  0  0  0
 40 58  1  0  0  0
 41113  1  0  0  0
 41114  1  0  0  0
 41115  1  0  0  0
 41 48  1  0  0  0
 42 43  1  0  0  0
 42 66  1  0  0  0
 42116  1  0  0  0
 42117  1  0  0  0
 43 44  1  0  0  0
 44118  1  0  0  0
 45 46  2  0  0  0
 45119  1  0  0  0
 46120  1  0  0  0
 47121  1  0  0  0
 47122  1  0  0  0
 48 56  1  0  0  0
 48 65  1  0  0  0
 48123  1  0  0  0
 49 50  1  0  0  0
 49 53  1  0  0  0
 49 64  1  0  0  0
 49124  1  0  0  0
 50 51  1  0  0  0
 50125  1  0  0  0
 50126  1  0  0  0
 51 52  1  0  0  0
 51127  1  0  0  0
 51128  1  0  0  0
 52129  1  0  0  0
 52130  1  0  0  0
 53 54  1  0  0  0
 54 55  2  0  0  0
 54131  1  0  0  0
 55 57  1  0  0  0
 55132  1  0  0  0
 56 69  2  0  0  0
 57 58  2  0  0  0
 57133  1  0  0  0
 58134  1  0  0  0
 59 60  1  0  0  0
 59 61  1  0  0  0
 59 62  1  0  0  0
 60135  1  0  0  0
 60136  1  0  0  0
 60137  1  0  0  0
 61138  1  0  0  0
 61139  1  0  0  0
 61140  1  0  0  0
 62141  1  0  0  0
 62142  1  0  0  0
 62143  1  0  0  0
 63 65  1  0  0  0
 63144  1  0  0  0
 63145  1  0  0  0
 63146  1  0  0  0
 64147  1  0  0  0
 65148  1  0  0  0
 68 85  1  0  0  0
 71 72  1  0  0  0
 71 73  2  0  0  0
 71149  1  0  0  0
 72 74  2  0  0  0
 72 86  1  0  0  0
 73 78  1  0  0  0
 73 87  1  0  0  0
 74 79  1  0  0  0
 74 87  1  0  0  0
 75 79  1  0  0  0
 75150  1  0  0  0
 75151  1  0  0  0
 75152  1  0  0  0
 76153  1  0  0  0
 76154  1  0  0  0
 76155  1  0  0  0
 76 86  1  0  0  0
 77 89  1  0  0  0
 77156  1  0  0  0
 77157  1  0  0  0
 77158  1  0  0  0
 78 80  1  0  0  0
 78159  1  0  0  0
 78160  1  0  0  0
 79161  1  0  0  0
 79162  1  0  0  0
 80 85  1  0  0  0
 80163  1  0  0  0
 80164  1  0  0  0
 81 84  1  0  0  0
 81 86  1  0  0  0
 81165  1  0  0  0
 81166  1  0  0  0
 82 83  1  0  0  0
 82 87  1  0  0  0
 82167  1  0  0  0
 82168  1  0  0  0
 83 88  1  0  0  0
 83169  1  0  0  0
 83170  1  0  0  0
 84 89  1  0  0  0
 84171  1  0  0  0
 84172  1  0  0  0
 85173  1  0  0  0
 85174  1  0  0  0
 86175  1  0  0  0
 88176  1  0  0  0
 89177  1  0  0  0
 89178  1  0  0  0
M  CHG  1  89   1
M  ISO  4   1 100  68 101  85 101  88 100
M  END
> <chiral flag>
0

> <version>
0

> <s_m_source_file>
/data/baiqing/PycharmProjects/Reinvent-master-3.2/result/LINK_invent/BTK/process_docking_weight1_custom_sum_contain_oxygen_bond_distance_aromatic_linkinvent_7_9_3/rearranged_h_0098.sdf

> <i_m_source_file_index>
4

> <r_mmod_Potential_Energy-OPLS-2005>
269.305908203125

> <r_mmod_Stretch_Energy-OPLS-2005>
139.126602172852

> <r_mmod_Bend_Energy-OPLS-2005>
257.324951171875

> <r_mmod_Torsional_Energy-OPLS-2005>
445.297058105469

> <r_mmod_Improper_Torsional_Energy-OPLS-2005>
44.8502082824707

> <r_mmod_Van_der_Waal_Energy-OPLS-2005>
114.490005493164

> <r_mmod_Electrostatic_Energy-OPLS-2005>
-368.855621337891

> <r_mmod_Solvation_Energy-OPLS-2005>
-449.053619384766

> <b_mmod_Minimization_Converged-OPLS-2005>
0

> <r_mmod_RMS_Derivative-OPLS-2005>
9.07154369354248

$$$$
4
                    3D
 Structure written by MMmdl.
174182  0  0  1  0            999 V2000
  -30.6914  -14.4037   20.6067 C   0  0  0  0  0  0
  -30.4285  -12.2663   19.4182 C   0  0  0  0  0  0
  -29.5003  -12.5080   18.2083 C   0  0  0  0  0  0
  -28.0184  -12.3616   18.6093 C   0  0  0  0  0  0
  -27.6675  -13.1783   19.8797 C   0  0  2  0  0  0
  -28.7024  -12.9097   20.9991 C   0  0  0  0  0  0
  -25.2618  -13.8076   20.5664 C   0  0  0  0  0  0
  -24.1831  -13.0389   20.9141 C   0  0  0  0  0  0
  -24.6347  -11.6842   20.8706 C   0  0  0  0  0  0
  -23.8996  -10.4259   21.0403 C   0  0  0  0  0  0
  -24.3563   -9.4190   21.9186 C   0  0  0  0  0  0
  -23.6249   -8.2218   22.0759 C   0  0  0  0  0  0
  -22.4236   -8.0251   21.3544 C   0  0  0  0  0  0
  -21.9857   -9.0220   20.4654 C   0  0  0  0  0  0
  -22.7174  -10.2105   20.3060 C   0  0  0  0  0  0
  -21.6831   -6.0716   22.5288 C   0  0  0  0  0  0
  -21.4004   -6.5633   23.8222 C   0  0  0  0  0  0
  -21.3659   -5.6786   24.9187 C   0  0  0  0  0  0
  -21.6049   -4.3052   24.7235 C   0  0  0  0  0  0
  -21.8816   -3.8138   23.4353 C   0  0  0  0  0  0
  -21.9185   -4.6949   22.3406 C   0  0  0  0  0  0
  -22.7869  -13.5237   21.1819 C   0  0  0  0  0  0
  -22.1660   -4.2137   21.0979 F   0  0  0  0  0  0
  -21.5631   -3.4541   25.7745 F   0  0  0  0  0  0
  -30.0524  -13.2120   20.4781 N   0  0  0  0  0  0
  -26.3032  -12.9190   20.3344 N   0  0  0  0  0  0
  -25.9259  -11.6377   20.5700 N   0  0  0  0  0  0
  -22.0490  -12.8260   22.0393 N   0  0  0  0  0  0
  -25.4296  -15.1799   20.4108 N   0  0  0  0  0  0
  -31.7523  -14.6866   20.0427 O   0  0  0  0  0  0
  -21.6601   -6.8851   21.4250 O   0  0  0  0  0  0
  -22.3566  -14.5551   20.6674 O   0  0  0  0  0  0
  -24.6122  -31.8704   23.2125 C   0  0  0  0  0  0
  -25.9030  -32.4829   23.8409 C   0  0  1  0  0  0
  -27.2448  -27.4746   20.0652 C   0  0  0  0  0  0
  -25.5899  -33.8628   24.2341 N   0  0  0  0  0  0
  -23.3972  -30.4953   21.5526 C   0  0  2  0  0  0
  -24.8421  -28.9622   20.1184 C   0  0  0  0  0  0
  -22.7386  -29.4683   22.5009 C   0  0  0  0  0  0
  -18.0267  -28.1377   22.8490 C   0  0  0  0  0  0
  -24.1487  -36.7320   23.2637 C   0  0  0  0  0  0
  -25.9233  -30.8431   21.3616 C   0  0  0  0  0  0
  -25.9999  -29.4784   20.7131 C   0  0  0  0  0  0
  -27.1990  -28.7356   20.6958 C   0  0  0  0  0  0
  -26.0575  -26.9504   19.5013 C   0  0  0  0  0  0
  -24.8618  -27.6916   19.5189 C   0  0  0  0  0  0
  -23.6028  -29.8248   20.1680 C   0  0  0  0  0  0
  -25.4106  -36.3116   24.0341 C   0  0  1  0  0  0
  -20.5850  -28.3661   23.1324 C   0  0  2  0  0  0
  -20.6755  -26.9402   22.5416 C   0  0  0  0  0  0
  -19.5737  -26.6388   21.5207 C   0  0  0  0  0  0
  -18.1915  -26.7926   22.1619 C   0  0  0  0  0  0
  -19.1514  -28.8838   23.2906 C   0  0  0  0  0  0
  -18.9443  -30.1445   23.8915 C   0  0  0  0  0  0
  -17.6449  -30.6585   24.0567 C   0  0  0  0  0  0
  -25.9029  -34.9479   23.5138 C   0  0  0  0  0  0
  -16.5341  -29.9090   23.6327 C   0  0  0  0  0  0
  -16.7255  -28.6507   23.0348 C   0  0  0  0  0  0
  -26.4464  -31.6605   25.0731 C   0  0  0  0  0  0
  -25.3738  -31.3706   26.1487 C   0  0  0  0  0  0
  -27.0295  -30.3056   24.6089 C   0  0  0  0  0  0
  -27.6049  -32.4315   25.7485 C   0  0  0  0  0  0
  -27.5581  -37.1814   24.8464 C   0  0  0  0  0  0
  -21.4118  -29.3040   22.3742 N   0  0  0  0  0  0
  -26.4297  -37.3796   23.9406 N   0  0  0  0  0  0
  -24.6626  -31.0833   22.1009 N   0  0  0  0  0  0
  -23.4172  -28.8224   23.3038 O   0  0  0  0  0  0
  -28.4387  -26.7892   20.0514 O   0  0  0  0  0  0
  -26.5584  -34.8926   22.4690 O   0  0  0  0  0  0
  -23.5324  -32.1446   23.7542 O   0  0  0  0  0  0
  -28.3020  -18.5997   20.2596 C   0  0  0  0  0  0
  -30.8092  -18.3205   20.4080 C   0  0  0  0  0  0
  -28.4880  -20.1075   20.4406 C   0  0  0  0  0  0
  -30.9198  -19.8540   20.5758 C   0  0  0  0  0  0
  -29.4462  -17.7819   20.8939 C   0  0  2  0  0  0
  -31.2274  -25.6055   19.3409 C   0  0  0  0  0  0
  -31.8484  -22.4502   18.1517 C   0  0  0  0  0  0
  -29.7028  -21.5612   17.2544 C   0  0  0  0  0  0
  -29.2210  -16.3096   20.5238 C   0  0  0  0  0  0
  -29.7505  -23.9113   18.0546 C   0  0  0  0  0  0
  -29.9185  -22.0094   19.7703 C   0  0  0  0  0  0
  -28.8080  -26.1365   18.8372 C   0  0  0  0  0  0
  -29.8214  -25.0135   19.1498 C   0  0  2  0  0  0
  -30.3165  -22.4846   18.3385 C   0  0  0  0  0  0
  -29.9929  -15.3260   21.2775 N   0  0  0  0  0  0
  -29.7943  -20.5338   19.8848 N   0  3  2  0  0  0
  -31.4750  -12.3704   19.1246 H   0  0  0  0  0  0
  -30.3240  -11.2432   19.7804 H   0  0  0  0  0  0
  -29.7418  -11.8117   17.4045 H   0  0  0  0  0  0
  -29.6736  -13.5083   17.8079 H   0  0  0  0  0  0
  -27.8232  -11.3023   18.7838 H   0  0  0  0  0  0
  -27.3740  -12.6609   17.7811 H   0  0  0  0  0  0
  -27.7211  -14.2236   19.5890 H   0  0  0  0  0  0
  -28.6603  -11.8608   21.2959 H   0  0  0  0  0  0
  -28.4502  -13.4681   21.9013 H   0  0  0  0  0  0
  -25.2708   -9.5682   22.4751 H   0  0  0  0  0  0
  -23.9977   -7.4619   22.7478 H   0  0  0  0  0  0
  -21.0792   -8.8732   19.8953 H   0  0  0  0  0  0
  -22.3638  -10.9642   19.6161 H   0  0  0  0  0  0
  -21.1999   -7.6141   23.9727 H   0  0  0  0  0  0
  -21.1491   -6.0515   25.9092 H   0  0  0  0  0  0
  -22.0594   -2.7600   23.2858 H   0  0  0  0  0  0
  -22.4067  -11.9913   22.4805 H   0  0  0  0  0  0
  -21.1121  -13.1336   22.2581 H   0  0  0  0  0  0
  -24.6581  -15.8265   20.5367 H   0  0  0  0  0  0
  -26.2754  -15.6318   20.0894 H   0  0  0  0  0  0
  -26.7102  -32.5552   23.1179 H   0  0  0  0  0  0
  -25.0076  -33.9786   25.0504 H   0  0  0  0  0  0
  -22.6852  -31.3115   21.4139 H   0  0  0  0  0  0
  -23.3737  -35.9667   23.3324 H   0  0  0  0  0  0
  -24.3580  -36.8903   22.2045 H   0  0  0  0  0  0
  -23.7254  -37.6543   23.6626 H   0  0  0  0  0  0
  -26.0306  -31.6075   20.5905 H   0  0  0  0  0  0
  -26.8143  -30.8990   21.9756 H   0  0  0  0  0  0
  -28.0949  -29.1361   21.1489 H   0  0  0  0  0  0
  -26.0278  -25.9663   19.0580 H   0  0  0  0  0  0
  -23.9662  -27.2777   19.0763 H   0  0  0  0  0  0
  -23.7050  -30.5964   19.4040 H   0  0  0  0  0  0
  -22.7286  -29.2383   19.8782 H   0  0  0  0  0  0
  -25.1279  -36.1988   25.0834 H   0  0  0  0  0  0
  -20.9942  -28.3222   24.1443 H   0  0  0  0  0  0
  -20.5648  -26.2270   23.3598 H   0  0  0  0  0  0
  -21.6628  -26.7447   22.1212 H   0  0  0  0  0  0
  -19.6896  -25.6303   21.1227 H   0  0  0  0  0  0
  -19.6678  -27.3205   20.6741 H   0  0  0  0  0  0
  -17.4183  -26.6676   21.4021 H   0  0  0  0  0  0
  -18.0322  -26.0067   22.9014 H   0  0  0  0  0  0
  -19.7926  -30.7252   24.2289 H   0  0  0  0  0  0
  -17.5011  -31.6268   24.5170 H   0  0  0  0  0  0
  -15.5342  -30.2998   23.7650 H   0  0  0  0  0  0
  -15.8655  -28.0836   22.7052 H   0  0  0  0  0  0
  -24.5901  -30.7061   25.7828 H   0  0  0  0  0  0
  -24.8941  -32.2864   26.4955 H   0  0  0  0  0  0
  -25.8102  -30.8862   27.0233 H   0  0  0  0  0  0
  -26.2839  -29.6817   24.1145 H   0  0  0  0  0  0
  -27.4082  -29.7285   25.4536 H   0  0  0  0  0  0
  -27.8662  -30.4387   23.9225 H   0  0  0  0  0  0
  -27.2676  -33.3597   26.2111 H   0  0  0  0  0  0
  -28.3834  -32.6905   25.0295 H   0  0  0  0  0  0
  -28.0749  -31.8411   26.5361 H   0  0  0  0  0  0
  -28.2610  -38.0101   24.7501 H   0  0  0  0  0  0
  -28.1065  -36.2631   24.6301 H   0  0  0  0  0  0
  -27.2298  -37.1484   25.8869 H   0  0  0  0  0  0
  -20.9275  -29.8768   21.6973 H   0  0  0  0  0  0
  -26.0189  -38.2880   24.1393 H   0  0  0  0  0  0
  -28.2295  -18.3789   19.1931 H   0  0  0  0  0  0
  -27.3436  -18.3073   20.6918 H   0  0  0  0  0  0
  -31.6177  -17.8263   20.9496 H   0  0  0  0  0  0
  -30.9525  -18.0645   19.3568 H   0  0  0  0  0  0
  -28.4200  -20.3770   21.4954 H   0  0  0  0  0  0
  -27.6737  -20.6231   19.9284 H   0  0  0  0  0  0
  -31.8714  -20.1999   20.1701 H   0  0  0  0  0  0
  -30.9161  -20.1208   21.6347 H   0  0  0  0  0  0
  -29.3874  -17.8966   21.9781 H   0  0  0  0  0  0
  -31.9168  -24.8918   19.7858 H   0  0  0  0  0  0
  -31.2007  -26.4653   20.0106 H   0  0  0  0  0  0
  -31.6504  -25.9418   18.3930 H   0  0  0  0  0  0
  -32.1438  -22.9058   17.2055 H   0  0  0  0  0  0
  -32.2298  -21.4286   18.1415 H   0  0  0  0  0  0
  -32.3811  -22.9710   18.9434 H   0  0  0  0  0  0
  -29.8792  -21.9639   16.2558 H   0  0  0  0  0  0
  -28.6212  -21.4602   17.3677 H   0  0  0  0  0  0
  -30.1337  -20.5589   17.2591 H   0  0  0  0  0  0
  -29.3400  -16.1741   19.4450 H   0  0  0  0  0  0
  -28.1784  -16.0716   20.7360 H   0  0  0  0  0  0
  -30.1699  -24.3036   17.1264 H   0  0  0  0  0  0
  -28.6916  -23.7667   17.8338 H   0  0  0  0  0  0
  -28.9517  -22.4481   20.0219 H   0  0  0  0  0  0
  -30.6041  -22.4009   20.5240 H   0  0  0  0  0  0
  -27.9515  -25.7201   18.3152 H   0  0  0  0  0  0
  -29.2402  -26.8687   18.1532 H   0  0  0  0  0  0
  -29.5053  -24.5899   20.1019 H   0  0  0  0  0  0
  -29.4335  -14.9070   22.0063 H   0  0  0  0  0  0
  -29.8042  -20.2169   18.9267 H   0  0  0  0  0  0
  1 25  1  0  0  0
  1 30  2  0  0  0
  1 85  1  0  0  0
  2  3  1  0  0  0
  2 25  1  0  0  0
  2 87  1  0  0  0
  2 88  1  0  0  0
  3  4  1  0  0  0
  3 89  1  0  0  0
  3 90  1  0  0  0
  4  5  1  0  0  0
  4 91  1  0  0  0
  4 92  1  0  0  0
  5  6  1  0  0  0
  5 26  1  0  0  0
  5 93  1  0  0  0
  6 25  1  0  0  0
  6 94  1  0  0  0
  6 95  1  0  0  0
  7  8  2  0  0  0
  7 26  1  0  0  0
  7 29  1  0  0  0
  8  9  1  0  0  0
  8 22  1  0  0  0
  9 10  1  0  0  0
  9 27  2  0  0  0
 10 11  2  0  0  0
 10 15  1  0  0  0
 11 12  1  0  0  0
 11 96  1  0  0  0
 12 13  2  0  0  0
 12 97  1  0  0  0
 13 14  1  0  0  0
 13 31  1  0  0  0
 14 15  2  0  0  0
 14 98  1  0  0  0
 15 99  1  0  0  0
 16 17  2  0  0  0
 16 21  1  0  0  0
 16 31  1  0  0  0
 17 18  1  0  0  0
 17100  1  0  0  0
 18 19  2  0  0  0
 18101  1  0  0  0
 19 20  1  0  0  0
 19 24  1  0  0  0
 20 21  2  0  0  0
 20102  1  0  0  0
 21 23  1  0  0  0
 22 28  1  0  0  0
 22 32  2  0  0  0
 26 27  1  0  0  0
 28103  1  0  0  0
 28104  1  0  0  0
 29105  1  0  0  0
 29106  1  0  0  0
 33 34  1  0  0  0
 33 66  1  0  0  0
 33 70  2  0  0  0
 34 36  1  0  0  0
 34 59  1  0  0  0
 34107  1  0  0  0
 35 44  2  0  0  0
 35 45  1  0  0  0
 35 68  1  0  0  0
 36 56  1  0  0  0
 36108  1  0  0  0
 37 39  1  0  0  0
 37 47  1  0  0  0
 37 66  1  0  0  0
 37109  1  0  0  0
 38 43  2  0  0  0
 38 46  1  0  0  0
 38 47  1  0  0  0
 39 64  1  0  0  0
 39 67  2  0  0  0
 40 52  1  0  0  0
 40 53  2  0  0  0
 40 58  1  0  0  0
 41110  1  0  0  0
 41111  1  0  0  0
 41112  1  0  0  0
 41 48  1  0  0  0
 42 43  1  0  0  0
 42 66  1  0  0  0
 42113  1  0  0  0
 42114  1  0  0  0
 43 44  1  0  0  0
 44115  1  0  0  0
 45 46  2  0  0  0
 45116  1  0  0  0
 46117  1  0  0  0
 47118  1  0  0  0
 47119  1  0  0  0
 48 56  1  0  0  0
 48 65  1  0  0  0
 48120  1  0  0  0
 49 50  1  0  0  0
 49 53  1  0  0  0
 49 64  1  0  0  0
 49121  1  0  0  0
 50 51  1  0  0  0
 50122  1  0  0  0
 50123  1  0  0  0
 51 52  1  0  0  0
 51124  1  0  0  0
 51125  1  0  0  0
 52126  1  0  0  0
 52127  1  0  0  0
 53 54  1  0  0  0
 54 55  2  0  0  0
 54128  1  0  0  0
 55 57  1  0  0  0
 55129  1  0  0  0
 56 69  2  0  0  0
 57 58  2  0  0  0
 57130  1  0  0  0
 58131  1  0  0  0
 59 60  1  0  0  0
 59 61  1  0  0  0
 59 62  1  0  0  0
 60132  1  0  0  0
 60133  1  0  0  0
 60134  1  0  0  0
 61135  1  0  0  0
 61136  1  0  0  0
 61137  1  0  0  0
 62138  1  0  0  0
 62139  1  0  0  0
 62140  1  0  0  0
 63 65  1  0  0  0
 63141  1  0  0  0
 63142  1  0  0  0
 63143  1  0  0  0
 64144  1  0  0  0
 65145  1  0  0  0
 68 82  1  0  0  0
 71 73  1  0  0  0
 71 75  1  0  0  0
 71146  1  0  0  0
 71147  1  0  0  0
 72 74  1  0  0  0
 72 75  1  0  0  0
 72148  1  0  0  0
 72149  1  0  0  0
 73 86  1  0  0  0
 73150  1  0  0  0
 73151  1  0  0  0
 74 86  1  0  0  0
 74152  1  0  0  0
 74153  1  0  0  0
 75 79  1  0  0  0
 75154  1  0  0  0
 76155  1  0  0  0
 76156  1  0  0  0
 76157  1  0  0  0
 76 83  1  0  0  0
 77158  1  0  0  0
 77159  1  0  0  0
 77160  1  0  0  0
 77 84  1  0  0  0
 78 84  1  0  0  0
 78161  1  0  0  0
 78162  1  0  0  0
 78163  1  0  0  0
 79 85  1  0  0  0
 79164  1  0  0  0
 79165  1  0  0  0
 80 83  1  0  0  0
 80 84  1  0  0  0
 80166  1  0  0  0
 80167  1  0  0  0
 81 84  1  0  0  0
 81168  1  0  0  0
 81169  1  0  0  0
 81 86  1  0  0  0
 82 83  1  0  0  0
 82170  1  0  0  0
 82171  1  0  0  0
 83172  1  0  0  0
 85173  1  0  0  0
 86174  1  0  0  0
M  CHG  1  86   1
M  ISO  4   1 100  68 101  82 101  85 100
M  END
> <chiral flag>
0

> <version>
0

> <s_m_source_file>
/data/baiqing/PycharmProjects/Reinvent-master-3.2/result/LINK_invent/BTK/process_docking_weight1_custom_sum_contain_oxygen_bond_distance_aromatic_linkinvent_7_9_3/rearranged_h_0098.sdf

> <i_m_source_file_index>
5

> <r_mmod_Potential_Energy-OPLS-2005>
-29.5846729278564

> <r_mmod_Stretch_Energy-OPLS-2005>
35.4086227416992

> <r_mmod_Bend_Energy-OPLS-2005>
118.763229370117

> <r_mmod_Torsional_Energy-OPLS-2005>
341.317840576172

> <r_mmod_Improper_Torsional_Energy-OPLS-2005>
8.55918025970459

> <r_mmod_Van_der_Waal_Energy-OPLS-2005>
151.047622680664

> <r_mmod_Electrostatic_Energy-OPLS-2005>
-270.466979980469

> <r_mmod_Solvation_Energy-OPLS-2005>
-423.110687255859

> <b_mmod_Minimization_Converged-OPLS-2005>
0

> <r_mmod_RMS_Derivative-OPLS-2005>
1.85304129123688

$$$$
5
                    3D
 Structure written by MMmdl.
169177  0  0  1  0            999 V2000
  -30.5730  -14.6815   20.5428 C   0  0  0  0  0  0
  -30.4482  -12.4316   19.4364 C   0  0  0  0  0  0
  -29.5029  -12.5316   18.2126 C   0  0  0  0  0  0
  -28.0237  -12.3692   18.6247 C   0  0  0  0  0  0
  -27.6552  -13.2127   19.8731 C   0  0  2  0  0  0
  -28.7049  -13.0225   20.9888 C   0  0  0  0  0  0
  -25.2564  -13.8141   20.5696 C   0  0  0  0  0  0
  -24.1841  -13.0412   20.9195 C   0  0  0  0  0  0
  -24.6415  -11.6874   20.8770 C   0  0  0  0  0  0
  -23.9068  -10.4263   21.0454 C   0  0  0  0  0  0
  -24.3611   -9.4158   21.9222 C   0  0  0  0  0  0
  -23.6284   -8.2190   22.0757 C   0  0  0  0  0  0
  -22.4249   -8.0272   21.3557 C   0  0  0  0  0  0
  -21.9934   -9.0235   20.4628 C   0  0  0  0  0  0
  -22.7259  -10.2114   20.3070 C   0  0  0  0  0  0
  -21.6825   -6.0737   22.5304 C   0  0  0  0  0  0
  -21.4000   -6.5664   23.8241 C   0  0  0  0  0  0
  -21.3657   -5.6814   24.9214 C   0  0  0  0  0  0
  -21.6037   -4.3075   24.7259 C   0  0  0  0  0  0
  -21.8818   -3.8156   23.4383 C   0  0  0  0  0  0
  -21.9197   -4.6965   22.3430 C   0  0  0  0  0  0
  -22.7865  -13.5192   21.1896 C   0  0  0  0  0  0
  -22.1665   -4.2142   21.0996 F   0  0  0  0  0  0
  -21.5642   -3.4569   25.7784 F   0  0  0  0  0  0
  -30.0008  -13.4313   20.4305 N   0  0  0  0  0  0
  -26.3011  -12.9331   20.3390 N   0  0  0  0  0  0
  -25.9350  -11.6478   20.5793 N   0  0  0  0  0  0
  -22.0524  -12.8124   22.0416 N   0  0  0  0  0  0
  -25.4242  -15.1843   20.4107 N   0  0  0  0  0  0
  -31.7055  -14.8676   20.0850 O   0  0  0  0  0  0
  -21.6594   -6.8867   21.4251 O   0  0  0  0  0  0
  -22.3528  -14.5521   20.6804 O   0  0  0  0  0  0
  -24.6300  -31.8543   23.1933 C   0  0  0  0  0  0
  -25.9127  -32.4742   23.8283 C   0  0  1  0  0  0
  -27.2202  -27.2721   20.1112 C   0  0  0  0  0  0
  -25.5913  -33.8547   24.2218 N   0  0  0  0  0  0
  -23.4244  -30.4735   21.5387 C   0  0  2  0  0  0
  -24.8646  -28.9104   20.1102 C   0  0  0  0  0  0
  -22.7480  -29.4605   22.4934 C   0  0  0  0  0  0
  -18.0283  -28.1396   22.8492 C   0  0  0  0  0  0
  -24.1495  -36.7278   23.2642 C   0  0  0  0  0  0
  -25.9673  -30.7702   21.3637 C   0  0  0  0  0  0
  -26.0366  -29.3931   20.7038 C   0  0  0  0  0  0
  -27.2136  -28.5862   20.6868 C   0  0  0  0  0  0
  -26.0161  -26.8283   19.5324 C   0  0  0  0  0  0
  -24.8571  -27.6348   19.5168 C   0  0  0  0  0  0
  -23.6361  -29.7981   20.1577 C   0  0  0  0  0  0
  -25.4123  -36.3061   24.0321 C   0  0  1  0  0  0
  -20.5890  -28.3690   23.1279 C   0  0  2  0  0  0
  -20.6772  -26.9412   22.5415 C   0  0  0  0  0  0
  -19.5764  -26.6388   21.5216 C   0  0  0  0  0  0
  -18.1938  -26.7936   22.1628 C   0  0  0  0  0  0
  -19.1541  -28.8865   23.2875 C   0  0  0  0  0  0
  -18.9460  -30.1464   23.8902 C   0  0  0  0  0  0
  -17.6454  -30.6594   24.0569 C   0  0  0  0  0  0
  -25.9066  -34.9434   23.5083 C   0  0  0  0  0  0
  -16.5349  -29.9093   23.6327 C   0  0  0  0  0  0
  -16.7266  -28.6513   23.0357 C   0  0  0  0  0  0
  -26.4482  -31.6578   25.0688 C   0  0  0  0  0  0
  -25.3682  -31.3720   26.1388 C   0  0  0  0  0  0
  -27.0321  -30.2993   24.6164 C   0  0  0  0  0  0
  -27.6024  -32.4305   25.7482 C   0  0  0  0  0  0
  -27.5580  -37.1794   24.8458 C   0  0  0  0  0  0
  -21.4189  -29.3041   22.3666 N   0  0  0  0  0  0
  -26.4285  -37.3766   23.9409 N   0  0  0  0  0  0
  -24.6941  -31.0508   22.0896 N   0  0  0  0  0  0
  -23.4186  -28.8155   23.3044 O   0  0  0  0  0  0
  -28.3659  -26.4593   20.1880 O   0  0  0  0  0  0
  -26.5660  -34.8914   22.4666 O   0  0  0  0  0  0
  -23.5453  -32.1360   23.7244 O   0  0  0  0  0  0
  -26.3585  -18.9729   22.1737 C   0  0  0  0  0  0
  -26.8374  -19.9933   21.4071 C   0  0  0  0  0  0
  -28.1236  -19.7276   20.8006 C   0  0  0  0  0  0
  -28.5220  -18.3678   21.0243 C   0  0  0  0  0  0
  -26.0130  -21.2327   21.2455 C   0  0  0  0  0  0
  -30.4101  -16.0797   22.6417 C   0  0  0  0  0  0
  -27.6179  -25.1160   17.2348 C   0  0  0  0  0  0
  -29.9085  -26.0545   17.7005 C   0  0  0  0  0  0
  -28.7472  -20.8953   19.9544 C   0  0  0  0  0  0
  -29.6435  -17.3757   20.5117 C   0  0  0  0  0  0
  -28.9026  -22.4077   20.5457 C   0  0  0  0  0  0
  -27.9548  -23.6971   20.2217 C   0  0  0  0  0  0
  -29.8061  -15.9141   21.2304 C   0  0  1  0  0  0
  -28.8593  -25.0218   18.1366 C   0  0  0  0  0  0
  -28.6021  -25.0698   19.6677 C   0  0  1  0  0  0
  -27.3802  -17.6018   22.1194 S   0  0  0  0  0  0
  -31.4827  -12.5888   19.1252 H   0  0  0  0  0  0
  -30.4233  -11.4320   19.8694 H   0  0  0  0  0  0
  -29.7622  -11.7778   17.4669 H   0  0  0  0  0  0
  -29.6397  -13.4989   17.7270 H   0  0  0  0  0  0
  -27.8466  -11.3157   18.8359 H   0  0  0  0  0  0
  -27.3681  -12.6264   17.7906 H   0  0  0  0  0  0
  -27.6833  -14.2563   19.5621 H   0  0  0  0  0  0
  -28.7412  -11.9750   21.2933 H   0  0  0  0  0  0
  -28.4435  -13.5661   21.8956 H   0  0  0  0  0  0
  -25.2804   -9.5631   22.4759 H   0  0  0  0  0  0
  -24.0007   -7.4587   22.7500 H   0  0  0  0  0  0
  -21.0879   -8.8787   19.8910 H   0  0  0  0  0  0
  -22.3789  -10.9671   19.6151 H   0  0  0  0  0  0
  -21.1950   -7.6178   23.9749 H   0  0  0  0  0  0
  -21.1487   -6.0554   25.9133 H   0  0  0  0  0  0
  -22.0581   -2.7605   23.2896 H   0  0  0  0  0  0
  -22.4169  -11.9763   22.4728 H   0  0  0  0  0  0
  -21.1135  -13.1118   22.2674 H   0  0  0  0  0  0
  -24.6652  -15.8411   20.5413 H   0  0  0  0  0  0
  -26.2870  -15.6307   20.1280 H   0  0  0  0  0  0
  -26.7198  -32.5381   23.1029 H   0  0  0  0  0  0
  -25.0010  -33.9674   25.0318 H   0  0  0  0  0  0
  -22.7206  -31.2955   21.3915 H   0  0  0  0  0  0
  -23.3769  -35.9594   23.3275 H   0  0  0  0  0  0
  -24.3586  -36.8937   22.2062 H   0  0  0  0  0  0
  -23.7229  -37.6457   23.6694 H   0  0  0  0  0  0
  -26.1009  -31.5303   20.5925 H   0  0  0  0  0  0
  -26.8479  -30.8201   21.9941 H   0  0  0  0  0  0
  -28.1171  -28.9549   21.1505 H   0  0  0  0  0  0
  -25.9454  -25.8340   19.1250 H   0  0  0  0  0  0
  -23.9491  -27.2487   19.0739 H   0  0  0  0  0  0
  -23.7552  -30.5703   19.3967 H   0  0  0  0  0  0
  -22.7540  -29.2275   19.8626 H   0  0  0  0  0  0
  -25.1305  -36.1904   25.0811 H   0  0  0  0  0  0
  -20.9971  -28.3286   24.1409 H   0  0  0  0  0  0
  -20.5681  -26.2313   23.3616 H   0  0  0  0  0  0
  -21.6632  -26.7457   22.1213 H   0  0  0  0  0  0
  -19.6919  -25.6303   21.1252 H   0  0  0  0  0  0
  -19.6692  -27.3193   20.6748 H   0  0  0  0  0  0
  -17.4194  -26.6676   21.4030 H   0  0  0  0  0  0
  -18.0334  -26.0080   22.9036 H   0  0  0  0  0  0
  -19.7936  -30.7278   24.2273 H   0  0  0  0  0  0
  -17.5019  -31.6281   24.5173 H   0  0  0  0  0  0
  -15.5359  -30.3009   23.7651 H   0  0  0  0  0  0
  -15.8665  -28.0834   22.7078 H   0  0  0  0  0  0
  -24.5869  -30.7071   25.7688 H   0  0  0  0  0  0
  -24.8862  -32.2893   26.4786 H   0  0  0  0  0  0
  -25.7978  -30.8898   27.0182 H   0  0  0  0  0  0
  -26.2908  -29.6755   24.1162 H   0  0  0  0  0  0
  -27.3977  -29.7239   25.4684 H   0  0  0  0  0  0
  -27.8790  -30.4267   23.9413 H   0  0  0  0  0  0
  -27.2626  -33.3608   26.2044 H   0  0  0  0  0  0
  -28.3854  -32.6859   25.0329 H   0  0  0  0  0  0
  -28.0667  -31.8434   26.5415 H   0  0  0  0  0  0
  -28.2570  -38.0119   24.7544 H   0  0  0  0  0  0
  -28.1108  -36.2654   24.6244 H   0  0  0  0  0  0
  -27.2302  -37.1382   25.8858 H   0  0  0  0  0  0
  -20.9376  -29.8743   21.6845 H   0  0  0  0  0  0
  -26.0167  -38.2831   24.1429 H   0  0  0  0  0  0
  -25.4361  -18.9248   22.7447 H   0  0  0  0  0  0
  -24.9824  -21.0742   21.5634 H   0  0  0  0  0  0
  -25.9635  -21.5464   20.2032 H   0  0  0  0  0  0
  -26.4024  -22.0482   21.8505 H   0  0  0  0  0  0
  -29.7748  -16.6813   23.2902 H   0  0  0  0  0  0
  -31.3871  -16.5617   22.6046 H   0  0  0  0  0  0
  -30.5333  -15.1158   23.1395 H   0  0  0  0  0  0
  -27.8748  -24.8577   16.2063 H   0  0  0  0  0  0
  -27.2096  -26.1249   17.2111 H   0  0  0  0  0  0
  -26.8295  -24.4288   17.5432 H   0  0  0  0  0  0
  -30.1849  -25.9177   16.6556 H   0  0  0  0  0  0
  -30.8194  -25.9706   18.2933 H   0  0  0  0  0  0
  -29.5304  -27.0695   17.8133 H   0  0  0  0  0  0
  -28.2218  -20.9584   19.0001 H   0  0  0  0  0  0
  -29.7500  -20.5696   19.6767 H   0  0  0  0  0  0
  -30.6037  -17.8852   20.5463 H   0  0  0  0  0  0
  -29.4652  -17.1953   19.4514 H   0  0  0  0  0  0
  -29.8983  -22.7158   20.2234 H   0  0  0  0  0  0
  -29.0098  -22.3258   21.6274 H   0  0  0  0  0  0
  -27.4477  -23.9602   21.1506 H   0  0  0  0  0  0
  -27.1511  -23.3956   19.5526 H   0  0  0  0  0  0
  -28.7926  -15.5509   21.3391 H   0  0  0  0  0  0
  -29.2915  -24.0404   17.9418 H   0  0  0  0  0  0
  -29.6068  -24.9729   20.0789 H   0  0  0  0  0  0
  1 25  1  0  0  0
  1 30  2  0  0  0
  1 83  1  0  0  0
  2  3  1  0  0  0
  2 25  1  0  0  0
  2 87  1  0  0  0
  2 88  1  0  0  0
  3  4  1  0  0  0
  3 89  1  0  0  0
  3 90  1  0  0  0
  4  5  1  0  0  0
  4 91  1  0  0  0
  4 92  1  0  0  0
  5  6  1  0  0  0
  5 26  1  0  0  0
  5 93  1  0  0  0
  6 25  1  0  0  0
  6 94  1  0  0  0
  6 95  1  0  0  0
  7  8  2  0  0  0
  7 26  1  0  0  0
  7 29  1  0  0  0
  8  9  1  0  0  0
  8 22  1  0  0  0
  9 10  1  0  0  0
  9 27  2  0  0  0
 10 11  2  0  0  0
 10 15  1  0  0  0
 11 12  1  0  0  0
 11 96  1  0  0  0
 12 13  2  0  0  0
 12 97  1  0  0  0
 13 14  1  0  0  0
 13 31  1  0  0  0
 14 15  2  0  0  0
 14 98  1  0  0  0
 15 99  1  0  0  0
 16 17  2  0  0  0
 16 21  1  0  0  0
 16 31  1  0  0  0
 17 18  1  0  0  0
 17100  1  0  0  0
 18 19  2  0  0  0
 18101  1  0  0  0
 19 20  1  0  0  0
 19 24  1  0  0  0
 20 21  2  0  0  0
 20102  1  0  0  0
 21 23  1  0  0  0
 22 28  1  0  0  0
 22 32  2  0  0  0
 26 27  1  0  0  0
 28103  1  0  0  0
 28104  1  0  0  0
 29105  1  0  0  0
 29106  1  0  0  0
 33 34  1  0  0  0
 33 66  1  0  0  0
 33 70  2  0  0  0
 34 36  1  0  0  0
 34 59  1  0  0  0
 34107  1  0  0  0
 35 44  2  0  0  0
 35 45  1  0  0  0
 35 68  1  0  0  0
 36 56  1  0  0  0
 36108  1  0  0  0
 37 39  1  0  0  0
 37 47  1  0  0  0
 37 66  1  0  0  0
 37109  1  0  0  0
 38 43  2  0  0  0
 38 46  1  0  0  0
 38 47  1  0  0  0
 39 64  1  0  0  0
 39 67  2  0  0  0
 40 52  1  0  0  0
 40 53  2  0  0  0
 40 58  1  0  0  0
 41110  1  0  0  0
 41111  1  0  0  0
 41112  1  0  0  0
 41 48  1  0  0  0
 42 43  1  0  0  0
 42 66  1  0  0  0
 42113  1  0  0  0
 42114  1  0  0  0
 43 44  1  0  0  0
 44115  1  0  0  0
 45 46  2  0  0  0
 45116  1  0  0  0
 46117  1  0  0  0
 47118  1  0  0  0
 47119  1  0  0  0
 48 56  1  0  0  0
 48 65  1  0  0  0
 48120  1  0  0  0
 49 50  1  0  0  0
 49 53  1  0  0  0
 49 64  1  0  0  0
 49121  1  0  0  0
 50 51  1  0  0  0
 50122  1  0  0  0
 50123  1  0  0  0
 51 52  1  0  0  0
 51124  1  0  0  0
 51125  1  0  0  0
 52126  1  0  0  0
 52127  1  0  0  0
 53 54  1  0  0  0
 54 55  2  0  0  0
 54128  1  0  0  0
 55 57  1  0  0  0
 55129  1  0  0  0
 56 69  2  0  0  0
 57 58  2  0  0  0
 57130  1  0  0  0
 58131  1  0  0  0
 59 60  1  0  0  0
 59 61  1  0  0  0
 59 62  1  0  0  0
 60132  1  0  0  0
 60133  1  0  0  0
 60134  1  0  0  0
 61135  1  0  0  0
 61136  1  0  0  0
 61137  1  0  0  0
 62138  1  0  0  0
 62139  1  0  0  0
 62140  1  0  0  0
 63 65  1  0  0  0
 63141  1  0  0  0
 63142  1  0  0  0
 63143  1  0  0  0
 64144  1  0  0  0
 65145  1  0  0  0
 68 85  1  0  0  0
 71 72  2  0  0  0
 71 86  1  0  0  0
 71146  1  0  0  0
 72 73  1  0  0  0
 72 75  1  0  0  0
 73 74  2  0  0  0
 73 79  1  0  0  0
 74 80  1  0  0  0
 74 86  1  0  0  0
 75147  1  0  0  0
 75148  1  0  0  0
 75149  1  0  0  0
 76150  1  0  0  0
 76151  1  0  0  0
 76152  1  0  0  0
 76 83  1  0  0  0
 77153  1  0  0  0
 77154  1  0  0  0
 77155  1  0  0  0
 77 84  1  0  0  0
 78 84  1  0  0  0
 78156  1  0  0  0
 78157  1  0  0  0
 78158  1  0  0  0
 79 81  1  0  0  0
 79159  1  0  0  0
 79160  1  0  0  0
 80 83  1  0  0  0
 80161  1  0  0  0
 80162  1  0  0  0
 81 82  1  0  0  0
 81163  1  0  0  0
 81164  1  0  0  0
 82165  1  0  0  0
 82166  1  0  0  0
 82 85  1  0  0  0
 83167  1  0  0  0
 84 85  1  0  0  0
 84168  1  0  0  0
 85169  1  0  0  0
M  ISO  4   1 100  68 101  83 100  85 101
M  END
> <chiral flag>
0

> <version>
0

> <s_m_source_file>
/data/baiqing/PycharmProjects/Reinvent-master-3.2/result/LINK_invent/BTK/process_docking_weight1_custom_sum_contain_oxygen_bond_distance_aromatic_linkinvent_7_9_3/rearranged_h_0098.sdf

> <i_m_source_file_index>
6

> <r_mmod_Potential_Energy-OPLS-2005>
253.650817871094

> <r_mmod_Stretch_Energy-OPLS-2005>
138.487121582031

> <r_mmod_Bend_Energy-OPLS-2005>
258.056884765625

> <r_mmod_Torsional_Energy-OPLS-2005>
198.022415161133

> <r_mmod_Improper_Torsional_Energy-OPLS-2005>
2.38515043258667

> <r_mmod_Van_der_Waal_Energy-OPLS-2005>
115.80948638916

> <r_mmod_Electrostatic_Energy-OPLS-2005>
-344.617736816406

> <r_mmod_Solvation_Energy-OPLS-2005>
-177.104690551758

> <b_mmod_Minimization_Converged-OPLS-2005>
0

> <r_mmod_RMS_Derivative-OPLS-2005>
3.84348320960999

$$$$
6
                    3D
 Structure written by MMmdl.
176184  0  0  1  0            999 V2000
  -30.7418  -14.4388   20.6335 C   0  0  0  0  0  0
  -30.4232  -12.3182   19.4026 C   0  0  0  0  0  0
  -29.4883  -12.5110   18.1922 C   0  0  0  0  0  0
  -28.0134  -12.3534   18.6109 C   0  0  0  0  0  0
  -27.6576  -13.1932   19.8636 C   0  0  2  0  0  0
  -28.7022  -12.9724   20.9825 C   0  0  0  0  0  0
  -25.2595  -13.8134   20.5673 C   0  0  0  0  0  0
  -24.1837  -13.0436   20.9197 C   0  0  0  0  0  0
  -24.6350  -11.6892   20.8711 C   0  0  0  0  0  0
  -23.8996  -10.4298   21.0385 C   0  0  0  0  0  0
  -24.3584   -9.4231   21.9173 C   0  0  0  0  0  0
  -23.6275   -8.2246   22.0737 C   0  0  0  0  0  0
  -22.4252   -8.0273   21.3533 C   0  0  0  0  0  0
  -21.9873   -9.0238   20.4642 C   0  0  0  0  0  0
  -22.7172  -10.2130   20.3043 C   0  0  0  0  0  0
  -21.6845   -6.0721   22.5282 C   0  0  0  0  0  0
  -21.4002   -6.5623   23.8215 C   0  0  0  0  0  0
  -21.3655   -5.6779   24.9184 C   0  0  0  0  0  0
  -21.6055   -4.3047   24.7226 C   0  0  0  0  0  0
  -21.8823   -3.8129   23.4345 C   0  0  0  0  0  0
  -21.9197   -4.6946   22.3397 C   0  0  0  0  0  0
  -22.7867  -13.5271   21.1867 C   0  0  0  0  0  0
  -22.1683   -4.2135   21.0972 F   0  0  0  0  0  0
  -21.5631   -3.4533   25.7737 F   0  0  0  0  0  0
  -30.0337  -13.2902   20.4377 N   0  0  0  0  0  0
  -26.2986  -12.9271   20.3292 N   0  0  0  0  0  0
  -25.9268  -11.6441   20.5703 N   0  0  0  0  0  0
  -22.0479  -12.8281   22.0419 N   0  0  0  0  0  0
  -25.4343  -15.1849   20.4076 N   0  0  0  0  0  0
  -31.8310  -14.6442   20.0869 O   0  0  0  0  0  0
  -21.6639   -6.8859   21.4235 O   0  0  0  0  0  0
  -22.3573  -14.5567   20.6685 O   0  0  0  0  0  0
  -24.6124  -31.8703   23.2119 C   0  0  0  0  0  0
  -25.9027  -32.4829   23.8408 C   0  0  1  0  0  0
  -27.2357  -27.4648   20.0736 C   0  0  0  0  0  0
  -25.5896  -33.8621   24.2340 N   0  0  0  0  0  0
  -23.3998  -30.4937   21.5514 C   0  0  2  0  0  0
  -24.8463  -28.9594   20.1177 C   0  0  0  0  0  0
  -22.7401  -29.4664   22.4984 C   0  0  0  0  0  0
  -18.0271  -28.1383   22.8493 C   0  0  0  0  0  0
  -24.1482  -36.7316   23.2640 C   0  0  0  0  0  0
  -25.9263  -30.8393   21.3646 C   0  0  0  0  0  0
  -26.0039  -29.4741   20.7152 C   0  0  0  0  0  0
  -27.2018  -28.7265   20.7045 C   0  0  0  0  0  0
  -26.0600  -26.9479   19.4908 C   0  0  0  0  0  0
  -24.8654  -27.6914   19.5096 C   0  0  0  0  0  0
  -23.6082  -29.8256   20.1660 C   0  0  0  0  0  0
  -25.4100  -36.3112   24.0346 C   0  0  1  0  0  0
  -20.5865  -28.3662   23.1325 C   0  0  2  0  0  0
  -20.6759  -26.9401   22.5425 C   0  0  0  0  0  0
  -19.5747  -26.6388   21.5213 C   0  0  0  0  0  0
  -18.1916  -26.7931   22.1610 C   0  0  0  0  0  0
  -19.1520  -28.8837   23.2908 C   0  0  0  0  0  0
  -18.9451  -30.1439   23.8915 C   0  0  0  0  0  0
  -17.6455  -30.6591   24.0566 C   0  0  0  0  0  0
  -25.9029  -34.9480   23.5140 C   0  0  0  0  0  0
  -16.5341  -29.9091   23.6327 C   0  0  0  0  0  0
  -16.7261  -28.6509   23.0342 C   0  0  0  0  0  0
  -26.4470  -31.6598   25.0727 C   0  0  0  0  0  0
  -25.3753  -31.3713   26.1495 C   0  0  0  0  0  0
  -27.0281  -30.3034   24.6087 C   0  0  0  0  0  0
  -27.6068  -32.4307   25.7471 C   0  0  0  0  0  0
  -27.5584  -37.1804   24.8461 C   0  0  0  0  0  0
  -21.4128  -29.3030   22.3729 N   0  0  0  0  0  0
  -26.4286  -37.3803   23.9421 N   0  0  0  0  0  0
  -24.6640  -31.0812   22.1014 N   0  0  0  0  0  0
  -23.4176  -28.8204   23.3020 O   0  0  0  0  0  0
  -28.3934  -26.7303   20.0421 O   0  0  0  0  0  0
  -26.5582  -34.8930   22.4694 O   0  0  0  0  0  0
  -23.5323  -32.1431   23.7532 O   0  0  0  0  0  0
  -29.5936  -18.5144   20.3022 C   0  0  0  0  0  0
  -29.0803  -18.2709   22.6498 C   0  0  0  0  0  0
  -29.2811  -17.6732   21.3914 C   0  0  0  0  0  0
  -29.6905  -19.9035   20.5174 C   0  0  0  0  0  0
  -29.2265  -19.6637   22.7800 C   0  0  0  0  0  0
  -27.7593  -21.2631   24.0714 C   0  0  0  0  0  0
  -30.2543  -21.0978   24.6001 C   0  0  0  0  0  0
  -31.1894  -15.8270   22.5643 C   0  0  0  0  0  0
  -27.7870  -24.5510   16.7970 C   0  0  0  0  0  0
  -29.1060  -16.1664   21.2077 C   0  0  0  0  0  0
  -29.9893  -20.8714   19.3825 C   0  0  0  0  0  0
  -28.9373  -21.9956   19.2514 C   0  0  0  0  0  0
  -29.0853  -22.8117   17.9527 C   0  0  0  0  0  0
  -29.5046  -25.1772   18.4947 C   0  0  0  0  0  0
  -28.9904  -26.6131   18.7515 C   0  0  0  0  0  0
  -28.9982  -20.3549   24.1166 C   0  0  0  0  0  0
  -29.5362  -20.4614   21.7356 N   0  0  0  0  0  0
  -30.2606  -15.3074   21.5538 N   0  0  0  0  0  0
  -28.4862  -24.1746   18.0532 N   0  3  1  0  0  0
  -31.4652  -12.4251   19.0928 H   0  0  0  0  0  0
  -30.3401  -11.3043   19.7954 H   0  0  0  0  0  0
  -29.7368  -11.7894   17.4117 H   0  0  0  0  0  0
  -29.6445  -13.5013   17.7592 H   0  0  0  0  0  0
  -27.8394  -11.2969   18.8144 H   0  0  0  0  0  0
  -27.3563  -12.6138   17.7818 H   0  0  0  0  0  0
  -27.6963  -14.2342   19.5504 H   0  0  0  0  0  0
  -28.6867  -11.9332   21.3116 H   0  0  0  0  0  0
  -28.4536  -13.5508   21.8710 H   0  0  0  0  0  0
  -25.2730   -9.5738   22.4745 H   0  0  0  0  0  0
  -24.0020   -7.4633   22.7423 H   0  0  0  0  0  0
  -21.0817   -8.8707   19.8947 H   0  0  0  0  0  0
  -22.3598  -10.9652   19.6142 H   0  0  0  0  0  0
  -21.1984   -7.6128   23.9716 H   0  0  0  0  0  0
  -21.1479   -6.0506   25.9089 H   0  0  0  0  0  0
  -22.0602   -2.7587   23.2837 H   0  0  0  0  0  0
  -22.4078  -11.9967   22.4862 H   0  0  0  0  0  0
  -21.1065  -13.1301   22.2534 H   0  0  0  0  0  0
  -24.6652  -15.8371   20.5139 H   0  0  0  0  0  0
  -26.2762  -15.6203   20.0534 H   0  0  0  0  0  0
  -26.7093  -32.5556   23.1173 H   0  0  0  0  0  0
  -25.0068  -33.9792   25.0498 H   0  0  0  0  0  0
  -22.6877  -31.3102   21.4131 H   0  0  0  0  0  0
  -23.3749  -35.9647   23.3300 H   0  0  0  0  0  0
  -24.3579  -36.8926   22.2055 H   0  0  0  0  0  0
  -23.7221  -37.6521   23.6643 H   0  0  0  0  0  0
  -26.0348  -31.6026   20.5931 H   0  0  0  0  0  0
  -26.8167  -30.8942   21.9791 H   0  0  0  0  0  0
  -28.0981  -29.1197   21.1639 H   0  0  0  0  0  0
  -26.0622  -25.9723   19.0277 H   0  0  0  0  0  0
  -23.9710  -27.2854   19.0550 H   0  0  0  0  0  0
  -23.7181  -30.6000   19.4067 H   0  0  0  0  0  0
  -22.7328  -29.2456   19.8685 H   0  0  0  0  0  0
  -25.1270  -36.1985   25.0840 H   0  0  0  0  0  0
  -20.9960  -28.3230   24.1445 H   0  0  0  0  0  0
  -20.5651  -26.2273   23.3612 H   0  0  0  0  0  0
  -21.6630  -26.7437   22.1226 H   0  0  0  0  0  0
  -19.6906  -25.6299   21.1233 H   0  0  0  0  0  0
  -19.6702  -27.3207   20.6748 H   0  0  0  0  0  0
  -17.4203  -26.6699   21.3994 H   0  0  0  0  0  0
  -18.0301  -26.0059   22.8991 H   0  0  0  0  0  0
  -19.7928  -30.7242   24.2296 H   0  0  0  0  0  0
  -17.5016  -31.6271   24.5170 H   0  0  0  0  0  0
  -15.5344  -30.3001   23.7642 H   0  0  0  0  0  0
  -15.8657  -28.0837   22.7040 H   0  0  0  0  0  0
  -24.5934  -30.7035   25.7858 H   0  0  0  0  0  0
  -24.8935  -32.2870   26.4931 H   0  0  0  0  0  0
  -25.8135  -30.8912   27.0254 H   0  0  0  0  0  0
  -26.2795  -29.6805   24.1172 H   0  0  0  0  0  0
  -27.4078  -29.7266   25.4531 H   0  0  0  0  0  0
  -27.8629  -30.4346   23.9197 H   0  0  0  0  0  0
  -27.2704  -33.3599   26.2084 H   0  0  0  0  0  0
  -28.3855  -32.6876   25.0275 H   0  0  0  0  0  0
  -28.0760  -31.8404   26.5354 H   0  0  0  0  0  0
  -28.2606  -38.0100   24.7518 H   0  0  0  0  0  0
  -28.1074  -36.2633   24.6260 H   0  0  0  0  0  0
  -27.2316  -37.1431   25.8870 H   0  0  0  0  0  0
  -20.9281  -29.8758   21.6960 H   0  0  0  0  0  0
  -26.0181  -38.2884   24.1438 H   0  0  0  0  0  0
  -29.7387  -18.1059   19.3114 H   0  0  0  0  0  0
  -28.8081  -17.6700   23.5087 H   0  0  0  0  0  0
  -26.8696  -20.6865   23.8171 H   0  0  0  0  0  0
  -27.8675  -22.0484   23.3231 H   0  0  0  0  0  0
  -27.5825  -21.7401   25.0348 H   0  0  0  0  0  0
  -31.0992  -20.4134   24.6836 H   0  0  0  0  0  0
  -30.0957  -21.5503   25.5793 H   0  0  0  0  0  0
  -30.5382  -21.8912   23.9083 H   0  0  0  0  0  0
  -30.6544  -16.1553   23.4552 H   0  0  0  0  0  0
  -31.7629  -16.6698   22.1743 H   0  0  0  0  0  0
  -31.8992  -15.0631   22.8845 H   0  0  0  0  0  0
  -27.1043  -23.7633   16.4768 H   0  0  0  0  0  0
  -28.4952  -24.7278   15.9869 H   0  0  0  0  0  0
  -27.1773  -25.4452   16.9163 H   0  0  0  0  0  0
  -28.8201  -16.0149   20.1647 H   0  0  0  0  0  0
  -28.2479  -15.8469   21.8000 H   0  0  0  0  0  0
  -30.0517  -20.3122   18.4479 H   0  0  0  0  0  0
  -30.9768  -21.3061   19.5439 H   0  0  0  0  0  0
  -29.0069  -22.6421   20.1268 H   0  0  0  0  0  0
  -27.9365  -21.5616   19.2758 H   0  0  0  0  0  0
  -28.6165  -22.2378   17.1506 H   0  0  0  0  0  0
  -30.1360  -22.8943   17.6684 H   0  0  0  0  0  0
  -30.0086  -24.8201   19.3930 H   0  0  0  0  0  0
  -30.2740  -25.2352   17.7237 H   0  0  0  0  0  0
  -28.3614  -26.9850   17.9428 H   0  0  0  0  0  0
  -29.8517  -27.2820   18.7623 H   0  0  0  0  0  0
  -28.7945  -19.5764   24.8534 H   0  0  0  0  0  0
  -27.7716  -24.1205   18.7664 H   0  0  0  0  0  0
  1 25  1  0  0  0
  1 30  2  0  0  0
  1 88  1  0  0  0
  2  3  1  0  0  0
  2 25  1  0  0  0
  2 90  1  0  0  0
  2 91  1  0  0  0
  3  4  1  0  0  0
  3 92  1  0  0  0
  3 93  1  0  0  0
  4  5  1  0  0  0
  4 94  1  0  0  0
  4 95  1  0  0  0
  5  6  1  0  0  0
  5 26  1  0  0  0
  5 96  1  0  0  0
  6 25  1  0  0  0
  6 97  1  0  0  0
  6 98  1  0  0  0
  7  8  2  0  0  0
  7 26  1  0  0  0
  7 29  1  0  0  0
  8  9  1  0  0  0
  8 22  1  0  0  0
  9 10  1  0  0  0
  9 27  2  0  0  0
 10 11  2  0  0  0
 10 15  1  0  0  0
 11 12  1  0  0  0
 11 99  1  0  0  0
 12 13  2  0  0  0
 12100  1  0  0  0
 13 14  1  0  0  0
 13 31  1  0  0  0
 14 15  2  0  0  0
 14101  1  0  0  0
 15102  1  0  0  0
 16 17  2  0  0  0
 16 21  1  0  0  0
 16 31  1  0  0  0
 17 18  1  0  0  0
 17103  1  0  0  0
 18 19  2  0  0  0
 18104  1  0  0  0
 19 20  1  0  0  0
 19 24  1  0  0  0
 20 21  2  0  0  0
 20105  1  0  0  0
 21 23  1  0  0  0
 22 28  1  0  0  0
 22 32  2  0  0  0
 26 27  1  0  0  0
 28106  1  0  0  0
 28107  1  0  0  0
 29108  1  0  0  0
 29109  1  0  0  0
 33 34  1  0  0  0
 33 66  1  0  0  0
 33 70  2  0  0  0
 34 36  1  0  0  0
 34 59  1  0  0  0
 34110  1  0  0  0
 35 44  2  0  0  0
 35 45  1  0  0  0
 35 68  1  0  0  0
 36 56  1  0  0  0
 36111  1  0  0  0
 37 39  1  0  0  0
 37 47  1  0  0  0
 37 66  1  0  0  0
 37112  1  0  0  0
 38 43  2  0  0  0
 38 46  1  0  0  0
 38 47  1  0  0  0
 39 64  1  0  0  0
 39 67  2  0  0  0
 40 52  1  0  0  0
 40 53  2  0  0  0
 40 58  1  0  0  0
 41113  1  0  0  0
 41114  1  0  0  0
 41115  1  0  0  0
 41 48  1  0  0  0
 42 43  1  0  0  0
 42 66  1  0  0  0
 42116  1  0  0  0
 42117  1  0  0  0
 43 44  1  0  0  0
 44118  1  0  0  0
 45 46  2  0  0  0
 45119  1  0  0  0
 46120  1  0  0  0
 47121  1  0  0  0
 47122  1  0  0  0
 48 56  1  0  0  0
 48 65  1  0  0  0
 48123  1  0  0  0
 49 50  1  0  0  0
 49 53  1  0  0  0
 49 64  1  0  0  0
 49124  1  0  0  0
 50 51  1  0  0  0
 50125  1  0  0  0
 50126  1  0  0  0
 51 52  1  0  0  0
 51127  1  0  0  0
 51128  1  0  0  0
 52129  1  0  0  0
 52130  1  0  0  0
 53 54  1  0  0  0
 54 55  2  0  0  0
 54131  1  0  0  0
 55 57  1  0  0  0
 55132  1  0  0  0
 56 69  2  0  0  0
 57 58  2  0  0  0
 57133  1  0  0  0
 58134  1  0  0  0
 59 60  1  0  0  0
 59 61  1  0  0  0
 59 62  1  0  0  0
 60135  1  0  0  0
 60136  1  0  0  0
 60137  1  0  0  0
 61138  1  0  0  0
 61139  1  0  0  0
 61140  1  0  0  0
 62141  1  0  0  0
 62142  1  0  0  0
 62143  1  0  0  0
 63 65  1  0  0  0
 63144  1  0  0  0
 63145  1  0  0  0
 63146  1  0  0  0
 64147  1  0  0  0
 65148  1  0  0  0
 68 85  1  0  0  0
 71 73  2  0  0  0
 71 74  1  0  0  0
 71149  1  0  0  0
 72 73  1  0  0  0
 72 75  2  0  0  0
 72150  1  0  0  0
 73 80  1  0  0  0
 74 81  1  0  0  0
 74 87  2  0  0  0
 75 86  1  0  0  0
 75 87  1  0  0  0
 76151  1  0  0  0
 76152  1  0  0  0
 76153  1  0  0  0
 76 86  1  0  0  0
 77 86  1  0  0  0
 77154  1  0  0  0
 77155  1  0  0  0
 77156  1  0  0  0
 78 88  1  0  0  0
 78157  1  0  0  0
 78158  1  0  0  0
 78159  1  0  0  0
 79160  1  0  0  0
 79161  1  0  0  0
 79162  1  0  0  0
 79 89  1  0  0  0
 80 88  1  0  0  0
 80163  1  0  0  0
 80164  1  0  0  0
 81 82  1  0  0  0
 81165  1  0  0  0
 81166  1  0  0  0
 82 83  1  0  0  0
 82167  1  0  0  0
 82168  1  0  0  0
 83 89  1  0  0  0
 83169  1  0  0  0
 83170  1  0  0  0
 84 85  1  0  0  0
 84 89  1  0  0  0
 84171  1  0  0  0
 84172  1  0  0  0
 85173  1  0  0  0
 85174  1  0  0  0
 86175  1  0  0  0
 89176  1  0  0  0
M  CHG  1  89   1
M  ISO  4   1 100  68 101  85 101  88 100
M  END
> <chiral flag>
0

> <version>
0

> <s_m_source_file>
/data/baiqing/PycharmProjects/Reinvent-master-3.2/result/LINK_invent/BTK/process_docking_weight1_custom_sum_contain_oxygen_bond_distance_aromatic_linkinvent_7_9_3/rearranged_h_0098.sdf

> <i_m_source_file_index>
7

> <r_mmod_Potential_Energy-OPLS-2005>
-250.008605957031

> <r_mmod_Stretch_Energy-OPLS-2005>
36.8129234313965

> <r_mmod_Bend_Energy-OPLS-2005>
99.7464294433594

> <r_mmod_Torsional_Energy-OPLS-2005>
292.317077636719

> <r_mmod_Improper_Torsional_Energy-OPLS-2005>
4.50151395797729

> <r_mmod_Van_der_Waal_Energy-OPLS-2005>
156.109970092773

> <r_mmod_Electrostatic_Energy-OPLS-2005>
-434.365844726562

> <r_mmod_Solvation_Energy-OPLS-2005>
-414.569763183594

> <b_mmod_Minimization_Converged-OPLS-2005>
0

> <r_mmod_RMS_Derivative-OPLS-2005>
2.64135003089905

$$$$
7
                    3D
 Structure written by MMmdl.
173181  0  0  1  0            999 V2000
  -30.7030  -14.4990   20.5158 C   0  0  0  0  0  0
  -30.4182  -12.3063   19.4327 C   0  0  0  0  0  0
  -29.4948  -12.4773   18.2095 C   0  0  0  0  0  0
  -28.0164  -12.3493   18.6238 C   0  0  0  0  0  0
  -27.6555  -13.2104   19.8652 C   0  0  2  0  0  0
  -28.7013  -13.0419   20.9912 C   0  0  0  0  0  0
  -25.2556  -13.8143   20.5646 C   0  0  0  0  0  0
  -24.1832  -13.0412   20.9189 C   0  0  0  0  0  0
  -24.6404  -11.6895   20.8757 C   0  0  0  0  0  0
  -23.9073  -10.4284   21.0424 C   0  0  0  0  0  0
  -24.3625   -9.4201   21.9191 C   0  0  0  0  0  0
  -23.6291   -8.2243   22.0756 C   0  0  0  0  0  0
  -22.4267   -8.0299   21.3554 C   0  0  0  0  0  0
  -21.9910   -9.0271   20.4653 C   0  0  0  0  0  0
  -22.7247  -10.2140   20.3073 C   0  0  0  0  0  0
  -21.6846   -6.0757   22.5284 C   0  0  0  0  0  0
  -21.4012   -6.5659   23.8221 C   0  0  0  0  0  0
  -21.3643   -5.6805   24.9178 C   0  0  0  0  0  0
  -21.6036   -4.3066   24.7227 C   0  0  0  0  0  0
  -21.8812   -3.8170   23.4342 C   0  0  0  0  0  0
  -21.9182   -4.6986   22.3404 C   0  0  0  0  0  0
  -22.7867  -13.5228   21.1853 C   0  0  0  0  0  0
  -22.1646   -4.2178   21.0976 F   0  0  0  0  0  0
  -21.5622   -3.4540   25.7733 F   0  0  0  0  0  0
  -30.0250  -13.3235   20.4184 N   0  0  0  0  0  0
  -26.2999  -12.9327   20.3343 N   0  0  0  0  0  0
  -25.9338  -11.6478   20.5789 N   0  0  0  0  0  0
  -22.0518  -12.8222   22.0425 N   0  0  0  0  0  0
  -25.4228  -15.1840   20.3972 N   0  0  0  0  0  0
  -31.8838  -14.6096   20.1699 O   0  0  0  0  0  0
  -21.6634   -6.8899   21.4248 O   0  0  0  0  0  0
  -22.3549  -14.5519   20.6690 O   0  0  0  0  0  0
  -24.6137  -31.8706   23.2137 C   0  0  0  0  0  0
  -25.9014  -32.4859   23.8458 C   0  0  1  0  0  0
  -27.2320  -27.4402   20.1024 C   0  0  0  0  0  0
  -25.5880  -33.8656   24.2392 N   0  0  0  0  0  0
  -23.4044  -30.4951   21.5521 C   0  0  2  0  0  0
  -24.8491  -28.9638   20.1169 C   0  0  0  0  0  0
  -22.7428  -29.4681   22.5000 C   0  0  0  0  0  0
  -18.0285  -28.1372   22.8500 C   0  0  0  0  0  0
  -24.1483  -36.7312   23.2645 C   0  0  0  0  0  0
  -25.9333  -30.8410   21.3642 C   0  0  0  0  0  0
  -26.0108  -29.4768   20.7073 C   0  0  0  0  0  0
  -27.2068  -28.7245   20.6923 C   0  0  0  0  0  0
  -26.0509  -26.9441   19.5026 C   0  0  0  0  0  0
  -24.8627  -27.6947   19.5143 C   0  0  0  0  0  0
  -23.6122  -29.8293   20.1664 C   0  0  0  0  0  0
  -25.4103  -36.3146   24.0366 C   0  0  1  0  0  0
  -20.5876  -28.3657   23.1321 C   0  0  2  0  0  0
  -20.6771  -26.9390   22.5421 C   0  0  0  0  0  0
  -19.5748  -26.6376   21.5221 C   0  0  0  0  0  0
  -18.1923  -26.7927   22.1622 C   0  0  0  0  0  0
  -19.1535  -28.8835   23.2910 C   0  0  0  0  0  0
  -18.9453  -30.1441   23.8916 C   0  0  0  0  0  0
  -17.6450  -30.6576   24.0567 C   0  0  0  0  0  0
  -25.9020  -34.9503   23.5178 C   0  0  0  0  0  0
  -16.5344  -29.9072   23.6325 C   0  0  0  0  0  0
  -16.7273  -28.6492   23.0347 C   0  0  0  0  0  0
  -26.4438  -31.6640   25.0781 C   0  0  0  0  0  0
  -25.3740  -31.3708   26.1565 C   0  0  0  0  0  0
  -27.0239  -30.3099   24.6109 C   0  0  0  0  0  0
  -27.6047  -32.4349   25.7499 C   0  0  0  0  0  0
  -27.5594  -37.1818   24.8475 C   0  0  0  0  0  0
  -21.4156  -29.3033   22.3733 N   0  0  0  0  0  0
  -26.4306  -37.3815   23.9420 N   0  0  0  0  0  0
  -24.6690  -31.0829   22.1013 N   0  0  0  0  0  0
  -23.4207  -28.8227   23.3039 O   0  0  0  0  0  0
  -28.3931  -26.6963   20.1441 O   0  0  0  0  0  0
  -26.5568  -34.8932   22.4730 O   0  0  0  0  0  0
  -23.5324  -32.1425   23.7531 O   0  0  0  0  0  0
  -28.8728  -20.1532   21.3387 C   0  0  0  0  0  0
  -31.0121  -18.5545   21.9184 C   0  0  0  0  0  0
  -28.6671  -18.7571   21.3821 C   0  0  0  0  0  0
  -29.7745  -17.9198   21.6875 C   0  0  0  0  0  0
  -30.1482  -20.6981   21.5806 C   0  0  0  0  0  0
  -26.6752  -18.7736   19.8044 C   0  0  0  0  0  0
  -26.3249  -18.5157   22.2945 C   0  0  0  0  0  0
  -30.5430  -22.5981   23.1439 C   0  0  0  0  0  0
  -31.6996  -22.5860   20.8911 C   0  0  0  0  0  0
  -29.8903  -16.4062   19.2961 C   0  0  0  0  0  0
  -29.6959  -16.3759   21.7867 C   0  0  0  0  0  0
  -29.4334  -24.5947   20.8690 C   0  0  0  0  0  0
  -29.2353  -23.0595   21.0193 C   0  0  0  0  0  0
  -28.2231  -25.2736   20.2090 C   0  0  0  0  0  0
  -27.2617  -18.2221   21.1147 C   0  0  0  0  0  0
  -30.4031  -22.2291   21.6531 C   0  0  0  0  0  0
  -31.1951  -19.8923   21.8793 N   0  0  0  0  0  0
  -29.9217  -15.6105   20.5352 N   0  0  0  0  0  0
  -31.4635  -12.3972   19.1305 H   0  0  0  0  0  0
  -30.3122  -11.3078   19.8591 H   0  0  0  0  0  0
  -29.7344  -11.7288   17.4531 H   0  0  0  0  0  0
  -29.6657  -13.4494   17.7450 H   0  0  0  0  0  0
  -27.8295  -11.2971   18.8381 H   0  0  0  0  0  0
  -27.3693  -12.6093   17.7856 H   0  0  0  0  0  0
  -27.6818  -14.2499   19.5401 H   0  0  0  0  0  0
  -28.6798  -12.0288   21.3929 H   0  0  0  0  0  0
  -28.4769  -13.7016   21.8302 H   0  0  0  0  0  0
  -25.2773   -9.5673   22.4752 H   0  0  0  0  0  0
  -23.9991   -7.4619   22.7458 H   0  0  0  0  0  0
  -21.0848   -8.8803   19.8944 H   0  0  0  0  0  0
  -22.3719  -10.9687   19.6187 H   0  0  0  0  0  0
  -21.2013   -7.6167   23.9737 H   0  0  0  0  0  0
  -21.1459   -6.0537   25.9081 H   0  0  0  0  0  0
  -22.0603   -2.7638   23.2834 H   0  0  0  0  0  0
  -22.4130  -11.9871   22.4787 H   0  0  0  0  0  0
  -21.1140  -13.1261   22.2634 H   0  0  0  0  0  0
  -24.6534  -15.8380   20.4898 H   0  0  0  0  0  0
  -26.2677  -15.6109   20.0420 H   0  0  0  0  0  0
  -26.7105  -32.5576   23.1251 H   0  0  0  0  0  0
  -25.0104  -33.9844   25.0586 H   0  0  0  0  0  0
  -22.6932  -31.3113   21.4125 H   0  0  0  0  0  0
  -23.3769  -35.9623   23.3331 H   0  0  0  0  0  0
  -24.3583  -36.8880   22.2055 H   0  0  0  0  0  0
  -23.7200  -37.6520   23.6610 H   0  0  0  0  0  0
  -26.0503  -31.6106   20.5997 H   0  0  0  0  0  0
  -26.8199  -30.8930   21.9850 H   0  0  0  0  0  0
  -28.1027  -29.1129   21.1562 H   0  0  0  0  0  0
  -26.0276  -25.9717   19.0324 H   0  0  0  0  0  0
  -23.9671  -27.2867   19.0674 H   0  0  0  0  0  0
  -23.7231  -30.6043   19.4066 H   0  0  0  0  0  0
  -22.7362  -29.2493   19.8706 H   0  0  0  0  0  0
  -25.1273  -36.2055   25.0862 H   0  0  0  0  0  0
  -20.9979  -28.3207   24.1439 H   0  0  0  0  0  0
  -20.5669  -26.2261   23.3605 H   0  0  0  0  0  0
  -21.6638  -26.7418   22.1216 H   0  0  0  0  0  0
  -19.6895  -25.6289   21.1243 H   0  0  0  0  0  0
  -19.6696  -27.3196   20.6760 H   0  0  0  0  0  0
  -17.4203  -26.6713   21.4005 H   0  0  0  0  0  0
  -18.0288  -26.0056   22.8998 H   0  0  0  0  0  0
  -19.7919  -30.7265   24.2289 H   0  0  0  0  0  0
  -17.4991  -31.6256   24.5160 H   0  0  0  0  0  0
  -15.5343  -30.2969   23.7632 H   0  0  0  0  0  0
  -15.8681  -28.0813   22.7040 H   0  0  0  0  0  0
  -24.5941  -30.6999   25.7947 H   0  0  0  0  0  0
  -24.8882  -32.2821   26.5059 H   0  0  0  0  0  0
  -25.8158  -30.8901   27.0307 H   0  0  0  0  0  0
  -26.2745  -29.6913   24.1157 H   0  0  0  0  0  0
  -27.4018  -29.7296   25.4536 H   0  0  0  0  0  0
  -27.8588  -30.4455   23.9235 H   0  0  0  0  0  0
  -27.2712  -33.3657   26.2100 H   0  0  0  0  0  0
  -28.3811  -32.6905   25.0276 H   0  0  0  0  0  0
  -28.0759  -31.8463   26.5380 H   0  0  0  0  0  0
  -28.2647  -38.0085   24.7517 H   0  0  0  0  0  0
  -28.1063  -36.2627   24.6314 H   0  0  0  0  0  0
  -27.2317  -37.1489   25.8882 H   0  0  0  0  0  0
  -20.9316  -29.8776   21.6978 H   0  0  0  0  0  0
  -26.0226  -38.2910   24.1407 H   0  0  0  0  0  0
  -28.0323  -20.7981   21.1417 H   0  0  0  0  0  0
  -31.8886  -17.9662   22.1495 H   0  0  0  0  0  0
  -27.3380  -18.5771   18.9617 H   0  0  0  0  0  0
  -26.5090  -19.8495   19.8459 H   0  0  0  0  0  0
  -25.7141  -18.3079   19.5856 H   0  0  0  0  0  0
  -26.6942  -18.0615   23.2148 H   0  0  0  0  0  0
  -25.3272  -18.1175   22.1050 H   0  0  0  0  0  0
  -26.2249  -19.5876   22.4688 H   0  0  0  0  0  0
  -31.3744  -22.0597   23.6007 H   0  0  0  0  0  0
  -29.6398  -22.3267   23.6927 H   0  0  0  0  0  0
  -30.7251  -23.6594   23.3061 H   0  0  0  0  0  0
  -32.5631  -22.0256   21.2480 H   0  0  0  0  0  0
  -31.9620  -23.6360   21.0125 H   0  0  0  0  0  0
  -31.5894  -22.3853   19.8250 H   0  0  0  0  0  0
  -28.9107  -16.8562   19.1509 H   0  0  0  0  0  0
  -30.0869  -15.7998   18.4097 H   0  0  0  0  0  0
  -30.6368  -17.2029   19.3094 H   0  0  0  0  0  0
  -28.7385  -16.0804   22.2156 H   0  0  0  0  0  0
  -30.4243  -16.0598   22.5379 H   0  0  0  0  0  0
  -30.3065  -24.8291   20.2614 H   0  0  0  0  0  0
  -29.6068  -25.0416   21.8474 H   0  0  0  0  0  0
  -29.0246  -22.6589   20.0258 H   0  0  0  0  0  0
  -28.3297  -22.9034   21.6068 H   0  0  0  0  0  0
  -27.3340  -25.0184   20.7895 H   0  0  0  0  0  0
  -28.0794  -24.8743   19.2036 H   0  0  0  0  0  0
  -27.3085  -17.1440   20.9940 H   0  0  0  0  0  0
  1 25  1  0  0  0
  1 30  2  0  0  0
  1 88  1  0  0  0
  2  3  1  0  0  0
  2 25  1  0  0  0
  2 89  1  0  0  0
  2 90  1  0  0  0
  3  4  1  0  0  0
  3 91  1  0  0  0
  3 92  1  0  0  0
  4  5  1  0  0  0
  4 93  1  0  0  0
  4 94  1  0  0  0
  5  6  1  0  0  0
  5 26  1  0  0  0
  5 95  1  0  0  0
  6 25  1  0  0  0
  6 96  1  0  0  0
  6 97  1  0  0  0
  7  8  2  0  0  0
  7 26  1  0  0  0
  7 29  1  0  0  0
  8  9  1  0  0  0
  8 22  1  0  0  0
  9 10  1  0  0  0
  9 27  2  0  0  0
 10 11  2  0  0  0
 10 15  1  0  0  0
 11 12  1  0  0  0
 11 98  1  0  0  0
 12 13  2  0  0  0
 12 99  1  0  0  0
 13 14  1  0  0  0
 13 31  1  0  0  0
 14 15  2  0  0  0
 14100  1  0  0  0
 15101  1  0  0  0
 16 17  2  0  0  0
 16 21  1  0  0  0
 16 31  1  0  0  0
 17 18  1  0  0  0
 17102  1  0  0  0
 18 19  2  0  0  0
 18103  1  0  0  0
 19 20  1  0  0  0
 19 24  1  0  0  0
 20 21  2  0  0  0
 20104  1  0  0  0
 21 23  1  0  0  0
 22 28  1  0  0  0
 22 32  2  0  0  0
 26 27  1  0  0  0
 28105  1  0  0  0
 28106  1  0  0  0
 29107  1  0  0  0
 29108  1  0  0  0
 33 34  1  0  0  0
 33 66  1  0  0  0
 33 70  2  0  0  0
 34 36  1  0  0  0
 34 59  1  0  0  0
 34109  1  0  0  0
 35 44  2  0  0  0
 35 45  1  0  0  0
 35 68  1  0  0  0
 36 56  1  0  0  0
 36110  1  0  0  0
 37 39  1  0  0  0
 37 47  1  0  0  0
 37 66  1  0  0  0
 37111  1  0  0  0
 38 43  2  0  0  0
 38 46  1  0  0  0
 38 47  1  0  0  0
 39 64  1  0  0  0
 39 67  2  0  0  0
 40 52  1  0  0  0
 40 53  2  0  0  0
 40 58  1  0  0  0
 41112  1  0  0  0
 41113  1  0  0  0
 41114  1  0  0  0
 41 48  1  0  0  0
 42 43  1  0  0  0
 42 66  1  0  0  0
 42115  1  0  0  0
 42116  1  0  0  0
 43 44  1  0  0  0
 44117  1  0  0  0
 45 46  2  0  0  0
 45118  1  0  0  0
 46119  1  0  0  0
 47120  1  0  0  0
 47121  1  0  0  0
 48 56  1  0  0  0
 48 65  1  0  0  0
 48122  1  0  0  0
 49 50  1  0  0  0
 49 53  1  0  0  0
 49 64  1  0  0  0
 49123  1  0  0  0
 50 51  1  0  0  0
 50124  1  0  0  0
 50125  1  0  0  0
 51 52  1  0  0  0
 51126  1  0  0  0
 51127  1  0  0  0
 52128  1  0  0  0
 52129  1  0  0  0
 53 54  1  0  0  0
 54 55  2  0  0  0
 54130  1  0  0  0
 55 57  1  0  0  0
 55131  1  0  0  0
 56 69  2  0  0  0
 57 58  2  0  0  0
 57132  1  0  0  0
 58133  1  0  0  0
 59 60  1  0  0  0
 59 61  1  0  0  0
 59 62  1  0  0  0
 60134  1  0  0  0
 60135  1  0  0  0
 60136  1  0  0  0
 61137  1  0  0  0
 61138  1  0  0  0
 61139  1  0  0  0
 62140  1  0  0  0
 62141  1  0  0  0
 62142  1  0  0  0
 63 65  1  0  0  0
 63143  1  0  0  0
 63144  1  0  0  0
 63145  1  0  0  0
 64146  1  0  0  0
 65147  1  0  0  0
 68 84  1  0  0  0
 71 73  2  0  0  0
 71 75  1  0  0  0
 71148  1  0  0  0
 72 74  2  0  0  0
 72 87  1  0  0  0
 72149  1  0  0  0
 73 74  1  0  0  0
 73 85  1  0  0  0
 74 81  1  0  0  0
 75 86  1  0  0  0
 75 87  2  0  0  0
 76150  1  0  0  0
 76151  1  0  0  0
 76152  1  0  0  0
 76 85  1  0  0  0
 77 85  1  0  0  0
 77153  1  0  0  0
 77154  1  0  0  0
 77155  1  0  0  0
 78156  1  0  0  0
 78157  1  0  0  0
 78158  1  0  0  0
 78 86  1  0  0  0
 79 86  1  0  0  0
 79159  1  0  0  0
 79160  1  0  0  0
 79161  1  0  0  0
 80 88  1  0  0  0
 80162  1  0  0  0
 80163  1  0  0  0
 80164  1  0  0  0
 81 88  1  0  0  0
 81165  1  0  0  0
 81166  1  0  0  0
 82 83  1  0  0  0
 82 84  1  0  0  0
 82167  1  0  0  0
 82168  1  0  0  0
 83 86  1  0  0  0
 83169  1  0  0  0
 83170  1  0  0  0
 84171  1  0  0  0
 84172  1  0  0  0
 85173  1  0  0  0
M  ISO  4   1 100  68 101  84 101  88 100
M  END
> <chiral flag>
0

> <version>
0

> <s_m_source_file>
/data/baiqing/PycharmProjects/Reinvent-master-3.2/result/LINK_invent/BTK/process_docking_weight1_custom_sum_contain_oxygen_bond_distance_aromatic_linkinvent_7_9_3/rearranged_h_0098.sdf

> <i_m_source_file_index>
8

> <r_mmod_Potential_Energy-OPLS-2005>
-61.4208106994629

> <r_mmod_Stretch_Energy-OPLS-2005>
44.0476112365723

> <r_mmod_Bend_Energy-OPLS-2005>
105.598854064941

> <r_mmod_Torsional_Energy-OPLS-2005>
280.422821044922

> <r_mmod_Improper_Torsional_Energy-OPLS-2005>
17.0747146606445

> <r_mmod_Van_der_Waal_Energy-OPLS-2005>
164.742095947266

> <r_mmod_Electrostatic_Energy-OPLS-2005>
-499.994903564453

> <r_mmod_Solvation_Energy-OPLS-2005>
-192.819549560547

> <b_mmod_Minimization_Converged-OPLS-2005>
0

> <r_mmod_RMS_Derivative-OPLS-2005>
2.70090222358704

$$$$
8
                    3D
 Structure written by MMmdl.
157165  0  0  1  0            999 V2000
  -30.4968  -15.0206   20.3932 C   0  0  0  0  0  0
  -30.4431  -12.6247   19.5310 C   0  0  0  0  0  0
  -29.5350  -12.5445   18.2789 C   0  0  0  0  0  0
  -28.0670  -12.3209   18.6871 C   0  0  0  0  0  0
  -27.6317  -13.2560   19.8458 C   0  0  2  0  0  0
  -28.6670  -13.3015   20.9925 C   0  0  0  0  0  0
  -25.2458  -13.8230   20.5717 C   0  0  0  0  0  0
  -24.1776  -13.0446   20.9224 C   0  0  0  0  0  0
  -24.6404  -11.6933   20.8750 C   0  0  0  0  0  0
  -23.9089  -10.4297   21.0403 C   0  0  0  0  0  0
  -24.3637   -9.4212   21.9181 C   0  0  0  0  0  0
  -23.6305   -8.2251   22.0753 C   0  0  0  0  0  0
  -22.4287   -8.0286   21.3543 C   0  0  0  0  0  0
  -21.9926   -9.0264   20.4647 C   0  0  0  0  0  0
  -22.7261  -10.2142   20.3051 C   0  0  0  0  0  0
  -21.6856   -6.0744   22.5276 C   0  0  0  0  0  0
  -21.4018   -6.5645   23.8213 C   0  0  0  0  0  0
  -21.3659   -5.6793   24.9173 C   0  0  0  0  0  0
  -21.6039   -4.3056   24.7221 C   0  0  0  0  0  0
  -21.8818   -3.8153   23.4342 C   0  0  0  0  0  0
  -21.9192   -4.6970   22.3400 C   0  0  0  0  0  0
  -22.7793  -13.5213   21.1874 C   0  0  0  0  0  0
  -22.1658   -4.2159   21.0976 F   0  0  0  0  0  0
  -21.5627   -3.4534   25.7735 F   0  0  0  0  0  0
  -29.9438  -13.7322   20.4074 N   0  0  0  0  0  0
  -26.2891  -12.9473   20.3261 N   0  0  0  0  0  0
  -25.9343  -11.6597   20.5749 N   0  0  0  0  0  0
  -22.0437  -12.8208   22.0427 N   0  0  0  0  0  0
  -25.4119  -15.1961   20.4146 N   0  0  0  0  0  0
  -31.6693  -15.1017   20.0109 O   0  0  0  0  0  0
  -21.6642   -6.8890   21.4240 O   0  0  0  0  0  0
  -22.3475  -14.5512   20.6708 O   0  0  0  0  0  0
  -24.6472  -31.8367   23.1808 C   0  0  0  0  0  0
  -25.9221  -32.4652   23.8223 C   0  0  1  0  0  0
  -27.2263  -27.0832   20.1592 C   0  0  0  0  0  0
  -25.5947  -33.8462   24.2139 N   0  0  0  0  0  0
  -23.4545  -30.4505   21.5260 C   0  0  2  0  0  0
  -24.9064  -28.8615   20.1050 C   0  0  0  0  0  0
  -22.7590  -29.4503   22.4833 C   0  0  0  0  0  0
  -18.0307  -28.1398   22.8473 C   0  0  0  0  0  0
  -24.1493  -36.7241   23.2646 C   0  0  0  0  0  0
  -26.0109  -30.6917   21.3875 C   0  0  0  0  0  0
  -26.0803  -29.2969   20.7304 C   0  0  0  0  0  0
  -27.2339  -28.4214   20.7419 C   0  0  0  0  0  0
  -26.0286  -26.7548   19.4903 C   0  0  0  0  0  0
  -24.8962  -27.6069   19.4693 C   0  0  0  0  0  0
  -23.6838  -29.7696   20.1477 C   0  0  0  0  0  0
  -25.4127  -36.3007   24.0310 C   0  0  1  0  0  0
  -20.5922  -28.3728   23.1225 C   0  0  2  0  0  0
  -20.6787  -26.9424   22.5409 C   0  0  0  0  0  0
  -19.5761  -26.6377   21.5217 C   0  0  0  0  0  0
  -18.1942  -26.7933   22.1623 C   0  0  0  0  0  0
  -19.1564  -28.8882   23.2837 C   0  0  0  0  0  0
  -18.9481  -30.1477   23.8862 C   0  0  0  0  0  0
  -17.6477  -30.6592   24.0558 C   0  0  0  0  0  0
  -25.9080  -34.9384   23.5041 C   0  0  0  0  0  0
  -16.5367  -29.9084   23.6338 C   0  0  0  0  0  0
  -16.7292  -28.6504   23.0355 C   0  0  0  0  0  0
  -26.4527  -31.6551   25.0697 C   0  0  0  0  0  0
  -25.3697  -31.3765   26.1385 C   0  0  0  0  0  0
  -27.0414  -30.2940   24.6333 C   0  0  0  0  0  0
  -27.6041  -32.4339   25.7489 C   0  0  0  0  0  0
  -27.5573  -37.1777   24.8463 C   0  0  0  0  0  0
  -21.4277  -29.3036   22.3588 N   0  0  0  0  0  0
  -26.4283  -37.3728   23.9406 N   0  0  0  0  0  0
  -24.7241  -31.0168   22.0862 N   0  0  0  0  0  0
  -23.4207  -28.8070   23.3019 O   0  0  0  0  0  0
  -28.2912  -26.1051   20.2923 O   0  0  0  0  0  0
  -26.5679  -34.8900   22.4630 O   0  0  0  0  0  0
  -23.5580  -32.1268   23.7000 O   0  0  0  0  0  0
  -30.6064  -21.9289   20.6108 C   0  0  0  0  0  0
  -29.2335  -21.7155   20.3838 C   0  0  0  0  0  0
  -29.7894  -19.2241   20.3864 C   0  0  0  0  0  0
  -31.1313  -19.6238   20.6562 C   0  0  0  0  0  0
  -33.2002  -18.8790   21.9513 C   0  0  0  0  0  0
  -33.0846  -18.5830   19.4229 C   0  0  0  0  0  0
  -28.2563  -23.0751   20.5106 C   0  0  0  0  0  0
  -29.5007  -17.6306   19.9348 C   0  0  0  0  0  0
  -28.4140  -24.6163   19.7647 C   0  0  0  0  0  0
  -32.2887  -18.6268   20.7368 C   0  0  0  0  0  0
  -31.5138  -20.9295   20.7412 N   0  0  0  0  0  0
  -28.8551  -20.3244   20.2631 N   0  0  0  0  0  0
  -29.7049  -16.1951   20.6329 N   0  0  0  0  0  0
  -31.4791  -12.7794   19.2266 H   0  0  0  0  0  0
  -30.4386  -11.6770   20.0723 H   0  0  0  0  0  0
  -29.8681  -11.7428   17.6182 H   0  0  0  0  0  0
  -29.6198  -13.4695   17.7061 H   0  0  0  0  0  0
  -27.9665  -11.2802   18.9978 H   0  0  0  0  0  0
  -27.4097  -12.4459   17.8263 H   0  0  0  0  0  0
  -27.5923  -14.2559   19.4126 H   0  0  0  0  0  0
  -28.7615  -12.3283   21.4767 H   0  0  0  0  0  0
  -28.3504  -14.0010   21.7677 H   0  0  0  0  0  0
  -25.2779   -9.5692   22.4765 H   0  0  0  0  0  0
  -24.0011   -7.4643   22.7479 H   0  0  0  0  0  0
  -21.0853   -8.8792   19.8959 H   0  0  0  0  0  0
  -22.3715  -10.9685   19.6167 H   0  0  0  0  0  0
  -21.2014   -7.6155   23.9722 H   0  0  0  0  0  0
  -21.1480   -6.0520   25.9077 H   0  0  0  0  0  0
  -22.0599   -2.7615   23.2834 H   0  0  0  0  0  0
  -22.4056  -11.9881   22.4834 H   0  0  0  0  0  0
  -21.1055  -13.1234   22.2628 H   0  0  0  0  0  0
  -24.6417  -15.8467   20.5255 H   0  0  0  0  0  0
  -26.2526  -15.6362   20.0639 H   0  0  0  0  0  0
  -26.7285  -32.5236   23.0943 H   0  0  0  0  0  0
  -25.0052  -33.9557   25.0260 H   0  0  0  0  0  0
  -22.7595  -31.2772   21.3644 H   0  0  0  0  0  0
  -23.3760  -35.9567   23.3289 H   0  0  0  0  0  0
  -24.3573  -36.8899   22.2064 H   0  0  0  0  0  0
  -23.7252  -37.6431   23.6703 H   0  0  0  0  0  0
  -26.1732  -31.4427   20.6133 H   0  0  0  0  0  0
  -26.8782  -30.7431   22.0342 H   0  0  0  0  0  0
  -28.1240  -28.7459   21.2617 H   0  0  0  0  0  0
  -25.9359  -25.7874   19.0185 H   0  0  0  0  0  0
  -23.9982  -27.2671   18.9714 H   0  0  0  0  0  0
  -23.8224  -30.5392   19.3878 H   0  0  0  0  0  0
  -22.7982  -29.2115   19.8389 H   0  0  0  0  0  0
  -25.1325  -36.1819   25.0802 H   0  0  0  0  0  0
  -21.0009  -28.3325   24.1348 H   0  0  0  0  0  0
  -20.5678  -26.2345   23.3636 H   0  0  0  0  0  0
  -21.6653  -26.7420   22.1212 H   0  0  0  0  0  0
  -19.6923  -25.6281   21.1265 H   0  0  0  0  0  0
  -19.6701  -27.3173   20.6735 H   0  0  0  0  0  0
  -17.4217  -26.6682   21.4021 H   0  0  0  0  0  0
  -18.0332  -26.0081   22.9024 H   0  0  0  0  0  0
  -19.7957  -30.7301   24.2217 H   0  0  0  0  0  0
  -17.5031  -31.6267   24.5168 H   0  0  0  0  0  0
  -15.5367  -30.2975   23.7682 H   0  0  0  0  0  0
  -15.8692  -28.0815   22.7086 H   0  0  0  0  0  0
  -24.5869  -30.7121   25.7705 H   0  0  0  0  0  0
  -24.8894  -32.2956   26.4746 H   0  0  0  0  0  0
  -25.7961  -30.8973   27.0206 H   0  0  0  0  0  0
  -26.3051  -29.6635   24.1333 H   0  0  0  0  0  0
  -27.3996  -29.7271   25.4938 H   0  0  0  0  0  0
  -27.8967  -30.4164   23.9685 H   0  0  0  0  0  0
  -27.2614  -33.3656   26.2000 H   0  0  0  0  0  0
  -28.3883  -32.6875   25.0343 H   0  0  0  0  0  0
  -28.0675  -31.8514   26.5461 H   0  0  0  0  0  0
  -28.2582  -38.0081   24.7507 H   0  0  0  0  0  0
  -28.1078  -36.2612   24.6293 H   0  0  0  0  0  0
  -27.2287  -37.1426   25.8863 H   0  0  0  0  0  0
  -20.9507  -29.8732   21.6740 H   0  0  0  0  0  0
  -26.0145  -38.2794   24.1403 H   0  0  0  0  0  0
  -30.9845  -22.9314   20.7495 H   0  0  0  0  0  0
  -32.6277  -18.8759   22.8794 H   0  0  0  0  0  0
  -33.7130  -19.8385   21.8786 H   0  0  0  0  0  0
  -33.9653  -18.1067   22.0322 H   0  0  0  0  0  0
  -32.4386  -18.3252   18.5834 H   0  0  0  0  0  0
  -33.8761  -17.8346   19.4662 H   0  0  0  0  0  0
  -33.5465  -19.5458   19.2038 H   0  0  0  0  0  0
  -28.2604  -23.2817   21.5807 H   0  0  0  0  0  0
  -27.2395  -22.7343   20.3170 H   0  0  0  0  0  0
  -30.0174  -17.5337   18.9791 H   0  0  0  0  0  0
  -28.4468  -17.6310   19.6567 H   0  0  0  0  0  0
  -27.8730  -24.5670   18.8197 H   0  0  0  0  0  0
  -29.4541  -24.6132   19.4399 H   0  0  0  0  0  0
  -31.8791  -17.6357   20.9019 H   0  0  0  0  0  0
  -28.8670  -15.9393   21.1334 H   0  0  0  0  0  0
  1 25  1  0  0  0
  1 30  2  0  0  0
  1 83  1  0  0  0
  2  3  1  0  0  0
  2 25  1  0  0  0
  2 84  1  0  0  0
  2 85  1  0  0  0
  3  4  1  0  0  0
  3 86  1  0  0  0
  3 87  1  0  0  0
  4  5  1  0  0  0
  4 88  1  0  0  0
  4 89  1  0  0  0
  5  6  1  0  0  0
  5 26  1  0  0  0
  5 90  1  0  0  0
  6 25  1  0  0  0
  6 91  1  0  0  0
  6 92  1  0  0  0
  7  8  2  0  0  0
  7 26  1  0  0  0
  7 29  1  0  0  0
  8  9  1  0  0  0
  8 22  1  0  0  0
  9 10  1  0  0  0
  9 27  2  0  0  0
 10 11  2  0  0  0
 10 15  1  0  0  0
 11 12  1  0  0  0
 11 93  1  0  0  0
 12 13  2  0  0  0
 12 94  1  0  0  0
 13 14  1  0  0  0
 13 31  1  0  0  0
 14 15  2  0  0  0
 14 95  1  0  0  0
 15 96  1  0  0  0
 16 17  2  0  0  0
 16 21  1  0  0  0
 16 31  1  0  0  0
 17 18  1  0  0  0
 17 97  1  0  0  0
 18 19  2  0  0  0
 18 98  1  0  0  0
 19 20  1  0  0  0
 19 24  1  0  0  0
 20 21  2  0  0  0
 20 99  1  0  0  0
 21 23  1  0  0  0
 22 28  1  0  0  0
 22 32  2  0  0  0
 26 27  1  0  0  0
 28100  1  0  0  0
 28101  1  0  0  0
 29102  1  0  0  0
 29103  1  0  0  0
 33 34  1  0  0  0
 33 66  1  0  0  0
 33 70  2  0  0  0
 34 36  1  0  0  0
 34 59  1  0  0  0
 34104  1  0  0  0
 35 44  2  0  0  0
 35 45  1  0  0  0
 35 68  1  0  0  0
 36 56  1  0  0  0
 36105  1  0  0  0
 37 39  1  0  0  0
 37 47  1  0  0  0
 37 66  1  0  0  0
 37106  1  0  0  0
 38 43  2  0  0  0
 38 46  1  0  0  0
 38 47  1  0  0  0
 39 64  1  0  0  0
 39 67  2  0  0  0
 40 52  1  0  0  0
 40 53  2  0  0  0
 40 58  1  0  0  0
 41107  1  0  0  0
 41108  1  0  0  0
 41109  1  0  0  0
 41 48  1  0  0  0
 42 43  1  0  0  0
 42 66  1  0  0  0
 42110  1  0  0  0
 42111  1  0  0  0
 43 44  1  0  0  0
 44112  1  0  0  0
 45 46  2  0  0  0
 45113  1  0  0  0
 46114  1  0  0  0
 47115  1  0  0  0
 47116  1  0  0  0
 48 56  1  0  0  0
 48 65  1  0  0  0
 48117  1  0  0  0
 49 50  1  0  0  0
 49 53  1  0  0  0
 49 64  1  0  0  0
 49118  1  0  0  0
 50 51  1  0  0  0
 50119  1  0  0  0
 50120  1  0  0  0
 51 52  1  0  0  0
 51121  1  0  0  0
 51122  1  0  0  0
 52123  1  0  0  0
 52124  1  0  0  0
 53 54  1  0  0  0
 54 55  2  0  0  0
 54125  1  0  0  0
 55 57  1  0  0  0
 55126  1  0  0  0
 56 69  2  0  0  0
 57 58  2  0  0  0
 57127  1  0  0  0
 58128  1  0  0  0
 59 60  1  0  0  0
 59 61  1  0  0  0
 59 62  1  0  0  0
 60129  1  0  0  0
 60130  1  0  0  0
 60131  1  0  0  0
 61132  1  0  0  0
 61133  1  0  0  0
 61134  1  0  0  0
 62135  1  0  0  0
 62136  1  0  0  0
 62137  1  0  0  0
 63 65  1  0  0  0
 63138  1  0  0  0
 63139  1  0  0  0
 63140  1  0  0  0
 64141  1  0  0  0
 65142  1  0  0  0
 68 79  1  0  0  0
 71 72  2  0  0  0
 71 81  1  0  0  0
 71143  1  0  0  0
 72 77  1  0  0  0
 72 82  1  0  0  0
 73 74  1  0  0  0
 73 78  1  0  0  0
 73 82  2  0  0  0
 74 80  1  0  0  0
 74 81  2  0  0  0
 75144  1  0  0  0
 75145  1  0  0  0
 75146  1  0  0  0
 75 80  1  0  0  0
 76 80  1  0  0  0
 76147  1  0  0  0
 76148  1  0  0  0
 76149  1  0  0  0
 77 79  1  0  0  0
 77150  1  0  0  0
 77151  1  0  0  0
 78 83  1  0  0  0
 78152  1  0  0  0
 78153  1  0  0  0
 79154  1  0  0  0
 79155  1  0  0  0
 80156  1  0  0  0
 83157  1  0  0  0
M  ISO  4   1 100  68 101  79 101  83 100
M  END
> <chiral flag>
0

> <version>
0

> <s_m_source_file>
/data/baiqing/PycharmProjects/Reinvent-master-3.2/result/LINK_invent/BTK/process_docking_weight1_custom_sum_contain_oxygen_bond_distance_aromatic_linkinvent_7_9_3/rearranged_h_0098.sdf

> <i_m_source_file_index>
9

> <r_mmod_Potential_Energy-OPLS-2005>
702.9072265625

> <r_mmod_Stretch_Energy-OPLS-2005>
338.241607666016

> <r_mmod_Bend_Energy-OPLS-2005>
360.862976074219

> <r_mmod_Torsional_Energy-OPLS-2005>
219.106948852539

> <r_mmod_Improper_Torsional_Energy-OPLS-2005>
8.81333446502686

> <r_mmod_Van_der_Waal_Energy-OPLS-2005>
124.892150878906

> <r_mmod_Electrostatic_Energy-OPLS-2005>
-365.629302978516

> <r_mmod_Solvation_Energy-OPLS-2005>
-228.108062744141

> <b_mmod_Minimization_Converged-OPLS-2005>
0

> <r_mmod_RMS_Derivative-OPLS-2005>
0.91556441783905

$$$$
9
                    3D
 Structure written by MMmdl.
170178  0  0  1  0            999 V2000
  -30.6282  -14.7190   20.4529 C   0  0  0  0  0  0
  -30.4271  -12.4376   19.4663 C   0  0  0  0  0  0
  -29.5033  -12.4918   18.2303 C   0  0  0  0  0  0
  -28.0313  -12.3190   18.6504 C   0  0  0  0  0  0
  -27.6398  -13.2275   19.8471 C   0  0  2  0  0  0
  -28.6866  -13.1569   20.9787 C   0  0  0  0  0  0
  -25.2486  -13.8182   20.5638 C   0  0  0  0  0  0
  -24.1789  -13.0435   20.9185 C   0  0  0  0  0  0
  -24.6383  -11.6913   20.8755 C   0  0  0  0  0  0
  -23.9064  -10.4293   21.0413 C   0  0  0  0  0  0
  -24.3616   -9.4204   21.9185 C   0  0  0  0  0  0
  -23.6291   -8.2238   22.0752 C   0  0  0  0  0  0
  -22.4274   -8.0279   21.3545 C   0  0  0  0  0  0
  -21.9915   -9.0249   20.4642 C   0  0  0  0  0  0
  -22.7239  -10.2128   20.3054 C   0  0  0  0  0  0
  -21.6848   -6.0734   22.5276 C   0  0  0  0  0  0
  -21.4012   -6.5637   23.8210 C   0  0  0  0  0  0
  -21.3662   -5.6791   24.9175 C   0  0  0  0  0  0
  -21.6048   -4.3056   24.7223 C   0  0  0  0  0  0
  -21.8820   -3.8144   23.4346 C   0  0  0  0  0  0
  -21.9192   -4.6961   22.3402 C   0  0  0  0  0  0
  -22.7813  -13.5215   21.1862 C   0  0  0  0  0  0
  -22.1661   -4.2148   21.0979 F   0  0  0  0  0  0
  -21.5632   -3.4538   25.7737 F   0  0  0  0  0  0
  -29.9855  -13.5044   20.3932 N   0  0  0  0  0  0
  -26.2926  -12.9390   20.3278 N   0  0  0  0  0  0
  -25.9314  -11.6538   20.5777 N   0  0  0  0  0  0
  -22.0479  -12.8197   22.0428 N   0  0  0  0  0  0
  -25.4136  -15.1893   20.3965 N   0  0  0  0  0  0
  -31.8224  -14.7918   20.1532 O   0  0  0  0  0  0
  -21.6640   -6.8873   21.4238 O   0  0  0  0  0  0
  -22.3483  -14.5522   20.6722 O   0  0  0  0  0  0
  -24.6300  -31.8538   23.1948 C   0  0  0  0  0  0
  -25.9136  -32.4738   23.8289 C   0  0  1  0  0  0
  -27.2293  -27.2647   20.1236 C   0  0  0  0  0  0
  -25.5946  -33.8537   24.2236 N   0  0  0  0  0  0
  -23.4256  -30.4736   21.5374 C   0  0  2  0  0  0
  -24.8728  -28.9142   20.1076 C   0  0  0  0  0  0
  -22.7490  -29.4584   22.4901 C   0  0  0  0  0  0
  -18.0290  -28.1366   22.8492 C   0  0  0  0  0  0
  -24.1494  -36.7277   23.2637 C   0  0  0  0  0  0
  -25.9684  -30.7677   21.3700 C   0  0  0  0  0  0
  -26.0411  -29.3893   20.7137 C   0  0  0  0  0  0
  -27.2167  -28.5765   20.7084 C   0  0  0  0  0  0
  -26.0296  -26.8391   19.5152 C   0  0  0  0  0  0
  -24.8727  -27.6472   19.4983 C   0  0  0  0  0  0
  -23.6432  -29.8020   20.1540 C   0  0  0  0  0  0
  -25.4124  -36.3050   24.0317 C   0  0  1  0  0  0
  -20.5893  -28.3672   23.1274 C   0  0  2  0  0  0
  -20.6782  -26.9391   22.5409 C   0  0  0  0  0  0
  -19.5755  -26.6371   21.5204 C   0  0  0  0  0  0
  -18.1934  -26.7911   22.1620 C   0  0  0  0  0  0
  -19.1548  -28.8839   23.2880 C   0  0  0  0  0  0
  -18.9478  -30.1446   23.8890 C   0  0  0  0  0  0
  -17.6479  -30.6577   24.0557 C   0  0  0  0  0  0
  -25.9066  -34.9423   23.5080 C   0  0  0  0  0  0
  -16.5371  -29.9074   23.6325 C   0  0  0  0  0  0
  -16.7278  -28.6484   23.0353 C   0  0  0  0  0  0
  -26.4507  -31.6562   25.0683 C   0  0  0  0  0  0
  -25.3740  -31.3708   26.1414 C   0  0  0  0  0  0
  -27.0350  -30.2984   24.6157 C   0  0  0  0  0  0
  -27.6063  -32.4299   25.7455 C   0  0  0  0  0  0
  -27.5575  -37.1792   24.8466 C   0  0  0  0  0  0
  -21.4200  -29.3026   22.3669 N   0  0  0  0  0  0
  -26.4290  -37.3760   23.9409 N   0  0  0  0  0  0
  -24.6940  -31.0504   22.0909 N   0  0  0  0  0  0
  -23.4200  -28.8133   23.3001 O   0  0  0  0  0  0
  -28.3727  -26.4394   20.2061 O   0  0  0  0  0  0
  -26.5626  -34.8898   22.4641 O   0  0  0  0  0  0
  -23.5463  -32.1352   23.7267 O   0  0  0  0  0  0
  -29.9607  -19.9017   20.0552 C   0  0  0  0  0  0
  -29.5732  -18.6379   20.4995 C   0  0  0  0  0  0
  -28.2730  -18.8876   21.0468 C   0  0  0  0  0  0
  -27.9089  -20.2094   20.8197 C   0  0  0  0  0  0
  -26.6055  -20.8895   21.0786 C   0  0  0  0  0  0
  -28.2595  -25.0365   18.1084 C   0  0  0  0  0  0
  -28.9151  -18.0351   23.6876 C   0  0  0  0  0  0
  -26.4838  -18.7374   23.6843 C   0  0  0  0  0  0
  -27.1104  -16.3395   23.3421 C   0  0  0  0  0  0
  -30.4309  -17.2929   20.4366 C   0  0  0  0  0  0
  -28.3366  -23.6501   20.3436 C   0  0  0  0  0  0
  -29.0631  -22.3405   19.7059 C   0  0  0  0  0  0
  -28.6015  -25.0763   19.6082 C   0  0  1  0  0  0
  -27.5229  -17.7912   23.0659 C   0  0  0  0  0  0
  -28.9730  -20.8997   20.2355 N   0  0  0  0  0  0
  -29.8906  -15.8794   20.6185 N   0  0  0  0  0  0
  -27.4970  -17.9161   21.6338 O   0  0  0  0  0  0
  -31.4688  -12.5537   19.1621 H   0  0  0  0  0  0
  -30.3672  -11.4621   19.9526 H   0  0  0  0  0  0
  -29.7815  -11.7142   17.5181 H   0  0  0  0  0  0
  -29.6303  -13.4426   17.7114 H   0  0  0  0  0  0
  -27.8938  -11.2725   18.9257 H   0  0  0  0  0  0
  -27.3691  -12.4977   17.8025 H   0  0  0  0  0  0
  -27.6363  -14.2477   19.4633 H   0  0  0  0  0  0
  -28.7179  -12.1580   21.4155 H   0  0  0  0  0  0
  -28.4303  -13.8347   21.7899 H   0  0  0  0  0  0
  -25.2761   -9.5683   22.4761 H   0  0  0  0  0  0
  -24.0004   -7.4629   22.7468 H   0  0  0  0  0  0
  -21.0852   -8.8758   19.8943 H   0  0  0  0  0  0
  -22.3697  -10.9664   19.6162 H   0  0  0  0  0  0
  -21.2001   -7.6143   23.9713 H   0  0  0  0  0  0
  -21.1485   -6.0522   25.9078 H   0  0  0  0  0  0
  -22.0599   -2.7606   23.2844 H   0  0  0  0  0  0
  -22.4115  -11.9856   22.4792 H   0  0  0  0  0  0
  -21.1094  -13.1195   22.2653 H   0  0  0  0  0  0
  -24.6515  -15.8433   20.5327 H   0  0  0  0  0  0
  -26.2767  -15.6445   20.1289 H   0  0  0  0  0  0
  -26.7202  -32.5381   23.1020 H   0  0  0  0  0  0
  -25.0110  -33.9665   25.0390 H   0  0  0  0  0  0
  -22.7207  -31.2951   21.3888 H   0  0  0  0  0  0
  -23.3751  -35.9617   23.3303 H   0  0  0  0  0  0
  -24.3573  -36.8907   22.2051 H   0  0  0  0  0  0
  -23.7265  -37.6488   23.6661 H   0  0  0  0  0  0
  -26.1032  -31.5284   20.5995 H   0  0  0  0  0  0
  -26.8489  -30.8176   22.0003 H   0  0  0  0  0  0
  -28.1152  -28.9398   21.1878 H   0  0  0  0  0  0
  -25.9534  -25.8548   19.0834 H   0  0  0  0  0  0
  -23.9728  -27.2722   19.0312 H   0  0  0  0  0  0
  -23.7687  -30.5782   19.3980 H   0  0  0  0  0  0
  -22.7612  -29.2363   19.8480 H   0  0  0  0  0  0
  -25.1306  -36.1883   25.0813 H   0  0  0  0  0  0
  -20.9994  -28.3252   24.1389 H   0  0  0  0  0  0
  -20.5674  -26.2275   23.3608 H   0  0  0  0  0  0
  -21.6645  -26.7400   22.1203 H   0  0  0  0  0  0
  -19.6914  -25.6278   21.1232 H   0  0  0  0  0  0
  -19.6702  -27.3182   20.6734 H   0  0  0  0  0  0
  -17.4209  -26.6672   21.4020 H   0  0  0  0  0  0
  -18.0340  -26.0035   22.8999 H   0  0  0  0  0  0
  -19.7960  -30.7270   24.2247 H   0  0  0  0  0  0
  -17.5031  -31.6248   24.5163 H   0  0  0  0  0  0
  -15.5371  -30.2974   23.7647 H   0  0  0  0  0  0
  -15.8676  -28.0802   22.7065 H   0  0  0  0  0  0
  -24.5922  -30.7034   25.7763 H   0  0  0  0  0  0
  -24.8912  -32.2868   26.4826 H   0  0  0  0  0  0
  -25.8067  -30.8913   27.0201 H   0  0  0  0  0  0
  -26.2913  -29.6728   24.1211 H   0  0  0  0  0  0
  -27.4075  -29.7246   25.4651 H   0  0  0  0  0  0
  -27.8761  -30.4263   23.9341 H   0  0  0  0  0  0
  -27.2677  -33.3615   26.1997 H   0  0  0  0  0  0
  -28.3886  -32.6849   25.0288 H   0  0  0  0  0  0
  -28.0705  -31.8448   26.5405 H   0  0  0  0  0  0
  -28.2595  -38.0086   24.7505 H   0  0  0  0  0  0
  -28.1068  -36.2612   24.6304 H   0  0  0  0  0  0
  -27.2283  -37.1463   25.8867 H   0  0  0  0  0  0
  -20.9383  -29.8758   21.6888 H   0  0  0  0  0  0
  -26.0164  -38.2831   24.1425 H   0  0  0  0  0  0
  -30.8906  -20.1839   19.5783 H   0  0  0  0  0  0
  -25.8328  -20.1675   21.3370 H   0  0  0  0  0  0
  -26.2554  -21.4159   20.1907 H   0  0  0  0  0  0
  -26.6915  -21.6031   21.8985 H   0  0  0  0  0  0
  -28.9628  -24.3995   17.5708 H   0  0  0  0  0  0
  -28.3208  -26.0254   17.6540 H   0  0  0  0  0  0
  -27.2661  -24.6312   17.9228 H   0  0  0  0  0  0
  -28.8970  -17.8631   24.7642 H   0  0  0  0  0  0
  -29.2561  -19.0598   23.5360 H   0  0  0  0  0  0
  -29.6667  -17.3681   23.2663 H   0  0  0  0  0  0
  -26.3579  -18.5406   24.7492 H   0  0  0  0  0  0
  -25.5084  -18.6144   23.2119 H   0  0  0  0  0  0
  -26.7797  -19.7801   23.5857 H   0  0  0  0  0  0
  -27.0518  -16.1342   24.4119 H   0  0  0  0  0  0
  -27.8310  -15.6426   22.9199 H   0  0  0  0  0  0
  -26.1354  -16.1091   22.9128 H   0  0  0  0  0  0
  -31.2266  -17.4121   21.1733 H   0  0  0  0  0  0
  -30.9393  -17.3094   19.4713 H   0  0  0  0  0  0
  -28.6547  -23.7345   21.3832 H   0  0  0  0  0  0
  -27.2606  -23.4919   20.3744 H   0  0  0  0  0  0
  -30.1269  -22.5741   19.6555 H   0  0  0  0  0  0
  -28.7477  -22.2823   18.6639 H   0  0  0  0  0  0
  -29.6919  -25.1056   19.6012 H   0  0  0  0  0  0
  -28.9019  -15.7878   20.7938 H   0  0  0  0  0  0
  1 25  1  0  0  0
  1 30  2  0  0  0
  1 86  1  0  0  0
  2  3  1  0  0  0
  2 25  1  0  0  0
  2 88  1  0  0  0
  2 89  1  0  0  0
  3  4  1  0  0  0
  3 90  1  0  0  0
  3 91  1  0  0  0
  4  5  1  0  0  0
  4 92  1  0  0  0
  4 93  1  0  0  0
  5  6  1  0  0  0
  5 26  1  0  0  0
  5 94  1  0  0  0
  6 25  1  0  0  0
  6 95  1  0  0  0
  6 96  1  0  0  0
  7  8  2  0  0  0
  7 26  1  0  0  0
  7 29  1  0  0  0
  8  9  1  0  0  0
  8 22  1  0  0  0
  9 10  1  0  0  0
  9 27  2  0  0  0
 10 11  2  0  0  0
 10 15  1  0  0  0
 11 12  1  0  0  0
 11 97  1  0  0  0
 12 13  2  0  0  0
 12 98  1  0  0  0
 13 14  1  0  0  0
 13 31  1  0  0  0
 14 15  2  0  0  0
 14 99  1  0  0  0
 15100  1  0  0  0
 16 17  2  0  0  0
 16 21  1  0  0  0
 16 31  1  0  0  0
 17 18  1  0  0  0
 17101  1  0  0  0
 18 19  2  0  0  0
 18102  1  0  0  0
 19 20  1  0  0  0
 19 24  1  0  0  0
 20 21  2  0  0  0
 20103  1  0  0  0
 21 23  1  0  0  0
 22 28  1  0  0  0
 22 32  2  0  0  0
 26 27  1  0  0  0
 28104  1  0  0  0
 28105  1  0  0  0
 29106  1  0  0  0
 29107  1  0  0  0
 33 34  1  0  0  0
 33 66  1  0  0  0
 33 70  2  0  0  0
 34 36  1  0  0  0
 34 59  1  0  0  0
 34108  1  0  0  0
 35 44  2  0  0  0
 35 45  1  0  0  0
 35 68  1  0  0  0
 36 56  1  0  0  0
 36109  1  0  0  0
 37 39  1  0  0  0
 37 47  1  0  0  0
 37 66  1  0  0  0
 37110  1  0  0  0
 38 43  2  0  0  0
 38 46  1  0  0  0
 38 47  1  0  0  0
 39 64  1  0  0  0
 39 67  2  0  0  0
 40 52  1  0  0  0
 40 53  2  0  0  0
 40 58  1  0  0  0
 41111  1  0  0  0
 41112  1  0  0  0
 41113  1  0  0  0
 41 48  1  0  0  0
 42 43  1  0  0  0
 42 66  1  0  0  0
 42114  1  0  0  0
 42115  1  0  0  0
 43 44  1  0  0  0
 44116  1  0  0  0
 45 46  2  0  0  0
 45117  1  0  0  0
 46118  1  0  0  0
 47119  1  0  0  0
 47120  1  0  0  0
 48 56  1  0  0  0
 48 65  1  0  0  0
 48121  1  0  0  0
 49 50  1  0  0  0
 49 53  1  0  0  0
 49 64  1  0  0  0
 49122  1  0  0  0
 50 51  1  0  0  0
 50123  1  0  0  0
 50124  1  0  0  0
 51 52  1  0  0  0
 51125  1  0  0  0
 51126  1  0  0  0
 52127  1  0  0  0
 52128  1  0  0  0
 53 54  1  0  0  0
 54 55  2  0  0  0
 54129  1  0  0  0
 55 57  1  0  0  0
 55130  1  0  0  0
 56 69  2  0  0  0
 57 58  2  0  0  0
 57131  1  0  0  0
 58132  1  0  0  0
 59 60  1  0  0  0
 59 61  1  0  0  0
 59 62  1  0  0  0
 60133  1  0  0  0
 60134  1  0  0  0
 60135  1  0  0  0
 61136  1  0  0  0
 61137  1  0  0  0
 61138  1  0  0  0
 62139  1  0  0  0
 62140  1  0  0  0
 62141  1  0  0  0
 63 65  1  0  0  0
 63142  1  0  0  0
 63143  1  0  0  0
 63144  1  0  0  0
 64145  1  0  0  0
 65146  1  0  0  0
 68 83  1  0  0  0
 71 72  2  0  0  0
 71 85  1  0  0  0
 71147  1  0  0  0
 72 73  1  0  0  0
 72 80  1  0  0  0
 73 74  2  0  0  0
 73 87  1  0  0  0
 74 75  1  0  0  0
 74 85  1  0  0  0
 75148  1  0  0  0
 75149  1  0  0  0
 75150  1  0  0  0
 76151  1  0  0  0
 76152  1  0  0  0
 76153  1  0  0  0
 76 83  1  0  0  0
 77154  1  0  0  0
 77155  1  0  0  0
 77156  1  0  0  0
 77 84  1  0  0  0
 78 84  1  0  0  0
 78157  1  0  0  0
 78158  1  0  0  0
 78159  1  0  0  0
 79 84  1  0  0  0
 79160  1  0  0  0
 79161  1  0  0  0
 79162  1  0  0  0
 80 86  1  0  0  0
 80163  1  0  0  0
 80164  1  0  0  0
 81 82  1  0  0  0
 81 83  1  0  0  0
 81165  1  0  0  0
 81166  1  0  0  0
 82 85  1  0  0  0
 82167  1  0  0  0
 82168  1  0  0  0
 83169  1  0  0  0
 84 87  1  0  0  0
 86170  1  0  0  0
M  ISO  4   1 100  68 101  83 101  86 100
M  END
> <chiral flag>
0

> <version>
0

> <s_m_source_file>
/data/baiqing/PycharmProjects/Reinvent-master-3.2/result/LINK_invent/BTK/process_docking_weight1_custom_sum_contain_oxygen_bond_distance_aromatic_linkinvent_7_9_3/rearranged_h_0098.sdf

> <i_m_source_file_index>
10

> <r_mmod_Potential_Energy-OPLS-2005>
72.8559875488281

> <r_mmod_Stretch_Energy-OPLS-2005>
118.635383605957

> <r_mmod_Bend_Energy-OPLS-2005>
229.141067504883

> <r_mmod_Torsional_Energy-OPLS-2005>
221.875045776367

> <r_mmod_Improper_Torsional_Energy-OPLS-2005>
6.17829465866089

> <r_mmod_Van_der_Waal_Energy-OPLS-2005>
102.129135131836

> <r_mmod_Electrostatic_Energy-OPLS-2005>
-482.200927734375

> <r_mmod_Solvation_Energy-OPLS-2005>
-198.921875

> <b_mmod_Minimization_Converged-OPLS-2005>
0

> <r_mmod_RMS_Derivative-OPLS-2005>
1.63555145263672

$$$$
11
                    3D
 Structure written by MMmdl.
178186  0  0  1  0            999 V2000
  -30.6972  -14.4651   20.5719 C   0  0  0  0  0  0
  -30.4297  -12.3092   19.4139 C   0  0  0  0  0  0
  -29.4979  -12.5196   18.2024 C   0  0  0  0  0  0
  -28.0186  -12.3803   18.6134 C   0  0  0  0  0  0
  -27.6666  -13.2045   19.8811 C   0  0  2  0  0  0
  -28.7121  -12.9670   20.9963 C   0  0  0  0  0  0
  -25.2612  -13.8137   20.5685 C   0  0  0  0  0  0
  -24.1866  -13.0419   20.9147 C   0  0  0  0  0  0
  -24.6404  -11.6884   20.8689 C   0  0  0  0  0  0
  -23.9054  -10.4269   21.0343 C   0  0  0  0  0  0
  -24.3604   -9.4200   21.9142 C   0  0  0  0  0  0
  -23.6268   -8.2247   22.0750 C   0  0  0  0  0  0
  -22.4261   -8.0266   21.3530 C   0  0  0  0  0  0
  -21.9879   -9.0237   20.4636 C   0  0  0  0  0  0
  -22.7205  -10.2113   20.3014 C   0  0  0  0  0  0
  -21.6856   -6.0713   22.5259 C   0  0  0  0  0  0
  -21.4028   -6.5623   23.8196 C   0  0  0  0  0  0
  -21.3669   -5.6782   24.9159 C   0  0  0  0  0  0
  -21.6043   -4.3040   24.7225 C   0  0  0  0  0  0
  -21.8826   -3.8132   23.4349 C   0  0  0  0  0  0
  -21.9220   -4.6931   22.3398 C   0  0  0  0  0  0
  -22.7888  -13.5225   21.1801 C   0  0  0  0  0  0
  -22.1659   -4.2118   21.0968 F   0  0  0  0  0  0
  -21.5641   -3.4519   25.7740 F   0  0  0  0  0  0
  -30.0397  -13.2827   20.4446 N   0  0  0  0  0  0
  -26.3059  -12.9313   20.3382 N   0  0  0  0  0  0
  -25.9342  -11.6483   20.5746 N   0  0  0  0  0  0
  -22.0531  -12.8236   22.0359 N   0  0  0  0  0  0
  -25.4356  -15.1852   20.4099 N   0  0  0  0  0  0
  -31.8187  -14.6636   20.0959 O   0  0  0  0  0  0
  -21.6643   -6.8846   21.4214 O   0  0  0  0  0  0
  -22.3558  -14.5523   20.6615 O   0  0  0  0  0  0
  -24.6083  -31.8686   23.2131 C   0  0  0  0  0  0
  -25.8989  -32.4843   23.8398 C   0  0  1  0  0  0
  -27.2569  -27.4689   20.1113 C   0  0  0  0  0  0
  -25.5864  -33.8639   24.2332 N   0  0  0  0  0  0
  -23.3974  -30.4874   21.5510 C   0  0  2  0  0  0
  -24.8519  -28.9503   20.1249 C   0  0  0  0  0  0
  -22.7387  -29.4631   22.5014 C   0  0  0  0  0  0
  -18.0256  -28.1378   22.8495 C   0  0  0  0  0  0
  -24.1485  -36.7324   23.2643 C   0  0  0  0  0  0
  -25.9196  -30.8435   21.3646 C   0  0  0  0  0  0
  -26.0023  -29.4744   20.7269 C   0  0  0  0  0  0
  -27.2037  -28.7385   20.7286 C   0  0  0  0  0  0
  -26.0958  -26.9549   19.4992 C   0  0  0  0  0  0
  -24.8886  -27.6836   19.5149 C   0  0  0  0  0  0
  -23.6102  -29.8117   20.1678 C   0  0  0  0  0  0
  -25.4112  -36.3135   24.0348 C   0  0  1  0  0  0
  -20.5839  -28.3635   23.1351 C   0  0  2  0  0  0
  -20.6740  -26.9379   22.5423 C   0  0  0  0  0  0
  -19.5724  -26.6386   21.5211 C   0  0  0  0  0  0
  -18.1899  -26.7918   22.1617 C   0  0  0  0  0  0
  -19.1498  -28.8827   23.2919 C   0  0  0  0  0  0
  -18.9437  -30.1437   23.8919 C   0  0  0  0  0  0
  -17.6445  -30.6580   24.0561 C   0  0  0  0  0  0
  -25.9038  -34.9489   23.5141 C   0  0  0  0  0  0
  -16.5337  -29.9086   23.6333 C   0  0  0  0  0  0
  -16.7253  -28.6507   23.0354 C   0  0  0  0  0  0
  -26.4435  -31.6610   25.0707 C   0  0  0  0  0  0
  -25.3722  -31.3709   26.1469 C   0  0  0  0  0  0
  -27.0257  -30.3061   24.6062 C   0  0  0  0  0  0
  -27.6026  -32.4315   25.7460 C   0  0  0  0  0  0
  -27.5597  -37.1815   24.8461 C   0  0  0  0  0  0
  -21.4114  -29.3015   22.3780 N   0  0  0  0  0  0
  -26.4301  -37.3813   23.9419 N   0  0  0  0  0  0
  -24.6592  -31.0816   22.1022 N   0  0  0  0  0  0
  -23.4167  -28.8180   23.3055 O   0  0  0  0  0  0
  -28.4174  -26.7327   20.0319 O   0  0  0  0  0  0
  -26.5605  -34.8932   22.4709 O   0  0  0  0  0  0
  -23.5283  -32.1423   23.7547 O   0  0  0  0  0  0
  -28.6603  -20.2202   21.1204 C   0  0  0  0  0  0
  -29.1379  -19.1932   20.3502 C   0  0  0  0  0  0
  -29.7118  -19.8077   19.1910 C   0  0  0  0  0  0
  -29.4616  -21.1589   19.2546 C   0  0  0  0  0  0
  -31.1435  -22.8222   18.2812 C   0  0  0  0  0  0
  -29.0736  -19.3580   15.9121 C   0  0  0  0  0  0
  -30.2634  -17.1935   16.4281 C   0  0  0  0  0  0
  -29.2201  -24.9329   23.2563 C   0  0  0  0  0  0
  -28.9810  -17.7063   20.6607 C   0  0  0  0  0  0
  -30.4427  -19.1104   18.0643 C   0  0  0  0  0  0
  -29.7396  -22.2030   18.2115 C   0  0  0  0  0  0
  -29.2184  -23.9426   20.9184 C   0  0  0  0  0  0
  -28.3010  -22.6995   20.9964 C   0  0  0  0  0  0
  -30.2696  -16.9052   20.9547 C   0  0  0  0  0  0
  -29.1310  -26.4946   21.2470 C   0  0  0  0  0  0
  -29.5358  -18.4067   17.0300 C   0  0  0  0  0  0
  -28.7291  -25.1109   21.8094 C   0  0  2  0  0  0
  -28.8360  -21.4315   20.4707 N   0  0  0  0  0  0
  -29.9742  -15.4697   21.0925 N   0  0  0  0  0  0
  -31.4730  -12.4202   19.1119 H   0  0  0  0  0  0
  -30.3347  -11.2925   19.8005 H   0  0  0  0  0  0
  -29.7378  -11.8091   17.4087 H   0  0  0  0  0  0
  -29.6642  -13.5108   17.7818 H   0  0  0  0  0  0
  -27.8167  -11.3223   18.7875 H   0  0  0  0  0  0
  -27.3776  -12.6811   17.7852 H   0  0  0  0  0  0
  -27.7143  -14.2567   19.6000 H   0  0  0  0  0  0
  -28.6954  -11.9204   21.3068 H   0  0  0  0  0  0
  -28.4872  -13.5424   21.8963 H   0  0  0  0  0  0
  -25.2755   -9.5688   22.4700 H   0  0  0  0  0  0
  -23.9987   -7.4648   22.7477 H   0  0  0  0  0  0
  -21.0823   -8.8732   19.8937 H   0  0  0  0  0  0
  -22.3642  -10.9640   19.6127 H   0  0  0  0  0  0
  -21.1991   -7.6129   23.9683 H   0  0  0  0  0  0
  -21.1489   -6.0509   25.9065 H   0  0  0  0  0  0
  -22.0609   -2.7583   23.2857 H   0  0  0  0  0  0
  -22.4191  -11.9949   22.4778 H   0  0  0  0  0  0
  -21.1118  -13.1232   22.2524 H   0  0  0  0  0  0
  -24.6671  -15.8389   20.5095 H   0  0  0  0  0  0
  -26.2887  -15.6207   20.0834 H   0  0  0  0  0  0
  -26.7070  -32.5574   23.1183 H   0  0  0  0  0  0
  -24.9992  -33.9791   25.0457 H   0  0  0  0  0  0
  -22.6845  -31.3025   21.4093 H   0  0  0  0  0  0
  -23.3759  -35.9641   23.3296 H   0  0  0  0  0  0
  -24.3598  -36.8941   22.2062 H   0  0  0  0  0  0
  -23.7209  -37.6521   23.6653 H   0  0  0  0  0  0
  -26.0269  -31.6061   20.5911 H   0  0  0  0  0  0
  -26.8076  -30.9023   21.9827 H   0  0  0  0  0  0
  -28.0887  -29.1598   21.1853 H   0  0  0  0  0  0
  -26.1291  -25.9883   19.0164 H   0  0  0  0  0  0
  -24.0056  -27.2697   19.0489 H   0  0  0  0  0  0
  -23.7228  -30.5823   19.4042 H   0  0  0  0  0  0
  -22.7338  -29.2300   19.8740 H   0  0  0  0  0  0
  -25.1290  -36.2010   25.0846 H   0  0  0  0  0  0
  -20.9922  -28.3169   24.1475 H   0  0  0  0  0  0
  -20.5641  -26.2236   23.3595 H   0  0  0  0  0  0
  -21.6619  -26.7426   22.1221 H   0  0  0  0  0  0
  -19.6888  -25.6308   21.1224 H   0  0  0  0  0  0
  -19.6670  -27.3213   20.6755 H   0  0  0  0  0  0
  -17.4175  -26.6676   21.4018 H   0  0  0  0  0  0
  -18.0291  -26.0049   22.9003 H   0  0  0  0  0  0
  -19.7918  -30.7241   24.2296 H   0  0  0  0  0  0
  -17.5003  -31.6267   24.5156 H   0  0  0  0  0  0
  -15.5339  -30.2998   23.7657 H   0  0  0  0  0  0
  -15.8643  -28.0842   22.7063 H   0  0  0  0  0  0
  -24.5874  -30.7092   25.7800 H   0  0  0  0  0  0
  -24.8940  -32.2863   26.4960 H   0  0  0  0  0  0
  -25.8070  -30.8836   27.0203 H   0  0  0  0  0  0
  -26.2790  -29.6849   24.1119 H   0  0  0  0  0  0
  -27.4036  -29.7280   25.4502 H   0  0  0  0  0  0
  -27.8613  -30.4397   23.9195 H   0  0  0  0  0  0
  -27.2662  -33.3596   26.2095 H   0  0  0  0  0  0
  -28.3798  -32.6909   25.0261 H   0  0  0  0  0  0
  -28.0737  -31.8406   26.5328 H   0  0  0  0  0  0
  -28.2602  -38.0127   24.7559 H   0  0  0  0  0  0
  -28.1100  -36.2666   24.6219 H   0  0  0  0  0  0
  -27.2320  -37.1394   25.8860 H   0  0  0  0  0  0
  -20.9266  -29.8763   21.7028 H   0  0  0  0  0  0
  -26.0196  -38.2895   24.1425 H   0  0  0  0  0  0
  -28.1479  -20.1876   22.0728 H   0  0  0  0  0  0
  -31.2557  -23.6020   17.5261 H   0  0  0  0  0  0
  -31.9161  -22.0744   18.1020 H   0  0  0  0  0  0
  -31.3512  -23.2773   19.2455 H   0  0  0  0  0  0
  -28.5969  -18.8175   15.0932 H   0  0  0  0  0  0
  -29.9157  -19.9117   15.4921 H   0  0  0  0  0  0
  -28.3453  -20.0799   16.2819 H   0  0  0  0  0  0
  -29.6355  -16.6640   15.7108 H   0  0  0  0  0  0
  -30.5518  -16.4764   17.1980 H   0  0  0  0  0  0
  -31.1688  -17.5002   15.9066 H   0  0  0  0  0  0
  -28.8849  -23.9846   23.6777 H   0  0  0  0  0  0
  -28.8369  -25.7260   23.8997 H   0  0  0  0  0  0
  -30.3101  -24.9539   23.3151 H   0  0  0  0  0  0
  -28.4544  -17.2472   19.8226 H   0  0  0  0  0  0
  -28.3095  -17.6151   21.5181 H   0  0  0  0  0  0
  -31.1122  -18.3914   18.5275 H   0  0  0  0  0  0
  -31.1115  -19.8155   17.5711 H   0  0  0  0  0  0
  -28.9720  -22.9759   18.2373 H   0  0  0  0  0  0
  -29.6239  -21.7540   17.2256 H   0  0  0  0  0  0
  -29.2566  -24.3012   19.8933 H   0  0  0  0  0  0
  -30.2391  -23.6752   21.1860 H   0  0  0  0  0  0
  -27.3559  -22.9087   20.4944 H   0  0  0  0  0  0
  -28.0433  -22.5334   22.0419 H   0  0  0  0  0  0
  -30.7464  -17.2723   21.8630 H   0  0  0  0  0  0
  -30.9908  -17.0454   20.1513 H   0  0  0  0  0  0
  -30.2004  -26.5210   21.0368 H   0  0  0  0  0  0
  -28.9571  -27.2703   21.9936 H   0  0  0  0  0  0
  -28.6525  -18.0213   17.5381 H   0  0  0  0  0  0
  -27.6390  -25.0930   21.8338 H   0  0  0  0  0  0
  -29.0730  -15.2209   21.4724 H   0  0  0  0  0  0
  1 25  1  0  0  0
  1 30  2  0  0  0
  1 89  1  0  0  0
  2  3  1  0  0  0
  2 25  1  0  0  0
  2 90  1  0  0  0
  2 91  1  0  0  0
  3  4  1  0  0  0
  3 92  1  0  0  0
  3 93  1  0  0  0
  4  5  1  0  0  0
  4 94  1  0  0  0
  4 95  1  0  0  0
  5  6  1  0  0  0
  5 26  1  0  0  0
  5 96  1  0  0  0
  6 25  1  0  0  0
  6 97  1  0  0  0
  6 98  1  0  0  0
  7  8  2  0  0  0
  7 26  1  0  0  0
  7 29  1  0  0  0
  8  9  1  0  0  0
  8 22  1  0  0  0
  9 10  1  0  0  0
  9 27  2  0  0  0
 10 11  2  0  0  0
 10 15  1  0  0  0
 11 12  1  0  0  0
 11 99  1  0  0  0
 12 13  2  0  0  0
 12100  1  0  0  0
 13 14  1  0  0  0
 13 31  1  0  0  0
 14 15  2  0  0  0
 14101  1  0  0  0
 15102  1  0  0  0
 16 17  2  0  0  0
 16 21  1  0  0  0
 16 31  1  0  0  0
 17 18  1  0  0  0
 17103  1  0  0  0
 18 19  2  0  0  0
 18104  1  0  0  0
 19 20  1  0  0  0
 19 24  1  0  0  0
 20 21  2  0  0  0
 20105  1  0  0  0
 21 23  1  0  0  0
 22 28  1  0  0  0
 22 32  2  0  0  0
 26 27  1  0  0  0
 28106  1  0  0  0
 28107  1  0  0  0
 29108  1  0  0  0
 29109  1  0  0  0
 33 34  1  0  0  0
 33 66  1  0  0  0
 33 70  2  0  0  0
 34 36  1  0  0  0
 34 59  1  0  0  0
 34110  1  0  0  0
 35 44  2  0  0  0
 35 45  1  0  0  0
 35 68  1  0  0  0
 36 56  1  0  0  0
 36111  1  0  0  0
 37 39  1  0  0  0
 37 47  1  0  0  0
 37 66  1  0  0  0
 37112  1  0  0  0
 38 43  2  0  0  0
 38 46  1  0  0  0
 38 47  1  0  0  0
 39 64  1  0  0  0
 39 67  2  0  0  0
 40 52  1  0  0  0
 40 53  2  0  0  0
 40 58  1  0  0  0
 41113  1  0  0  0
 41114  1  0  0  0
 41115  1  0  0  0
 41 48  1  0  0  0
 42 43  1  0  0  0
 42 66  1  0  0  0
 42116  1  0  0  0
 42117  1  0  0  0
 43 44  1  0  0  0
 44118  1  0  0  0
 45 46  2  0  0  0
 45119  1  0  0  0
 46120  1  0  0  0
 47121  1  0  0  0
 47122  1  0  0  0
 48 56  1  0  0  0
 48 65  1  0  0  0
 48123  1  0  0  0
 49 50  1  0  0  0
 49 53  1  0  0  0
 49 64  1  0  0  0
 49124  1  0  0  0
 50 51  1  0  0  0
 50125  1  0  0  0
 50126  1  0  0  0
 51 52  1  0  0  0
 51127  1  0  0  0
 51128  1  0  0  0
 52129  1  0  0  0
 52130  1  0  0  0
 53 54  1  0  0  0
 54 55  2  0  0  0
 54131  1  0  0  0
 55 57  1  0  0  0
 55132  1  0  0  0
 56 69  2  0  0  0
 57 58  2  0  0  0
 57133  1  0  0  0
 58134  1  0  0  0
 59 60  1  0  0  0
 59 61  1  0  0  0
 59 62  1  0  0  0
 60135  1  0  0  0
 60136  1  0  0  0
 60137  1  0  0  0
 61138  1  0  0  0
 61139  1  0  0  0
 61140  1  0  0  0
 62141  1  0  0  0
 62142  1  0  0  0
 62143  1  0  0  0
 63 65  1  0  0  0
 63144  1  0  0  0
 63145  1  0  0  0
 63146  1  0  0  0
 64147  1  0  0  0
 65148  1  0  0  0
 68 85  1  0  0  0
 71 72  2  0  0  0
 71 88  1  0  0  0
 71149  1  0  0  0
 72 73  1  0  0  0
 72 79  1  0  0  0
 73 74  2  0  0  0
 73 80  1  0  0  0
 74 81  1  0  0  0
 74 88  1  0  0  0
 75 81  1  0  0  0
 75150  1  0  0  0
 75151  1  0  0  0
 75152  1  0  0  0
 76153  1  0  0  0
 76154  1  0  0  0
 76155  1  0  0  0
 76 86  1  0  0  0
 77 86  1  0  0  0
 77156  1  0  0  0
 77157  1  0  0  0
 77158  1  0  0  0
 78159  1  0  0  0
 78160  1  0  0  0
 78161  1  0  0  0
 78 87  1  0  0  0
 79 84  1  0  0  0
 79162  1  0  0  0
 79163  1  0  0  0
 80 86  1  0  0  0
 80164  1  0  0  0
 80165  1  0  0  0
 81166  1  0  0  0
 81167  1  0  0  0
 82 83  1  0  0  0
 82 87  1  0  0  0
 82168  1  0  0  0
 82169  1  0  0  0
 83 88  1  0  0  0
 83170  1  0  0  0
 83171  1  0  0  0
 84 89  1  0  0  0
 84172  1  0  0  0
 84173  1  0  0  0
 85 87  1  0  0  0
 85174  1  0  0  0
 85175  1  0  0  0
 86176  1  0  0  0
 87177  1  0  0  0
 89178  1  0  0  0
M  ISO  4   1 100  68 101  85 101  89 100
M  END
> <chiral flag>
0

> <version>
0

> <s_m_source_file>
/data/baiqing/PycharmProjects/Reinvent-master-3.2/result/LINK_invent/BTK/process_docking_weight1_custom_sum_contain_oxygen_bond_distance_aromatic_linkinvent_7_9_3/rearranged_h_0098.sdf

> <i_m_source_file_index>
11

> <r_mmod_Potential_Energy-OPLS-2005>
-87.5953369140625

> <r_mmod_Stretch_Energy-OPLS-2005>
35.1668434143066

> <r_mmod_Bend_Energy-OPLS-2005>
109.734336853027

> <r_mmod_Torsional_Energy-OPLS-2005>
244.72395324707

> <r_mmod_Improper_Torsional_Energy-OPLS-2005>
5.10330390930176

> <r_mmod_Van_der_Waal_Energy-OPLS-2005>
118.510475158691

> <r_mmod_Electrostatic_Energy-OPLS-2005>
-410.454895019531

> <r_mmod_Solvation_Energy-OPLS-2005>
-199.793258666992

> <b_mmod_Minimization_Converged-OPLS-2005>
0

> <r_mmod_RMS_Derivative-OPLS-2005>
4.35510921478271

$$$$
12
                    3D
 Structure written by MMmdl.
166174  0  0  1  0            999 V2000
  -30.6516  -14.5143   20.4963 C   0  0  0  0  0  0
  -30.4232  -12.2999   19.4358 C   0  0  0  0  0  0
  -29.5040  -12.5071   18.2126 C   0  0  0  0  0  0
  -28.0187  -12.3738   18.6139 C   0  0  0  0  0  0
  -27.6652  -13.2000   19.8802 C   0  0  2  0  0  0
  -28.7132  -12.9781   20.9999 C   0  0  0  0  0  0
  -25.2635  -13.8118   20.5695 C   0  0  0  0  0  0
  -24.1870  -13.0440   20.9161 C   0  0  0  0  0  0
  -24.6355  -11.6876   20.8682 C   0  0  0  0  0  0
  -23.8964  -10.4287   21.0326 C   0  0  0  0  0  0
  -24.3532   -9.4217   21.9127 C   0  0  0  0  0  0
  -23.6241   -8.2245   22.0734 C   0  0  0  0  0  0
  -22.4237   -8.0243   21.3519 C   0  0  0  0  0  0
  -21.9833   -9.0185   20.4611 C   0  0  0  0  0  0
  -22.7115  -10.2084   20.2993 C   0  0  0  0  0  0
  -21.6855   -6.0682   22.5258 C   0  0  0  0  0  0
  -21.4013   -6.5602   23.8178 C   0  0  0  0  0  0
  -21.3673   -5.6778   24.9157 C   0  0  0  0  0  0
  -21.6050   -4.3040   24.7221 C   0  0  0  0  0  0
  -21.8831   -3.8097   23.4356 C   0  0  0  0  0  0
  -21.9207   -4.6909   22.3399 C   0  0  0  0  0  0
  -22.7890  -13.5238   21.1823 C   0  0  0  0  0  0
  -22.1685   -4.2080   21.0990 F   0  0  0  0  0  0
  -21.5635   -3.4544   25.7741 F   0  0  0  0  0  0
  -30.0412  -13.2966   20.4490 N   0  0  0  0  0  0
  -26.3053  -12.9268   20.3404 N   0  0  0  0  0  0
  -25.9286  -11.6425   20.5721 N   0  0  0  0  0  0
  -22.0559  -12.8209   22.0357 N   0  0  0  0  0  0
  -25.4478  -15.1851   20.4105 N   0  0  0  0  0  0
  -31.7816  -14.7211   20.0438 O   0  0  0  0  0  0
  -21.6646   -6.8812   21.4212 O   0  0  0  0  0  0
  -22.3555  -14.5546   20.6661 O   0  0  0  0  0  0
  -24.6171  -31.8625   23.2067 C   0  0  0  0  0  0
  -25.9069  -32.4762   23.8339 C   0  0  1  0  0  0
  -27.2473  -27.3807   20.0872 C   0  0  0  0  0  0
  -25.5918  -33.8564   24.2250 N   0  0  0  0  0  0
  -23.4110  -30.4910   21.5390 C   0  0  2  0  0  0
  -24.8702  -28.9553   20.1049 C   0  0  0  0  0  0
  -22.7413  -29.4678   22.4865 C   0  0  0  0  0  0
  -18.0259  -28.1432   22.8483 C   0  0  0  0  0  0
  -24.1513  -36.7306   23.2633 C   0  0  0  0  0  0
  -25.9519  -30.8048   21.3878 C   0  0  0  0  0  0
  -26.0302  -29.4387   20.7250 C   0  0  0  0  0  0
  -27.2173  -28.6548   20.7222 C   0  0  0  0  0  0
  -26.0743  -26.9572   19.4178 C   0  0  0  0  0  0
  -24.8905  -27.7153   19.4517 C   0  0  0  0  0  0
  -23.6301  -29.8210   20.1558 C   0  0  0  0  0  0
  -25.4139  -36.3062   24.0296 C   0  0  1  0  0  0
  -20.5853  -28.3753   23.1254 C   0  0  2  0  0  0
  -20.6769  -26.9484   22.5410 C   0  0  0  0  0  0
  -19.5723  -26.6425   21.5241 C   0  0  0  0  0  0
  -18.1892  -26.7958   22.1640 C   0  0  0  0  0  0
  -19.1510  -28.8909   23.2861 C   0  0  0  0  0  0
  -18.9463  -30.1507   23.8876 C   0  0  0  0  0  0
  -17.6466  -30.6634   24.0586 C   0  0  0  0  0  0
  -25.9071  -34.9441   23.5074 C   0  0  0  0  0  0
  -16.5349  -29.9142   23.6364 C   0  0  0  0  0  0
  -16.7246  -28.6583   23.0332 C   0  0  0  0  0  0
  -26.4508  -31.6584   25.0709 C   0  0  0  0  0  0
  -25.3719  -31.3739   26.1408 C   0  0  0  0  0  0
  -27.0461  -30.2987   24.6333 C   0  0  0  0  0  0
  -27.6051  -32.4372   25.7456 C   0  0  0  0  0  0
  -27.5578  -37.1803   24.8451 C   0  0  0  0  0  0
  -21.4131  -29.3089   22.3614 N   0  0  0  0  0  0
  -26.4299  -37.3764   23.9384 N   0  0  0  0  0  0
  -24.6761  -31.0706   22.0994 N   0  0  0  0  0  0
  -23.4165  -28.8198   23.2902 O   0  0  0  0  0  0
  -28.3971  -26.5897   20.1287 O   0  0  0  0  0  0
  -26.5636  -34.8907   22.4633 O   0  0  0  0  0  0
  -23.5352  -32.1430   23.7438 O   0  0  0  0  0  0
  -29.0831  -21.1690   19.3640 C   0  0  0  0  0  0
  -29.6373  -20.5286   21.4086 C   0  0  0  0  0  0
  -29.1036  -21.5905   20.7200 C   0  0  0  0  0  0
  -29.5579  -19.8867   19.2780 C   0  0  0  0  0  0
  -29.7086  -19.0857   18.0278 C   0  0  0  0  0  0
  -27.0287  -22.8291   21.3776 C   0  0  0  0  0  0
  -31.9246  -18.1228   20.8874 C   0  0  0  0  0  0
  -30.0319  -17.8596   22.5140 C   0  0  0  0  0  0
  -29.1536  -24.2668   20.8315 C   0  0  0  0  0  0
  -29.7846  -16.8831   20.2150 C   0  0  0  0  0  0
  -28.2998  -25.1547   19.8616 C   0  0  0  0  0  0
  -28.5645  -22.8921   21.3284 C   0  0  2  0  0  0
  -30.3884  -18.0912   21.0246 C   0  0  0  0  0  0
  -29.8493  -19.4259   20.5724 N   0  0  0  0  0  0
  -29.8261  -15.5288   20.8221 N   0  0  0  0  0  0
  -31.4742  -12.3803   19.1540 H   0  0  0  0  0  0
  -30.2979  -11.2914   19.8300 H   0  0  0  0  0  0
  -29.7444  -11.7881   17.4286 H   0  0  0  0  0  0
  -29.6884  -13.4935   17.7837 H   0  0  0  0  0  0
  -27.8076  -11.3186   18.7943 H   0  0  0  0  0  0
  -27.3762  -12.6709   17.7834 H   0  0  0  0  0  0
  -27.7041  -14.2464   19.5793 H   0  0  0  0  0  0
  -28.6960  -11.9391   21.3321 H   0  0  0  0  0  0
  -28.4902  -13.5691   21.8884 H   0  0  0  0  0  0
  -25.2667   -9.5757   22.4694 H   0  0  0  0  0  0
  -23.9969   -7.4659   22.7460 H   0  0  0  0  0  0
  -21.0774   -8.8623   19.8912 H   0  0  0  0  0  0
  -22.3511  -10.9588   19.6087 H   0  0  0  0  0  0
  -21.2003   -7.6115   23.9647 H   0  0  0  0  0  0
  -21.1496   -6.0526   25.9055 H   0  0  0  0  0  0
  -22.0603   -2.7551   23.2880 H   0  0  0  0  0  0
  -22.4204  -11.9873   22.4739 H   0  0  0  0  0  0
  -21.1148  -13.1143   22.2556 H   0  0  0  0  0  0
  -24.6867  -15.8488   20.4933 H   0  0  0  0  0  0
  -26.3017  -15.5996   20.0575 H   0  0  0  0  0  0
  -26.7117  -32.5508   23.1069 H   0  0  0  0  0  0
  -25.0060  -33.9692   25.0391 H   0  0  0  0  0  0
  -22.7010  -31.3103   21.3908 H   0  0  0  0  0  0
  -23.3769  -35.9649   23.3286 H   0  0  0  0  0  0
  -24.3580  -36.8970   22.2048 H   0  0  0  0  0  0
  -23.7337  -37.6520   23.6696 H   0  0  0  0  0  0
  -26.0974  -31.5767   20.6306 H   0  0  0  0  0  0
  -26.8191  -30.8314   22.0364 H   0  0  0  0  0  0
  -28.1065  -29.0139   21.2237 H   0  0  0  0  0  0
  -26.0440  -26.0504   18.8333 H   0  0  0  0  0  0
  -24.0124  -27.3479   18.9407 H   0  0  0  0  0  0
  -23.7337  -30.5914   19.3895 H   0  0  0  0  0  0
  -22.7599  -29.2269   19.8718 H   0  0  0  0  0  0
  -25.1352  -36.1855   25.0793 H   0  0  0  0  0  0
  -20.9935  -28.3369   24.1373 H   0  0  0  0  0  0
  -20.5799  -26.2358   23.3621 H   0  0  0  0  0  0
  -21.6621  -26.7628   22.1120 H   0  0  0  0  0  0
  -19.6929  -25.6359   21.1232 H   0  0  0  0  0  0
  -19.6610  -27.3280   20.6797 H   0  0  0  0  0  0
  -17.4176  -26.6711   21.4017 H   0  0  0  0  0  0
  -18.0284  -26.0128   22.9063 H   0  0  0  0  0  0
  -19.7950  -30.7321   24.2214 H   0  0  0  0  0  0
  -17.5047  -31.6302   24.5224 H   0  0  0  0  0  0
  -15.5357  -30.3035   23.7785 H   0  0  0  0  0  0
  -15.8624  -28.0957   22.7000 H   0  0  0  0  0  0
  -24.5807  -30.7231   25.7688 H   0  0  0  0  0  0
  -24.9002  -32.2912   26.4917 H   0  0  0  0  0  0
  -25.7930  -30.8782   27.0145 H   0  0  0  0  0  0
  -26.3140  -29.6533   24.1449 H   0  0  0  0  0  0
  -27.4212  -29.7451   25.4961 H   0  0  0  0  0  0
  -27.8930  -30.4252   23.9584 H   0  0  0  0  0  0
  -27.2641  -33.3649   26.2059 H   0  0  0  0  0  0
  -28.3774  -32.6980   25.0213 H   0  0  0  0  0  0
  -28.0793  -31.8501   26.5328 H   0  0  0  0  0  0
  -28.2600  -38.0097   24.7530 H   0  0  0  0  0  0
  -28.1076  -36.2642   24.6263 H   0  0  0  0  0  0
  -27.2246  -37.1407   25.8833 H   0  0  0  0  0  0
  -20.9348  -29.8731   21.6744 H   0  0  0  0  0  0
  -26.0159  -38.2829   24.1389 H   0  0  0  0  0  0
  -28.7259  -21.7427   18.5179 H   0  0  0  0  0  0
  -29.8361  -20.4661   22.4677 H   0  0  0  0  0  0
  -29.0018  -18.2568   18.0209 H   0  0  0  0  0  0
  -30.7254  -18.7080   17.9194 H   0  0  0  0  0  0
  -29.4899  -19.6966   17.1496 H   0  0  0  0  0  0
  -26.6852  -21.9937   21.9900 H   0  0  0  0  0  0
  -26.6107  -22.6947   20.3788 H   0  0  0  0  0  0
  -26.6069  -23.7395   21.8031 H   0  0  0  0  0  0
  -32.3758  -17.1782   21.1894 H   0  0  0  0  0  0
  -32.3693  -18.8995   21.5117 H   0  0  0  0  0  0
  -32.2407  -18.3240   19.8631 H   0  0  0  0  0  0
  -30.4070  -16.9056   22.8865 H   0  0  0  0  0  0
  -28.9491  -17.8606   22.6464 H   0  0  0  0  0  0
  -30.4593  -18.6050   23.1839 H   0  0  0  0  0  0
  -29.2907  -24.8647   21.7334 H   0  0  0  0  0  0
  -30.1709  -24.1315   20.4618 H   0  0  0  0  0  0
  -30.2209  -16.8222   19.2196 H   0  0  0  0  0  0
  -28.7233  -17.0843   20.0568 H   0  0  0  0  0  0
  -27.2716  -24.8242   19.9424 H   0  0  0  0  0  0
  -28.5978  -24.9521   18.8278 H   0  0  0  0  0  0
  -28.8807  -22.8410   22.3714 H   0  0  0  0  0  0
  -28.9621  -15.2353   21.2502 H   0  0  0  0  0  0
  1 25  1  0  0  0
  1 30  2  0  0  0
  1 85  1  0  0  0
  2  3  1  0  0  0
  2 25  1  0  0  0
  2 86  1  0  0  0
  2 87  1  0  0  0
  3  4  1  0  0  0
  3 88  1  0  0  0
  3 89  1  0  0  0
  4  5  1  0  0  0
  4 90  1  0  0  0
  4 91  1  0  0  0
  5  6  1  0  0  0
  5 26  1  0  0  0
  5 92  1  0  0  0
  6 25  1  0  0  0
  6 93  1  0  0  0
  6 94  1  0  0  0
  7  8  2  0  0  0
  7 26  1  0  0  0
  7 29  1  0  0  0
  8  9  1  0  0  0
  8 22  1  0  0  0
  9 10  1  0  0  0
  9 27  2  0  0  0
 10 11  2  0  0  0
 10 15  1  0  0  0
 11 12  1  0  0  0
 11 95  1  0  0  0
 12 13  2  0  0  0
 12 96  1  0  0  0
 13 14  1  0  0  0
 13 31  1  0  0  0
 14 15  2  0  0  0
 14 97  1  0  0  0
 15 98  1  0  0  0
 16 17  2  0  0  0
 16 21  1  0  0  0
 16 31  1  0  0  0
 17 18  1  0  0  0
 17 99  1  0  0  0
 18 19  2  0  0  0
 18100  1  0  0  0
 19 20  1  0  0  0
 19 24  1  0  0  0
 20 21  2  0  0  0
 20101  1  0  0  0
 21 23  1  0  0  0
 22 28  1  0  0  0
 22 32  2  0  0  0
 26 27  1  0  0  0
 28102  1  0  0  0
 28103  1  0  0  0
 29104  1  0  0  0
 29105  1  0  0  0
 33 34  1  0  0  0
 33 66  1  0  0  0
 33 70  2  0  0  0
 34 36  1  0  0  0
 34 59  1  0  0  0
 34106  1  0  0  0
 35 44  2  0  0  0
 35 45  1  0  0  0
 35 68  1  0  0  0
 36 56  1  0  0  0
 36107  1  0  0  0
 37 39  1  0  0  0
 37 47  1  0  0  0
 37 66  1  0  0  0
 37108  1  0  0  0
 38 43  2  0  0  0
 38 46  1  0  0  0
 38 47  1  0  0  0
 39 64  1  0  0  0
 39 67  2  0  0  0
 40 52  1  0  0  0
 40 53  2  0  0  0
 40 58  1  0  0  0
 41109  1  0  0  0
 41110  1  0  0  0
 41111  1  0  0  0
 41 48  1  0  0  0
 42 43  1  0  0  0
 42 66  1  0  0  0
 42112  1  0  0  0
 42113  1  0  0  0
 43 44  1  0  0  0
 44114  1  0  0  0
 45 46  2  0  0  0
 45115  1  0  0  0
 46116  1  0  0  0
 47117  1  0  0  0
 47118  1  0  0  0
 48 56  1  0  0  0
 48 65  1  0  0  0
 48119  1  0  0  0
 49 50  1  0  0  0
 49 53  1  0  0  0
 49 64  1  0  0  0
 49120  1  0  0  0
 50 51  1  0  0  0
 50121  1  0  0  0
 50122  1  0  0  0
 51 52  1  0  0  0
 51123  1  0  0  0
 51124  1  0  0  0
 52125  1  0  0  0
 52126  1  0  0  0
 53 54  1  0  0  0
 54 55  2  0  0  0
 54127  1  0  0  0
 55 57  1  0  0  0
 55128  1  0  0  0
 56 69  2  0  0  0
 57 58  2  0  0  0
 57129  1  0  0  0
 58130  1  0  0  0
 59 60  1  0  0  0
 59 61  1  0  0  0
 59 62  1  0  0  0
 60131  1  0  0  0
 60132  1  0  0  0
 60133  1  0  0  0
 61134  1  0  0  0
 61135  1  0  0  0
 61136  1  0  0  0
 62137  1  0  0  0
 62138  1  0  0  0
 62139  1  0  0  0
 63 65  1  0  0  0
 63140  1  0  0  0
 63141  1  0  0  0
 63142  1  0  0  0
 64143  1  0  0  0
 65144  1  0  0  0
 68 81  1  0  0  0
 71 73  1  0  0  0
 71 74  2  0  0  0
 71145  1  0  0  0
 72 73  2  0  0  0
 72 84  1  0  0  0
 72146  1  0  0  0
 73 82  1  0  0  0
 74 75  1  0  0  0
 74 84  1  0  0  0
 75147  1  0  0  0
 75148  1  0  0  0
 75149  1  0  0  0
 76150  1  0  0  0
 76151  1  0  0  0
 76152  1  0  0  0
 76 82  1  0  0  0
 77153  1  0  0  0
 77154  1  0  0  0
 77155  1  0  0  0
 77 83  1  0  0  0
 78 83  1  0  0  0
 78156  1  0  0  0
 78157  1  0  0  0
 78158  1  0  0  0
 79 81  1  0  0  0
 79 82  1  0  0  0
 79159  1  0  0  0
 79160  1  0  0  0
 80 83  1  0  0  0
 80 85  1  0  0  0
 80161  1  0  0  0
 80162  1  0  0  0
 81163  1  0  0  0
 81164  1  0  0  0
 82165  1  0  0  0
 83 84  1  0  0  0
 85166  1  0  0  0
M  ISO  4   1 100  68 101  81 101  85 100
M  END
> <chiral flag>
0

> <version>
0

> <s_m_source_file>
/data/baiqing/PycharmProjects/Reinvent-master-3.2/result/LINK_invent/BTK/process_docking_weight1_custom_sum_contain_oxygen_bond_distance_aromatic_linkinvent_7_9_3/rearranged_h_0098.sdf

> <i_m_source_file_index>
12

> <r_mmod_Potential_Energy-OPLS-2005>
-19.6181240081787

> <r_mmod_Stretch_Energy-OPLS-2005>
56.0323638916016

> <r_mmod_Bend_Energy-OPLS-2005>
132.849197387695

> <r_mmod_Torsional_Energy-OPLS-2005>
283.928283691406

> <r_mmod_Improper_Torsional_Energy-OPLS-2005>
8.91444492340088

> <r_mmod_Van_der_Waal_Energy-OPLS-2005>
145.090225219727

> <r_mmod_Electrostatic_Energy-OPLS-2005>
-471.070373535156

> <r_mmod_Solvation_Energy-OPLS-2005>
-199.402313232422

> <b_mmod_Minimization_Converged-OPLS-2005>
0

> <r_mmod_RMS_Derivative-OPLS-2005>
5.88040590286255

$$$$
13
                    3D
 Structure written by MMmdl.
170179  0  0  1  0            999 V2000
  -30.5314  -14.8681   20.3912 C   0  0  0  0  0  0
  -30.4381  -12.5335   19.4794 C   0  0  0  0  0  0
  -29.5275  -12.5217   18.2325 C   0  0  0  0  0  0
  -28.0497  -12.3320   18.6283 C   0  0  0  0  0  0
  -27.6296  -13.2383   19.8187 C   0  0  2  0  0  0
  -28.6652  -13.2331   20.9584 C   0  0  0  0  0  0
  -25.2456  -13.8206   20.5574 C   0  0  0  0  0  0
  -24.1793  -13.0415   20.9147 C   0  0  0  0  0  0
  -24.6396  -11.6893   20.8744 C   0  0  0  0  0  0
  -23.9100  -10.4273   21.0423 C   0  0  0  0  0  0
  -24.3647   -9.4171   21.9156 C   0  0  0  0  0  0
  -23.6279   -8.2235   22.0746 C   0  0  0  0  0  0
  -22.4253   -8.0298   21.3550 C   0  0  0  0  0  0
  -21.9933   -9.0289   20.4644 C   0  0  0  0  0  0
  -22.7311  -10.2124   20.3037 C   0  0  0  0  0  0
  -21.6864   -6.0734   22.5274 C   0  0  0  0  0  0
  -21.3998   -6.5642   23.8210 C   0  0  0  0  0  0
  -21.3643   -5.6795   24.9181 C   0  0  0  0  0  0
  -21.6056   -4.3060   24.7228 C   0  0  0  0  0  0
  -21.8814   -3.8144   23.4359 C   0  0  0  0  0  0
  -21.9174   -4.6953   22.3408 C   0  0  0  0  0  0
  -22.7830  -13.5164   21.1837 C   0  0  0  0  0  0
  -22.1649   -4.2163   21.0983 F   0  0  0  0  0  0
  -21.5625   -3.4539   25.7736 F   0  0  0  0  0  0
  -29.9538  -13.6117   20.3750 N   0  0  0  0  0  0
  -26.2865  -12.9421   20.3034 N   0  0  0  0  0  0
  -25.9291  -11.6565   20.5582 N   0  0  0  0  0  0
  -22.0443  -12.8229   22.0432 N   0  0  0  0  0  0
  -25.4148  -15.1947   20.3960 N   0  0  0  0  0  0
  -31.7315  -14.9833   20.1349 O   0  0  0  0  0  0
  -21.6624   -6.8892   21.4246 O   0  0  0  0  0  0
  -22.3524  -14.5487   20.6721 O   0  0  0  0  0  0
  -24.6309  -31.8559   23.2064 C   0  0  0  0  0  0
  -25.9167  -32.4709   23.8414 C   0  0  1  0  0  0
  -27.2239  -27.2644   20.0870 C   0  0  0  0  0  0
  -25.5920  -33.8494   24.2339 N   0  0  0  0  0  0
  -23.4232  -30.4719   21.5575 C   0  0  2  0  0  0
  -24.8734  -28.9285   20.1122 C   0  0  0  0  0  0
  -22.7475  -29.4562   22.5062 C   0  0  0  0  0  0
  -18.0258  -28.1277   22.8550 C   0  0  0  0  0  0
  -24.1502  -36.7244   23.2650 C   0  0  0  0  0  0
  -25.9763  -30.7674   21.3919 C   0  0  0  0  0  0
  -26.0472  -29.3947   20.7156 C   0  0  0  0  0  0
  -27.2248  -28.5744   20.6918 C   0  0  0  0  0  0
  -26.0230  -26.8863   19.4384 C   0  0  0  0  0  0
  -24.8605  -27.6817   19.4773 C   0  0  0  0  0  0
  -23.6362  -29.8053   20.1731 C   0  0  0  0  0  0
  -25.4108  -36.3052   24.0380 C   0  0  1  0  0  0
  -20.5893  -28.3596   23.1366 C   0  0  2  0  0  0
  -20.6716  -26.9306   22.5456 C   0  0  0  0  0  0
  -19.5682  -26.6316   21.5245 C   0  0  0  0  0  0
  -18.1902  -26.7849   22.1674 C   0  0  0  0  0  0
  -19.1534  -28.8758   23.2971 C   0  0  0  0  0  0
  -18.9444  -30.1381   23.8927 C   0  0  0  0  0  0
  -17.6429  -30.6522   24.0547 C   0  0  0  0  0  0
  -25.9077  -34.9407   23.5193 C   0  0  0  0  0  0
  -16.5312  -29.9009   23.6321 C   0  0  0  0  0  0
  -16.7275  -28.6412   23.0412 C   0  0  0  0  0  0
  -26.4504  -31.6497   25.0766 C   0  0  0  0  0  0
  -25.3759  -31.3580   26.1514 C   0  0  0  0  0  0
  -27.0327  -30.2892   24.6227 C   0  0  0  0  0  0
  -27.6041  -32.4263   25.7513 C   0  0  0  0  0  0
  -27.5576  -37.1745   24.8483 C   0  0  0  0  0  0
  -21.4175  -29.2992   22.3788 N   0  0  0  0  0  0
  -26.4283  -37.3752   23.9453 N   0  0  0  0  0  0
  -24.6953  -31.0491   22.1037 N   0  0  0  0  0  0
  -23.4265  -28.8073   23.3116 O   0  0  0  0  0  0
  -28.3224  -26.3629   20.1780 O   0  0  0  0  0  0
  -26.5600  -34.8869   22.4739 O   0  0  0  0  0  0
  -23.5446  -32.1409   23.7326 O   0  0  0  0  0  0
  -28.9013  -19.9561   17.6877 C   0  0  0  0  0  0
  -27.8478  -20.2857   18.5802 C   0  0  0  0  0  0
  -30.0354  -20.4136   18.3244 C   0  0  0  0  0  0
  -28.5110  -20.0588   19.7587 C   0  0  0  0  0  0
  -24.4222  -21.5957   17.4675 C   0  0  0  0  0  0
  -25.3644  -22.5827   16.7432 C   0  0  0  0  0  0
  -25.3040  -20.4303   17.9674 C   0  0  0  0  0  0
  -26.7710  -22.0682   17.0497 C   0  0  0  0  0  0
  -26.6186  -21.1447   18.2747 C   0  0  0  0  0  0
  -31.3419  -20.7781   17.6989 C   0  0  0  0  0  0
  -28.6708  -18.5935   20.4032 C   0  0  0  0  0  0
  -28.8475  -23.6051   20.4196 C   0  0  0  0  0  0
  -29.6574  -22.5513   19.5008 C   0  0  0  0  0  0
  -29.8683  -17.4899   20.1377 C   0  0  0  0  0  0
  -28.2097  -24.9277   19.7178 C   0  0  0  0  0  0
  -29.5426  -21.0051   19.4910 N   0  0  0  0  0  0
  -29.6745  -15.9833   20.4779 N   0  0  0  0  0  0
  -31.4668  -12.6985   19.1723 H   0  0  0  0  0  0
  -30.4218  -11.5669   19.9874 H   0  0  0  0  0  0
  -29.8392  -11.7442   17.5389 H   0  0  0  0  0  0
  -29.6520  -13.4623   17.6855 H   0  0  0  0  0  0
  -27.9098  -11.2864   18.8907 H   0  0  0  0  0  0
  -27.4154  -12.5182   17.7624 H   0  0  0  0  0  0
  -27.6032  -14.2464   19.4069 H   0  0  0  0  0  0
  -28.7199  -12.2567   21.4422 H   0  0  0  0  0  0
  -28.3705  -13.9484   21.7246 H   0  0  0  0  0  0
  -25.2770   -9.5655   22.4765 H   0  0  0  0  0  0
  -23.9983   -7.4621   22.7473 H   0  0  0  0  0  0
  -21.0853   -8.8814   19.8959 H   0  0  0  0  0  0
  -22.3741  -10.9682   19.6164 H   0  0  0  0  0  0
  -21.1985   -7.6150   23.9736 H   0  0  0  0  0  0
  -21.1475   -6.0513   25.9091 H   0  0  0  0  0  0
  -22.0601   -2.7620   23.2855 H   0  0  0  0  0  0
  -22.4026  -11.9887   22.4919 H   0  0  0  0  0  0
  -21.0996  -13.1290   22.2484 H   0  0  0  0  0  0
  -24.6409  -15.8437   20.4789 H   0  0  0  0  0  0
  -26.2428  -15.6253   20.0145 H   0  0  0  0  0  0
  -26.7135  -32.5339   23.1086 H   0  0  0  0  0  0
  -25.0046  -33.9617   25.0452 H   0  0  0  0  0  0
  -22.7136  -31.2906   21.4174 H   0  0  0  0  0  0
  -23.3807  -35.9546   23.3305 H   0  0  0  0  0  0
  -24.3632  -36.8830   22.2065 H   0  0  0  0  0  0
  -23.7217  -37.6402   23.6685 H   0  0  0  0  0  0
  -26.1326  -31.5551   20.6496 H   0  0  0  0  0  0
  -26.8455  -30.7918   22.0374 H   0  0  0  0  0  0
  -28.1258  -28.9195   21.1680 H   0  0  0  0  0  0
  -25.9267  -25.9568   18.8931 H   0  0  0  0  0  0
  -23.9508  -27.3329   19.0127 H   0  0  0  0  0  0
  -23.7356  -30.5747   19.4069 H   0  0  0  0  0  0
  -22.7563  -29.2212   19.8888 H   0  0  0  0  0  0
  -25.1304  -36.1860   25.0862 H   0  0  0  0  0  0
  -21.0001  -28.3067   24.1501 H   0  0  0  0  0  0
  -20.5596  -26.2156   23.3635 H   0  0  0  0  0  0
  -21.6574  -26.7263   22.1253 H   0  0  0  0  0  0
  -19.6824  -25.6271   21.1205 H   0  0  0  0  0  0
  -19.6592  -27.3174   20.6820 H   0  0  0  0  0  0
  -17.4176  -26.6684   21.4082 H   0  0  0  0  0  0
  -18.0244  -25.9964   22.9030 H   0  0  0  0  0  0
  -19.7912  -30.7212   24.2352 H   0  0  0  0  0  0
  -17.4952  -31.6235   24.5070 H   0  0  0  0  0  0
  -15.5329  -30.2883   23.7570 H   0  0  0  0  0  0
  -15.8693  -28.0654   22.7157 H   0  0  0  0  0  0
  -24.6033  -30.6801   25.7883 H   0  0  0  0  0  0
  -24.8866  -32.2690   26.4953 H   0  0  0  0  0  0
  -25.8141  -30.8780   27.0296 H   0  0  0  0  0  0
  -26.2897  -29.6635   24.1241 H   0  0  0  0  0  0
  -27.3963  -29.7149   25.4782 H   0  0  0  0  0  0
  -27.8841  -30.4123   23.9548 H   0  0  0  0  0  0
  -27.2675  -33.3661   26.1943 H   0  0  0  0  0  0
  -28.3909  -32.6616   25.0335 H   0  0  0  0  0  0
  -28.0684  -31.8472   26.5504 H   0  0  0  0  0  0
  -28.2593  -38.0035   24.7590 H   0  0  0  0  0  0
  -28.1070  -36.2562   24.6303 H   0  0  0  0  0  0
  -27.2330  -37.1444   25.8893 H   0  0  0  0  0  0
  -20.9304  -29.8746   21.7028 H   0  0  0  0  0  0
  -26.0156  -38.2831   24.1374 H   0  0  0  0  0  0
  -28.8418  -19.8425   16.6181 H   0  0  0  0  0  0
  -23.5872  -21.2684   16.8442 H   0  0  0  0  0  0
  -24.0167  -22.1262   18.3336 H   0  0  0  0  0  0
  -25.2388  -23.6007   17.1192 H   0  0  0  0  0  0
  -25.1622  -22.6521   15.6705 H   0  0  0  0  0  0
  -25.4781  -19.6982   17.1759 H   0  0  0  0  0  0
  -24.8697  -19.9017   18.8160 H   0  0  0  0  0  0
  -27.4744  -22.8867   17.1999 H   0  0  0  0  0  0
  -27.1294  -21.4939   16.1904 H   0  0  0  0  0  0
  -26.4663  -21.7890   19.1395 H   0  0  0  0  0  0
  -31.7647  -21.6892   18.1090 H   0  0  0  0  0  0
  -31.2100  -20.9479   16.6340 H   0  0  0  0  0  0
  -32.0726  -19.9831   17.8309 H   0  0  0  0  0  0
  -27.7460  -18.0778   20.1260 H   0  0  0  0  0  0
  -28.5668  -18.7148   21.4828 H   0  0  0  0  0  0
  -29.4675  -23.8976   21.2663 H   0  0  0  0  0  0
  -28.0346  -23.0402   20.8778 H   0  0  0  0  0  0
  -29.5211  -22.8551   18.4556 H   0  0  0  0  0  0
  -30.7099  -22.7685   19.6953 H   0  0  0  0  0  0
  -30.7530  -17.8504   20.6663 H   0  0  0  0  0  0
  -30.1284  -17.5282   19.0801 H   0  0  0  0  0  0
  -27.1683  -24.6468   19.6948 H   0  0  0  0  0  0
  -28.5153  -24.9252   18.6728 H   0  0  0  0  0  0
  -28.7278  -15.7329   20.6964 H   0  0  0  0  0  0
  1 25  1  0  0  0
  1 30  2  0  0  0
  1 87  1  0  0  0
  2  3  1  0  0  0
  2 25  1  0  0  0
  2 88  1  0  0  0
  2 89  1  0  0  0
  3  4  1  0  0  0
  3 90  1  0  0  0
  3 91  1  0  0  0
  4  5  1  0  0  0
  4 92  1  0  0  0
  4 93  1  0  0  0
  5  6  1  0  0  0
  5 26  1  0  0  0
  5 94  1  0  0  0
  6 25  1  0  0  0
  6 95  1  0  0  0
  6 96  1  0  0  0
  7  8  2  0  0  0
  7 26  1  0  0  0
  7 29  1  0  0  0
  8  9  1  0  0  0
  8 22  1  0  0  0
  9 10  1  0  0  0
  9 27  2  0  0  0
 10 11  2  0  0  0
 10 15  1  0  0  0
 11 12  1  0  0  0
 11 97  1  0  0  0
 12 13  2  0  0  0
 12 98  1  0  0  0
 13 14  1  0  0  0
 13 31  1  0  0  0
 14 15  2  0  0  0
 14 99  1  0  0  0
 15100  1  0  0  0
 16 17  2  0  0  0
 16 21  1  0  0  0
 16 31  1  0  0  0
 17 18  1  0  0  0
 17101  1  0  0  0
 18 19  2  0  0  0
 18102  1  0  0  0
 19 20  1  0  0  0
 19 24  1  0  0  0
 20 21  2  0  0  0
 20103  1  0  0  0
 21 23  1  0  0  0
 22 28  1  0  0  0
 22 32  2  0  0  0
 26 27  1  0  0  0
 28104  1  0  0  0
 28105  1  0  0  0
 29106  1  0  0  0
 29107  1  0  0  0
 33 34  1  0  0  0
 33 66  1  0  0  0
 33 70  2  0  0  0
 34 36  1  0  0  0
 34 59  1  0  0  0
 34108  1  0  0  0
 35 44  2  0  0  0
 35 45  1  0  0  0
 35 68  1  0  0  0
 36 56  1  0  0  0
 36109  1  0  0  0
 37 39  1  0  0  0
 37 47  1  0  0  0
 37 66  1  0  0  0
 37110  1  0  0  0
 38 43  2  0  0  0
 38 46  1  0  0  0
 38 47  1  0  0  0
 39 64  1  0  0  0
 39 67  2  0  0  0
 40 52  1  0  0  0
 40 53  2  0  0  0
 40 58  1  0  0  0
 41111  1  0  0  0
 41112  1  0  0  0
 41113  1  0  0  0
 41 48  1  0  0  0
 42 43  1  0  0  0
 42 66  1  0  0  0
 42114  1  0  0  0
 42115  1  0  0  0
 43 44  1  0  0  0
 44116  1  0  0  0
 45 46  2  0  0  0
 45117  1  0  0  0
 46118  1  0  0  0
 47119  1  0  0  0
 47120  1  0  0  0
 48 56  1  0  0  0
 48 65  1  0  0  0
 48121  1  0  0  0
 49 50  1  0  0  0
 49 53  1  0  0  0
 49 64  1  0  0  0
 49122  1  0  0  0
 50 51  1  0  0  0
 50123  1  0  0  0
 50124  1  0  0  0
 51 52  1  0  0  0
 51125  1  0  0  0
 51126  1  0  0  0
 52127  1  0  0  0
 52128  1  0  0  0
 53 54  1  0  0  0
 54 55  2  0  0  0
 54129  1  0  0  0
 55 57  1  0  0  0
 55130  1  0  0  0
 56 69  2  0  0  0
 57 58  2  0  0  0
 57131  1  0  0  0
 58132  1  0  0  0
 59 60  1  0  0  0
 59 61  1  0  0  0
 59 62  1  0  0  0
 60133  1  0  0  0
 60134  1  0  0  0
 60135  1  0  0  0
 61136  1  0  0  0
 61137  1  0  0  0
 61138  1  0  0  0
 62139  1  0  0  0
 62140  1  0  0  0
 62141  1  0  0  0
 63 65  1  0  0  0
 63142  1  0  0  0
 63143  1  0  0  0
 63144  1  0  0  0
 64145  1  0  0  0
 65146  1  0  0  0
 68 85  1  0  0  0
 71 72  1  0  0  0
 71 73  2  0  0  0
 71147  1  0  0  0
 72 74  2  0  0  0
 72 79  1  0  0  0
 73 80  1  0  0  0
 73 86  1  0  0  0
 74 81  1  0  0  0
 74 86  1  0  0  0
 75 76  1  0  0  0
 75 77  1  0  0  0
 75148  1  0  0  0
 75149  1  0  0  0
 76 78  1  0  0  0
 76150  1  0  0  0
 76151  1  0  0  0
 77 79  1  0  0  0
 77152  1  0  0  0
 77153  1  0  0  0
 78 79  1  0  0  0
 78154  1  0  0  0
 78155  1  0  0  0
 79156  1  0  0  0
 80157  1  0  0  0
 80158  1  0  0  0
 80159  1  0  0  0
 81 84  1  0  0  0
 81160  1  0  0  0
 81161  1  0  0  0
 82 83  1  0  0  0
 82 85  1  0  0  0
 82162  1  0  0  0
 82163  1  0  0  0
 83 86  1  0  0  0
 83164  1  0  0  0
 83165  1  0  0  0
 84 87  1  0  0  0
 84166  1  0  0  0
 84167  1  0  0  0
 85168  1  0  0  0
 85169  1  0  0  0
 87170  1  0  0  0
M  ISO  4   1 100  68 101  85 101  87 100
M  END
> <chiral flag>
0

> <version>
0

> <s_m_source_file>
/data/baiqing/PycharmProjects/Reinvent-master-3.2/result/LINK_invent/BTK/process_docking_weight1_custom_sum_contain_oxygen_bond_distance_aromatic_linkinvent_7_9_3/rearranged_h_0098.sdf

> <i_m_source_file_index>
13

> <r_mmod_Potential_Energy-OPLS-2005>
748.348083496094

> <r_mmod_Stretch_Energy-OPLS-2005>
165.03742980957

> <r_mmod_Bend_Energy-OPLS-2005>
321.629547119141

> <r_mmod_Torsional_Energy-OPLS-2005>
591.049255371094

> <r_mmod_Improper_Torsional_Energy-OPLS-2005>
55.1092643737793

> <r_mmod_Van_der_Waal_Energy-OPLS-2005>
115.863540649414

> <r_mmod_Electrostatic_Energy-OPLS-2005>
-417.709167480469

> <r_mmod_Solvation_Energy-OPLS-2005>
-208.369049072266

> <b_mmod_Minimization_Converged-OPLS-2005>
0

> <r_mmod_RMS_Derivative-OPLS-2005>
12.5320777893066

$$$$
14
                    3D
 Structure written by MMmdl.
167175  0  0  1  0            999 V2000
  -30.5488  -14.9819   20.4222 C   0  0  0  0  0  0
  -30.4371  -12.6148   19.4980 C   0  0  0  0  0  0
  -29.5268  -12.5394   18.2522 C   0  0  0  0  0  0
  -28.0619  -12.3128   18.6716 C   0  0  0  0  0  0
  -27.6267  -13.2530   19.8272 C   0  0  2  0  0  0
  -28.6670  -13.3110   20.9651 C   0  0  0  0  0  0
  -25.2455  -13.8220   20.5679 C   0  0  0  0  0  0
  -24.1776  -13.0438   20.9208 C   0  0  0  0  0  0
  -24.6395  -11.6926   20.8739 C   0  0  0  0  0  0
  -23.9084  -10.4294   21.0393 C   0  0  0  0  0  0
  -24.3631   -9.4214   21.9178 C   0  0  0  0  0  0
  -23.6302   -8.2254   22.0758 C   0  0  0  0  0  0
  -22.4289   -8.0293   21.3544 C   0  0  0  0  0  0
  -21.9927   -9.0265   20.4650 C   0  0  0  0  0  0
  -22.7253  -10.2138   20.3048 C   0  0  0  0  0  0
  -21.6859   -6.0744   22.5276 C   0  0  0  0  0  0
  -21.4020   -6.5640   23.8211 C   0  0  0  0  0  0
  -21.3664   -5.6782   24.9166 C   0  0  0  0  0  0
  -21.6044   -4.3047   24.7213 C   0  0  0  0  0  0
  -21.8816   -3.8149   23.4332 C   0  0  0  0  0  0
  -21.9190   -4.6972   22.3393 C   0  0  0  0  0  0
  -22.7786  -13.5225   21.1841 C   0  0  0  0  0  0
  -22.1648   -4.2157   21.0974 F   0  0  0  0  0  0
  -21.5640   -3.4528   25.7726 F   0  0  0  0  0  0
  -29.9357  -13.7292   20.3550 N   0  0  0  0  0  0
  -26.2877  -12.9459   20.3176 N   0  0  0  0  0  0
  -25.9331  -11.6582   20.5691 N   0  0  0  0  0  0
  -22.0412  -12.8256   22.0408 N   0  0  0  0  0  0
  -25.4107  -15.1957   20.4079 N   0  0  0  0  0  0
  -31.7655  -14.9941   20.2071 O   0  0  0  0  0  0
  -21.6651   -6.8894   21.4241 O   0  0  0  0  0  0
  -22.3485  -14.5518   20.6660 O   0  0  0  0  0  0
  -24.6453  -31.8405   23.1891 C   0  0  0  0  0  0
  -25.9211  -32.4688   23.8291 C   0  0  1  0  0  0
  -27.2138  -27.1097   20.1609 C   0  0  0  0  0  0
  -25.5955  -33.8498   24.2198 N   0  0  0  0  0  0
  -23.4511  -30.4587   21.5326 C   0  0  2  0  0  0
  -24.9015  -28.8800   20.1107 C   0  0  0  0  0  0
  -22.7575  -29.4526   22.4855 C   0  0  0  0  0  0
  -18.0303  -28.1387   22.8475 C   0  0  0  0  0  0
  -24.1480  -36.7251   23.2638 C   0  0  0  0  0  0
  -26.0074  -30.7072   21.3916 C   0  0  0  0  0  0
  -26.0778  -29.3147   20.7346 C   0  0  0  0  0  0
  -27.2346  -28.4449   20.7416 C   0  0  0  0  0  0
  -26.0140  -26.7830   19.4929 C   0  0  0  0  0  0
  -24.8833  -27.6294   19.4740 C   0  0  0  0  0  0
  -23.6798  -29.7848   20.1528 C   0  0  0  0  0  0
  -25.4115  -36.3030   24.0315 C   0  0  1  0  0  0
  -20.5913  -28.3720   23.1224 C   0  0  2  0  0  0
  -20.6779  -26.9426   22.5390 C   0  0  0  0  0  0
  -19.5758  -26.6373   21.5193 C   0  0  0  0  0  0
  -18.1941  -26.7926   22.1609 C   0  0  0  0  0  0
  -19.1558  -28.8874   23.2840 C   0  0  0  0  0  0
  -18.9475  -30.1465   23.8877 C   0  0  0  0  0  0
  -17.6472  -30.6590   24.0548 C   0  0  0  0  0  0
  -25.9070  -34.9404   23.5068 C   0  0  0  0  0  0
  -16.5364  -29.9080   23.6329 C   0  0  0  0  0  0
  -16.7287  -28.6486   23.0373 C   0  0  0  0  0  0
  -26.4530  -31.6581   25.0753 C   0  0  0  0  0  0
  -25.3709  -31.3788   26.1450 C   0  0  0  0  0  0
  -27.0401  -30.2973   24.6365 C   0  0  0  0  0  0
  -27.6064  -32.4350   25.7540 C   0  0  0  0  0  0
  -27.5576  -37.1778   24.8460 C   0  0  0  0  0  0
  -21.4263  -29.3048   22.3604 N   0  0  0  0  0  0
  -26.4273  -37.3749   23.9421 N   0  0  0  0  0  0
  -24.7210  -31.0239   22.0934 N   0  0  0  0  0  0
  -23.4209  -28.8074   23.3012 O   0  0  0  0  0  0
  -28.2579  -26.1109   20.2497 O   0  0  0  0  0  0
  -26.5652  -34.8900   22.4644 O   0  0  0  0  0  0
  -23.5563  -32.1288   23.7095 O   0  0  0  0  0  0
  -28.2343  -21.3176   18.8531 C   0  0  0  0  0  0
  -29.4171  -20.4645   20.7384 C   0  0  0  0  0  0
  -28.8597  -21.6699   20.0673 C   0  0  0  0  0  0
  -28.2086  -19.9749   18.3835 C   0  0  0  0  0  0
  -29.3567  -19.0726   20.2205 C   0  0  0  0  0  0
  -31.6081  -22.9072   20.7240 C   0  0  0  0  0  0
  -26.4978  -18.6414   17.0551 C   0  0  0  0  0  0
  -28.7413  -19.2804   16.0129 C   0  0  0  0  0  0
  -31.6460  -18.0019   20.5742 C   0  0  0  0  0  0
  -30.4626  -23.7453   20.1315 C   0  0  0  0  0  0
  -28.0236  -24.5737   20.0103 C   0  0  0  0  0  0
  -29.0289  -23.2814   20.4795 C   0  0  1  0  0  0
  -27.6325  -19.6762   17.0026 C   0  0  0  0  0  0
  -30.1481  -17.7371   20.8025 C   0  0  2  0  0  0
  -28.7432  -18.9021   19.0333 N   0  0  0  0  0  0
  -29.8012  -16.1983   20.5380 N   0  0  0  0  0  0
  -31.4719  -12.7689   19.1897 H   0  0  0  0  0  0
  -30.4276  -11.6702   20.0449 H   0  0  0  0  0  0
  -29.8601  -11.7429   17.5855 H   0  0  0  0  0  0
  -29.6065  -13.4689   17.6848 H   0  0  0  0  0  0
  -27.9700  -11.2742   18.9901 H   0  0  0  0  0  0
  -27.3998  -12.4279   17.8134 H   0  0  0  0  0  0
  -27.5826  -14.2495   19.3860 H   0  0  0  0  0  0
  -28.7636  -12.3465   21.4662 H   0  0  0  0  0  0
  -28.3589  -14.0296   21.7262 H   0  0  0  0  0  0
  -25.2770   -9.5703   22.4757 H   0  0  0  0  0  0
  -24.0005   -7.4658   22.7503 H   0  0  0  0  0  0
  -21.0848   -8.8794   19.8976 H   0  0  0  0  0  0
  -22.3706  -10.9682   19.6165 H   0  0  0  0  0  0
  -21.2021   -7.6144   23.9717 H   0  0  0  0  0  0
  -21.1485   -6.0510   25.9069 H   0  0  0  0  0  0
  -22.0599   -2.7613   23.2818 H   0  0  0  0  0  0
  -22.3996  -11.9942   22.4865 H   0  0  0  0  0  0
  -21.1030  -13.1325   22.2558 H   0  0  0  0  0  0
  -24.6372  -15.8431   20.5165 H   0  0  0  0  0  0
  -26.2487  -15.6389   20.0552 H   0  0  0  0  0  0
  -26.7282  -32.5291   23.1024 H   0  0  0  0  0  0
  -25.0098  -33.9613   25.0345 H   0  0  0  0  0  0
  -22.7558  -31.2861   21.3754 H   0  0  0  0  0  0
  -23.3755  -35.9566   23.3263 H   0  0  0  0  0  0
  -24.3562  -36.8923   22.2058 H   0  0  0  0  0  0
  -23.7211  -37.6427   23.6699 H   0  0  0  0  0  0
  -26.1635  -31.4616   20.6193 H   0  0  0  0  0  0
  -26.8767  -30.7604   22.0361 H   0  0  0  0  0  0
  -28.1294  -28.7693   21.2544 H   0  0  0  0  0  0
  -25.9176  -25.8252   19.0032 H   0  0  0  0  0  0
  -23.9842  -27.2930   18.9760 H   0  0  0  0  0  0
  -23.8233  -30.5570   19.3961 H   0  0  0  0  0  0
  -22.7952  -29.2266   19.8397 H   0  0  0  0  0  0
  -25.1294  -36.1851   25.0803 H   0  0  0  0  0  0
  -20.9999  -28.3301   24.1347 H   0  0  0  0  0  0
  -20.5637  -26.2349   23.3613 H   0  0  0  0  0  0
  -21.6653  -26.7409   22.1215 H   0  0  0  0  0  0
  -19.6921  -25.6270   21.1258 H   0  0  0  0  0  0
  -19.6691  -27.3149   20.6695 H   0  0  0  0  0  0
  -17.4207  -26.6666   21.4013 H   0  0  0  0  0  0
  -18.0354  -26.0061   22.9002 H   0  0  0  0  0  0
  -19.7955  -30.7269   24.2254 H   0  0  0  0  0  0
  -17.5035  -31.6273   24.5143 H   0  0  0  0  0  0
  -15.5366  -30.2981   23.7663 H   0  0  0  0  0  0
  -15.8684  -28.0784   22.7136 H   0  0  0  0  0  0
  -24.5888  -30.7132   25.7779 H   0  0  0  0  0  0
  -24.8894  -32.2974   26.4812 H   0  0  0  0  0  0
  -25.7978  -30.9008   27.0277 H   0  0  0  0  0  0
  -26.3031  -29.6703   24.1336 H   0  0  0  0  0  0
  -27.3955  -29.7276   25.4961 H   0  0  0  0  0  0
  -27.8966  -30.4202   23.9735 H   0  0  0  0  0  0
  -27.2665  -33.3667   26.2074 H   0  0  0  0  0  0
  -28.3907  -32.6883   25.0397 H   0  0  0  0  0  0
  -28.0708  -31.8512   26.5498 H   0  0  0  0  0  0
  -28.2568  -38.0100   24.7542 H   0  0  0  0  0  0
  -28.1096  -36.2634   24.6232 H   0  0  0  0  0  0
  -27.2309  -37.1367   25.8866 H   0  0  0  0  0  0
  -20.9489  -29.8778   21.6787 H   0  0  0  0  0  0
  -26.0137  -38.2812   24.1441 H   0  0  0  0  0  0
  -27.8181  -22.1011   18.2353 H   0  0  0  0  0  0
  -29.9654  -20.6202   21.6574 H   0  0  0  0  0  0
  -32.5682  -23.3998   20.5675 H   0  0  0  0  0  0
  -31.6745  -21.9273   20.2532 H   0  0  0  0  0  0
  -31.4838  -22.7599   21.7971 H   0  0  0  0  0  0
  -25.6981  -18.9777   17.7150 H   0  0  0  0  0  0
  -26.8520  -17.6793   17.4263 H   0  0  0  0  0  0
  -26.0673  -18.4772   16.0670 H   0  0  0  0  0  0
  -29.4891  -20.0698   15.9349 H   0  0  0  0  0  0
  -28.3422  -19.1052   15.0148 H   0  0  0  0  0  0
  -29.2517  -18.3713   16.3316 H   0  0  0  0  0  0
  -31.9146  -19.0028   20.9148 H   0  0  0  0  0  0
  -31.8997  -17.9404   19.5163 H   0  0  0  0  0  0
  -32.2771  -17.3087   21.1270 H   0  0  0  0  0  0
  -30.5730  -23.7765   19.0469 H   0  0  0  0  0  0
  -30.5879  -24.7732   20.4713 H   0  0  0  0  0  0
  -27.0410  -24.3461   20.4254 H   0  0  0  0  0  0
  -27.9022  -24.4804   18.9313 H   0  0  0  0  0  0
  -28.9670  -23.2748   21.5685 H   0  0  0  0  0  0
  -27.1901  -20.5982   16.6225 H   0  0  0  0  0  0
  -29.9970  -17.8266   21.8781 H   0  0  0  0  0  0
  -28.8049  -16.0409   20.5567 H   0  0  0  0  0  0
  1 25  1  0  0  0
  1 30  2  0  0  0
  1 86  1  0  0  0
  2  3  1  0  0  0
  2 25  1  0  0  0
  2 87  1  0  0  0
  2 88  1  0  0  0
  3  4  1  0  0  0
  3 89  1  0  0  0
  3 90  1  0  0  0
  4  5  1  0  0  0
  4 91  1  0  0  0
  4 92  1  0  0  0
  5  6  1  0  0  0
  5 26  1  0  0  0
  5 93  1  0  0  0
  6 25  1  0  0  0
  6 94  1  0  0  0
  6 95  1  0  0  0
  7  8  2  0  0  0
  7 26  1  0  0  0
  7 29  1  0  0  0
  8  9  1  0  0  0
  8 22  1  0  0  0
  9 10  1  0  0  0
  9 27  2  0  0  0
 10 11  2  0  0  0
 10 15  1  0  0  0
 11 12  1  0  0  0
 11 96  1  0  0  0
 12 13  2  0  0  0
 12 97  1  0  0  0
 13 14  1  0  0  0
 13 31  1  0  0  0
 14 15  2  0  0  0
 14 98  1  0  0  0
 15 99  1  0  0  0
 16 17  2  0  0  0
 16 21  1  0  0  0
 16 31  1  0  0  0
 17 18  1  0  0  0
 17100  1  0  0  0
 18 19  2  0  0  0
 18101  1  0  0  0
 19 20  1  0  0  0
 19 24  1  0  0  0
 20 21  2  0  0  0
 20102  1  0  0  0
 21 23  1  0  0  0
 22 28  1  0  0  0
 22 32  2  0  0  0
 26 27  1  0  0  0
 28103  1  0  0  0
 28104  1  0  0  0
 29105  1  0  0  0
 29106  1  0  0  0
 33 34  1  0  0  0
 33 66  1  0  0  0
 33 70  2  0  0  0
 34 36  1  0  0  0
 34 59  1  0  0  0
 34107  1  0  0  0
 35 44  2  0  0  0
 35 45  1  0  0  0
 35 68  1  0  0  0
 36 56  1  0  0  0
 36108  1  0  0  0
 37 39  1  0  0  0
 37 47  1  0  0  0
 37 66  1  0  0  0
 37109  1  0  0  0
 38 43  2  0  0  0
 38 46  1  0  0  0
 38 47  1  0  0  0
 39 64  1  0  0  0
 39 67  2  0  0  0
 40 52  1  0  0  0
 40 53  2  0  0  0
 40 58  1  0  0  0
 41110  1  0  0  0
 41111  1  0  0  0
 41112  1  0  0  0
 41 48  1  0  0  0
 42 43  1  0  0  0
 42 66  1  0  0  0
 42113  1  0  0  0
 42114  1  0  0  0
 43 44  1  0  0  0
 44115  1  0  0  0
 45 46  2  0  0  0
 45116  1  0  0  0
 46117  1  0  0  0
 47118  1  0  0  0
 47119  1  0  0  0
 48 56  1  0  0  0
 48 65  1  0  0  0
 48120  1  0  0  0
 49 50  1  0  0  0
 49 53  1  0  0  0
 49 64  1  0  0  0
 49121  1  0  0  0
 50 51  1  0  0  0
 50122  1  0  0  0
 50123  1  0  0  0
 51 52  1  0  0  0
 51124  1  0  0  0
 51125  1  0  0  0
 52126  1  0  0  0
 52127  1  0  0  0
 53 54  1  0  0  0
 54 55  2  0  0  0
 54128  1  0  0  0
 55 57  1  0  0  0
 55129  1  0  0  0
 56 69  2  0  0  0
 57 58  2  0  0  0
 57130  1  0  0  0
 58131  1  0  0  0
 59 60  1  0  0  0
 59 61  1  0  0  0
 59 62  1  0  0  0
 60132  1  0  0  0
 60133  1  0  0  0
 60134  1  0  0  0
 61135  1  0  0  0
 61136  1  0  0  0
 61137  1  0  0  0
 62138  1  0  0  0
 62139  1  0  0  0
 62140  1  0  0  0
 63 65  1  0  0  0
 63141  1  0  0  0
 63142  1  0  0  0
 63143  1  0  0  0
 64144  1  0  0  0
 65145  1  0  0  0
 68 81  1  0  0  0
 71 73  2  0  0  0
 71 74  1  0  0  0
 71146  1  0  0  0
 72 73  1  0  0  0
 72 75  2  0  0  0
 72147  1  0  0  0
 73 82  1  0  0  0
 74 83  1  0  0  0
 74 85  2  0  0  0
 75 84  1  0  0  0
 75 85  1  0  0  0
 76 80  1  0  0  0
 76148  1  0  0  0
 76149  1  0  0  0
 76150  1  0  0  0
 77151  1  0  0  0
 77152  1  0  0  0
 77153  1  0  0  0
 77 83  1  0  0  0
 78 83  1  0  0  0
 78154  1  0  0  0
 78155  1  0  0  0
 78156  1  0  0  0
 79157  1  0  0  0
 79158  1  0  0  0
 79159  1  0  0  0
 79 84  1  0  0  0
 80160  1  0  0  0
 80161  1  0  0  0
 80 82  1  0  0  0
 81 82  1  0  0  0
 81162  1  0  0  0
 81163  1  0  0  0
 82164  1  0  0  0
 83165  1  0  0  0
 84 86  1  0  0  0
 84166  1  0  0  0
 86167  1  0  0  0
M  ISO  4   1 100  68 101  81 101  86 100
M  END
> <chiral flag>
0

> <version>
0

> <s_m_source_file>
/data/baiqing/PycharmProjects/Reinvent-master-3.2/result/LINK_invent/BTK/process_docking_weight1_custom_sum_contain_oxygen_bond_distance_aromatic_linkinvent_7_9_3/rearranged_h_0098.sdf

> <i_m_source_file_index>
14

> <r_mmod_Potential_Energy-OPLS-2005>
278.111907958984

> <r_mmod_Stretch_Energy-OPLS-2005>
283.518493652344

> <r_mmod_Bend_Energy-OPLS-2005>
265.858306884766

> <r_mmod_Torsional_Energy-OPLS-2005>
196.274230957031

> <r_mmod_Improper_Torsional_Energy-OPLS-2005>
5.6614556312561

> <r_mmod_Van_der_Waal_Energy-OPLS-2005>
128.544509887695

> <r_mmod_Electrostatic_Energy-OPLS-2005>
-613.939392089844

> <r_mmod_Solvation_Energy-OPLS-2005>
-206.171005249023

> <b_mmod_Minimization_Converged-OPLS-2005>
0

> <r_mmod_RMS_Derivative-OPLS-2005>
1.8982926607132

$$$$
15
                    3D
 Structure written by MMmdl.
187195  0  0  1  0            999 V2000
  -30.7350  -14.4665   20.5707 C   0  0  0  0  0  0
  -30.4125  -12.3149   19.4082 C   0  0  0  0  0  0
  -29.4815  -12.5066   18.1959 C   0  0  0  0  0  0
  -28.0059  -12.3682   18.6163 C   0  0  0  0  0  0
  -27.6560  -13.2150   19.8698 C   0  0  2  0  0  0
  -28.7034  -13.0167   20.9875 C   0  0  0  0  0  0
  -25.2570  -13.8181   20.5692 C   0  0  0  0  0  0
  -24.1836  -13.0448   20.9182 C   0  0  0  0  0  0
  -24.6400  -11.6922   20.8752 C   0  0  0  0  0  0
  -23.9079  -10.4295   21.0416 C   0  0  0  0  0  0
  -24.3631   -9.4206   21.9192 C   0  0  0  0  0  0
  -23.6299   -8.2252   22.0763 C   0  0  0  0  0  0
  -22.4284   -8.0290   21.3550 C   0  0  0  0  0  0
  -21.9926   -9.0271   20.4655 C   0  0  0  0  0  0
  -22.7261  -10.2141   20.3062 C   0  0  0  0  0  0
  -21.6854   -6.0749   22.5279 C   0  0  0  0  0  0
  -21.4016   -6.5647   23.8213 C   0  0  0  0  0  0
  -21.3655   -5.6798   24.9172 C   0  0  0  0  0  0
  -21.6039   -4.3060   24.7225 C   0  0  0  0  0  0
  -21.8823   -3.8156   23.4344 C   0  0  0  0  0  0
  -21.9192   -4.6974   22.3400 C   0  0  0  0  0  0
  -22.7848  -13.5230   21.1850 C   0  0  0  0  0  0
  -22.1660   -4.2164   21.0980 F   0  0  0  0  0  0
  -21.5626   -3.4544   25.7734 F   0  0  0  0  0  0
  -30.0289  -13.3131   20.4195 N   0  0  0  0  0  0
  -26.3014  -12.9374   20.3383 N   0  0  0  0  0  0
  -25.9333  -11.6516   20.5794 N   0  0  0  0  0  0
  -22.0501  -12.8223   22.0399 N   0  0  0  0  0  0
  -25.4262  -15.1912   20.4099 N   0  0  0  0  0  0
  -31.8507  -14.6290   20.0728 O   0  0  0  0  0  0
  -21.6642   -6.8901   21.4241 O   0  0  0  0  0  0
  -22.3521  -14.5537   20.6692 O   0  0  0  0  0  0
  -24.6163  -31.8697   23.2092 C   0  0  0  0  0  0
  -25.9046  -32.4835   23.8411 C   0  0  1  0  0  0
  -27.2257  -27.4039   20.1256 C   0  0  0  0  0  0
  -25.5894  -33.8631   24.2315 N   0  0  0  0  0  0
  -23.4037  -30.4918   21.5512 C   0  0  2  0  0  0
  -24.8532  -28.9588   20.1162 C   0  0  0  0  0  0
  -22.7432  -29.4634   22.4988 C   0  0  0  0  0  0
  -18.0273  -28.1382   22.8500 C   0  0  0  0  0  0
  -24.1458  -36.7270   23.2619 C   0  0  0  0  0  0
  -25.9358  -30.8278   21.3672 C   0  0  0  0  0  0
  -26.0134  -29.4589   20.7171 C   0  0  0  0  0  0
  -27.2030  -28.6896   20.7194 C   0  0  0  0  0  0
  -26.0530  -26.9367   19.4912 C   0  0  0  0  0  0
  -24.8682  -27.6975   19.4969 C   0  0  0  0  0  0
  -23.6152  -29.8271   20.1634 C   0  0  0  0  0  0
  -25.4102  -36.3080   24.0308 C   0  0  1  0  0  0
  -20.5879  -28.3653   23.1321 C   0  0  2  0  0  0
  -20.6797  -26.9378   22.5419 C   0  0  0  0  0  0
  -19.5748  -26.6380   21.5237 C   0  0  0  0  0  0
  -18.1928  -26.7916   22.1646 C   0  0  0  0  0  0
  -19.1537  -28.8844   23.2893 C   0  0  0  0  0  0
  -18.9458  -30.1459   23.8886 C   0  0  0  0  0  0
  -17.6471  -30.6588   24.0584 C   0  0  0  0  0  0
  -25.9048  -34.9463   23.5099 C   0  0  0  0  0  0
  -16.5357  -29.9103   23.6334 C   0  0  0  0  0  0
  -16.7265  -28.6525   23.0339 C   0  0  0  0  0  0
  -26.4462  -31.6629   25.0742 C   0  0  0  0  0  0
  -25.3683  -31.3762   26.1459 C   0  0  0  0  0  0
  -27.0306  -30.3074   24.6131 C   0  0  0  0  0  0
  -27.6056  -32.4336   25.7495 C   0  0  0  0  0  0
  -27.5540  -37.1774   24.8468 C   0  0  0  0  0  0
  -21.4166  -29.3004   22.3729 N   0  0  0  0  0  0
  -26.4262  -37.3778   23.9412 N   0  0  0  0  0  0
  -24.6703  -31.0759   22.1022 N   0  0  0  0  0  0
  -23.4224  -28.8183   23.3030 O   0  0  0  0  0  0
  -28.3787  -26.6352   20.1572 O   0  0  0  0  0  0
  -26.5624  -34.8890   22.4664 O   0  0  0  0  0  0
  -23.5350  -32.1487   23.7472 O   0  0  0  0  0  0
  -27.4235  -19.8738   21.0378 C   0  0  0  0  0  0
  -27.3241  -19.3651   22.3535 C   0  0  0  0  0  0
  -28.6648  -19.6116   20.5496 C   0  0  0  0  0  0
  -28.5483  -18.8053   22.6469 C   0  0  0  0  0  0
  -24.8932  -18.7860   22.6089 C   0  0  0  0  0  0
  -25.7549  -20.9999   23.4746 C   0  0  0  0  0  0
  -28.5197  -17.0598   24.5041 C   0  0  0  0  0  0
  -29.0059  -19.4985   25.0425 C   0  0  0  0  0  0
  -27.4741  -22.7147   18.6861 C   0  0  0  0  0  0
  -30.5072  -24.2334   20.6978 C   0  0  0  0  0  0
  -29.6012  -24.8159   18.4269 C   0  0  0  0  0  0
  -29.2644  -20.1757   19.2815 C   0  0  0  0  0  0
  -29.7127  -21.6685   19.3660 C   0  0  0  0  0  0
  -30.5782  -18.0405   21.2013 C   0  0  0  0  0  0
  -30.8529  -16.6236   21.8161 C   0  0  0  0  0  0
  -28.2221  -25.2343   20.5113 C   0  0  0  0  0  0
  -26.0932  -19.5202   23.2240 C   0  0  0  0  0  0
  -29.1045  -18.3833   23.9856 C   0  0  0  0  0  0
  -28.6515  -22.7842   19.6916 C   0  0  1  0  0  0
  -29.2352  -24.2561   19.8192 C   0  0  0  0  0  0
  -29.2873  -18.7311   21.4507 N   0  0  0  0  0  0
  -30.1368  -15.4645   21.2498 N   0  0  0  0  0  0
  -31.4541  -12.4047   19.0963 H   0  0  0  0  0  0
  -30.3140  -11.3081   19.8175 H   0  0  0  0  0  0
  -29.7190  -11.7807   17.4174 H   0  0  0  0  0  0
  -29.6439  -13.4916   17.7557 H   0  0  0  0  0  0
  -27.8174  -11.3128   18.8149 H   0  0  0  0  0  0
  -27.3527  -12.6416   17.7865 H   0  0  0  0  0  0
  -27.6939  -14.2610   19.5639 H   0  0  0  0  0  0
  -28.6833  -11.9886   21.3517 H   0  0  0  0  0  0
  -28.4684  -13.6382   21.8525 H   0  0  0  0  0  0
  -25.2782   -9.5675   22.4766 H   0  0  0  0  0  0
  -24.0005   -7.4643   22.7479 H   0  0  0  0  0  0
  -21.0867   -8.8802   19.8955 H   0  0  0  0  0  0
  -22.3743  -10.9687   19.6171 H   0  0  0  0  0  0
  -21.2015   -7.6157   23.9724 H   0  0  0  0  0  0
  -21.1466   -6.0526   25.9075 H   0  0  0  0  0  0
  -22.0607   -2.7624   23.2840 H   0  0  0  0  0  0
  -22.4128  -11.9869   22.4763 H   0  0  0  0  0  0
  -21.1121  -13.1238   22.2638 H   0  0  0  0  0  0
  -24.6634  -15.8477   20.5336 H   0  0  0  0  0  0
  -26.2895  -15.6380   20.1284 H   0  0  0  0  0  0
  -26.7122  -32.5577   23.1187 H   0  0  0  0  0  0
  -25.0047  -33.9828   25.0458 H   0  0  0  0  0  0
  -22.6875  -31.3066   21.4164 H   0  0  0  0  0  0
  -23.3714  -35.9599   23.3312 H   0  0  0  0  0  0
  -24.3513  -36.8874   22.2013 H   0  0  0  0  0  0
  -23.7240  -37.6481   23.6655 H   0  0  0  0  0  0
  -26.0439  -31.5874   20.5937 H   0  0  0  0  0  0
  -26.8245  -30.8917   21.9819 H   0  0  0  0  0  0
  -28.0952  -29.0617   21.2014 H   0  0  0  0  0  0
  -26.0414  -25.9806   18.9882 H   0  0  0  0  0  0
  -23.9785  -27.3120   19.0214 H   0  0  0  0  0  0
  -23.7301  -30.6107   19.4117 H   0  0  0  0  0  0
  -22.7397  -29.2497   19.8596 H   0  0  0  0  0  0
  -25.1274  -36.1928   25.0796 H   0  0  0  0  0  0
  -20.9972  -28.3244   24.1447 H   0  0  0  0  0  0
  -20.5780  -26.2242   23.3608 H   0  0  0  0  0  0
  -21.6649  -26.7480   22.1121 H   0  0  0  0  0  0
  -19.6901  -25.6307   21.1233 H   0  0  0  0  0  0
  -19.6676  -27.3229   20.6799 H   0  0  0  0  0  0
  -17.4183  -26.6656   21.4047 H   0  0  0  0  0  0
  -18.0310  -26.0066   22.9053 H   0  0  0  0  0  0
  -19.7933  -30.7308   24.2198 H   0  0  0  0  0  0
  -17.5018  -31.6253   24.5200 H   0  0  0  0  0  0
  -15.5364  -30.3035   23.7645 H   0  0  0  0  0  0
  -15.8645  -28.0899   22.7016 H   0  0  0  0  0  0
  -24.5883  -30.7090   25.7779 H   0  0  0  0  0  0
  -24.8822  -32.2903   26.4830 H   0  0  0  0  0  0
  -25.7961  -30.8980   27.0269 H   0  0  0  0  0  0
  -26.2865  -29.6844   24.1153 H   0  0  0  0  0  0
  -27.4047  -29.7319   25.4619 H   0  0  0  0  0  0
  -27.8700  -30.4369   23.9291 H   0  0  0  0  0  0
  -27.2704  -33.3651   26.2063 H   0  0  0  0  0  0
  -28.3857  -32.6903   25.0304 H   0  0  0  0  0  0
  -28.0736  -31.8480   26.5408 H   0  0  0  0  0  0
  -28.2579  -38.0049   24.7542 H   0  0  0  0  0  0
  -28.1024  -36.2598   24.6308 H   0  0  0  0  0  0
  -27.2235  -37.1423   25.8859 H   0  0  0  0  0  0
  -20.9359  -29.8759   21.6962 H   0  0  0  0  0  0
  -26.0131  -38.2817   24.1532 H   0  0  0  0  0  0
  -26.6692  -20.4581   20.5316 H   0  0  0  0  0  0
  -25.1075  -17.7246   22.4794 H   0  0  0  0  0  0
  -24.6206  -19.1937   21.6340 H   0  0  0  0  0  0
  -24.0193  -18.8682   23.2546 H   0  0  0  0  0  0
  -26.5629  -21.5101   23.9985 H   0  0  0  0  0  0
  -24.8586  -21.0886   24.0886 H   0  0  0  0  0  0
  -25.5679  -21.5399   22.5443 H   0  0  0  0  0  0
  -28.6531  -16.2542   23.7826 H   0  0  0  0  0  0
  -27.4535  -17.1328   24.7132 H   0  0  0  0  0  0
  -29.0160  -16.7546   25.4266 H   0  0  0  0  0  0
  -29.5045  -20.4025   24.6909 H   0  0  0  0  0  0
  -29.4939  -19.2021   25.9712 H   0  0  0  0  0  0
  -27.9839  -19.7709   25.2935 H   0  0  0  0  0  0
  -27.0105  -21.7311   18.6610 H   0  0  0  0  0  0
  -27.7958  -22.9375   17.6697 H   0  0  0  0  0  0
  -26.6753  -23.4101   18.9287 H   0  0  0  0  0  0
  -30.8482  -25.2391   20.9433 H   0  0  0  0  0  0
  -31.3383  -23.7289   20.2073 H   0  0  0  0  0  0
  -30.3204  -23.7087   21.6355 H   0  0  0  0  0  0
  -30.1706  -25.7430   18.5159 H   0  0  0  0  0  0
  -28.7155  -25.0403   17.8291 H   0  0  0  0  0  0
  -30.2114  -24.1172   17.8593 H   0  0  0  0  0  0
  -28.5575  -20.0490   18.4612 H   0  0  0  0  0  0
  -30.1336  -19.5992   18.9742 H   0  0  0  0  0  0
  -30.1993  -21.9149   18.4221 H   0  0  0  0  0  0
  -30.5001  -21.6873   20.1195 H   0  0  0  0  0  0
  -30.7176  -17.9381   20.1265 H   0  0  0  0  0  0
  -31.3676  -18.7149   21.5361 H   0  0  0  0  0  0
  -30.7301  -16.5739   22.8895 H   0  0  0  0  0  0
  -31.9268  -16.4598   21.7063 H   0  0  0  0  0  0
  -28.3307  -25.1596   21.5936 H   0  0  0  0  0  0
  -27.2121  -24.8746   20.3592 H   0  0  0  0  0  0
  -26.2863  -19.0487   24.1848 H   0  0  0  0  0  0
  -30.1790  -18.2651   23.8871 H   0  0  0  0  0  0
  -28.2425  -22.5383   20.6716 H   0  0  0  0  0  0
  -29.1793  -15.3228   21.5351 H   0  0  0  0  0  0
  1 25  1  0  0  0
  1 30  2  0  0  0
  1 92  1  0  0  0
  2  3  1  0  0  0
  2 25  1  0  0  0
  2 93  1  0  0  0
  2 94  1  0  0  0
  3  4  1  0  0  0
  3 95  1  0  0  0
  3 96  1  0  0  0
  4  5  1  0  0  0
  4 97  1  0  0  0
  4 98  1  0  0  0
  5  6  1  0  0  0
  5 26  1  0  0  0
  5 99  1  0  0  0
  6 25  1  0  0  0
  6100  1  0  0  0
  6101  1  0  0  0
  7  8  2  0  0  0
  7 26  1  0  0  0
  7 29  1  0  0  0
  8  9  1  0  0  0
  8 22  1  0  0  0
  9 10  1  0  0  0
  9 27  2  0  0  0
 10 11  2  0  0  0
 10 15  1  0  0  0
 11 12  1  0  0  0
 11102  1  0  0  0
 12 13  2  0  0  0
 12103  1  0  0  0
 13 14  1  0  0  0
 13 31  1  0  0  0
 14 15  2  0  0  0
 14104  1  0  0  0
 15105  1  0  0  0
 16 17  2  0  0  0
 16 21  1  0  0  0
 16 31  1  0  0  0
 17 18  1  0  0  0
 17106  1  0  0  0
 18 19  2  0  0  0
 18107  1  0  0  0
 19 20  1  0  0  0
 19 24  1  0  0  0
 20 21  2  0  0  0
 20108  1  0  0  0
 21 23  1  0  0  0
 22 28  1  0  0  0
 22 32  2  0  0  0
 26 27  1  0  0  0
 28109  1  0  0  0
 28110  1  0  0  0
 29111  1  0  0  0
 29112  1  0  0  0
 33 34  1  0  0  0
 33 66  1  0  0  0
 33 70  2  0  0  0
 34 36  1  0  0  0
 34 59  1  0  0  0
 34113  1  0  0  0
 35 44  2  0  0  0
 35 45  1  0  0  0
 35 68  1  0  0  0
 36 56  1  0  0  0
 36114  1  0  0  0
 37 39  1  0  0  0
 37 47  1  0  0  0
 37 66  1  0  0  0
 37115  1  0  0  0
 38 43  2  0  0  0
 38 46  1  0  0  0
 38 47  1  0  0  0
 39 64  1  0  0  0
 39 67  2  0  0  0
 40 52  1  0  0  0
 40 53  2  0  0  0
 40 58  1  0  0  0
 41116  1  0  0  0
 41117  1  0  0  0
 41118  1  0  0  0
 41 48  1  0  0  0
 42 43  1  0  0  0
 42 66  1  0  0  0
 42119  1  0  0  0
 42120  1  0  0  0
 43 44  1  0  0  0
 44121  1  0  0  0
 45 46  2  0  0  0
 45122  1  0  0  0
 46123  1  0  0  0
 47124  1  0  0  0
 47125  1  0  0  0
 48 56  1  0  0  0
 48 65  1  0  0  0
 48126  1  0  0  0
 49 50  1  0  0  0
 49 53  1  0  0  0
 49 64  1  0  0  0
 49127  1  0  0  0
 50 51  1  0  0  0
 50128  1  0  0  0
 50129  1  0  0  0
 51 52  1  0  0  0
 51130  1  0  0  0
 51131  1  0  0  0
 52132  1  0  0  0
 52133  1  0  0  0
 53 54  1  0  0  0
 54 55  2  0  0  0
 54134  1  0  0  0
 55 57  1  0  0  0
 55135  1  0  0  0
 56 69  2  0  0  0
 57 58  2  0  0  0
 57136  1  0  0  0
 58137  1  0  0  0
 59 60  1  0  0  0
 59 61  1  0  0  0
 59 62  1  0  0  0
 60138  1  0  0  0
 60139  1  0  0  0
 60140  1  0  0  0
 61141  1  0  0  0
 61142  1  0  0  0
 61143  1  0  0  0
 62144  1  0  0  0
 62145  1  0  0  0
 62146  1  0  0  0
 63 65  1  0  0  0
 63147  1  0  0  0
 63148  1  0  0  0
 63149  1  0  0  0
 64150  1  0  0  0
 65151  1  0  0  0
 68 86  1  0  0  0
 71 72  1  0  0  0
 71 73  2  0  0  0
 71152  1  0  0  0
 72 74  2  0  0  0
 72 87  1  0  0  0
 73 82  1  0  0  0
 73 91  1  0  0  0
 74 88  1  0  0  0
 74 91  1  0  0  0
 75153  1  0  0  0
 75154  1  0  0  0
 75155  1  0  0  0
 75 87  1  0  0  0
 76 87  1  0  0  0
 76156  1  0  0  0
 76157  1  0  0  0
 76158  1  0  0  0
 77159  1  0  0  0
 77160  1  0  0  0
 77161  1  0  0  0
 77 88  1  0  0  0
 78 88  1  0  0  0
 78162  1  0  0  0
 78163  1  0  0  0
 78164  1  0  0  0
 79165  1  0  0  0
 79166  1  0  0  0
 79167  1  0  0  0
 79 89  1  0  0  0
 80168  1  0  0  0
 80169  1  0  0  0
 80170  1  0  0  0
 80 90  1  0  0  0
 81 90  1  0  0  0
 81171  1  0  0  0
 81172  1  0  0  0
 81173  1  0  0  0
 82 83  1  0  0  0
 82174  1  0  0  0
 82175  1  0  0  0
 83 89  1  0  0  0
 83176  1  0  0  0
 83177  1  0  0  0
 84 85  1  0  0  0
 84 91  1  0  0  0
 84178  1  0  0  0
 84179  1  0  0  0
 85 92  1  0  0  0
 85180  1  0  0  0
 85181  1  0  0  0
 86 90  1  0  0  0
 86182  1  0  0  0
 86183  1  0  0  0
 87184  1  0  0  0
 88185  1  0  0  0
 89 90  1  0  0  0
 89186  1  0  0  0
 92187  1  0  0  0
M  ISO  4   1 100  68 101  86 101  92 100
M  END
> <chiral flag>
0

> <version>
0

> <s_m_source_file>
/data/baiqing/PycharmProjects/Reinvent-master-3.2/result/LINK_invent/BTK/process_docking_weight1_custom_sum_contain_oxygen_bond_distance_aromatic_linkinvent_7_9_3/rearranged_h_0098.sdf

> <i_m_source_file_index>
15

> <r_mmod_Potential_Energy-OPLS-2005>
-11.6805753707886

> <r_mmod_Stretch_Energy-OPLS-2005>
53.8026962280273

> <r_mmod_Bend_Energy-OPLS-2005>
142.06721496582

> <r_mmod_Torsional_Energy-OPLS-2005>
288.283935546875

> <r_mmod_Improper_Torsional_Energy-OPLS-2005>
3.35902786254883

> <r_mmod_Van_der_Waal_Energy-OPLS-2005>
134.409240722656

> <r_mmod_Electrostatic_Energy-OPLS-2005>
-471.921173095703

> <r_mmod_Solvation_Energy-OPLS-2005>
-178.206039428711

> <b_mmod_Minimization_Converged-OPLS-2005>
0

> <r_mmod_RMS_Derivative-OPLS-2005>
3.8146116733551

$$$$
16
                    3D
 Structure written by MMmdl.
169177  0  0  1  0            999 V2000
  -30.7200  -14.5306   20.4886 C   0  0  0  0  0  0
  -30.4128  -12.3269   19.4437 C   0  0  0  0  0  0
  -29.4972  -12.4877   18.2148 C   0  0  0  0  0  0
  -28.0177  -12.3587   18.6261 C   0  0  0  0  0  0
  -27.6531  -13.2196   19.8672 C   0  0  2  0  0  0
  -28.7020  -13.0766   20.9962 C   0  0  0  0  0  0
  -25.2506  -13.7994   20.5704 C   0  0  0  0  0  0
  -24.1804  -13.0301   20.9265 C   0  0  0  0  0  0
  -24.6411  -11.6808   20.8773 C   0  0  0  0  0  0
  -23.9057  -10.4225   21.0409 C   0  0  0  0  0  0
  -24.3597   -9.4151   21.9198 C   0  0  0  0  0  0
  -23.6264   -8.2202   22.0739 C   0  0  0  0  0  0
  -22.4245   -8.0251   21.3526 C   0  0  0  0  0  0
  -21.9894   -9.0221   20.4620 C   0  0  0  0  0  0
  -22.7228  -10.2093   20.3047 C   0  0  0  0  0  0
  -21.6821   -6.0740   22.5290 C   0  0  0  0  0  0
  -21.3996   -6.5645   23.8234 C   0  0  0  0  0  0
  -21.3654   -5.6786   24.9188 C   0  0  0  0  0  0
  -21.6051   -4.3054   24.7234 C   0  0  0  0  0  0
  -21.8812   -3.8151   23.4346 C   0  0  0  0  0  0
  -21.9188   -4.6978   22.3410 C   0  0  0  0  0  0
  -22.7849  -13.5135   21.1880 C   0  0  0  0  0  0
  -22.1652   -4.2179   21.0985 F   0  0  0  0  0  0
  -21.5635   -3.4532   25.7733 F   0  0  0  0  0  0
  -30.0230  -13.3604   20.4208 N   0  0  0  0  0  0
  -26.3001  -12.9290   20.3366 N   0  0  0  0  0  0
  -25.9349  -11.6438   20.5807 N   0  0  0  0  0  0
  -22.0441  -12.8162   22.0436 N   0  0  0  0  0  0
  -25.4021  -15.1616   20.3969 N   0  0  0  0  0  0
  -31.8980  -14.5963   20.1321 O   0  0  0  0  0  0
  -21.6584   -6.8866   21.4243 O   0  0  0  0  0  0
  -22.3584  -14.5459   20.6713 O   0  0  0  0  0  0
  -24.6155  -31.8674   23.2097 C   0  0  0  0  0  0
  -25.9047  -32.4815   23.8392 C   0  0  1  0  0  0
  -27.2272  -27.4249   20.1023 C   0  0  0  0  0  0
  -25.5889  -33.8607   24.2324 N   0  0  0  0  0  0
  -23.4020  -30.4930   21.5497 C   0  0  2  0  0  0
  -24.8478  -28.9624   20.1113 C   0  0  0  0  0  0
  -22.7414  -29.4667   22.4979 C   0  0  0  0  0  0
  -18.0266  -28.1377   22.8489 C   0  0  0  0  0  0
  -24.1483  -36.7313   23.2639 C   0  0  0  0  0  0
  -25.9322  -30.8340   21.3613 C   0  0  0  0  0  0
  -26.0095  -29.4687   20.7068 C   0  0  0  0  0  0
  -27.2052  -28.7103   20.6946 C   0  0  0  0  0  0
  -26.0482  -26.9426   19.4900 C   0  0  0  0  0  0
  -24.8625  -27.6997   19.4960 C   0  0  0  0  0  0
  -23.6090  -29.8278   20.1631 C   0  0  0  0  0  0
  -25.4101  -36.3102   24.0338 C   0  0  1  0  0  0
  -20.5861  -28.3660   23.1316 C   0  0  2  0  0  0
  -20.6755  -26.9388   22.5419 C   0  0  0  0  0  0
  -19.5735  -26.6384   21.5210 C   0  0  0  0  0  0
  -18.1914  -26.7926   22.1616 C   0  0  0  0  0  0
  -19.1519  -28.8828   23.2903 C   0  0  0  0  0  0
  -18.9449  -30.1443   23.8914 C   0  0  0  0  0  0
  -17.6442  -30.6575   24.0572 C   0  0  0  0  0  0
  -25.9031  -34.9471   23.5135 C   0  0  0  0  0  0
  -16.5337  -29.9073   23.6324 C   0  0  0  0  0  0
  -16.7262  -28.6500   23.0336 C   0  0  0  0  0  0
  -26.4474  -31.6586   25.0724 C   0  0  0  0  0  0
  -25.3741  -31.3671   26.1464 C   0  0  0  0  0  0
  -27.0306  -30.3025   24.6091 C   0  0  0  0  0  0
  -27.6048  -32.4299   25.7495 C   0  0  0  0  0  0
  -27.5574  -37.1814   24.8462 C   0  0  0  0  0  0
  -21.4138  -29.3034   22.3728 N   0  0  0  0  0  0
  -26.4282  -37.3792   23.9413 N   0  0  0  0  0  0
  -24.6684  -31.0778   22.0992 N   0  0  0  0  0  0
  -23.4191  -28.8190   23.3015 O   0  0  0  0  0  0
  -28.3786  -26.6595   20.1301 O   0  0  0  0  0  0
  -26.5592  -34.8921   22.4701 O   0  0  0  0  0  0
  -23.5347  -32.1420   23.7485 O   0  0  0  0  0  0
  -28.5957  -19.9657   20.9426 C   0  0  0  0  0  0
  -30.7095  -19.3795   20.6499 C   0  0  0  0  0  0
  -29.9186  -20.4795   20.8765 C   0  0  0  0  0  0
  -28.6027  -18.6235   20.6586 C   0  0  0  0  0  0
  -31.9353  -24.9650   21.4122 C   0  0  0  0  0  0
  -27.1775  -17.5309   18.9261 C   0  0  0  0  0  0
  -26.1554  -18.3138   21.1133 C   0  0  0  0  0  0
  -30.3471  -21.9482   20.9783 C   0  0  0  0  0  0
  -30.4414  -25.1199   21.7274 C   0  0  0  0  0  0
  -29.1762  -22.9766   20.9774 C   0  0  0  0  0  0
  -28.1886  -25.2979   20.5688 C   0  0  0  0  0  0
  -30.5028  -16.9380   20.0531 C   0  0  0  0  0  0
  -27.4151  -17.7400   20.4334 C   0  0  0  0  0  0
  -29.5049  -24.4791   20.6793 C   0  0  1  0  0  0
  -29.9309  -18.2291   20.5001 N   0  0  0  0  0  0
  -30.0174  -15.6764   20.6709 N   0  0  0  0  0  0
  -31.4610  -12.3952   19.1447 H   0  0  0  0  0  0
  -30.2956  -11.3350   19.8809 H   0  0  0  0  0  0
  -29.7382  -11.7335   17.4623 H   0  0  0  0  0  0
  -29.6740  -13.4561   17.7464 H   0  0  0  0  0  0
  -27.8315  -11.3051   18.8367 H   0  0  0  0  0  0
  -27.3671  -12.6157   17.7883 H   0  0  0  0  0  0
  -27.6676  -14.2592   19.5406 H   0  0  0  0  0  0
  -28.6899  -12.0646   21.4041 H   0  0  0  0  0  0
  -28.4800  -13.7440   21.8302 H   0  0  0  0  0  0
  -25.2719   -9.5648   22.4830 H   0  0  0  0  0  0
  -23.9977   -7.4589   22.7440 H   0  0  0  0  0  0
  -21.0845   -8.8719   19.8923 H   0  0  0  0  0  0
  -22.3670  -10.9647   19.6186 H   0  0  0  0  0  0
  -21.1977   -7.6140   23.9759 H   0  0  0  0  0  0
  -21.1476   -6.0498   25.9094 H   0  0  0  0  0  0
  -22.0594   -2.7618   23.2822 H   0  0  0  0  0  0
  -22.3923  -11.9781   22.4850 H   0  0  0  0  0  0
  -21.1076  -13.1257   22.2578 H   0  0  0  0  0  0
  -24.6003  -15.7786   20.4600 H   0  0  0  0  0  0
  -26.2100  -15.5941   19.9727 H   0  0  0  0  0  0
  -26.7126  -32.5531   23.1160 H   0  0  0  0  0  0
  -25.0039  -33.9769   25.0466 H   0  0  0  0  0  0
  -22.6905  -31.3103   21.4130 H   0  0  0  0  0  0
  -23.3735  -35.9653   23.3300 H   0  0  0  0  0  0
  -24.3588  -36.8928   22.2055 H   0  0  0  0  0  0
  -23.7239  -37.6520   23.6656 H   0  0  0  0  0  0
  -26.0417  -31.6001   20.5917 H   0  0  0  0  0  0
  -26.8218  -30.8879   21.9777 H   0  0  0  0  0  0
  -28.1024  -29.0972   21.1570 H   0  0  0  0  0  0
  -26.0263  -25.9850   18.9922 H   0  0  0  0  0  0
  -23.9735  -27.3063   19.0232 H   0  0  0  0  0  0
  -23.7121  -30.6040   19.4048 H   0  0  0  0  0  0
  -22.7332  -29.2470   19.8703 H   0  0  0  0  0  0
  -25.1281  -36.1967   25.0827 H   0  0  0  0  0  0
  -20.9956  -28.3216   24.1435 H   0  0  0  0  0  0
  -20.5632  -26.2268   23.3606 H   0  0  0  0  0  0
  -21.6627  -26.7413   22.1222 H   0  0  0  0  0  0
  -19.6887  -25.6299   21.1225 H   0  0  0  0  0  0
  -19.6682  -27.3211   20.6753 H   0  0  0  0  0  0
  -17.4187  -26.6683   21.4013 H   0  0  0  0  0  0
  -18.0298  -26.0059   22.9000 H   0  0  0  0  0  0
  -19.7925  -30.7258   24.2281 H   0  0  0  0  0  0
  -17.4999  -31.6259   24.5168 H   0  0  0  0  0  0
  -15.5337  -30.2980   23.7645 H   0  0  0  0  0  0
  -15.8660  -28.0834   22.7018 H   0  0  0  0  0  0
  -24.5932  -30.6995   25.7803 H   0  0  0  0  0  0
  -24.8912  -32.2816   26.4924 H   0  0  0  0  0  0
  -25.8103  -30.8844   27.0219 H   0  0  0  0  0  0
  -26.2851  -29.6785   24.1138 H   0  0  0  0  0  0
  -27.4072  -29.7258   25.4555 H   0  0  0  0  0  0
  -27.8693  -30.4348   23.9245 H   0  0  0  0  0  0
  -27.2659  -33.3583   26.2106 H   0  0  0  0  0  0
  -28.3849  -32.6873   25.0321 H   0  0  0  0  0  0
  -28.0714  -31.8396   26.5390 H   0  0  0  0  0  0
  -28.2588  -38.0114   24.7505 H   0  0  0  0  0  0
  -28.1074  -36.2651   24.6285 H   0  0  0  0  0  0
  -27.2301  -37.1446   25.8865 H   0  0  0  0  0  0
  -20.9267  -29.8801   21.6999 H   0  0  0  0  0  0
  -26.0168  -38.2871   24.1409 H   0  0  0  0  0  0
  -27.7008  -20.5506   21.0980 H   0  0  0  0  0  0
  -31.7817  -19.3263   20.5138 H   0  0  0  0  0  0
  -32.5455  -25.3848   22.2135 H   0  0  0  0  0  0
  -32.1946  -25.4922   20.4934 H   0  0  0  0  0  0
  -32.2312  -23.9246   21.2939 H   0  0  0  0  0  0
  -27.9879  -16.9630   18.4730 H   0  0  0  0  0  0
  -27.1157  -18.4855   18.4025 H   0  0  0  0  0  0
  -26.2523  -16.9958   18.7174 H   0  0  0  0  0  0
  -26.3237  -18.4551   22.1826 H   0  0  0  0  0  0
  -25.2916  -17.6627   21.0085 H   0  0  0  0  0  0
  -25.8686  -19.2783   20.6925 H   0  0  0  0  0  0
  -31.0148  -22.1581   20.1413 H   0  0  0  0  0  0
  -30.9391  -22.0644   21.8863 H   0  0  0  0  0  0
  -30.2425  -26.1909   21.7871 H   0  0  0  0  0  0
  -30.2176  -24.7277   22.7204 H   0  0  0  0  0  0
  -28.6380  -22.8997   21.9235 H   0  0  0  0  0  0
  -28.4685  -22.6597   20.2116 H   0  0  0  0  0  0
  -27.6910  -25.3092   21.5416 H   0  0  0  0  0  0
  -27.5226  -24.7683   19.8897 H   0  0  0  0  0  0
  -31.5850  -17.0137   20.1732 H   0  0  0  0  0  0
  -30.3326  -16.8660   18.9778 H   0  0  0  0  0  0
  -27.6091  -16.7730   20.8936 H   0  0  0  0  0  0
  -29.9859  -24.5298   19.7013 H   0  0  0  0  0  0
  -29.0503  -15.6202   20.9424 H   0  0  0  0  0  0
  1 25  1  0  0  0
  1 30  2  0  0  0
  1 86  1  0  0  0
  2  3  1  0  0  0
  2 25  1  0  0  0
  2 87  1  0  0  0
  2 88  1  0  0  0
  3  4  1  0  0  0
  3 89  1  0  0  0
  3 90  1  0  0  0
  4  5  1  0  0  0
  4 91  1  0  0  0
  4 92  1  0  0  0
  5  6  1  0  0  0
  5 26  1  0  0  0
  5 93  1  0  0  0
  6 25  1  0  0  0
  6 94  1  0  0  0
  6 95  1  0  0  0
  7  8  2  0  0  0
  7 26  1  0  0  0
  7 29  1  0  0  0
  8  9  1  0  0  0
  8 22  1  0  0  0
  9 10  1  0  0  0
  9 27  2  0  0  0
 10 11  2  0  0  0
 10 15  1  0  0  0
 11 12  1  0  0  0
 11 96  1  0  0  0
 12 13  2  0  0  0
 12 97  1  0  0  0
 13 14  1  0  0  0
 13 31  1  0  0  0
 14 15  2  0  0  0
 14 98  1  0  0  0
 15 99  1  0  0  0
 16 17  2  0  0  0
 16 21  1  0  0  0
 16 31  1  0  0  0
 17 18  1  0  0  0
 17100  1  0  0  0
 18 19  2  0  0  0
 18101  1  0  0  0
 19 20  1  0  0  0
 19 24  1  0  0  0
 20 21  2  0  0  0
 20102  1  0  0  0
 21 23  1  0  0  0
 22 28  1  0  0  0
 22 32  2  0  0  0
 26 27  1  0  0  0
 28103  1  0  0  0
 28104  1  0  0  0
 29105  1  0  0  0
 29106  1  0  0  0
 33 34  1  0  0  0
 33 66  1  0  0  0
 33 70  2  0  0  0
 34 36  1  0  0  0
 34 59  1  0  0  0
 34107  1  0  0  0
 35 44  2  0  0  0
 35 45  1  0  0  0
 35 68  1  0  0  0
 36 56  1  0  0  0
 36108  1  0  0  0
 37 39  1  0  0  0
 37 47  1  0  0  0
 37 66  1  0  0  0
 37109  1  0  0  0
 38 43  2  0  0  0
 38 46  1  0  0  0
 38 47  1  0  0  0
 39 64  1  0  0  0
 39 67  2  0  0  0
 40 52  1  0  0  0
 40 53  2  0  0  0
 40 58  1  0  0  0
 41110  1  0  0  0
 41111  1  0  0  0
 41112  1  0  0  0
 41 48  1  0  0  0
 42 43  1  0  0  0
 42 66  1  0  0  0
 42113  1  0  0  0
 42114  1  0  0  0
 43 44  1  0  0  0
 44115  1  0  0  0
 45 46  2  0  0  0
 45116  1  0  0  0
 46117  1  0  0  0
 47118  1  0  0  0
 47119  1  0  0  0
 48 56  1  0  0  0
 48 65  1  0  0  0
 48120  1  0  0  0
 49 50  1  0  0  0
 49 53  1  0  0  0
 49 64  1  0  0  0
 49121  1  0  0  0
 50 51  1  0  0  0
 50122  1  0  0  0
 50123  1  0  0  0
 51 52  1  0  0  0
 51124  1  0  0  0
 51125  1  0  0  0
 52126  1  0  0  0
 52127  1  0  0  0
 53 54  1  0  0  0
 54 55  2  0  0  0
 54128  1  0  0  0
 55 57  1  0  0  0
 55129  1  0  0  0
 56 69  2  0  0  0
 57 58  2  0  0  0
 57130  1  0  0  0
 58131  1  0  0  0
 59 60  1  0  0  0
 59 61  1  0  0  0
 59 62  1  0  0  0
 60132  1  0  0  0
 60133  1  0  0  0
 60134  1  0  0  0
 61135  1  0  0  0
 61136  1  0  0  0
 61137  1  0  0  0
 62138  1  0  0  0
 62139  1  0  0  0
 62140  1  0  0  0
 63 65  1  0  0  0
 63141  1  0  0  0
 63142  1  0  0  0
 63143  1  0  0  0
 64144  1  0  0  0
 65145  1  0  0  0
 68 81  1  0  0  0
 71 73  1  0  0  0
 71 74  2  0  0  0
 71146  1  0  0  0
 72 73  2  0  0  0
 72 85  1  0  0  0
 72147  1  0  0  0
 73 78  1  0  0  0
 74 83  1  0  0  0
 74 85  1  0  0  0
 75 79  1  0  0  0
 75148  1  0  0  0
 75149  1  0  0  0
 75150  1  0  0  0
 76151  1  0  0  0
 76152  1  0  0  0
 76153  1  0  0  0
 76 83  1  0  0  0
 77 83  1  0  0  0
 77154  1  0  0  0
 77155  1  0  0  0
 77156  1  0  0  0
 78 80  1  0  0  0
 78157  1  0  0  0
 78158  1  0  0  0
 79159  1  0  0  0
 79160  1  0  0  0
 79 84  1  0  0  0
 80 84  1  0  0  0
 80161  1  0  0  0
 80162  1  0  0  0
 81 84  1  0  0  0
 81163  1  0  0  0
 81164  1  0  0  0
 82 85  1  0  0  0
 82 86  1  0  0  0
 82165  1  0  0  0
 82166  1  0  0  0
 83167  1  0  0  0
 84168  1  0  0  0
 86169  1  0  0  0
M  ISO  4   1 100  68 101  81 101  86 100
M  END
> <chiral flag>
0

> <version>
0

> <s_m_source_file>
/data/baiqing/PycharmProjects/Reinvent-master-3.2/result/LINK_invent/BTK/process_docking_weight1_custom_sum_contain_oxygen_bond_distance_aromatic_linkinvent_7_9_3/rearranged_h_0098.sdf

> <i_m_source_file_index>
16

> <r_mmod_Potential_Energy-OPLS-2005>
-70.5219955444336

> <r_mmod_Stretch_Energy-OPLS-2005>
42.8270225524902

> <r_mmod_Bend_Energy-OPLS-2005>
119.528297424316

> <r_mmod_Torsional_Energy-OPLS-2005>
249.153656005859

> <r_mmod_Improper_Torsional_Energy-OPLS-2005>
10.3324785232544

> <r_mmod_Van_der_Waal_Energy-OPLS-2005>
129.843368530273

> <r_mmod_Electrostatic_Energy-OPLS-2005>
-453.430908203125

> <r_mmod_Solvation_Energy-OPLS-2005>
-192.430953979492

> <b_mmod_Minimization_Converged-OPLS-2005>
0

> <r_mmod_RMS_Derivative-OPLS-2005>
3.02912187576294

$$$$
17
                    3D
 Structure written by MMmdl.
175183  0  0  1  0            999 V2000
  -30.6899  -14.5516   20.5279 C   0  0  0  0  0  0
  -30.4454  -12.3273   19.4699 C   0  0  0  0  0  0
  -29.5221  -12.4883   18.2395 C   0  0  0  0  0  0
  -28.0434  -12.3358   18.6400 C   0  0  0  0  0  0
  -27.6704  -13.2089   19.8675 C   0  0  2  0  0  0
  -28.7143  -13.0441   21.0027 C   0  0  0  0  0  0
  -25.2607  -13.8156   20.5639 C   0  0  0  0  0  0
  -24.1884  -13.0492   20.9154 C   0  0  0  0  0  0
  -24.6405  -11.6904   20.8764 C   0  0  0  0  0  0
  -23.9037  -10.4333   21.0410 C   0  0  0  0  0  0
  -24.3610   -9.4245   21.9181 C   0  0  0  0  0  0
  -23.6296   -8.2257   22.0730 C   0  0  0  0  0  0
  -22.4285   -8.0284   21.3511 C   0  0  0  0  0  0
  -21.9918   -9.0271   20.4612 C   0  0  0  0  0  0
  -22.7217  -10.2151   20.3030 C   0  0  0  0  0  0
  -21.6838   -6.0748   22.5289 C   0  0  0  0  0  0
  -21.3996   -6.5624   23.8236 C   0  0  0  0  0  0
  -21.3658   -5.6756   24.9185 C   0  0  0  0  0  0
  -21.6049   -4.3031   24.7241 C   0  0  0  0  0  0
  -21.8816   -3.8129   23.4360 C   0  0  0  0  0  0
  -21.9201   -4.6960   22.3418 C   0  0  0  0  0  0
  -22.7891  -13.5243   21.1840 C   0  0  0  0  0  0
  -22.1666   -4.2142   21.1003 F   0  0  0  0  0  0
  -21.5654   -3.4522   25.7769 F   0  0  0  0  0  0
  -30.0503  -13.3465   20.4651 N   0  0  0  0  0  0
  -26.3082  -12.9338   20.3365 N   0  0  0  0  0  0
  -25.9334  -11.6497   20.5759 N   0  0  0  0  0  0
  -22.0473  -12.8297   22.0377 N   0  0  0  0  0  0
  -25.4388  -15.1895   20.4127 N   0  0  0  0  0  0
  -31.8259  -14.7000   20.0661 O   0  0  0  0  0  0
  -21.6614   -6.8907   21.4249 O   0  0  0  0  0  0
  -22.3587  -14.5581   20.6650 O   0  0  0  0  0  0
  -24.6272  -31.8681   23.2093 C   0  0  0  0  0  0
  -25.9113  -32.4831   23.8388 C   0  0  1  0  0  0
  -27.2125  -27.3522   20.1092 C   0  0  0  0  0  0
  -25.5926  -33.8614   24.2305 N   0  0  0  0  0  0
  -23.4155  -30.4968   21.5643 C   0  0  2  0  0  0
  -24.8562  -28.9402   20.1304 C   0  0  0  0  0  0
  -22.7431  -29.4766   22.5073 C   0  0  0  0  0  0
  -18.0225  -28.1376   22.8410 C   0  0  0  0  0  0
  -24.1521  -36.7375   23.2645 C   0  0  0  0  0  0
  -25.9515  -30.8105   21.3671 C   0  0  0  0  0  0
  -26.0308  -29.4387   20.7074 C   0  0  0  0  0  0
  -27.2233  -28.6541   20.6771 C   0  0  0  0  0  0
  -26.0336  -26.9175   19.4739 C   0  0  0  0  0  0
  -24.8500  -27.6767   19.5115 C   0  0  0  0  0  0
  -23.6273  -29.8298   20.1824 C   0  0  0  0  0  0
  -25.4156  -36.3124   24.0307 C   0  0  1  0  0  0
  -20.5806  -28.3757   23.1221 C   0  0  2  0  0  0
  -20.6792  -26.9499   22.5380 C   0  0  0  0  0  0
  -19.5826  -26.6354   21.5184 C   0  0  0  0  0  0
  -18.1942  -26.7897   22.1541 C   0  0  0  0  0  0
  -19.1469  -28.8871   23.2773 C   0  0  0  0  0  0
  -18.9455  -30.1415   23.8866 C   0  0  0  0  0  0
  -17.6487  -30.6587   24.0577 C   0  0  0  0  0  0
  -25.9060  -34.9471   23.5106 C   0  0  0  0  0  0
  -16.5350  -29.9135   23.6314 C   0  0  0  0  0  0
  -16.7207  -28.6527   23.0345 C   0  0  0  0  0  0
  -26.4481  -31.6616   25.0743 C   0  0  0  0  0  0
  -25.3682  -31.3773   26.1478 C   0  0  0  0  0  0
  -27.0281  -30.3035   24.6122 C   0  0  0  0  0  0
  -27.6060  -32.4371   25.7488 C   0  0  0  0  0  0
  -27.5610  -37.1872   24.8443 C   0  0  0  0  0  0
  -21.4149  -29.3169   22.3731 N   0  0  0  0  0  0
  -26.4357  -37.3812   23.9338 N   0  0  0  0  0  0
  -24.6876  -31.0686   22.1105 N   0  0  0  0  0  0
  -23.4132  -28.8322   23.3194 O   0  0  0  0  0  0
  -28.3192  -26.5065   20.1306 O   0  0  0  0  0  0
  -26.5669  -34.8940   22.4696 O   0  0  0  0  0  0
  -23.5462  -32.1443   23.7459 O   0  0  0  0  0  0
  -29.6706  -19.4775   20.3203 C   0  0  0  0  0  0
  -30.1191  -18.2825   20.8439 C   0  0  0  0  0  0
  -30.8406  -18.6407   22.0330 C   0  0  0  0  0  0
  -30.7620  -20.0169   22.2102 C   0  0  0  0  0  0
  -31.6200  -17.6538   22.8797 C   0  0  0  0  0  0
  -29.8778  -19.8904   25.2268 C   0  0  0  0  0  0
  -33.2014  -21.9554   21.7538 C   0  0  0  0  0  0
  -26.2416  -23.8141   20.8083 C   0  0  0  0  0  0
  -29.9183  -16.9028   20.1586 C   0  0  0  0  0  0
  -31.2697  -20.3544   24.7605 C   0  0  0  0  0  0
  -32.8597  -21.2227   23.0598 C   0  0  0  0  0  0
  -28.3798  -22.5567   21.1189 C   0  0  0  0  0  0
  -29.8017  -21.9918   20.7266 C   0  0  0  0  0  0
  -28.3105  -25.3204   21.0231 C   0  0  0  0  0  0
  -31.3656  -20.8999   23.3028 C   0  0  0  0  0  0
  -27.7623  -23.9134   20.5046 C   0  0  2  0  0  0
  -30.0663  -20.5572   21.1081 N   0  0  0  0  0  0
  -29.9500  -15.6208   20.9183 N   0  0  0  0  0  0
  -31.4850  -12.4454   19.1622 H   0  0  0  0  0  0
  -30.3677  -11.3227   19.8980 H   0  0  0  0  0  0
  -29.7887  -11.7726   17.4589 H   0  0  0  0  0  0
  -29.6725  -13.4784   17.8080 H   0  0  0  0  0  0
  -27.8759  -11.2876   18.8817 H   0  0  0  0  0  0
  -27.3911  -12.5664   17.7953 H   0  0  0  0  0  0
  -27.7038  -14.2460   19.5305 H   0  0  0  0  0  0
  -28.7014  -12.0148   21.3631 H   0  0  0  0  0  0
  -28.4747  -13.6770   21.8597 H   0  0  0  0  0  0
  -25.2767   -9.5706   22.4748 H   0  0  0  0  0  0
  -24.0000   -7.4643   22.7447 H   0  0  0  0  0  0
  -21.0837   -8.8744   19.8957 H   0  0  0  0  0  0
  -22.3656  -10.9666   19.6107 H   0  0  0  0  0  0
  -21.1936   -7.6131   23.9722 H   0  0  0  0  0  0
  -21.1482   -6.0504   25.9088 H   0  0  0  0  0  0
  -22.0606   -2.7594   23.2858 H   0  0  0  0  0  0
  -22.4015  -11.9917   22.4804 H   0  0  0  0  0  0
  -21.1056  -13.1294   22.2517 H   0  0  0  0  0  0
  -24.6775  -15.8503   20.5173 H   0  0  0  0  0  0
  -26.3023  -15.6208   20.1127 H   0  0  0  0  0  0
  -26.7186  -32.5523   23.1159 H   0  0  0  0  0  0
  -24.9921  -33.9689   25.0354 H   0  0  0  0  0  0
  -22.7146  -31.3276   21.4311 H   0  0  0  0  0  0
  -23.3739  -35.9762   23.3315 H   0  0  0  0  0  0
  -24.3653  -36.9017   22.2071 H   0  0  0  0  0  0
  -23.7300  -37.6581   23.6676 H   0  0  0  0  0  0
  -26.0492  -31.5670   20.5886 H   0  0  0  0  0  0
  -26.8460  -30.8834   21.9739 H   0  0  0  0  0  0
  -28.1425  -29.0363   21.0939 H   0  0  0  0  0  0
  -26.0293  -25.9843   18.9336 H   0  0  0  0  0  0
  -23.9404  -27.2847   19.0688 H   0  0  0  0  0  0
  -23.7549  -30.6167   19.4379 H   0  0  0  0  0  0
  -22.7365  -29.2782   19.8663 H   0  0  0  0  0  0
  -25.1320  -36.2075   25.0803 H   0  0  0  0  0  0
  -20.9719  -28.3368   24.1417 H   0  0  0  0  0  0
  -20.5800  -26.2408   23.3589 H   0  0  0  0  0  0
  -21.6667  -26.7682   22.1187 H   0  0  0  0  0  0
  -19.7087  -25.6248   21.1316 H   0  0  0  0  0  0
  -19.6768  -27.3052   20.6599 H   0  0  0  0  0  0
  -17.4236  -26.6544   21.3890 H   0  0  0  0  0  0
  -18.0408  -26.0003   22.8906 H   0  0  0  0  0  0
  -19.7957  -30.7105   24.2342 H   0  0  0  0  0  0
  -17.5106  -31.6294   24.5154 H   0  0  0  0  0  0
  -15.5366  -30.3094   23.7665 H   0  0  0  0  0  0
  -15.8548  -28.0861   22.7139 H   0  0  0  0  0  0
  -24.5826  -30.7156   25.7810 H   0  0  0  0  0  0
  -24.8894  -32.2937   26.4884 H   0  0  0  0  0  0
  -25.7970  -30.8934   27.0260 H   0  0  0  0  0  0
  -26.2801  -29.6879   24.1097 H   0  0  0  0  0  0
  -27.3916  -29.7224   25.4602 H   0  0  0  0  0  0
  -27.8684  -30.4268   23.9309 H   0  0  0  0  0  0
  -27.2646  -33.3718   26.1956 H   0  0  0  0  0  0
  -28.3884  -32.6880   25.0307 H   0  0  0  0  0  0
  -28.0658  -31.8562   26.5487 H   0  0  0  0  0  0
  -28.2618  -38.0180   24.7472 H   0  0  0  0  0  0
  -28.1104  -36.2684   24.6296 H   0  0  0  0  0  0
  -27.2306  -37.1559   25.8847 H   0  0  0  0  0  0
  -20.9342  -29.8905   21.6937 H   0  0  0  0  0  0
  -26.0242  -38.2904   24.1323 H   0  0  0  0  0  0
  -29.1141  -19.6681   19.4071 H   0  0  0  0  0  0
  -31.9989  -16.8297   22.2772 H   0  0  0  0  0  0
  -31.0344  -17.2103   23.6840 H   0  0  0  0  0  0
  -32.4962  -18.1306   23.3024 H   0  0  0  0  0  0
  -29.4632  -19.1477   24.5440 H   0  0  0  0  0  0
  -29.1685  -20.7198   25.3203 H   0  0  0  0  0  0
  -29.9542  -19.4297   26.2156 H   0  0  0  0  0  0
  -34.2753  -22.1402   21.7010 H   0  0  0  0  0  0
  -32.7114  -22.9306   21.6857 H   0  0  0  0  0  0
  -32.9377  -21.3689   20.8710 H   0  0  0  0  0  0
  -25.7894  -22.9050   20.4089 H   0  0  0  0  0  0
  -25.6506  -24.6554   20.4716 H   0  0  0  0  0  0
  -26.0780  -23.7975   21.8830 H   0  0  0  0  0  0
  -30.6174  -16.8660   19.3203 H   0  0  0  0  0  0
  -28.9352  -16.9279   19.6864 H   0  0  0  0  0  0
  -31.9767  -19.5371   24.9233 H   0  0  0  0  0  0
  -31.6132  -21.1354   25.4396 H   0  0  0  0  0  0
  -33.2311  -21.8183   23.8920 H   0  0  0  0  0  0
  -33.4392  -20.2999   23.0862 H   0  0  0  0  0  0
  -28.2835  -22.5659   22.2027 H   0  0  0  0  0  0
  -27.6847  -21.7577   20.8176 H   0  0  0  0  0  0
  -30.5873  -22.6203   21.1526 H   0  0  0  0  0  0
  -29.9376  -22.0489   19.6389 H   0  0  0  0  0  0
  -29.3485  -25.1691   21.3279 H   0  0  0  0  0  0
  -27.7834  -25.5763   21.9449 H   0  0  0  0  0  0
  -30.8135  -21.8420   23.3169 H   0  0  0  0  0  0
  -27.8986  -23.8717   19.4226 H   0  0  0  0  0  0
  -29.0948  -15.3925   21.4060 H   0  0  0  0  0  0
  1 25  1  0  0  0
  1 30  2  0  0  0
  1 88  1  0  0  0
  2  3  1  0  0  0
  2 25  1  0  0  0
  2 89  1  0  0  0
  2 90  1  0  0  0
  3  4  1  0  0  0
  3 91  1  0  0  0
  3 92  1  0  0  0
  4  5  1  0  0  0
  4 93  1  0  0  0
  4 94  1  0  0  0
  5  6  1  0  0  0
  5 26  1  0  0  0
  5 95  1  0  0  0
  6 25  1  0  0  0
  6 96  1  0  0  0
  6 97  1  0  0  0
  7  8  2  0  0  0
  7 26  1  0  0  0
  7 29  1  0  0  0
  8  9  1  0  0  0
  8 22  1  0  0  0
  9 10  1  0  0  0
  9 27  2  0  0  0
 10 11  2  0  0  0
 10 15  1  0  0  0
 11 12  1  0  0  0
 11 98  1  0  0  0
 12 13  2  0  0  0
 12 99  1  0  0  0
 13 14  1  0  0  0
 13 31  1  0  0  0
 14 15  2  0  0  0
 14100  1  0  0  0
 15101  1  0  0  0
 16 17  2  0  0  0
 16 21  1  0  0  0
 16 31  1  0  0  0
 17 18  1  0  0  0
 17102  1  0  0  0
 18 19  2  0  0  0
 18103  1  0  0  0
 19 20  1  0  0  0
 19 24  1  0  0  0
 20 21  2  0  0  0
 20104  1  0  0  0
 21 23  1  0  0  0
 22 28  1  0  0  0
 22 32  2  0  0  0
 26 27  1  0  0  0
 28105  1  0  0  0
 28106  1  0  0  0
 29107  1  0  0  0
 29108  1  0  0  0
 33 34  1  0  0  0
 33 66  1  0  0  0
 33 70  2  0  0  0
 34 36  1  0  0  0
 34 59  1  0  0  0
 34109  1  0  0  0
 35 44  2  0  0  0
 35 45  1  0  0  0
 35 68  1  0  0  0
 36 56  1  0  0  0
 36110  1  0  0  0
 37 39  1  0  0  0
 37 47  1  0  0  0
 37 66  1  0  0  0
 37111  1  0  0  0
 38 43  2  0  0  0
 38 46  1  0  0  0
 38 47  1  0  0  0
 39 64  1  0  0  0
 39 67  2  0  0  0
 40 52  1  0  0  0
 40 53  2  0  0  0
 40 58  1  0  0  0
 41112  1  0  0  0
 41113  1  0  0  0
 41114  1  0  0  0
 41 48  1  0  0  0
 42 43  1  0  0  0
 42 66  1  0  0  0
 42115  1  0  0  0
 42116  1  0  0  0
 43 44  1  0  0  0
 44117  1  0  0  0
 45 46  2  0  0  0
 45118  1  0  0  0
 46119  1  0  0  0
 47120  1  0  0  0
 47121  1  0  0  0
 48 56  1  0  0  0
 48 65  1  0  0  0
 48122  1  0  0  0
 49 50  1  0  0  0
 49 53  1  0  0  0
 49 64  1  0  0  0
 49123  1  0  0  0
 50 51  1  0  0  0
 50124  1  0  0  0
 50125  1  0  0  0
 51 52  1  0  0  0
 51126  1  0  0  0
 51127  1  0  0  0
 52128  1  0  0  0
 52129  1  0  0  0
 53 54  1  0  0  0
 54 55  2  0  0  0
 54130  1  0  0  0
 55 57  1  0  0  0
 55131  1  0  0  0
 56 69  2  0  0  0
 57 58  2  0  0  0
 57132  1  0  0  0
 58133  1  0  0  0
 59 60  1  0  0  0
 59 61  1  0  0  0
 59 62  1  0  0  0
 60134  1  0  0  0
 60135  1  0  0  0
 60136  1  0  0  0
 61137  1  0  0  0
 61138  1  0  0  0
 61139  1  0  0  0
 62140  1  0  0  0
 62141  1  0  0  0
 62142  1  0  0  0
 63 65  1  0  0  0
 63143  1  0  0  0
 63144  1  0  0  0
 63145  1  0  0  0
 64146  1  0  0  0
 65147  1  0  0  0
 68 84  1  0  0  0
 71 72  2  0  0  0
 71 87  1  0  0  0
 71148  1  0  0  0
 72 73  1  0  0  0
 72 79  1  0  0  0
 73 74  2  0  0  0
 73 75  1  0  0  0
 74 85  1  0  0  0
 74 87  1  0  0  0
 75149  1  0  0  0
 75150  1  0  0  0
 75151  1  0  0  0
 76 80  1  0  0  0
 76152  1  0  0  0
 76153  1  0  0  0
 76154  1  0  0  0
 77 81  1  0  0  0
 77155  1  0  0  0
 77156  1  0  0  0
 77157  1  0  0  0
 78158  1  0  0  0
 78159  1  0  0  0
 78160  1  0  0  0
 78 86  1  0  0  0
 79 88  1  0  0  0
 79161  1  0  0  0
 79162  1  0  0  0
 80163  1  0  0  0
 80164  1  0  0  0
 80 85  1  0  0  0
 81 85  1  0  0  0
 81165  1  0  0  0
 81166  1  0  0  0
 82 83  1  0  0  0
 82 86  1  0  0  0
 82167  1  0  0  0
 82168  1  0  0  0
 83 87  1  0  0  0
 83169  1  0  0  0
 83170  1  0  0  0
 84 86  1  0  0  0
 84171  1  0  0  0
 84172  1  0  0  0
 85173  1  0  0  0
 86174  1  0  0  0
 88175  1  0  0  0
M  ISO  4   1 100  68 101  84 101  88 100
M  END
> <chiral flag>
0

> <version>
0

> <s_m_source_file>
/data/baiqing/PycharmProjects/Reinvent-master-3.2/result/LINK_invent/BTK/process_docking_weight1_custom_sum_contain_oxygen_bond_distance_aromatic_linkinvent_7_9_3/rearranged_h_0098.sdf

> <i_m_source_file_index>
17

> <r_mmod_Potential_Energy-OPLS-2005>
42.0929527282715

> <r_mmod_Stretch_Energy-OPLS-2005>
78.845458984375

> <r_mmod_Bend_Energy-OPLS-2005>
165.983917236328

> <r_mmod_Torsional_Energy-OPLS-2005>
274.757141113281

> <r_mmod_Improper_Torsional_Energy-OPLS-2005>
7.951096534729

> <r_mmod_Van_der_Waal_Energy-OPLS-2005>
114.040885925293

> <r_mmod_Electrostatic_Energy-OPLS-2005>
-428.350830078125

> <r_mmod_Solvation_Energy-OPLS-2005>
-202.772018432617

> <b_mmod_Minimization_Converged-OPLS-2005>
0

> <r_mmod_RMS_Derivative-OPLS-2005>
13.6149454116821

$$$$
18
                    3D
 Structure written by MMmdl.
171179  0  0  1  0            999 V2000
  -30.6693  -14.5539   20.4938 C   0  0  0  0  0  0
  -30.4277  -12.3319   19.4558 C   0  0  0  0  0  0
  -29.5059  -12.4949   18.2263 C   0  0  0  0  0  0
  -28.0261  -12.3534   18.6326 C   0  0  0  0  0  0
  -27.6595  -13.2122   19.8723 C   0  0  2  0  0  0
  -28.7025  -13.0495   21.0048 C   0  0  0  0  0  0
  -25.2579  -13.8168   20.5696 C   0  0  0  0  0  0
  -24.1831  -13.0445   20.9178 C   0  0  0  0  0  0
  -24.6403  -11.6919   20.8755 C   0  0  0  0  0  0
  -23.9076  -10.4304   21.0420 C   0  0  0  0  0  0
  -24.3624   -9.4208   21.9190 C   0  0  0  0  0  0
  -23.6291   -8.2249   22.0758 C   0  0  0  0  0  0
  -22.4269   -8.0294   21.3552 C   0  0  0  0  0  0
  -21.9916   -9.0271   20.4653 C   0  0  0  0  0  0
  -22.7255  -10.2147   20.3064 C   0  0  0  0  0  0
  -21.6851   -6.0741   22.5275 C   0  0  0  0  0  0
  -21.4017   -6.5636   23.8208 C   0  0  0  0  0  0
  -21.3660   -5.6791   24.9170 C   0  0  0  0  0  0
  -21.6032   -4.3050   24.7219 C   0  0  0  0  0  0
  -21.8819   -3.8148   23.4345 C   0  0  0  0  0  0
  -21.9193   -4.6969   22.3403 C   0  0  0  0  0  0
  -22.7849  -13.5245   21.1833 C   0  0  0  0  0  0
  -22.1661   -4.2160   21.0982 F   0  0  0  0  0  0
  -21.5624   -3.4531   25.7730 F   0  0  0  0  0  0
  -30.0329  -13.3459   20.4509 N   0  0  0  0  0  0
  -26.3019  -12.9349   20.3364 N   0  0  0  0  0  0
  -25.9328  -11.6509   20.5780 N   0  0  0  0  0  0
  -22.0480  -12.8248   22.0392 N   0  0  0  0  0  0
  -25.4292  -15.1886   20.4122 N   0  0  0  0  0  0
  -31.8185  -14.7069   20.0763 O   0  0  0  0  0  0
  -21.6638   -6.8888   21.4241 O   0  0  0  0  0  0
  -22.3544  -14.5558   20.6691 O   0  0  0  0  0  0
  -24.6208  -31.8639   23.2088 C   0  0  0  0  0  0
  -25.9081  -32.4801   23.8388 C   0  0  1  0  0  0
  -27.2271  -27.3693   20.1054 C   0  0  0  0  0  0
  -25.5916  -33.8602   24.2310 N   0  0  0  0  0  0
  -23.4119  -30.4899   21.5498 C   0  0  2  0  0  0
  -24.8577  -28.9550   20.1101 C   0  0  0  0  0  0
  -22.7443  -29.4645   22.4959 C   0  0  0  0  0  0
  -18.0282  -28.1388   22.8489 C   0  0  0  0  0  0
  -24.1484  -36.7294   23.2638 C   0  0  0  0  0  0
  -25.9489  -30.8070   21.3773 C   0  0  0  0  0  0
  -26.0217  -29.4399   20.7184 C   0  0  0  0  0  0
  -27.2055  -28.6544   20.7146 C   0  0  0  0  0  0
  -26.0449  -26.9355   19.4568 C   0  0  0  0  0  0
  -24.8680  -27.7052   19.4739 C   0  0  0  0  0  0
  -23.6240  -29.8293   20.1628 C   0  0  0  0  0  0
  -25.4109  -36.3096   24.0332 C   0  0  1  0  0  0
  -20.5876  -28.3682   23.1295 C   0  0  2  0  0  0
  -20.6776  -26.9412   22.5413 C   0  0  0  0  0  0
  -19.5755  -26.6393   21.5213 C   0  0  0  0  0  0
  -18.1932  -26.7933   22.1622 C   0  0  0  0  0  0
  -19.1532  -28.8853   23.2889 C   0  0  0  0  0  0
  -18.9458  -30.1456   23.8902 C   0  0  0  0  0  0
  -17.6460  -30.6590   24.0567 C   0  0  0  0  0  0
  -25.9041  -34.9464   23.5120 C   0  0  0  0  0  0
  -16.5351  -29.9089   23.6336 C   0  0  0  0  0  0
  -16.7270  -28.6509   23.0353 C   0  0  0  0  0  0
  -26.4493  -31.6603   25.0740 C   0  0  0  0  0  0
  -25.3745  -31.3720   26.1478 C   0  0  0  0  0  0
  -27.0337  -30.3034   24.6176 C   0  0  0  0  0  0
  -27.6066  -32.4334   25.7494 C   0  0  0  0  0  0
  -27.5577  -37.1800   24.8465 C   0  0  0  0  0  0
  -21.4164  -29.3035   22.3686 N   0  0  0  0  0  0
  -26.4290  -37.3787   23.9409 N   0  0  0  0  0  0
  -24.6787  -31.0692   22.1024 N   0  0  0  0  0  0
  -23.4185  -28.8187   23.3027 O   0  0  0  0  0  0
  -28.3694  -26.5687   20.1738 O   0  0  0  0  0  0
  -26.5604  -34.8921   22.4682 O   0  0  0  0  0  0
  -23.5384  -32.1421   23.7445 O   0  0  0  0  0  0
  -29.6404  -19.0666   20.7606 C   0  0  0  0  0  0
  -30.5042  -20.1695   18.9882 C   0  0  0  0  0  0
  -29.9770  -20.3604   20.2290 C   0  0  0  0  0  0
  -29.9084  -18.1120   19.7930 C   0  0  0  0  0  0
  -31.6588  -15.4624   16.1208 C   0  0  0  0  0  0
  -34.0433  -16.2457   16.3272 C   0  0  0  0  0  0
  -31.1154  -21.9970   21.4770 C   0  0  0  0  0  0
  -29.5984  -16.6102   19.6501 C   0  0  0  0  0  0
  -32.2227  -17.5347   17.5142 C   0  0  0  0  0  0
  -29.2127  -24.1584   20.5962 C   0  0  0  0  0  0
  -30.8673  -18.2615   17.4195 C   0  0  0  0  0  0
  -29.1812  -22.6830   20.0405 C   0  0  0  0  0  0
  -28.2600  -25.1480   19.8426 C   0  0  0  0  0  0
  -32.5756  -16.6907   16.2715 C   0  0  0  0  0  0
  -30.4511  -18.8138   18.7044 N   0  0  0  0  0  0
  -29.8759  -15.6280   20.7258 N   0  0  0  0  0  0
  -29.8449  -21.6297   20.8565 N   0  0  0  0  0  0
  -31.4734  -12.4230   19.1570 H   0  0  0  0  0  0
  -30.3276  -11.3314   19.8793 H   0  0  0  0  0  0
  -29.7561  -11.7525   17.4661 H   0  0  0  0  0  0
  -29.6695  -13.4703   17.7639 H   0  0  0  0  0  0
  -27.8398  -11.3003   18.8433 H   0  0  0  0  0  0
  -27.3810  -12.6114   17.7927 H   0  0  0  0  0  0
  -27.6837  -14.2497   19.5420 H   0  0  0  0  0  0
  -28.6826  -12.0334   21.3986 H   0  0  0  0  0  0
  -28.4643  -13.7017   21.8473 H   0  0  0  0  0  0
  -25.2772   -9.5667   22.4767 H   0  0  0  0  0  0
  -23.9990   -7.4633   22.7472 H   0  0  0  0  0  0
  -21.0845   -8.8804   19.8959 H   0  0  0  0  0  0
  -22.3722  -10.9691   19.6172 H   0  0  0  0  0  0
  -21.2020   -7.6144   23.9716 H   0  0  0  0  0  0
  -21.1476   -6.0519   25.9071 H   0  0  0  0  0  0
  -22.0606   -2.7613   23.2842 H   0  0  0  0  0  0
  -22.4089  -11.9912   22.4802 H   0  0  0  0  0  0
  -21.1104  -13.1291   22.2597 H   0  0  0  0  0  0
  -24.6628  -15.8430   20.5242 H   0  0  0  0  0  0
  -26.2799  -15.6310   20.0912 H   0  0  0  0  0  0
  -26.7146  -32.5489   23.1133 H   0  0  0  0  0  0
  -25.0071  -33.9757   25.0460 H   0  0  0  0  0  0
  -22.7040  -31.3099   21.4116 H   0  0  0  0  0  0
  -23.3747  -35.9627   23.3320 H   0  0  0  0  0  0
  -24.3568  -36.8894   22.2048 H   0  0  0  0  0  0
  -23.7239  -37.6504   23.6645 H   0  0  0  0  0  0
  -26.0798  -31.5747   20.6136 H   0  0  0  0  0  0
  -26.8298  -30.8500   22.0062 H   0  0  0  0  0  0
  -28.0969  -29.0185   21.2059 H   0  0  0  0  0  0
  -25.9980  -25.9975   18.9248 H   0  0  0  0  0  0
  -23.9776  -27.3336   18.9843 H   0  0  0  0  0  0
  -23.7405  -30.6087   19.4089 H   0  0  0  0  0  0
  -22.7452  -29.2569   19.8603 H   0  0  0  0  0  0
  -25.1289  -36.1953   25.0826 H   0  0  0  0  0  0
  -20.9966  -28.3260   24.1416 H   0  0  0  0  0  0
  -20.5694  -26.2286   23.3602 H   0  0  0  0  0  0
  -21.6645  -26.7465   22.1195 H   0  0  0  0  0  0
  -19.6919  -25.6308   21.1236 H   0  0  0  0  0  0
  -19.6696  -27.3212   20.6749 H   0  0  0  0  0  0
  -17.4200  -26.6680   21.4025 H   0  0  0  0  0  0
  -18.0334  -26.0075   22.9020 H   0  0  0  0  0  0
  -19.7933  -30.7276   24.2269 H   0  0  0  0  0  0
  -17.5015  -31.6270   24.5171 H   0  0  0  0  0  0
  -15.5352  -30.2995   23.7664 H   0  0  0  0  0  0
  -15.8665  -28.0834   22.7065 H   0  0  0  0  0  0
  -24.5910  -30.7080   25.7804 H   0  0  0  0  0  0
  -24.8947  -32.2880   26.4938 H   0  0  0  0  0  0
  -25.8085  -30.8869   27.0231 H   0  0  0  0  0  0
  -26.2902  -29.6778   24.1222 H   0  0  0  0  0  0
  -27.4070  -29.7297   25.4671 H   0  0  0  0  0  0
  -27.8760  -30.4332   23.9374 H   0  0  0  0  0  0
  -27.2686  -33.3627   26.2091 H   0  0  0  0  0  0
  -28.3856  -32.6907   25.0304 H   0  0  0  0  0  0
  -28.0759  -31.8451   26.5389 H   0  0  0  0  0  0
  -28.2606  -38.0087   24.7511 H   0  0  0  0  0  0
  -28.1061  -36.2621   24.6295 H   0  0  0  0  0  0
  -27.2289  -37.1456   25.8867 H   0  0  0  0  0  0
  -20.9336  -29.8721   21.6868 H   0  0  0  0  0  0
  -26.0174  -38.2860   24.1426 H   0  0  0  0  0  0
  -29.1909  -18.8594   21.7220 H   0  0  0  0  0  0
  -30.8965  -20.8725   18.2654 H   0  0  0  0  0  0
  -31.9884  -14.8191   15.3035 H   0  0  0  0  0  0
  -30.6281  -15.7444   15.9023 H   0  0  0  0  0  0
  -31.6519  -14.8589   17.0292 H   0  0  0  0  0  0
  -34.3190  -15.6725   15.4410 H   0  0  0  0  0  0
  -34.2319  -15.6190   17.2004 H   0  0  0  0  0  0
  -34.7162  -17.1027   16.3828 H   0  0  0  0  0  0
  -31.6470  -21.1294   21.8729 H   0  0  0  0  0  0
  -30.9491  -22.6827   22.3087 H   0  0  0  0  0  0
  -31.7714  -22.4932   20.7601 H   0  0  0  0  0  0
  -30.0364  -16.2139   18.7353 H   0  0  0  0  0  0
  -28.5280  -16.5311   19.4623 H   0  0  0  0  0  0
  -32.2525  -16.8983   18.3992 H   0  0  0  0  0  0
  -32.9957  -18.2875   17.6759 H   0  0  0  0  0  0
  -30.2316  -24.5436   20.5430 H   0  0  0  0  0  0
  -28.9404  -24.1588   21.6527 H   0  0  0  0  0  0
  -30.0762  -17.6109   17.0509 H   0  0  0  0  0  0
  -30.9339  -19.0672   16.6881 H   0  0  0  0  0  0
  -29.5975  -22.6887   19.0324 H   0  0  0  0  0  0
  -28.1387  -22.3810   19.9279 H   0  0  0  0  0  0
  -27.2606  -24.7683   20.0525 H   0  0  0  0  0  0
  -28.4179  -25.0493   18.7676 H   0  0  0  0  0  0
  -32.4602  -17.3161   15.3831 H   0  0  0  0  0  0
  -29.0568  -15.4068   21.2716 H   0  0  0  0  0  0
  1 25  1  0  0  0
  1 30  2  0  0  0
  1 86  1  0  0  0
  2  3  1  0  0  0
  2 25  1  0  0  0
  2 88  1  0  0  0
  2 89  1  0  0  0
  3  4  1  0  0  0
  3 90  1  0  0  0
  3 91  1  0  0  0
  4  5  1  0  0  0
  4 92  1  0  0  0
  4 93  1  0  0  0
  5  6  1  0  0  0
  5 26  1  0  0  0
  5 94  1  0  0  0
  6 25  1  0  0  0
  6 95  1  0  0  0
  6 96  1  0  0  0
  7  8  2  0  0  0
  7 26  1  0  0  0
  7 29  1  0  0  0
  8  9  1  0  0  0
  8 22  1  0  0  0
  9 10  1  0  0  0
  9 27  2  0  0  0
 10 11  2  0  0  0
 10 15  1  0  0  0
 11 12  1  0  0  0
 11 97  1  0  0  0
 12 13  2  0  0  0
 12 98  1  0  0  0
 13 14  1  0  0  0
 13 31  1  0  0  0
 14 15  2  0  0  0
 14 99  1  0  0  0
 15100  1  0  0  0
 16 17  2  0  0  0
 16 21  1  0  0  0
 16 31  1  0  0  0
 17 18  1  0  0  0
 17101  1  0  0  0
 18 19  2  0  0  0
 18102  1  0  0  0
 19 20  1  0  0  0
 19 24  1  0  0  0
 20 21  2  0  0  0
 20103  1  0  0  0
 21 23  1  0  0  0
 22 28  1  0  0  0
 22 32  2  0  0  0
 26 27  1  0  0  0
 28104  1  0  0  0
 28105  1  0  0  0
 29106  1  0  0  0
 29107  1  0  0  0
 33 34  1  0  0  0
 33 66  1  0  0  0
 33 70  2  0  0  0
 34 36  1  0  0  0
 34 59  1  0  0  0
 34108  1  0  0  0
 35 44  2  0  0  0
 35 45  1  0  0  0
 35 68  1  0  0  0
 36 56  1  0  0  0
 36109  1  0  0  0
 37 39  1  0  0  0
 37 47  1  0  0  0
 37 66  1  0  0  0
 37110  1  0  0  0
 38 43  2  0  0  0
 38 46  1  0  0  0
 38 47  1  0  0  0
 39 64  1  0  0  0
 39 67  2  0  0  0
 40 52  1  0  0  0
 40 53  2  0  0  0
 40 58  1  0  0  0
 41111  1  0  0  0
 41112  1  0  0  0
 41113  1  0  0  0
 41 48  1  0  0  0
 42 43  1  0  0  0
 42 66  1  0  0  0
 42114  1  0  0  0
 42115  1  0  0  0
 43 44  1  0  0  0
 44116  1  0  0  0
 45 46  2  0  0  0
 45117  1  0  0  0
 46118  1  0  0  0
 47119  1  0  0  0
 47120  1  0  0  0
 48 56  1  0  0  0
 48 65  1  0  0  0
 48121  1  0  0  0
 49 50  1  0  0  0
 49 53  1  0  0  0
 49 64  1  0  0  0
 49122  1  0  0  0
 50 51  1  0  0  0
 50123  1  0  0  0
 50124  1  0  0  0
 51 52  1  0  0  0
 51125  1  0  0  0
 51126  1  0  0  0
 52127  1  0  0  0
 52128  1  0  0  0
 53 54  1  0  0  0
 54 55  2  0  0  0
 54129  1  0  0  0
 55 57  1  0  0  0
 55130  1  0  0  0
 56 69  2  0  0  0
 57 58  2  0  0  0
 57131  1  0  0  0
 58132  1  0  0  0
 59 60  1  0  0  0
 59 61  1  0  0  0
 59 62  1  0  0  0
 60133  1  0  0  0
 60134  1  0  0  0
 60135  1  0  0  0
 61136  1  0  0  0
 61137  1  0  0  0
 61138  1  0  0  0
 62139  1  0  0  0
 62140  1  0  0  0
 62141  1  0  0  0
 63 65  1  0  0  0
 63142  1  0  0  0
 63143  1  0  0  0
 63144  1  0  0  0
 64145  1  0  0  0
 65146  1  0  0  0
 68 83  1  0  0  0
 71 73  1  0  0  0
 71 74  2  0  0  0
 71147  1  0  0  0
 72 73  2  0  0  0
 72 85  1  0  0  0
 72148  1  0  0  0
 73 87  1  0  0  0
 74 78  1  0  0  0
 74 85  1  0  0  0
 75149  1  0  0  0
 75150  1  0  0  0
 75151  1  0  0  0
 75 84  1  0  0  0
 76 84  1  0  0  0
 76152  1  0  0  0
 76153  1  0  0  0
 76154  1  0  0  0
 77 87  1  0  0  0
 77155  1  0  0  0
 77156  1  0  0  0
 77157  1  0  0  0
 78 86  1  0  0  0
 78158  1  0  0  0
 78159  1  0  0  0
 79 81  1  0  0  0
 79 84  1  0  0  0
 79160  1  0  0  0
 79161  1  0  0  0
 80 82  1  0  0  0
 80 83  1  0  0  0
 80162  1  0  0  0
 80163  1  0  0  0
 81 85  1  0  0  0
 81164  1  0  0  0
 81165  1  0  0  0
 82 87  1  0  0  0
 82166  1  0  0  0
 82167  1  0  0  0
 83168  1  0  0  0
 83169  1  0  0  0
 84170  1  0  0  0
 86171  1  0  0  0
M  ISO  4   1 100  68 101  83 101  86 100
M  END
> <chiral flag>
0

> <version>
0

> <s_m_source_file>
/data/baiqing/PycharmProjects/Reinvent-master-3.2/result/LINK_invent/BTK/process_docking_weight1_custom_sum_contain_oxygen_bond_distance_aromatic_linkinvent_7_9_3/rearranged_h_0098.sdf

> <i_m_source_file_index>
18

> <r_mmod_Potential_Energy-OPLS-2005>
-20.8507022857666

> <r_mmod_Stretch_Energy-OPLS-2005>
54.9545631408691

> <r_mmod_Bend_Energy-OPLS-2005>
131.578353881836

> <r_mmod_Torsional_Energy-OPLS-2005>
285.304412841797

> <r_mmod_Improper_Torsional_Energy-OPLS-2005>
16.5028591156006

> <r_mmod_Van_der_Waal_Energy-OPLS-2005>
125.870727539062

> <r_mmod_Electrostatic_Energy-OPLS-2005>
-424.326812744141

> <r_mmod_Solvation_Energy-OPLS-2005>
-239.872863769531

> <b_mmod_Minimization_Converged-OPLS-2005>
0

> <r_mmod_RMS_Derivative-OPLS-2005>
1.6479686498642

$$$$
19
                    3D
 Structure written by MMmdl.
162170  0  0  1  0            999 V2000
  -30.5417  -14.9791   20.4116 C   0  0  0  0  0  0
  -30.4363  -12.6075   19.5080 C   0  0  0  0  0  0
  -29.5227  -12.5356   18.2626 C   0  0  0  0  0  0
  -28.0567  -12.3172   18.6789 C   0  0  0  0  0  0
  -27.6275  -13.2540   19.8382 C   0  0  2  0  0  0
  -28.6684  -13.3013   20.9776 C   0  0  0  0  0  0
  -25.2448  -13.8226   20.5717 C   0  0  0  0  0  0
  -24.1772  -13.0441   20.9232 C   0  0  0  0  0  0
  -24.6396  -11.6930   20.8755 C   0  0  0  0  0  0
  -23.9082  -10.4295   21.0405 C   0  0  0  0  0  0
  -24.3630   -9.4209   21.9181 C   0  0  0  0  0  0
  -23.6302   -8.2245   22.0752 C   0  0  0  0  0  0
  -22.4284   -8.0283   21.3542 C   0  0  0  0  0  0
  -21.9922   -9.0257   20.4645 C   0  0  0  0  0  0
  -22.7253  -10.2135   20.3054 C   0  0  0  0  0  0
  -21.6856   -6.0738   22.5277 C   0  0  0  0  0  0
  -21.4017   -6.5640   23.8212 C   0  0  0  0  0  0
  -21.3661   -5.6792   24.9173 C   0  0  0  0  0  0
  -21.6045   -4.3055   24.7223 C   0  0  0  0  0  0
  -21.8819   -3.8148   23.4344 C   0  0  0  0  0  0
  -21.9194   -4.6965   22.3400 C   0  0  0  0  0  0
  -22.7791  -13.5205   21.1884 C   0  0  0  0  0  0
  -22.1661   -4.2150   21.0978 F   0  0  0  0  0  0
  -21.5628   -3.4539   25.7735 F   0  0  0  0  0  0
  -29.9419  -13.7173   20.3774 N   0  0  0  0  0  0
  -26.2876  -12.9469   20.3248 N   0  0  0  0  0  0
  -25.9330  -11.6592   20.5741 N   0  0  0  0  0  0
  -22.0448  -12.8191   22.0442 N   0  0  0  0  0  0
  -25.4104  -15.1955   20.4137 N   0  0  0  0  0  0
  -31.7437  -15.0261   20.1302 O   0  0  0  0  0  0
  -21.6645   -6.8882   21.4239 O   0  0  0  0  0  0
  -22.3470  -14.5506   20.6725 O   0  0  0  0  0  0
  -24.6464  -31.8410   23.1858 C   0  0  0  0  0  0
  -25.9222  -32.4678   23.8257 C   0  0  1  0  0  0
  -27.2168  -27.1030   20.1559 C   0  0  0  0  0  0
  -25.5959  -33.8486   24.2172 N   0  0  0  0  0  0
  -23.4517  -30.4596   21.5315 C   0  0  2  0  0  0
  -24.9026  -28.8820   20.1080 C   0  0  0  0  0  0
  -22.7583  -29.4531   22.4843 C   0  0  0  0  0  0
  -18.0308  -28.1397   22.8476 C   0  0  0  0  0  0
  -24.1492  -36.7247   23.2643 C   0  0  0  0  0  0
  -26.0102  -30.7033   21.3911 C   0  0  0  0  0  0
  -26.0802  -29.3117   20.7325 C   0  0  0  0  0  0
  -27.2361  -28.4380   20.7408 C   0  0  0  0  0  0
  -26.0148  -26.7883   19.4823 C   0  0  0  0  0  0
  -24.8851  -27.6351   19.4663 C   0  0  0  0  0  0
  -23.6804  -29.7876   20.1512 C   0  0  0  0  0  0
  -25.4126  -36.3022   24.0312 C   0  0  1  0  0  0
  -20.5924  -28.3727   23.1226 C   0  0  2  0  0  0
  -20.6791  -26.9426   22.5404 C   0  0  0  0  0  0
  -19.5764  -26.6380   21.5213 C   0  0  0  0  0  0
  -18.1946  -26.7935   22.1624 C   0  0  0  0  0  0
  -19.1566  -28.8881   23.2843 C   0  0  0  0  0  0
  -18.9481  -30.1476   23.8869 C   0  0  0  0  0  0
  -17.6476  -30.6593   24.0557 C   0  0  0  0  0  0
  -25.9078  -34.9398   23.5052 C   0  0  0  0  0  0
  -16.5367  -29.9084   23.6338 C   0  0  0  0  0  0
  -16.7291  -28.6504   23.0358 C   0  0  0  0  0  0
  -26.4532  -31.6560   25.0714 C   0  0  0  0  0  0
  -25.3706  -31.3763   26.1402 C   0  0  0  0  0  0
  -27.0406  -30.2950   24.6328 C   0  0  0  0  0  0
  -27.6052  -32.4339   25.7505 C   0  0  0  0  0  0
  -27.5575  -37.1781   24.8465 C   0  0  0  0  0  0
  -21.4272  -29.3047   22.3593 N   0  0  0  0  0  0
  -26.4285  -37.3740   23.9408 N   0  0  0  0  0  0
  -24.7226  -31.0236   22.0908 N   0  0  0  0  0  0
  -23.4212  -28.8083   23.3009 O   0  0  0  0  0  0
  -28.2531  -26.0903   20.2501 O   0  0  0  0  0  0
  -26.5667  -34.8901   22.4633 O   0  0  0  0  0  0
  -23.5575  -32.1302   23.7059 O   0  0  0  0  0  0
  -28.2245  -20.1622   17.0446 C   0  0  0  0  0  0
  -28.7933  -22.2829   18.0080 C   0  0  0  0  0  0
  -28.5152  -21.5109   16.8798 C   0  0  0  0  0  0
  -28.3611  -19.5516   18.2999 C   0  0  0  0  0  0
  -28.8264  -21.7882   19.3371 C   0  0  0  0  0  0
  -28.8472  -20.2524   19.4578 C   0  0  0  0  0  0
  -28.4647  -22.1554   15.5089 C   0  0  0  0  0  0
  -27.9151  -18.0905   18.3228 C   0  0  0  0  0  0
  -30.3453  -23.5074   20.5401 C   0  0  0  0  0  0
  -29.2859  -19.1516   20.6070 C   0  0  0  0  0  0
  -30.1707  -17.7125   20.2810 C   0  0  0  0  0  0
  -27.9937  -24.5698   19.9414 C   0  0  0  0  0  0
  -28.8759  -23.1285   20.3162 C   0  0  1  0  0  0
  -29.7855  -16.1870   20.5453 N   0  0  0  0  0  0
  -31.4709  -12.7600   19.1976 H   0  0  0  0  0  0
  -30.4275  -11.6609   20.0506 H   0  0  0  0  0  0
  -29.8483  -11.7344   17.5979 H   0  0  0  0  0  0
  -29.6076  -13.4619   17.6922 H   0  0  0  0  0  0
  -27.9566  -11.2770   18.9909 H   0  0  0  0  0  0
  -27.3942  -12.4427   17.8216 H   0  0  0  0  0  0
  -27.5854  -14.2528   19.4024 H   0  0  0  0  0  0
  -28.7612  -12.3324   21.4704 H   0  0  0  0  0  0
  -28.3627  -14.0132   21.7458 H   0  0  0  0  0  0
  -25.2772   -9.5687   22.4760 H   0  0  0  0  0  0
  -24.0010   -7.4638   22.7473 H   0  0  0  0  0  0
  -21.0851   -8.8778   19.8952 H   0  0  0  0  0  0
  -22.3707  -10.9675   19.6167 H   0  0  0  0  0  0
  -21.2010   -7.6149   23.9716 H   0  0  0  0  0  0
  -21.1483   -6.0522   25.9076 H   0  0  0  0  0  0
  -22.0598   -2.7610   23.2844 H   0  0  0  0  0  0
  -22.4078  -11.9858   22.4828 H   0  0  0  0  0  0
  -21.1062  -13.1203   22.2650 H   0  0  0  0  0  0
  -24.6388  -15.8448   20.5222 H   0  0  0  0  0  0
  -26.2499  -15.6347   20.0611 H   0  0  0  0  0  0
  -26.7286  -32.5272   23.0981 H   0  0  0  0  0  0
  -25.0081  -33.9595   25.0303 H   0  0  0  0  0  0
  -22.7559  -31.2865   21.3749 H   0  0  0  0  0  0
  -23.3759  -35.9572   23.3288 H   0  0  0  0  0  0
  -24.3575  -36.8899   22.2060 H   0  0  0  0  0  0
  -23.7239  -37.6434   23.6693 H   0  0  0  0  0  0
  -26.1715  -31.4556   20.6178 H   0  0  0  0  0  0
  -26.8784  -30.7538   22.0365 H   0  0  0  0  0  0
  -28.1288  -28.7593   21.2587 H   0  0  0  0  0  0
  -25.9081  -25.8381   18.9816 H   0  0  0  0  0  0
  -23.9883  -27.3028   18.9618 H   0  0  0  0  0  0
  -23.8187  -30.5614   19.3953 H   0  0  0  0  0  0
  -22.7946  -29.2311   19.8398 H   0  0  0  0  0  0
  -25.1315  -36.1843   25.0803 H   0  0  0  0  0  0
  -21.0016  -28.3320   24.1347 H   0  0  0  0  0  0
  -20.5683  -26.2341   23.3628 H   0  0  0  0  0  0
  -21.6657  -26.7426   22.1203 H   0  0  0  0  0  0
  -19.6924  -25.6284   21.1262 H   0  0  0  0  0  0
  -19.6702  -27.3173   20.6729 H   0  0  0  0  0  0
  -17.4216  -26.6680   21.4027 H   0  0  0  0  0  0
  -18.0342  -26.0083   22.9026 H   0  0  0  0  0  0
  -19.7956  -30.7301   24.2225 H   0  0  0  0  0  0
  -17.5029  -31.6271   24.5163 H   0  0  0  0  0  0
  -15.5366  -30.2976   23.7680 H   0  0  0  0  0  0
  -15.8692  -28.0813   22.7089 H   0  0  0  0  0  0
  -24.5893  -30.7103   25.7722 H   0  0  0  0  0  0
  -24.8886  -32.2949   26.4757 H   0  0  0  0  0  0
  -25.7979  -30.8983   27.0225 H   0  0  0  0  0  0
  -26.3035  -29.6662   24.1322 H   0  0  0  0  0  0
  -27.3985  -29.7266   25.4923 H   0  0  0  0  0  0
  -27.8957  -30.4174   23.9677 H   0  0  0  0  0  0
  -27.2634  -33.3661   26.2015 H   0  0  0  0  0  0
  -28.3899  -32.6866   25.0361 H   0  0  0  0  0  0
  -28.0680  -31.8510   26.5479 H   0  0  0  0  0  0
  -28.2582  -38.0088   24.7513 H   0  0  0  0  0  0
  -28.1082  -36.2616   24.6291 H   0  0  0  0  0  0
  -27.2292  -37.1424   25.8868 H   0  0  0  0  0  0
  -20.9488  -29.8755   21.6764 H   0  0  0  0  0  0
  -26.0148  -38.2805   24.1412 H   0  0  0  0  0  0
  -27.9144  -19.5770   16.1889 H   0  0  0  0  0  0
  -28.9836  -23.3256   17.8129 H   0  0  0  0  0  0
  -28.1716  -21.4409   14.7389 H   0  0  0  0  0  0
  -29.4430  -22.5568   15.2429 H   0  0  0  0  0  0
  -27.7456  -22.9749   15.4990 H   0  0  0  0  0  0
  -27.0766  -17.9433   17.6410 H   0  0  0  0  0  0
  -27.5548  -17.7670   19.2981 H   0  0  0  0  0  0
  -28.7093  -17.4249   17.9870 H   0  0  0  0  0  0
  -30.9130  -22.6644   20.9349 H   0  0  0  0  0  0
  -30.4328  -24.3282   21.2523 H   0  0  0  0  0  0
  -30.8185  -23.8235   19.6101 H   0  0  0  0  0  0
  -28.3856  -18.8854   21.1613 H   0  0  0  0  0  0
  -29.8730  -19.7221   21.3276 H   0  0  0  0  0  0
  -31.0898  -17.8292   20.8564 H   0  0  0  0  0  0
  -30.5380  -17.7715   19.2566 H   0  0  0  0  0  0
  -26.9964  -24.3640   20.3307 H   0  0  0  0  0  0
  -27.8337  -24.6024   18.8685 H   0  0  0  0  0  0
  -28.5010  -22.7901   21.2828 H   0  0  0  0  0  0
  -28.8134  -16.0313   20.7668 H   0  0  0  0  0  0
  1 25  1  0  0  0
  1 30  2  0  0  0
  1 84  1  0  0  0
  2  3  1  0  0  0
  2 25  1  0  0  0
  2 85  1  0  0  0
  2 86  1  0  0  0
  3  4  1  0  0  0
  3 87  1  0  0  0
  3 88  1  0  0  0
  4  5  1  0  0  0
  4 89  1  0  0  0
  4 90  1  0  0  0
  5  6  1  0  0  0
  5 26  1  0  0  0
  5 91  1  0  0  0
  6 25  1  0  0  0
  6 92  1  0  0  0
  6 93  1  0  0  0
  7  8  2  0  0  0
  7 26  1  0  0  0
  7 29  1  0  0  0
  8  9  1  0  0  0
  8 22  1  0  0  0
  9 10  1  0  0  0
  9 27  2  0  0  0
 10 11  2  0  0  0
 10 15  1  0  0  0
 11 12  1  0  0  0
 11 94  1  0  0  0
 12 13  2  0  0  0
 12 95  1  0  0  0
 13 14  1  0  0  0
 13 31  1  0  0  0
 14 15  2  0  0  0
 14 96  1  0  0  0
 15 97  1  0  0  0
 16 17  2  0  0  0
 16 21  1  0  0  0
 16 31  1  0  0  0
 17 18  1  0  0  0
 17 98  1  0  0  0
 18 19  2  0  0  0
 18 99  1  0  0  0
 19 20  1  0  0  0
 19 24  1  0  0  0
 20 21  2  0  0  0
 20100  1  0  0  0
 21 23  1  0  0  0
 22 28  1  0  0  0
 22 32  2  0  0  0
 26 27  1  0  0  0
 28101  1  0  0  0
 28102  1  0  0  0
 29103  1  0  0  0
 29104  1  0  0  0
 33 34  1  0  0  0
 33 66  1  0  0  0
 33 70  2  0  0  0
 34 36  1  0  0  0
 34 59  1  0  0  0
 34105  1  0  0  0
 35 44  2  0  0  0
 35 45  1  0  0  0
 35 68  1  0  0  0
 36 56  1  0  0  0
 36106  1  0  0  0
 37 39  1  0  0  0
 37 47  1  0  0  0
 37 66  1  0  0  0
 37107  1  0  0  0
 38 43  2  0  0  0
 38 46  1  0  0  0
 38 47  1  0  0  0
 39 64  1  0  0  0
 39 67  2  0  0  0
 40 52  1  0  0  0
 40 53  2  0  0  0
 40 58  1  0  0  0
 41108  1  0  0  0
 41109  1  0  0  0
 41110  1  0  0  0
 41 48  1  0  0  0
 42 43  1  0  0  0
 42 66  1  0  0  0
 42111  1  0  0  0
 42112  1  0  0  0
 43 44  1  0  0  0
 44113  1  0  0  0
 45 46  2  0  0  0
 45114  1  0  0  0
 46115  1  0  0  0
 47116  1  0  0  0
 47117  1  0  0  0
 48 56  1  0  0  0
 48 65  1  0  0  0
 48118  1  0  0  0
 49 50  1  0  0  0
 49 53  1  0  0  0
 49 64  1  0  0  0
 49119  1  0  0  0
 50 51  1  0  0  0
 50120  1  0  0  0
 50121  1  0  0  0
 51 52  1  0  0  0
 51122  1  0  0  0
 51123  1  0  0  0
 52124  1  0  0  0
 52125  1  0  0  0
 53 54  1  0  0  0
 54 55  2  0  0  0
 54126  1  0  0  0
 55 57  1  0  0  0
 55127  1  0  0  0
 56 69  2  0  0  0
 57 58  2  0  0  0
 57128  1  0  0  0
 58129  1  0  0  0
 59 60  1  0  0  0
 59 61  1  0  0  0
 59 62  1  0  0  0
 60130  1  0  0  0
 60131  1  0  0  0
 60132  1  0  0  0
 61133  1  0  0  0
 61134  1  0  0  0
 61135  1  0  0  0
 62136  1  0  0  0
 62137  1  0  0  0
 62138  1  0  0  0
 63 65  1  0  0  0
 63139  1  0  0  0
 63140  1  0  0  0
 63141  1  0  0  0
 64142  1  0  0  0
 65143  1  0  0  0
 68 82  1  0  0  0
 71 73  2  0  0  0
 71 74  1  0  0  0
 71144  1  0  0  0
 72 73  1  0  0  0
 72 75  2  0  0  0
 72145  1  0  0  0
 73 77  1  0  0  0
 74 76  2  0  0  0
 74 78  1  0  0  0
 75 76  1  0  0  0
 75 83  1  0  0  0
 76 80  1  0  0  0
 77146  1  0  0  0
 77147  1  0  0  0
 77148  1  0  0  0
 78149  1  0  0  0
 78150  1  0  0  0
 78151  1  0  0  0
 79152  1  0  0  0
 79153  1  0  0  0
 79154  1  0  0  0
 79 83  1  0  0  0
 80 81  1  0  0  0
 80155  1  0  0  0
 80156  1  0  0  0
 81 84  1  0  0  0
 81157  1  0  0  0
 81158  1  0  0  0
 82 83  1  0  0  0
 82159  1  0  0  0
 82160  1  0  0  0
 83161  1  0  0  0
 84162  1  0  0  0
M  ISO  4   1 100  68 101  82 101  84 100
M  END
> <chiral flag>
0

> <version>
0

> <s_m_source_file>
/data/baiqing/PycharmProjects/Reinvent-master-3.2/result/LINK_invent/BTK/process_docking_weight1_custom_sum_contain_oxygen_bond_distance_aromatic_linkinvent_7_9_3/rearranged_h_0098.sdf

> <i_m_source_file_index>
19

> <r_mmod_Potential_Energy-OPLS-2005>
717.501770019531

> <r_mmod_Stretch_Energy-OPLS-2005>
338.943420410156

> <r_mmod_Bend_Energy-OPLS-2005>
344.191589355469

> <r_mmod_Torsional_Energy-OPLS-2005>
265.047973632812

> <r_mmod_Improper_Torsional_Energy-OPLS-2005>
4.82789325714111

> <r_mmod_Van_der_Waal_Energy-OPLS-2005>
143.889755249023

> <r_mmod_Electrostatic_Energy-OPLS-2005>
-389.378021240234

> <r_mmod_Solvation_Energy-OPLS-2005>
-210.478454589844

> <b_mmod_Minimization_Converged-OPLS-2005>
0

> <r_mmod_RMS_Derivative-OPLS-2005>
0.333675265312195

$$$$
20
                    3D
 Structure written by MMmdl.
146153  0  0  1  0            999 V2000
  -30.3224  -15.5833   20.3418 C   0  0  0  0  0  0
  -30.4328  -13.0489   19.5272 C   0  0  0  0  0  0
  -29.5458  -12.6315   18.3203 C   0  0  0  0  0  0
  -28.1238  -12.2709   18.7778 C   0  0  0  0  0  0
  -27.6000  -13.2799   19.8214 C   0  0  2  0  0  0
  -28.6290  -13.5794   20.9376 C   0  0  0  0  0  0
  -25.2329  -13.8179   20.5822 C   0  0  0  0  0  0
  -24.1694  -13.0367   20.9288 C   0  0  0  0  0  0
  -24.6375  -11.6880   20.8781 C   0  0  0  0  0  0
  -23.9071  -10.4251   21.0409 C   0  0  0  0  0  0
  -24.3617   -9.4176   21.9187 C   0  0  0  0  0  0
  -23.6289   -8.2213   22.0748 C   0  0  0  0  0  0
  -22.4267   -8.0259   21.3535 C   0  0  0  0  0  0
  -21.9909   -9.0233   20.4634 C   0  0  0  0  0  0
  -22.7245  -10.2107   20.3049 C   0  0  0  0  0  0
  -21.6851   -6.0716   22.5276 C   0  0  0  0  0  0
  -21.4003   -6.5629   23.8212 C   0  0  0  0  0  0
  -21.3662   -5.6789   24.9173 C   0  0  0  0  0  0
  -21.6045   -4.3049   24.7233 C   0  0  0  0  0  0
  -21.8821   -3.8136   23.4355 C   0  0  0  0  0  0
  -21.9195   -4.6949   22.3407 C   0  0  0  0  0  0
  -22.7723  -13.5147   21.1917 C   0  0  0  0  0  0
  -22.1674   -4.2134   21.0983 F   0  0  0  0  0  0
  -21.5629   -3.4534   25.7745 F   0  0  0  0  0  0
  -29.7952  -14.2201   20.2771 N   0  0  0  0  0  0
  -26.2777  -12.9478   20.3304 N   0  0  0  0  0  0
  -25.9318  -11.6576   20.5758 N   0  0  0  0  0  0
  -22.0382  -12.8126   22.0470 N   0  0  0  0  0  0
  -25.3861  -15.1895   20.4280 N   0  0  0  0  0  0
  -31.5598  -15.5197   20.1983 O   0  0  0  0  0  0
  -21.6626   -6.8857   21.4239 O   0  0  0  0  0  0
  -22.3408  -14.5460   20.6772 O   0  0  0  0  0  0
  -24.6788  -31.8050   23.1546 C   0  0  0  0  0  0
  -25.9393  -32.4493   23.8082 C   0  0  1  0  0  0
  -27.2302  -26.7511   20.2115 C   0  0  0  0  0  0
  -25.6001  -33.8314   24.1987 N   0  0  0  0  0  0
  -23.5023  -30.4069   21.5093 C   0  0  2  0  0  0
  -24.9586  -28.7545   20.1207 C   0  0  0  0  0  0
  -22.7744  -29.4324   22.4730 C   0  0  0  0  0  0
  -18.0325  -28.1401   22.8428 C   0  0  0  0  0  0
  -24.1494  -36.7170   23.2647 C   0  0  0  0  0  0
  -26.0799  -30.5540   21.4092 C   0  0  0  0  0  0
  -26.1476  -29.1226   20.7613 C   0  0  0  0  0  0
  -27.2702  -28.1485   20.7734 C   0  0  0  0  0  0
  -26.0054  -26.5759   19.5196 C   0  0  0  0  0  0
  -24.9228  -27.5046   19.4782 C   0  0  0  0  0  0
  -23.7542  -29.7058   20.1442 C   0  0  0  0  0  0
  -25.4139  -36.2912   24.0287 C   0  0  1  0  0  0
  -20.5958  -28.3750   23.1141 C   0  0  2  0  0  0
  -20.6792  -26.9407   22.5395 C   0  0  0  0  0  0
  -19.5779  -26.6357   21.5192 C   0  0  0  0  0  0
  -18.1956  -26.7931   22.1595 C   0  0  0  0  0  0
  -19.1592  -28.8894   23.2764 C   0  0  0  0  0  0
  -18.9509  -30.1475   23.8807 C   0  0  0  0  0  0
  -17.6503  -30.6583   24.0532 C   0  0  0  0  0  0
  -25.9119  -34.9300   23.4971 C   0  0  0  0  0  0
  -16.5385  -29.9069   23.6338 C   0  0  0  0  0  0
  -16.7307  -28.6491   23.0354 C   0  0  0  0  0  0
  -26.4582  -31.6492   25.0677 C   0  0  0  0  0  0
  -25.3663  -31.3780   26.1300 C   0  0  0  0  0  0
  -27.0489  -30.2837   24.6508 C   0  0  0  0  0  0
  -27.6054  -32.4326   25.7487 C   0  0  0  0  0  0
  -27.5571  -37.1725   24.8466 C   0  0  0  0  0  0
  -21.4395  -29.3023   22.3487 N   0  0  0  0  0  0
  -26.4269  -37.3676   23.9422 N   0  0  0  0  0  0
  -24.7767  -30.9542   22.0773 N   0  0  0  0  0  0
  -23.4211  -28.7914   23.3046 O   0  0  0  0  0  0
  -28.2202  -25.5705   20.2665 O   0  0  0  0  0  0
  -26.5750  -34.8867   22.4582 O   0  0  0  0  0  0
  -23.5822  -32.1107   23.6537 O   0  0  0  0  0  0
  -28.1134  -16.8398   20.3960 C   0  0  0  0  0  0
  -28.8140  -20.3076   20.3286 C   0  0  0  0  0  0
  -29.0422  -22.2125   20.2550 C   0  0  0  0  0  0
  -29.8482  -18.6893   20.3077 C   0  0  0  0  0  0
  -28.0265  -23.8410   20.2496 C   0  0  0  0  0  0
  -29.5656  -16.9524   20.3664 N   0  0  0  0  0  0
  -31.4193  -13.3218   19.1511 H   0  0  0  0  0  0
  -30.6090  -12.2019   20.1923 H   0  0  0  0  0  0
  -29.9952  -11.7899   17.7912 H   0  0  0  0  0  0
  -29.4994  -13.4556   17.6069 H   0  0  0  0  0  0
  -28.1658  -11.2795   19.2325 H   0  0  0  0  0  0
  -27.4457  -12.1930   17.9278 H   0  0  0  0  0  0
  -27.4651  -14.1940   19.2478 H   0  0  0  0  0  0
  -28.8972  -12.6722   21.4810 H   0  0  0  0  0  0
  -28.2081  -14.2447   21.6893 H   0  0  0  0  0  0
  -25.2756   -9.5655   22.4775 H   0  0  0  0  0  0
  -23.9991   -7.4601   22.7470 H   0  0  0  0  0  0
  -21.0836   -8.8756   19.8941 H   0  0  0  0  0  0
  -22.3706  -10.9648   19.6163 H   0  0  0  0  0  0
  -21.1984   -7.6135   23.9711 H   0  0  0  0  0  0
  -21.1487   -6.0513   25.9079 H   0  0  0  0  0  0
  -22.0596   -2.7597   23.2863 H   0  0  0  0  0  0
  -22.4017  -11.9806   22.4871 H   0  0  0  0  0  0
  -21.0993  -13.1132   22.2670 H   0  0  0  0  0  0
  -24.6214  -15.8418   20.5626 H   0  0  0  0  0  0
  -26.2468  -15.6402   20.1517 H   0  0  0  0  0  0
  -26.7465  -32.4985   23.0784 H   0  0  0  0  0  0
  -25.0086  -33.9365   25.0099 H   0  0  0  0  0  0
  -22.8239  -31.2423   21.3234 H   0  0  0  0  0  0
  -23.3779  -35.9477   23.3261 H   0  0  0  0  0  0
  -24.3557  -36.8884   22.2070 H   0  0  0  0  0  0
  -23.7235  -37.6326   23.6756 H   0  0  0  0  0  0
  -26.2708  -31.2790   20.6172 H   0  0  0  0  0  0
  -26.9348  -30.6253   22.0690 H   0  0  0  0  0  0
  -28.1692  -28.4364   21.3010 H   0  0  0  0  0  0
  -25.8486  -25.6298   19.0208 H   0  0  0  0  0  0
  -24.0237  -27.2136   18.9535 H   0  0  0  0  0  0
  -23.9256  -30.4667   19.3822 H   0  0  0  0  0  0
  -22.8592  -29.1717   19.8209 H   0  0  0  0  0  0
  -25.1338  -36.1685   25.0778 H   0  0  0  0  0  0
  -21.0015  -28.3373   24.1277 H   0  0  0  0  0  0
  -20.5635  -26.2369   23.3655 H   0  0  0  0  0  0
  -21.6658  -26.7351   22.1218 H   0  0  0  0  0  0
  -19.6941  -25.6256   21.1250 H   0  0  0  0  0  0
  -19.6733  -27.3131   20.6692 H   0  0  0  0  0  0
  -17.4227  -26.6637   21.4000 H   0  0  0  0  0  0
  -18.0352  -26.0095   22.9014 H   0  0  0  0  0  0
  -19.7991  -30.7281   24.2162 H   0  0  0  0  0  0
  -17.5066  -31.6257   24.5142 H   0  0  0  0  0  0
  -15.5377  -30.2943   23.7723 H   0  0  0  0  0  0
  -15.8706  -28.0778   22.7134 H   0  0  0  0  0  0
  -24.5891  -30.7087   25.7596 H   0  0  0  0  0  0
  -24.8793  -32.2979   26.4541 H   0  0  0  0  0  0
  -25.7849  -30.9070   27.0206 H   0  0  0  0  0  0
  -26.3180  -29.6481   24.1495 H   0  0  0  0  0  0
  -27.3935  -29.7240   25.5214 H   0  0  0  0  0  0
  -27.9158  -30.3972   24.0000 H   0  0  0  0  0  0
  -27.2626  -33.3705   26.1870 H   0  0  0  0  0  0
  -28.3957  -32.6753   25.0370 H   0  0  0  0  0  0
  -28.0614  -31.8574   26.5555 H   0  0  0  0  0  0
  -28.2534  -38.0074   24.7553 H   0  0  0  0  0  0
  -28.1123  -36.2595   24.6246 H   0  0  0  0  0  0
  -27.2287  -37.1299   25.8868 H   0  0  0  0  0  0
  -20.9699  -29.8745   21.6608 H   0  0  0  0  0  0
  -26.0103  -38.2721   24.1478 H   0  0  0  0  0  0
  -27.7643  -16.3301   19.5004 H   0  0  0  0  0  0
  -27.6113  -17.8063   20.4105 H   0  0  0  0  0  0
  -27.7779  -16.3148   21.2878 H   0  0  0  0  0  0
  -28.0882  -20.1322   19.5354 H   0  0  0  0  0  0
  -28.2242  -20.1865   21.2382 H   0  0  0  0  0  0
  -29.6536  -22.3343   19.3603 H   0  0  0  0  0  0
  -29.7510  -22.3868   21.0651 H   0  0  0  0  0  0
  -30.5643  -18.8258   21.1192 H   0  0  0  0  0  0
  -30.4641  -18.7858   19.4129 H   0  0  0  0  0  0
  -27.3786  -23.7132   21.1168 H   0  0  0  0  0  0
  -27.3481  -23.7002   19.4085 H   0  0  0  0  0  0
  1 25  1  0  0  0
  1 30  2  0  0  0
  1 76  1  0  0  0
  2  3  1  0  0  0
  2 25  1  0  0  0
  2 77  1  0  0  0
  2 78  1  0  0  0
  3  4  1  0  0  0
  3 79  1  0  0  0
  3 80  1  0  0  0
  4  5  1  0  0  0
  4 81  1  0  0  0
  4 82  1  0  0  0
  5  6  1  0  0  0
  5 26  1  0  0  0
  5 83  1  0  0  0
  6 25  1  0  0  0
  6 84  1  0  0  0
  6 85  1  0  0  0
  7  8  2  0  0  0
  7 26  1  0  0  0
  7 29  1  0  0  0
  8  9  1  0  0  0
  8 22  1  0  0  0
  9 10  1  0  0  0
  9 27  2  0  0  0
 10 11  2  0  0  0
 10 15  1  0  0  0
 11 12  1  0  0  0
 11 86  1  0  0  0
 12 13  2  0  0  0
 12 87  1  0  0  0
 13 14  1  0  0  0
 13 31  1  0  0  0
 14 15  2  0  0  0
 14 88  1  0  0  0
 15 89  1  0  0  0
 16 17  2  0  0  0
 16 21  1  0  0  0
 16 31  1  0  0  0
 17 18  1  0  0  0
 17 90  1  0  0  0
 18 19  2  0  0  0
 18 91  1  0  0  0
 19 20  1  0  0  0
 19 24  1  0  0  0
 20 21  2  0  0  0
 20 92  1  0  0  0
 21 23  1  0  0  0
 22 28  1  0  0  0
 22 32  2  0  0  0
 26 27  1  0  0  0
 28 93  1  0  0  0
 28 94  1  0  0  0
 29 95  1  0  0  0
 29 96  1  0  0  0
 33 34  1  0  0  0
 33 66  1  0  0  0
 33 70  2  0  0  0
 34 36  1  0  0  0
 34 59  1  0  0  0
 34 97  1  0  0  0
 35 44  2  0  0  0
 35 45  1  0  0  0
 35 68  1  0  0  0
 36 56  1  0  0  0
 36 98  1  0  0  0
 37 39  1  0  0  0
 37 47  1  0  0  0
 37 66  1  0  0  0
 37 99  1  0  0  0
 38 43  2  0  0  0
 38 46  1  0  0  0
 38 47  1  0  0  0
 39 64  1  0  0  0
 39 67  2  0  0  0
 40 52  1  0  0  0
 40 53  2  0  0  0
 40 58  1  0  0  0
 41100  1  0  0  0
 41101  1  0  0  0
 41102  1  0  0  0
 41 48  1  0  0  0
 42 43  1  0  0  0
 42 66  1  0  0  0
 42103  1  0  0  0
 42104  1  0  0  0
 43 44  1  0  0  0
 44105  1  0  0  0
 45 46  2  0  0  0
 45106  1  0  0  0
 46107  1  0  0  0
 47108  1  0  0  0
 47109  1  0  0  0
 48 56  1  0  0  0
 48 65  1  0  0  0
 48110  1  0  0  0
 49 50  1  0  0  0
 49 53  1  0  0  0
 49 64  1  0  0  0
 49111  1  0  0  0
 50 51  1  0  0  0
 50112  1  0  0  0
 50113  1  0  0  0
 51 52  1  0  0  0
 51114  1  0  0  0
 51115  1  0  0  0
 52116  1  0  0  0
 52117  1  0  0  0
 53 54  1  0  0  0
 54 55  2  0  0  0
 54118  1  0  0  0
 55 57  1  0  0  0
 55119  1  0  0  0
 56 69  2  0  0  0
 57 58  2  0  0  0
 57120  1  0  0  0
 58121  1  0  0  0
 59 60  1  0  0  0
 59 61  1  0  0  0
 59 62  1  0  0  0
 60122  1  0  0  0
 60123  1  0  0  0
 60124  1  0  0  0
 61125  1  0  0  0
 61126  1  0  0  0
 61127  1  0  0  0
 62128  1  0  0  0
 62129  1  0  0  0
 62130  1  0  0  0
 63 65  1  0  0  0
 63131  1  0  0  0
 63132  1  0  0  0
 63133  1  0  0  0
 64134  1  0  0  0
 65135  1  0  0  0
 68 75  1  0  0  0
 71 76  1  0  0  0
 71136  1  0  0  0
 71137  1  0  0  0
 71138  1  0  0  0
 72 73  1  0  0  0
 72 74  1  0  0  0
 72139  1  0  0  0
 72140  1  0  0  0
 73 75  1  0  0  0
 73141  1  0  0  0
 73142  1  0  0  0
 74 76  1  0  0  0
 74143  1  0  0  0
 74144  1  0  0  0
 75145  1  0  0  0
 75146  1  0  0  0
M  ISO  4   1 100  68 101  75 101  76 100
M  END
> <chiral flag>
0

> <version>
0

> <s_m_source_file>
/data/baiqing/PycharmProjects/Reinvent-master-3.2/result/LINK_invent/BTK/process_docking_weight1_custom_sum_contain_oxygen_bond_distance_aromatic_linkinvent_7_9_3/rearranged_h_0098.sdf

> <i_m_source_file_index>
20

> <r_mmod_Potential_Energy-OPLS-2005>
2394.60620117188

> <r_mmod_Stretch_Energy-OPLS-2005>
1089.49169921875

> <r_mmod_Bend_Energy-OPLS-2005>
600.165954589844

> <r_mmod_Torsional_Energy-OPLS-2005>
262.956756591797

> <r_mmod_Improper_Torsional_Energy-OPLS-2005>
3.83639168739319

> <r_mmod_Van_der_Waal_Energy-OPLS-2005>
114.869972229004

> <r_mmod_Electrostatic_Energy-OPLS-2005>
-274.106903076172

> <r_mmod_Solvation_Energy-OPLS-2005>
-208.84977722168

> <b_mmod_Minimization_Converged-OPLS-2005>
0

> <r_mmod_RMS_Derivative-OPLS-2005>
1.83712780475616

$$$$
21
                    3D
 Structure written by MMmdl.
166174  0  0  1  0            999 V2000
  -30.6280  -14.5114   20.5588 C   0  0  0  0  0  0
  -30.4212  -12.3513   19.3777 C   0  0  0  0  0  0
  -29.4691  -12.4970   18.1740 C   0  0  0  0  0  0
  -27.9974  -12.3468   18.6143 C   0  0  0  0  0  0
  -27.6416  -13.2044   19.8549 C   0  0  2  0  0  0
  -28.6815  -12.9736   20.9722 C   0  0  0  0  0  0
  -25.2449  -13.8199   20.5684 C   0  0  0  0  0  0
  -24.1758  -13.0477   20.9299 C   0  0  0  0  0  0
  -24.6301  -11.6915   20.8757 C   0  0  0  0  0  0
  -23.8988  -10.4298   21.0410 C   0  0  0  0  0  0
  -24.3545   -9.4206   21.9181 C   0  0  0  0  0  0
  -23.6264   -8.2207   22.0741 C   0  0  0  0  0  0
  -22.4240   -8.0227   21.3524 C   0  0  0  0  0  0
  -21.9853   -9.0200   20.4627 C   0  0  0  0  0  0
  -22.7165  -10.2105   20.3052 C   0  0  0  0  0  0
  -21.6835   -6.0708   22.5278 C   0  0  0  0  0  0
  -21.3958   -6.5600   23.8208 C   0  0  0  0  0  0
  -21.3697   -5.6780   24.9208 C   0  0  0  0  0  0
  -21.6042   -4.3035   24.7251 C   0  0  0  0  0  0
  -21.8833   -3.8108   23.4378 C   0  0  0  0  0  0
  -21.9162   -4.6927   22.3427 C   0  0  0  0  0  0
  -22.7770  -13.5215   21.2033 C   0  0  0  0  0  0
  -22.1648   -4.2081   21.1019 F   0  0  0  0  0  0
  -21.5667   -3.4544   25.7794 F   0  0  0  0  0  0
  -30.0068  -13.3139   20.4104 N   0  0  0  0  0  0
  -26.2840  -12.9347   20.3206 N   0  0  0  0  0  0
  -25.9194  -11.6492   20.5680 N   0  0  0  0  0  0
  -22.0407  -12.8181   22.0537 N   0  0  0  0  0  0
  -25.4196  -15.1955   20.4122 N   0  0  0  0  0  0
  -31.7370  -14.7477   20.0690 O   0  0  0  0  0  0
  -21.6605   -6.8824   21.4231 O   0  0  0  0  0  0
  -22.3448  -14.5516   20.6892 O   0  0  0  0  0  0
  -24.6124  -31.8600   23.2092 C   0  0  0  0  0  0
  -25.9022  -32.4768   23.8334 C   0  0  1  0  0  0
  -27.2384  -27.4455   20.1076 C   0  0  0  0  0  0
  -25.5881  -33.8590   24.2216 N   0  0  0  0  0  0
  -23.3991  -30.4850   21.5497 C   0  0  2  0  0  0
  -24.8445  -28.9535   20.1061 C   0  0  0  0  0  0
  -22.7407  -29.4530   22.4961 C   0  0  0  0  0  0
  -18.0265  -28.1439   22.8404 C   0  0  0  0  0  0
  -24.1494  -36.7377   23.2628 C   0  0  0  0  0  0
  -25.9231  -30.8290   21.3548 C   0  0  0  0  0  0
  -26.0008  -29.4683   20.7046 C   0  0  0  0  0  0
  -27.2025  -28.7267   20.6908 C   0  0  0  0  0  0
  -26.0616  -26.9384   19.4969 C   0  0  0  0  0  0
  -24.8698  -27.6875   19.4923 C   0  0  0  0  0  0
  -23.6059  -29.8182   20.1615 C   0  0  0  0  0  0
  -25.4120  -36.3108   24.0276 C   0  0  1  0  0  0
  -20.5815  -28.3725   23.1249 C   0  0  2  0  0  0
  -20.6753  -26.9472   22.5367 C   0  0  0  0  0  0
  -19.5805  -26.6505   21.5092 C   0  0  0  0  0  0
  -18.1938  -26.8021   22.1472 C   0  0  0  0  0  0
  -19.1504  -28.8889   23.2868 C   0  0  0  0  0  0
  -18.9453  -30.1463   23.8911 C   0  0  0  0  0  0
  -17.6463  -30.6597   24.0608 C   0  0  0  0  0  0
  -25.9040  -34.9445   23.5077 C   0  0  0  0  0  0
  -16.5334  -29.9128   23.6372 C   0  0  0  0  0  0
  -16.7248  -28.6565   23.0296 C   0  0  0  0  0  0
  -26.4492  -31.6574   25.0676 C   0  0  0  0  0  0
  -25.3833  -31.3673   26.1493 C   0  0  0  0  0  0
  -27.0270  -30.2998   24.6021 C   0  0  0  0  0  0
  -27.5974  -32.4328   25.7523 C   0  0  0  0  0  0
  -27.5576  -37.1853   24.8438 C   0  0  0  0  0  0
  -21.4116  -29.3062   22.3686 N   0  0  0  0  0  0
  -26.4301  -37.3801   23.9365 N   0  0  0  0  0  0
  -24.6610  -31.0706   22.0953 N   0  0  0  0  0  0
  -23.4197  -28.8023   23.2949 O   0  0  0  0  0  0
  -28.4161  -26.7312   20.1604 O   0  0  0  0  0  0
  -26.5632  -34.8915   22.4652 O   0  0  0  0  0  0
  -23.5332  -32.1287   23.7526 O   0  0  0  0  0  0
  -30.8834  -19.0195   20.9271 C   0  0  0  0  0  0
  -29.9910  -18.0570   21.4575 C   0  0  0  0  0  0
  -28.3484  -19.7246   21.5814 C   0  0  0  0  0  0
  -29.2515  -20.6818   21.0036 C   0  0  0  0  0  0
  -25.3181  -20.0005   24.0376 C   0  0  0  0  0  0
  -27.5708  -22.2915   19.8362 C   0  0  0  0  0  0
  -26.9096  -20.0207   22.0282 C   0  0  0  0  0  0
  -30.4839  -16.6512   21.8770 C   0  0  0  0  0  0
  -26.7446  -20.2904   23.5381 C   0  0  0  0  0  0
  -29.4776  -24.6846   21.0399 C   0  0  0  0  0  0
  -29.2405  -23.2441   21.5912 C   0  0  0  0  0  0
  -28.2704  -25.3218   20.3160 C   0  0  0  0  0  0
  -28.9294  -22.1318   20.5431 C   0  0  1  0  0  0
  -30.5218  -20.3072   20.7038 N   0  0  0  0  0  0
  -28.7232  -18.4213   21.7863 N   0  0  0  0  0  0
  -29.9239  -15.4457   21.2333 N   0  0  0  0  0  0
  -31.4461  -12.5157   19.0483 H   0  0  0  0  0  0
  -30.4002  -11.3285   19.7614 H   0  0  0  0  0  0
  -29.7011  -11.7416   17.4232 H   0  0  0  0  0  0
  -29.6117  -13.4628   17.6806 H   0  0  0  0  0  0
  -27.8396  -11.2955   18.8548 H   0  0  0  0  0  0
  -27.3270  -12.5756   17.7804 H   0  0  0  0  0  0
  -27.6832  -14.2481   19.5350 H   0  0  0  0  0  0
  -28.6590  -11.9316   21.3010 H   0  0  0  0  0  0
  -28.4139  -13.5471   21.8559 H   0  0  0  0  0  0
  -25.2698   -9.5697   22.4783 H   0  0  0  0  0  0
  -23.9986   -7.4572   22.7432 H   0  0  0  0  0  0
  -21.0801   -8.8687   19.8919 H   0  0  0  0  0  0
  -22.3592  -10.9640   19.6149 H   0  0  0  0  0  0
  -21.1896   -7.6096   23.9695 H   0  0  0  0  0  0
  -21.1540   -6.0520   25.9108 H   0  0  0  0  0  0
  -22.0575   -2.7557   23.2930 H   0  0  0  0  0  0
  -22.3920  -11.9801   22.4970 H   0  0  0  0  0  0
  -21.0989  -13.1148   22.2648 H   0  0  0  0  0  0
  -24.6635  -15.8621   20.5357 H   0  0  0  0  0  0
  -26.2721  -15.6342   20.0875 H   0  0  0  0  0  0
  -26.7014  -32.5436   23.1025 H   0  0  0  0  0  0
  -25.0044  -33.9738   25.0381 H   0  0  0  0  0  0
  -22.6808  -31.2947   21.4153 H   0  0  0  0  0  0
  -23.3691  -35.9796   23.3308 H   0  0  0  0  0  0
  -24.3570  -36.9028   22.2046 H   0  0  0  0  0  0
  -23.7330  -37.6612   23.6676 H   0  0  0  0  0  0
  -26.0218  -31.5781   20.5685 H   0  0  0  0  0  0
  -26.8181  -30.8879   21.9624 H   0  0  0  0  0  0
  -28.0952  -29.1275   21.1518 H   0  0  0  0  0  0
  -26.0467  -25.9671   19.0167 H   0  0  0  0  0  0
  -23.9854  -27.2754   19.0230 H   0  0  0  0  0  0
  -23.7110  -30.5921   19.3970 H   0  0  0  0  0  0
  -22.7318  -29.2348   19.8665 H   0  0  0  0  0  0
  -25.1308  -36.1978   25.0766 H   0  0  0  0  0  0
  -20.9879  -28.3288   24.1384 H   0  0  0  0  0  0
  -20.5714  -26.2349   23.3560 H   0  0  0  0  0  0
  -21.6644  -26.7536   22.1156 H   0  0  0  0  0  0
  -19.6994  -25.6471   21.0970 H   0  0  0  0  0  0
  -19.6752  -27.3363   20.6676 H   0  0  0  0  0  0
  -17.4275  -26.6726   21.3804 H   0  0  0  0  0  0
  -18.0344  -26.0165   22.8841 H   0  0  0  0  0  0
  -19.7942  -30.7296   24.2304 H   0  0  0  0  0  0
  -17.5028  -31.6227   24.5337 H   0  0  0  0  0  0
  -15.5362  -30.3088   23.7650 H   0  0  0  0  0  0
  -15.8645  -28.0914   22.6998 H   0  0  0  0  0  0
  -24.5959  -30.7039   25.7901 H   0  0  0  0  0  0
  -24.9135  -32.2845   26.5029 H   0  0  0  0  0  0
  -25.8328  -30.8818   27.0163 H   0  0  0  0  0  0
  -26.2747  -29.6805   24.1120 H   0  0  0  0  0  0
  -27.4034  -29.7198   25.4450 H   0  0  0  0  0  0
  -27.8601  -30.4242   23.9106 H   0  0  0  0  0  0
  -27.2423  -33.3517   26.2196 H   0  0  0  0  0  0
  -28.3827  -32.7071   25.0461 H   0  0  0  0  0  0
  -28.0608  -31.8422   26.5442 H   0  0  0  0  0  0
  -28.2586  -38.0149   24.7462 H   0  0  0  0  0  0
  -28.1064  -36.2675   24.6292 H   0  0  0  0  0  0
  -27.2275  -37.1547   25.8835 H   0  0  0  0  0  0
  -20.9370  -29.8902   21.6918 H   0  0  0  0  0  0
  -26.0166  -38.2870   24.1400 H   0  0  0  0  0  0
  -31.9191  -18.7774   20.7184 H   0  0  0  0  0  0
  -25.1588  -20.3764   25.0546 H   0  0  0  0  0  0
  -25.1465  -18.9240   24.0655 H   0  0  0  0  0  0
  -24.5456  -20.4407   23.4010 H   0  0  0  0  0  0
  -26.8068  -22.7203   20.4858 H   0  0  0  0  0  0
  -27.1989  -21.3451   19.4425 H   0  0  0  0  0  0
  -27.6570  -22.9382   18.9668 H   0  0  0  0  0  0
  -26.3165  -19.1525   21.7518 H   0  0  0  0  0  0
  -26.4423  -20.8366   21.4882 H   0  0  0  0  0  0
  -30.2558  -16.5609   22.9420 H   0  0  0  0  0  0
  -31.5696  -16.6240   21.8276 H   0  0  0  0  0  0
  -27.4270  -19.6560   24.1030 H   0  0  0  0  0  0
  -27.0206  -21.3204   23.7698 H   0  0  0  0  0  0
  -30.3475  -24.7081   20.3822 H   0  0  0  0  0  0
  -29.7376  -25.3274   21.8848 H   0  0  0  0  0  0
  -28.4800  -23.2530   22.3700 H   0  0  0  0  0  0
  -30.1673  -22.9749   22.1023 H   0  0  0  0  0  0
  -27.3691  -25.0847   20.8859 H   0  0  0  0  0  0
  -28.1616  -24.9137   19.3167 H   0  0  0  0  0  0
  -29.6485  -22.3203   19.7437 H   0  0  0  0  0  0
  -28.9932  -15.1796   21.5378 H   0  0  0  0  0  0
  1 25  1  0  0  0
  1 30  2  0  0  0
  1 86  1  0  0  0
  2  3  1  0  0  0
  2 25  1  0  0  0
  2 87  1  0  0  0
  2 88  1  0  0  0
  3  4  1  0  0  0
  3 89  1  0  0  0
  3 90  1  0  0  0
  4  5  1  0  0  0
  4 91  1  0  0  0
  4 92  1  0  0  0
  5  6  1  0  0  0
  5 26  1  0  0  0
  5 93  1  0  0  0
  6 25  1  0  0  0
  6 94  1  0  0  0
  6 95  1  0  0  0
  7  8  2  0  0  0
  7 26  1  0  0  0
  7 29  1  0  0  0
  8  9  1  0  0  0
  8 22  1  0  0  0
  9 10  1  0  0  0
  9 27  2  0  0  0
 10 11  2  0  0  0
 10 15  1  0  0  0
 11 12  1  0  0  0
 11 96  1  0  0  0
 12 13  2  0  0  0
 12 97  1  0  0  0
 13 14  1  0  0  0
 13 31  1  0  0  0
 14 15  2  0  0  0
 14 98  1  0  0  0
 15 99  1  0  0  0
 16 17  2  0  0  0
 16 21  1  0  0  0
 16 31  1  0  0  0
 17 18  1  0  0  0
 17100  1  0  0  0
 18 19  2  0  0  0
 18101  1  0  0  0
 19 20  1  0  0  0
 19 24  1  0  0  0
 20 21  2  0  0  0
 20102  1  0  0  0
 21 23  1  0  0  0
 22 28  1  0  0  0
 22 32  2  0  0  0
 26 27  1  0  0  0
 28103  1  0  0  0
 28104  1  0  0  0
 29105  1  0  0  0
 29106  1  0  0  0
 33 34  1  0  0  0
 33 66  1  0  0  0
 33 70  2  0  0  0
 34 36  1  0  0  0
 34 59  1  0  0  0
 34107  1  0  0  0
 35 44  2  0  0  0
 35 45  1  0  0  0
 35 68  1  0  0  0
 36 56  1  0  0  0
 36108  1  0  0  0
 37 39  1  0  0  0
 37 47  1  0  0  0
 37 66  1  0  0  0
 37109  1  0  0  0
 38 43  2  0  0  0
 38 46  1  0  0  0
 38 47  1  0  0  0
 39 64  1  0  0  0
 39 67  2  0  0  0
 40 52  1  0  0  0
 40 53  2  0  0  0
 40 58  1  0  0  0
 41110  1  0  0  0
 41111  1  0  0  0
 41112  1  0  0  0
 41 48  1  0  0  0
 42 43  1  0  0  0
 42 66  1  0  0  0
 42113  1  0  0  0
 42114  1  0  0  0
 43 44  1  0  0  0
 44115  1  0  0  0
 45 46  2  0  0  0
 45116  1  0  0  0
 46117  1  0  0  0
 47118  1  0  0  0
 47119  1  0  0  0
 48 56  1  0  0  0
 48 65  1  0  0  0
 48120  1  0  0  0
 49 50  1  0  0  0
 49 53  1  0  0  0
 49 64  1  0  0  0
 49121  1  0  0  0
 50 51  1  0  0  0
 50122  1  0  0  0
 50123  1  0  0  0
 51 52  1  0  0  0
 51124  1  0  0  0
 51125  1  0  0  0
 52126  1  0  0  0
 52127  1  0  0  0
 53 54  1  0  0  0
 54 55  2  0  0  0
 54128  1  0  0  0
 55 57  1  0  0  0
 55129  1  0  0  0
 56 69  2  0  0  0
 57 58  2  0  0  0
 57130  1  0  0  0
 58131  1  0  0  0
 59 60  1  0  0  0
 59 61  1  0  0  0
 59 62  1  0  0  0
 60132  1  0  0  0
 60133  1  0  0  0
 60134  1  0  0  0
 61135  1  0  0  0
 61136  1  0  0  0
 61137  1  0  0  0
 62138  1  0  0  0
 62139  1  0  0  0
 62140  1  0  0  0
 63 65  1  0  0  0
 63141  1  0  0  0
 63142  1  0  0  0
 63143  1  0  0  0
 64144  1  0  0  0
 65145  1  0  0  0
 68 82  1  0  0  0
 71 72  2  0  0  0
 71 84  1  0  0  0
 71146  1  0  0  0
 72 78  1  0  0  0
 72 85  1  0  0  0
 73 74  1  0  0  0
 73 77  1  0  0  0
 73 85  2  0  0  0
 74 83  1  0  0  0
 74 84  2  0  0  0
 75 79  1  0  0  0
 75147  1  0  0  0
 75148  1  0  0  0
 75149  1  0  0  0
 76150  1  0  0  0
 76151  1  0  0  0
 76152  1  0  0  0
 76 83  1  0  0  0
 77 79  1  0  0  0
 77153  1  0  0  0
 77154  1  0  0  0
 78 86  1  0  0  0
 78155  1  0  0  0
 78156  1  0  0  0
 79157  1  0  0  0
 79158  1  0  0  0
 80 81  1  0  0  0
 80 82  1  0  0  0
 80159  1  0  0  0
 80160  1  0  0  0
 81 83  1  0  0  0
 81161  1  0  0  0
 81162  1  0  0  0
 82163  1  0  0  0
 82164  1  0  0  0
 83165  1  0  0  0
 86166  1  0  0  0
M  ISO  4   1 100  68 101  82 101  86 100
M  END
> <chiral flag>
0

> <version>
0

> <s_m_source_file>
/data/baiqing/PycharmProjects/Reinvent-master-3.2/result/LINK_invent/BTK/process_docking_weight1_custom_sum_contain_oxygen_bond_distance_aromatic_linkinvent_7_9_3/rearranged_h_0098.sdf

> <i_m_source_file_index>
21

> <r_mmod_Potential_Energy-OPLS-2005>
-1.39947319030762

> <r_mmod_Stretch_Energy-OPLS-2005>
48.0986404418945

> <r_mmod_Bend_Energy-OPLS-2005>
123.391616821289

> <r_mmod_Torsional_Energy-OPLS-2005>
218.494155883789

> <r_mmod_Improper_Torsional_Energy-OPLS-2005>
3.95463681221008

> <r_mmod_Van_der_Waal_Energy-OPLS-2005>
162.376892089844

> <r_mmod_Electrostatic_Energy-OPLS-2005>
-365.233428955078

> <r_mmod_Solvation_Energy-OPLS-2005>
-211.355880737305

> <b_mmod_Minimization_Converged-OPLS-2005>
0

> <r_mmod_RMS_Derivative-OPLS-2005>
10.5954294204712

$$$$
22
                    3D
 Structure written by MMmdl.
183191  0  0  1  0            999 V2000
  -30.6168  -14.7269   20.4283 C   0  0  0  0  0  0
  -30.4215  -12.4326   19.4719 C   0  0  0  0  0  0
  -29.5035  -12.4979   18.2322 C   0  0  0  0  0  0
  -28.0307  -12.3220   18.6479 C   0  0  0  0  0  0
  -27.6370  -13.2293   19.8459 C   0  0  2  0  0  0
  -28.6826  -13.1722   20.9800 C   0  0  0  0  0  0
  -25.2488  -13.8189   20.5684 C   0  0  0  0  0  0
  -24.1793  -13.0433   20.9204 C   0  0  0  0  0  0
  -24.6382  -11.6909   20.8739 C   0  0  0  0  0  0
  -23.9078  -10.4280   21.0407 C   0  0  0  0  0  0
  -24.3629   -9.4199   21.9181 C   0  0  0  0  0  0
  -23.6300   -8.2238   22.0758 C   0  0  0  0  0  0
  -22.4279   -8.0271   21.3556 C   0  0  0  0  0  0
  -21.9922   -9.0234   20.4657 C   0  0  0  0  0  0
  -22.7252  -10.2119   20.3058 C   0  0  0  0  0  0
  -21.6855   -6.0742   22.5280 C   0  0  0  0  0  0
  -21.4015   -6.5649   23.8214 C   0  0  0  0  0  0
  -21.3661   -5.6799   24.9176 C   0  0  0  0  0  0
  -21.6047   -4.3060   24.7231 C   0  0  0  0  0  0
  -21.8819   -3.8154   23.4347 C   0  0  0  0  0  0
  -21.9194   -4.6970   22.3404 C   0  0  0  0  0  0
  -22.7816  -13.5204   21.1887 C   0  0  0  0  0  0
  -22.1655   -4.2152   21.0981 F   0  0  0  0  0  0
  -21.5635   -3.4549   25.7748 F   0  0  0  0  0  0
  -29.9834  -13.5063   20.3913 N   0  0  0  0  0  0
  -26.2913  -12.9388   20.3281 N   0  0  0  0  0  0
  -25.9315  -11.6530   20.5761 N   0  0  0  0  0  0
  -22.0472  -12.8170   22.0436 N   0  0  0  0  0  0
  -25.4145  -15.1918   20.4091 N   0  0  0  0  0  0
  -31.8141  -14.8037   20.1460 O   0  0  0  0  0  0
  -21.6639   -6.8870   21.4239 O   0  0  0  0  0  0
  -22.3492  -14.5513   20.6743 O   0  0  0  0  0  0
  -24.6360  -31.8511   23.1945 C   0  0  0  0  0  0
  -25.9166  -32.4716   23.8290 C   0  0  1  0  0  0
  -27.2156  -27.2621   20.1025 C   0  0  0  0  0  0
  -25.5931  -33.8520   24.2210 N   0  0  0  0  0  0
  -23.4290  -30.4752   21.5415 C   0  0  2  0  0  0
  -24.8695  -28.9257   20.1007 C   0  0  0  0  0  0
  -22.7509  -29.4567   22.4923 C   0  0  0  0  0  0
  -18.0253  -28.1389   22.8481 C   0  0  0  0  0  0
  -24.1483  -36.7316   23.2639 C   0  0  0  0  0  0
  -25.9742  -30.7676   21.3686 C   0  0  0  0  0  0
  -26.0419  -29.3916   20.7059 C   0  0  0  0  0  0
  -27.2136  -28.5715   20.6957 C   0  0  0  0  0  0
  -26.0120  -26.8560   19.4827 C   0  0  0  0  0  0
  -24.8595  -27.6670   19.4825 C   0  0  0  0  0  0
  -23.6393  -29.8118   20.1551 C   0  0  0  0  0  0
  -25.4107  -36.3071   24.0325 C   0  0  1  0  0  0
  -20.5873  -28.3687   23.1312 C   0  0  2  0  0  0
  -20.6776  -26.9414   22.5433 C   0  0  0  0  0  0
  -19.5752  -26.6381   21.5245 C   0  0  0  0  0  0
  -18.1910  -26.7926   22.1628 C   0  0  0  0  0  0
  -19.1510  -28.8860   23.2875 C   0  0  0  0  0  0
  -18.9435  -30.1451   23.8912 C   0  0  0  0  0  0
  -17.6443  -30.6599   24.0563 C   0  0  0  0  0  0
  -25.9060  -34.9436   23.5094 C   0  0  0  0  0  0
  -16.5332  -29.9101   23.6346 C   0  0  0  0  0  0
  -16.7241  -28.6512   23.0377 C   0  0  0  0  0  0
  -26.4490  -31.6543   25.0706 C   0  0  0  0  0  0
  -25.3687  -31.3744   26.1421 C   0  0  0  0  0  0
  -27.0323  -30.2943   24.6213 C   0  0  0  0  0  0
  -27.6022  -32.4309   25.7485 C   0  0  0  0  0  0
  -27.5582  -37.1801   24.8455 C   0  0  0  0  0  0
  -21.4207  -29.3027   22.3701 N   0  0  0  0  0  0
  -26.4284  -37.3772   23.9421 N   0  0  0  0  0  0
  -24.6994  -31.0489   22.0914 N   0  0  0  0  0  0
  -23.4208  -28.8096   23.3011 O   0  0  0  0  0  0
  -28.3446  -26.4157   20.1603 O   0  0  0  0  0  0
  -26.5659  -34.8919   22.4682 O   0  0  0  0  0  0
  -23.5520  -32.1324   23.7272 O   0  0  0  0  0  0
  -31.2038  -21.9710   20.2642 C   0  0  0  0  0  0
  -32.1093  -20.9583   19.8185 C   0  0  0  0  0  0
  -29.9426  -21.3997   20.2013 C   0  0  0  0  0  0
  -27.7897  -21.9052   18.9454 C   0  0  0  0  0  0
  -31.5066  -24.5141   24.5248 C   0  0  0  0  0  0
  -33.0030  -25.3878   22.6964 C   0  0  0  0  0  0
  -34.4097  -21.0246   20.8392 C   0  0  0  0  0  0
  -34.0068  -22.1625   18.6064 C   0  0  0  0  0  0
  -34.0469  -19.7128   18.7364 C   0  0  0  0  0  0
  -31.5827  -23.3419   20.7737 C   0  0  0  0  0  0
  -31.5478  -23.3212   22.3142 C   0  0  0  0  0  0
  -28.4022  -23.7430   20.6697 C   0  0  0  0  0  0
  -29.4427  -18.6488   20.2440 C   0  0  0  0  0  0
  -30.3766  -17.3082   20.3649 C   0  0  0  0  0  0
  -28.3927  -24.9989   19.6519 C   0  0  0  0  0  0
  -28.5653  -22.1615   20.2465 C   0  0  2  0  0  0
  -31.6727  -24.6874   23.0079 C   0  0  0  0  0  0
  -33.6176  -20.9789   19.5217 C   0  0  0  0  0  0
  -31.5047  -19.7908   19.8313 N   0  0  0  0  0  0
  -30.2010  -19.9714   20.1213 N   0  0  0  0  0  0
  -29.8572  -15.8813   20.5475 N   0  0  0  0  0  0
  -31.4665  -12.5376   19.1765 H   0  0  0  0  0  0
  -30.3425  -11.4587   19.9594 H   0  0  0  0  0  0
  -29.7857  -11.7327   17.5084 H   0  0  0  0  0  0
  -29.6306  -13.4574   17.7263 H   0  0  0  0  0  0
  -27.8907  -11.2738   18.9153 H   0  0  0  0  0  0
  -27.3721  -12.5062   17.7988 H   0  0  0  0  0  0
  -27.6268  -14.2477   19.4576 H   0  0  0  0  0  0
  -28.7093  -12.1805   21.4337 H   0  0  0  0  0  0
  -28.4243  -13.8687   21.7791 H   0  0  0  0  0  0
  -25.2772   -9.5686   22.4767 H   0  0  0  0  0  0
  -24.0024   -7.4633   22.7469 H   0  0  0  0  0  0
  -21.0870   -8.8741   19.8947 H   0  0  0  0  0  0
  -22.3701  -10.9652   19.6177 H   0  0  0  0  0  0
  -21.1996   -7.6158   23.9719 H   0  0  0  0  0  0
  -21.1489   -6.0535   25.9084 H   0  0  0  0  0  0
  -22.0599   -2.7615   23.2852 H   0  0  0  0  0  0
  -22.4113  -11.9825   22.4793 H   0  0  0  0  0  0
  -21.1104  -13.1175   22.2684 H   0  0  0  0  0  0
  -24.6338  -15.8343   20.4993 H   0  0  0  0  0  0
  -26.2570  -15.6374   20.0698 H   0  0  0  0  0  0
  -26.7240  -32.5354   23.1027 H   0  0  0  0  0  0
  -25.0009  -33.9607   25.0311 H   0  0  0  0  0  0
  -22.7291  -31.3009   21.3994 H   0  0  0  0  0  0
  -23.3742  -35.9642   23.3264 H   0  0  0  0  0  0
  -24.3585  -36.9009   22.2066 H   0  0  0  0  0  0
  -23.7219  -37.6506   23.6684 H   0  0  0  0  0  0
  -26.1126  -31.5314   20.6005 H   0  0  0  0  0  0
  -26.8530  -30.8114   21.9989 H   0  0  0  0  0  0
  -28.1175  -28.9192   21.1769 H   0  0  0  0  0  0
  -25.9120  -25.8961   19.0046 H   0  0  0  0  0  0
  -23.9582  -27.3035   19.0085 H   0  0  0  0  0  0
  -23.7479  -30.5886   19.3971 H   0  0  0  0  0  0
  -22.7579  -29.2406   19.8590 H   0  0  0  0  0  0
  -25.1262  -36.1926   25.0811 H   0  0  0  0  0  0
  -20.9910  -28.3255   24.1451 H   0  0  0  0  0  0
  -20.5751  -26.2263   23.3610 H   0  0  0  0  0  0
  -21.6637  -26.7484   22.1182 H   0  0  0  0  0  0
  -19.6940  -25.6292   21.1274 H   0  0  0  0  0  0
  -19.6736  -27.3195   20.6794 H   0  0  0  0  0  0
  -17.4197  -26.6680   21.4001 H   0  0  0  0  0  0
  -18.0273  -26.0055   22.9019 H   0  0  0  0  0  0
  -19.7916  -30.7245   24.2304 H   0  0  0  0  0  0
  -17.4998  -31.6277   24.5151 H   0  0  0  0  0  0
  -15.5333  -30.3019   23.7660 H   0  0  0  0  0  0
  -15.8622  -28.0830   22.7143 H   0  0  0  0  0  0
  -24.5841  -30.7091   25.7776 H   0  0  0  0  0  0
  -24.8882  -32.2940   26.4792 H   0  0  0  0  0  0
  -25.7968  -30.8965   27.0242 H   0  0  0  0  0  0
  -26.2901  -29.6701   24.1202 H   0  0  0  0  0  0
  -27.3954  -29.7197   25.4750 H   0  0  0  0  0  0
  -27.8799  -30.4203   23.9464 H   0  0  0  0  0  0
  -27.2576  -33.3621   26.1999 H   0  0  0  0  0  0
  -28.3829  -32.6864   25.0303 H   0  0  0  0  0  0
  -28.0649  -31.8480   26.5461 H   0  0  0  0  0  0
  -28.2558  -38.0133   24.7550 H   0  0  0  0  0  0
  -28.1116  -36.2679   24.6189 H   0  0  0  0  0  0
  -27.2340  -37.1372   25.8865 H   0  0  0  0  0  0
  -20.9398  -29.8754   21.6903 H   0  0  0  0  0  0
  -26.0187  -38.2859   24.1401 H   0  0  0  0  0  0
  -27.7194  -20.8367   18.7335 H   0  0  0  0  0  0
  -28.2899  -22.3775   18.0993 H   0  0  0  0  0  0
  -26.7726  -22.2943   19.0010 H   0  0  0  0  0  0
  -31.5633  -25.4702   25.0465 H   0  0  0  0  0  0
  -32.2821  -23.8670   24.9349 H   0  0  0  0  0  0
  -30.5413  -24.0676   24.7673 H   0  0  0  0  0  0
  -33.0923  -26.3222   23.2522 H   0  0  0  0  0  0
  -33.0854  -25.6371   21.6394 H   0  0  0  0  0  0
  -33.8546  -24.7611   22.9603 H   0  0  0  0  0  0
  -34.2010  -21.9329   21.4030 H   0  0  0  0  0  0
  -35.4841  -20.9988   20.6562 H   0  0  0  0  0  0
  -34.1624  -20.1754   21.4781 H   0  0  0  0  0  0
  -33.9437  -23.1361   19.0805 H   0  0  0  0  0  0
  -33.3841  -22.1864   17.7115 H   0  0  0  0  0  0
  -35.0420  -22.0745   18.2747 H   0  0  0  0  0  0
  -33.8655  -18.7951   19.2967 H   0  0  0  0  0  0
  -35.1108  -19.7270   18.4973 H   0  0  0  0  0  0
  -33.5073  -19.6304   17.7928 H   0  0  0  0  0  0
  -30.9643  -24.1302   20.3597 H   0  0  0  0  0  0
  -32.5846  -23.6299   20.4919 H   0  0  0  0  0  0
  -32.3291  -22.6540   22.6791 H   0  0  0  0  0  0
  -30.6129  -22.8645   22.6397 H   0  0  0  0  0  0
  -27.4074  -23.8029   21.1090 H   0  0  0  0  0  0
  -29.0395  -23.9671   21.5185 H   0  0  0  0  0  0
  -28.7918  -18.7207   21.1151 H   0  0  0  0  0  0
  -28.7862  -18.5607   19.3773 H   0  0  0  0  0  0
  -31.0784  -17.4723   21.1846 H   0  0  0  0  0  0
  -30.9868  -17.2723   19.4599 H   0  0  0  0  0  0
  -27.6476  -24.8215   18.8827 H   0  0  0  0  0  0
  -29.3209  -24.9490   19.0851 H   0  0  0  0  0  0
  -28.0050  -21.6337   21.0195 H   0  0  0  0  0  0
  -30.8621  -25.3255   22.6557 H   0  0  0  0  0  0
  -28.8740  -15.7600   20.7334 H   0  0  0  0  0  0
  1 25  1  0  0  0
  1 30  2  0  0  0
  1 91  1  0  0  0
  2  3  1  0  0  0
  2 25  1  0  0  0
  2 92  1  0  0  0
  2 93  1  0  0  0
  3  4  1  0  0  0
  3 94  1  0  0  0
  3 95  1  0  0  0
  4  5  1  0  0  0
  4 96  1  0  0  0
  4 97  1  0  0  0
  5  6  1  0  0  0
  5 26  1  0  0  0
  5 98  1  0  0  0
  6 25  1  0  0  0
  6 99  1  0  0  0
  6100  1  0  0  0
  7  8  2  0  0  0
  7 26  1  0  0  0
  7 29  1  0  0  0
  8  9  1  0  0  0
  8 22  1  0  0  0
  9 10  1  0  0  0
  9 27  2  0  0  0
 10 11  2  0  0  0
 10 15  1  0  0  0
 11 12  1  0  0  0
 11101  1  0  0  0
 12 13  2  0  0  0
 12102  1  0  0  0
 13 14  1  0  0  0
 13 31  1  0  0  0
 14 15  2  0  0  0
 14103  1  0  0  0
 15104  1  0  0  0
 16 17  2  0  0  0
 16 21  1  0  0  0
 16 31  1  0  0  0
 17 18  1  0  0  0
 17105  1  0  0  0
 18 19  2  0  0  0
 18106  1  0  0  0
 19 20  1  0  0  0
 19 24  1  0  0  0
 20 21  2  0  0  0
 20107  1  0  0  0
 21 23  1  0  0  0
 22 28  1  0  0  0
 22 32  2  0  0  0
 26 27  1  0  0  0
 28108  1  0  0  0
 28109  1  0  0  0
 29110  1  0  0  0
 29111  1  0  0  0
 33 34  1  0  0  0
 33 66  1  0  0  0
 33 70  2  0  0  0
 34 36  1  0  0  0
 34 59  1  0  0  0
 34112  1  0  0  0
 35 44  2  0  0  0
 35 45  1  0  0  0
 35 68  1  0  0  0
 36 56  1  0  0  0
 36113  1  0  0  0
 37 39  1  0  0  0
 37 47  1  0  0  0
 37 66  1  0  0  0
 37114  1  0  0  0
 38 43  2  0  0  0
 38 46  1  0  0  0
 38 47  1  0  0  0
 39 64  1  0  0  0
 39 67  2  0  0  0
 40 52  1  0  0  0
 40 53  2  0  0  0
 40 58  1  0  0  0
 41115  1  0  0  0
 41116  1  0  0  0
 41117  1  0  0  0
 41 48  1  0  0  0
 42 43  1  0  0  0
 42 66  1  0  0  0
 42118  1  0  0  0
 42119  1  0  0  0
 43 44  1  0  0  0
 44120  1  0  0  0
 45 46  2  0  0  0
 45121  1  0  0  0
 46122  1  0  0  0
 47123  1  0  0  0
 47124  1  0  0  0
 48 56  1  0  0  0
 48 65  1  0  0  0
 48125  1  0  0  0
 49 50  1  0  0  0
 49 53  1  0  0  0
 49 64  1  0  0  0
 49126  1  0  0  0
 50 51  1  0  0  0
 50127  1  0  0  0
 50128  1  0  0  0
 51 52  1  0  0  0
 51129  1  0  0  0
 51130  1  0  0  0
 52131  1  0  0  0
 52132  1  0  0  0
 53 54  1  0  0  0
 54 55  2  0  0  0
 54133  1  0  0  0
 55 57  1  0  0  0
 55134  1  0  0  0
 56 69  2  0  0  0
 57 58  2  0  0  0
 57135  1  0  0  0
 58136  1  0  0  0
 59 60  1  0  0  0
 59 61  1  0  0  0
 59 62  1  0  0  0
 60137  1  0  0  0
 60138  1  0  0  0
 60139  1  0  0  0
 61140  1  0  0  0
 61141  1  0  0  0
 61142  1  0  0  0
 62143  1  0  0  0
 62144  1  0  0  0
 62145  1  0  0  0
 63 65  1  0  0  0
 63146  1  0  0  0
 63147  1  0  0  0
 63148  1  0  0  0
 64149  1  0  0  0
 65150  1  0  0  0
 68 85  1  0  0  0
 71 72  1  0  0  0
 71 73  2  0  0  0
 71 80  1  0  0  0
 72 88  1  0  0  0
 72 89  2  0  0  0
 73 86  1  0  0  0
 73 90  1  0  0  0
 74151  1  0  0  0
 74152  1  0  0  0
 74153  1  0  0  0
 74 86  1  0  0  0
 75154  1  0  0  0
 75155  1  0  0  0
 75156  1  0  0  0
 75 87  1  0  0  0
 76 87  1  0  0  0
 76157  1  0  0  0
 76158  1  0  0  0
 76159  1  0  0  0
 77160  1  0  0  0
 77161  1  0  0  0
 77162  1  0  0  0
 77 88  1  0  0  0
 78 88  1  0  0  0
 78163  1  0  0  0
 78164  1  0  0  0
 78165  1  0  0  0
 79 88  1  0  0  0
 79166  1  0  0  0
 79167  1  0  0  0
 79168  1  0  0  0
 80 81  1  0  0  0
 80169  1  0  0  0
 80170  1  0  0  0
 81 87  1  0  0  0
 81171  1  0  0  0
 81172  1  0  0  0
 82 85  1  0  0  0
 82 86  1  0  0  0
 82173  1  0  0  0
 82174  1  0  0  0
 83 84  1  0  0  0
 83 90  1  0  0  0
 83175  1  0  0  0
 83176  1  0  0  0
 84 91  1  0  0  0
 84177  1  0  0  0
 84178  1  0  0  0
 85179  1  0  0  0
 85180  1  0  0  0
 86181  1  0  0  0
 87182  1  0  0  0
 89 90  1  0  0  0
 91183  1  0  0  0
M  ISO  4   1 100  68 101  85 101  91 100
M  END
> <chiral flag>
0

> <version>
0

> <s_m_source_file>
/data/baiqing/PycharmProjects/Reinvent-master-3.2/result/LINK_invent/BTK/process_docking_weight1_custom_sum_contain_oxygen_bond_distance_aromatic_linkinvent_7_9_3/rearranged_h_0098.sdf

> <i_m_source_file_index>
22

> <r_mmod_Potential_Energy-OPLS-2005>
193.31526184082

> <r_mmod_Stretch_Energy-OPLS-2005>
139.203796386719

> <r_mmod_Bend_Energy-OPLS-2005>
228.669326782227

> <r_mmod_Torsional_Energy-OPLS-2005>
247.233047485352

> <r_mmod_Improper_Torsional_Energy-OPLS-2005>
6.0457706451416

> <r_mmod_Van_der_Waal_Energy-OPLS-2005>
122.845069885254

> <r_mmod_Electrostatic_Energy-OPLS-2005>
-422.812530517578

> <r_mmod_Solvation_Energy-OPLS-2005>
-207.289749145508

> <b_mmod_Minimization_Converged-OPLS-2005>
0

> <r_mmod_RMS_Derivative-OPLS-2005>
3.38323068618774

$$$$
23
                    3D
 Structure written by MMmdl.
166174  0  0  1  0            999 V2000
  -30.6095  -14.7096   20.4310 C   0  0  0  0  0  0
  -30.4354  -12.4249   19.4756 C   0  0  0  0  0  0
  -29.5136  -12.5023   18.2377 C   0  0  0  0  0  0
  -28.0373  -12.3394   18.6423 C   0  0  0  0  0  0
  -27.6447  -13.2292   19.8503 C   0  0  2  0  0  0
  -28.6884  -13.1410   20.9884 C   0  0  0  0  0  0
  -25.2508  -13.8210   20.5673 C   0  0  0  0  0  0
  -24.1799  -13.0459   20.9193 C   0  0  0  0  0  0
  -24.6373  -11.6936   20.8704 C   0  0  0  0  0  0
  -23.9054  -10.4306   21.0357 C   0  0  0  0  0  0
  -24.3604   -9.4246   21.9149 C   0  0  0  0  0  0
  -23.6287   -8.2274   22.0745 C   0  0  0  0  0  0
  -22.4266   -8.0274   21.3534 C   0  0  0  0  0  0
  -21.9887   -9.0248   20.4639 C   0  0  0  0  0  0
  -22.7215  -10.2129   20.3027 C   0  0  0  0  0  0
  -21.6873   -6.0703   22.5257 C   0  0  0  0  0  0
  -21.4045   -6.5616   23.8192 C   0  0  0  0  0  0
  -21.3671   -5.6770   24.9156 C   0  0  0  0  0  0
  -21.6046   -4.3038   24.7207 C   0  0  0  0  0  0
  -21.8840   -3.8115   23.4340 C   0  0  0  0  0  0
  -21.9207   -4.6928   22.3387 C   0  0  0  0  0  0
  -22.7805  -13.5226   21.1843 C   0  0  0  0  0  0
  -22.1663   -4.2111   21.0965 F   0  0  0  0  0  0
  -21.5638   -3.4529   25.7726 F   0  0  0  0  0  0
  -30.0018  -13.4774   20.4200 N   0  0  0  0  0  0
  -26.2934  -12.9411   20.3238 N   0  0  0  0  0  0
  -25.9308  -11.6564   20.5703 N   0  0  0  0  0  0
  -22.0464  -12.8213   22.0412 N   0  0  0  0  0  0
  -25.4217  -15.1930   20.4092 N   0  0  0  0  0  0
  -31.7805  -14.8330   20.0596 O   0  0  0  0  0  0
  -21.6662   -6.8845   21.4221 O   0  0  0  0  0  0
  -22.3467  -14.5496   20.6648 O   0  0  0  0  0  0
  -24.6234  -31.8591   23.2015 C   0  0  0  0  0  0
  -25.9055  -32.4794   23.8347 C   0  0  1  0  0  0
  -27.2188  -27.2936   20.1127 C   0  0  0  0  0  0
  -25.5869  -33.8597   24.2270 N   0  0  0  0  0  0
  -23.4194  -30.4843   21.5455 C   0  0  2  0  0  0
  -24.8667  -28.9421   20.1094 C   0  0  0  0  0  0
  -22.7451  -29.4611   22.4910 C   0  0  0  0  0  0
  -18.0276  -28.1394   22.8472 C   0  0  0  0  0  0
  -24.1490  -36.7333   23.2635 C   0  0  0  0  0  0
  -25.9644  -30.7812   21.3786 C   0  0  0  0  0  0
  -26.0387  -29.4079   20.7193 C   0  0  0  0  0  0
  -27.2169  -28.5957   20.7124 C   0  0  0  0  0  0
  -26.0220  -26.8978   19.4678 C   0  0  0  0  0  0
  -24.8630  -27.6932   19.4741 C   0  0  0  0  0  0
  -23.6363  -29.8242   20.1603 C   0  0  0  0  0  0
  -25.4108  -36.3113   24.0329 C   0  0  1  0  0  0
  -20.5872  -28.3689   23.1284 C   0  0  2  0  0  0
  -20.6770  -26.9409   22.5407 C   0  0  0  0  0  0
  -19.5756  -26.6379   21.5201 C   0  0  0  0  0  0
  -18.1940  -26.7932   22.1613 C   0  0  0  0  0  0
  -19.1527  -28.8852   23.2893 C   0  0  0  0  0  0
  -18.9452  -30.1454   23.8899 C   0  0  0  0  0  0
  -17.6460  -30.6597   24.0558 C   0  0  0  0  0  0
  -25.9040  -34.9472   23.5120 C   0  0  0  0  0  0
  -16.5349  -29.9099   23.6323 C   0  0  0  0  0  0
  -16.7264  -28.6519   23.0334 C   0  0  0  0  0  0
  -26.4399  -31.6615   25.0736 C   0  0  0  0  0  0
  -25.3587  -31.3820   26.1444 C   0  0  0  0  0  0
  -27.0205  -30.3016   24.6214 C   0  0  0  0  0  0
  -27.5975  -32.4318   25.7520 C   0  0  0  0  0  0
  -27.5594  -37.1823   24.8442 C   0  0  0  0  0  0
  -21.4155  -29.3053   22.3667 N   0  0  0  0  0  0
  -26.4297  -37.3793   23.9405 N   0  0  0  0  0  0
  -24.6883  -31.0572   22.0999 N   0  0  0  0  0  0
  -23.4175  -28.8145   23.2986 O   0  0  0  0  0  0
  -28.3175  -26.4042   20.1710 O   0  0  0  0  0  0
  -26.5634  -34.8924   22.4701 O   0  0  0  0  0  0
  -23.5390  -32.1410   23.7321 O   0  0  0  0  0  0
  -29.1241  -19.6520   19.8926 C   0  0  0  0  0  0
  -29.4499  -20.9859   20.3094 C   0  0  0  0  0  0
  -29.9197  -18.5395   20.3314 C   0  0  0  0  0  0
  -31.2199  -20.0637   21.4651 C   0  0  0  0  0  0
  -31.0551  -22.4871   25.2500 C   0  0  0  0  0  0
  -33.3722  -22.7616   24.2538 C   0  0  0  0  0  0
  -28.6190  -22.2748   19.9134 C   0  0  0  0  0  0
  -29.8312  -17.0761   19.7429 C   0  0  0  0  0  0
  -32.4319  -20.2938   22.3494 C   0  0  0  0  0  0
  -29.0769  -23.7715   20.3065 C   0  0  0  0  0  0
  -32.0537  -20.6277   23.8048 C   0  0  0  0  0  0
  -28.0711  -24.9543   19.8976 C   0  0  0  0  0  0
  -31.9725  -22.1485   24.0654 C   0  0  0  0  0  0
  -30.5288  -21.1472   21.0963 N   0  0  0  0  0  0
  -30.9567  -18.7927   21.1472 N   0  0  0  0  0  0
  -29.8055  -15.8143   20.5830 N   0  0  0  0  0  0
  -31.4773  -12.5433   19.1750 H   0  0  0  0  0  0
  -30.3682  -11.4447   19.9511 H   0  0  0  0  0  0
  -29.7888  -11.7316   17.5175 H   0  0  0  0  0  0
  -29.6561  -13.4580   17.7324 H   0  0  0  0  0  0
  -27.8824  -11.2896   18.8920 H   0  0  0  0  0  0
  -27.3874  -12.5492   17.7917 H   0  0  0  0  0  0
  -27.6444  -14.2554   19.4844 H   0  0  0  0  0  0
  -28.7094  -12.1359   21.4104 H   0  0  0  0  0  0
  -28.4241  -13.8143   21.8040 H   0  0  0  0  0  0
  -25.2772   -9.5733   22.4706 H   0  0  0  0  0  0
  -24.0018   -7.4672   22.7466 H   0  0  0  0  0  0
  -21.0833   -8.8747   19.8936 H   0  0  0  0  0  0
  -22.3663  -10.9648   19.6116 H   0  0  0  0  0  0
  -21.2030   -7.6121   23.9674 H   0  0  0  0  0  0
  -21.1482   -6.0505   25.9062 H   0  0  0  0  0  0
  -22.0594   -2.7570   23.2849 H   0  0  0  0  0  0
  -22.4123  -11.9924   22.4862 H   0  0  0  0  0  0
  -21.1033  -13.1189   22.2543 H   0  0  0  0  0  0
  -24.6568  -15.8494   20.5315 H   0  0  0  0  0  0
  -26.2582  -15.6298   20.0471 H   0  0  0  0  0  0
  -26.7120  -32.5427   23.1101 H   0  0  0  0  0  0
  -24.9906  -33.9727   25.0337 H   0  0  0  0  0  0
  -22.7133  -31.3051   21.4043 H   0  0  0  0  0  0
  -23.3749  -35.9669   23.3267 H   0  0  0  0  0  0
  -24.3588  -36.8980   22.2056 H   0  0  0  0  0  0
  -23.7234  -37.6526   23.6669 H   0  0  0  0  0  0
  -26.0879  -31.5402   20.6053 H   0  0  0  0  0  0
  -26.8457  -30.8360   22.0052 H   0  0  0  0  0  0
  -28.1108  -28.9517   21.2060 H   0  0  0  0  0  0
  -25.9396  -25.9479   18.9617 H   0  0  0  0  0  0
  -23.9678  -27.3299   18.9870 H   0  0  0  0  0  0
  -23.7548  -30.6040   19.4065 H   0  0  0  0  0  0
  -22.7550  -29.2539   19.8582 H   0  0  0  0  0  0
  -25.1288  -36.1983   25.0821 H   0  0  0  0  0  0
  -20.9966  -28.3261   24.1405 H   0  0  0  0  0  0
  -20.5666  -26.2287   23.3597 H   0  0  0  0  0  0
  -21.6652  -26.7442   22.1208 H   0  0  0  0  0  0
  -19.6930  -25.6273   21.1260 H   0  0  0  0  0  0
  -19.6735  -27.3152   20.6705 H   0  0  0  0  0  0
  -17.4208  -26.6644   21.4026 H   0  0  0  0  0  0
  -18.0384  -26.0086   22.9026 H   0  0  0  0  0  0
  -19.7936  -30.7275   24.2273 H   0  0  0  0  0  0
  -17.5019  -31.6280   24.5159 H   0  0  0  0  0  0
  -15.5356  -30.3020   23.7640 H   0  0  0  0  0  0
  -15.8662  -28.0859   22.7036 H   0  0  0  0  0  0
  -24.5751  -30.7187   25.7766 H   0  0  0  0  0  0
  -24.8767  -32.3019   26.4777 H   0  0  0  0  0  0
  -25.7831  -30.9042   27.0280 H   0  0  0  0  0  0
  -26.2795  -29.6861   24.1103 H   0  0  0  0  0  0
  -27.3719  -29.7199   25.4745 H   0  0  0  0  0  0
  -27.8750  -30.4288   23.9566 H   0  0  0  0  0  0
  -27.2600  -33.3619   26.2119 H   0  0  0  0  0  0
  -28.3788  -32.6870   25.0348 H   0  0  0  0  0  0
  -28.0634  -31.8410   26.5422 H   0  0  0  0  0  0
  -28.2578  -38.0154   24.7507 H   0  0  0  0  0  0
  -28.1128  -36.2676   24.6243 H   0  0  0  0  0  0
  -27.2314  -37.1444   25.8845 H   0  0  0  0  0  0
  -20.9302  -29.8812   21.6926 H   0  0  0  0  0  0
  -26.0191  -38.2874   24.1407 H   0  0  0  0  0  0
  -28.2957  -19.4941   19.2142 H   0  0  0  0  0  0
  -30.9301  -23.5667   25.3417 H   0  0  0  0  0  0
  -31.4503  -22.1160   26.1956 H   0  0  0  0  0  0
  -30.0597  -22.0613   25.1164 H   0  0  0  0  0  0
  -33.3216  -23.8496   24.3105 H   0  0  0  0  0  0
  -34.0406  -22.5142   23.4283 H   0  0  0  0  0  0
  -33.8444  -22.4036   25.1703 H   0  0  0  0  0  0
  -27.6159  -22.1198   20.3099 H   0  0  0  0  0  0
  -28.5019  -22.2455   18.8297 H   0  0  0  0  0  0
  -30.6523  -16.9900   19.0288 H   0  0  0  0  0  0
  -28.9358  -17.0428   19.1197 H   0  0  0  0  0  0
  -33.0578  -21.0677   21.9061 H   0  0  0  0  0  0
  -33.0410  -19.3902   22.3428 H   0  0  0  0  0  0
  -30.0489  -23.9634   19.8548 H   0  0  0  0  0  0
  -29.2408  -23.8108   21.3830 H   0  0  0  0  0  0
  -32.7993  -20.1933   24.4706 H   0  0  0  0  0  0
  -31.1137  -20.1278   24.0486 H   0  0  0  0  0  0
  -27.1218  -24.6858   20.3648 H   0  0  0  0  0  0
  -27.9119  -24.8697   18.8222 H   0  0  0  0  0  0
  -31.5201  -22.6146   23.1882 H   0  0  0  0  0  0
  -28.9088  -15.6308   21.0028 H   0  0  0  0  0  0
  1 25  1  0  0  0
  1 30  2  0  0  0
  1 86  1  0  0  0
  2  3  1  0  0  0
  2 25  1  0  0  0
  2 87  1  0  0  0
  2 88  1  0  0  0
  3  4  1  0  0  0
  3 89  1  0  0  0
  3 90  1  0  0  0
  4  5  1  0  0  0
  4 91  1  0  0  0
  4 92  1  0  0  0
  5  6  1  0  0  0
  5 26  1  0  0  0
  5 93  1  0  0  0
  6 25  1  0  0  0
  6 94  1  0  0  0
  6 95  1  0  0  0
  7  8  2  0  0  0
  7 26  1  0  0  0
  7 29  1  0  0  0
  8  9  1  0  0  0
  8 22  1  0  0  0
  9 10  1  0  0  0
  9 27  2  0  0  0
 10 11  2  0  0  0
 10 15  1  0  0  0
 11 12  1  0  0  0
 11 96  1  0  0  0
 12 13  2  0  0  0
 12 97  1  0  0  0
 13 14  1  0  0  0
 13 31  1  0  0  0
 14 15  2  0  0  0
 14 98  1  0  0  0
 15 99  1  0  0  0
 16 17  2  0  0  0
 16 21  1  0  0  0
 16 31  1  0  0  0
 17 18  1  0  0  0
 17100  1  0  0  0
 18 19  2  0  0  0
 18101  1  0  0  0
 19 20  1  0  0  0
 19 24  1  0  0  0
 20 21  2  0  0  0
 20102  1  0  0  0
 21 23  1  0  0  0
 22 28  1  0  0  0
 22 32  2  0  0  0
 26 27  1  0  0  0
 28103  1  0  0  0
 28104  1  0  0  0
 29105  1  0  0  0
 29106  1  0  0  0
 33 34  1  0  0  0
 33 66  1  0  0  0
 33 70  2  0  0  0
 34 36  1  0  0  0
 34 59  1  0  0  0
 34107  1  0  0  0
 35 44  2  0  0  0
 35 45  1  0  0  0
 35 68  1  0  0  0
 36 56  1  0  0  0
 36108  1  0  0  0
 37 39  1  0  0  0
 37 47  1  0  0  0
 37 66  1  0  0  0
 37109  1  0  0  0
 38 43  2  0  0  0
 38 46  1  0  0  0
 38 47  1  0  0  0
 39 64  1  0  0  0
 39 67  2  0  0  0
 40 52  1  0  0  0
 40 53  2  0  0  0
 40 58  1  0  0  0
 41110  1  0  0  0
 41111  1  0  0  0
 41112  1  0  0  0
 41 48  1  0  0  0
 42 43  1  0  0  0
 42 66  1  0  0  0
 42113  1  0  0  0
 42114  1  0  0  0
 43 44  1  0  0  0
 44115  1  0  0  0
 45 46  2  0  0  0
 45116  1  0  0  0
 46117  1  0  0  0
 47118  1  0  0  0
 47119  1  0  0  0
 48 56  1  0  0  0
 48 65  1  0  0  0
 48120  1  0  0  0
 49 50  1  0  0  0
 49 53  1  0  0  0
 49 64  1  0  0  0
 49121  1  0  0  0
 50 51  1  0  0  0
 50122  1  0  0  0
 50123  1  0  0  0
 51 52  1  0  0  0
 51124  1  0  0  0
 51125  1  0  0  0
 52126  1  0  0  0
 52127  1  0  0  0
 53 54  1  0  0  0
 54 55  2  0  0  0
 54128  1  0  0  0
 55 57  1  0  0  0
 55129  1  0  0  0
 56 69  2  0  0  0
 57 58  2  0  0  0
 57130  1  0  0  0
 58131  1  0  0  0
 59 60  1  0  0  0
 59 61  1  0  0  0
 59 62  1  0  0  0
 60132  1  0  0  0
 60133  1  0  0  0
 60134  1  0  0  0
 61135  1  0  0  0
 61136  1  0  0  0
 61137  1  0  0  0
 62138  1  0  0  0
 62139  1  0  0  0
 62140  1  0  0  0
 63 65  1  0  0  0
 63141  1  0  0  0
 63142  1  0  0  0
 63143  1  0  0  0
 64144  1  0  0  0
 65145  1  0  0  0
 68 82  1  0  0  0
 71 72  2  0  0  0
 71 73  1  0  0  0
 71146  1  0  0  0
 72 77  1  0  0  0
 72 84  1  0  0  0
 73 78  1  0  0  0
 73 85  2  0  0  0
 74 79  1  0  0  0
 74 84  2  0  0  0
 74 85  1  0  0  0
 75147  1  0  0  0
 75148  1  0  0  0
 75149  1  0  0  0
 75 83  1  0  0  0
 76 83  1  0  0  0
 76150  1  0  0  0
 76151  1  0  0  0
 76152  1  0  0  0
 77 80  1  0  0  0
 77153  1  0  0  0
 77154  1  0  0  0
 78 86  1  0  0  0
 78155  1  0  0  0
 78156  1  0  0  0
 79 81  1  0  0  0
 79157  1  0  0  0
 79158  1  0  0  0
 80 82  1  0  0  0
 80159  1  0  0  0
 80160  1  0  0  0
 81 83  1  0  0  0
 81161  1  0  0  0
 81162  1  0  0  0
 82163  1  0  0  0
 82164  1  0  0  0
 83165  1  0  0  0
 86166  1  0  0  0
M  ISO  4   1 100  68 101  82 101  86 100
M  END
> <chiral flag>
0

> <version>
0

> <s_m_source_file>
/data/baiqing/PycharmProjects/Reinvent-master-3.2/result/LINK_invent/BTK/process_docking_weight1_custom_sum_contain_oxygen_bond_distance_aromatic_linkinvent_7_9_3/rearranged_h_0098.sdf

> <i_m_source_file_index>
23

> <r_mmod_Potential_Energy-OPLS-2005>
-461.828643798828

> <r_mmod_Stretch_Energy-OPLS-2005>
95.3135604858398

> <r_mmod_Bend_Energy-OPLS-2005>
157.495758056641

> <r_mmod_Torsional_Energy-OPLS-2005>
230.191116333008

> <r_mmod_Improper_Torsional_Energy-OPLS-2005>
9.94474315643311

> <r_mmod_Van_der_Waal_Energy-OPLS-2005>
149.665451049805

> <r_mmod_Electrostatic_Energy-OPLS-2005>
-930.5146484375

> <r_mmod_Solvation_Energy-OPLS-2005>
-245.280456542969

> <b_mmod_Minimization_Converged-OPLS-2005>
0

> <r_mmod_RMS_Derivative-OPLS-2005>
3.6193323135376

$$$$
24
                    3D
 Structure written by MMmdl.
170177  0  0  1  0            999 V2000
  -30.6101  -14.7052   20.4758 C   0  0  0  0  0  0
  -30.4435  -12.4416   19.4475 C   0  0  0  0  0  0
  -29.5154  -12.5350   18.2160 C   0  0  0  0  0  0
  -28.0321  -12.3669   18.6133 C   0  0  0  0  0  0
  -27.6485  -13.2256   19.8491 C   0  0  2  0  0  0
  -28.6997  -13.1110   20.9748 C   0  0  0  0  0  0
  -25.2529  -13.8197   20.5643 C   0  0  0  0  0  0
  -24.1818  -13.0444   20.9169 C   0  0  0  0  0  0
  -24.6397  -11.6911   20.8713 C   0  0  0  0  0  0
  -23.9065  -10.4306   21.0350 C   0  0  0  0  0  0
  -24.3624   -9.4227   21.9135 C   0  0  0  0  0  0
  -23.6310   -8.2233   22.0713 C   0  0  0  0  0  0
  -22.4298   -8.0259   21.3505 C   0  0  0  0  0  0
  -21.9915   -9.0228   20.4617 C   0  0  0  0  0  0
  -22.7207  -10.2129   20.3015 C   0  0  0  0  0  0
  -21.6862   -6.0727   22.5284 C   0  0  0  0  0  0
  -21.4016   -6.5627   23.8221 C   0  0  0  0  0  0
  -21.3678   -5.6772   24.9174 C   0  0  0  0  0  0
  -21.6054   -4.3046   24.7212 C   0  0  0  0  0  0
  -21.8829   -3.8128   23.4338 C   0  0  0  0  0  0
  -21.9211   -4.6949   22.3397 C   0  0  0  0  0  0
  -22.7850  -13.5229   21.1840 C   0  0  0  0  0  0
  -22.1655   -4.2120   21.0977 F   0  0  0  0  0  0
  -21.5641   -3.4536   25.7735 F   0  0  0  0  0  0
  -30.0033  -13.4732   20.4040 N   0  0  0  0  0  0
  -26.2962  -12.9389   20.3232 N   0  0  0  0  0  0
  -25.9329  -11.6535   20.5680 N   0  0  0  0  0  0
  -22.0502  -12.8225   22.0424 N   0  0  0  0  0  0
  -25.4230  -15.1908   20.4015 N   0  0  0  0  0  0
  -31.7967  -14.8513   20.1805 O   0  0  0  0  0  0
  -21.6640   -6.8859   21.4235 O   0  0  0  0  0  0
  -22.3532  -14.5521   20.6652 O   0  0  0  0  0  0
  -24.6286  -31.8581   23.1954 C   0  0  0  0  0  0
  -25.9124  -32.4766   23.8299 C   0  0  1  0  0  0
  -27.2232  -27.2741   20.1138 C   0  0  0  0  0  0
  -25.5916  -33.8566   24.2223 N   0  0  0  0  0  0
  -23.4256  -30.4813   21.5418 C   0  0  2  0  0  0
  -24.8707  -28.9296   20.1100 C   0  0  0  0  0  0
  -22.7484  -29.4635   22.4912 C   0  0  0  0  0  0
  -18.0289  -28.1405   22.8484 C   0  0  0  0  0  0
  -24.1494  -36.7291   23.2637 C   0  0  0  0  0  0
  -25.9721  -30.7702   21.3764 C   0  0  0  0  0  0
  -26.0437  -29.3954   20.7161 C   0  0  0  0  0  0
  -27.2214  -28.5818   20.7075 C   0  0  0  0  0  0
  -26.0242  -26.8784   19.4741 C   0  0  0  0  0  0
  -24.8657  -27.6776   19.4793 C   0  0  0  0  0  0
  -23.6419  -29.8151   20.1582 C   0  0  0  0  0  0
  -25.4123  -36.3084   24.0320 C   0  0  1  0  0  0
  -20.5887  -28.3727   23.1264 C   0  0  2  0  0  0
  -20.6785  -26.9441   22.5413 C   0  0  0  0  0  0
  -19.5769  -26.6392   21.5219 C   0  0  0  0  0  0
  -18.1942  -26.7949   22.1620 C   0  0  0  0  0  0
  -19.1536  -28.8882   23.2877 C   0  0  0  0  0  0
  -18.9468  -30.1472   23.8902 C   0  0  0  0  0  0
  -17.6472  -30.6607   24.0568 C   0  0  0  0  0  0
  -25.9070  -34.9459   23.5075 C   0  0  0  0  0  0
  -16.5361  -29.9109   23.6329 C   0  0  0  0  0  0
  -16.7272  -28.6529   23.0351 C   0  0  0  0  0  0
  -26.4461  -31.6596   25.0699 C   0  0  0  0  0  0
  -25.3640  -31.3802   26.1395 C   0  0  0  0  0  0
  -27.0270  -30.2986   24.6213 C   0  0  0  0  0  0
  -27.6016  -32.4332   25.7472 C   0  0  0  0  0  0
  -27.5592  -37.1801   24.8451 C   0  0  0  0  0  0
  -21.4196  -29.3068   22.3641 N   0  0  0  0  0  0
  -26.4300  -37.3782   23.9401 N   0  0  0  0  0  0
  -24.6954  -31.0540   22.0934 N   0  0  0  0  0  0
  -23.4192  -28.8185   23.3007 O   0  0  0  0  0  0
  -28.3210  -26.3827   20.1791 O   0  0  0  0  0  0
  -26.5669  -34.8935   22.4665 O   0  0  0  0  0  0
  -23.5452  -32.1402   23.7271 O   0  0  0  0  0  0
  -28.7672  -18.0121   17.0631 C   0  0  0  0  0  0
  -31.7754  -19.3076   17.8459 C   0  0  0  0  0  0
  -30.5240  -24.1799   19.7907 C   0  0  0  0  0  0
  -30.7695  -21.0613   20.9114 C   0  0  0  0  0  0
  -29.2353  -17.3811   18.3924 C   0  0  0  0  0  0
  -31.4266  -18.4688   19.0951 C   0  0  0  0  0  0
  -29.9439  -17.2923   20.7970 C   0  0  0  0  0  0
  -28.7647  -22.2526   19.8234 C   0  0  0  0  0  0
  -29.0796  -19.6800   19.5819 C   0  0  0  0  0  0
  -28.0907  -24.9192   19.9251 C   0  0  0  0  0  0
  -29.1427  -23.7562   20.3281 C   0  0  2  0  0  0
  -29.9256  -18.2621   19.4982 C   0  0  0  0  0  0
  -29.7724  -15.7753   20.6821 N   0  0  0  0  0  0
  -29.3875  -20.9513   20.3996 N   0  3  1  0  0  0
  -31.4798  -12.5847   19.1404 H   0  0  0  0  0  0
  -30.3889  -11.4479   19.8988 H   0  0  0  0  0  0
  -29.8012  -11.7860   17.4778 H   0  0  0  0  0  0
  -29.6515  -13.5077   17.7357 H   0  0  0  0  0  0
  -27.8596  -11.3132   18.8230 H   0  0  0  0  0  0
  -27.3867  -12.6169   17.7674 H   0  0  0  0  0  0
  -27.6544  -14.2572   19.4997 H   0  0  0  0  0  0
  -28.7328  -12.0933   21.3668 H   0  0  0  0  0  0
  -28.4374  -13.7556   21.8152 H   0  0  0  0  0  0
  -25.2774   -9.5732   22.4696 H   0  0  0  0  0  0
  -24.0055   -7.4660   22.7442 H   0  0  0  0  0  0
  -21.0823   -8.8721   19.8963 H   0  0  0  0  0  0
  -22.3620  -10.9648   19.6121 H   0  0  0  0  0  0
  -21.1985   -7.6145   23.9715 H   0  0  0  0  0  0
  -21.1493   -6.0495   25.9084 H   0  0  0  0  0  0
  -22.0598   -2.7583   23.2842 H   0  0  0  0  0  0
  -22.4114  -11.9908   22.4884 H   0  0  0  0  0  0
  -21.1097  -13.1216   22.2581 H   0  0  0  0  0  0
  -24.6472  -15.8382   20.4945 H   0  0  0  0  0  0
  -26.2595  -15.6325   20.0482 H   0  0  0  0  0  0
  -26.7187  -32.5406   23.1045 H   0  0  0  0  0  0
  -24.9972  -33.9696   25.0305 H   0  0  0  0  0  0
  -22.7219  -31.3040   21.3971 H   0  0  0  0  0  0
  -23.3764  -35.9615   23.3290 H   0  0  0  0  0  0
  -24.3582  -36.8927   22.2050 H   0  0  0  0  0  0
  -23.7233  -37.6486   23.6666 H   0  0  0  0  0  0
  -26.1141  -31.5311   20.6089 H   0  0  0  0  0  0
  -26.8486  -30.8144   22.0105 H   0  0  0  0  0  0
  -28.1190  -28.9353   21.1959 H   0  0  0  0  0  0
  -25.9464  -25.9259   18.9699 H   0  0  0  0  0  0
  -23.9677  -27.3169   18.9950 H   0  0  0  0  0  0
  -23.7638  -30.5916   19.4017 H   0  0  0  0  0  0
  -22.7586  -29.2497   19.8557 H   0  0  0  0  0  0
  -25.1310  -36.1930   25.0814 H   0  0  0  0  0  0
  -20.9993  -28.3322   24.1383 H   0  0  0  0  0  0
  -20.5683  -26.2342   23.3629 H   0  0  0  0  0  0
  -21.6654  -26.7470   22.1214 H   0  0  0  0  0  0
  -19.6930  -25.6297   21.1270 H   0  0  0  0  0  0
  -19.6708  -27.3179   20.6733 H   0  0  0  0  0  0
  -17.4212  -26.6690   21.4022 H   0  0  0  0  0  0
  -18.0342  -26.0093   22.9021 H   0  0  0  0  0  0
  -19.7941  -30.7279   24.2283 H   0  0  0  0  0  0
  -17.5029  -31.6284   24.5172 H   0  0  0  0  0  0
  -15.5362  -30.3025   23.7648 H   0  0  0  0  0  0
  -15.8672  -28.0853   22.7063 H   0  0  0  0  0  0
  -24.5838  -30.7122   25.7724 H   0  0  0  0  0  0
  -24.8785  -32.2989   26.4696 H   0  0  0  0  0  0
  -25.7897  -30.9064   27.0246 H   0  0  0  0  0  0
  -26.2850  -29.6782   24.1165 H   0  0  0  0  0  0
  -27.3829  -29.7215   25.4758 H   0  0  0  0  0  0
  -27.8790  -30.4216   23.9521 H   0  0  0  0  0  0
  -27.2625  -33.3648   26.2019 H   0  0  0  0  0  0
  -28.3834  -32.6873   25.0301 H   0  0  0  0  0  0
  -28.0666  -31.8468   26.5411 H   0  0  0  0  0  0
  -28.2603  -38.0109   24.7520 H   0  0  0  0  0  0
  -28.1100  -36.2641   24.6251 H   0  0  0  0  0  0
  -27.2315  -37.1417   25.8857 H   0  0  0  0  0  0
  -20.9377  -29.8772   21.6835 H   0  0  0  0  0  0
  -26.0186  -38.2862   24.1393 H   0  0  0  0  0  0
  -28.4617  -17.2356   16.3631 H   0  0  0  0  0  0
  -29.5317  -18.5911   16.5534 H   0  0  0  0  0  0
  -27.8985  -18.6573   17.1993 H   0  0  0  0  0  0
  -32.8307  -19.5832   17.8527 H   0  0  0  0  0  0
  -31.2088  -20.2343   17.7533 H   0  0  0  0  0  0
  -31.6367  -18.7211   16.9395 H   0  0  0  0  0  0
  -31.3209  -23.5086   20.0983 H   0  0  0  0  0  0
  -30.7968  -25.1731   20.1526 H   0  0  0  0  0  0
  -30.5267  -24.2145   18.7008 H   0  0  0  0  0  0
  -30.8640  -21.8874   21.6158 H   0  0  0  0  0  0
  -31.4918  -21.2024   20.1088 H   0  0  0  0  0  0
  -31.0410  -20.1685   21.4739 H   0  0  0  0  0  0
  -29.8992  -16.5535   18.1371 H   0  0  0  0  0  0
  -28.3449  -16.9130   18.8154 H   0  0  0  0  0  0
  -31.9795  -18.8925   19.9323 H   0  0  0  0  0  0
  -31.8884  -17.4901   18.9551 H   0  0  0  0  0  0
  -29.1051  -17.6058   21.4213 H   0  0  0  0  0  0
  -30.8233  -17.4949   21.4139 H   0  0  0  0  0  0
  -28.9175  -22.2464   18.7456 H   0  0  0  0  0  0
  -27.6855  -22.1322   19.9475 H   0  0  0  0  0  0
  -28.0452  -19.4277   19.8243 H   0  0  0  0  0  0
  -29.0350  -20.0548   18.5628 H   0  0  0  0  0  0
  -27.1577  -24.6473   20.4212 H   0  0  0  0  0  0
  -27.9028  -24.8169   18.8550 H   0  0  0  0  0  0
  -29.1905  -23.7381   21.4183 H   0  0  0  0  0  0
  -28.8242  -15.4754   20.8503 H   0  0  0  0  0  0
  -28.8647  -20.8059   21.2513 H   0  0  0  0  0  0
  1 25  1  0  0  0
  1 30  2  0  0  0
  1 83  1  0  0  0
  2  3  1  0  0  0
  2 25  1  0  0  0
  2 85  1  0  0  0
  2 86  1  0  0  0
  3  4  1  0  0  0
  3 87  1  0  0  0
  3 88  1  0  0  0
  4  5  1  0  0  0
  4 89  1  0  0  0
  4 90  1  0  0  0
  5  6  1  0  0  0
  5 26  1  0  0  0
  5 91  1  0  0  0
  6 25  1  0  0  0
  6 92  1  0  0  0
  6 93  1  0  0  0
  7  8  2  0  0  0
  7 26  1  0  0  0
  7 29  1  0  0  0
  8  9  1  0  0  0
  8 22  1  0  0  0
  9 10  1  0  0  0
  9 27  2  0  0  0
 10 11  2  0  0  0
 10 15  1  0  0  0
 11 12  1  0  0  0
 11 94  1  0  0  0
 12 13  2  0  0  0
 12 95  1  0  0  0
 13 14  1  0  0  0
 13 31  1  0  0  0
 14 15  2  0  0  0
 14 96  1  0  0  0
 15 97  1  0  0  0
 16 17  2  0  0  0
 16 21  1  0  0  0
 16 31  1  0  0  0
 17 18  1  0  0  0
 17 98  1  0  0  0
 18 19  2  0  0  0
 18 99  1  0  0  0
 19 20  1  0  0  0
 19 24  1  0  0  0
 20 21  2  0  0  0
 20100  1  0  0  0
 21 23  1  0  0  0
 22 28  1  0  0  0
 22 32  2  0  0  0
 26 27  1  0  0  0
 28101  1  0  0  0
 28102  1  0  0  0
 29103  1  0  0  0
 29104  1  0  0  0
 33 34  1  0  0  0
 33 66  1  0  0  0
 33 70  2  0  0  0
 34 36  1  0  0  0
 34 59  1  0  0  0
 34105  1  0  0  0
 35 44  2  0  0  0
 35 45  1  0  0  0
 35 68  1  0  0  0
 36 56  1  0  0  0
 36106  1  0  0  0
 37 39  1  0  0  0
 37 47  1  0  0  0
 37 66  1  0  0  0
 37107  1  0  0  0
 38 43  2  0  0  0
 38 46  1  0  0  0
 38 47  1  0  0  0
 39 64  1  0  0  0
 39 67  2  0  0  0
 40 52  1  0  0  0
 40 53  2  0  0  0
 40 58  1  0  0  0
 41108  1  0  0  0
 41109  1  0  0  0
 41110  1  0  0  0
 41 48  1  0  0  0
 42 43  1  0  0  0
 42 66  1  0  0  0
 42111  1  0  0  0
 42112  1  0  0  0
 43 44  1  0  0  0
 44113  1  0  0  0
 45 46  2  0  0  0
 45114  1  0  0  0
 46115  1  0  0  0
 47116  1  0  0  0
 47117  1  0  0  0
 48 56  1  0  0  0
 48 65  1  0  0  0
 48118  1  0  0  0
 49 50  1  0  0  0
 49 53  1  0  0  0
 49 64  1  0  0  0
 49119  1  0  0  0
 50 51  1  0  0  0
 50120  1  0  0  0
 50121  1  0  0  0
 51 52  1  0  0  0
 51122  1  0  0  0
 51123  1  0  0  0
 52124  1  0  0  0
 52125  1  0  0  0
 53 54  1  0  0  0
 54 55  2  0  0  0
 54126  1  0  0  0
 55 57  1  0  0  0
 55127  1  0  0  0
 56 69  2  0  0  0
 57 58  2  0  0  0
 57128  1  0  0  0
 58129  1  0  0  0
 59 60  1  0  0  0
 59 61  1  0  0  0
 59 62  1  0  0  0
 60130  1  0  0  0
 60131  1  0  0  0
 60132  1  0  0  0
 61133  1  0  0  0
 61134  1  0  0  0
 61135  1  0  0  0
 62136  1  0  0  0
 62137  1  0  0  0
 62138  1  0  0  0
 63 65  1  0  0  0
 63139  1  0  0  0
 63140  1  0  0  0
 63141  1  0  0  0
 64142  1  0  0  0
 65143  1  0  0  0
 68 80  1  0  0  0
 71 75  1  0  0  0
 71144  1  0  0  0
 71145  1  0  0  0
 71146  1  0  0  0
 72 76  1  0  0  0
 72147  1  0  0  0
 72148  1  0  0  0
 72149  1  0  0  0
 73150  1  0  0  0
 73151  1  0  0  0
 73152  1  0  0  0
 73 81  1  0  0  0
 74153  1  0  0  0
 74154  1  0  0  0
 74155  1  0  0  0
 74 84  1  0  0  0
 75156  1  0  0  0
 75157  1  0  0  0
 75 82  1  0  0  0
 76 82  1  0  0  0
 76158  1  0  0  0
 76159  1  0  0  0
 77 82  1  0  0  0
 77 83  1  0  0  0
 77160  1  0  0  0
 77161  1  0  0  0
 78 81  1  0  0  0
 78 84  1  0  0  0
 78162  1  0  0  0
 78163  1  0  0  0
 79 82  1  0  0  0
 79 84  1  0  0  0
 79164  1  0  0  0
 79165  1  0  0  0
 80 81  1  0  0  0
 80166  1  0  0  0
 80167  1  0  0  0
 81168  1  0  0  0
 83169  1  0  0  0
 84170  1  0  0  0
M  CHG  1  84   1
M  ISO  4   1 100  68 101  80 101  83 100
M  END
> <chiral flag>
0

> <version>
0

> <s_m_source_file>
/data/baiqing/PycharmProjects/Reinvent-master-3.2/result/LINK_invent/BTK/process_docking_weight1_custom_sum_contain_oxygen_bond_distance_aromatic_linkinvent_7_9_3/rearranged_h_0098.sdf

> <i_m_source_file_index>
24

> <r_mmod_Potential_Energy-OPLS-2005>
166.443893432617

> <r_mmod_Stretch_Energy-OPLS-2005>
136.895492553711

> <r_mmod_Bend_Energy-OPLS-2005>
239.321166992188

> <r_mmod_Torsional_Energy-OPLS-2005>
277.856201171875

> <r_mmod_Improper_Torsional_Energy-OPLS-2005>
4.80039119720459

> <r_mmod_Van_der_Waal_Energy-OPLS-2005>
128.868057250977

> <r_mmod_Electrostatic_Energy-OPLS-2005>
-250.467727661133

> <r_mmod_Solvation_Energy-OPLS-2005>
-444.884857177734

> <b_mmod_Minimization_Converged-OPLS-2005>
0

> <r_mmod_RMS_Derivative-OPLS-2005>
4.68297338485718

$$$$
25
                    3D
 Structure written by MMmdl.
163171  0  0  1  0            999 V2000
  -30.6238  -14.7245   20.4846 C   0  0  0  0  0  0
  -30.4328  -12.4514   19.4595 C   0  0  0  0  0  0
  -29.5080  -12.5148   18.2254 C   0  0  0  0  0  0
  -28.0340  -12.3358   18.6402 C   0  0  0  0  0  0
  -27.6427  -13.2275   19.8489 C   0  0  2  0  0  0
  -28.6898  -13.1503   20.9804 C   0  0  0  0  0  0
  -25.2526  -13.8183   20.5675 C   0  0  0  0  0  0
  -24.1815  -13.0440   20.9204 C   0  0  0  0  0  0
  -24.6399  -11.6914   20.8736 C   0  0  0  0  0  0
  -23.9062  -10.4301   21.0390 C   0  0  0  0  0  0
  -24.3611   -9.4219   21.9179 C   0  0  0  0  0  0
  -23.6297   -8.2245   22.0752 C   0  0  0  0  0  0
  -22.4280   -8.0274   21.3539 C   0  0  0  0  0  0
  -21.9909   -9.0246   20.4639 C   0  0  0  0  0  0
  -22.7226  -10.2137   20.3041 C   0  0  0  0  0  0
  -21.6861   -6.0732   22.5280 C   0  0  0  0  0  0
  -21.4017   -6.5638   23.8215 C   0  0  0  0  0  0
  -21.3661   -5.6795   24.9179 C   0  0  0  0  0  0
  -21.6044   -4.3056   24.7229 C   0  0  0  0  0  0
  -21.8821   -3.8141   23.4352 C   0  0  0  0  0  0
  -21.9195   -4.6957   22.3411 C   0  0  0  0  0  0
  -22.7839  -13.5220   21.1861 C   0  0  0  0  0  0
  -22.1656   -4.2144   21.0988 F   0  0  0  0  0  0
  -21.5630   -3.4540   25.7742 F   0  0  0  0  0  0
  -29.9872  -13.5078   20.3947 N   0  0  0  0  0  0
  -26.2946  -12.9372   20.3263 N   0  0  0  0  0  0
  -25.9329  -11.6519   20.5744 N   0  0  0  0  0  0
  -22.0479  -12.8227   22.0429 N   0  0  0  0  0  0
  -25.4220  -15.1902   20.4058 N   0  0  0  0  0  0
  -31.8176  -14.8169   20.1898 O   0  0  0  0  0  0
  -21.6638   -6.8872   21.4240 O   0  0  0  0  0  0
  -22.3532  -14.5523   20.6699 O   0  0  0  0  0  0
  -24.6300  -31.8558   23.1987 C   0  0  0  0  0  0
  -25.9119  -32.4767   23.8335 C   0  0  1  0  0  0
  -27.2238  -27.2690   20.1412 C   0  0  0  0  0  0
  -25.5911  -33.8570   24.2258 N   0  0  0  0  0  0
  -23.4275  -30.4778   21.5402 C   0  0  2  0  0  0
  -24.8771  -28.9226   20.1122 C   0  0  0  0  0  0
  -22.7504  -29.4611   22.4900 C   0  0  0  0  0  0
  -18.0289  -28.1405   22.8491 C   0  0  0  0  0  0
  -24.1476  -36.7289   23.2644 C   0  0  0  0  0  0
  -25.9724  -30.7730   21.3755 C   0  0  0  0  0  0
  -26.0474  -29.3945   20.7213 C   0  0  0  0  0  0
  -27.2263  -28.5807   20.7226 C   0  0  0  0  0  0
  -26.0354  -26.8649   19.4965 C   0  0  0  0  0  0
  -24.8754  -27.6659   19.4872 C   0  0  0  0  0  0
  -23.6471  -29.8097   20.1568 C   0  0  0  0  0  0
  -25.4105  -36.3081   24.0329 C   0  0  1  0  0  0
  -20.5901  -28.3712   23.1265 C   0  0  2  0  0  0
  -20.6773  -26.9425   22.5410 C   0  0  0  0  0  0
  -19.5748  -26.6386   21.5214 C   0  0  0  0  0  0
  -18.1931  -26.7940   22.1627 C   0  0  0  0  0  0
  -19.1548  -28.8866   23.2874 C   0  0  0  0  0  0
  -18.9472  -30.1465   23.8899 C   0  0  0  0  0  0
  -17.6477  -30.6600   24.0565 C   0  0  0  0  0  0
  -25.9049  -34.9451   23.5097 C   0  0  0  0  0  0
  -16.5363  -29.9110   23.6337 C   0  0  0  0  0  0
  -16.7277  -28.6524   23.0358 C   0  0  0  0  0  0
  -26.4479  -31.6603   25.0729 C   0  0  0  0  0  0
  -25.3705  -31.3768   26.1457 C   0  0  0  0  0  0
  -27.0331  -30.3026   24.6216 C   0  0  0  0  0  0
  -27.6031  -32.4345   25.7503 C   0  0  0  0  0  0
  -27.5571  -37.1801   24.8468 C   0  0  0  0  0  0
  -21.4206  -29.3058   22.3650 N   0  0  0  0  0  0
  -26.4283  -37.3777   23.9413 N   0  0  0  0  0  0
  -24.6958  -31.0530   22.0954 N   0  0  0  0  0  0
  -23.4205  -28.8152   23.2993 O   0  0  0  0  0  0
  -28.3160  -26.3722   20.1679 O   0  0  0  0  0  0
  -26.5628  -34.8926   22.4674 O   0  0  0  0  0  0
  -23.5448  -32.1364   23.7287 O   0  0  0  0  0  0
  -29.7814  -19.0463   19.1799 C   0  0  0  0  0  0
  -29.3803  -19.7760   21.2065 C   0  0  0  0  0  0
  -29.8072  -18.6245   20.5422 C   0  0  0  0  0  0
  -29.4083  -20.3754   19.0648 C   0  0  0  0  0  0
  -27.8533  -21.4990   17.4115 C   0  0  0  0  0  0
  -30.0416  -20.5616   16.6222 C   0  0  0  0  0  0
  -28.3132  -25.1363   22.2296 C   0  0  0  0  0  0
  -30.3428  -17.2453   21.1403 C   0  0  0  0  0  0
  -28.9021  -23.6911   20.1562 C   0  0  0  0  0  0
  -28.5451  -22.2321   20.7838 C   0  0  0  0  0  0
  -29.3077  -21.2045   17.8108 C   0  0  0  0  0  0
  -28.0938  -24.9873   20.7149 C   0  0  2  0  0  0
  -29.1309  -20.8784   20.3433 N   0  0  0  0  0  0
  -29.8668  -15.8559   20.7386 N   0  0  0  0  0  0
  -31.4726  -12.5815   19.1550 H   0  0  0  0  0  0
  -30.3782  -11.4707   19.9362 H   0  0  0  0  0  0
  -29.7910  -11.7513   17.4997 H   0  0  0  0  0  0
  -29.6336  -13.4755   17.7224 H   0  0  0  0  0  0
  -27.8911  -11.2844   18.8950 H   0  0  0  0  0  0
  -27.3751  -12.5345   17.7942 H   0  0  0  0  0  0
  -27.6395  -14.2525   19.4777 H   0  0  0  0  0  0
  -28.7290  -12.1475   21.4092 H   0  0  0  0  0  0
  -28.4285  -13.8218   21.7989 H   0  0  0  0  0  0
  -25.2753   -9.5698   22.4753 H   0  0  0  0  0  0
  -24.0011   -7.4633   22.7467 H   0  0  0  0  0  0
  -21.0834   -8.8754   19.8959 H   0  0  0  0  0  0
  -22.3661  -10.9669   19.6151 H   0  0  0  0  0  0
  -21.2009   -7.6148   23.9718 H   0  0  0  0  0  0
  -21.1478   -6.0524   25.9087 H   0  0  0  0  0  0
  -22.0598   -2.7597   23.2855 H   0  0  0  0  0  0
  -22.4078  -11.9884   22.4826 H   0  0  0  0  0  0
  -21.1088  -13.1250   22.2601 H   0  0  0  0  0  0
  -24.6550  -15.8447   20.5121 H   0  0  0  0  0  0
  -26.2658  -15.6279   20.0589 H   0  0  0  0  0  0
  -26.7198  -32.5421   23.1094 H   0  0  0  0  0  0
  -25.0034  -33.9705   25.0384 H   0  0  0  0  0  0
  -22.7256  -31.3007   21.3929 H   0  0  0  0  0  0
  -23.3739  -35.9622   23.3311 H   0  0  0  0  0  0
  -24.3563  -36.8905   22.2059 H   0  0  0  0  0  0
  -23.7228  -37.6490   23.6666 H   0  0  0  0  0  0
  -26.1058  -31.5315   20.6029 H   0  0  0  0  0  0
  -26.8523  -30.8276   22.0046 H   0  0  0  0  0  0
  -28.1235  -28.9373   21.2088 H   0  0  0  0  0  0
  -25.9912  -25.9031   19.0054 H   0  0  0  0  0  0
  -23.9815  -27.3016   19.0004 H   0  0  0  0  0  0
  -23.7760  -30.5860   19.4019 H   0  0  0  0  0  0
  -22.7652  -29.2444   19.8479 H   0  0  0  0  0  0
  -25.1288  -36.1926   25.0823 H   0  0  0  0  0  0
  -21.0000  -28.3286   24.1382 H   0  0  0  0  0  0
  -20.5661  -26.2322   23.3622 H   0  0  0  0  0  0
  -21.6642  -26.7439   22.1209 H   0  0  0  0  0  0
  -19.6911  -25.6290   21.1253 H   0  0  0  0  0  0
  -19.6688  -27.3184   20.6740 H   0  0  0  0  0  0
  -17.4202  -26.6687   21.4037 H   0  0  0  0  0  0
  -18.0338  -26.0087   22.9030 H   0  0  0  0  0  0
  -19.7951  -30.7273   24.2276 H   0  0  0  0  0  0
  -17.5037  -31.6283   24.5169 H   0  0  0  0  0  0
  -15.5367  -30.3020   23.7651 H   0  0  0  0  0  0
  -15.8672  -28.0838   22.7083 H   0  0  0  0  0  0
  -24.5867  -30.7129   25.7793 H   0  0  0  0  0  0
  -24.8911  -32.2948   26.4869 H   0  0  0  0  0  0
  -25.8014  -30.8953   27.0247 H   0  0  0  0  0  0
  -26.2930  -29.6781   24.1206 H   0  0  0  0  0  0
  -27.3983  -29.7277   25.4736 H   0  0  0  0  0  0
  -27.8810  -30.4309   23.9487 H   0  0  0  0  0  0
  -27.2643  -33.3659   26.2053 H   0  0  0  0  0  0
  -28.3858  -32.6885   25.0343 H   0  0  0  0  0  0
  -28.0685  -31.8492   26.5444 H   0  0  0  0  0  0
  -28.2597  -38.0090   24.7499 H   0  0  0  0  0  0
  -28.1052  -36.2619   24.6304 H   0  0  0  0  0  0
  -27.2291  -37.1468   25.8873 H   0  0  0  0  0  0
  -20.9391  -29.8789   21.6865 H   0  0  0  0  0  0
  -26.0157  -38.2849   24.1417 H   0  0  0  0  0  0
  -30.0662  -18.4244   18.3422 H   0  0  0  0  0  0
  -29.2411  -19.9192   22.2706 H   0  0  0  0  0  0
  -27.3065  -22.0113   18.2012 H   0  0  0  0  0  0
  -27.3154  -20.5785   17.1840 H   0  0  0  0  0  0
  -27.8129  -22.1325   16.5238 H   0  0  0  0  0  0
  -31.0812  -20.3466   16.8716 H   0  0  0  0  0  0
  -30.0480  -21.2271   15.7589 H   0  0  0  0  0  0
  -29.5682  -19.6286   16.3122 H   0  0  0  0  0  0
  -27.9800  -24.2539   22.7753 H   0  0  0  0  0  0
  -27.7539  -25.9819   22.6311 H   0  0  0  0  0  0
  -29.3661  -25.2943   22.4621 H   0  0  0  0  0  0
  -30.2052  -17.3029   22.2210 H   0  0  0  0  0  0
  -31.4255  -17.2715   21.0081 H   0  0  0  0  0  0
  -28.7231  -23.6710   19.0849 H   0  0  0  0  0  0
  -29.9712  -23.8665   20.2725 H   0  0  0  0  0  0
  -27.4623  -22.1185   20.7243 H   0  0  0  0  0  0
  -28.7503  -22.2994   21.8516 H   0  0  0  0  0  0
  -29.8201  -22.1492   17.9893 H   0  0  0  0  0  0
  -27.0422  -24.7333   20.5876 H   0  0  0  0  0  0
  -28.8788  -15.6917   20.8586 H   0  0  0  0  0  0
  1 25  1  0  0  0
  1 30  2  0  0  0
  1 84  1  0  0  0
  2  3  1  0  0  0
  2 25  1  0  0  0
  2 85  1  0  0  0
  2 86  1  0  0  0
  3  4  1  0  0  0
  3 87  1  0  0  0
  3 88  1  0  0  0
  4  5  1  0  0  0
  4 89  1  0  0  0
  4 90  1  0  0  0
  5  6  1  0  0  0
  5 26  1  0  0  0
  5 91  1  0  0  0
  6 25  1  0  0  0
  6 92  1  0  0  0
  6 93  1  0  0  0
  7  8  2  0  0  0
  7 26  1  0  0  0
  7 29  1  0  0  0
  8  9  1  0  0  0
  8 22  1  0  0  0
  9 10  1  0  0  0
  9 27  2  0  0  0
 10 11  2  0  0  0
 10 15  1  0  0  0
 11 12  1  0  0  0
 11 94  1  0  0  0
 12 13  2  0  0  0
 12 95  1  0  0  0
 13 14  1  0  0  0
 13 31  1  0  0  0
 14 15  2  0  0  0
 14 96  1  0  0  0
 15 97  1  0  0  0
 16 17  2  0  0  0
 16 21  1  0  0  0
 16 31  1  0  0  0
 17 18  1  0  0  0
 17 98  1  0  0  0
 18 19  2  0  0  0
 18 99  1  0  0  0
 19 20  1  0  0  0
 19 24  1  0  0  0
 20 21  2  0  0  0
 20100  1  0  0  0
 21 23  1  0  0  0
 22 28  1  0  0  0
 22 32  2  0  0  0
 26 27  1  0  0  0
 28101  1  0  0  0
 28102  1  0  0  0
 29103  1  0  0  0
 29104  1  0  0  0
 33 34  1  0  0  0
 33 66  1  0  0  0
 33 70  2  0  0  0
 34 36  1  0  0  0
 34 59  1  0  0  0
 34105  1  0  0  0
 35 44  2  0  0  0
 35 45  1  0  0  0
 35 68  1  0  0  0
 36 56  1  0  0  0
 36106  1  0  0  0
 37 39  1  0  0  0
 37 47  1  0  0  0
 37 66  1  0  0  0
 37107  1  0  0  0
 38 43  2  0  0  0
 38 46  1  0  0  0
 38 47  1  0  0  0
 39 64  1  0  0  0
 39 67  2  0  0  0
 40 52  1  0  0  0
 40 53  2  0  0  0
 40 58  1  0  0  0
 41108  1  0  0  0
 41109  1  0  0  0
 41110  1  0  0  0
 41 48  1  0  0  0
 42 43  1  0  0  0
 42 66  1  0  0  0
 42111  1  0  0  0
 42112  1  0  0  0
 43 44  1  0  0  0
 44113  1  0  0  0
 45 46  2  0  0  0
 45114  1  0  0  0
 46115  1  0  0  0
 47116  1  0  0  0
 47117  1  0  0  0
 48 56  1  0  0  0
 48 65  1  0  0  0
 48118  1  0  0  0
 49 50  1  0  0  0
 49 53  1  0  0  0
 49 64  1  0  0  0
 49119  1  0  0  0
 50 51  1  0  0  0
 50120  1  0  0  0
 50121  1  0  0  0
 51 52  1  0  0  0
 51122  1  0  0  0
 51123  1  0  0  0
 52124  1  0  0  0
 52125  1  0  0  0
 53 54  1  0  0  0
 54 55  2  0  0  0
 54126  1  0  0  0
 55 57  1  0  0  0
 55127  1  0  0  0
 56 69  2  0  0  0
 57 58  2  0  0  0
 57128  1  0  0  0
 58129  1  0  0  0
 59 60  1  0  0  0
 59 61  1  0  0  0
 59 62  1  0  0  0
 60130  1  0  0  0
 60131  1  0  0  0
 60132  1  0  0  0
 61133  1  0  0  0
 61134  1  0  0  0
 61135  1  0  0  0
 62136  1  0  0  0
 62137  1  0  0  0
 62138  1  0  0  0
 63 65  1  0  0  0
 63139  1  0  0  0
 63140  1  0  0  0
 63141  1  0  0  0
 64142  1  0  0  0
 65143  1  0  0  0
 68 82  1  0  0  0
 71 73  1  0  0  0
 71 74  2  0  0  0
 71144  1  0  0  0
 72 73  2  0  0  0
 72 83  1  0  0  0
 72145  1  0  0  0
 73 78  1  0  0  0
 74 81  1  0  0  0
 74 83  1  0  0  0
 75146  1  0  0  0
 75147  1  0  0  0
 75148  1  0  0  0
 75 81  1  0  0  0
 76 81  1  0  0  0
 76149  1  0  0  0
 76150  1  0  0  0
 76151  1  0  0  0
 77152  1  0  0  0
 77153  1  0  0  0
 77154  1  0  0  0
 77 82  1  0  0  0
 78 84  1  0  0  0
 78155  1  0  0  0
 78156  1  0  0  0
 79 80  1  0  0  0
 79 82  1  0  0  0
 79157  1  0  0  0
 79158  1  0  0  0
 80 83  1  0  0  0
 80159  1  0  0  0
 80160  1  0  0  0
 81161  1  0  0  0
 82162  1  0  0  0
 84163  1  0  0  0
M  ISO  4   1 100  68 101  82 101  84 100
M  END
> <chiral flag>
0

> <version>
0

> <s_m_source_file>
/data/baiqing/PycharmProjects/Reinvent-master-3.2/result/LINK_invent/BTK/process_docking_weight1_custom_sum_contain_oxygen_bond_distance_aromatic_linkinvent_7_9_3/rearranged_h_0098.sdf

> <i_m_source_file_index>
25

> <r_mmod_Potential_Energy-OPLS-2005>
84.6215133666992

> <r_mmod_Stretch_Energy-OPLS-2005>
118.524200439453

> <r_mmod_Bend_Energy-OPLS-2005>
182.439575195312

> <r_mmod_Torsional_Energy-OPLS-2005>
239.632461547852

> <r_mmod_Improper_Torsional_Energy-OPLS-2005>
5.18997383117676

> <r_mmod_Van_der_Waal_Energy-OPLS-2005>
114.480949401855

> <r_mmod_Electrostatic_Energy-OPLS-2005>
-447.856689453125

> <r_mmod_Solvation_Energy-OPLS-2005>
-206.896942138672

> <b_mmod_Minimization_Converged-OPLS-2005>
0

> <r_mmod_RMS_Derivative-OPLS-2005>
1.82527792453766

$$$$
26
                    3D
 Structure written by MMmdl.
166174  0  0  1  0            999 V2000
  -30.6724  -14.5619   20.5053 C   0  0  0  0  0  0
  -30.4236  -12.3419   19.4538 C   0  0  0  0  0  0
  -29.5037  -12.4970   18.2241 C   0  0  0  0  0  0
  -28.0248  -12.3513   18.6330 C   0  0  0  0  0  0
  -27.6552  -13.2165   19.8683 C   0  0  2  0  0  0
  -28.6979  -13.0615   20.9999 C   0  0  0  0  0  0
  -25.2559  -13.8175   20.5694 C   0  0  0  0  0  0
  -24.1824  -13.0437   20.9185 C   0  0  0  0  0  0
  -24.6393  -11.6910   20.8735 C   0  0  0  0  0  0
  -23.9066  -10.4291   21.0402 C   0  0  0  0  0  0
  -24.3619   -9.4210   21.9181 C   0  0  0  0  0  0
  -23.6293   -8.2248   22.0756 C   0  0  0  0  0  0
  -22.4276   -8.0285   21.3546 C   0  0  0  0  0  0
  -21.9913   -9.0257   20.4648 C   0  0  0  0  0  0
  -22.7240  -10.2134   20.3052 C   0  0  0  0  0  0
  -21.6852   -6.0740   22.5278 C   0  0  0  0  0  0
  -21.4017   -6.5643   23.8212 C   0  0  0  0  0  0
  -21.3657   -5.6794   24.9174 C   0  0  0  0  0  0
  -21.6045   -4.3058   24.7224 C   0  0  0  0  0  0
  -21.8815   -3.8150   23.4344 C   0  0  0  0  0  0
  -21.9195   -4.6967   22.3402 C   0  0  0  0  0  0
  -22.7846  -13.5229   21.1851 C   0  0  0  0  0  0
  -22.1660   -4.2152   21.0979 F   0  0  0  0  0  0
  -21.5628   -3.4538   25.7736 F   0  0  0  0  0  0
  -30.0214  -13.3642   20.4369 N   0  0  0  0  0  0
  -26.2996  -12.9361   20.3352 N   0  0  0  0  0  0
  -25.9323  -11.6512   20.5774 N   0  0  0  0  0  0
  -22.0494  -12.8223   22.0408 N   0  0  0  0  0  0
  -25.4255  -15.1897   20.4106 N   0  0  0  0  0  0
  -31.8324  -14.6946   20.1056 O   0  0  0  0  0  0
  -21.6644   -6.8884   21.4241 O   0  0  0  0  0  0
  -22.3531  -14.5532   20.6695 O   0  0  0  0  0  0
  -24.6183  -31.8642   23.2048 C   0  0  0  0  0  0
  -25.9059  -32.4802   23.8373 C   0  0  1  0  0  0
  -27.2270  -27.3743   20.1233 C   0  0  0  0  0  0
  -25.5905  -33.8605   24.2304 N   0  0  0  0  0  0
  -23.4105  -30.4855   21.5463 C   0  0  2  0  0  0
  -24.8582  -28.9405   20.1183 C   0  0  0  0  0  0
  -22.7437  -29.4632   22.4964 C   0  0  0  0  0  0
  -18.0279  -28.1381   22.8488 C   0  0  0  0  0  0
  -24.1487  -36.7313   23.2640 C   0  0  0  0  0  0
  -25.9442  -30.8092   21.3699 C   0  0  0  0  0  0
  -26.0190  -29.4354   20.7275 C   0  0  0  0  0  0
  -27.2079  -28.6586   20.7296 C   0  0  0  0  0  0
  -26.0605  -26.9234   19.4775 C   0  0  0  0  0  0
  -24.8761  -27.6848   19.4890 C   0  0  0  0  0  0
  -23.6231  -29.8155   20.1627 C   0  0  0  0  0  0
  -25.4100  -36.3100   24.0337 C   0  0  1  0  0  0
  -20.5872  -28.3668   23.1311 C   0  0  2  0  0  0
  -20.6764  -26.9403   22.5414 C   0  0  0  0  0  0
  -19.5739  -26.6376   21.5216 C   0  0  0  0  0  0
  -18.1918  -26.7929   22.1620 C   0  0  0  0  0  0
  -19.1532  -28.8843   23.2898 C   0  0  0  0  0  0
  -18.9456  -30.1463   23.8889 C   0  0  0  0  0  0
  -17.6458  -30.6585   24.0567 C   0  0  0  0  0  0
  -25.9036  -34.9468   23.5115 C   0  0  0  0  0  0
  -16.5349  -29.9082   23.6326 C   0  0  0  0  0  0
  -16.7268  -28.6502   23.0346 C   0  0  0  0  0  0
  -26.4465  -31.6597   25.0724 C   0  0  0  0  0  0
  -25.3728  -31.3724   26.1471 C   0  0  0  0  0  0
  -27.0303  -30.3033   24.6145 C   0  0  0  0  0  0
  -27.6030  -32.4329   25.7491 C   0  0  0  0  0  0
  -27.5574  -37.1806   24.8468 C   0  0  0  0  0  0
  -21.4157  -29.3036   22.3718 N   0  0  0  0  0  0
  -26.4281  -37.3794   23.9415 N   0  0  0  0  0  0
  -24.6762  -31.0705   22.0973 N   0  0  0  0  0  0
  -23.4191  -28.8168   23.3020 O   0  0  0  0  0  0
  -28.3730  -26.5994   20.0562 O   0  0  0  0  0  0
  -26.5609  -34.8926   22.4686 O   0  0  0  0  0  0
  -23.5357  -32.1406   23.7404 O   0  0  0  0  0  0
  -29.0483  -18.0622   22.4980 C   0  0  0  0  0  0
  -29.5312  -19.5428   20.9052 C   0  0  0  0  0  0
  -29.6194  -18.1918   21.2058 C   0  0  0  0  0  0
  -28.6665  -19.2939   22.9569 C   0  0  0  0  0  0
  -29.2078  -19.6370   25.3769 C   0  0  0  0  0  0
  -26.9637  -18.6833   24.7127 C   0  0  0  0  0  0
  -26.5574  -23.8369   21.0198 C   0  0  0  0  0  0
  -30.2374  -17.0461   20.3824 C   0  0  0  0  0  0
  -28.9273  -22.7742   21.0004 C   0  0  0  0  0  0
  -28.6890  -21.7036   22.1555 C   0  0  0  0  0  0
  -28.5361  -25.4838   20.9780 C   0  0  0  0  0  0
  -28.1017  -19.6323   24.3130 C   0  0  0  0  0  0
  -28.0266  -24.0330   20.5652 C   0  0  2  0  0  0
  -28.9514  -20.2432   21.9712 N   0  0  0  0  0  0
  -29.9162  -15.6513   20.7962 N   0  0  0  0  0  0
  -31.4701  -12.4353   19.1585 H   0  0  0  0  0  0
  -30.3250  -11.3456   19.8869 H   0  0  0  0  0  0
  -29.7569  -11.7528   17.4679 H   0  0  0  0  0  0
  -29.6645  -13.4723   17.7612 H   0  0  0  0  0  0
  -27.8477  -11.2982   18.8551 H   0  0  0  0  0  0
  -27.3747  -12.5978   17.7927 H   0  0  0  0  0  0
  -27.6798  -14.2542   19.5351 H   0  0  0  0  0  0
  -28.6874  -12.0451   21.3962 H   0  0  0  0  0  0
  -28.4608  -13.7143   21.8418 H   0  0  0  0  0  0
  -25.2760   -9.5691   22.4753 H   0  0  0  0  0  0
  -24.0003   -7.4644   22.7472 H   0  0  0  0  0  0
  -21.0846   -8.8772   19.8950 H   0  0  0  0  0  0
  -22.3696  -10.9675   19.6160 H   0  0  0  0  0  0
  -21.2006   -7.6150   23.9717 H   0  0  0  0  0  0
  -21.1484   -6.0525   25.9078 H   0  0  0  0  0  0
  -22.0596   -2.7611   23.2842 H   0  0  0  0  0  0
  -22.4118  -11.9891   22.4800 H   0  0  0  0  0  0
  -21.1105  -13.1240   22.2601 H   0  0  0  0  0  0
  -24.6584  -15.8429   20.5272 H   0  0  0  0  0  0
  -26.2767  -15.6350   20.0913 H   0  0  0  0  0  0
  -26.7130  -32.5481   23.1125 H   0  0  0  0  0  0
  -25.0075  -33.9767   25.0463 H   0  0  0  0  0  0
  -22.7023  -31.3042   21.4027 H   0  0  0  0  0  0
  -23.3742  -35.9653   23.3311 H   0  0  0  0  0  0
  -24.3583  -36.8922   22.2053 H   0  0  0  0  0  0
  -23.7247  -37.6524   23.6651 H   0  0  0  0  0  0
  -26.0689  -31.5675   20.5955 H   0  0  0  0  0  0
  -26.8288  -30.8639   21.9916 H   0  0  0  0  0  0
  -28.1059  -29.0395   21.1945 H   0  0  0  0  0  0
  -26.0697  -25.9778   18.9540 H   0  0  0  0  0  0
  -23.9905  -27.3040   18.9988 H   0  0  0  0  0  0
  -23.7389  -30.5897   19.4039 H   0  0  0  0  0  0
  -22.7464  -29.2392   19.8631 H   0  0  0  0  0  0
  -25.1285  -36.1960   25.0830 H   0  0  0  0  0  0
  -20.9977  -28.3228   24.1428 H   0  0  0  0  0  0
  -20.5688  -26.2267   23.3598 H   0  0  0  0  0  0
  -21.6625  -26.7432   22.1195 H   0  0  0  0  0  0
  -19.6905  -25.6287   21.1242 H   0  0  0  0  0  0
  -19.6686  -27.3193   20.6755 H   0  0  0  0  0  0
  -17.4191  -26.6695   21.4024 H   0  0  0  0  0  0
  -18.0300  -26.0074   22.9016 H   0  0  0  0  0  0
  -19.7939  -30.7283   24.2239 H   0  0  0  0  0  0
  -17.5012  -31.6264   24.5173 H   0  0  0  0  0  0
  -15.5355  -30.2976   23.7660 H   0  0  0  0  0  0
  -15.8664  -28.0826   22.7037 H   0  0  0  0  0  0
  -24.5893  -30.7077   25.7825 H   0  0  0  0  0  0
  -24.8928  -32.2888   26.4916 H   0  0  0  0  0  0
  -25.8078  -30.8894   27.0227 H   0  0  0  0  0  0
  -26.2857  -29.6798   24.1184 H   0  0  0  0  0  0
  -27.4061  -29.7258   25.4610 H   0  0  0  0  0  0
  -27.8705  -30.4359   23.9316 H   0  0  0  0  0  0
  -27.2638  -33.3623   26.2073 H   0  0  0  0  0  0
  -28.3834  -32.6909   25.0317 H   0  0  0  0  0  0
  -28.0715  -31.8452   26.5401 H   0  0  0  0  0  0
  -28.2593  -38.0101   24.7498 H   0  0  0  0  0  0
  -28.1064  -36.2629   24.6299 H   0  0  0  0  0  0
  -27.2302  -37.1468   25.8877 H   0  0  0  0  0  0
  -20.9327  -29.8771   21.6946 H   0  0  0  0  0  0
  -26.0173  -38.2876   24.1407 H   0  0  0  0  0  0
  -28.9636  -17.1461   23.0669 H   0  0  0  0  0  0
  -29.8547  -20.0816   20.0235 H   0  0  0  0  0  0
  -29.9818  -20.3644   25.1299 H   0  0  0  0  0  0
  -29.6863  -18.6598   25.4557 H   0  0  0  0  0  0
  -28.8157  -19.8971   26.3610 H   0  0  0  0  0  0
  -26.1538  -18.7205   23.9834 H   0  0  0  0  0  0
  -26.5424  -18.9600   25.6800 H   0  0  0  0  0  0
  -27.3006  -17.6490   24.7824 H   0  0  0  0  0  0
  -26.1245  -22.9228   20.6141 H   0  0  0  0  0  0
  -25.9091  -24.6496   20.7097 H   0  0  0  0  0  0
  -26.4851  -23.7834   22.1070 H   0  0  0  0  0  0
  -31.3187  -17.1940   20.3911 H   0  0  0  0  0  0
  -29.9258  -17.1678   19.3436 H   0  0  0  0  0  0
  -28.9025  -23.3892   21.8951 H   0  0  0  0  0  0
  -28.2258  -22.1617   20.4333 H   0  0  0  0  0  0
  -27.6440  -21.7793   22.4624 H   0  0  0  0  0  0
  -29.2705  -21.9558   23.0515 H   0  0  0  0  0  0
  -29.6151  -25.4213   21.1220 H   0  0  0  0  0  0
  -28.1416  -25.7600   21.9579 H   0  0  0  0  0  0
  -27.6670  -20.6295   24.3089 H   0  0  0  0  0  0
  -28.0286  -24.0348   19.4734 H   0  0  0  0  0  0
  -28.9729  -15.4795   21.1067 H   0  0  0  0  0  0
  1 25  1  0  0  0
  1 30  2  0  0  0
  1 85  1  0  0  0
  2  3  1  0  0  0
  2 25  1  0  0  0
  2 86  1  0  0  0
  2 87  1  0  0  0
  3  4  1  0  0  0
  3 88  1  0  0  0
  3 89  1  0  0  0
  4  5  1  0  0  0
  4 90  1  0  0  0
  4 91  1  0  0  0
  5  6  1  0  0  0
  5 26  1  0  0  0
  5 92  1  0  0  0
  6 25  1  0  0  0
  6 93  1  0  0  0
  6 94  1  0  0  0
  7  8  2  0  0  0
  7 26  1  0  0  0
  7 29  1  0  0  0
  8  9  1  0  0  0
  8 22  1  0  0  0
  9 10  1  0  0  0
  9 27  2  0  0  0
 10 11  2  0  0  0
 10 15  1  0  0  0
 11 12  1  0  0  0
 11 95  1  0  0  0
 12 13  2  0  0  0
 12 96  1  0  0  0
 13 14  1  0  0  0
 13 31  1  0  0  0
 14 15  2  0  0  0
 14 97  1  0  0  0
 15 98  1  0  0  0
 16 17  2  0  0  0
 16 21  1  0  0  0
 16 31  1  0  0  0
 17 18  1  0  0  0
 17 99  1  0  0  0
 18 19  2  0  0  0
 18100  1  0  0  0
 19 20  1  0  0  0
 19 24  1  0  0  0
 20 21  2  0  0  0
 20101  1  0  0  0
 21 23  1  0  0  0
 22 28  1  0  0  0
 22 32  2  0  0  0
 26 27  1  0  0  0
 28102  1  0  0  0
 28103  1  0  0  0
 29104  1  0  0  0
 29105  1  0  0  0
 33 34  1  0  0  0
 33 66  1  0  0  0
 33 70  2  0  0  0
 34 36  1  0  0  0
 34 59  1  0  0  0
 34106  1  0  0  0
 35 44  2  0  0  0
 35 45  1  0  0  0
 35 68  1  0  0  0
 36 56  1  0  0  0
 36107  1  0  0  0
 37 39  1  0  0  0
 37 47  1  0  0  0
 37 66  1  0  0  0
 37108  1  0  0  0
 38 43  2  0  0  0
 38 46  1  0  0  0
 38 47  1  0  0  0
 39 64  1  0  0  0
 39 67  2  0  0  0
 40 52  1  0  0  0
 40 53  2  0  0  0
 40 58  1  0  0  0
 41109  1  0  0  0
 41110  1  0  0  0
 41111  1  0  0  0
 41 48  1  0  0  0
 42 43  1  0  0  0
 42 66  1  0  0  0
 42112  1  0  0  0
 42113  1  0  0  0
 43 44  1  0  0  0
 44114  1  0  0  0
 45 46  2  0  0  0
 45115  1  0  0  0
 46116  1  0  0  0
 47117  1  0  0  0
 47118  1  0  0  0
 48 56  1  0  0  0
 48 65  1  0  0  0
 48119  1  0  0  0
 49 50  1  0  0  0
 49 53  1  0  0  0
 49 64  1  0  0  0
 49120  1  0  0  0
 50 51  1  0  0  0
 50121  1  0  0  0
 50122  1  0  0  0
 51 52  1  0  0  0
 51123  1  0  0  0
 51124  1  0  0  0
 52125  1  0  0  0
 52126  1  0  0  0
 53 54  1  0  0  0
 54 55  2  0  0  0
 54127  1  0  0  0
 55 57  1  0  0  0
 55128  1  0  0  0
 56 69  2  0  0  0
 57 58  2  0  0  0
 57129  1  0  0  0
 58130  1  0  0  0
 59 60  1  0  0  0
 59 61  1  0  0  0
 59 62  1  0  0  0
 60131  1  0  0  0
 60132  1  0  0  0
 60133  1  0  0  0
 61134  1  0  0  0
 61135  1  0  0  0
 61136  1  0  0  0
 62137  1  0  0  0
 62138  1  0  0  0
 62139  1  0  0  0
 63 65  1  0  0  0
 63140  1  0  0  0
 63141  1  0  0  0
 63142  1  0  0  0
 64143  1  0  0  0
 65144  1  0  0  0
 68 81  1  0  0  0
 71 73  1  0  0  0
 71 74  2  0  0  0
 71145  1  0  0  0
 72 73  2  0  0  0
 72 84  1  0  0  0
 72146  1  0  0  0
 73 78  1  0  0  0
 74 82  1  0  0  0
 74 84  1  0  0  0
 75147  1  0  0  0
 75148  1  0  0  0
 75149  1  0  0  0
 75 82  1  0  0  0
 76 82  1  0  0  0
 76150  1  0  0  0
 76151  1  0  0  0
 76152  1  0  0  0
 77153  1  0  0  0
 77154  1  0  0  0
 77155  1  0  0  0
 77 83  1  0  0  0
 78 85  1  0  0  0
 78156  1  0  0  0
 78157  1  0  0  0
 79 80  1  0  0  0
 79 83  1  0  0  0
 79158  1  0  0  0
 79159  1  0  0  0
 80 84  1  0  0  0
 80160  1  0  0  0
 80161  1  0  0  0
 81 83  1  0  0  0
 81162  1  0  0  0
 81163  1  0  0  0
 82164  1  0  0  0
 83165  1  0  0  0
 85166  1  0  0  0
M  ISO  4   1 100  68 101  81 101  85 100
M  END
> <chiral flag>
0

> <version>
0

> <s_m_source_file>
/data/baiqing/PycharmProjects/Reinvent-master-3.2/result/LINK_invent/BTK/process_docking_weight1_custom_sum_contain_oxygen_bond_distance_aromatic_linkinvent_7_9_3/rearranged_h_0098.sdf

> <i_m_source_file_index>
26

> <r_mmod_Potential_Energy-OPLS-2005>
222.981552124023

> <r_mmod_Stretch_Energy-OPLS-2005>
62.8379058837891

> <r_mmod_Bend_Energy-OPLS-2005>
362.7841796875

> <r_mmod_Torsional_Energy-OPLS-2005>
264.409088134766

> <r_mmod_Improper_Torsional_Energy-OPLS-2005>
6.70674610137939

> <r_mmod_Van_der_Waal_Energy-OPLS-2005>
138.34782409668

> <r_mmod_Electrostatic_Energy-OPLS-2005>
-438.579467773438

> <r_mmod_Solvation_Energy-OPLS-2005>
-199.549301147461

> <b_mmod_Minimization_Converged-OPLS-2005>
0

> <r_mmod_RMS_Derivative-OPLS-2005>
1.55014169216156

$$$$
27
                    3D
 Structure written by MMmdl.
163171  0  0  1  0            999 V2000
  -30.6359  -14.7207   20.4443 C   0  0  0  0  0  0
  -30.4321  -12.4340   19.4733 C   0  0  0  0  0  0
  -29.5154  -12.5064   18.2332 C   0  0  0  0  0  0
  -28.0396  -12.3426   18.6441 C   0  0  0  0  0  0
  -27.6481  -13.2339   19.8553 C   0  0  2  0  0  0
  -28.6965  -13.1625   20.9894 C   0  0  0  0  0  0
  -25.2530  -13.8205   20.5716 C   0  0  0  0  0  0
  -24.1820  -13.0459   20.9231 C   0  0  0  0  0  0
  -24.6408  -11.6938   20.8766 C   0  0  0  0  0  0
  -23.9078  -10.4310   21.0422 C   0  0  0  0  0  0
  -24.3619   -9.4221   21.9194 C   0  0  0  0  0  0
  -23.6293   -8.2252   22.0747 C   0  0  0  0  0  0
  -22.4280   -8.0286   21.3535 C   0  0  0  0  0  0
  -21.9919   -9.0274   20.4643 C   0  0  0  0  0  0
  -22.7258  -10.2157   20.3062 C   0  0  0  0  0  0
  -21.6857   -6.0742   22.5280 C   0  0  0  0  0  0
  -21.4029   -6.5639   23.8215 C   0  0  0  0  0  0
  -21.3659   -5.6789   24.9172 C   0  0  0  0  0  0
  -21.6035   -4.3045   24.7225 C   0  0  0  0  0  0
  -21.8819   -3.8147   23.4347 C   0  0  0  0  0  0
  -21.9206   -4.6965   22.3406 C   0  0  0  0  0  0
  -22.7839  -13.5260   21.1852 C   0  0  0  0  0  0
  -22.1669   -4.2159   21.0983 F   0  0  0  0  0  0
  -21.5615   -3.4518   25.7734 F   0  0  0  0  0  0
  -29.9969  -13.5024   20.4003 N   0  0  0  0  0  0
  -26.2979  -12.9425   20.3313 N   0  0  0  0  0  0
  -25.9344  -11.6569   20.5762 N   0  0  0  0  0  0
  -22.0438  -12.8284   22.0392 N   0  0  0  0  0  0
  -25.4135  -15.1926   20.4077 N   0  0  0  0  0  0
  -31.8290  -14.7972   20.1378 O   0  0  0  0  0  0
  -21.6635   -6.8880   21.4238 O   0  0  0  0  0  0
  -22.3552  -14.5568   20.6681 O   0  0  0  0  0  0
  -24.6352  -31.8545   23.1949 C   0  0  0  0  0  0
  -25.9183  -32.4743   23.8304 C   0  0  1  0  0  0
  -27.2222  -27.2532   20.1251 C   0  0  0  0  0  0
  -25.5991  -33.8533   24.2252 N   0  0  0  0  0  0
  -23.4299  -30.4765   21.5389 C   0  0  2  0  0  0
  -24.8745  -28.9199   20.1088 C   0  0  0  0  0  0
  -22.7478  -29.4641   22.4912 C   0  0  0  0  0  0
  -18.0311  -28.1388   22.8478 C   0  0  0  0  0  0
  -24.1484  -36.7260   23.2636 C   0  0  0  0  0  0
  -25.9746  -30.7654   21.3741 C   0  0  0  0  0  0
  -26.0473  -29.3878   20.7150 C   0  0  0  0  0  0
  -27.2199  -28.5649   20.7108 C   0  0  0  0  0  0
  -26.0172  -26.8484   19.5034 C   0  0  0  0  0  0
  -24.8661  -27.6586   19.4953 C   0  0  0  0  0  0
  -23.6443  -29.8043   20.1578 C   0  0  0  0  0  0
  -25.4108  -36.3053   24.0327 C   0  0  1  0  0  0
  -20.5891  -28.3722   23.1252 C   0  0  2  0  0  0
  -20.6796  -26.9432   22.5392 C   0  0  0  0  0  0
  -19.5802  -26.6370   21.5183 C   0  0  0  0  0  0
  -18.1989  -26.7909   22.1634 C   0  0  0  0  0  0
  -19.1547  -28.8871   23.2862 C   0  0  0  0  0  0
  -18.9469  -30.1460   23.8902 C   0  0  0  0  0  0
  -17.6475  -30.6609   24.0548 C   0  0  0  0  0  0
  -25.9053  -34.9431   23.5078 C   0  0  0  0  0  0
  -16.5372  -29.9089   23.6341 C   0  0  0  0  0  0
  -16.7289  -28.6490   23.0383 C   0  0  0  0  0  0
  -26.4530  -31.6583   25.0719 C   0  0  0  0  0  0
  -25.3743  -31.3744   26.1441 C   0  0  0  0  0  0
  -27.0410  -30.3011   24.6232 C   0  0  0  0  0  0
  -27.6091  -32.4323   25.7498 C   0  0  0  0  0  0
  -27.5577  -37.1785   24.8466 C   0  0  0  0  0  0
  -21.4178  -29.3083   22.3629 N   0  0  0  0  0  0
  -26.4298  -37.3754   23.9402 N   0  0  0  0  0  0
  -24.6983  -31.0510   22.0923 N   0  0  0  0  0  0
  -23.4148  -28.8196   23.3040 O   0  0  0  0  0  0
  -28.3448  -26.3941   20.2039 O   0  0  0  0  0  0
  -26.5606  -34.8920   22.4636 O   0  0  0  0  0  0
  -23.5512  -32.1379   23.7258 O   0  0  0  0  0  0
  -29.6741  -19.8885   19.9899 C   0  0  0  0  0  0
  -29.4862  -18.6066   20.5238 C   0  0  0  0  0  0
  -28.3321  -18.7743   21.3505 C   0  0  0  0  0  0
  -27.8259  -20.0517   21.1848 C   0  0  0  0  0  0
  -27.7235  -17.7146   22.2345 C   0  0  0  0  0  0
  -26.5251  -20.5575   21.7239 C   0  0  0  0  0  0
  -27.3311  -23.7708   21.6384 C   0  0  0  0  0  0
  -29.8135  -23.7029   21.4148 C   0  0  0  0  0  0
  -30.3651  -17.2942   20.2953 C   0  0  0  0  0  0
  -28.4385  -22.2403   19.8049 C   0  0  0  0  0  0
  -28.3879  -24.9813   19.6809 C   0  0  0  0  0  0
  -28.4893  -23.6582   20.6283 C   0  0  0  0  0  0
  -28.6703  -20.8183   20.3718 N   0  0  0  0  0  0
  -29.8898  -15.8738   20.5922 N   0  0  0  0  0  0
  -31.4794  -12.5390   19.1786 H   0  0  0  0  0  0
  -30.3533  -11.4578   19.9570 H   0  0  0  0  0  0
  -29.7863  -11.7312   17.5155 H   0  0  0  0  0  0
  -29.6572  -13.4621   17.7239 H   0  0  0  0  0  0
  -27.8907  -11.2936   18.9000 H   0  0  0  0  0  0
  -27.3876  -12.5468   17.7939 H   0  0  0  0  0  0
  -27.6440  -14.2576   19.4834 H   0  0  0  0  0  0
  -28.7380  -12.1692   21.4376 H   0  0  0  0  0  0
  -28.4407  -13.8500   21.7966 H   0  0  0  0  0  0
  -25.2755   -9.5697   22.4777 H   0  0  0  0  0  0
  -23.9995   -7.4650   22.7484 H   0  0  0  0  0  0
  -21.0833   -8.8821   19.8964 H   0  0  0  0  0  0
  -22.3714  -10.9705   19.6173 H   0  0  0  0  0  0
  -21.2020   -7.6144   23.9728 H   0  0  0  0  0  0
  -21.1468   -6.0501   25.9076 H   0  0  0  0  0  0
  -22.0594   -2.7604   23.2841 H   0  0  0  0  0  0
  -22.4028  -12.0009   22.4913 H   0  0  0  0  0  0
  -21.1037  -13.1330   22.2480 H   0  0  0  0  0  0
  -24.6290  -15.8298   20.4878 H   0  0  0  0  0  0
  -26.2369  -15.6323   20.0188 H   0  0  0  0  0  0
  -26.7261  -32.5386   23.1052 H   0  0  0  0  0  0
  -25.0191  -33.9633   25.0437 H   0  0  0  0  0  0
  -22.7318  -31.3010   21.3893 H   0  0  0  0  0  0
  -23.3757  -35.9589   23.3304 H   0  0  0  0  0  0
  -24.3572  -36.8878   22.2054 H   0  0  0  0  0  0
  -23.7231  -37.6455   23.6654 H   0  0  0  0  0  0
  -26.1202  -31.5295   20.6083 H   0  0  0  0  0  0
  -26.8463  -30.8079   22.0156 H   0  0  0  0  0  0
  -28.1183  -28.9142   21.2028 H   0  0  0  0  0  0
  -25.9080  -25.8790   19.0471 H   0  0  0  0  0  0
  -23.9644  -27.2862   19.0300 H   0  0  0  0  0  0
  -23.7580  -30.5713   19.3911 H   0  0  0  0  0  0
  -22.7614  -29.2312   19.8671 H   0  0  0  0  0  0
  -25.1287  -36.1900   25.0827 H   0  0  0  0  0  0
  -20.9967  -28.3334   24.1380 H   0  0  0  0  0  0
  -20.5697  -26.2284   23.3565 H   0  0  0  0  0  0
  -21.6663  -26.7493   22.1158 H   0  0  0  0  0  0
  -19.7015  -25.6274   21.1253 H   0  0  0  0  0  0
  -19.6729  -27.3131   20.6666 H   0  0  0  0  0  0
  -17.4208  -26.6549   21.4100 H   0  0  0  0  0  0
  -18.0486  -26.0094   22.9092 H   0  0  0  0  0  0
  -19.7925  -30.7272   24.2332 H   0  0  0  0  0  0
  -17.5045  -31.6304   24.5131 H   0  0  0  0  0  0
  -15.5377  -30.2992   23.7694 H   0  0  0  0  0  0
  -15.8701  -28.0761   22.7163 H   0  0  0  0  0  0
  -24.5912  -30.7111   25.7743 H   0  0  0  0  0  0
  -24.8953  -32.2925   26.4862 H   0  0  0  0  0  0
  -25.8059  -30.8915   27.0221 H   0  0  0  0  0  0
  -26.3028  -29.6713   24.1268 H   0  0  0  0  0  0
  -27.4095  -29.7334   25.4779 H   0  0  0  0  0  0
  -27.8884  -30.4269   23.9493 H   0  0  0  0  0  0
  -27.2717  -33.3632   26.2060 H   0  0  0  0  0  0
  -28.3918  -32.6868   25.0339 H   0  0  0  0  0  0
  -28.0742  -31.8463   26.5430 H   0  0  0  0  0  0
  -28.2592  -38.0078   24.7502 H   0  0  0  0  0  0
  -28.1086  -36.2618   24.6316 H   0  0  0  0  0  0
  -27.2300  -37.1445   25.8870 H   0  0  0  0  0  0
  -20.9357  -29.8737   21.6780 H   0  0  0  0  0  0
  -26.0182  -38.2837   24.1407 H   0  0  0  0  0  0
  -30.4450  -20.2168   19.3035 H   0  0  0  0  0  0
  -28.4746  -16.9987   22.5674 H   0  0  0  0  0  0
  -26.9427  -17.1749   21.6999 H   0  0  0  0  0  0
  -27.2852  -18.1639   23.1267 H   0  0  0  0  0  0
  -25.7825  -19.7601   21.7155 H   0  0  0  0  0  0
  -26.1085  -21.3689   21.1283 H   0  0  0  0  0  0
  -26.6303  -20.8798   22.7595 H   0  0  0  0  0  0
  -27.3621  -22.9780   22.3832 H   0  0  0  0  0  0
  -26.3589  -23.7507   21.1417 H   0  0  0  0  0  0
  -27.3781  -24.7120   22.1906 H   0  0  0  0  0  0
  -29.9107  -22.8458   22.0835 H   0  0  0  0  0  0
  -29.8879  -24.6022   22.0287 H   0  0  0  0  0  0
  -30.6728  -23.6846   20.7427 H   0  0  0  0  0  0
  -31.2940  -17.4421   20.8485 H   0  0  0  0  0  0
  -30.6568  -17.3053   19.2429 H   0  0  0  0  0  0
  -29.1342  -22.3407   18.9718 H   0  0  0  0  0  0
  -27.4649  -22.2006   19.3162 H   0  0  0  0  0  0
  -27.6221  -24.8067   18.9305 H   0  0  0  0  0  0
  -29.2934  -24.9713   19.0727 H   0  0  0  0  0  0
  -28.9089  -15.7584   20.7929 H   0  0  0  0  0  0
  1 25  1  0  0  0
  1 30  2  0  0  0
  1 84  1  0  0  0
  2  3  1  0  0  0
  2 25  1  0  0  0
  2 85  1  0  0  0
  2 86  1  0  0  0
  3  4  1  0  0  0
  3 87  1  0  0  0
  3 88  1  0  0  0
  4  5  1  0  0  0
  4 89  1  0  0  0
  4 90  1  0  0  0
  5  6  1  0  0  0
  5 26  1  0  0  0
  5 91  1  0  0  0
  6 25  1  0  0  0
  6 92  1  0  0  0
  6 93  1  0  0  0
  7  8  2  0  0  0
  7 26  1  0  0  0
  7 29  1  0  0  0
  8  9  1  0  0  0
  8 22  1  0  0  0
  9 10  1  0  0  0
  9 27  2  0  0  0
 10 11  2  0  0  0
 10 15  1  0  0  0
 11 12  1  0  0  0
 11 94  1  0  0  0
 12 13  2  0  0  0
 12 95  1  0  0  0
 13 14  1  0  0  0
 13 31  1  0  0  0
 14 15  2  0  0  0
 14 96  1  0  0  0
 15 97  1  0  0  0
 16 17  2  0  0  0
 16 21  1  0  0  0
 16 31  1  0  0  0
 17 18  1  0  0  0
 17 98  1  0  0  0
 18 19  2  0  0  0
 18 99  1  0  0  0
 19 20  1  0  0  0
 19 24  1  0  0  0
 20 21  2  0  0  0
 20100  1  0  0  0
 21 23  1  0  0  0
 22 28  1  0  0  0
 22 32  2  0  0  0
 26 27  1  0  0  0
 28101  1  0  0  0
 28102  1  0  0  0
 29103  1  0  0  0
 29104  1  0  0  0
 33 34  1  0  0  0
 33 66  1  0  0  0
 33 70  2  0  0  0
 34 36  1  0  0  0
 34 59  1  0  0  0
 34105  1  0  0  0
 35 44  2  0  0  0
 35 45  1  0  0  0
 35 68  1  0  0  0
 36 56  1  0  0  0
 36106  1  0  0  0
 37 39  1  0  0  0
 37 47  1  0  0  0
 37 66  1  0  0  0
 37107  1  0  0  0
 38 43  2  0  0  0
 38 46  1  0  0  0
 38 47  1  0  0  0
 39 64  1  0  0  0
 39 67  2  0  0  0
 40 52  1  0  0  0
 40 53  2  0  0  0
 40 58  1  0  0  0
 41108  1  0  0  0
 41109  1  0  0  0
 41110  1  0  0  0
 41 48  1  0  0  0
 42 43  1  0  0  0
 42 66  1  0  0  0
 42111  1  0  0  0
 42112  1  0  0  0
 43 44  1  0  0  0
 44113  1  0  0  0
 45 46  2  0  0  0
 45114  1  0  0  0
 46115  1  0  0  0
 47116  1  0  0  0
 47117  1  0  0  0
 48 56  1  0  0  0
 48 65  1  0  0  0
 48118  1  0  0  0
 49 50  1  0  0  0
 49 53  1  0  0  0
 49 64  1  0  0  0
 49119  1  0  0  0
 50 51  1  0  0  0
 50120  1  0  0  0
 50121  1  0  0  0
 51 52  1  0  0  0
 51122  1  0  0  0
 51123  1  0  0  0
 52124  1  0  0  0
 52125  1  0  0  0
 53 54  1  0  0  0
 54 55  2  0  0  0
 54126  1  0  0  0
 55 57  1  0  0  0
 55127  1  0  0  0
 56 69  2  0  0  0
 57 58  2  0  0  0
 57128  1  0  0  0
 58129  1  0  0  0
 59 60  1  0  0  0
 59 61  1  0  0  0
 59 62  1  0  0  0
 60130  1  0  0  0
 60131  1  0  0  0
 60132  1  0  0  0
 61133  1  0  0  0
 61134  1  0  0  0
 61135  1  0  0  0
 62136  1  0  0  0
 62137  1  0  0  0
 62138  1  0  0  0
 63 65  1  0  0  0
 63139  1  0  0  0
 63140  1  0  0  0
 63141  1  0  0  0
 64142  1  0  0  0
 65143  1  0  0  0
 68 81  1  0  0  0
 71 72  2  0  0  0
 71 83  1  0  0  0
 71144  1  0  0  0
 72 73  1  0  0  0
 72 79  1  0  0  0
 73 74  2  0  0  0
 73 75  1  0  0  0
 74 76  1  0  0  0
 74 83  1  0  0  0
 75145  1  0  0  0
 75146  1  0  0  0
 75147  1  0  0  0
 76148  1  0  0  0
 76149  1  0  0  0
 76150  1  0  0  0
 77151  1  0  0  0
 77152  1  0  0  0
 77153  1  0  0  0
 77 82  1  0  0  0
 78 82  1  0  0  0
 78154  1  0  0  0
 78155  1  0  0  0
 78156  1  0  0  0
 79 84  1  0  0  0
 79157  1  0  0  0
 79158  1  0  0  0
 80 82  1  0  0  0
 80 83  1  0  0  0
 80159  1  0  0  0
 80160  1  0  0  0
 81 82  1  0  0  0
 81161  1  0  0  0
 81162  1  0  0  0
 84163  1  0  0  0
M  ISO  4   1 100  68 101  81 101  84 100
M  END
> <chiral flag>
0

> <version>
0

> <s_m_source_file>
/data/baiqing/PycharmProjects/Reinvent-master-3.2/result/LINK_invent/BTK/process_docking_weight1_custom_sum_contain_oxygen_bond_distance_aromatic_linkinvent_7_9_3/rearranged_h_0098.sdf

> <i_m_source_file_index>
27

> <r_mmod_Potential_Energy-OPLS-2005>
106.663154602051

> <r_mmod_Stretch_Energy-OPLS-2005>
127.036521911621

> <r_mmod_Bend_Energy-OPLS-2005>
202.395324707031

> <r_mmod_Torsional_Energy-OPLS-2005>
215.844314575195

> <r_mmod_Improper_Torsional_Energy-OPLS-2005>
7.83057165145874

> <r_mmod_Van_der_Waal_Energy-OPLS-2005>
109.742065429688

> <r_mmod_Electrostatic_Energy-OPLS-2005>
-431.449340820312

> <r_mmod_Solvation_Energy-OPLS-2005>
-204.758087158203

> <b_mmod_Minimization_Converged-OPLS-2005>
0

> <r_mmod_RMS_Derivative-OPLS-2005>
3.65372753143311

$$$$
28
                    3D
 Structure written by MMmdl.
182190  0  0  1  0            999 V2000
  -30.6952  -14.4133   20.7156 C   0  0  0  0  0  0
  -30.4371  -12.3444   19.3764 C   0  0  0  0  0  0
  -29.4781  -12.5480   18.1828 C   0  0  0  0  0  0
  -27.9990  -12.3883   18.5924 C   0  0  0  0  0  0
  -27.6597  -13.1770   19.8799 C   0  0  2  0  0  0
  -28.7055  -12.8447   20.9651 C   0  0  0  0  0  0
  -25.2625  -13.8071   20.5770 C   0  0  0  0  0  0
  -24.1853  -13.0427   20.9262 C   0  0  0  0  0  0
  -24.6381  -11.6866   20.8841 C   0  0  0  0  0  0
  -23.9061  -10.4284   21.0450 C   0  0  0  0  0  0
  -24.3626   -9.4184   21.9205 C   0  0  0  0  0  0
  -23.6287   -8.2228   22.0765 C   0  0  0  0  0  0
  -22.4262   -8.0306   21.3554 C   0  0  0  0  0  0
  -21.9920   -9.0283   20.4646 C   0  0  0  0  0  0
  -22.7269  -10.2143   20.3059 C   0  0  0  0  0  0
  -21.6822   -6.0794   22.5303 C   0  0  0  0  0  0
  -21.4000   -6.5680   23.8260 C   0  0  0  0  0  0
  -21.3663   -5.6804   24.9206 C   0  0  0  0  0  0
  -21.6038   -4.3061   24.7239 C   0  0  0  0  0  0
  -21.8818   -3.8194   23.4338 C   0  0  0  0  0  0
  -21.9183   -4.7030   22.3418 C   0  0  0  0  0  0
  -22.7900  -13.5278   21.1891 C   0  0  0  0  0  0
  -22.1697   -4.2245   21.0989 F   0  0  0  0  0  0
  -21.5611   -3.4523   25.7717 F   0  0  0  0  0  0
  -30.0264  -13.2500   20.4632 N   0  0  0  0  0  0
  -26.3005  -12.9194   20.3393 N   0  0  0  0  0  0
  -25.9271  -11.6376   20.5784 N   0  0  0  0  0  0
  -22.0488  -12.8298   22.0415 N   0  0  0  0  0  0
  -25.4399  -15.1779   20.4227 N   0  0  0  0  0  0
  -31.7508  -14.6992   20.1454 O   0  0  0  0  0  0
  -21.6614   -6.8919   21.4252 O   0  0  0  0  0  0
  -22.3641  -14.5579   20.6655 O   0  0  0  0  0  0
  -24.6127  -31.8661   23.2142 C   0  0  0  0  0  0
  -25.9052  -32.4789   23.8384 C   0  0  1  0  0  0
  -27.2455  -27.4747   20.0536 C   0  0  0  0  0  0
  -25.5943  -33.8593   24.2320 N   0  0  0  0  0  0
  -23.3974  -30.4922   21.5533 C   0  0  2  0  0  0
  -24.8426  -28.9661   20.1194 C   0  0  0  0  0  0
  -22.7391  -29.4647   22.4993 C   0  0  0  0  0  0
  -18.0279  -28.1375   22.8474 C   0  0  0  0  0  0
  -24.1518  -36.7303   23.2624 C   0  0  0  0  0  0
  -25.9264  -30.8396   21.3662 C   0  0  0  0  0  0
  -26.0034  -29.4811   20.7046 C   0  0  0  0  0  0
  -27.2047  -28.7437   20.6709 C   0  0  0  0  0  0
  -26.0555  -26.9631   19.4801 C   0  0  0  0  0  0
  -24.8591  -27.6968   19.5181 C   0  0  0  0  0  0
  -23.6057  -29.8283   20.1667 C   0  0  0  0  0  0
  -25.4149  -36.3092   24.0310 C   0  0  1  0  0  0
  -20.5871  -28.3703   23.1334 C   0  0  2  0  0  0
  -20.6827  -26.9416   22.5545 C   0  0  0  0  0  0
  -19.5888  -26.6383   21.5261 C   0  0  0  0  0  0
  -18.1980  -26.7963   22.1483 C   0  0  0  0  0  0
  -19.1521  -28.8859   23.2905 C   0  0  0  0  0  0
  -18.9445  -30.1485   23.8897 C   0  0  0  0  0  0
  -17.6439  -30.6597   24.0546 C   0  0  0  0  0  0
  -25.9070  -34.9450   23.5102 C   0  0  0  0  0  0
  -16.5346  -29.9088   23.6318 C   0  0  0  0  0  0
  -16.7251  -28.6502   23.0310 C   0  0  0  0  0  0
  -26.4528  -31.6546   25.0676 C   0  0  0  0  0  0
  -25.3818  -31.3654   26.1432 C   0  0  0  0  0  0
  -27.0353  -30.2970   24.6049 C   0  0  0  0  0  0
  -27.6093  -32.4276   25.7444 C   0  0  0  0  0  0
  -27.5599  -37.1809   24.8455 C   0  0  0  0  0  0
  -21.4130  -29.2997   22.3656 N   0  0  0  0  0  0
  -26.4327  -37.3785   23.9384 N   0  0  0  0  0  0
  -24.6618  -31.0824   22.1002 N   0  0  0  0  0  0
  -23.4165  -28.8230   23.3080 O   0  0  0  0  0  0
  -28.4503  -26.8008   20.0391 O   0  0  0  0  0  0
  -26.5601  -34.8899   22.4643 O   0  0  0  0  0  0
  -23.5318  -32.1413   23.7553 O   0  0  0  0  0  0
  -25.1926  -18.2537   22.5196 C   0  0  0  0  0  0
  -26.5253  -18.1689   22.0664 C   0  0  0  0  0  0
  -24.8513  -17.7933   23.8064 C   0  0  0  0  0  0
  -27.4740  -17.5492   22.9186 C   0  0  0  0  0  0
  -25.8843  -17.2533   24.6058 C   0  0  0  0  0  0
  -25.6572  -16.7579   26.0217 C   0  0  0  0  0  0
  -22.4887  -16.9521   23.4421 C   0  0  0  0  0  0
  -22.8699  -19.3018   24.3308 C   0  0  0  0  0  0
  -25.1705  -22.9367   21.2189 C   0  0  0  0  0  0
  -26.8629  -18.7327   20.6863 C   0  0  0  0  0  0
  -28.8998  -17.1758   22.5008 C   0  0  0  0  0  0
  -26.4198  -20.2007   20.5011 C   0  0  0  0  0  0
  -27.8312  -24.6220   20.8769 C   0  0  0  0  0  0
  -28.9247  -15.7411   21.9441 C   0  0  0  0  0  0
  -26.7811  -21.1074   21.7056 C   0  0  0  0  0  0
  -27.5395  -23.1575   20.5173 C   0  0  0  0  0  0
  -28.4686  -25.4101   19.7236 C   0  0  0  0  0  0
  -23.3984  -17.8620   24.2822 C   0  0  0  0  0  0
  -27.1500  -17.1303   24.1613 N   0  0  0  0  0  0
  -30.2731  -15.1862   21.7345 N   0  0  0  0  0  0
  -26.5827  -22.5608   21.4799 N   0  3  1  0  0  0
  -31.4654  -12.5272   19.0539 H   0  0  0  0  0  0
  -30.4184  -11.3115   19.7256 H   0  0  0  0  0  0
  -29.7185  -11.8547   17.3767 H   0  0  0  0  0  0
  -29.6287  -13.5444   17.7656 H   0  0  0  0  0  0
  -27.7980  -11.3276   18.7387 H   0  0  0  0  0  0
  -27.3540  -12.7144   17.7747 H   0  0  0  0  0  0
  -27.7199  -14.2292   19.6125 H   0  0  0  0  0  0
  -28.7158  -11.7646   21.1254 H   0  0  0  0  0  0
  -28.4501  -13.2324   21.9424 H   0  0  0  0  0  0
  -25.2768   -9.5670   22.4794 H   0  0  0  0  0  0
  -24.0017   -7.4582   22.7434 H   0  0  0  0  0  0
  -21.0883   -8.8803   19.8911 H   0  0  0  0  0  0
  -22.3751  -10.9710   19.6181 H   0  0  0  0  0  0
  -21.2003   -7.6186   23.9819 H   0  0  0  0  0  0
  -21.1484   -6.0510   25.9119 H   0  0  0  0  0  0
  -22.0581   -2.7665   23.2789 H   0  0  0  0  0  0
  -22.4014  -11.9953   22.4877 H   0  0  0  0  0  0
  -21.1082  -13.1299   22.2474 H   0  0  0  0  0  0
  -24.7009  -15.8341   20.6397 H   0  0  0  0  0  0
  -26.2960  -15.6276   20.1327 H   0  0  0  0  0  0
  -26.7082  -32.5541   23.1112 H   0  0  0  0  0  0
  -25.0211  -33.9745   25.0537 H   0  0  0  0  0  0
  -22.6818  -31.3049   21.4186 H   0  0  0  0  0  0
  -23.3774  -35.9646   23.3301 H   0  0  0  0  0  0
  -24.3600  -36.8891   22.2033 H   0  0  0  0  0  0
  -23.7290  -37.6514   23.6639 H   0  0  0  0  0  0
  -26.0604  -31.6142   20.6083 H   0  0  0  0  0  0
  -26.8032  -30.8739   21.9991 H   0  0  0  0  0  0
  -28.1009  -29.1412   21.1265 H   0  0  0  0  0  0
  -26.0176  -25.9973   19.0003 H   0  0  0  0  0  0
  -23.9625  -27.2816   19.0790 H   0  0  0  0  0  0
  -23.7148  -30.6030   19.4056 H   0  0  0  0  0  0
  -22.7319  -29.2421   19.8744 H   0  0  0  0  0  0
  -25.1338  -36.1950   25.0804 H   0  0  0  0  0  0
  -20.9931  -28.3368   24.1467 H   0  0  0  0  0  0
  -20.5762  -26.2358   23.3802 H   0  0  0  0  0  0
  -21.6733  -26.7461   22.1413 H   0  0  0  0  0  0
  -19.7143  -25.6313   21.1268 H   0  0  0  0  0  0
  -19.6937  -27.3213   20.6830 H   0  0  0  0  0  0
  -17.4414  -26.6933   21.3686 H   0  0  0  0  0  0
  -18.0234  -25.9994   22.8732 H   0  0  0  0  0  0
  -19.7911  -30.7331   24.2259 H   0  0  0  0  0  0
  -17.4948  -31.6292   24.5138 H   0  0  0  0  0  0
  -15.5342  -30.2948   23.7703 H   0  0  0  0  0  0
  -15.8655  -28.0844   22.6965 H   0  0  0  0  0  0
  -24.6013  -30.6959   25.7804 H   0  0  0  0  0  0
  -24.9004  -32.2801   26.4878 H   0  0  0  0  0  0
  -25.8198  -30.8851   27.0177 H   0  0  0  0  0  0
  -26.2861  -29.6681   24.1201 H   0  0  0  0  0  0
  -27.4217  -29.7264   25.4505 H   0  0  0  0  0  0
  -27.8674  -30.4254   23.9121 H   0  0  0  0  0  0
  -27.2688  -33.3561   26.2036 H   0  0  0  0  0  0
  -28.3904  -32.6819   25.0275 H   0  0  0  0  0  0
  -28.0748  -31.8377   26.5342 H   0  0  0  0  0  0
  -28.2622  -38.0099   24.7517 H   0  0  0  0  0  0
  -28.1085  -36.2631   24.6303 H   0  0  0  0  0  0
  -27.2283  -37.1471   25.8841 H   0  0  0  0  0  0
  -20.9329  -29.8602   21.6758 H   0  0  0  0  0  0
  -26.0202  -38.2849   24.1398 H   0  0  0  0  0  0
  -24.4368  -18.6805   21.8769 H   0  0  0  0  0  0
  -24.9454  -15.9315   26.0282 H   0  0  0  0  0  0
  -25.2677  -17.5602   26.6484 H   0  0  0  0  0  0
  -26.5854  -16.4114   26.4780 H   0  0  0  0  0  0
  -22.8484  -15.9210   23.4547 H   0  0  0  0  0  0
  -22.4405  -17.2740   22.4006 H   0  0  0  0  0  0
  -21.4693  -16.9454   23.8306 H   0  0  0  0  0  0
  -23.4783  -19.9161   24.9970 H   0  0  0  0  0  0
  -21.8472  -19.3191   24.7114 H   0  0  0  0  0  0
  -22.8665  -19.7714   23.3452 H   0  0  0  0  0  0
  -24.5293  -22.6482   22.0506 H   0  0  0  0  0  0
  -24.7898  -22.4675   20.3114 H   0  0  0  0  0  0
  -25.0538  -24.0116   21.0961 H   0  0  0  0  0  0
  -26.4031  -18.1045   19.9227 H   0  0  0  0  0  0
  -27.9313  -18.6886   20.4922 H   0  0  0  0  0  0
  -29.5421  -17.2323   23.3792 H   0  0  0  0  0  0
  -29.3273  -17.8772   21.7903 H   0  0  0  0  0  0
  -25.3423  -20.2274   20.3342 H   0  0  0  0  0  0
  -26.8711  -20.5839   19.5868 H   0  0  0  0  0  0
  -28.4568  -24.6828   21.7687 H   0  0  0  0  0  0
  -26.9079  -25.1184   21.1570 H   0  0  0  0  0  0
  -28.3537  -15.7283   21.0203 H   0  0  0  0  0  0
  -28.3921  -15.1313   22.6723 H   0  0  0  0  0  0
  -27.8149  -20.9200   22.0019 H   0  0  0  0  0  0
  -26.1755  -20.8370   22.5710 H   0  0  0  0  0  0
  -28.4803  -22.6075   20.5243 H   0  0  0  0  0  0
  -27.1451  -23.0697   19.5035 H   0  0  0  0  0  0
  -27.9878  -25.2096   18.7653 H   0  0  0  0  0  0
  -29.5073  -25.1020   19.6076 H   0  0  0  0  0  0
  -23.3288  -17.4888   25.3012 H   0  0  0  0  0  0
  -31.0035  -15.7948   22.0754 H   0  0  0  0  0  0
  -26.8198  -22.9812   22.3668 H   0  0  0  0  0  0
  1 25  1  0  0  0
  1 30  2  0  0  0
  1 90  1  0  0  0
  2  3  1  0  0  0
  2 25  1  0  0  0
  2 92  1  0  0  0
  2 93  1  0  0  0
  3  4  1  0  0  0
  3 94  1  0  0  0
  3 95  1  0  0  0
  4  5  1  0  0  0
  4 96  1  0  0  0
  4 97  1  0  0  0
  5  6  1  0  0  0
  5 26  1  0  0  0
  5 98  1  0  0  0
  6 25  1  0  0  0
  6 99  1  0  0  0
  6100  1  0  0  0
  7  8  2  0  0  0
  7 26  1  0  0  0
  7 29  1  0  0  0
  8  9  1  0  0  0
  8 22  1  0  0  0
  9 10  1  0  0  0
  9 27  2  0  0  0
 10 11  2  0  0  0
 10 15  1  0  0  0
 11 12  1  0  0  0
 11101  1  0  0  0
 12 13  2  0  0  0
 12102  1  0  0  0
 13 14  1  0  0  0
 13 31  1  0  0  0
 14 15  2  0  0  0
 14103  1  0  0  0
 15104  1  0  0  0
 16 17  2  0  0  0
 16 21  1  0  0  0
 16 31  1  0  0  0
 17 18  1  0  0  0
 17105  1  0  0  0
 18 19  2  0  0  0
 18106  1  0  0  0
 19 20  1  0  0  0
 19 24  1  0  0  0
 20 21  2  0  0  0
 20107  1  0  0  0
 21 23  1  0  0  0
 22 28  1  0  0  0
 22 32  2  0  0  0
 26 27  1  0  0  0
 28108  1  0  0  0
 28109  1  0  0  0
 29110  1  0  0  0
 29111  1  0  0  0
 33 34  1  0  0  0
 33 66  1  0  0  0
 33 70  2  0  0  0
 34 36  1  0  0  0
 34 59  1  0  0  0
 34112  1  0  0  0
 35 44  2  0  0  0
 35 45  1  0  0  0
 35 68  1  0  0  0
 36 56  1  0  0  0
 36113  1  0  0  0
 37 39  1  0  0  0
 37 47  1  0  0  0
 37 66  1  0  0  0
 37114  1  0  0  0
 38 43  2  0  0  0
 38 46  1  0  0  0
 38 47  1  0  0  0
 39 64  1  0  0  0
 39 67  2  0  0  0
 40 52  1  0  0  0
 40 53  2  0  0  0
 40 58  1  0  0  0
 41115  1  0  0  0
 41116  1  0  0  0
 41117  1  0  0  0
 41 48  1  0  0  0
 42 43  1  0  0  0
 42 66  1  0  0  0
 42118  1  0  0  0
 42119  1  0  0  0
 43 44  1  0  0  0
 44120  1  0  0  0
 45 46  2  0  0  0
 45121  1  0  0  0
 46122  1  0  0  0
 47123  1  0  0  0
 47124  1  0  0  0
 48 56  1  0  0  0
 48 65  1  0  0  0
 48125  1  0  0  0
 49 50  1  0  0  0
 49 53  1  0  0  0
 49 64  1  0  0  0
 49126  1  0  0  0
 50 51  1  0  0  0
 50127  1  0  0  0
 50128  1  0  0  0
 51 52  1  0  0  0
 51129  1  0  0  0
 51130  1  0  0  0
 52131  1  0  0  0
 52132  1  0  0  0
 53 54  1  0  0  0
 54 55  2  0  0  0
 54133  1  0  0  0
 55 57  1  0  0  0
 55134  1  0  0  0
 56 69  2  0  0  0
 57 58  2  0  0  0
 57135  1  0  0  0
 58136  1  0  0  0
 59 60  1  0  0  0
 59 61  1  0  0  0
 59 62  1  0  0  0
 60137  1  0  0  0
 60138  1  0  0  0
 60139  1  0  0  0
 61140  1  0  0  0
 61141  1  0  0  0
 61142  1  0  0  0
 62143  1  0  0  0
 62144  1  0  0  0
 62145  1  0  0  0
 63 65  1  0  0  0
 63146  1  0  0  0
 63147  1  0  0  0
 63148  1  0  0  0
 64149  1  0  0  0
 65150  1  0  0  0
 68 87  1  0  0  0
 71 72  2  0  0  0
 71 73  1  0  0  0
 71151  1  0  0  0
 72 74  1  0  0  0
 72 80  1  0  0  0
 73 75  2  0  0  0
 73 88  1  0  0  0
 74 81  1  0  0  0
 74 89  2  0  0  0
 75 76  1  0  0  0
 75 89  1  0  0  0
 76152  1  0  0  0
 76153  1  0  0  0
 76154  1  0  0  0
 77155  1  0  0  0
 77156  1  0  0  0
 77157  1  0  0  0
 77 88  1  0  0  0
 78 88  1  0  0  0
 78158  1  0  0  0
 78159  1  0  0  0
 78160  1  0  0  0
 79161  1  0  0  0
 79162  1  0  0  0
 79163  1  0  0  0
 79 91  1  0  0  0
 80 82  1  0  0  0
 80164  1  0  0  0
 80165  1  0  0  0
 81 84  1  0  0  0
 81166  1  0  0  0
 81167  1  0  0  0
 82 85  1  0  0  0
 82168  1  0  0  0
 82169  1  0  0  0
 83 86  1  0  0  0
 83 87  1  0  0  0
 83170  1  0  0  0
 83171  1  0  0  0
 84 90  1  0  0  0
 84172  1  0  0  0
 84173  1  0  0  0
 85 91  1  0  0  0
 85174  1  0  0  0
 85175  1  0  0  0
 86 91  1  0  0  0
 86176  1  0  0  0
 86177  1  0  0  0
 87178  1  0  0  0
 87179  1  0  0  0
 88180  1  0  0  0
 90181  1  0  0  0
 91182  1  0  0  0
M  CHG  1  91   1
M  ISO  4   1 100  68 101  87 101  90 100
M  END
> <chiral flag>
0

> <version>
0

> <s_m_source_file>
/data/baiqing/PycharmProjects/Reinvent-master-3.2/result/LINK_invent/BTK/process_docking_weight1_custom_sum_contain_oxygen_bond_distance_aromatic_linkinvent_7_9_3/rearranged_h_0098.sdf

> <i_m_source_file_index>
28

> <r_mmod_Potential_Energy-OPLS-2005>
-260.712097167969

> <r_mmod_Stretch_Energy-OPLS-2005>
36.4051971435547

> <r_mmod_Bend_Energy-OPLS-2005>
124.812362670898

> <r_mmod_Torsional_Energy-OPLS-2005>
247.322372436523

> <r_mmod_Improper_Torsional_Energy-OPLS-2005>
6.07610511779785

> <r_mmod_Van_der_Waal_Energy-OPLS-2005>
158.633865356445

> <r_mmod_Electrostatic_Energy-OPLS-2005>
-398.647796630859

> <r_mmod_Solvation_Energy-OPLS-2005>
-447.821014404297

> <b_mmod_Minimization_Converged-OPLS-2005>
0

> <r_mmod_RMS_Derivative-OPLS-2005>
5.22675752639771

$$$$
29
                    3D
 Structure written by MMmdl.
172180  0  0  1  0            999 V2000
  -30.6916  -14.5092   20.5711 C   0  0  0  0  0  0
  -30.4256  -12.3364   19.4122 C   0  0  0  0  0  0
  -29.4882  -12.4971   18.1979 C   0  0  0  0  0  0
  -28.0117  -12.3531   18.6185 C   0  0  0  0  0  0
  -27.6549  -13.2083   19.8633 C   0  0  2  0  0  0
  -28.7008  -13.0138   20.9815 C   0  0  0  0  0  0
  -25.2572  -13.8174   20.5690 C   0  0  0  0  0  0
  -24.1832  -13.0444   20.9193 C   0  0  0  0  0  0
  -24.6392  -11.6908   20.8754 C   0  0  0  0  0  0
  -23.9065  -10.4294   21.0419 C   0  0  0  0  0  0
  -24.3620   -9.4207   21.9194 C   0  0  0  0  0  0
  -23.6291   -8.2242   22.0762 C   0  0  0  0  0  0
  -22.4271   -8.0285   21.3547 C   0  0  0  0  0  0
  -21.9913   -9.0264   20.4650 C   0  0  0  0  0  0
  -22.7246  -10.2139   20.3061 C   0  0  0  0  0  0
  -21.6850   -6.0733   22.5281 C   0  0  0  0  0  0
  -21.4012   -6.5637   23.8215 C   0  0  0  0  0  0
  -21.3658   -5.6791   24.9178 C   0  0  0  0  0  0
  -21.6044   -4.3054   24.7229 C   0  0  0  0  0  0
  -21.8820   -3.8146   23.4351 C   0  0  0  0  0  0
  -21.9192   -4.6961   22.3404 C   0  0  0  0  0  0
  -22.7855  -13.5243   21.1854 C   0  0  0  0  0  0
  -22.1657   -4.2146   21.0982 F   0  0  0  0  0  0
  -21.5632   -3.4538   25.7742 F   0  0  0  0  0  0
  -30.0208  -13.3340   20.4149 N   0  0  0  0  0  0
  -26.2996  -12.9338   20.3331 N   0  0  0  0  0  0
  -25.9313  -11.6500   20.5769 N   0  0  0  0  0  0
  -22.0490  -12.8226   22.0400 N   0  0  0  0  0  0
  -25.4305  -15.1888   20.4098 N   0  0  0  0  0  0
  -31.8379  -14.6898   20.1558 O   0  0  0  0  0  0
  -21.6638   -6.8882   21.4242 O   0  0  0  0  0  0
  -22.3546  -14.5550   20.6703 O   0  0  0  0  0  0
  -24.6159  -31.8642   23.2073 C   0  0  0  0  0  0
  -25.9034  -32.4792   23.8392 C   0  0  1  0  0  0
  -27.2340  -27.3890   20.0917 C   0  0  0  0  0  0
  -25.5865  -33.8598   24.2323 N   0  0  0  0  0  0
  -23.4050  -30.4882   21.5509 C   0  0  2  0  0  0
  -24.8505  -28.9489   20.1168 C   0  0  0  0  0  0
  -22.7400  -29.4653   22.5007 C   0  0  0  0  0  0
  -18.0262  -28.1367   22.8495 C   0  0  0  0  0  0
  -24.1482  -36.7327   23.2643 C   0  0  0  0  0  0
  -25.9377  -30.8173   21.3646 C   0  0  0  0  0  0
  -26.0148  -29.4484   20.7114 C   0  0  0  0  0  0
  -27.2063  -28.6768   20.6928 C   0  0  0  0  0  0
  -26.0351  -26.9107   19.5087 C   0  0  0  0  0  0
  -24.8589  -27.6820   19.5143 C   0  0  0  0  0  0
  -23.6113  -29.8152   20.1685 C   0  0  0  0  0  0
  -25.4092  -36.3092   24.0341 C   0  0  1  0  0  0
  -20.5848  -28.3657   23.1320 C   0  0  2  0  0  0
  -20.6750  -26.9394   22.5416 C   0  0  0  0  0  0
  -19.5735  -26.6368   21.5206 C   0  0  0  0  0  0
  -18.1914  -26.7912   22.1617 C   0  0  0  0  0  0
  -19.1512  -28.8833   23.2898 C   0  0  0  0  0  0
  -18.9434  -30.1440   23.8909 C   0  0  0  0  0  0
  -17.6436  -30.6579   24.0556 C   0  0  0  0  0  0
  -25.9015  -34.9453   23.5132 C   0  0  0  0  0  0
  -16.5332  -29.9073   23.6335 C   0  0  0  0  0  0
  -16.7251  -28.6490   23.0363 C   0  0  0  0  0  0
  -26.4451  -31.6584   25.0737 C   0  0  0  0  0  0
  -25.3716  -31.3668   26.1494 C   0  0  0  0  0  0
  -27.0308  -30.3030   24.6144 C   0  0  0  0  0  0
  -27.6029  -32.4322   25.7477 C   0  0  0  0  0  0
  -27.5578  -37.1803   24.8460 C   0  0  0  0  0  0
  -21.4126  -29.3036   22.3745 N   0  0  0  0  0  0
  -26.4287  -37.3766   23.9407 N   0  0  0  0  0  0
  -24.6722  -31.0705   22.0995 N   0  0  0  0  0  0
  -23.4167  -28.8195   23.3051 O   0  0  0  0  0  0
  -28.4184  -26.6585   20.1040 O   0  0  0  0  0  0
  -26.5594  -34.8907   22.4706 O   0  0  0  0  0  0
  -23.5341  -32.1437   23.7442 O   0  0  0  0  0  0
  -30.1306  -19.7208   19.4131 C   0  0  0  0  0  0
  -30.1641  -19.0842   20.6794 C   0  0  0  0  0  0
  -28.8470  -21.4783   20.2551 C   0  0  0  0  0  0
  -28.8495  -20.8251   21.5239 C   0  0  0  0  0  0
  -27.2450  -18.6272   24.2116 C   0  0  0  0  0  0
  -25.1204  -18.6647   22.8452 C   0  0  0  0  0  0
  -28.0467  -22.7633   19.9210 C   0  0  0  0  0  0
  -28.0393  -21.3267   22.7115 C   0  0  0  0  0  0
  -28.5253  -24.1368   20.5082 C   0  0  0  0  0  0
  -26.6323  -20.6966   22.8201 C   0  0  0  0  0  0
  -30.5791  -16.6950   21.8115 C   0  0  0  0  0  0
  -28.5158  -25.3377   19.5054 C   0  0  0  0  0  0
  -31.1265  -17.9039   20.9645 C   0  0  2  0  0  0
  -26.5734  -19.1534   22.9302 C   0  0  0  0  0  0
  -29.5032  -20.9115   19.2085 N   0  0  0  0  0  0
  -29.5475  -19.6710   21.7403 N   0  0  0  0  0  0
  -29.9934  -15.5214   21.1287 N   0  0  0  0  0  0
  -32.2501  -18.5082   21.6942 N   0  3  0  0  0  0
  -31.4660  -12.4515   19.1039 H   0  0  0  0  0  0
  -30.3471  -11.3305   19.8288 H   0  0  0  0  0  0
  -29.7298  -11.7565   17.4338 H   0  0  0  0  0  0
  -29.6452  -13.4735   17.7377 H   0  0  0  0  0  0
  -27.8304  -11.2991   18.8316 H   0  0  0  0  0  0
  -27.3560  -12.6096   17.7861 H   0  0  0  0  0  0
  -27.6906  -14.2512   19.5487 H   0  0  0  0  0  0
  -28.6921  -11.9819   21.3344 H   0  0  0  0  0  0
  -28.4593  -13.6221   21.8540 H   0  0  0  0  0  0
  -25.2766   -9.5671   22.4765 H   0  0  0  0  0  0
  -23.9994   -7.4632   22.7479 H   0  0  0  0  0  0
  -21.0844   -8.8792   19.8951 H   0  0  0  0  0  0
  -22.3720  -10.9683   19.6167 H   0  0  0  0  0  0
  -21.2005   -7.6146   23.9716 H   0  0  0  0  0  0
  -21.1474   -6.0521   25.9079 H   0  0  0  0  0  0
  -22.0599   -2.7607   23.2855 H   0  0  0  0  0  0
  -22.4096  -11.9874   22.4764 H   0  0  0  0  0  0
  -21.1104  -13.1251   22.2599 H   0  0  0  0  0  0
  -24.6700  -15.8476   20.5344 H   0  0  0  0  0  0
  -26.2821  -15.6259   20.0814 H   0  0  0  0  0  0
  -26.7089  -32.5499   23.1151 H   0  0  0  0  0  0
  -24.9980  -33.9758   25.0447 H   0  0  0  0  0  0
  -22.6953  -31.3060   21.4092 H   0  0  0  0  0  0
  -23.3720  -35.9681   23.3298 H   0  0  0  0  0  0
  -24.3581  -36.8968   22.2059 H   0  0  0  0  0  0
  -23.7270  -37.6545   23.6676 H   0  0  0  0  0  0
  -26.0482  -31.5785   20.5917 H   0  0  0  0  0  0
  -26.8252  -30.8780   21.9818 H   0  0  0  0  0  0
  -28.1069  -29.0619   21.1524 H   0  0  0  0  0  0
  -25.9610  -25.9368   19.0523 H   0  0  0  0  0  0
  -23.9602  -27.2887   19.0594 H   0  0  0  0  0  0
  -23.7066  -30.5846   19.4013 H   0  0  0  0  0  0
  -22.7363  -29.2269   19.8858 H   0  0  0  0  0  0
  -25.1271  -36.1949   25.0830 H   0  0  0  0  0  0
  -20.9941  -28.3216   24.1437 H   0  0  0  0  0  0
  -20.5623  -26.2274   23.3602 H   0  0  0  0  0  0
  -21.6624  -26.7424   22.1228 H   0  0  0  0  0  0
  -19.6891  -25.6275   21.1253 H   0  0  0  0  0  0
  -19.6673  -27.3162   20.6720 H   0  0  0  0  0  0
  -17.4181  -26.6662   21.4020 H   0  0  0  0  0  0
  -18.0314  -26.0045   22.9004 H   0  0  0  0  0  0
  -19.7906  -30.7244   24.2301 H   0  0  0  0  0  0
  -17.4989  -31.6265   24.5140 H   0  0  0  0  0  0
  -15.5332  -30.2968   23.7664 H   0  0  0  0  0  0
  -15.8645  -28.0798   22.7092 H   0  0  0  0  0  0
  -24.5895  -30.7005   25.7842 H   0  0  0  0  0  0
  -24.8881  -32.2793   26.4977 H   0  0  0  0  0  0
  -25.8069  -30.8823   27.0243 H   0  0  0  0  0  0
  -26.2870  -29.6743   24.1224 H   0  0  0  0  0  0
  -27.4119  -29.7307   25.4615 H   0  0  0  0  0  0
  -27.8674  -30.4374   23.9279 H   0  0  0  0  0  0
  -27.2674  -33.3638   26.2046 H   0  0  0  0  0  0
  -28.3810  -32.6857   25.0268 H   0  0  0  0  0  0
  -28.0715  -31.8452   26.5392 H   0  0  0  0  0  0
  -28.2579  -38.0113   24.7504 H   0  0  0  0  0  0
  -28.1090  -36.2643   24.6275 H   0  0  0  0  0  0
  -27.2304  -37.1449   25.8867 H   0  0  0  0  0  0
  -20.9286  -29.8780   21.6987 H   0  0  0  0  0  0
  -26.0172  -38.2854   24.1378 H   0  0  0  0  0  0
  -30.6736  -19.3119   18.5723 H   0  0  0  0  0  0
  -27.1787  -17.5401   24.2741 H   0  0  0  0  0  0
  -26.7767  -19.0389   25.1052 H   0  0  0  0  0  0
  -28.3044  -18.8820   24.2438 H   0  0  0  0  0  0
  -25.0654  -17.5754   22.8679 H   0  0  0  0  0  0
  -24.6488  -18.9921   21.9183 H   0  0  0  0  0  0
  -24.5222  -19.0458   23.6738 H   0  0  0  0  0  0
  -27.0054  -22.5979   20.2040 H   0  0  0  0  0  0
  -28.0193  -22.8491   18.8337 H   0  0  0  0  0  0
  -27.9436  -22.4086   22.6572 H   0  0  0  0  0  0
  -28.6013  -21.1400   23.6273 H   0  0  0  0  0  0
  -29.5343  -24.0360   20.9106 H   0  0  0  0  0  0
  -27.8936  -24.3856   21.3606 H   0  0  0  0  0  0
  -26.0587  -21.0063   21.9477 H   0  0  0  0  0  0
  -26.1184  -21.1388   23.6760 H   0  0  0  0  0  0
  -29.8643  -17.0538   22.5532 H   0  0  0  0  0  0
  -31.3996  -16.2837   22.4018 H   0  0  0  0  0  0
  -27.8035  -25.1736   18.7015 H   0  0  0  0  0  0
  -29.4740  -25.3204   18.9830 H   0  0  0  0  0  0
  -31.5137  -17.5304   20.0150 H   0  0  0  0  0  0
  -27.0936  -18.7203   22.0762 H   0  0  0  0  0  0
  -29.0250  -15.3258   21.3326 H   0  0  0  0  0  0
  -31.9039  -18.9153   22.5445 H   0  0  0  0  0  0
  -32.6693  -19.2340   21.1438 H   0  0  0  0  0  0
  -32.9481  -17.8187   21.9059 H   0  0  0  0  0  0
  1 25  1  0  0  0
  1 30  2  0  0  0
  1 87  1  0  0  0
  2  3  1  0  0  0
  2 25  1  0  0  0
  2 89  1  0  0  0
  2 90  1  0  0  0
  3  4  1  0  0  0
  3 91  1  0  0  0
  3 92  1  0  0  0
  4  5  1  0  0  0
  4 93  1  0  0  0
  4 94  1  0  0  0
  5  6  1  0  0  0
  5 26  1  0  0  0
  5 95  1  0  0  0
  6 25  1  0  0  0
  6 96  1  0  0  0
  6 97  1  0  0  0
  7  8  2  0  0  0
  7 26  1  0  0  0
  7 29  1  0  0  0
  8  9  1  0  0  0
  8 22  1  0  0  0
  9 10  1  0  0  0
  9 27  2  0  0  0
 10 11  2  0  0  0
 10 15  1  0  0  0
 11 12  1  0  0  0
 11 98  1  0  0  0
 12 13  2  0  0  0
 12 99  1  0  0  0
 13 14  1  0  0  0
 13 31  1  0  0  0
 14 15  2  0  0  0
 14100  1  0  0  0
 15101  1  0  0  0
 16 17  2  0  0  0
 16 21  1  0  0  0
 16 31  1  0  0  0
 17 18  1  0  0  0
 17102  1  0  0  0
 18 19  2  0  0  0
 18103  1  0  0  0
 19 20  1  0  0  0
 19 24  1  0  0  0
 20 21  2  0  0  0
 20104  1  0  0  0
 21 23  1  0  0  0
 22 28  1  0  0  0
 22 32  2  0  0  0
 26 27  1  0  0  0
 28105  1  0  0  0
 28106  1  0  0  0
 29107  1  0  0  0
 29108  1  0  0  0
 33 34  1  0  0  0
 33 66  1  0  0  0
 33 70  2  0  0  0
 34 36  1  0  0  0
 34 59  1  0  0  0
 34109  1  0  0  0
 35 44  2  0  0  0
 35 45  1  0  0  0
 35 68  1  0  0  0
 36 56  1  0  0  0
 36110  1  0  0  0
 37 39  1  0  0  0
 37 47  1  0  0  0
 37 66  1  0  0  0
 37111  1  0  0  0
 38 43  2  0  0  0
 38 46  1  0  0  0
 38 47  1  0  0  0
 39 64  1  0  0  0
 39 67  2  0  0  0
 40 52  1  0  0  0
 40 53  2  0  0  0
 40 58  1  0  0  0
 41112  1  0  0  0
 41113  1  0  0  0
 41114  1  0  0  0
 41 48  1  0  0  0
 42 43  1  0  0  0
 42 66  1  0  0  0
 42115  1  0  0  0
 42116  1  0  0  0
 43 44  1  0  0  0
 44117  1  0  0  0
 45 46  2  0  0  0
 45118  1  0  0  0
 46119  1  0  0  0
 47120  1  0  0  0
 47121  1  0  0  0
 48 56  1  0  0  0
 48 65  1  0  0  0
 48122  1  0  0  0
 49 50  1  0  0  0
 49 53  1  0  0  0
 49 64  1  0  0  0
 49123  1  0  0  0
 50 51  1  0  0  0
 50124  1  0  0  0
 50125  1  0  0  0
 51 52  1  0  0  0
 51126  1  0  0  0
 51127  1  0  0  0
 52128  1  0  0  0
 52129  1  0  0  0
 53 54  1  0  0  0
 54 55  2  0  0  0
 54130  1  0  0  0
 55 57  1  0  0  0
 55131  1  0  0  0
 56 69  2  0  0  0
 57 58  2  0  0  0
 57132  1  0  0  0
 58133  1  0  0  0
 59 60  1  0  0  0
 59 61  1  0  0  0
 59 62  1  0  0  0
 60134  1  0  0  0
 60135  1  0  0  0
 60136  1  0  0  0
 61137  1  0  0  0
 61138  1  0  0  0
 61139  1  0  0  0
 62140  1  0  0  0
 62141  1  0  0  0
 62142  1  0  0  0
 63 65  1  0  0  0
 63143  1  0  0  0
 63144  1  0  0  0
 63145  1  0  0  0
 64146  1  0  0  0
 65147  1  0  0  0
 68 82  1  0  0  0
 71 72  2  0  0  0
 71 85  1  0  0  0
 71148  1  0  0  0
 72 83  1  0  0  0
 72 86  1  0  0  0
 73 74  1  0  0  0
 73 77  1  0  0  0
 73 85  2  0  0  0
 74 78  1  0  0  0
 74 86  2  0  0  0
 75149  1  0  0  0
 75150  1  0  0  0
 75151  1  0  0  0
 75 84  1  0  0  0
 76 84  1  0  0  0
 76152  1  0  0  0
 76153  1  0  0  0
 76154  1  0  0  0
 77 79  1  0  0  0
 77155  1  0  0  0
 77156  1  0  0  0
 78 80  1  0  0  0
 78157  1  0  0  0
 78158  1  0  0  0
 79 82  1  0  0  0
 79159  1  0  0  0
 79160  1  0  0  0
 80 84  1  0  0  0
 80161  1  0  0  0
 80162  1  0  0  0
 81 83  1  0  0  0
 81 87  1  0  0  0
 81163  1  0  0  0
 81164  1  0  0  0
 82165  1  0  0  0
 82166  1  0  0  0
 83 88  1  0  0  0
 83167  1  0  0  0
 84168  1  0  0  0
 87169  1  0  0  0
 88170  1  0  0  0
 88171  1  0  0  0
 88172  1  0  0  0
M  CHG  1  88   1
M  ISO  4   1 100  68 101  82 101  87 100
M  END
> <chiral flag>
0

> <version>
0

> <s_m_source_file>
/data/baiqing/PycharmProjects/Reinvent-master-3.2/result/LINK_invent/BTK/process_docking_weight1_custom_sum_contain_oxygen_bond_distance_aromatic_linkinvent_7_9_3/rearranged_h_0098.sdf

> <i_m_source_file_index>
29

> <r_mmod_Potential_Energy-OPLS-2005>
-332.793853759766

> <r_mmod_Stretch_Energy-OPLS-2005>
53.5477485656738

> <r_mmod_Bend_Energy-OPLS-2005>
136.461563110352

> <r_mmod_Torsional_Energy-OPLS-2005>
223.483932495117

> <r_mmod_Improper_Torsional_Energy-OPLS-2005>
5.03325223922729

> <r_mmod_Van_der_Waal_Energy-OPLS-2005>
146.29963684082

> <r_mmod_Electrostatic_Energy-OPLS-2005>
-434.785247802734

> <r_mmod_Solvation_Energy-OPLS-2005>
-482.115600585938

> <b_mmod_Minimization_Converged-OPLS-2005>
0

> <r_mmod_RMS_Derivative-OPLS-2005>
1.91345822811127

$$$$
30
                    3D
 Structure written by MMmdl.
156164  0  0  1  0            999 V2000
  -30.6740  -14.6391   20.4709 C   0  0  0  0  0  0
  -30.4106  -12.3898   19.4664 C   0  0  0  0  0  0
  -29.4961  -12.4872   18.2293 C   0  0  0  0  0  0
  -28.0239  -12.3223   18.6481 C   0  0  0  0  0  0
  -27.6390  -13.2289   19.8494 C   0  0  2  0  0  0
  -28.6816  -13.1552   20.9877 C   0  0  0  0  0  0
  -25.2480  -13.8204   20.5708 C   0  0  0  0  0  0
  -24.1769  -13.0435   20.9218 C   0  0  0  0  0  0
  -24.6374  -11.6925   20.8753 C   0  0  0  0  0  0
  -23.9054  -10.4295   21.0420 C   0  0  0  0  0  0
  -24.3615   -9.4210   21.9200 C   0  0  0  0  0  0
  -23.6301   -8.2230   22.0751 C   0  0  0  0  0  0
  -22.4284   -8.0270   21.3536 C   0  0  0  0  0  0
  -21.9909   -9.0241   20.4643 C   0  0  0  0  0  0
  -22.7219  -10.2135   20.3074 C   0  0  0  0  0  0
  -21.6844   -6.0738   22.5287 C   0  0  0  0  0  0
  -21.4006   -6.5640   23.8221 C   0  0  0  0  0  0
  -21.3674   -5.6794   24.9181 C   0  0  0  0  0  0
  -21.6057   -4.3057   24.7234 C   0  0  0  0  0  0
  -21.8810   -3.8148   23.4348 C   0  0  0  0  0  0
  -21.9181   -4.6963   22.3411 C   0  0  0  0  0  0
  -22.7797  -13.5221   21.1888 C   0  0  0  0  0  0
  -22.1654   -4.2147   21.0990 F   0  0  0  0  0  0
  -21.5625   -3.4544   25.7748 F   0  0  0  0  0  0
  -29.9945  -13.4536   20.4049 N   0  0  0  0  0  0
  -26.2909  -12.9419   20.3288 N   0  0  0  0  0  0
  -25.9306  -11.6567   20.5771 N   0  0  0  0  0  0
  -22.0464  -12.8205   22.0474 N   0  0  0  0  0  0
  -25.4141  -15.1912   20.4112 N   0  0  0  0  0  0
  -31.8612  -14.6932   20.1449 O   0  0  0  0  0  0
  -21.6628   -6.8875   21.4254 O   0  0  0  0  0  0
  -22.3489  -14.5539   20.6755 O   0  0  0  0  0  0
  -24.6236  -31.8609   23.2034 C   0  0  0  0  0  0
  -25.9111  -32.4778   23.8354 C   0  0  1  0  0  0
  -27.2181  -27.3301   20.1062 C   0  0  0  0  0  0
  -25.5954  -33.8591   24.2255 N   0  0  0  0  0  0
  -23.4130  -30.4821   21.5514 C   0  0  2  0  0  0
  -24.8548  -28.9363   20.1131 C   0  0  0  0  0  0
  -22.7434  -29.4612   22.4999 C   0  0  0  0  0  0
  -18.0264  -28.1382   22.8504 C   0  0  0  0  0  0
  -24.1478  -36.7275   23.2634 C   0  0  0  0  0  0
  -25.9514  -30.7935   21.3722 C   0  0  0  0  0  0
  -26.0232  -29.4221   20.7123 C   0  0  0  0  0  0
  -27.2025  -28.6249   20.7076 C   0  0  0  0  0  0
  -26.0249  -26.8848   19.4965 C   0  0  0  0  0  0
  -24.8558  -27.6707   19.5031 C   0  0  0  0  0  0
  -23.6208  -29.8136   20.1668 C   0  0  0  0  0  0
  -25.4116  -36.3066   24.0297 C   0  0  1  0  0  0
  -20.5859  -28.3656   23.1342 C   0  0  2  0  0  0
  -20.6776  -26.9393   22.5443 C   0  0  0  0  0  0
  -19.5756  -26.6387   21.5240 C   0  0  0  0  0  0
  -18.1923  -26.7926   22.1637 C   0  0  0  0  0  0
  -19.1516  -28.8835   23.2917 C   0  0  0  0  0  0
  -18.9433  -30.1444   23.8918 C   0  0  0  0  0  0
  -17.6440  -30.6601   24.0547 C   0  0  0  0  0  0
  -25.9062  -34.9452   23.5063 C   0  0  0  0  0  0
  -16.5333  -29.9090   23.6341 C   0  0  0  0  0  0
  -16.7251  -28.6505   23.0367 C   0  0  0  0  0  0
  -26.4447  -31.6627   25.0765 C   0  0  0  0  0  0
  -25.3625  -31.3828   26.1453 C   0  0  0  0  0  0
  -27.0282  -30.3039   24.6272 C   0  0  0  0  0  0
  -27.5996  -32.4334   25.7570 C   0  0  0  0  0  0
  -27.5555  -37.1786   24.8451 C   0  0  0  0  0  0
  -21.4150  -29.3018   22.3742 N   0  0  0  0  0  0
  -26.4276  -37.3770   23.9390 N   0  0  0  0  0  0
  -24.6815  -31.0612   22.0992 N   0  0  0  0  0  0
  -23.4163  -28.8162   23.3085 O   0  0  0  0  0  0
  -28.3571  -26.5209   20.1692 O   0  0  0  0  0  0
  -26.5623  -34.8905   22.4627 O   0  0  0  0  0  0
  -23.5415  -32.1404   23.7385 O   0  0  0  0  0  0
  -29.0288  -19.0938   21.4490 C   0  0  0  0  0  0
  -28.6870  -20.4823   21.4375 C   0  0  0  0  0  0
  -30.3344  -19.4246   19.4589 C   0  0  0  0  0  0
  -29.9088  -18.5395   20.4860 C   0  0  0  0  0  0
  -29.2078  -21.3907   20.4734 C   0  0  0  0  0  0
  -30.0044  -20.8133   19.4452 C   0  0  0  0  0  0
  -30.6181  -21.6872   18.3642 C   0  0  0  0  0  0
  -29.1201  -22.9531   20.6754 C   0  0  0  0  0  0
  -30.6404  -17.1574   20.6647 C   0  0  0  0  0  0
  -28.0599  -23.8391   19.9038 C   0  0  0  0  0  0
  -28.4915  -25.2850   19.3823 C   0  0  0  0  0  0
  -29.9807  -15.8037   20.6980 N   0  0  0  0  0  0
  -31.4560  -12.4741   19.1633 H   0  0  0  0  0  0
  -30.3148  -11.4109   19.9396 H   0  0  0  0  0  0
  -29.7629  -11.7206   17.5017 H   0  0  0  0  0  0
  -29.6350  -13.4481   17.7310 H   0  0  0  0  0  0
  -27.8789  -11.2751   18.9196 H   0  0  0  0  0  0
  -27.3603  -12.5098   17.8028 H   0  0  0  0  0  0
  -27.6404  -14.2515   19.4732 H   0  0  0  0  0  0
  -28.6851  -12.1722   21.4608 H   0  0  0  0  0  0
  -28.4350  -13.8683   21.7766 H   0  0  0  0  0  0
  -25.2772   -9.5664   22.4763 H   0  0  0  0  0  0
  -24.0008   -7.4614   22.7466 H   0  0  0  0  0  0
  -21.0827   -8.8777   19.8962 H   0  0  0  0  0  0
  -22.3694  -10.9676   19.6178 H   0  0  0  0  0  0
  -21.2009   -7.6151   23.9724 H   0  0  0  0  0  0
  -21.1507   -6.0526   25.9083 H   0  0  0  0  0  0
  -22.0577   -2.7609   23.2852 H   0  0  0  0  0  0
  -22.4101  -11.9859   22.4837 H   0  0  0  0  0  0
  -21.1093  -13.1217   22.2727 H   0  0  0  0  0  0
  -24.6415  -15.8396   20.5156 H   0  0  0  0  0  0
  -26.2600  -15.6379   20.0810 H   0  0  0  0  0  0
  -26.7185  -32.5407   23.1102 H   0  0  0  0  0  0
  -25.0071  -33.9746   25.0368 H   0  0  0  0  0  0
  -22.7067  -31.3024   21.4144 H   0  0  0  0  0  0
  -23.3747  -35.9601   23.3312 H   0  0  0  0  0  0
  -24.3542  -36.8892   22.2041 H   0  0  0  0  0  0
  -23.7233  -37.6480   23.6663 H   0  0  0  0  0  0
  -26.0809  -31.5622   20.6095 H   0  0  0  0  0  0
  -26.8301  -30.8386   22.0045 H   0  0  0  0  0  0
  -28.0985  -28.9875   21.1917 H   0  0  0  0  0  0
  -25.9639  -25.9083   19.0400 H   0  0  0  0  0  0
  -23.9520  -27.2834   19.0550 H   0  0  0  0  0  0
  -23.7308  -30.5890   19.4091 H   0  0  0  0  0  0
  -22.7375  -29.2411   19.8736 H   0  0  0  0  0  0
  -25.1307  -36.1901   25.0790 H   0  0  0  0  0  0
  -20.9934  -28.3237   24.1469 H   0  0  0  0  0  0
  -20.5747  -26.2239   23.3622 H   0  0  0  0  0  0
  -21.6640  -26.7510   22.1189 H   0  0  0  0  0  0
  -19.6926  -25.6301   21.1267 H   0  0  0  0  0  0
  -19.6702  -27.3209   20.6783 H   0  0  0  0  0  0
  -17.4198  -26.6665   21.4035 H   0  0  0  0  0  0
  -18.0302  -26.0072   22.9038 H   0  0  0  0  0  0
  -19.7910  -30.7252   24.2306 H   0  0  0  0  0  0
  -17.4996  -31.6286   24.5134 H   0  0  0  0  0  0
  -15.5332  -30.2988   23.7678 H   0  0  0  0  0  0
  -15.8639  -28.0830   22.7089 H   0  0  0  0  0  0
  -24.5832  -30.7117   25.7817 H   0  0  0  0  0  0
  -24.8722  -32.3014   26.4682 H   0  0  0  0  0  0
  -25.7890  -30.9181   27.0356 H   0  0  0  0  0  0
  -26.2909  -29.6831   24.1193 H   0  0  0  0  0  0
  -27.3780  -29.7236   25.4819 H   0  0  0  0  0  0
  -27.8830  -30.4292   23.9631 H   0  0  0  0  0  0
  -27.2627  -33.3667   26.2102 H   0  0  0  0  0  0
  -28.3889  -32.6814   25.0457 H   0  0  0  0  0  0
  -28.0577  -31.8464   26.5543 H   0  0  0  0  0  0
  -28.2578  -38.0081   24.7513 H   0  0  0  0  0  0
  -28.1047  -36.2615   24.6274 H   0  0  0  0  0  0
  -27.2259  -37.1415   25.8850 H   0  0  0  0  0  0
  -20.9311  -29.8665   21.6898 H   0  0  0  0  0  0
  -26.0152  -38.2832   24.1445 H   0  0  0  0  0  0
  -28.6893  -18.4761   22.2703 H   0  0  0  0  0  0
  -28.0834  -20.8684   22.2482 H   0  0  0  0  0  0
  -31.0191  -19.0571   18.7065 H   0  0  0  0  0  0
  -30.9014  -21.0995   17.4897 H   0  0  0  0  0  0
  -31.5142  -22.1793   18.7444 H   0  0  0  0  0  0
  -29.9237  -22.4585   18.0281 H   0  0  0  0  0  0
  -30.1094  -23.3461   20.4514 H   0  0  0  0  0  0
  -29.0062  -23.1430   21.7436 H   0  0  0  0  0  0
  -31.1995  -17.2447   21.5968 H   0  0  0  0  0  0
  -31.4077  -17.1335   19.8912 H   0  0  0  0  0  0
  -27.1225  -23.8867   20.4598 H   0  0  0  0  0  0
  -27.8108  -23.2786   19.0017 H   0  0  0  0  0  0
  -28.0264  -25.4521   18.4096 H   0  0  0  0  0  0
  -29.5515  -25.2224   19.1317 H   0  0  0  0  0  0
  -28.9984  -15.7514   20.9175 H   0  0  0  0  0  0
  1 25  1  0  0  0
  1 30  2  0  0  0
  1 82  1  0  0  0
  2  3  1  0  0  0
  2 25  1  0  0  0
  2 83  1  0  0  0
  2 84  1  0  0  0
  3  4  1  0  0  0
  3 85  1  0  0  0
  3 86  1  0  0  0
  4  5  1  0  0  0
  4 87  1  0  0  0
  4 88  1  0  0  0
  5  6  1  0  0  0
  5 26  1  0  0  0
  5 89  1  0  0  0
  6 25  1  0  0  0
  6 90  1  0  0  0
  6 91  1  0  0  0
  7  8  2  0  0  0
  7 26  1  0  0  0
  7 29  1  0  0  0
  8  9  1  0  0  0
  8 22  1  0  0  0
  9 10  1  0  0  0
  9 27  2  0  0  0
 10 11  2  0  0  0
 10 15  1  0  0  0
 11 12  1  0  0  0
 11 92  1  0  0  0
 12 13  2  0  0  0
 12 93  1  0  0  0
 13 14  1  0  0  0
 13 31  1  0  0  0
 14 15  2  0  0  0
 14 94  1  0  0  0
 15 95  1  0  0  0
 16 17  2  0  0  0
 16 21  1  0  0  0
 16 31  1  0  0  0
 17 18  1  0  0  0
 17 96  1  0  0  0
 18 19  2  0  0  0
 18 97  1  0  0  0
 19 20  1  0  0  0
 19 24  1  0  0  0
 20 21  2  0  0  0
 20 98  1  0  0  0
 21 23  1  0  0  0
 22 28  1  0  0  0
 22 32  2  0  0  0
 26 27  1  0  0  0
 28 99  1  0  0  0
 28100  1  0  0  0
 29101  1  0  0  0
 29102  1  0  0  0
 33 34  1  0  0  0
 33 66  1  0  0  0
 33 70  2  0  0  0
 34 36  1  0  0  0
 34 59  1  0  0  0
 34103  1  0  0  0
 35 44  2  0  0  0
 35 45  1  0  0  0
 35 68  1  0  0  0
 36 56  1  0  0  0
 36104  1  0  0  0
 37 39  1  0  0  0
 37 47  1  0  0  0
 37 66  1  0  0  0
 37105  1  0  0  0
 38 43  2  0  0  0
 38 46  1  0  0  0
 38 47  1  0  0  0
 39 64  1  0  0  0
 39 67  2  0  0  0
 40 52  1  0  0  0
 40 53  2  0  0  0
 40 58  1  0  0  0
 41106  1  0  0  0
 41107  1  0  0  0
 41108  1  0  0  0
 41 48  1  0  0  0
 42 43  1  0  0  0
 42 66  1  0  0  0
 42109  1  0  0  0
 42110  1  0  0  0
 43 44  1  0  0  0
 44111  1  0  0  0
 45 46  2  0  0  0
 45112  1  0  0  0
 46113  1  0  0  0
 47114  1  0  0  0
 47115  1  0  0  0
 48 56  1  0  0  0
 48 65  1  0  0  0
 48116  1  0  0  0
 49 50  1  0  0  0
 49 53  1  0  0  0
 49 64  1  0  0  0
 49117  1  0  0  0
 50 51  1  0  0  0
 50118  1  0  0  0
 50119  1  0  0  0
 51 52  1  0  0  0
 51120  1  0  0  0
 51121  1  0  0  0
 52122  1  0  0  0
 52123  1  0  0  0
 53 54  1  0  0  0
 54 55  2  0  0  0
 54124  1  0  0  0
 55 57  1  0  0  0
 55125  1  0  0  0
 56 69  2  0  0  0
 57 58  2  0  0  0
 57126  1  0  0  0
 58127  1  0  0  0
 59 60  1  0  0  0
 59 61  1  0  0  0
 59 62  1  0  0  0
 60128  1  0  0  0
 60129  1  0  0  0
 60130  1  0  0  0
 61131  1  0  0  0
 61132  1  0  0  0
 61133  1  0  0  0
 62134  1  0  0  0
 62135  1  0  0  0
 62136  1  0  0  0
 63 65  1  0  0  0
 63137  1  0  0  0
 63138  1  0  0  0
 63139  1  0  0  0
 64140  1  0  0  0
 65141  1  0  0  0
 68 81  1  0  0  0
 71 72  2  0  0  0
 71 74  1  0  0  0
 71142  1  0  0  0
 72 75  1  0  0  0
 72143  1  0  0  0
 73 74  2  0  0  0
 73 76  1  0  0  0
 73144  1  0  0  0
 74 79  1  0  0  0
 75 76  2  0  0  0
 75 78  1  0  0  0
 76 77  1  0  0  0
 77145  1  0  0  0
 77146  1  0  0  0
 77147  1  0  0  0
 78 80  1  0  0  0
 78148  1  0  0  0
 78149  1  0  0  0
 79 82  1  0  0  0
 79150  1  0  0  0
 79151  1  0  0  0
 80 81  1  0  0  0
 80152  1  0  0  0
 80153  1  0  0  0
 81154  1  0  0  0
 81155  1  0  0  0
 82156  1  0  0  0
M  ISO  4   1 100  68 101  81 101  82 100
M  END
> <chiral flag>
0

> <version>
0

> <s_m_source_file>
/data/baiqing/PycharmProjects/Reinvent-master-3.2/result/LINK_invent/BTK/process_docking_weight1_custom_sum_contain_oxygen_bond_distance_aromatic_linkinvent_7_9_3/rearranged_h_0098.sdf

> <i_m_source_file_index>
30

> <r_mmod_Potential_Energy-OPLS-2005>
35.714282989502

> <r_mmod_Stretch_Energy-OPLS-2005>
74.4954376220703

> <r_mmod_Bend_Energy-OPLS-2005>
160.594100952148

> <r_mmod_Torsional_Energy-OPLS-2005>
224.164291381836

> <r_mmod_Improper_Torsional_Energy-OPLS-2005>
8.08805465698242

> <r_mmod_Van_der_Waal_Energy-OPLS-2005>
145.109619140625

> <r_mmod_Electrostatic_Energy-OPLS-2005>
-422.861999511719

> <r_mmod_Solvation_Energy-OPLS-2005>
-204.332336425781

> <b_mmod_Minimization_Converged-OPLS-2005>
0

> <r_mmod_RMS_Derivative-OPLS-2005>
3.30888509750366

$$$$
31
                    3D
 Structure written by MMmdl.
157165  0  0  1  0            999 V2000
  -30.6112  -14.7301   20.4623 C   0  0  0  0  0  0
  -30.4333  -12.4461   19.4718 C   0  0  0  0  0  0
  -29.5103  -12.5080   18.2348 C   0  0  0  0  0  0
  -28.0360  -12.3323   18.6484 C   0  0  0  0  0  0
  -27.6436  -13.2287   19.8531 C   0  0  2  0  0  0
  -28.6877  -13.1537   20.9886 C   0  0  0  0  0  0
  -25.2517  -13.8192   20.5690 C   0  0  0  0  0  0
  -24.1806  -13.0441   20.9206 C   0  0  0  0  0  0
  -24.6393  -11.6917   20.8747 C   0  0  0  0  0  0
  -23.9068  -10.4295   21.0406 C   0  0  0  0  0  0
  -24.3621   -9.4209   21.9183 C   0  0  0  0  0  0
  -23.6298   -8.2244   22.0752 C   0  0  0  0  0  0
  -22.4281   -8.0282   21.3542 C   0  0  0  0  0  0
  -21.9916   -9.0255   20.4644 C   0  0  0  0  0  0
  -22.7242  -10.2136   20.3053 C   0  0  0  0  0  0
  -21.6855   -6.0739   22.5278 C   0  0  0  0  0  0
  -21.4016   -6.5641   23.8213 C   0  0  0  0  0  0
  -21.3659   -5.6793   24.9174 C   0  0  0  0  0  0
  -21.6044   -4.3056   24.7223 C   0  0  0  0  0  0
  -21.8820   -3.8150   23.4343 C   0  0  0  0  0  0
  -21.9195   -4.6967   22.3401 C   0  0  0  0  0  0
  -22.7829  -13.5224   21.1872 C   0  0  0  0  0  0
  -22.1661   -4.2152   21.0978 F   0  0  0  0  0  0
  -21.5631   -3.4537   25.7733 F   0  0  0  0  0  0
  -29.9904  -13.5033   20.4089 N   0  0  0  0  0  0
  -26.2943  -12.9390   20.3287 N   0  0  0  0  0  0
  -25.9323  -11.6536   20.5755 N   0  0  0  0  0  0
  -22.0473  -12.8211   22.0424 N   0  0  0  0  0  0
  -25.4215  -15.1916   20.4096 N   0  0  0  0  0  0
  -31.7957  -14.8376   20.1344 O   0  0  0  0  0  0
  -21.6641   -6.8881   21.4240 O   0  0  0  0  0  0
  -22.3510  -14.5529   20.6721 O   0  0  0  0  0  0
  -24.6303  -31.8553   23.1973 C   0  0  0  0  0  0
  -25.9130  -32.4752   23.8323 C   0  0  1  0  0  0
  -27.2221  -27.2657   20.1218 C   0  0  0  0  0  0
  -25.5928  -33.8555   24.2251 N   0  0  0  0  0  0
  -23.4259  -30.4773   21.5410 C   0  0  2  0  0  0
  -24.8710  -28.9220   20.1101 C   0  0  0  0  0  0
  -22.7495  -29.4601   22.4916 C   0  0  0  0  0  0
  -18.0288  -28.1385   22.8485 C   0  0  0  0  0  0
  -24.1489  -36.7284   23.2641 C   0  0  0  0  0  0
  -25.9705  -30.7694   21.3750 C   0  0  0  0  0  0
  -26.0412  -29.3916   20.7177 C   0  0  0  0  0  0
  -27.2152  -28.5750   20.7121 C   0  0  0  0  0  0
  -26.0227  -26.8560   19.4958 C   0  0  0  0  0  0
  -24.8667  -27.6625   19.4911 C   0  0  0  0  0  0
  -23.6425  -29.8092   20.1575 C   0  0  0  0  0  0
  -25.4116  -36.3069   24.0326 C   0  0  1  0  0  0
  -20.5892  -28.3693   23.1273 C   0  0  2  0  0  0
  -20.6776  -26.9414   22.5409 C   0  0  0  0  0  0
  -19.5752  -26.6382   21.5211 C   0  0  0  0  0  0
  -18.1932  -26.7926   22.1623 C   0  0  0  0  0  0
  -19.1542  -28.8856   23.2871 C   0  0  0  0  0  0
  -18.9465  -30.1456   23.8892 C   0  0  0  0  0  0
  -17.6465  -30.6587   24.0562 C   0  0  0  0  0  0
  -25.9056  -34.9439   23.5093 C   0  0  0  0  0  0
  -16.5356  -29.9087   23.6328 C   0  0  0  0  0  0
  -16.7275  -28.6502   23.0353 C   0  0  0  0  0  0
  -26.4501  -31.6577   25.0713 C   0  0  0  0  0  0
  -25.3724  -31.3730   26.1434 C   0  0  0  0  0  0
  -27.0350  -30.2994   24.6198 C   0  0  0  0  0  0
  -27.6049  -32.4324   25.7491 C   0  0  0  0  0  0
  -27.5579  -37.1798   24.8466 C   0  0  0  0  0  0
  -21.4202  -29.3042   22.3663 N   0  0  0  0  0  0
  -26.4290  -37.3768   23.9408 N   0  0  0  0  0  0
  -24.6949  -31.0524   22.0942 N   0  0  0  0  0  0
  -23.4199  -28.8147   23.3016 O   0  0  0  0  0  0
  -28.3548  -26.4230   20.1909 O   0  0  0  0  0  0
  -26.5634  -34.8917   22.4665 O   0  0  0  0  0  0
  -23.5455  -32.1376   23.7274 O   0  0  0  0  0  0
  -28.5372  -21.1145   20.7216 C   0  0  0  0  0  0
  -29.3518  -20.0412   20.3476 C   0  0  0  0  0  0
  -30.4677  -20.6965   19.7254 C   0  0  0  0  0  0
  -30.3066  -22.0714   19.8040 C   0  0  0  0  0  0
  -31.6483  -19.9956   19.0980 C   0  0  0  0  0  0
  -31.2526  -23.1524   19.3748 C   0  0  0  0  0  0
  -29.0688  -18.4729   20.5352 C   0  0  0  0  0  0
  -28.5440  -23.7718   20.7801 C   0  0  0  0  0  0
  -30.2194  -17.3307   20.4957 C   0  0  0  0  0  0
  -28.4082  -24.9918   19.7249 C   0  0  0  0  0  0
  -29.0831  -22.3819   20.3951 N   0  0  0  0  0  0
  -29.8351  -15.8589   20.6703 N   0  0  0  0  0  0
  -31.4745  -12.5712   19.1694 H   0  0  0  0  0  0
  -30.3764  -11.4670   19.9500 H   0  0  0  0  0  0
  -29.7916  -11.7379   17.5155 H   0  0  0  0  0  0
  -29.6386  -13.4647   17.7255 H   0  0  0  0  0  0
  -27.8920  -11.2834   18.9093 H   0  0  0  0  0  0
  -27.3784  -12.5267   17.8003 H   0  0  0  0  0  0
  -27.6414  -14.2520   19.4777 H   0  0  0  0  0  0
  -28.7193  -12.1534   21.4227 H   0  0  0  0  0  0
  -28.4251  -13.8317   21.8024 H   0  0  0  0  0  0
  -25.2765   -9.5688   22.4758 H   0  0  0  0  0  0
  -24.0012   -7.4632   22.7468 H   0  0  0  0  0  0
  -21.0850   -8.8773   19.8947 H   0  0  0  0  0  0
  -22.3700  -10.9676   19.6164 H   0  0  0  0  0  0
  -21.2005   -7.6149   23.9720 H   0  0  0  0  0  0
  -21.1481   -6.0519   25.9078 H   0  0  0  0  0  0
  -22.0600   -2.7612   23.2840 H   0  0  0  0  0  0
  -22.4090  -11.9874   22.4812 H   0  0  0  0  0  0
  -21.1088  -13.1231   22.2628 H   0  0  0  0  0  0
  -24.6531  -15.8450   20.5156 H   0  0  0  0  0  0
  -26.2645  -15.6285   20.0599 H   0  0  0  0  0  0
  -26.7195  -32.5401   23.1063 H   0  0  0  0  0  0
  -25.0063  -33.9693   25.0389 H   0  0  0  0  0  0
  -22.7218  -31.2991   21.3946 H   0  0  0  0  0  0
  -23.3751  -35.9616   23.3301 H   0  0  0  0  0  0
  -24.3579  -36.8910   22.2055 H   0  0  0  0  0  0
  -23.7243  -37.6484   23.6669 H   0  0  0  0  0  0
  -26.1089  -31.5296   20.6049 H   0  0  0  0  0  0
  -26.8485  -30.8182   22.0077 H   0  0  0  0  0  0
  -28.1131  -28.9321   21.1969 H   0  0  0  0  0  0
  -25.9299  -25.8947   19.0182 H   0  0  0  0  0  0
  -23.9675  -27.2959   19.0151 H   0  0  0  0  0  0
  -23.7674  -30.5843   19.4004 H   0  0  0  0  0  0
  -22.7605  -29.2427   19.8533 H   0  0  0  0  0  0
  -25.1298  -36.1916   25.0819 H   0  0  0  0  0  0
  -20.9983  -28.3270   24.1394 H   0  0  0  0  0  0
  -20.5672  -26.2306   23.3612 H   0  0  0  0  0  0
  -21.6644  -26.7436   22.1206 H   0  0  0  0  0  0
  -19.6917  -25.6291   21.1243 H   0  0  0  0  0  0
  -19.6689  -27.3189   20.6739 H   0  0  0  0  0  0
  -17.4202  -26.6669   21.4025 H   0  0  0  0  0  0
  -18.0335  -26.0068   22.9021 H   0  0  0  0  0  0
  -19.7942  -30.7270   24.2261 H   0  0  0  0  0  0
  -17.5021  -31.6267   24.5164 H   0  0  0  0  0  0
  -15.5356  -30.2991   23.7652 H   0  0  0  0  0  0
  -15.8673  -28.0819   22.7076 H   0  0  0  0  0  0
  -24.5901  -30.7075   25.7765 H   0  0  0  0  0  0
  -24.8914  -32.2900   26.4845 H   0  0  0  0  0  0
  -25.8042  -30.8919   27.0219 H   0  0  0  0  0  0
  -26.2933  -29.6735   24.1219 H   0  0  0  0  0  0
  -27.4028  -29.7261   25.4718 H   0  0  0  0  0  0
  -27.8811  -30.4267   23.9442 H   0  0  0  0  0  0
  -27.2647  -33.3628   26.2053 H   0  0  0  0  0  0
  -28.3868  -32.6880   25.0326 H   0  0  0  0  0  0
  -28.0708  -31.8460   26.5421 H   0  0  0  0  0  0
  -28.2595  -38.0096   24.7508 H   0  0  0  0  0  0
  -28.1075  -36.2625   24.6297 H   0  0  0  0  0  0
  -27.2297  -37.1452   25.8870 H   0  0  0  0  0  0
  -20.9388  -29.8767   21.6871 H   0  0  0  0  0  0
  -26.0168  -38.2842   24.1403 H   0  0  0  0  0  0
  -27.5825  -21.0865   21.2319 H   0  0  0  0  0  0
  -31.3089  -19.2701   18.3592 H   0  0  0  0  0  0
  -32.2325  -19.4756   19.8576 H   0  0  0  0  0  0
  -32.3107  -20.6890   18.5817 H   0  0  0  0  0  0
  -32.2846  -22.8035   19.3792 H   0  0  0  0  0  0
  -31.2179  -24.0104   20.0459 H   0  0  0  0  0  0
  -31.0220  -23.4931   18.3654 H   0  0  0  0  0  0
  -28.3287  -18.2150   19.7772 H   0  0  0  0  0  0
  -28.5423  -18.3747   21.4849 H   0  0  0  0  0  0
  -27.5707  -23.6274   21.2493 H   0  0  0  0  0  0
  -29.1886  -24.1239   21.5856 H   0  0  0  0  0  0
  -30.9662  -17.5649   21.2553 H   0  0  0  0  0  0
  -30.7390  -17.3969   19.5405 H   0  0  0  0  0  0
  -27.6178  -24.7484   19.0210 H   0  0  0  0  0  0
  -29.2968  -24.9747   19.0987 H   0  0  0  0  0  0
  -28.8712  -15.6774   20.9063 H   0  0  0  0  0  0
  1 25  1  0  0  0
  1 30  2  0  0  0
  1 82  1  0  0  0
  2  3  1  0  0  0
  2 25  1  0  0  0
  2 83  1  0  0  0
  2 84  1  0  0  0
  3  4  1  0  0  0
  3 85  1  0  0  0
  3 86  1  0  0  0
  4  5  1  0  0  0
  4 87  1  0  0  0
  4 88  1  0  0  0
  5  6  1  0  0  0
  5 26  1  0  0  0
  5 89  1  0  0  0
  6 25  1  0  0  0
  6 90  1  0  0  0
  6 91  1  0  0  0
  7  8  2  0  0  0
  7 26  1  0  0  0
  7 29  1  0  0  0
  8  9  1  0  0  0
  8 22  1  0  0  0
  9 10  1  0  0  0
  9 27  2  0  0  0
 10 11  2  0  0  0
 10 15  1  0  0  0
 11 12  1  0  0  0
 11 92  1  0  0  0
 12 13  2  0  0  0
 12 93  1  0  0  0
 13 14  1  0  0  0
 13 31  1  0  0  0
 14 15  2  0  0  0
 14 94  1  0  0  0
 15 95  1  0  0  0
 16 17  2  0  0  0
 16 21  1  0  0  0
 16 31  1  0  0  0
 17 18  1  0  0  0
 17 96  1  0  0  0
 18 19  2  0  0  0
 18 97  1  0  0  0
 19 20  1  0  0  0
 19 24  1  0  0  0
 20 21  2  0  0  0
 20 98  1  0  0  0
 21 23  1  0  0  0
 22 28  1  0  0  0
 22 32  2  0  0  0
 26 27  1  0  0  0
 28 99  1  0  0  0
 28100  1  0  0  0
 29101  1  0  0  0
 29102  1  0  0  0
 33 34  1  0  0  0
 33 66  1  0  0  0
 33 70  2  0  0  0
 34 36  1  0  0  0
 34 59  1  0  0  0
 34103  1  0  0  0
 35 44  2  0  0  0
 35 45  1  0  0  0
 35 68  1  0  0  0
 36 56  1  0  0  0
 36104  1  0  0  0
 37 39  1  0  0  0
 37 47  1  0  0  0
 37 66  1  0  0  0
 37105  1  0  0  0
 38 43  2  0  0  0
 38 46  1  0  0  0
 38 47  1  0  0  0
 39 64  1  0  0  0
 39 67  2  0  0  0
 40 52  1  0  0  0
 40 53  2  0  0  0
 40 58  1  0  0  0
 41106  1  0  0  0
 41107  1  0  0  0
 41108  1  0  0  0
 41 48  1  0  0  0
 42 43  1  0  0  0
 42 66  1  0  0  0
 42109  1  0  0  0
 42110  1  0  0  0
 43 44  1  0  0  0
 44111  1  0  0  0
 45 46  2  0  0  0
 45112  1  0  0  0
 46113  1  0  0  0
 47114  1  0  0  0
 47115  1  0  0  0
 48 56  1  0  0  0
 48 65  1  0  0  0
 48116  1  0  0  0
 49 50  1  0  0  0
 49 53  1  0  0  0
 49 64  1  0  0  0
 49117  1  0  0  0
 50 51  1  0  0  0
 50118  1  0  0  0
 50119  1  0  0  0
 51 52  1  0  0  0
 51120  1  0  0  0
 51121  1  0  0  0
 52122  1  0  0  0
 52123  1  0  0  0
 53 54  1  0  0  0
 54 55  2  0  0  0
 54124  1  0  0  0
 55 57  1  0  0  0
 55125  1  0  0  0
 56 69  2  0  0  0
 57 58  2  0  0  0
 57126  1  0  0  0
 58127  1  0  0  0
 59 60  1  0  0  0
 59 61  1  0  0  0
 59 62  1  0  0  0
 60128  1  0  0  0
 60129  1  0  0  0
 60130  1  0  0  0
 61131  1  0  0  0
 61132  1  0  0  0
 61133  1  0  0  0
 62134  1  0  0  0
 62135  1  0  0  0
 62136  1  0  0  0
 63 65  1  0  0  0
 63137  1  0  0  0
 63138  1  0  0  0
 63139  1  0  0  0
 64140  1  0  0  0
 65141  1  0  0  0
 68 80  1  0  0  0
 71 72  2  0  0  0
 71 81  1  0  0  0
 71142  1  0  0  0
 72 73  1  0  0  0
 72 77  1  0  0  0
 73 74  2  0  0  0
 73 75  1  0  0  0
 74 76  1  0  0  0
 74 81  1  0  0  0
 75143  1  0  0  0
 75144  1  0  0  0
 75145  1  0  0  0
 76146  1  0  0  0
 76147  1  0  0  0
 76148  1  0  0  0
 77 79  1  0  0  0
 77149  1  0  0  0
 77150  1  0  0  0
 78 80  1  0  0  0
 78 81  1  0  0  0
 78151  1  0  0  0
 78152  1  0  0  0
 79 82  1  0  0  0
 79153  1  0  0  0
 79154  1  0  0  0
 80155  1  0  0  0
 80156  1  0  0  0
 82157  1  0  0  0
M  ISO  4   1 100  68 101  80 101  82 100
M  END
> <chiral flag>
0

> <version>
0

> <s_m_source_file>
/data/baiqing/PycharmProjects/Reinvent-master-3.2/result/LINK_invent/BTK/process_docking_weight1_custom_sum_contain_oxygen_bond_distance_aromatic_linkinvent_7_9_3/rearranged_h_0098.sdf

> <i_m_source_file_index>
31

> <r_mmod_Potential_Energy-OPLS-2005>
88.7981491088867

> <r_mmod_Stretch_Energy-OPLS-2005>
119.155494689941

> <r_mmod_Bend_Energy-OPLS-2005>
180.300445556641

> <r_mmod_Torsional_Energy-OPLS-2005>
207.77326965332

> <r_mmod_Improper_Torsional_Energy-OPLS-2005>
5.89163446426392

> <r_mmod_Van_der_Waal_Energy-OPLS-2005>
117.041526794434

> <r_mmod_Electrostatic_Energy-OPLS-2005>
-400.261352539062

> <r_mmod_Solvation_Energy-OPLS-2005>
-218.53434753418

> <b_mmod_Minimization_Converged-OPLS-2005>
0

> <r_mmod_RMS_Derivative-OPLS-2005>
0.556785702705383

$$$$
32
                    3D
 Structure written by MMmdl.
168176  0  0  1  0            999 V2000
  -30.5447  -14.9941   20.4145 C   0  0  0  0  0  0
  -30.4374  -12.6202   19.5038 C   0  0  0  0  0  0
  -29.5231  -12.5303   18.2604 C   0  0  0  0  0  0
  -28.0610  -12.3003   18.6845 C   0  0  0  0  0  0
  -27.6254  -13.2503   19.8312 C   0  0  2  0  0  0
  -28.6674  -13.3174   20.9687 C   0  0  0  0  0  0
  -25.2453  -13.8229   20.5691 C   0  0  0  0  0  0
  -24.1777  -13.0440   20.9228 C   0  0  0  0  0  0
  -24.6395  -11.6931   20.8751 C   0  0  0  0  0  0
  -23.9065  -10.4293   21.0404 C   0  0  0  0  0  0
  -24.3616   -9.4214   21.9191 C   0  0  0  0  0  0
  -23.6286   -8.2248   22.0769 C   0  0  0  0  0  0
  -22.4270   -8.0272   21.3549 C   0  0  0  0  0  0
  -21.9897   -9.0246   20.4657 C   0  0  0  0  0  0
  -22.7230  -10.2129   20.3060 C   0  0  0  0  0  0
  -21.6857   -6.0723   22.5276 C   0  0  0  0  0  0
  -21.4022   -6.5629   23.8211 C   0  0  0  0  0  0
  -21.3659   -5.6785   24.9172 C   0  0  0  0  0  0
  -21.6041   -4.3044   24.7231 C   0  0  0  0  0  0
  -21.8815   -3.8137   23.4349 C   0  0  0  0  0  0
  -21.9201   -4.6950   22.3406 C   0  0  0  0  0  0
  -22.7798  -13.5220   21.1872 C   0  0  0  0  0  0
  -22.1660   -4.2128   21.0984 F   0  0  0  0  0  0
  -21.5623   -3.4534   25.7752 F   0  0  0  0  0  0
  -29.9364  -13.7361   20.3599 N   0  0  0  0  0  0
  -26.2866  -12.9451   20.3219 N   0  0  0  0  0  0
  -25.9333  -11.6577   20.5738 N   0  0  0  0  0  0
  -22.0448  -12.8212   22.0427 N   0  0  0  0  0  0
  -25.4118  -15.1954   20.4100 N   0  0  0  0  0  0
  -31.7574  -15.0268   20.1810 O   0  0  0  0  0  0
  -21.6643   -6.8864   21.4237 O   0  0  0  0  0  0
  -22.3478  -14.5515   20.6718 O   0  0  0  0  0  0
  -24.6460  -31.8395   23.1862 C   0  0  0  0  0  0
  -25.9213  -32.4680   23.8257 C   0  0  1  0  0  0
  -27.2211  -27.0977   20.1509 C   0  0  0  0  0  0
  -25.5950  -33.8492   24.2177 N   0  0  0  0  0  0
  -23.4526  -30.4581   21.5316 C   0  0  2  0  0  0
  -24.9019  -28.8789   20.1072 C   0  0  0  0  0  0
  -22.7586  -29.4515   22.4844 C   0  0  0  0  0  0
  -18.0307  -28.1380   22.8456 C   0  0  0  0  0  0
  -24.1489  -36.7252   23.2643 C   0  0  0  0  0  0
  -26.0103  -30.7010   21.3908 C   0  0  0  0  0  0
  -26.0795  -29.3083   20.7319 C   0  0  0  0  0  0
  -27.2341  -28.4331   20.7386 C   0  0  0  0  0  0
  -26.0100  -26.7743   19.4971 C   0  0  0  0  0  0
  -24.8816  -27.6257   19.4769 C   0  0  0  0  0  0
  -23.6804  -29.7866   20.1509 C   0  0  0  0  0  0
  -25.4122  -36.3039   24.0316 C   0  0  1  0  0  0
  -20.5922  -28.3709   23.1220 C   0  0  2  0  0  0
  -20.6796  -26.9405   22.5399 C   0  0  0  0  0  0
  -19.5773  -26.6362   21.5203 C   0  0  0  0  0  0
  -18.1955  -26.7914   22.1607 C   0  0  0  0  0  0
  -19.1565  -28.8861   23.2835 C   0  0  0  0  0  0
  -18.9484  -30.1460   23.8857 C   0  0  0  0  0  0
  -17.6477  -30.6581   24.0543 C   0  0  0  0  0  0
  -25.9070  -34.9405   23.5067 C   0  0  0  0  0  0
  -16.5371  -29.9067   23.6332 C   0  0  0  0  0  0
  -16.7295  -28.6494   23.0342 C   0  0  0  0  0  0
  -26.4518  -31.6565   25.0717 C   0  0  0  0  0  0
  -25.3677  -31.3745   26.1400 C   0  0  0  0  0  0
  -27.0401  -30.2960   24.6333 C   0  0  0  0  0  0
  -27.6041  -32.4345   25.7504 C   0  0  0  0  0  0
  -27.5583  -37.1785   24.8465 C   0  0  0  0  0  0
  -21.4275  -29.3027   22.3584 N   0  0  0  0  0  0
  -26.4293  -37.3748   23.9410 N   0  0  0  0  0  0
  -24.7232  -31.0216   22.0915 N   0  0  0  0  0  0
  -23.4217  -28.8052   23.2994 O   0  0  0  0  0  0
  -28.2788  -26.1089   20.2693 O   0  0  0  0  0  0
  -26.5669  -34.8903   22.4655 O   0  0  0  0  0  0
  -23.5572  -32.1298   23.7052 O   0  0  0  0  0  0
  -32.0028  -22.5426   21.0465 C   0  0  0  0  0  0
  -30.6617  -22.9264   20.9845 C   0  0  0  0  0  0
  -32.4026  -21.4244   20.3166 C   0  0  0  0  0  0
  -29.6573  -22.1104   20.4177 C   0  0  0  0  0  0
  -31.4545  -20.5905   19.6825 C   0  0  0  0  0  0
  -30.0743  -20.6732   20.0815 C   0  0  0  0  0  0
  -27.4594  -22.9649   21.5157 C   0  0  0  0  0  0
  -32.4607  -20.9742   17.4331 C   0  0  0  0  0  0
  -30.9175  -19.0895   17.5804 C   0  0  0  0  0  0
  -33.2014  -18.9616   18.6903 C   0  0  0  0  0  0
  -29.3507  -19.1778   20.2082 C   0  0  0  0  0  0
  -30.2277  -17.7451   20.5981 C   0  0  0  0  0  0
  -28.3313  -24.6619   19.6510 C   0  0  0  0  0  0
  -28.3206  -23.0464   20.2519 C   0  0  1  0  0  0
  -31.9758  -19.8667   18.4030 C   0  0  0  0  0  0
  -29.7922  -16.2094   20.5289 N   0  0  0  0  0  0
  -31.4724  -12.7752   19.1958 H   0  0  0  0  0  0
  -30.4296  -11.6804   20.0582 H   0  0  0  0  0  0
  -29.8560  -11.7270   17.6030 H   0  0  0  0  0  0
  -29.5952  -13.4523   17.6819 H   0  0  0  0  0  0
  -27.9795  -11.2654   19.0186 H   0  0  0  0  0  0
  -27.3918  -12.3954   17.8282 H   0  0  0  0  0  0
  -27.5767  -14.2429   19.3826 H   0  0  0  0  0  0
  -28.7680  -12.3558   21.4739 H   0  0  0  0  0  0
  -28.3575  -14.0367   21.7290 H   0  0  0  0  0  0
  -25.2758   -9.5694   22.4777 H   0  0  0  0  0  0
  -23.9984   -7.4651   22.7509 H   0  0  0  0  0  0
  -21.0817   -8.8761   19.8984 H   0  0  0  0  0  0
  -22.3670  -10.9659   19.6172 H   0  0  0  0  0  0
  -21.2025   -7.6143   23.9698 H   0  0  0  0  0  0
  -21.1478   -6.0528   25.9073 H   0  0  0  0  0  0
  -22.0606   -2.7596   23.2866 H   0  0  0  0  0  0
  -22.4052  -11.9855   22.4781 H   0  0  0  0  0  0
  -21.1089  -13.1271   22.2680 H   0  0  0  0  0  0
  -24.6386  -15.8438   20.5108 H   0  0  0  0  0  0
  -26.2501  -15.6297   20.0464 H   0  0  0  0  0  0
  -26.7278  -32.5270   23.0976 H   0  0  0  0  0  0
  -25.0032  -33.9588   25.0286 H   0  0  0  0  0  0
  -22.7564  -31.2853   21.3767 H   0  0  0  0  0  0
  -23.3769  -35.9572   23.3290 H   0  0  0  0  0  0
  -24.3562  -36.8910   22.2062 H   0  0  0  0  0  0
  -23.7228  -37.6432   23.6690 H   0  0  0  0  0  0
  -26.1698  -31.4528   20.6165 H   0  0  0  0  0  0
  -26.8790  -30.7538   22.0360 H   0  0  0  0  0  0
  -28.1274  -28.7522   21.2581 H   0  0  0  0  0  0
  -25.8743  -25.8102   19.0362 H   0  0  0  0  0  0
  -23.9784  -27.2836   18.9906 H   0  0  0  0  0  0
  -23.8186  -30.5624   19.3966 H   0  0  0  0  0  0
  -22.7930  -29.2318   19.8413 H   0  0  0  0  0  0
  -25.1317  -36.1868   25.0809 H   0  0  0  0  0  0
  -21.0014  -28.3306   24.1343 H   0  0  0  0  0  0
  -20.5679  -26.2322   23.3624 H   0  0  0  0  0  0
  -21.6659  -26.7399   22.1203 H   0  0  0  0  0  0
  -19.6925  -25.6268   21.1251 H   0  0  0  0  0  0
  -19.6714  -27.3154   20.6720 H   0  0  0  0  0  0
  -17.4221  -26.6649   21.4012 H   0  0  0  0  0  0
  -18.0342  -26.0071   22.9014 H   0  0  0  0  0  0
  -19.7966  -30.7270   24.2218 H   0  0  0  0  0  0
  -17.5042  -31.6257   24.5142 H   0  0  0  0  0  0
  -15.5367  -30.2946   23.7700 H   0  0  0  0  0  0
  -15.8700  -28.0810   22.7059 H   0  0  0  0  0  0
  -24.5871  -30.7095   25.7693 H   0  0  0  0  0  0
  -24.8831  -32.2910   26.4769 H   0  0  0  0  0  0
  -25.7926  -30.8938   27.0223 H   0  0  0  0  0  0
  -26.3041  -29.6654   24.1336 H   0  0  0  0  0  0
  -27.3999  -29.7297   25.4933 H   0  0  0  0  0  0
  -27.8951  -30.4195   23.9686 H   0  0  0  0  0  0
  -27.2648  -33.3684   26.1998 H   0  0  0  0  0  0
  -28.3882  -32.6847   25.0347 H   0  0  0  0  0  0
  -28.0677  -31.8527   26.5476 H   0  0  0  0  0  0
  -28.2591  -38.0096   24.7540 H   0  0  0  0  0  0
  -28.1101  -36.2623   24.6279 H   0  0  0  0  0  0
  -27.2295  -37.1426   25.8869 H   0  0  0  0  0  0
  -20.9489  -29.8772   21.6789 H   0  0  0  0  0  0
  -26.0164  -38.2825   24.1412 H   0  0  0  0  0  0
  -32.7414  -23.1989   21.4862 H   0  0  0  0  0  0
  -30.4053  -23.9082   21.3581 H   0  0  0  0  0  0
  -33.4607  -21.2988   20.1422 H   0  0  0  0  0  0
  -27.2470  -21.9272   21.7778 H   0  0  0  0  0  0
  -26.5071  -23.4766   21.3749 H   0  0  0  0  0  0
  -27.9667  -23.4274   22.3628 H   0  0  0  0  0  0
  -31.6555  -21.6756   17.2101 H   0  0  0  0  0  0
  -32.8130  -20.5663   16.4853 H   0  0  0  0  0  0
  -33.2871  -21.5594   17.8369 H   0  0  0  0  0  0
  -30.0449  -19.7073   17.3638 H   0  0  0  0  0  0
  -30.5773  -18.1676   18.0403 H   0  0  0  0  0  0
  -31.3266  -18.7800   16.6174 H   0  0  0  0  0  0
  -33.0543  -18.2518   19.4991 H   0  0  0  0  0  0
  -34.0820  -19.5419   18.9636 H   0  0  0  0  0  0
  -33.4777  -18.3828   17.8084 H   0  0  0  0  0  0
  -28.7948  -19.0107   19.2864 H   0  0  0  0  0  0
  -28.5780  -19.2921   20.9688 H   0  0  0  0  0  0
  -30.5816  -17.8870   21.6204 H   0  0  0  0  0  0
  -31.1404  -17.7524   20.0266 H   0  0  0  0  0  0
  -27.5619  -24.6492   18.8840 H   0  0  0  0  0  0
  -29.2303  -24.7045   19.0344 H   0  0  0  0  0  0
  -27.7750  -22.4941   19.4850 H   0  0  0  0  0  0
  -28.8003  -16.0564   20.6343 H   0  0  0  0  0  0
  1 25  1  0  0  0
  1 30  2  0  0  0
  1 86  1  0  0  0
  2  3  1  0  0  0
  2 25  1  0  0  0
  2 87  1  0  0  0
  2 88  1  0  0  0
  3  4  1  0  0  0
  3 89  1  0  0  0
  3 90  1  0  0  0
  4  5  1  0  0  0
  4 91  1  0  0  0
  4 92  1  0  0  0
  5  6  1  0  0  0
  5 26  1  0  0  0
  5 93  1  0  0  0
  6 25  1  0  0  0
  6 94  1  0  0  0
  6 95  1  0  0  0
  7  8  2  0  0  0
  7 26  1  0  0  0
  7 29  1  0  0  0
  8  9  1  0  0  0
  8 22  1  0  0  0
  9 10  1  0  0  0
  9 27  2  0  0  0
 10 11  2  0  0  0
 10 15  1  0  0  0
 11 12  1  0  0  0
 11 96  1  0  0  0
 12 13  2  0  0  0
 12 97  1  0  0  0
 13 14  1  0  0  0
 13 31  1  0  0  0
 14 15  2  0  0  0
 14 98  1  0  0  0
 15 99  1  0  0  0
 16 17  2  0  0  0
 16 21  1  0  0  0
 16 31  1  0  0  0
 17 18  1  0  0  0
 17100  1  0  0  0
 18 19  2  0  0  0
 18101  1  0  0  0
 19 20  1  0  0  0
 19 24  1  0  0  0
 20 21  2  0  0  0
 20102  1  0  0  0
 21 23  1  0  0  0
 22 28  1  0  0  0
 22 32  2  0  0  0
 26 27  1  0  0  0
 28103  1  0  0  0
 28104  1  0  0  0
 29105  1  0  0  0
 29106  1  0  0  0
 33 34  1  0  0  0
 33 66  1  0  0  0
 33 70  2  0  0  0
 34 36  1  0  0  0
 34 59  1  0  0  0
 34107  1  0  0  0
 35 44  2  0  0  0
 35 45  1  0  0  0
 35 68  1  0  0  0
 36 56  1  0  0  0
 36108  1  0  0  0
 37 39  1  0  0  0
 37 47  1  0  0  0
 37 66  1  0  0  0
 37109  1  0  0  0
 38 43  2  0  0  0
 38 46  1  0  0  0
 38 47  1  0  0  0
 39 64  1  0  0  0
 39 67  2  0  0  0
 40 52  1  0  0  0
 40 53  2  0  0  0
 40 58  1  0  0  0
 41110  1  0  0  0
 41111  1  0  0  0
 41112  1  0  0  0
 41 48  1  0  0  0
 42 43  1  0  0  0
 42 66  1  0  0  0
 42113  1  0  0  0
 42114  1  0  0  0
 43 44  1  0  0  0
 44115  1  0  0  0
 45 46  2  0  0  0
 45116  1  0  0  0
 46117  1  0  0  0
 47118  1  0  0  0
 47119  1  0  0  0
 48 56  1  0  0  0
 48 65  1  0  0  0
 48120  1  0  0  0
 49 50  1  0  0  0
 49 53  1  0  0  0
 49 64  1  0  0  0
 49121  1  0  0  0
 50 51  1  0  0  0
 50122  1  0  0  0
 50123  1  0  0  0
 51 52  1  0  0  0
 51124  1  0  0  0
 51125  1  0  0  0
 52126  1  0  0  0
 52127  1  0  0  0
 53 54  1  0  0  0
 54 55  2  0  0  0
 54128  1  0  0  0
 55 57  1  0  0  0
 55129  1  0  0  0
 56 69  2  0  0  0
 57 58  2  0  0  0
 57130  1  0  0  0
 58131  1  0  0  0
 59 60  1  0  0  0
 59 61  1  0  0  0
 59 62  1  0  0  0
 60132  1  0  0  0
 60133  1  0  0  0
 60134  1  0  0  0
 61135  1  0  0  0
 61136  1  0  0  0
 61137  1  0  0  0
 62138  1  0  0  0
 62139  1  0  0  0
 62140  1  0  0  0
 63 65  1  0  0  0
 63141  1  0  0  0
 63142  1  0  0  0
 63143  1  0  0  0
 64144  1  0  0  0
 65145  1  0  0  0
 68 83  1  0  0  0
 71 72  2  0  0  0
 71 73  1  0  0  0
 71146  1  0  0  0
 72 74  1  0  0  0
 72147  1  0  0  0
 73 75  2  0  0  0
 73148  1  0  0  0
 74 76  2  0  0  0
 74 84  1  0  0  0
 75 76  1  0  0  0
 75 85  1  0  0  0
 76 81  1  0  0  0
 77149  1  0  0  0
 77150  1  0  0  0
 77151  1  0  0  0
 77 84  1  0  0  0
 78152  1  0  0  0
 78153  1  0  0  0
 78154  1  0  0  0
 78 85  1  0  0  0
 79 85  1  0  0  0
 79155  1  0  0  0
 79156  1  0  0  0
 79157  1  0  0  0
 80 85  1  0  0  0
 80158  1  0  0  0
 80159  1  0  0  0
 80160  1  0  0  0
 81 82  1  0  0  0
 81161  1  0  0  0
 81162  1  0  0  0
 82 86  1  0  0  0
 82163  1  0  0  0
 82164  1  0  0  0
 83 84  1  0  0  0
 83165  1  0  0  0
 83166  1  0  0  0
 84167  1  0  0  0
 86168  1  0  0  0
M  ISO  4   1 100  68 101  83 101  86 100
M  END
> <chiral flag>
0

> <version>
0

> <s_m_source_file>
/data/baiqing/PycharmProjects/Reinvent-master-3.2/result/LINK_invent/BTK/process_docking_weight1_custom_sum_contain_oxygen_bond_distance_aromatic_linkinvent_7_9_3/rearranged_h_0098.sdf

> <i_m_source_file_index>
32

> <r_mmod_Potential_Energy-OPLS-2005>
829.680358886719

> <r_mmod_Stretch_Energy-OPLS-2005>
340.506469726562

> <r_mmod_Bend_Energy-OPLS-2005>
373.411987304688

> <r_mmod_Torsional_Energy-OPLS-2005>
348.869567871094

> <r_mmod_Improper_Torsional_Energy-OPLS-2005>
7.17981767654419

> <r_mmod_Van_der_Waal_Energy-OPLS-2005>
146.513381958008

> <r_mmod_Electrostatic_Energy-OPLS-2005>
-413.039611816406

> <r_mmod_Solvation_Energy-OPLS-2005>
-201.171051025391

> <b_mmod_Minimization_Converged-OPLS-2005>
0

> <r_mmod_RMS_Derivative-OPLS-2005>
2.22993540763855

$$$$
33
                    3D
 Structure written by MMmdl.
170178  0  0  1  0            999 V2000
  -30.6901  -14.5739   20.4917 C   0  0  0  0  0  0
  -30.4180  -12.3530   19.4401 C   0  0  0  0  0  0
  -29.4929  -12.4764   18.2132 C   0  0  0  0  0  0
  -28.0162  -12.3438   18.6326 C   0  0  0  0  0  0
  -27.6514  -13.2186   19.8659 C   0  0  2  0  0  0
  -28.6985  -13.0656   20.9861 C   0  0  0  0  0  0
  -25.2559  -13.8166   20.5706 C   0  0  0  0  0  0
  -24.1838  -13.0446   20.9208 C   0  0  0  0  0  0
  -24.6404  -11.6906   20.8764 C   0  0  0  0  0  0
  -23.9086  -10.4287   21.0387 C   0  0  0  0  0  0
  -24.3642   -9.4197   21.9169 C   0  0  0  0  0  0
  -23.6308   -8.2235   22.0765 C   0  0  0  0  0  0
  -22.4275   -8.0285   21.3568 C   0  0  0  0  0  0
  -21.9907   -9.0246   20.4647 C   0  0  0  0  0  0
  -22.7248  -10.2124   20.3034 C   0  0  0  0  0  0
  -21.6849   -6.0720   22.5292 C   0  0  0  0  0  0
  -21.3987   -6.5630   23.8216 C   0  0  0  0  0  0
  -21.3651   -5.6791   24.9187 C   0  0  0  0  0  0
  -21.6052   -4.3054   24.7232 C   0  0  0  0  0  0
  -21.8816   -3.8134   23.4355 C   0  0  0  0  0  0
  -21.9173   -4.6944   22.3405 C   0  0  0  0  0  0
  -22.7836  -13.5206   21.1867 C   0  0  0  0  0  0
  -22.1661   -4.2136   21.0977 F   0  0  0  0  0  0
  -21.5640   -3.4530   25.7742 F   0  0  0  0  0  0
  -30.0072  -13.3920   20.4062 N   0  0  0  0  0  0
  -26.2997  -12.9365   20.3380 N   0  0  0  0  0  0
  -25.9343  -11.6513   20.5846 N   0  0  0  0  0  0
  -22.0483  -12.8202   22.0413 N   0  0  0  0  0  0
  -25.4295  -15.1884   20.4111 N   0  0  0  0  0  0
  -31.8685  -14.6601   20.1475 O   0  0  0  0  0  0
  -21.6642   -6.8877   21.4267 O   0  0  0  0  0  0
  -22.3475  -14.5496   20.6708 O   0  0  0  0  0  0
  -24.6247  -31.8597   23.2035 C   0  0  0  0  0  0
  -25.9108  -32.4771   23.8352 C   0  0  1  0  0  0
  -27.2345  -27.3409   20.0934 C   0  0  0  0  0  0
  -25.5954  -33.8572   24.2291 N   0  0  0  0  0  0
  -23.4151  -30.4830   21.5461 C   0  0  2  0  0  0
  -24.8649  -28.9414   20.1060 C   0  0  0  0  0  0
  -22.7429  -29.4649   22.4965 C   0  0  0  0  0  0
  -18.0280  -28.1378   22.8452 C   0  0  0  0  0  0
  -24.1497  -36.7291   23.2643 C   0  0  0  0  0  0
  -25.9539  -30.7902   21.3752 C   0  0  0  0  0  0
  -26.0254  -29.4160   20.7251 C   0  0  0  0  0  0
  -27.2008  -28.6145   20.7335 C   0  0  0  0  0  0
  -26.0616  -26.9309   19.4244 C   0  0  0  0  0  0
  -24.8811  -27.6980   19.4521 C   0  0  0  0  0  0
  -23.6266  -29.8110   20.1625 C   0  0  0  0  0  0
  -25.4125  -36.3070   24.0320 C   0  0  1  0  0  0
  -20.5855  -28.3705   23.1256 C   0  0  2  0  0  0
  -20.6787  -26.9436   22.5388 C   0  0  0  0  0  0
  -19.5780  -26.6371   21.5154 C   0  0  0  0  0  0
  -18.1957  -26.7920   22.1570 C   0  0  0  0  0  0
  -19.1519  -28.8839   23.2855 C   0  0  0  0  0  0
  -18.9454  -30.1445   23.8895 C   0  0  0  0  0  0
  -17.6461  -30.6600   24.0505 C   0  0  0  0  0  0
  -25.9053  -34.9439   23.5094 C   0  0  0  0  0  0
  -16.5346  -29.9080   23.6325 C   0  0  0  0  0  0
  -16.7272  -28.6464   23.0387 C   0  0  0  0  0  0
  -26.4536  -31.6576   25.0696 C   0  0  0  0  0  0
  -25.3806  -31.3634   26.1423 C   0  0  0  0  0  0
  -27.0390  -30.3026   24.6098 C   0  0  0  0  0  0
  -27.6124  -32.4297   25.7467 C   0  0  0  0  0  0
  -27.5580  -37.1803   24.8476 C   0  0  0  0  0  0
  -21.4140  -29.3068   22.3664 N   0  0  0  0  0  0
  -26.4313  -37.3758   23.9399 N   0  0  0  0  0  0
  -24.6829  -31.0610   22.0980 N   0  0  0  0  0  0
  -23.4145  -28.8207   23.3065 O   0  0  0  0  0  0
  -28.3527  -26.5049   20.2030 O   0  0  0  0  0  0
  -26.5597  -34.8921   22.4644 O   0  0  0  0  0  0
  -23.5421  -32.1358   23.7398 O   0  0  0  0  0  0
  -29.3792  -18.9195   20.7590 C   0  0  0  0  0  0
  -28.2110  -20.5660   22.0865 C   0  0  0  0  0  0
  -28.9589  -20.2850   20.9341 C   0  0  0  0  0  0
  -29.0476  -17.9179   21.7344 C   0  0  0  0  0  0
  -28.3190  -18.3726   22.8671 C   0  0  0  0  0  0
  -26.3614  -17.0566   23.7930 C   0  0  0  0  0  0
  -28.1359  -17.9977   25.3870 C   0  0  0  0  0  0
  -26.8763  -23.6566   19.2249 C   0  0  0  0  0  0
  -28.8746  -23.4931   17.7482 C   0  0  0  0  0  0
  -29.1599  -21.3972   19.8553 C   0  0  0  0  0  0
  -29.3932  -16.3843   21.6746 C   0  0  0  0  0  0
  -29.1003  -22.9630   20.2145 C   0  0  0  0  0  0
  -28.7222  -25.5079   19.1932 C   0  0  0  0  0  0
  -27.8372  -17.4371   23.9847 C   0  0  0  0  0  0
  -28.3925  -23.9271   19.1598 C   0  0  0  0  0  0
  -27.9034  -19.6472   23.0140 N   0  0  0  0  0  0
  -29.9791  -15.7362   20.4900 N   0  0  0  0  0  0
  -31.4623  -12.4448   19.1290 H   0  0  0  0  0  0
  -30.3305  -11.3595   19.8831 H   0  0  0  0  0  0
  -29.7402  -11.7083   17.4790 H   0  0  0  0  0  0
  -29.6523  -13.4343   17.7170 H   0  0  0  0  0  0
  -27.8348  -11.2931   18.8621 H   0  0  0  0  0  0
  -27.3645  -12.5876   17.7929 H   0  0  0  0  0  0
  -27.6732  -14.2587   19.5391 H   0  0  0  0  0  0
  -28.6983  -12.0407   21.3557 H   0  0  0  0  0  0
  -28.4601  -13.6843   21.8493 H   0  0  0  0  0  0
  -25.2790   -9.5648   22.4757 H   0  0  0  0  0  0
  -23.9984   -7.4585   22.7475 H   0  0  0  0  0  0
  -21.0828   -8.8734   19.8946 H   0  0  0  0  0  0
  -22.3683  -10.9644   19.6129 H   0  0  0  0  0  0
  -21.1987   -7.6146   23.9714 H   0  0  0  0  0  0
  -21.1505   -6.0538   25.9095 H   0  0  0  0  0  0
  -22.0618   -2.7602   23.2857 H   0  0  0  0  0  0
  -22.4087  -11.9853   22.4807 H   0  0  0  0  0  0
  -21.1100  -13.1232   22.2621 H   0  0  0  0  0  0
  -24.6694  -15.8453   20.5364 H   0  0  0  0  0  0
  -26.2938  -15.6296   20.1221 H   0  0  0  0  0  0
  -26.7149  -32.5436   23.1077 H   0  0  0  0  0  0
  -25.0183  -33.9759   25.0489 H   0  0  0  0  0  0
  -22.7090  -31.3031   21.3984 H   0  0  0  0  0  0
  -23.3754  -35.9625   23.3293 H   0  0  0  0  0  0
  -24.3610  -36.8926   22.2070 H   0  0  0  0  0  0
  -23.7258  -37.6501   23.6663 H   0  0  0  0  0  0
  -26.0708  -31.5483   20.6011 H   0  0  0  0  0  0
  -26.8360  -30.8453   22.0013 H   0  0  0  0  0  0
  -28.0827  -28.9630   21.2511 H   0  0  0  0  0  0
  -26.0284  -26.0048   18.8879 H   0  0  0  0  0  0
  -23.9954  -27.3283   18.9559 H   0  0  0  0  0  0
  -23.7270  -30.5795   19.3941 H   0  0  0  0  0  0
  -22.7491  -29.2287   19.8736 H   0  0  0  0  0  0
  -25.1304  -36.1917   25.0809 H   0  0  0  0  0  0
  -20.9929  -28.3282   24.1375 H   0  0  0  0  0  0
  -20.5652  -26.2350   23.3613 H   0  0  0  0  0  0
  -21.6700  -26.7495   22.1232 H   0  0  0  0  0  0
  -19.7016  -25.6250   21.1278 H   0  0  0  0  0  0
  -19.6735  -27.3099   20.6611 H   0  0  0  0  0  0
  -17.4251  -26.6590   21.3976 H   0  0  0  0  0  0
  -18.0416  -26.0061   22.8967 H   0  0  0  0  0  0
  -19.7923  -30.7203   24.2361 H   0  0  0  0  0  0
  -17.5025  -31.6316   24.5047 H   0  0  0  0  0  0
  -15.5346  -30.2999   23.7685 H   0  0  0  0  0  0
  -15.8636  -28.0751   22.7251 H   0  0  0  0  0  0
  -24.6034  -30.6922   25.7725 H   0  0  0  0  0  0
  -24.8927  -32.2762   26.4863 H   0  0  0  0  0  0
  -25.8166  -30.8809   27.0186 H   0  0  0  0  0  0
  -26.2914  -29.6745   24.1233 H   0  0  0  0  0  0
  -27.4263  -29.7289   25.4535 H   0  0  0  0  0  0
  -27.8700  -30.4339   23.9155 H   0  0  0  0  0  0
  -27.2775  -33.3640   26.1979 H   0  0  0  0  0  0
  -28.3974  -32.6785   25.0305 H   0  0  0  0  0  0
  -28.0733  -31.8444   26.5444 H   0  0  0  0  0  0
  -28.2599  -38.0103   24.7517 H   0  0  0  0  0  0
  -28.1070  -36.2639   24.6280 H   0  0  0  0  0  0
  -27.2304  -37.1414   25.8885 H   0  0  0  0  0  0
  -20.9358  -29.8747   21.6805 H   0  0  0  0  0  0
  -26.0176  -38.2832   24.1379 H   0  0  0  0  0  0
  -29.9267  -18.6382   19.8727 H   0  0  0  0  0  0
  -27.8033  -21.5456   22.2712 H   0  0  0  0  0  0
  -26.2178  -16.5686   22.8301 H   0  0  0  0  0  0
  -25.7102  -17.9304   23.8224 H   0  0  0  0  0  0
  -26.0326  -16.3580   24.5610 H   0  0  0  0  0  0
  -29.2020  -18.1944   25.5079 H   0  0  0  0  0  0
  -27.8322  -17.2918   26.1610 H   0  0  0  0  0  0
  -27.6072  -18.9320   25.5764 H   0  0  0  0  0  0
  -26.6414  -22.5947   19.2477 H   0  0  0  0  0  0
  -26.3670  -24.0416   18.3427 H   0  0  0  0  0  0
  -26.4290  -24.0896   20.1210 H   0  0  0  0  0  0
  -28.5498  -22.4933   17.4672 H   0  0  0  0  0  0
  -29.9617  -23.5151   17.6681 H   0  0  0  0  0  0
  -28.4947  -24.1493   16.9640 H   0  0  0  0  0  0
  -28.3779  -21.1654   19.1338 H   0  0  0  0  0  0
  -30.0986  -21.2071   19.3280 H   0  0  0  0  0  0
  -28.4604  -15.8504   21.8563 H   0  0  0  0  0  0
  -30.0543  -16.1734   22.5198 H   0  0  0  0  0  0
  -30.1250  -23.3031   20.3698 H   0  0  0  0  0  0
  -28.6167  -23.1396   21.1731 H   0  0  0  0  0  0
  -28.4348  -25.9468   18.2356 H   0  0  0  0  0  0
  -29.8119  -25.5713   19.1931 H   0  0  0  0  0  0
  -28.3888  -16.5027   23.9551 H   0  0  0  0  0  0
  -30.4698  -16.4154   19.9305 H   0  0  0  0  0  0
  1 25  1  0  0  0
  1 30  2  0  0  0
  1 87  1  0  0  0
  2  3  1  0  0  0
  2 25  1  0  0  0
  2 88  1  0  0  0
  2 89  1  0  0  0
  3  4  1  0  0  0
  3 90  1  0  0  0
  3 91  1  0  0  0
  4  5  1  0  0  0
  4 92  1  0  0  0
  4 93  1  0  0  0
  5  6  1  0  0  0
  5 26  1  0  0  0
  5 94  1  0  0  0
  6 25  1  0  0  0
  6 95  1  0  0  0
  6 96  1  0  0  0
  7  8  2  0  0  0
  7 26  1  0  0  0
  7 29  1  0  0  0
  8  9  1  0  0  0
  8 22  1  0  0  0
  9 10  1  0  0  0
  9 27  2  0  0  0
 10 11  2  0  0  0
 10 15  1  0  0  0
 11 12  1  0  0  0
 11 97  1  0  0  0
 12 13  2  0  0  0
 12 98  1  0  0  0
 13 14  1  0  0  0
 13 31  1  0  0  0
 14 15  2  0  0  0
 14 99  1  0  0  0
 15100  1  0  0  0
 16 17  2  0  0  0
 16 21  1  0  0  0
 16 31  1  0  0  0
 17 18  1  0  0  0
 17101  1  0  0  0
 18 19  2  0  0  0
 18102  1  0  0  0
 19 20  1  0  0  0
 19 24  1  0  0  0
 20 21  2  0  0  0
 20103  1  0  0  0
 21 23  1  0  0  0
 22 28  1  0  0  0
 22 32  2  0  0  0
 26 27  1  0  0  0
 28104  1  0  0  0
 28105  1  0  0  0
 29106  1  0  0  0
 29107  1  0  0  0
 33 34  1  0  0  0
 33 66  1  0  0  0
 33 70  2  0  0  0
 34 36  1  0  0  0
 34 59  1  0  0  0
 34108  1  0  0  0
 35 44  2  0  0  0
 35 45  1  0  0  0
 35 68  1  0  0  0
 36 56  1  0  0  0
 36109  1  0  0  0
 37 39  1  0  0  0
 37 47  1  0  0  0
 37 66  1  0  0  0
 37110  1  0  0  0
 38 43  2  0  0  0
 38 46  1  0  0  0
 38 47  1  0  0  0
 39 64  1  0  0  0
 39 67  2  0  0  0
 40 52  1  0  0  0
 40 53  2  0  0  0
 40 58  1  0  0  0
 41111  1  0  0  0
 41112  1  0  0  0
 41113  1  0  0  0
 41 48  1  0  0  0
 42 43  1  0  0  0
 42 66  1  0  0  0
 42114  1  0  0  0
 42115  1  0  0  0
 43 44  1  0  0  0
 44116  1  0  0  0
 45 46  2  0  0  0
 45117  1  0  0  0
 46118  1  0  0  0
 47119  1  0  0  0
 47120  1  0  0  0
 48 56  1  0  0  0
 48 65  1  0  0  0
 48121  1  0  0  0
 49 50  1  0  0  0
 49 53  1  0  0  0
 49 64  1  0  0  0
 49122  1  0  0  0
 50 51  1  0  0  0
 50123  1  0  0  0
 50124  1  0  0  0
 51 52  1  0  0  0
 51125  1  0  0  0
 51126  1  0  0  0
 52127  1  0  0  0
 52128  1  0  0  0
 53 54  1  0  0  0
 54 55  2  0  0  0
 54129  1  0  0  0
 55 57  1  0  0  0
 55130  1  0  0  0
 56 69  2  0  0  0
 57 58  2  0  0  0
 57131  1  0  0  0
 58132  1  0  0  0
 59 60  1  0  0  0
 59 61  1  0  0  0
 59 62  1  0  0  0
 60133  1  0  0  0
 60134  1  0  0  0
 60135  1  0  0  0
 61136  1  0  0  0
 61137  1  0  0  0
 61138  1  0  0  0
 62139  1  0  0  0
 62140  1  0  0  0
 62141  1  0  0  0
 63 65  1  0  0  0
 63142  1  0  0  0
 63143  1  0  0  0
 63144  1  0  0  0
 64145  1  0  0  0
 65146  1  0  0  0
 68 83  1  0  0  0
 71 73  2  0  0  0
 71 74  1  0  0  0
 71147  1  0  0  0
 72 73  1  0  0  0
 72 86  2  0  0  0
 72148  1  0  0  0
 73 80  1  0  0  0
 74 75  2  0  0  0
 74 81  1  0  0  0
 75 84  1  0  0  0
 75 86  1  0  0  0
 76149  1  0  0  0
 76150  1  0  0  0
 76151  1  0  0  0
 76 84  1  0  0  0
 77 84  1  0  0  0
 77152  1  0  0  0
 77153  1  0  0  0
 77154  1  0  0  0
 78155  1  0  0  0
 78156  1  0  0  0
 78157  1  0  0  0
 78 85  1  0  0  0
 79 85  1  0  0  0
 79158  1  0  0  0
 79159  1  0  0  0
 79160  1  0  0  0
 80 82  1  0  0  0
 80161  1  0  0  0
 80162  1  0  0  0
 81 87  1  0  0  0
 81163  1  0  0  0
 81164  1  0  0  0
 82 85  1  0  0  0
 82165  1  0  0  0
 82166  1  0  0  0
 83 85  1  0  0  0
 83167  1  0  0  0
 83168  1  0  0  0
 84169  1  0  0  0
 87170  1  0  0  0
M  ISO  4   1 100  68 101  83 101  87 100
M  END
> <chiral flag>
0

> <version>
0

> <s_m_source_file>
/data/baiqing/PycharmProjects/Reinvent-master-3.2/result/LINK_invent/BTK/process_docking_weight1_custom_sum_contain_oxygen_bond_distance_aromatic_linkinvent_7_9_3/rearranged_h_0098.sdf

> <i_m_source_file_index>
33

> <r_mmod_Potential_Energy-OPLS-2005>
29.7112464904785

> <r_mmod_Stretch_Energy-OPLS-2005>
79.5072860717773

> <r_mmod_Bend_Energy-OPLS-2005>
206.243041992188

> <r_mmod_Torsional_Energy-OPLS-2005>
266.121124267578

> <r_mmod_Improper_Torsional_Energy-OPLS-2005>
19.4474658966064

> <r_mmod_Van_der_Waal_Energy-OPLS-2005>
153.320526123047

> <r_mmod_Electrostatic_Energy-OPLS-2005>
-529.029052734375

> <r_mmod_Solvation_Energy-OPLS-2005>
-206.228729248047

> <b_mmod_Minimization_Converged-OPLS-2005>
0

> <r_mmod_RMS_Derivative-OPLS-2005>
4.6524863243103

$$$$
34
                    3D
 Structure written by MMmdl.
174182  0  0  1  0            999 V2000
  -30.7327  -14.4198   20.6095 C   0  0  0  0  0  0
  -30.4206  -12.2962   19.4041 C   0  0  0  0  0  0
  -29.4886  -12.5164   18.1940 C   0  0  0  0  0  0
  -28.0107  -12.3814   18.6087 C   0  0  0  0  0  0
  -27.6646  -13.2065   19.8769 C   0  0  2  0  0  0
  -28.7070  -12.9661   20.9931 C   0  0  0  0  0  0
  -25.2614  -13.8163   20.5663 C   0  0  0  0  0  0
  -24.1852  -13.0451   20.9153 C   0  0  0  0  0  0
  -24.6397  -11.6914   20.8720 C   0  0  0  0  0  0
  -23.9050  -10.4310   21.0395 C   0  0  0  0  0  0
  -24.3610   -9.4238   21.9169 C   0  0  0  0  0  0
  -23.6306   -8.2269   22.0751 C   0  0  0  0  0  0
  -22.4285   -8.0302   21.3555 C   0  0  0  0  0  0
  -21.9913   -9.0263   20.4644 C   0  0  0  0  0  0
  -22.7222  -10.2145   20.3056 C   0  0  0  0  0  0
  -21.6858   -6.0738   22.5276 C   0  0  0  0  0  0
  -21.4001   -6.5638   23.8208 C   0  0  0  0  0  0
  -21.3655   -5.6795   24.9167 C   0  0  0  0  0  0
  -21.6051   -4.3058   24.7217 C   0  0  0  0  0  0
  -21.8823   -3.8143   23.4344 C   0  0  0  0  0  0
  -21.9203   -4.6964   22.3402 C   0  0  0  0  0  0
  -22.7881  -13.5263   21.1817 C   0  0  0  0  0  0
  -22.1680   -4.2152   21.0975 F   0  0  0  0  0  0
  -21.5638   -3.4546   25.7728 F   0  0  0  0  0  0
  -30.0406  -13.2637   20.4429 N   0  0  0  0  0  0
  -26.3045  -12.9329   20.3383 N   0  0  0  0  0  0
  -25.9330  -11.6486   20.5761 N   0  0  0  0  0  0
  -22.0523  -12.8269   22.0372 N   0  0  0  0  0  0
  -25.4366  -15.1885   20.4066 N   0  0  0  0  0  0
  -31.8452  -14.6152   20.1124 O   0  0  0  0  0  0
  -21.6662   -6.8885   21.4242 O   0  0  0  0  0  0
  -22.3579  -14.5579   20.6679 O   0  0  0  0  0  0
  -24.6137  -31.8697   23.2128 C   0  0  0  0  0  0
  -25.9041  -32.4828   23.8407 C   0  0  1  0  0  0
  -27.2400  -27.4510   20.0655 C   0  0  0  0  0  0
  -25.5905  -33.8628   24.2341 N   0  0  0  0  0  0
  -23.4003  -30.4949   21.5545 C   0  0  2  0  0  0
  -24.8435  -28.9595   20.1241 C   0  0  0  0  0  0
  -22.7399  -29.4669   22.5014 C   0  0  0  0  0  0
  -18.0267  -28.1374   22.8493 C   0  0  0  0  0  0
  -24.1494  -36.7310   23.2637 C   0  0  0  0  0  0
  -25.9303  -30.8336   21.3686 C   0  0  0  0  0  0
  -26.0062  -29.4673   20.7184 C   0  0  0  0  0  0
  -27.2030  -28.7157   20.6975 C   0  0  0  0  0  0
  -26.0421  -26.9416   19.5067 C   0  0  0  0  0  0
  -24.8539  -27.6910   19.5257 C   0  0  0  0  0  0
  -23.6081  -29.8275   20.1698 C   0  0  0  0  0  0
  -25.4113  -36.3115   24.0340 C   0  0  1  0  0  0
  -20.5857  -28.3655   23.1326 C   0  0  2  0  0  0
  -20.6758  -26.9397   22.5418 C   0  0  0  0  0  0
  -19.5737  -26.6383   21.5210 C   0  0  0  0  0  0
  -18.1914  -26.7920   22.1622 C   0  0  0  0  0  0
  -19.1518  -28.8828   23.2905 C   0  0  0  0  0  0
  -18.9445  -30.1441   23.8912 C   0  0  0  0  0  0
  -17.6452  -30.6581   24.0564 C   0  0  0  0  0  0
  -25.9039  -34.9480   23.5133 C   0  0  0  0  0  0
  -16.5341  -29.9081   23.6327 C   0  0  0  0  0  0
  -16.7257  -28.6500   23.0348 C   0  0  0  0  0  0
  -26.4474  -31.6597   25.0724 C   0  0  0  0  0  0
  -25.3742  -31.3691   26.1470 C   0  0  0  0  0  0
  -27.0304  -30.3043   24.6083 C   0  0  0  0  0  0
  -27.6058  -32.4310   25.7478 C   0  0  0  0  0  0
  -27.5587  -37.1811   24.8465 C   0  0  0  0  0  0
  -21.4133  -29.3034   22.3749 N   0  0  0  0  0  0
  -26.4302  -37.3797   23.9410 N   0  0  0  0  0  0
  -24.6662  -31.0803   22.1033 N   0  0  0  0  0  0
  -23.4177  -28.8206   23.3043 O   0  0  0  0  0  0
  -28.4364  -26.7598   19.9903 O   0  0  0  0  0  0
  -26.5597  -34.8926   22.4694 O   0  0  0  0  0  0
  -23.5334  -32.1462   23.7522 O   0  0  0  0  0  0
  -30.7976  -23.2071   19.0098 C   0  0  0  0  0  0
  -31.5368  -25.0082   20.4335 C   0  0  0  0  0  0
  -30.7684  -24.5749   19.3446 C   0  0  0  0  0  0
  -31.6553  -22.3275   19.7062 C   0  0  0  0  0  0
  -32.4292  -22.8793   20.7640 C   0  0  0  0  0  0
  -32.8203  -21.5047   22.8737 C   0  0  0  0  0  0
  -31.8930  -20.7209   17.7261 C   0  0  0  0  0  0
  -28.5960  -17.9696   20.4402 C   0  0  0  0  0  0
  -30.5271  -17.3211   18.9733 C   0  0  0  0  0  0
  -29.9991  -25.5619   18.4814 C   0  0  0  0  0  0
  -33.4348  -22.0880   21.5963 C   0  0  0  0  0  0
  -30.5781  -16.7622   21.4669 C   0  0  0  0  0  0
  -28.5496  -25.8215   18.9111 C   0  0  0  0  0  0
  -30.8091  -19.1548   20.6903 C   0  0  0  0  0  0
  -31.7577  -20.8631   19.2532 C   0  0  2  0  0  0
  -30.1244  -17.7943   20.3877 C   0  0  0  0  0  0
  -32.3388  -24.1800   21.1309 N   0  0  0  0  0  0
  -30.0810  -15.3949   21.2596 N   0  0  0  0  0  0
  -30.6137  -20.0949   19.6267 O   0  0  0  0  0  0
  -31.4621  -12.3974   19.0966 H   0  0  0  0  0  0
  -30.3224  -11.2789   19.7860 H   0  0  0  0  0  0
  -29.7256  -11.8039   17.4032 H   0  0  0  0  0  0
  -29.6605  -13.5078   17.7714 H   0  0  0  0  0  0
  -27.8082  -11.3235   18.7832 H   0  0  0  0  0  0
  -27.3635  -12.6800   17.7832 H   0  0  0  0  0  0
  -27.7166  -14.2588   19.5956 H   0  0  0  0  0  0
  -28.6787  -11.9253   21.3196 H   0  0  0  0  0  0
  -28.4723  -13.5519   21.8833 H   0  0  0  0  0  0
  -25.2756   -9.5727   22.4735 H   0  0  0  0  0  0
  -24.0028   -7.4663   22.7465 H   0  0  0  0  0  0
  -21.0859   -8.8759   19.8952 H   0  0  0  0  0  0
  -22.3670  -10.9678   19.6174 H   0  0  0  0  0  0
  -21.1977   -7.6139   23.9704 H   0  0  0  0  0  0
  -21.1475   -6.0522   25.9067 H   0  0  0  0  0  0
  -22.0608   -2.7616   23.2838 H   0  0  0  0  0  0
  -22.4140  -11.9941   22.4777 H   0  0  0  0  0  0
  -21.1132  -13.1283   22.2533 H   0  0  0  0  0  0
  -24.6746  -15.8500   20.5109 H   0  0  0  0  0  0
  -26.2970  -15.6219   20.0953 H   0  0  0  0  0  0
  -26.7104  -32.5547   23.1167 H   0  0  0  0  0  0
  -25.0073  -33.9796   25.0492 H   0  0  0  0  0  0
  -22.6878  -31.3114   21.4160 H   0  0  0  0  0  0
  -23.3758  -35.9641   23.3310 H   0  0  0  0  0  0
  -24.3587  -36.8914   22.2049 H   0  0  0  0  0  0
  -23.7242  -37.6517   23.6641 H   0  0  0  0  0  0
  -26.0460  -31.5982   20.5994 H   0  0  0  0  0  0
  -26.8179  -30.8845   21.9881 H   0  0  0  0  0  0
  -28.1049  -29.1130   21.1426 H   0  0  0  0  0  0
  -26.0040  -25.9675   19.0425 H   0  0  0  0  0  0
  -23.9568  -27.2859   19.0772 H   0  0  0  0  0  0
  -23.7192  -30.6017   19.4095 H   0  0  0  0  0  0
  -22.7316  -29.2483   19.8730 H   0  0  0  0  0  0
  -25.1291  -36.1987   25.0834 H   0  0  0  0  0  0
  -20.9945  -28.3211   24.1449 H   0  0  0  0  0  0
  -20.5666  -26.2259   23.3598 H   0  0  0  0  0  0
  -21.6631  -26.7443   22.1209 H   0  0  0  0  0  0
  -19.6901  -25.6301   21.1226 H   0  0  0  0  0  0
  -19.6679  -27.3206   20.6753 H   0  0  0  0  0  0
  -17.4191  -26.6681   21.4018 H   0  0  0  0  0  0
  -18.0311  -26.0054   22.9007 H   0  0  0  0  0  0
  -19.7923  -30.7253   24.2288 H   0  0  0  0  0  0
  -17.5004  -31.6264   24.5158 H   0  0  0  0  0  0
  -15.5344  -30.2987   23.7641 H   0  0  0  0  0  0
  -15.8659  -28.0822   22.7054 H   0  0  0  0  0  0
  -24.5913  -30.7044   25.7798 H   0  0  0  0  0  0
  -24.8935  -32.2843   26.4936 H   0  0  0  0  0  0
  -25.8098  -30.8842   27.0215 H   0  0  0  0  0  0
  -26.2843  -29.6801   24.1152 H   0  0  0  0  0  0
  -27.4102  -29.7278   25.4527 H   0  0  0  0  0  0
  -27.8667  -30.4370   23.9216 H   0  0  0  0  0  0
  -27.2683  -33.3597   26.2091 H   0  0  0  0  0  0
  -28.3841  -32.6890   25.0284 H   0  0  0  0  0  0
  -28.0750  -31.8410   26.5359 H   0  0  0  0  0  0
  -28.2612  -38.0104   24.7519 H   0  0  0  0  0  0
  -28.1082  -36.2638   24.6291 H   0  0  0  0  0  0
  -27.2305  -37.1458   25.8869 H   0  0  0  0  0  0
  -20.9294  -29.8771   21.6989 H   0  0  0  0  0  0
  -26.0196  -38.2882   24.1403 H   0  0  0  0  0  0
  -30.1988  -22.8527   18.1847 H   0  0  0  0  0  0
  -31.5446  -26.0470   20.7286 H   0  0  0  0  0  0
  -33.5718  -20.9791   23.4625 H   0  0  0  0  0  0
  -32.0247  -20.7999   22.6463 H   0  0  0  0  0  0
  -32.3956  -22.2915   23.4981 H   0  0  0  0  0  0
  -32.7395  -21.2946   17.3482 H   0  0  0  0  0  0
  -31.0004  -21.0446   17.1923 H   0  0  0  0  0  0
  -32.0622  -19.6803   17.4518 H   0  0  0  0  0  0
  -28.0771  -17.0368   20.2245 H   0  0  0  0  0  0
  -28.2599  -18.7099   19.7119 H   0  0  0  0  0  0
  -28.2673  -18.3142   21.4214 H   0  0  0  0  0  0
  -30.0095  -16.4062   18.6864 H   0  0  0  0  0  0
  -31.5983  -17.1295   18.9101 H   0  0  0  0  0  0
  -30.2819  -18.0629   18.2135 H   0  0  0  0  0  0
  -29.9888  -25.1666   17.4640 H   0  0  0  0  0  0
  -30.5453  -26.5034   18.4148 H   0  0  0  0  0  0
  -34.2461  -22.7596   21.8810 H   0  0  0  0  0  0
  -33.9300  -21.3115   21.0176 H   0  0  0  0  0  0
  -30.2420  -17.0932   22.4520 H   0  0  0  0  0  0
  -31.6679  -16.7462   21.5303 H   0  0  0  0  0  0
  -28.0515  -24.8828   19.1589 H   0  0  0  0  0  0
  -28.0515  -26.2278   18.0281 H   0  0  0  0  0  0
  -31.8650  -18.9738   20.8865 H   0  0  0  0  0  0
  -30.4037  -19.5864   21.6053 H   0  0  0  0  0  0
  -32.6728  -20.4180   19.6334 H   0  0  0  0  0  0
  -29.1670  -15.1698   21.6213 H   0  0  0  0  0  0
  1 25  1  0  0  0
  1 30  2  0  0  0
  1 88  1  0  0  0
  2  3  1  0  0  0
  2 25  1  0  0  0
  2 90  1  0  0  0
  2 91  1  0  0  0
  3  4  1  0  0  0
  3 92  1  0  0  0
  3 93  1  0  0  0
  4  5  1  0  0  0
  4 94  1  0  0  0
  4 95  1  0  0  0
  5  6  1  0  0  0
  5 26  1  0  0  0
  5 96  1  0  0  0
  6 25  1  0  0  0
  6 97  1  0  0  0
  6 98  1  0  0  0
  7  8  2  0  0  0
  7 26  1  0  0  0
  7 29  1  0  0  0
  8  9  1  0  0  0
  8 22  1  0  0  0
  9 10  1  0  0  0
  9 27  2  0  0  0
 10 11  2  0  0  0
 10 15  1  0  0  0
 11 12  1  0  0  0
 11 99  1  0  0  0
 12 13  2  0  0  0
 12100  1  0  0  0
 13 14  1  0  0  0
 13 31  1  0  0  0
 14 15  2  0  0  0
 14101  1  0  0  0
 15102  1  0  0  0
 16 17  2  0  0  0
 16 21  1  0  0  0
 16 31  1  0  0  0
 17 18  1  0  0  0
 17103  1  0  0  0
 18 19  2  0  0  0
 18104  1  0  0  0
 19 20  1  0  0  0
 19 24  1  0  0  0
 20 21  2  0  0  0
 20105  1  0  0  0
 21 23  1  0  0  0
 22 28  1  0  0  0
 22 32  2  0  0  0
 26 27  1  0  0  0
 28106  1  0  0  0
 28107  1  0  0  0
 29108  1  0  0  0
 29109  1  0  0  0
 33 34  1  0  0  0
 33 66  1  0  0  0
 33 70  2  0  0  0
 34 36  1  0  0  0
 34 59  1  0  0  0
 34110  1  0  0  0
 35 44  2  0  0  0
 35 45  1  0  0  0
 35 68  1  0  0  0
 36 56  1  0  0  0
 36111  1  0  0  0
 37 39  1  0  0  0
 37 47  1  0  0  0
 37 66  1  0  0  0
 37112  1  0  0  0
 38 43  2  0  0  0
 38 46  1  0  0  0
 38 47  1  0  0  0
 39 64  1  0  0  0
 39 67  2  0  0  0
 40 52  1  0  0  0
 40 53  2  0  0  0
 40 58  1  0  0  0
 41113  1  0  0  0
 41114  1  0  0  0
 41115  1  0  0  0
 41 48  1  0  0  0
 42 43  1  0  0  0
 42 66  1  0  0  0
 42116  1  0  0  0
 42117  1  0  0  0
 43 44  1  0  0  0
 44118  1  0  0  0
 45 46  2  0  0  0
 45119  1  0  0  0
 46120  1  0  0  0
 47121  1  0  0  0
 47122  1  0  0  0
 48 56  1  0  0  0
 48 65  1  0  0  0
 48123  1  0  0  0
 49 50  1  0  0  0
 49 53  1  0  0  0
 49 64  1  0  0  0
 49124  1  0  0  0
 50 51  1  0  0  0
 50125  1  0  0  0
 50126  1  0  0  0
 51 52  1  0  0  0
 51127  1  0  0  0
 51128  1  0  0  0
 52129  1  0  0  0
 52130  1  0  0  0
 53 54  1  0  0  0
 54 55  2  0  0  0
 54131  1  0  0  0
 55 57  1  0  0  0
 55132  1  0  0  0
 56 69  2  0  0  0
 57 58  2  0  0  0
 57133  1  0  0  0
 58134  1  0  0  0
 59 60  1  0  0  0
 59 61  1  0  0  0
 59 62  1  0  0  0
 60135  1  0  0  0
 60136  1  0  0  0
 60137  1  0  0  0
 61138  1  0  0  0
 61139  1  0  0  0
 61140  1  0  0  0
 62141  1  0  0  0
 62142  1  0  0  0
 62143  1  0  0  0
 63 65  1  0  0  0
 63144  1  0  0  0
 63145  1  0  0  0
 63146  1  0  0  0
 64147  1  0  0  0
 65148  1  0  0  0
 68 83  1  0  0  0
 71 73  2  0  0  0
 71 74  1  0  0  0
 71149  1  0  0  0
 72 73  1  0  0  0
 72 87  2  0  0  0
 72150  1  0  0  0
 73 80  1  0  0  0
 74 75  2  0  0  0
 74 85  1  0  0  0
 75 81  1  0  0  0
 75 87  1  0  0  0
 76 81  1  0  0  0
 76151  1  0  0  0
 76152  1  0  0  0
 76153  1  0  0  0
 77154  1  0  0  0
 77155  1  0  0  0
 77156  1  0  0  0
 77 85  1  0  0  0
 78157  1  0  0  0
 78158  1  0  0  0
 78159  1  0  0  0
 78 86  1  0  0  0
 79 86  1  0  0  0
 79160  1  0  0  0
 79161  1  0  0  0
 79162  1  0  0  0
 80 83  1  0  0  0
 80163  1  0  0  0
 80164  1  0  0  0
 81165  1  0  0  0
 81166  1  0  0  0
 82 86  1  0  0  0
 82 88  1  0  0  0
 82167  1  0  0  0
 82168  1  0  0  0
 83169  1  0  0  0
 83170  1  0  0  0
 84 86  1  0  0  0
 84 89  1  0  0  0
 84171  1  0  0  0
 84172  1  0  0  0
 85 89  1  0  0  0
 85173  1  0  0  0
 88174  1  0  0  0
M  ISO  4   1 100  68 101  83 101  88 100
M  END
> <chiral flag>
0

> <version>
0

> <s_m_source_file>
/data/baiqing/PycharmProjects/Reinvent-master-3.2/result/LINK_invent/BTK/process_docking_weight1_custom_sum_contain_oxygen_bond_distance_aromatic_linkinvent_7_9_3/rearranged_h_0098.sdf

> <i_m_source_file_index>
34

> <r_mmod_Potential_Energy-OPLS-2005>
-252.350463867188

> <r_mmod_Stretch_Energy-OPLS-2005>
37.7189140319824

> <r_mmod_Bend_Energy-OPLS-2005>
106.206474304199

> <r_mmod_Torsional_Energy-OPLS-2005>
226.983352661133

> <r_mmod_Improper_Torsional_Energy-OPLS-2005>
2.91050338745117

> <r_mmod_Van_der_Waal_Energy-OPLS-2005>
163.571899414062

> <r_mmod_Electrostatic_Energy-OPLS-2005>
-578.199279785156

> <r_mmod_Solvation_Energy-OPLS-2005>
-221.198791503906

> <b_mmod_Minimization_Converged-OPLS-2005>
0

> <r_mmod_RMS_Derivative-OPLS-2005>
2.25670838356018

$$$$
35
                    3D
 Structure written by MMmdl.
157165  0  0  1  0            999 V2000
  -30.6177  -14.7286   20.4674 C   0  0  0  0  0  0
  -30.4301  -12.4501   19.4647 C   0  0  0  0  0  0
  -29.5075  -12.5022   18.2279 C   0  0  0  0  0  0
  -28.0332  -12.3288   18.6436 C   0  0  0  0  0  0
  -27.6392  -13.2299   19.8450 C   0  0  2  0  0  0
  -28.6830  -13.1625   20.9791 C   0  0  0  0  0  0
  -25.2506  -13.8189   20.5688 C   0  0  0  0  0  0
  -24.1796  -13.0438   20.9202 C   0  0  0  0  0  0
  -24.6387  -11.6917   20.8743 C   0  0  0  0  0  0
  -23.9066  -10.4292   21.0402 C   0  0  0  0  0  0
  -24.3619   -9.4210   21.9179 C   0  0  0  0  0  0
  -23.6293   -8.2245   22.0754 C   0  0  0  0  0  0
  -22.4272   -8.0282   21.3546 C   0  0  0  0  0  0
  -21.9908   -9.0258   20.4649 C   0  0  0  0  0  0
  -22.7239  -10.2135   20.3055 C   0  0  0  0  0  0
  -21.6849   -6.0736   22.5283 C   0  0  0  0  0  0
  -21.4016   -6.5640   23.8217 C   0  0  0  0  0  0
  -21.3656   -5.6788   24.9175 C   0  0  0  0  0  0
  -21.6040   -4.3050   24.7226 C   0  0  0  0  0  0
  -21.8817   -3.8148   23.4345 C   0  0  0  0  0  0
  -21.9191   -4.6965   22.3404 C   0  0  0  0  0  0
  -22.7819  -13.5227   21.1852 C   0  0  0  0  0  0
  -22.1659   -4.2152   21.0981 F   0  0  0  0  0  0
  -21.5623   -3.4536   25.7737 F   0  0  0  0  0  0
  -29.9816  -13.5124   20.3926 N   0  0  0  0  0  0
  -26.2922  -12.9393   20.3248 N   0  0  0  0  0  0
  -25.9315  -11.6535   20.5735 N   0  0  0  0  0  0
  -22.0454  -12.8241   22.0412 N   0  0  0  0  0  0
  -25.4190  -15.1919   20.4127 N   0  0  0  0  0  0
  -31.8148  -14.8110   20.1792 O   0  0  0  0  0  0
  -21.6637   -6.8881   21.4244 O   0  0  0  0  0  0
  -22.3508  -14.5525   20.6684 O   0  0  0  0  0  0
  -24.6303  -31.8548   23.1971 C   0  0  0  0  0  0
  -25.9133  -32.4755   23.8318 C   0  0  1  0  0  0
  -27.2158  -27.2684   20.1358 C   0  0  0  0  0  0
  -25.5932  -33.8553   24.2258 N   0  0  0  0  0  0
  -23.4264  -30.4760   21.5401 C   0  0  2  0  0  0
  -24.8731  -28.9172   20.1145 C   0  0  0  0  0  0
  -22.7497  -29.4593   22.4915 C   0  0  0  0  0  0
  -18.0288  -28.1379   22.8480 C   0  0  0  0  0  0
  -24.1490  -36.7277   23.2641 C   0  0  0  0  0  0
  -25.9702  -30.7715   21.3733 C   0  0  0  0  0  0
  -26.0443  -29.3926   20.7188 C   0  0  0  0  0  0
  -27.2231  -28.5815   20.7122 C   0  0  0  0  0  0
  -26.0249  -26.8488   19.5125 C   0  0  0  0  0  0
  -24.8670  -27.6535   19.4995 C   0  0  0  0  0  0
  -23.6454  -29.8065   20.1572 C   0  0  0  0  0  0
  -25.4117  -36.3061   24.0331 C   0  0  1  0  0  0
  -20.5893  -28.3683   23.1271 C   0  0  2  0  0  0
  -20.6772  -26.9404   22.5405 C   0  0  0  0  0  0
  -19.5751  -26.6378   21.5203 C   0  0  0  0  0  0
  -18.1930  -26.7921   22.1620 C   0  0  0  0  0  0
  -19.1543  -28.8847   23.2869 C   0  0  0  0  0  0
  -18.9470  -30.1448   23.8890 C   0  0  0  0  0  0
  -17.6470  -30.6580   24.0553 C   0  0  0  0  0  0
  -25.9057  -34.9439   23.5095 C   0  0  0  0  0  0
  -16.5361  -29.9081   23.6326 C   0  0  0  0  0  0
  -16.7274  -28.6495   23.0350 C   0  0  0  0  0  0
  -26.4505  -31.6583   25.0706 C   0  0  0  0  0  0
  -25.3741  -31.3731   26.1437 C   0  0  0  0  0  0
  -27.0356  -30.3004   24.6180 C   0  0  0  0  0  0
  -27.6049  -32.4331   25.7487 C   0  0  0  0  0  0
  -27.5581  -37.1790   24.8464 C   0  0  0  0  0  0
  -21.4206  -29.3032   22.3661 N   0  0  0  0  0  0
  -26.4283  -37.3770   23.9419 N   0  0  0  0  0  0
  -24.6948  -31.0522   22.0937 N   0  0  0  0  0  0
  -23.4201  -28.8138   23.3015 O   0  0  0  0  0  0
  -28.3157  -26.3896   20.1289 O   0  0  0  0  0  0
  -26.5617  -34.8907   22.4658 O   0  0  0  0  0  0
  -23.5455  -32.1355   23.7277 O   0  0  0  0  0  0
  -28.5667  -18.8785   19.5266 C   0  0  0  0  0  0
  -28.1867  -20.2088   19.5481 C   0  0  0  0  0  0
  -29.7445  -19.8961   21.0820 C   0  0  0  0  0  0
  -29.5780  -18.6318   20.5091 C   0  0  0  0  0  0
  -29.3322  -24.4610   17.7041 C   0  0  0  0  0  0
  -30.3907  -17.2968   20.8370 C   0  0  0  0  0  0
  -29.6754  -23.7188   19.0044 C   0  0  0  0  0  0
  -28.7304  -22.3412   20.9856 C   0  0  0  0  0  0
  -28.1772  -25.0236   20.7359 C   0  0  0  0  0  0
  -28.4983  -23.6068   19.9947 C   0  0  1  0  0  0
  -28.9109  -20.8934   20.5145 N   0  0  0  0  0  0
  -29.8659  -15.8751   20.6753 N   0  0  0  0  0  0
  -31.4705  -12.5763   19.1609 H   0  0  0  0  0  0
  -30.3769  -11.4744   19.9499 H   0  0  0  0  0  0
  -29.7897  -11.7269   17.5142 H   0  0  0  0  0  0
  -29.6352  -13.4542   17.7095 H   0  0  0  0  0  0
  -27.8882  -11.2813   18.9087 H   0  0  0  0  0  0
  -27.3767  -12.5195   17.7939 H   0  0  0  0  0  0
  -27.6348  -14.2515   19.4649 H   0  0  0  0  0  0
  -28.7175  -12.1642   21.4181 H   0  0  0  0  0  0
  -28.4210  -13.8447   21.7887 H   0  0  0  0  0  0
  -25.2767   -9.5685   22.4752 H   0  0  0  0  0  0
  -23.9999   -7.4633   22.7480 H   0  0  0  0  0  0
  -21.0830   -8.8780   19.8964 H   0  0  0  0  0  0
  -22.3693  -10.9672   19.6165 H   0  0  0  0  0  0
  -21.2021   -7.6150   23.9720 H   0  0  0  0  0  0
  -21.1472   -6.0519   25.9073 H   0  0  0  0  0  0
  -22.0600   -2.7613   23.2842 H   0  0  0  0  0  0
  -22.4066  -11.9933   22.4853 H   0  0  0  0  0  0
  -21.1067  -13.1277   22.2583 H   0  0  0  0  0  0
  -24.6521  -15.8451   20.5304 H   0  0  0  0  0  0
  -26.2640  -15.6344   20.0753 H   0  0  0  0  0  0
  -26.7200  -32.5413   23.1056 H   0  0  0  0  0  0
  -25.0081  -33.9692   25.0403 H   0  0  0  0  0  0
  -22.7213  -31.2962   21.3920 H   0  0  0  0  0  0
  -23.3755  -35.9607   23.3289 H   0  0  0  0  0  0
  -24.3567  -36.8911   22.2054 H   0  0  0  0  0  0
  -23.7244  -37.6474   23.6674 H   0  0  0  0  0  0
  -26.1063  -31.5331   20.6038 H   0  0  0  0  0  0
  -26.8479  -30.8206   22.0062 H   0  0  0  0  0  0
  -28.1258  -28.9428   21.1850 H   0  0  0  0  0  0
  -25.9871  -25.8757   19.0425 H   0  0  0  0  0  0
  -23.9694  -27.2857   19.0220 H   0  0  0  0  0  0
  -23.7734  -30.5800   19.3986 H   0  0  0  0  0  0
  -22.7638  -29.2402   19.8526 H   0  0  0  0  0  0
  -25.1303  -36.1895   25.0824 H   0  0  0  0  0  0
  -20.9976  -28.3256   24.1397 H   0  0  0  0  0  0
  -20.5653  -26.2298   23.3608 H   0  0  0  0  0  0
  -21.6645  -26.7418   22.1216 H   0  0  0  0  0  0
  -19.6907  -25.6286   21.1238 H   0  0  0  0  0  0
  -19.6692  -27.3182   20.6729 H   0  0  0  0  0  0
  -17.4202  -26.6658   21.4022 H   0  0  0  0  0  0
  -18.0332  -26.0068   22.9023 H   0  0  0  0  0  0
  -19.7946  -30.7255   24.2270 H   0  0  0  0  0  0
  -17.5027  -31.6266   24.5148 H   0  0  0  0  0  0
  -15.5360  -30.2980   23.7654 H   0  0  0  0  0  0
  -15.8671  -28.0805   22.7087 H   0  0  0  0  0  0
  -24.5910  -30.7083   25.7775 H   0  0  0  0  0  0
  -24.8938  -32.2900   26.4863 H   0  0  0  0  0  0
  -25.8065  -30.8912   27.0214 H   0  0  0  0  0  0
  -26.2933  -29.6742   24.1215 H   0  0  0  0  0  0
  -27.4058  -29.7275   25.4690 H   0  0  0  0  0  0
  -27.8798  -30.4282   23.9402 H   0  0  0  0  0  0
  -27.2646  -33.3636   26.2042 H   0  0  0  0  0  0
  -28.3873  -32.6888   25.0333 H   0  0  0  0  0  0
  -28.0702  -31.8476   26.5424 H   0  0  0  0  0  0
  -28.2591  -38.0093   24.7517 H   0  0  0  0  0  0
  -28.1082  -36.2623   24.6285 H   0  0  0  0  0  0
  -27.2290  -37.1432   25.8862 H   0  0  0  0  0  0
  -20.9386  -29.8771   21.6883 H   0  0  0  0  0  0
  -26.0156  -38.2840   24.1425 H   0  0  0  0  0  0
  -28.1518  -18.1434   18.8504 H   0  0  0  0  0  0
  -27.4406  -20.7305   18.9619 H   0  0  0  0  0  0
  -30.4097  -20.1833   21.8872 H   0  0  0  0  0  0
  -30.1805  -24.4489   17.0200 H   0  0  0  0  0  0
  -29.0730  -25.5041   17.8829 H   0  0  0  0  0  0
  -28.4931  -23.9909   17.1895 H   0  0  0  0  0  0
  -30.7091  -17.3820   21.8764 H   0  0  0  0  0  0
  -31.3125  -17.3713   20.2583 H   0  0  0  0  0  0
  -30.5272  -24.1922   19.4935 H   0  0  0  0  0  0
  -30.0068  -22.7178   18.7253 H   0  0  0  0  0  0
  -27.8979  -22.3235   21.6901 H   0  0  0  0  0  0
  -29.6029  -22.5732   21.5975 H   0  0  0  0  0  0
  -28.8387  -25.0630   21.6018 H   0  0  0  0  0  0
  -27.1821  -24.9396   21.1748 H   0  0  0  0  0  0
  -27.6141  -23.3622   19.4049 H   0  0  0  0  0  0
  -28.8781  -15.7431   20.8271 H   0  0  0  0  0  0
  1 25  1  0  0  0
  1 30  2  0  0  0
  1 82  1  0  0  0
  2  3  1  0  0  0
  2 25  1  0  0  0
  2 83  1  0  0  0
  2 84  1  0  0  0
  3  4  1  0  0  0
  3 85  1  0  0  0
  3 86  1  0  0  0
  4  5  1  0  0  0
  4 87  1  0  0  0
  4 88  1  0  0  0
  5  6  1  0  0  0
  5 26  1  0  0  0
  5 89  1  0  0  0
  6 25  1  0  0  0
  6 90  1  0  0  0
  6 91  1  0  0  0
  7  8  2  0  0  0
  7 26  1  0  0  0
  7 29  1  0  0  0
  8  9  1  0  0  0
  8 22  1  0  0  0
  9 10  1  0  0  0
  9 27  2  0  0  0
 10 11  2  0  0  0
 10 15  1  0  0  0
 11 12  1  0  0  0
 11 92  1  0  0  0
 12 13  2  0  0  0
 12 93  1  0  0  0
 13 14  1  0  0  0
 13 31  1  0  0  0
 14 15  2  0  0  0
 14 94  1  0  0  0
 15 95  1  0  0  0
 16 17  2  0  0  0
 16 21  1  0  0  0
 16 31  1  0  0  0
 17 18  1  0  0  0
 17 96  1  0  0  0
 18 19  2  0  0  0
 18 97  1  0  0  0
 19 20  1  0  0  0
 19 24  1  0  0  0
 20 21  2  0  0  0
 20 98  1  0  0  0
 21 23  1  0  0  0
 22 28  1  0  0  0
 22 32  2  0  0  0
 26 27  1  0  0  0
 28 99  1  0  0  0
 28100  1  0  0  0
 29101  1  0  0  0
 29102  1  0  0  0
 33 34  1  0  0  0
 33 66  1  0  0  0
 33 70  2  0  0  0
 34 36  1  0  0  0
 34 59  1  0  0  0
 34103  1  0  0  0
 35 44  2  0  0  0
 35 45  1  0  0  0
 35 68  1  0  0  0
 36 56  1  0  0  0
 36104  1  0  0  0
 37 39  1  0  0  0
 37 47  1  0  0  0
 37 66  1  0  0  0
 37105  1  0  0  0
 38 43  2  0  0  0
 38 46  1  0  0  0
 38 47  1  0  0  0
 39 64  1  0  0  0
 39 67  2  0  0  0
 40 52  1  0  0  0
 40 53  2  0  0  0
 40 58  1  0  0  0
 41106  1  0  0  0
 41107  1  0  0  0
 41108  1  0  0  0
 41 48  1  0  0  0
 42 43  1  0  0  0
 42 66  1  0  0  0
 42109  1  0  0  0
 42110  1  0  0  0
 43 44  1  0  0  0
 44111  1  0  0  0
 45 46  2  0  0  0
 45112  1  0  0  0
 46113  1  0  0  0
 47114  1  0  0  0
 47115  1  0  0  0
 48 56  1  0  0  0
 48 65  1  0  0  0
 48116  1  0  0  0
 49 50  1  0  0  0
 49 53  1  0  0  0
 49 64  1  0  0  0
 49117  1  0  0  0
 50 51  1  0  0  0
 50118  1  0  0  0
 50119  1  0  0  0
 51 52  1  0  0  0
 51120  1  0  0  0
 51121  1  0  0  0
 52122  1  0  0  0
 52123  1  0  0  0
 53 54  1  0  0  0
 54 55  2  0  0  0
 54124  1  0  0  0
 55 57  1  0  0  0
 55125  1  0  0  0
 56 69  2  0  0  0
 57 58  2  0  0  0
 57126  1  0  0  0
 58127  1  0  0  0
 59 60  1  0  0  0
 59 61  1  0  0  0
 59 62  1  0  0  0
 60128  1  0  0  0
 60129  1  0  0  0
 60130  1  0  0  0
 61131  1  0  0  0
 61132  1  0  0  0
 61133  1  0  0  0
 62134  1  0  0  0
 62135  1  0  0  0
 62136  1  0  0  0
 63 65  1  0  0  0
 63137  1  0  0  0
 63138  1  0  0  0
 63139  1  0  0  0
 64140  1  0  0  0
 65141  1  0  0  0
 68 79  1  0  0  0
 71 72  2  0  0  0
 71 74  1  0  0  0
 71142  1  0  0  0
 72 81  1  0  0  0
 72143  1  0  0  0
 73 74  2  0  0  0
 73 81  1  0  0  0
 73144  1  0  0  0
 74 76  1  0  0  0
 75 77  1  0  0  0
 75145  1  0  0  0
 75146  1  0  0  0
 75147  1  0  0  0
 76 82  1  0  0  0
 76148  1  0  0  0
 76149  1  0  0  0
 77150  1  0  0  0
 77151  1  0  0  0
 77 80  1  0  0  0
 78 80  1  0  0  0
 78 81  1  0  0  0
 78152  1  0  0  0
 78153  1  0  0  0
 79 80  1  0  0  0
 79154  1  0  0  0
 79155  1  0  0  0
 80156  1  0  0  0
 82157  1  0  0  0
M  ISO  4   1 100  68 101  79 101  82 100
M  END
> <chiral flag>
0

> <version>
0

> <s_m_source_file>
/data/baiqing/PycharmProjects/Reinvent-master-3.2/result/LINK_invent/BTK/process_docking_weight1_custom_sum_contain_oxygen_bond_distance_aromatic_linkinvent_7_9_3/rearranged_h_0098.sdf

> <i_m_source_file_index>
35

> <r_mmod_Potential_Energy-OPLS-2005>
128.849945068359

> <r_mmod_Stretch_Energy-OPLS-2005>
113.999069213867

> <r_mmod_Bend_Energy-OPLS-2005>
175.923629760742

> <r_mmod_Torsional_Energy-OPLS-2005>
242.376983642578

> <r_mmod_Improper_Torsional_Energy-OPLS-2005>
5.011803150177

> <r_mmod_Van_der_Waal_Energy-OPLS-2005>
108.637832641602

> <r_mmod_Electrostatic_Energy-OPLS-2005>
-387.936401367188

> <r_mmod_Solvation_Energy-OPLS-2005>
-208.314483642578

> <b_mmod_Minimization_Converged-OPLS-2005>
0

> <r_mmod_RMS_Derivative-OPLS-2005>
1.34436249732971

$$$$
36
                    3D
 Structure written by MMmdl.
149156  0  0  1  0            999 V2000
  -30.1606  -16.0034   20.3299 C   0  0  0  0  0  0
  -30.3939  -13.3689   19.5352 C   0  0  0  0  0  0
  -29.5662  -12.7626   18.3549 C   0  0  0  0  0  0
  -28.1690  -12.3228   18.8135 C   0  0  0  0  0  0
  -27.5826  -13.3476   19.8038 C   0  0  2  0  0  0
  -28.5731  -13.8340   20.8959 C   0  0  0  0  0  0
  -25.2264  -13.8343   20.5864 C   0  0  0  0  0  0
  -24.1703  -13.0436   20.9332 C   0  0  0  0  0  0
  -24.6459  -11.6968   20.8775 C   0  0  0  0  0  0
  -23.9170  -10.4297   21.0383 C   0  0  0  0  0  0
  -24.3685   -9.4196   21.9153 C   0  0  0  0  0  0
  -23.6325   -8.2252   22.0741 C   0  0  0  0  0  0
  -22.4293   -8.0302   21.3544 C   0  0  0  0  0  0
  -21.9951   -9.0292   20.4656 C   0  0  0  0  0  0
  -22.7327  -10.2143   20.3039 C   0  0  0  0  0  0
  -21.6862   -6.0745   22.5276 C   0  0  0  0  0  0
  -21.4029   -6.5643   23.8216 C   0  0  0  0  0  0
  -21.3656   -5.6785   24.9173 C   0  0  0  0  0  0
  -21.6037   -4.3051   24.7218 C   0  0  0  0  0  0
  -21.8822   -3.8146   23.4342 C   0  0  0  0  0  0
  -21.9198   -4.6972   22.3403 C   0  0  0  0  0  0
  -22.7701  -13.5142   21.1961 C   0  0  0  0  0  0
  -22.1668   -4.2158   21.0979 F   0  0  0  0  0  0
  -21.5619   -3.4532   25.7730 F   0  0  0  0  0  0
  -29.6770  -14.5786   20.2082 N   0  0  0  0  0  0
  -26.2751  -12.9749   20.3250 N   0  0  0  0  0  0
  -25.9413  -11.6775   20.5651 N   0  0  0  0  0  0
  -22.0364  -12.8109   22.0502 N   0  0  0  0  0  0
  -25.3778  -15.2100   20.4348 N   0  0  0  0  0  0
  -31.4072  -15.8718   20.3053 O   0  0  0  0  0  0
  -21.6647   -6.8903   21.4240 O   0  0  0  0  0  0
  -22.3372  -14.5439   20.6805 O   0  0  0  0  0  0
  -24.7108  -31.7687   23.1303 C   0  0  0  0  0  0
  -25.9552  -32.4323   23.7959 C   0  0  1  0  0  0
  -27.2398  -26.4307   20.2556 C   0  0  0  0  0  0
  -25.6012  -33.8164   24.1812 N   0  0  0  0  0  0
  -23.5497  -30.3594   21.4904 C   0  0  2  0  0  0
  -25.0085  -28.6391   20.1359 C   0  0  0  0  0  0
  -22.7892  -29.4156   22.4643 C   0  0  0  0  0  0
  -18.0357  -28.1423   22.8435 C   0  0  0  0  0  0
  -24.1493  -36.7089   23.2660 C   0  0  0  0  0  0
  -26.1423  -30.4137   21.4357 C   0  0  0  0  0  0
  -26.2042  -28.9463   20.7952 C   0  0  0  0  0  0
  -27.2938  -27.8822   20.8066 C   0  0  0  0  0  0
  -26.0062  -26.4018   19.5343 C   0  0  0  0  0  0
  -24.9651  -27.3955   19.4780 C   0  0  0  0  0  0
  -23.8204  -29.6303   20.1395 C   0  0  0  0  0  0
  -25.4153  -36.2814   24.0272 C   0  0  1  0  0  0
  -20.6004  -28.3807   23.1075 C   0  0  2  0  0  0
  -20.6805  -26.9442   22.5394 C   0  0  0  0  0  0
  -19.5784  -26.6352   21.5206 C   0  0  0  0  0  0
  -18.1969  -26.7943   22.1607 C   0  0  0  0  0  0
  -19.1627  -28.8947   23.2726 C   0  0  0  0  0  0
  -18.9528  -30.1514   23.8803 C   0  0  0  0  0  0
  -17.6513  -30.6600   24.0536 C   0  0  0  0  0  0
  -25.9152  -34.9211   23.4901 C   0  0  0  0  0  0
  -16.5400  -29.9082   23.6340 C   0  0  0  0  0  0
  -16.7333  -28.6498   23.0373 C   0  0  0  0  0  0
  -26.4626  -31.6482   25.0705 C   0  0  0  0  0  0
  -25.3620  -31.3871   26.1275 C   0  0  0  0  0  0
  -27.0595  -30.2788   24.6817 C   0  0  0  0  0  0
  -27.6036  -32.4400   25.7523 C   0  0  0  0  0  0
  -27.5558  -37.1700   24.8467 C   0  0  0  0  0  0
  -21.4515  -29.3015   22.3389 N   0  0  0  0  0  0
  -26.4255  -37.3606   23.9411 N   0  0  0  0  0  0
  -24.8281  -30.8879   22.0704 N   0  0  0  0  0  0
  -23.4198  -28.7806   23.3120 O   0  0  0  0  0  0
  -28.1950  -25.1074   20.2415 O   0  0  0  0  0  0
  -26.5828  -34.8834   22.4542 O   0  0  0  0  0  0
  -23.6061  -32.0890   23.6075 O   0  0  0  0  0  0
  -28.2676  -23.2343   22.0281 C   0  0  0  0  0  0
  -30.3793  -21.6926   19.7635 C   0  0  0  0  0  0
  -28.2303  -21.0415   18.6806 C   0  0  0  0  0  0
  -29.2418  -19.3339   20.6781 C   0  0  0  0  0  0
  -28.1625  -23.2229   20.5028 C   0  0  2  0  0  0
  -28.9178  -21.3083   20.0259 C   0  0  0  0  0  0
  -29.3988  -17.4642   20.2941 N   0  0  0  0  0  0
  -31.3559  -13.6930   19.1368 H   0  0  0  0  0  0
  -30.6456  -12.5982   20.2665 H   0  0  0  0  0  0
  -30.0985  -11.9281   17.8963 H   0  0  0  0  0  0
  -29.4645  -13.5218   17.5778 H   0  0  0  0  0  0
  -28.2626  -11.3551   19.3062 H   0  0  0  0  0  0
  -27.5076  -12.1776   17.9590 H   0  0  0  0  0  0
  -27.3918  -14.2199   19.1760 H   0  0  0  0  0  0
  -28.9201  -13.0121   21.5256 H   0  0  0  0  0  0
  -28.0667  -14.5274   21.5694 H   0  0  0  0  0  0
  -25.2831   -9.5651   22.4729 H   0  0  0  0  0  0
  -24.0024   -7.4628   22.7452 H   0  0  0  0  0  0
  -21.0870   -8.8857   19.8965 H   0  0  0  0  0  0
  -22.3805  -10.9691   19.6153 H   0  0  0  0  0  0
  -21.2031   -7.6151   23.9730 H   0  0  0  0  0  0
  -21.1465   -6.0512   25.9081 H   0  0  0  0  0  0
  -22.0600   -2.7609   23.2848 H   0  0  0  0  0  0
  -22.4015  -11.9799   22.4920 H   0  0  0  0  0  0
  -21.0962  -13.1092   22.2674 H   0  0  0  0  0  0
  -24.6033  -15.8547   20.5562 H   0  0  0  0  0  0
  -26.2191  -15.6578   20.0955 H   0  0  0  0  0  0
  -26.7680  -32.4737   23.0699 H   0  0  0  0  0  0
  -25.0029  -33.9149   24.9879 H   0  0  0  0  0  0
  -22.8920  -31.2041   21.2756 H   0  0  0  0  0  0
  -23.3784  -35.9387   23.3255 H   0  0  0  0  0  0
  -24.3552  -36.8829   22.2088 H   0  0  0  0  0  0
  -23.7224  -37.6230   23.6798 H   0  0  0  0  0  0
  -26.3762  -31.1191   20.6364 H   0  0  0  0  0  0
  -26.9814  -30.4897   22.1153 H   0  0  0  0  0  0
  -28.2006  -28.1455   21.3333 H   0  0  0  0  0  0
  -25.8014  -25.4843   19.0012 H   0  0  0  0  0  0
  -24.0729  -27.1452   18.9194 H   0  0  0  0  0  0
  -24.0290  -30.3776   19.3731 H   0  0  0  0  0  0
  -22.9183  -29.1160   19.8029 H   0  0  0  0  0  0
  -25.1372  -36.1545   25.0763 H   0  0  0  0  0  0
  -21.0064  -28.3449   24.1207 H   0  0  0  0  0  0
  -20.5615  -26.2454   23.3690 H   0  0  0  0  0  0
  -21.6670  -26.7328   22.1250 H   0  0  0  0  0  0
  -19.6939  -25.6235   21.1311 H   0  0  0  0  0  0
  -19.6718  -27.3096   20.6684 H   0  0  0  0  0  0
  -17.4230  -26.6664   21.4015 H   0  0  0  0  0  0
  -18.0360  -26.0110   22.9033 H   0  0  0  0  0  0
  -19.8005  -30.7340   24.2142 H   0  0  0  0  0  0
  -17.5067  -31.6273   24.5156 H   0  0  0  0  0  0
  -15.5396  -30.2956   23.7717 H   0  0  0  0  0  0
  -15.8728  -28.0775   22.7161 H   0  0  0  0  0  0
  -24.5806  -30.7241   25.7543 H   0  0  0  0  0  0
  -24.8819  -32.3121   26.4490 H   0  0  0  0  0  0
  -25.7725  -30.9140   27.0208 H   0  0  0  0  0  0
  -26.3358  -29.6318   24.1859 H   0  0  0  0  0  0
  -27.3939  -29.7361   25.5672 H   0  0  0  0  0  0
  -27.9377  -30.3840   24.0445 H   0  0  0  0  0  0
  -27.2550  -33.3775   26.1867 H   0  0  0  0  0  0
  -28.3955  -32.6858   25.0435 H   0  0  0  0  0  0
  -28.0609  -31.8716   26.5631 H   0  0  0  0  0  0
  -28.2539  -38.0026   24.7519 H   0  0  0  0  0  0
  -28.1087  -36.2557   24.6284 H   0  0  0  0  0  0
  -27.2284  -37.1327   25.8867 H   0  0  0  0  0  0
  -20.9896  -29.8649   21.6390 H   0  0  0  0  0  0
  -26.0070  -38.2644   24.1417 H   0  0  0  0  0  0
  -27.9858  -22.2682   22.4475 H   0  0  0  0  0  0
  -27.6138  -23.9888   22.4647 H   0  0  0  0  0  0
  -29.2880  -23.4472   22.3451 H   0  0  0  0  0  0
  -30.9036  -20.9251   19.1942 H   0  0  0  0  0  0
  -30.9094  -21.8207   20.7077 H   0  0  0  0  0  0
  -30.4580  -22.6326   19.2159 H   0  0  0  0  0  0
  -28.6860  -20.2008   18.1567 H   0  0  0  0  0  0
  -28.2846  -21.9099   18.0227 H   0  0  0  0  0  0
  -27.1777  -20.7996   18.8281 H   0  0  0  0  0  0
  -28.3888  -19.2556   21.3531 H   0  0  0  0  0  0
  -30.0776  -19.4596   21.3690 H   0  0  0  0  0  0
  -27.1050  -23.0584   20.2955 H   0  0  0  0  0  0
  -28.4494  -17.1842   20.0920 H   0  0  0  0  0  0
  1 25  1  0  0  0
  1 30  2  0  0  0
  1 77  1  0  0  0
  2  3  1  0  0  0
  2 25  1  0  0  0
  2 78  1  0  0  0
  2 79  1  0  0  0
  3  4  1  0  0  0
  3 80  1  0  0  0
  3 81  1  0  0  0
  4  5  1  0  0  0
  4 82  1  0  0  0
  4 83  1  0  0  0
  5  6  1  0  0  0
  5 26  1  0  0  0
  5 84  1  0  0  0
  6 25  1  0  0  0
  6 85  1  0  0  0
  6 86  1  0  0  0
  7  8  2  0  0  0
  7 26  1  0  0  0
  7 29  1  0  0  0
  8  9  1  0  0  0
  8 22  1  0  0  0
  9 10  1  0  0  0
  9 27  2  0  0  0
 10 11  2  0  0  0
 10 15  1  0  0  0
 11 12  1  0  0  0
 11 87  1  0  0  0
 12 13  2  0  0  0
 12 88  1  0  0  0
 13 14  1  0  0  0
 13 31  1  0  0  0
 14 15  2  0  0  0
 14 89  1  0  0  0
 15 90  1  0  0  0
 16 17  2  0  0  0
 16 21  1  0  0  0
 16 31  1  0  0  0
 17 18  1  0  0  0
 17 91  1  0  0  0
 18 19  2  0  0  0
 18 92  1  0  0  0
 19 20  1  0  0  0
 19 24  1  0  0  0
 20 21  2  0  0  0
 20 93  1  0  0  0
 21 23  1  0  0  0
 22 28  1  0  0  0
 22 32  2  0  0  0
 26 27  1  0  0  0
 28 94  1  0  0  0
 28 95  1  0  0  0
 29 96  1  0  0  0
 29 97  1  0  0  0
 33 34  1  0  0  0
 33 66  1  0  0  0
 33 70  2  0  0  0
 34 36  1  0  0  0
 34 59  1  0  0  0
 34 98  1  0  0  0
 35 44  2  0  0  0
 35 45  1  0  0  0
 35 68  1  0  0  0
 36 56  1  0  0  0
 36 99  1  0  0  0
 37 39  1  0  0  0
 37 47  1  0  0  0
 37 66  1  0  0  0
 37100  1  0  0  0
 38 43  2  0  0  0
 38 46  1  0  0  0
 38 47  1  0  0  0
 39 64  1  0  0  0
 39 67  2  0  0  0
 40 52  1  0  0  0
 40 53  2  0  0  0
 40 58  1  0  0  0
 41101  1  0  0  0
 41102  1  0  0  0
 41103  1  0  0  0
 41 48  1  0  0  0
 42 43  1  0  0  0
 42 66  1  0  0  0
 42104  1  0  0  0
 42105  1  0  0  0
 43 44  1  0  0  0
 44106  1  0  0  0
 45 46  2  0  0  0
 45107  1  0  0  0
 46108  1  0  0  0
 47109  1  0  0  0
 47110  1  0  0  0
 48 56  1  0  0  0
 48 65  1  0  0  0
 48111  1  0  0  0
 49 50  1  0  0  0
 49 53  1  0  0  0
 49 64  1  0  0  0
 49112  1  0  0  0
 50 51  1  0  0  0
 50113  1  0  0  0
 50114  1  0  0  0
 51 52  1  0  0  0
 51115  1  0  0  0
 51116  1  0  0  0
 52117  1  0  0  0
 52118  1  0  0  0
 53 54  1  0  0  0
 54 55  2  0  0  0
 54119  1  0  0  0
 55 57  1  0  0  0
 55120  1  0  0  0
 56 69  2  0  0  0
 57 58  2  0  0  0
 57121  1  0  0  0
 58122  1  0  0  0
 59 60  1  0  0  0
 59 61  1  0  0  0
 59 62  1  0  0  0
 60123  1  0  0  0
 60124  1  0  0  0
 60125  1  0  0  0
 61126  1  0  0  0
 61127  1  0  0  0
 61128  1  0  0  0
 62129  1  0  0  0
 62130  1  0  0  0
 62131  1  0  0  0
 63 65  1  0  0  0
 63132  1  0  0  0
 63133  1  0  0  0
 63134  1  0  0  0
 64135  1  0  0  0
 65136  1  0  0  0
 68 75  1  0  0  0
 71137  1  0  0  0
 71138  1  0  0  0
 71139  1  0  0  0
 71 75  1  0  0  0
 72140  1  0  0  0
 72141  1  0  0  0
 72142  1  0  0  0
 72 76  1  0  0  0
 73 76  1  0  0  0
 73143  1  0  0  0
 73144  1  0  0  0
 73145  1  0  0  0
 74 76  1  0  0  0
 74 77  1  0  0  0
 74146  1  0  0  0
 74147  1  0  0  0
 75 76  1  0  0  0
 75148  1  0  0  0
 77149  1  0  0  0
M  ISO  4   1 100  68 101  75 101  77 100
M  END
> <chiral flag>
0

> <version>
0

> <s_m_source_file>
/data/baiqing/PycharmProjects/Reinvent-master-3.2/result/LINK_invent/BTK/process_docking_weight1_custom_sum_contain_oxygen_bond_distance_aromatic_linkinvent_7_9_3/rearranged_h_0098.sdf

> <i_m_source_file_index>
36

> <r_mmod_Potential_Energy-OPLS-2005>
4185.76318359375

> <r_mmod_Stretch_Energy-OPLS-2005>
1941.18774414062

> <r_mmod_Bend_Energy-OPLS-2005>
919.373291015625

> <r_mmod_Torsional_Energy-OPLS-2005>
267.318084716797

> <r_mmod_Improper_Torsional_Energy-OPLS-2005>
5.48625612258911

> <r_mmod_Van_der_Waal_Energy-OPLS-2005>
108.003715515137

> <r_mmod_Electrostatic_Energy-OPLS-2005>
-388.218414306641

> <r_mmod_Solvation_Energy-OPLS-2005>
-213.591934204102

> <b_mmod_Minimization_Converged-OPLS-2005>
0

> <r_mmod_RMS_Derivative-OPLS-2005>
2.49974322319031

$$$$
37
                    3D
 Structure written by MMmdl.
140147  0  0  1  0            999 V2000
  -30.1611  -16.0041   20.3080 C   0  0  0  0  0  0
  -30.3940  -13.3709   19.5193 C   0  0  0  0  0  0
  -29.5602  -12.7495   18.3505 C   0  0  0  0  0  0
  -28.1679  -12.3098   18.8207 C   0  0  0  0  0  0
  -27.5837  -13.3431   19.8035 C   0  0  2  0  0  0
  -28.5794  -13.8362   20.8889 C   0  0  0  0  0  0
  -25.2278  -13.8329   20.5856 C   0  0  0  0  0  0
  -24.1700  -13.0433   20.9315 C   0  0  0  0  0  0
  -24.6450  -11.6960   20.8763 C   0  0  0  0  0  0
  -23.9156  -10.4295   21.0384 C   0  0  0  0  0  0
  -24.3676   -9.4207   21.9173 C   0  0  0  0  0  0
  -23.6326   -8.2253   22.0753 C   0  0  0  0  0  0
  -22.4305   -8.0296   21.3544 C   0  0  0  0  0  0
  -21.9960   -9.0273   20.4641 C   0  0  0  0  0  0
  -22.7315  -10.2138   20.3042 C   0  0  0  0  0  0
  -21.6863   -6.0747   22.5279 C   0  0  0  0  0  0
  -21.4022   -6.5646   23.8213 C   0  0  0  0  0  0
  -21.3661   -5.6796   24.9173 C   0  0  0  0  0  0
  -21.6044   -4.3059   24.7222 C   0  0  0  0  0  0
  -21.8818   -3.8153   23.4342 C   0  0  0  0  0  0
  -21.9196   -4.6972   22.3400 C   0  0  0  0  0  0
  -22.7702  -13.5137   21.1934 C   0  0  0  0  0  0
  -22.1662   -4.2158   21.0977 F   0  0  0  0  0  0
  -21.5626   -3.4540   25.7734 F   0  0  0  0  0  0
  -29.6775  -14.5802   20.1919 N   0  0  0  0  0  0
  -26.2769  -12.9729   20.3291 N   0  0  0  0  0  0
  -25.9412  -11.6758   20.5682 N   0  0  0  0  0  0
  -22.0374  -12.8106   22.0483 N   0  0  0  0  0  0
  -25.3817  -15.2078   20.4306 N   0  0  0  0  0  0
  -31.4087  -15.8722   20.2822 O   0  0  0  0  0  0
  -21.6655   -6.8899   21.4244 O   0  0  0  0  0  0
  -22.3368  -14.5432   20.6768 O   0  0  0  0  0  0
  -24.7122  -31.7741   23.1306 C   0  0  0  0  0  0
  -25.9575  -32.4339   23.7956 C   0  0  1  0  0  0
  -27.2357  -26.4414   20.2493 C   0  0  0  0  0  0
  -25.6043  -33.8173   24.1821 N   0  0  0  0  0  0
  -23.5502  -30.3697   21.4913 C   0  0  2  0  0  0
  -25.0042  -28.6446   20.1367 C   0  0  0  0  0  0
  -22.7896  -29.4343   22.4700 C   0  0  0  0  0  0
  -18.0162  -28.1569   22.8214 C   0  0  0  0  0  0
  -24.1498  -36.7093   23.2657 C   0  0  0  0  0  0
  -26.1405  -30.4200   21.4324 C   0  0  0  0  0  0
  -26.2010  -28.9529   20.7936 C   0  0  0  0  0  0
  -27.2917  -27.8910   20.8024 C   0  0  0  0  0  0
  -25.9991  -26.4075   19.5352 C   0  0  0  0  0  0
  -24.9575  -27.3998   19.4818 C   0  0  0  0  0  0
  -23.8153  -29.6344   20.1422 C   0  0  0  0  0  0
  -25.4158  -36.2817   24.0263 C   0  0  1  0  0  0
  -20.6073  -28.3875   23.0881 C   0  0  2  0  0  0
  -20.7786  -26.9756   22.4608 C   0  0  0  0  0  0
  -19.5498  -26.4216   21.7088 C   0  0  0  0  0  0
  -18.1097  -26.8638   22.0237 C   0  0  0  0  0  0
  -19.1588  -28.8842   23.2637 C   0  0  0  0  0  0
  -18.9570  -30.1345   23.8911 C   0  0  0  0  0  0
  -17.6624  -30.6560   24.0765 C   0  0  0  0  0  0
  -25.9160  -34.9216   23.4892 C   0  0  0  0  0  0
  -16.5419  -29.9202   23.6574 C   0  0  0  0  0  0
  -16.7219  -28.6723   23.0397 C   0  0  0  0  0  0
  -26.4648  -31.6466   25.0680 C   0  0  0  0  0  0
  -25.3637  -31.3855   26.1238 C   0  0  0  0  0  0
  -27.0614  -30.2776   24.6755 C   0  0  0  0  0  0
  -27.6047  -32.4377   25.7524 C   0  0  0  0  0  0
  -27.5558  -37.1705   24.8467 C   0  0  0  0  0  0
  -21.4495  -29.3435   22.3578 N   0  0  0  0  0  0
  -26.4262  -37.3606   23.9409 N   0  0  0  0  0  0
  -24.8283  -30.8941   22.0696 N   0  0  0  0  0  0
  -23.4210  -28.7802   23.3033 O   0  0  0  0  0  0
  -28.1967  -25.1262   20.2226 O   0  0  0  0  0  0
  -26.5824  -34.8842   22.4527 O   0  0  0  0  0  0
  -23.6085  -32.0940   23.6097 O   0  0  0  0  0  0
  -28.7705  -21.2825   19.9969 C   0  0  0  0  0  0
  -29.3625  -19.3536   20.6014 C   0  0  0  0  0  0
  -28.2110  -23.2498   20.5175 C   0  0  0  0  0  0
  -29.4079  -17.4693   20.2741 N   0  0  0  0  0  0
  -31.3466  -13.7011   19.1035 H   0  0  0  0  0  0
  -30.6640  -12.6081   20.2520 H   0  0  0  0  0  0
  -30.0920  -11.9085   17.9034 H   0  0  0  0  0  0
  -29.4512  -13.4961   17.5625 H   0  0  0  0  0  0
  -28.2677  -11.3481   19.3257 H   0  0  0  0  0  0
  -27.5014  -12.1499   17.9722 H   0  0  0  0  0  0
  -27.3925  -14.2099   19.1687 H   0  0  0  0  0  0
  -28.9347  -13.0208   21.5211 H   0  0  0  0  0  0
  -28.0774  -14.5353   21.5592 H   0  0  0  0  0  0
  -25.2813   -9.5677   22.4762 H   0  0  0  0  0  0
  -24.0020   -7.4647   22.7483 H   0  0  0  0  0  0
  -21.0888   -8.8807   19.8948 H   0  0  0  0  0  0
  -22.3776  -10.9680   19.6153 H   0  0  0  0  0  0
  -21.2018   -7.6155   23.9719 H   0  0  0  0  0  0
  -21.1482   -6.0525   25.9077 H   0  0  0  0  0  0
  -22.0594   -2.7615   23.2840 H   0  0  0  0  0  0
  -22.4027  -11.9789   22.4882 H   0  0  0  0  0  0
  -21.0974  -13.1085   22.2674 H   0  0  0  0  0  0
  -24.6092  -15.8546   20.5480 H   0  0  0  0  0  0
  -26.2271  -15.6547   20.1017 H   0  0  0  0  0  0
  -26.7689  -32.4750   23.0689 H   0  0  0  0  0  0
  -25.0068  -33.9166   24.9896 H   0  0  0  0  0  0
  -22.8946  -31.2157   21.2742 H   0  0  0  0  0  0
  -23.3788  -35.9392   23.3244 H   0  0  0  0  0  0
  -24.3558  -36.8846   22.2087 H   0  0  0  0  0  0
  -23.7232  -37.6231   23.6804 H   0  0  0  0  0  0
  -26.3681  -31.1235   20.6306 H   0  0  0  0  0  0
  -26.9832  -30.5006   22.1060 H   0  0  0  0  0  0
  -28.1975  -28.1537   21.3305 H   0  0  0  0  0  0
  -25.7911  -25.4872   19.0076 H   0  0  0  0  0  0
  -24.0632  -27.1495   18.9276 H   0  0  0  0  0  0
  -24.0136  -30.3783   19.3698 H   0  0  0  0  0  0
  -22.9130  -29.1146   19.8155 H   0  0  0  0  0  0
  -25.1379  -36.1542   25.0751 H   0  0  0  0  0  0
  -20.9993  -28.3319   24.1064 H   0  0  0  0  0  0
  -21.1583  -26.3040   23.2422 H   0  0  0  0  0  0
  -21.6163  -26.9721   21.7601 H   0  0  0  0  0  0
  -19.3880  -26.0269   22.7114 H   0  0  0  0  0  0
  -19.6128  -27.3462   21.1307 H   0  0  0  0  0  0
  -17.5815  -27.0283   21.0810 H   0  0  0  0  0  0
  -17.5017  -26.0951   22.5175 H   0  0  0  0  0  0
  -19.8097  -30.7074   24.2302 H   0  0  0  0  0  0
  -17.5302  -31.6181   24.5523 H   0  0  0  0  0  0
  -15.5460  -30.3152   23.8048 H   0  0  0  0  0  0
  -15.8546  -28.1225   22.6995 H   0  0  0  0  0  0
  -24.5858  -30.7178   25.7514 H   0  0  0  0  0  0
  -24.8793  -32.3100   26.4389 H   0  0  0  0  0  0
  -25.7743  -30.9184   27.0198 H   0  0  0  0  0  0
  -26.3378  -29.6321   24.1770 H   0  0  0  0  0  0
  -27.3966  -29.7315   25.5583 H   0  0  0  0  0  0
  -27.9387  -30.3845   24.0374 H   0  0  0  0  0  0
  -27.2557  -33.3779   26.1808 H   0  0  0  0  0  0
  -28.4013  -32.6778   25.0469 H   0  0  0  0  0  0
  -28.0543  -31.8704   26.5683 H   0  0  0  0  0  0
  -28.2525  -38.0046   24.7520 H   0  0  0  0  0  0
  -28.1104  -36.2565   24.6288 H   0  0  0  0  0  0
  -27.2271  -37.1326   25.8867 H   0  0  0  0  0  0
  -20.9859  -29.9264   21.6745 H   0  0  0  0  0  0
  -26.0065  -38.2641   24.1431 H   0  0  0  0  0  0
  -27.9479  -21.0312   19.3274 H   0  0  0  0  0  0
  -29.5799  -21.5046   19.3014 H   0  0  0  0  0  0
  -28.8623  -19.3135   21.5693 H   0  0  0  0  0  0
  -30.4044  -19.5229   20.8749 H   0  0  0  0  0  0
  -28.6621  -23.2870   21.5090 H   0  0  0  0  0  0
  -27.1534  -23.1048   20.7380 H   0  0  0  0  0  0
  -28.4467  -17.2150   20.0887 H   0  0  0  0  0  0
  1 25  1  0  0  0
  1 30  2  0  0  0
  1 74  1  0  0  0
  2  3  1  0  0  0
  2 25  1  0  0  0
  2 75  1  0  0  0
  2 76  1  0  0  0
  3  4  1  0  0  0
  3 77  1  0  0  0
  3 78  1  0  0  0
  4  5  1  0  0  0
  4 79  1  0  0  0
  4 80  1  0  0  0
  5  6  1  0  0  0
  5 26  1  0  0  0
  5 81  1  0  0  0
  6 25  1  0  0  0
  6 82  1  0  0  0
  6 83  1  0  0  0
  7  8  2  0  0  0
  7 26  1  0  0  0
  7 29  1  0  0  0
  8  9  1  0  0  0
  8 22  1  0  0  0
  9 10  1  0  0  0
  9 27  2  0  0  0
 10 11  2  0  0  0
 10 15  1  0  0  0
 11 12  1  0  0  0
 11 84  1  0  0  0
 12 13  2  0  0  0
 12 85  1  0  0  0
 13 14  1  0  0  0
 13 31  1  0  0  0
 14 15  2  0  0  0
 14 86  1  0  0  0
 15 87  1  0  0  0
 16 17  2  0  0  0
 16 21  1  0  0  0
 16 31  1  0  0  0
 17 18  1  0  0  0
 17 88  1  0  0  0
 18 19  2  0  0  0
 18 89  1  0  0  0
 19 20  1  0  0  0
 19 24  1  0  0  0
 20 21  2  0  0  0
 20 90  1  0  0  0
 21 23  1  0  0  0
 22 28  1  0  0  0
 22 32  2  0  0  0
 26 27  1  0  0  0
 28 91  1  0  0  0
 28 92  1  0  0  0
 29 93  1  0  0  0
 29 94  1  0  0  0
 33 34  1  0  0  0
 33 66  1  0  0  0
 33 70  2  0  0  0
 34 36  1  0  0  0
 34 59  1  0  0  0
 34 95  1  0  0  0
 35 44  2  0  0  0
 35 45  1  0  0  0
 35 68  1  0  0  0
 36 56  1  0  0  0
 36 96  1  0  0  0
 37 39  1  0  0  0
 37 47  1  0  0  0
 37 66  1  0  0  0
 37 97  1  0  0  0
 38 43  2  0  0  0
 38 46  1  0  0  0
 38 47  1  0  0  0
 39 64  1  0  0  0
 39 67  2  0  0  0
 40 52  1  0  0  0
 40 53  2  0  0  0
 40 58  1  0  0  0
 41 98  1  0  0  0
 41 99  1  0  0  0
 41100  1  0  0  0
 41 48  1  0  0  0
 42 43  1  0  0  0
 42 66  1  0  0  0
 42101  1  0  0  0
 42102  1  0  0  0
 43 44  1  0  0  0
 44103  1  0  0  0
 45 46  2  0  0  0
 45104  1  0  0  0
 46105  1  0  0  0
 47106  1  0  0  0
 47107  1  0  0  0
 48 56  1  0  0  0
 48 65  1  0  0  0
 48108  1  0  0  0
 49 50  1  0  0  0
 49 53  1  0  0  0
 49 64  1  0  0  0
 49109  1  0  0  0
 50 51  1  0  0  0
 50110  1  0  0  0
 50111  1  0  0  0
 51 52  1  0  0  0
 51112  1  0  0  0
 51113  1  0  0  0
 52114  1  0  0  0
 52115  1  0  0  0
 53 54  1  0  0  0
 54 55  2  0  0  0
 54116  1  0  0  0
 55 57  1  0  0  0
 55117  1  0  0  0
 56 69  2  0  0  0
 57 58  2  0  0  0
 57118  1  0  0  0
 58119  1  0  0  0
 59 60  1  0  0  0
 59 61  1  0  0  0
 59 62  1  0  0  0
 60120  1  0  0  0
 60121  1  0  0  0
 60122  1  0  0  0
 61123  1  0  0  0
 61124  1  0  0  0
 61125  1  0  0  0
 62126  1  0  0  0
 62127  1  0  0  0
 62128  1  0  0  0
 63 65  1  0  0  0
 63129  1  0  0  0
 63130  1  0  0  0
 63131  1  0  0  0
 64132  1  0  0  0
 65133  1  0  0  0
 68 73  1  0  0  0
 71 72  1  0  0  0
 71 73  1  0  0  0
 71134  1  0  0  0
 71135  1  0  0  0
 72 74  1  0  0  0
 72136  1  0  0  0
 72137  1  0  0  0
 73138  1  0  0  0
 73139  1  0  0  0
 74140  1  0  0  0
M  ISO  4   1 100  68 101  73 101  74 100
M  END
> <chiral flag>
0

> <version>
0

> <s_m_source_file>
/data/baiqing/PycharmProjects/Reinvent-master-3.2/result/LINK_invent/BTK/process_docking_weight1_custom_sum_contain_oxygen_bond_distance_aromatic_linkinvent_7_9_3/rearranged_h_0098.sdf

> <i_m_source_file_index>
37

> <r_mmod_Potential_Energy-OPLS-2005>
4439.1796875

> <r_mmod_Stretch_Energy-OPLS-2005>
1928.78686523438

> <r_mmod_Bend_Energy-OPLS-2005>
1134.07287597656

> <r_mmod_Torsional_Energy-OPLS-2005>
253.740341186523

> <r_mmod_Improper_Torsional_Energy-OPLS-2005>
5.21059560775757

> <r_mmod_Van_der_Waal_Energy-OPLS-2005>
136.971328735352

> <r_mmod_Electrostatic_Energy-OPLS-2005>
-343.119842529297

> <r_mmod_Solvation_Energy-OPLS-2005>
-223.109710693359

> <b_mmod_Minimization_Converged-OPLS-2005>
0

> <r_mmod_RMS_Derivative-OPLS-2005>
0.0710311159491539

$$$$
38
                    3D
 Structure written by MMmdl.
172180  0  0  1  0            999 V2000
  -30.7479  -14.3705   20.7126 C   0  0  0  0  0  0
  -30.4290  -12.3032   19.3884 C   0  0  0  0  0  0
  -29.4891  -12.5360   18.1900 C   0  0  0  0  0  0
  -28.0108  -12.3876   18.6026 C   0  0  0  0  0  0
  -27.6672  -13.1981   19.8797 C   0  0  2  0  0  0
  -28.7033  -12.9136   20.9864 C   0  0  0  0  0  0
  -25.2607  -13.8143   20.5633 C   0  0  0  0  0  0
  -24.1846  -13.0439   20.9141 C   0  0  0  0  0  0
  -24.6368  -11.6896   20.8693 C   0  0  0  0  0  0
  -23.9036  -10.4301   21.0385 C   0  0  0  0  0  0
  -24.3590   -9.4215   21.9169 C   0  0  0  0  0  0
  -23.6276   -8.2253   22.0755 C   0  0  0  0  0  0
  -22.4271   -8.0272   21.3538 C   0  0  0  0  0  0
  -21.9887   -9.0236   20.4639 C   0  0  0  0  0  0
  -22.7206  -10.2125   20.3036 C   0  0  0  0  0  0
  -21.6844   -6.0726   22.5270 C   0  0  0  0  0  0
  -21.4001   -6.5619   23.8200 C   0  0  0  0  0  0
  -21.3665   -5.6783   24.9167 C   0  0  0  0  0  0
  -21.6065   -4.3046   24.7224 C   0  0  0  0  0  0
  -21.8819   -3.8132   23.4335 C   0  0  0  0  0  0
  -21.9186   -4.6955   22.3393 C   0  0  0  0  0  0
  -22.7873  -13.5237   21.1838 C   0  0  0  0  0  0
  -22.1657   -4.2134   21.0983 F   0  0  0  0  0  0
  -21.5648   -3.4545   25.7740 F   0  0  0  0  0  0
  -30.0459  -13.2343   20.4588 N   0  0  0  0  0  0
  -26.3046  -12.9286   20.3359 N   0  0  0  0  0  0
  -25.9300  -11.6455   20.5729 N   0  0  0  0  0  0
  -22.0519  -12.8222   22.0390 N   0  0  0  0  0  0
  -25.4352  -15.1852   20.4037 N   0  0  0  0  0  0
  -31.8022  -14.6631   20.1396 O   0  0  0  0  0  0
  -21.6631   -6.8868   21.4227 O   0  0  0  0  0  0
  -22.3558  -14.5570   20.6728 O   0  0  0  0  0  0
  -24.6157  -31.8668   23.2138 C   0  0  0  0  0  0
  -25.9070  -32.4791   23.8430 C   0  0  1  0  0  0
  -27.2408  -27.4433   20.1025 C   0  0  0  0  0  0
  -25.5960  -33.8605   24.2364 N   0  0  0  0  0  0
  -23.4025  -30.4904   21.5532 C   0  0  2  0  0  0
  -24.8511  -28.9575   20.1163 C   0  0  0  0  0  0
  -22.7387  -29.4640   22.5016 C   0  0  0  0  0  0
  -18.0258  -28.1350   22.8487 C   0  0  0  0  0  0
  -24.1499  -36.7295   23.2648 C   0  0  0  0  0  0
  -25.9340  -30.8288   21.3763 C   0  0  0  0  0  0
  -26.0077  -29.4690   20.7169 C   0  0  0  0  0  0
  -27.2045  -28.7179   20.7066 C   0  0  0  0  0  0
  -26.0660  -26.9411   19.4980 C   0  0  0  0  0  0
  -24.8750  -27.6933   19.5036 C   0  0  0  0  0  0
  -23.6108  -29.8210   20.1687 C   0  0  0  0  0  0
  -25.4119  -36.3085   24.0334 C   0  0  1  0  0  0
  -20.5845  -28.3631   23.1329 C   0  0  2  0  0  0
  -20.6778  -26.9376   22.5407 C   0  0  0  0  0  0
  -19.5751  -26.6356   21.5209 C   0  0  0  0  0  0
  -18.1910  -26.7895   22.1584 C   0  0  0  0  0  0
  -19.1507  -28.8818   23.2886 C   0  0  0  0  0  0
  -18.9441  -30.1436   23.8879 C   0  0  0  0  0  0
  -17.6452  -30.6578   24.0563 C   0  0  0  0  0  0
  -25.9043  -34.9446   23.5132 C   0  0  0  0  0  0
  -16.5345  -29.9066   23.6356 C   0  0  0  0  0  0
  -16.7248  -28.6480   23.0373 C   0  0  0  0  0  0
  -26.4531  -31.6565   25.0755 C   0  0  0  0  0  0
  -25.3783  -31.3607   26.1477 C   0  0  0  0  0  0
  -27.0447  -30.3038   24.6134 C   0  0  0  0  0  0
  -27.6109  -32.4320   25.7496 C   0  0  0  0  0  0
  -27.5568  -37.1796   24.8463 C   0  0  0  0  0  0
  -21.4115  -29.3016   22.3742 N   0  0  0  0  0  0
  -26.4294  -37.3762   23.9393 N   0  0  0  0  0  0
  -24.6671  -31.0774   22.1053 N   0  0  0  0  0  0
  -23.4155  -28.8189   23.3056 O   0  0  0  0  0  0
  -28.4263  -26.7414   20.1026 O   0  0  0  0  0  0
  -26.5544  -34.8887   22.4661 O   0  0  0  0  0  0
  -23.5354  -32.1461   23.7542 O   0  0  0  0  0  0
  -30.6678  -20.8052   22.5779 C   0  0  0  0  0  0
  -30.2473  -20.9206   21.2235 C   0  0  0  0  0  0
  -31.1258  -19.5385   22.8101 C   0  0  0  0  0  0
  -30.4918  -19.6954   20.6517 C   0  0  0  0  0  0
  -30.2504  -19.2539   19.2396 C   0  0  0  0  0  0
  -28.1022  -21.9004   20.4263 C   0  0  0  0  0  0
  -30.4517  -18.6650   25.0576 C   0  0  0  0  0  0
  -32.6427  -19.8779   24.7904 C   0  0  0  0  0  0
  -29.7862  -24.7951   20.5382 C   0  0  0  0  0  0
  -29.9289  -23.4629   21.3212 C   0  0  0  0  0  0
  -31.3849  -17.4151   21.3828 C   0  0  0  0  0  0
  -30.6676  -16.3832   22.2928 C   0  0  0  0  0  0
  -28.3574  -25.3223   20.2829 C   0  0  0  0  0  0
  -29.6150  -22.1461   20.5637 C   0  0  1  0  0  0
  -31.6220  -18.9600   24.1063 C   0  0  0  0  0  0
  -31.0022  -18.8218   21.6199 N   0  0  0  0  0  0
  -30.1932  -15.1497   21.6525 N   0  0  0  0  0  0
  -31.4699  -12.4265   19.0843 H   0  0  0  0  0  0
  -30.3469  -11.2755   19.7453 H   0  0  0  0  0  0
  -29.7228  -11.8372   17.3867 H   0  0  0  0  0  0
  -29.6564  -13.5353   17.7853 H   0  0  0  0  0  0
  -27.8166  -11.3285   18.7733 H   0  0  0  0  0  0
  -27.3598  -12.6892   17.7804 H   0  0  0  0  0  0
  -27.7319  -14.2559   19.6234 H   0  0  0  0  0  0
  -28.6735  -11.8560   21.2527 H   0  0  0  0  0  0
  -28.4421  -13.4392   21.9057 H   0  0  0  0  0  0
  -25.2743   -9.5706   22.4725 H   0  0  0  0  0  0
  -23.9989   -7.4652   22.7487 H   0  0  0  0  0  0
  -21.0817   -8.8734   19.8945 H   0  0  0  0  0  0
  -22.3652  -10.9645   19.6130 H   0  0  0  0  0  0
  -21.1978   -7.6128   23.9690 H   0  0  0  0  0  0
  -21.1496   -6.0524   25.9078 H   0  0  0  0  0  0
  -22.0591   -2.7590   23.2843 H   0  0  0  0  0  0
  -22.4098  -11.9850   22.4742 H   0  0  0  0  0  0
  -21.1136  -13.1248   22.2618 H   0  0  0  0  0  0
  -24.6781  -15.8487   20.5289 H   0  0  0  0  0  0
  -26.2977  -15.6195   20.0970 H   0  0  0  0  0  0
  -26.7139  -32.5519   23.1187 H   0  0  0  0  0  0
  -25.0333  -33.9804   25.0652 H   0  0  0  0  0  0
  -22.6874  -31.3055   21.4105 H   0  0  0  0  0  0
  -23.3752  -35.9639   23.3347 H   0  0  0  0  0  0
  -24.3601  -36.8891   22.2058 H   0  0  0  0  0  0
  -23.7275  -37.6518   23.6660 H   0  0  0  0  0  0
  -26.0671  -31.6032   20.6195 H   0  0  0  0  0  0
  -26.8146  -30.8660   22.0066 H   0  0  0  0  0  0
  -28.0980  -29.1016   21.1812 H   0  0  0  0  0  0
  -26.0587  -25.9824   19.0063 H   0  0  0  0  0  0
  -23.9856  -27.2949   19.0339 H   0  0  0  0  0  0
  -23.7086  -30.5959   19.4076 H   0  0  0  0  0  0
  -22.7365  -29.2348   19.8803 H   0  0  0  0  0  0
  -25.1284  -36.1952   25.0826 H   0  0  0  0  0  0
  -20.9908  -28.3195   24.1461 H   0  0  0  0  0  0
  -20.5738  -26.2207   23.3562 H   0  0  0  0  0  0
  -21.6637  -26.7474   22.1166 H   0  0  0  0  0  0
  -19.6952  -25.6274   21.1230 H   0  0  0  0  0  0
  -19.6737  -27.3159   20.6740 H   0  0  0  0  0  0
  -17.4198  -26.6688   21.3952 H   0  0  0  0  0  0
  -18.0294  -26.0004   22.8947 H   0  0  0  0  0  0
  -19.7931  -30.7251   24.2206 H   0  0  0  0  0  0
  -17.5020  -31.6260   24.5151 H   0  0  0  0  0  0
  -15.5354  -30.2961   23.7715 H   0  0  0  0  0  0
  -15.8634  -28.0812   22.7109 H   0  0  0  0  0  0
  -24.5972  -30.6955   25.7770 H   0  0  0  0  0  0
  -24.8956  -32.2734   26.4982 H   0  0  0  0  0  0
  -25.8132  -30.8716   27.0199 H   0  0  0  0  0  0
  -26.3044  -29.6640   24.1330 H   0  0  0  0  0  0
  -27.4437  -29.7389   25.4564 H   0  0  0  0  0  0
  -27.8727  -30.4411   23.9185 H   0  0  0  0  0  0
  -27.2777  -33.3643   26.2061 H   0  0  0  0  0  0
  -28.3919  -32.6850   25.0314 H   0  0  0  0  0  0
  -28.0767  -31.8448   26.5410 H   0  0  0  0  0  0
  -28.2572  -38.0096   24.7532 H   0  0  0  0  0  0
  -28.1086  -36.2633   24.6301 H   0  0  0  0  0  0
  -27.2278  -37.1463   25.8859 H   0  0  0  0  0  0
  -20.9260  -29.8712   21.6961 H   0  0  0  0  0  0
  -26.0174  -38.2851   24.1370 H   0  0  0  0  0  0
  -30.6173  -21.5840   23.3272 H   0  0  0  0  0  0
  -29.9645  -20.0896   18.6012 H   0  0  0  0  0  0
  -29.4463  -18.5180   19.1973 H   0  0  0  0  0  0
  -31.1461  -18.8114   18.8023 H   0  0  0  0  0  0
  -27.9083  -21.0032   19.8387 H   0  0  0  0  0  0
  -27.5909  -22.7180   19.9268 H   0  0  0  0  0  0
  -27.6326  -21.7568   21.4000 H   0  0  0  0  0  0
  -29.7292  -17.9831   24.6131 H   0  0  0  0  0  0
  -29.9112  -19.5777   25.3098 H   0  0  0  0  0  0
  -30.7935  -18.2111   25.9871 H   0  0  0  0  0  0
  -33.5147  -20.0314   24.1535 H   0  0  0  0  0  0
  -32.9929  -19.4424   25.7267 H   0  0  0  0  0  0
  -32.2196  -20.8560   25.0196 H   0  0  0  0  0  0
  -30.3410  -24.7402   19.6012 H   0  0  0  0  0  0
  -30.2991  -25.5587   21.1257 H   0  0  0  0  0  0
  -29.3715  -23.5087   22.2566 H   0  0  0  0  0  0
  -30.9804  -23.4217   21.6105 H   0  0  0  0  0  0
  -31.1961  -17.1682   20.3424 H   0  0  0  0  0  0
  -32.4649  -17.3283   21.5087 H   0  0  0  0  0  0
  -29.7785  -16.8388   22.7258 H   0  0  0  0  0  0
  -31.3089  -16.1036   23.1295 H   0  0  0  0  0  0
  -27.7099  -25.0863   21.1300 H   0  0  0  0  0  0
  -27.9374  -24.8494   19.3950 H   0  0  0  0  0  0
  -30.0490  -22.2367   19.5654 H   0  0  0  0  0  0
  -32.1465  -18.0255   23.9184 H   0  0  0  0  0  0
  -29.3310  -14.7822   22.0276 H   0  0  0  0  0  0
  1 25  1  0  0  0
  1 30  2  0  0  0
  1 87  1  0  0  0
  2  3  1  0  0  0
  2 25  1  0  0  0
  2 88  1  0  0  0
  2 89  1  0  0  0
  3  4  1  0  0  0
  3 90  1  0  0  0
  3 91  1  0  0  0
  4  5  1  0  0  0
  4 92  1  0  0  0
  4 93  1  0  0  0
  5  6  1  0  0  0
  5 26  1  0  0  0
  5 94  1  0  0  0
  6 25  1  0  0  0
  6 95  1  0  0  0
  6 96  1  0  0  0
  7  8  2  0  0  0
  7 26  1  0  0  0
  7 29  1  0  0  0
  8  9  1  0  0  0
  8 22  1  0  0  0
  9 10  1  0  0  0
  9 27  2  0  0  0
 10 11  2  0  0  0
 10 15  1  0  0  0
 11 12  1  0  0  0
 11 97  1  0  0  0
 12 13  2  0  0  0
 12 98  1  0  0  0
 13 14  1  0  0  0
 13 31  1  0  0  0
 14 15  2  0  0  0
 14 99  1  0  0  0
 15100  1  0  0  0
 16 17  2  0  0  0
 16 21  1  0  0  0
 16 31  1  0  0  0
 17 18  1  0  0  0
 17101  1  0  0  0
 18 19  2  0  0  0
 18102  1  0  0  0
 19 20  1  0  0  0
 19 24  1  0  0  0
 20 21  2  0  0  0
 20103  1  0  0  0
 21 23  1  0  0  0
 22 28  1  0  0  0
 22 32  2  0  0  0
 26 27  1  0  0  0
 28104  1  0  0  0
 28105  1  0  0  0
 29106  1  0  0  0
 29107  1  0  0  0
 33 34  1  0  0  0
 33 66  1  0  0  0
 33 70  2  0  0  0
 34 36  1  0  0  0
 34 59  1  0  0  0
 34108  1  0  0  0
 35 44  2  0  0  0
 35 45  1  0  0  0
 35 68  1  0  0  0
 36 56  1  0  0  0
 36109  1  0  0  0
 37 39  1  0  0  0
 37 47  1  0  0  0
 37 66  1  0  0  0
 37110  1  0  0  0
 38 43  2  0  0  0
 38 46  1  0  0  0
 38 47  1  0  0  0
 39 64  1  0  0  0
 39 67  2  0  0  0
 40 52  1  0  0  0
 40 53  2  0  0  0
 40 58  1  0  0  0
 41111  1  0  0  0
 41112  1  0  0  0
 41113  1  0  0  0
 41 48  1  0  0  0
 42 43  1  0  0  0
 42 66  1  0  0  0
 42114  1  0  0  0
 42115  1  0  0  0
 43 44  1  0  0  0
 44116  1  0  0  0
 45 46  2  0  0  0
 45117  1  0  0  0
 46118  1  0  0  0
 47119  1  0  0  0
 47120  1  0  0  0
 48 56  1  0  0  0
 48 65  1  0  0  0
 48121  1  0  0  0
 49 50  1  0  0  0
 49 53  1  0  0  0
 49 64  1  0  0  0
 49122  1  0  0  0
 50 51  1  0  0  0
 50123  1  0  0  0
 50124  1  0  0  0
 51 52  1  0  0  0
 51125  1  0  0  0
 51126  1  0  0  0
 52127  1  0  0  0
 52128  1  0  0  0
 53 54  1  0  0  0
 54 55  2  0  0  0
 54129  1  0  0  0
 55 57  1  0  0  0
 55130  1  0  0  0
 56 69  2  0  0  0
 57 58  2  0  0  0
 57131  1  0  0  0
 58132  1  0  0  0
 59 60  1  0  0  0
 59 61  1  0  0  0
 59 62  1  0  0  0
 60133  1  0  0  0
 60134  1  0  0  0
 60135  1  0  0  0
 61136  1  0  0  0
 61137  1  0  0  0
 61138  1  0  0  0
 62139  1  0  0  0
 62140  1  0  0  0
 62141  1  0  0  0
 63 65  1  0  0  0
 63142  1  0  0  0
 63143  1  0  0  0
 63144  1  0  0  0
 64145  1  0  0  0
 65146  1  0  0  0
 68 83  1  0  0  0
 71 72  1  0  0  0
 71 73  2  0  0  0
 71147  1  0  0  0
 72 74  2  0  0  0
 72 84  1  0  0  0
 73 85  1  0  0  0
 73 86  1  0  0  0
 74 75  1  0  0  0
 74 86  1  0  0  0
 75148  1  0  0  0
 75149  1  0  0  0
 75150  1  0  0  0
 76151  1  0  0  0
 76152  1  0  0  0
 76153  1  0  0  0
 76 84  1  0  0  0
 77154  1  0  0  0
 77155  1  0  0  0
 77156  1  0  0  0
 77 85  1  0  0  0
 78 85  1  0  0  0
 78157  1  0  0  0
 78158  1  0  0  0
 78159  1  0  0  0
 79 80  1  0  0  0
 79 83  1  0  0  0
 79160  1  0  0  0
 79161  1  0  0  0
 80 84  1  0  0  0
 80162  1  0  0  0
 80163  1  0  0  0
 81 82  1  0  0  0
 81 86  1  0  0  0
 81164  1  0  0  0
 81165  1  0  0  0
 82 87  1  0  0  0
 82166  1  0  0  0
 82167  1  0  0  0
 83168  1  0  0  0
 83169  1  0  0  0
 84170  1  0  0  0
 85171  1  0  0  0
 87172  1  0  0  0
M  ISO  4   1 100  68 101  83 101  87 100
M  END
> <chiral flag>
0

> <version>
0

> <s_m_source_file>
/data/baiqing/PycharmProjects/Reinvent-master-3.2/result/LINK_invent/BTK/process_docking_weight1_custom_sum_contain_oxygen_bond_distance_aromatic_linkinvent_7_9_3/rearranged_h_0098.sdf

> <i_m_source_file_index>
38

> <r_mmod_Potential_Energy-OPLS-2005>
-124.526321411133

> <r_mmod_Stretch_Energy-OPLS-2005>
37.0878944396973

> <r_mmod_Bend_Energy-OPLS-2005>
115.10977935791

> <r_mmod_Torsional_Energy-OPLS-2005>
232.431198120117

> <r_mmod_Improper_Torsional_Energy-OPLS-2005>
1.80465126037598

> <r_mmod_Van_der_Waal_Energy-OPLS-2005>
133.456802368164

> <r_mmod_Electrostatic_Energy-OPLS-2005>
-454.975128173828

> <r_mmod_Solvation_Energy-OPLS-2005>
-198.570938110352

> <b_mmod_Minimization_Converged-OPLS-2005>
0

> <r_mmod_RMS_Derivative-OPLS-2005>
3.75907683372498

$$$$
39
                    3D
 Structure written by MMmdl.
161169  0  0  1  0            999 V2000
  -30.6369  -14.7035   20.4146 C   0  0  0  0  0  0
  -30.4178  -12.4138   19.4747 C   0  0  0  0  0  0
  -29.5116  -12.5064   18.2298 C   0  0  0  0  0  0
  -28.0319  -12.3449   18.6290 C   0  0  0  0  0  0
  -27.6370  -13.2369   19.8369 C   0  0  2  0  0  0
  -28.6797  -13.1902   20.9690 C   0  0  0  0  0  0
  -25.2521  -13.8213   20.5694 C   0  0  0  0  0  0
  -24.1814  -13.0445   20.9188 C   0  0  0  0  0  0
  -24.6405  -11.6929   20.8707 C   0  0  0  0  0  0
  -23.9078  -10.4303   21.0387 C   0  0  0  0  0  0
  -24.3638   -9.4217   21.9172 C   0  0  0  0  0  0
  -23.6315   -8.2250   22.0744 C   0  0  0  0  0  0
  -22.4287   -8.0281   21.3543 C   0  0  0  0  0  0
  -21.9924   -9.0252   20.4642 C   0  0  0  0  0  0
  -22.7247  -10.2135   20.3039 C   0  0  0  0  0  0
  -21.6855   -6.0737   22.5285 C   0  0  0  0  0  0
  -21.4006   -6.5646   23.8218 C   0  0  0  0  0  0
  -21.3679   -5.6801   24.9189 C   0  0  0  0  0  0
  -21.6048   -4.3060   24.7233 C   0  0  0  0  0  0
  -21.8821   -3.8150   23.4359 C   0  0  0  0  0  0
  -21.9198   -4.6965   22.3415 C   0  0  0  0  0  0
  -22.7842  -13.5227   21.1886 C   0  0  0  0  0  0
  -22.1663   -4.2152   21.0985 F   0  0  0  0  0  0
  -21.5650   -3.4543   25.7751 F   0  0  0  0  0  0
  -29.9947  -13.4891   20.3949 N   0  0  0  0  0  0
  -26.2926  -12.9416   20.3207 N   0  0  0  0  0  0
  -25.9333  -11.6557   20.5695 N   0  0  0  0  0  0
  -22.0506  -12.8191   22.0434 N   0  0  0  0  0  0
  -25.4255  -15.1943   20.4187 N   0  0  0  0  0  0
  -31.8603  -14.7341   20.2628 O   0  0  0  0  0  0
  -21.6651   -6.8871   21.4244 O   0  0  0  0  0  0
  -22.3515  -14.5539   20.6739 O   0  0  0  0  0  0
  -24.6279  -31.8560   23.1992 C   0  0  0  0  0  0
  -25.9125  -32.4746   23.8339 C   0  0  1  0  0  0
  -27.2173  -27.2892   20.1411 C   0  0  0  0  0  0
  -25.5964  -33.8563   24.2265 N   0  0  0  0  0  0
  -23.4223  -30.4758   21.5408 C   0  0  2  0  0  0
  -24.8689  -28.9220   20.1113 C   0  0  0  0  0  0
  -22.7486  -29.4589   22.4934 C   0  0  0  0  0  0
  -18.0280  -28.1365   22.8481 C   0  0  0  0  0  0
  -24.1504  -36.7294   23.2644 C   0  0  0  0  0  0
  -25.9635  -30.7777   21.3716 C   0  0  0  0  0  0
  -26.0367  -29.4018   20.7186 C   0  0  0  0  0  0
  -27.2188  -28.6005   20.7154 C   0  0  0  0  0  0
  -26.0309  -26.8595   19.5158 C   0  0  0  0  0  0
  -24.8702  -27.6587   19.4946 C   0  0  0  0  0  0
  -23.6375  -29.8052   20.1584 C   0  0  0  0  0  0
  -25.4127  -36.3064   24.0314 C   0  0  1  0  0  0
  -20.5884  -28.3682   23.1282 C   0  0  2  0  0  0
  -20.6777  -26.9402   22.5416 C   0  0  0  0  0  0
  -19.5754  -26.6369   21.5223 C   0  0  0  0  0  0
  -18.1925  -26.7915   22.1618 C   0  0  0  0  0  0
  -19.1538  -28.8840   23.2862 C   0  0  0  0  0  0
  -18.9463  -30.1461   23.8855 C   0  0  0  0  0  0
  -17.6456  -30.6569   24.0564 C   0  0  0  0  0  0
  -25.9067  -34.9438   23.5083 C   0  0  0  0  0  0
  -16.5345  -29.9055   23.6342 C   0  0  0  0  0  0
  -16.7266  -28.6481   23.0341 C   0  0  0  0  0  0
  -26.4523  -31.6564   25.0727 C   0  0  0  0  0  0
  -25.3763  -31.3680   26.1458 C   0  0  0  0  0  0
  -27.0401  -30.2997   24.6214 C   0  0  0  0  0  0
  -27.6080  -32.4314   25.7486 C   0  0  0  0  0  0
  -27.5574  -37.1797   24.8456 C   0  0  0  0  0  0
  -21.4202  -29.3040   22.3683 N   0  0  0  0  0  0
  -26.4290  -37.3771   23.9403 N   0  0  0  0  0  0
  -24.6902  -31.0552   22.0945 N   0  0  0  0  0  0
  -23.4204  -28.8141   23.3023 O   0  0  0  0  0  0
  -28.3253  -26.4279   20.1420 O   0  0  0  0  0  0
  -26.5621  -34.8904   22.4642 O   0  0  0  0  0  0
  -23.5451  -32.1367   23.7315 O   0  0  0  0  0  0
  -29.1734  -16.4357   19.0356 C   0  0  0  0  0  0
  -30.0088  -17.2441   20.9036 C   0  0  0  0  0  0
  -29.8996  -16.0485   20.1924 C   0  0  0  0  0  0
  -28.9017  -17.7862   19.0371 C   0  0  0  0  0  0
  -27.3665  -17.6920   17.0258 C   0  0  0  0  0  0
  -29.3595  -19.2105   17.0264 C   0  0  0  0  0  0
  -29.3310  -19.7825   20.7846 C   0  0  0  0  0  0
  -28.7684  -21.0767   19.9823 C   0  0  0  0  0  0
  -28.4494  -23.7182   19.9285 C   0  0  0  0  0  0
  -28.1958  -25.0738   20.7618 C   0  0  0  0  0  0
  -28.2793  -18.5608   17.9085 C   0  0  0  0  0  0
  -29.3875  -18.3437   20.2348 N   0  0  0  0  0  0
  -28.6823  -22.4184   20.7226 N   0  3  0  0  0  0
  -31.4654  -12.5015   19.1866 H   0  0  0  0  0  0
  -30.3155  -11.4393   19.9539 H   0  0  0  0  0  0
  -29.7888  -11.7452   17.4997 H   0  0  0  0  0  0
  -29.6604  -13.4690   17.7365 H   0  0  0  0  0  0
  -27.8706  -11.2957   18.8763 H   0  0  0  0  0  0
  -27.3862  -12.5580   17.7765 H   0  0  0  0  0  0
  -27.6165  -14.2556   19.4592 H   0  0  0  0  0  0
  -28.6887  -12.2124   21.4514 H   0  0  0  0  0  0
  -28.4304  -13.9180   21.7422 H   0  0  0  0  0  0
  -25.2777   -9.5722   22.4752 H   0  0  0  0  0  0
  -24.0051   -7.4642   22.7453 H   0  0  0  0  0  0
  -21.0857   -8.8747   19.8945 H   0  0  0  0  0  0
  -22.3678  -10.9672   19.6154 H   0  0  0  0  0  0
  -21.1958   -7.6140   23.9720 H   0  0  0  0  0  0
  -21.1517   -6.0526   25.9091 H   0  0  0  0  0  0
  -22.0576   -2.7604   23.2856 H   0  0  0  0  0  0
  -22.4134  -11.9842   22.4803 H   0  0  0  0  0  0
  -21.1118  -13.1184   22.2644 H   0  0  0  0  0  0
  -24.6711  -15.8586   20.5523 H   0  0  0  0  0  0
  -26.2993  -15.6328   20.1525 H   0  0  0  0  0  0
  -26.7183  -32.5406   23.1075 H   0  0  0  0  0  0
  -25.0196  -33.9719   25.0463 H   0  0  0  0  0  0
  -22.7164  -31.2962   21.3937 H   0  0  0  0  0  0
  -23.3759  -35.9632   23.3295 H   0  0  0  0  0  0
  -24.3590  -36.8944   22.2064 H   0  0  0  0  0  0
  -23.7264  -37.6492   23.6685 H   0  0  0  0  0  0
  -26.0994  -31.5364   20.5992 H   0  0  0  0  0  0
  -26.8421  -30.8270   22.0024 H   0  0  0  0  0  0
  -28.1201  -28.9689   21.1857 H   0  0  0  0  0  0
  -25.9962  -25.8867   19.0462 H   0  0  0  0  0  0
  -23.9777  -27.2850   19.0117 H   0  0  0  0  0  0
  -23.7530  -30.5775   19.3966 H   0  0  0  0  0  0
  -22.7582  -29.2304   19.8618 H   0  0  0  0  0  0
  -25.1308  -36.1925   25.0803 H   0  0  0  0  0  0
  -20.9958  -28.3260   24.1404 H   0  0  0  0  0  0
  -20.5716  -26.2286   23.3618 H   0  0  0  0  0  0
  -21.6643  -26.7442   22.1196 H   0  0  0  0  0  0
  -19.6927  -25.6285   21.1251 H   0  0  0  0  0  0
  -19.6699  -27.3182   20.6767 H   0  0  0  0  0  0
  -17.4217  -26.6681   21.4002 H   0  0  0  0  0  0
  -18.0293  -26.0039   22.9002 H   0  0  0  0  0  0
  -19.7943  -30.7311   24.2172 H   0  0  0  0  0  0
  -17.5002  -31.6246   24.5191 H   0  0  0  0  0  0
  -15.5344  -30.2934   23.7708 H   0  0  0  0  0  0
  -15.8668  -28.0810   22.7037 H   0  0  0  0  0  0
  -24.5939  -30.7029   25.7783 H   0  0  0  0  0  0
  -24.8961  -32.2838   26.4926 H   0  0  0  0  0  0
  -25.8110  -30.8832   27.0210 H   0  0  0  0  0  0
  -26.2988  -29.6686   24.1305 H   0  0  0  0  0  0
  -27.4174  -29.7326   25.4733 H   0  0  0  0  0  0
  -27.8816  -30.4295   23.9394 H   0  0  0  0  0  0
  -27.2698  -33.3630   26.2034 H   0  0  0  0  0  0
  -28.3895  -32.6853   25.0303 H   0  0  0  0  0  0
  -28.0744  -31.8463   26.5420 H   0  0  0  0  0  0
  -28.2577  -38.0114   24.7514 H   0  0  0  0  0  0
  -28.1077  -36.2635   24.6256 H   0  0  0  0  0  0
  -27.2281  -37.1413   25.8859 H   0  0  0  0  0  0
  -20.9374  -29.8754   21.6894 H   0  0  0  0  0  0
  -26.0161  -38.2848   24.1406 H   0  0  0  0  0  0
  -28.9583  -15.7758   18.2070 H   0  0  0  0  0  0
  -30.5220  -17.4236   21.8394 H   0  0  0  0  0  0
  -26.6011  -17.1912   17.6193 H   0  0  0  0  0  0
  -27.9270  -16.9259   16.4915 H   0  0  0  0  0  0
  -26.8577  -18.2973   16.2749 H   0  0  0  0  0  0
  -30.0739  -19.7891   17.6092 H   0  0  0  0  0  0
  -28.9188  -19.8758   16.2831 H   0  0  0  0  0  0
  -29.9372  -18.4557   16.4905 H   0  0  0  0  0  0
  -28.7761  -19.7187   21.7197 H   0  0  0  0  0  0
  -30.3521  -20.0259   21.0801 H   0  0  0  0  0  0
  -27.7514  -20.8875   19.6490 H   0  0  0  0  0  0
  -29.3762  -21.2372   19.0946 H   0  0  0  0  0  0
  -29.3230  -23.8647   19.2936 H   0  0  0  0  0  0
  -27.6100  -23.5699   19.2488 H   0  0  0  0  0  0
  -28.9272  -25.0833   21.5716 H   0  0  0  0  0  0
  -27.2327  -24.9983   21.2692 H   0  0  0  0  0  0
  -27.6275  -19.3245   18.3109 H   0  0  0  0  0  0
  -29.5310  -22.5282   21.2554 H   0  0  0  0  0  0
  -27.9363  -22.3254   21.3950 H   0  0  0  0  0  0
  1 25  1  0  0  0
  1 30  2  0  0  0
  1 73  1  0  0  0
  2  3  1  0  0  0
  2 25  1  0  0  0
  2 84  1  0  0  0
  2 85  1  0  0  0
  3  4  1  0  0  0
  3 86  1  0  0  0
  3 87  1  0  0  0
  4  5  1  0  0  0
  4 88  1  0  0  0
  4 89  1  0  0  0
  5  6  1  0  0  0
  5 26  1  0  0  0
  5 90  1  0  0  0
  6 25  1  0  0  0
  6 91  1  0  0  0
  6 92  1  0  0  0
  7  8  2  0  0  0
  7 26  1  0  0  0
  7 29  1  0  0  0
  8  9  1  0  0  0
  8 22  1  0  0  0
  9 10  1  0  0  0
  9 27  2  0  0  0
 10 11  2  0  0  0
 10 15  1  0  0  0
 11 12  1  0  0  0
 11 93  1  0  0  0
 12 13  2  0  0  0
 12 94  1  0  0  0
 13 14  1  0  0  0
 13 31  1  0  0  0
 14 15  2  0  0  0
 14 95  1  0  0  0
 15 96  1  0  0  0
 16 17  2  0  0  0
 16 21  1  0  0  0
 16 31  1  0  0  0
 17 18  1  0  0  0
 17 97  1  0  0  0
 18 19  2  0  0  0
 18 98  1  0  0  0
 19 20  1  0  0  0
 19 24  1  0  0  0
 20 21  2  0  0  0
 20 99  1  0  0  0
 21 23  1  0  0  0
 22 28  1  0  0  0
 22 32  2  0  0  0
 26 27  1  0  0  0
 28100  1  0  0  0
 28101  1  0  0  0
 29102  1  0  0  0
 29103  1  0  0  0
 33 34  1  0  0  0
 33 66  1  0  0  0
 33 70  2  0  0  0
 34 36  1  0  0  0
 34 59  1  0  0  0
 34104  1  0  0  0
 35 44  2  0  0  0
 35 45  1  0  0  0
 35 68  1  0  0  0
 36 56  1  0  0  0
 36105  1  0  0  0
 37 39  1  0  0  0
 37 47  1  0  0  0
 37 66  1  0  0  0
 37106  1  0  0  0
 38 43  2  0  0  0
 38 46  1  0  0  0
 38 47  1  0  0  0
 39 64  1  0  0  0
 39 67  2  0  0  0
 40 52  1  0  0  0
 40 53  2  0  0  0
 40 58  1  0  0  0
 41107  1  0  0  0
 41108  1  0  0  0
 41109  1  0  0  0
 41 48  1  0  0  0
 42 43  1  0  0  0
 42 66  1  0  0  0
 42110  1  0  0  0
 42111  1  0  0  0
 43 44  1  0  0  0
 44112  1  0  0  0
 45 46  2  0  0  0
 45113  1  0  0  0
 46114  1  0  0  0
 47115  1  0  0  0
 47116  1  0  0  0
 48 56  1  0  0  0
 48 65  1  0  0  0
 48117  1  0  0  0
 49 50  1  0  0  0
 49 53  1  0  0  0
 49 64  1  0  0  0
 49118  1  0  0  0
 50 51  1  0  0  0
 50119  1  0  0  0
 50120  1  0  0  0
 51 52  1  0  0  0
 51121  1  0  0  0
 51122  1  0  0  0
 52123  1  0  0  0
 52124  1  0  0  0
 53 54  1  0  0  0
 54 55  2  0  0  0
 54125  1  0  0  0
 55 57  1  0  0  0
 55126  1  0  0  0
 56 69  2  0  0  0
 57 58  2  0  0  0
 57127  1  0  0  0
 58128  1  0  0  0
 59 60  1  0  0  0
 59 61  1  0  0  0
 59 62  1  0  0  0
 60129  1  0  0  0
 60130  1  0  0  0
 60131  1  0  0  0
 61132  1  0  0  0
 61133  1  0  0  0
 61134  1  0  0  0
 62135  1  0  0  0
 62136  1  0  0  0
 62137  1  0  0  0
 63 65  1  0  0  0
 63138  1  0  0  0
 63139  1  0  0  0
 63140  1  0  0  0
 64141  1  0  0  0
 65142  1  0  0  0
 68 80  1  0  0  0
 71 73  1  0  0  0
 71 74  2  0  0  0
 71143  1  0  0  0
 72 73  2  0  0  0
 72 82  1  0  0  0
 72144  1  0  0  0
 74 81  1  0  0  0
 74 82  1  0  0  0
 75145  1  0  0  0
 75146  1  0  0  0
 75147  1  0  0  0
 75 81  1  0  0  0
 76 81  1  0  0  0
 76148  1  0  0  0
 76149  1  0  0  0
 76150  1  0  0  0
 77 78  1  0  0  0
 77 82  1  0  0  0
 77151  1  0  0  0
 77152  1  0  0  0
 78 83  1  0  0  0
 78153  1  0  0  0
 78154  1  0  0  0
 79 80  1  0  0  0
 79 83  1  0  0  0
 79155  1  0  0  0
 79156  1  0  0  0
 80157  1  0  0  0
 80158  1  0  0  0
 81159  1  0  0  0
 83160  1  0  0  0
 83161  1  0  0  0
M  CHG  1  83   1
M  ISO  4   1 100  68 101  73 100  80 101
M  END
> <chiral flag>
0

> <version>
0

> <s_m_source_file>
/data/baiqing/PycharmProjects/Reinvent-master-3.2/result/LINK_invent/BTK/process_docking_weight1_custom_sum_contain_oxygen_bond_distance_aromatic_linkinvent_7_9_3/rearranged_h_0098.sdf

> <i_m_source_file_index>
39

> <r_mmod_Potential_Energy-OPLS-2005>
80.5493316650391

> <r_mmod_Stretch_Energy-OPLS-2005>
109.444831848145

> <r_mmod_Bend_Energy-OPLS-2005>
174.377212524414

> <r_mmod_Torsional_Energy-OPLS-2005>
259.349609375

> <r_mmod_Improper_Torsional_Energy-OPLS-2005>
12.2701358795166

> <r_mmod_Van_der_Waal_Energy-OPLS-2005>
106.781257629395

> <r_mmod_Electrostatic_Energy-OPLS-2005>
-191.983322143555

> <r_mmod_Solvation_Energy-OPLS-2005>
-463.974609375

> <b_mmod_Minimization_Converged-OPLS-2005>
0

> <r_mmod_RMS_Derivative-OPLS-2005>
3.05350661277771

$$$$
40
                    3D
 Structure written by MMmdl.
158166  0  0  1  0            999 V2000
  -30.6232  -14.6894   20.4908 C   0  0  0  0  0  0
  -30.4387  -12.4301   19.4462 C   0  0  0  0  0  0
  -29.5047  -12.5052   18.2189 C   0  0  0  0  0  0
  -28.0306  -12.3351   18.6383 C   0  0  0  0  0  0
  -27.6456  -13.2229   19.8521 C   0  0  2  0  0  0
  -28.6954  -13.1192   20.9790 C   0  0  0  0  0  0
  -25.2533  -13.8176   20.5697 C   0  0  0  0  0  0
  -24.1812  -13.0437   20.9214 C   0  0  0  0  0  0
  -24.6385  -11.6912   20.8746 C   0  0  0  0  0  0
  -23.9056  -10.4290   21.0413 C   0  0  0  0  0  0
  -24.3613   -9.4205   21.9186 C   0  0  0  0  0  0
  -23.6291   -8.2239   22.0750 C   0  0  0  0  0  0
  -22.4272   -8.0269   21.3542 C   0  0  0  0  0  0
  -21.9906   -9.0241   20.4644 C   0  0  0  0  0  0
  -22.7232  -10.2124   20.3061 C   0  0  0  0  0  0
  -21.6846   -6.0724   22.5280 C   0  0  0  0  0  0
  -21.4007   -6.5637   23.8213 C   0  0  0  0  0  0
  -21.3659   -5.6797   24.9183 C   0  0  0  0  0  0
  -21.6040   -4.3057   24.7232 C   0  0  0  0  0  0
  -21.8818   -3.8141   23.4355 C   0  0  0  0  0  0
  -21.9192   -4.6953   22.3407 C   0  0  0  0  0  0
  -22.7829  -13.5222   21.1871 C   0  0  0  0  0  0
  -22.1665   -4.2139   21.0985 F   0  0  0  0  0  0
  -21.5632   -3.4541   25.7746 F   0  0  0  0  0  0
  -29.9957  -13.4722   20.3944 N   0  0  0  0  0  0
  -26.2955  -12.9367   20.3302 N   0  0  0  0  0  0
  -25.9315  -11.6517   20.5755 N   0  0  0  0  0  0
  -22.0473  -12.8202   22.0419 N   0  0  0  0  0  0
  -25.4220  -15.1900   20.4102 N   0  0  0  0  0  0
  -31.8184  -14.8039   20.2104 O   0  0  0  0  0  0
  -21.6638   -6.8863   21.4239 O   0  0  0  0  0  0
  -22.3511  -14.5525   20.6723 O   0  0  0  0  0  0
  -24.6318  -31.8581   23.2011 C   0  0  0  0  0  0
  -25.9152  -32.4767   23.8344 C   0  0  1  0  0  0
  -27.2143  -27.2724   20.1132 C   0  0  0  0  0  0
  -25.5953  -33.8569   24.2270 N   0  0  0  0  0  0
  -23.4252  -30.4856   21.5463 C   0  0  2  0  0  0
  -24.8674  -28.9396   20.1112 C   0  0  0  0  0  0
  -22.7495  -29.4629   22.4917 C   0  0  0  0  0  0
  -18.0295  -28.1394   22.8484 C   0  0  0  0  0  0
  -24.1493  -36.7284   23.2635 C   0  0  0  0  0  0
  -25.9723  -30.7744   21.3790 C   0  0  0  0  0  0
  -26.0426  -29.3994   20.7183 C   0  0  0  0  0  0
  -27.2170  -28.5788   20.7102 C   0  0  0  0  0  0
  -26.0049  -26.8826   19.4876 C   0  0  0  0  0  0
  -24.8534  -27.6873   19.4871 C   0  0  0  0  0  0
  -23.6406  -29.8280   20.1599 C   0  0  0  0  0  0
  -25.4119  -36.3075   24.0324 C   0  0  1  0  0  0
  -20.5899  -28.3711   23.1267 C   0  0  2  0  0  0
  -20.6791  -26.9427   22.5412 C   0  0  0  0  0  0
  -19.5766  -26.6386   21.5220 C   0  0  0  0  0  0
  -18.1939  -26.7938   22.1621 C   0  0  0  0  0  0
  -19.1547  -28.8867   23.2871 C   0  0  0  0  0  0
  -18.9469  -30.1467   23.8890 C   0  0  0  0  0  0
  -17.6469  -30.6592   24.0565 C   0  0  0  0  0  0
  -25.9066  -34.9447   23.5096 C   0  0  0  0  0  0
  -16.5361  -29.9092   23.6326 C   0  0  0  0  0  0
  -16.7282  -28.6510   23.0348 C   0  0  0  0  0  0
  -26.4513  -31.6582   25.0727 C   0  0  0  0  0  0
  -25.3728  -31.3729   26.1439 C   0  0  0  0  0  0
  -27.0357  -30.2999   24.6202 C   0  0  0  0  0  0
  -27.6060  -32.4316   25.7515 C   0  0  0  0  0  0
  -27.5580  -37.1802   24.8461 C   0  0  0  0  0  0
  -21.4205  -29.3060   22.3653 N   0  0  0  0  0  0
  -26.4289  -37.3777   23.9410 N   0  0  0  0  0  0
  -24.6957  -31.0564   22.0984 N   0  0  0  0  0  0
  -23.4198  -28.8161   23.3006 O   0  0  0  0  0  0
  -28.3195  -26.3838   20.1678 O   0  0  0  0  0  0
  -26.5629  -34.8920   22.4660 O   0  0  0  0  0  0
  -23.5471  -32.1402   23.7316 O   0  0  0  0  0  0
  -29.3296  -19.7209   20.8098 C   0  0  0  0  0  0
  -29.9308  -20.9319   18.8205 C   0  0  0  0  0  0
  -29.2960  -20.9651   20.0721 C   0  0  0  0  0  0
  -29.9814  -18.5312   20.2976 C   0  0  0  0  0  0
  -30.5823  -18.6858   19.0263 C   0  0  0  0  0  0
  -31.3725  -17.5688   18.3716 C   0  0  0  0  0  0
  -28.2770  -24.8632   18.2608 C   0  0  0  0  0  0
  -28.4825  -22.2634   20.4882 C   0  0  0  0  0  0
  -30.2000  -17.2069   21.1580 C   0  0  0  0  0  0
  -29.0805  -23.7656   20.4029 C   0  0  0  0  0  0
  -28.1476  -24.9363   19.7954 C   0  0  1  0  0  0
  -30.5464  -19.8386   18.3182 N   0  0  0  0  0  0
  -29.8329  -15.7980   20.7181 N   0  0  0  0  0  0
  -31.4768  -12.5656   19.1380 H   0  0  0  0  0  0
  -30.3895  -11.4429   19.9103 H   0  0  0  0  0  0
  -29.7741  -11.7422   17.4879 H   0  0  0  0  0  0
  -29.6344  -13.4655   17.7172 H   0  0  0  0  0  0
  -27.8801  -11.2842   18.8886 H   0  0  0  0  0  0
  -27.3722  -12.5417   17.7937 H   0  0  0  0  0  0
  -27.6493  -14.2496   19.4865 H   0  0  0  0  0  0
  -28.7245  -12.1084   21.3886 H   0  0  0  0  0  0
  -28.4416  -13.7761   21.8135 H   0  0  0  0  0  0
  -25.2762   -9.5686   22.4760 H   0  0  0  0  0  0
  -23.9990   -7.4626   22.7469 H   0  0  0  0  0  0
  -21.0831   -8.8754   19.8950 H   0  0  0  0  0  0
  -22.3681  -10.9653   19.6165 H   0  0  0  0  0  0
  -21.1995   -7.6144   23.9712 H   0  0  0  0  0  0
  -21.1487   -6.0535   25.9083 H   0  0  0  0  0  0
  -22.0594   -2.7598   23.2876 H   0  0  0  0  0  0
  -22.4101  -11.9863   22.4801 H   0  0  0  0  0  0
  -21.1083  -13.1201   22.2625 H   0  0  0  0  0  0
  -24.6480  -15.8379   20.5083 H   0  0  0  0  0  0
  -26.2582  -15.6286   20.0452 H   0  0  0  0  0  0
  -26.7218  -32.5421   23.1085 H   0  0  0  0  0  0
  -25.0106  -33.9713   25.0418 H   0  0  0  0  0  0
  -22.7211  -31.3081   21.4061 H   0  0  0  0  0  0
  -23.3760  -35.9610   23.3287 H   0  0  0  0  0  0
  -24.3580  -36.8921   22.2050 H   0  0  0  0  0  0
  -23.7244  -37.6480   23.6669 H   0  0  0  0  0  0
  -26.1100  -31.5353   20.6094 H   0  0  0  0  0  0
  -26.8507  -30.8207   22.0109 H   0  0  0  0  0  0
  -28.1146  -28.9277   21.2013 H   0  0  0  0  0  0
  -25.8936  -25.9286   18.9988 H   0  0  0  0  0  0
  -23.9535  -27.3260   19.0080 H   0  0  0  0  0  0
  -23.7682  -30.6093   19.4098 H   0  0  0  0  0  0
  -22.7562  -29.2683   19.8502 H   0  0  0  0  0  0
  -25.1301  -36.1915   25.0814 H   0  0  0  0  0  0
  -20.9996  -28.3303   24.1387 H   0  0  0  0  0  0
  -20.5703  -26.2326   23.3625 H   0  0  0  0  0  0
  -21.6661  -26.7460   22.1205 H   0  0  0  0  0  0
  -19.6935  -25.6292   21.1264 H   0  0  0  0  0  0
  -19.6708  -27.3187   20.6742 H   0  0  0  0  0  0
  -17.4217  -26.6688   21.4012 H   0  0  0  0  0  0
  -18.0330  -26.0079   22.9013 H   0  0  0  0  0  0
  -19.7944  -30.7285   24.2255 H   0  0  0  0  0  0
  -17.5024  -31.6269   24.5175 H   0  0  0  0  0  0
  -15.5363  -30.2996   23.7654 H   0  0  0  0  0  0
  -15.8683  -28.0835   22.7059 H   0  0  0  0  0  0
  -24.5915  -30.7067   25.7762 H   0  0  0  0  0  0
  -24.8907  -32.2900   26.4833 H   0  0  0  0  0  0
  -25.8042  -30.8926   27.0231 H   0  0  0  0  0  0
  -26.2942  -29.6751   24.1211 H   0  0  0  0  0  0
  -27.4028  -29.7253   25.4717 H   0  0  0  0  0  0
  -27.8824  -30.4272   23.9452 H   0  0  0  0  0  0
  -27.2659  -33.3615   26.2083 H   0  0  0  0  0  0
  -28.3886  -32.6876   25.0361 H   0  0  0  0  0  0
  -28.0708  -31.8444   26.5445 H   0  0  0  0  0  0
  -28.2586  -38.0109   24.7518 H   0  0  0  0  0  0
  -28.1089  -36.2641   24.6272 H   0  0  0  0  0  0
  -27.2299  -37.1434   25.8862 H   0  0  0  0  0  0
  -20.9384  -29.8779   21.6860 H   0  0  0  0  0  0
  -26.0163  -38.2845   24.1418 H   0  0  0  0  0  0
  -28.8552  -19.6771   21.7797 H   0  0  0  0  0  0
  -29.9248  -21.8039   18.1832 H   0  0  0  0  0  0
  -30.7259  -16.7214   18.1478 H   0  0  0  0  0  0
  -32.1752  -17.2328   19.0278 H   0  0  0  0  0  0
  -31.8299  -17.8905   17.4353 H   0  0  0  0  0  0
  -28.0197  -23.8701   17.8920 H   0  0  0  0  0  0
  -29.3020  -25.0717   17.9512 H   0  0  0  0  0  0
  -27.6405  -25.5765   17.7395 H   0  0  0  0  0  0
  -28.1104  -22.1081   21.5014 H   0  0  0  0  0  0
  -27.5845  -22.2385   19.8690 H   0  0  0  0  0  0
  -29.6730  -17.3585   22.1002 H   0  0  0  0  0  0
  -31.2552  -17.1953   21.4363 H   0  0  0  0  0  0
  -30.0202  -23.7467   19.8515 H   0  0  0  0  0  0
  -29.3708  -24.0529   21.4140 H   0  0  0  0  0  0
  -27.1442  -24.6398   20.0995 H   0  0  0  0  0  0
  -28.8553  -15.5724   20.8253 H   0  0  0  0  0  0
  1 25  1  0  0  0
  1 30  2  0  0  0
  1 83  1  0  0  0
  2  3  1  0  0  0
  2 25  1  0  0  0
  2 84  1  0  0  0
  2 85  1  0  0  0
  3  4  1  0  0  0
  3 86  1  0  0  0
  3 87  1  0  0  0
  4  5  1  0  0  0
  4 88  1  0  0  0
  4 89  1  0  0  0
  5  6  1  0  0  0
  5 26  1  0  0  0
  5 90  1  0  0  0
  6 25  1  0  0  0
  6 91  1  0  0  0
  6 92  1  0  0  0
  7  8  2  0  0  0
  7 26  1  0  0  0
  7 29  1  0  0  0
  8  9  1  0  0  0
  8 22  1  0  0  0
  9 10  1  0  0  0
  9 27  2  0  0  0
 10 11  2  0  0  0
 10 15  1  0  0  0
 11 12  1  0  0  0
 11 93  1  0  0  0
 12 13  2  0  0  0
 12 94  1  0  0  0
 13 14  1  0  0  0
 13 31  1  0  0  0
 14 15  2  0  0  0
 14 95  1  0  0  0
 15 96  1  0  0  0
 16 17  2  0  0  0
 16 21  1  0  0  0
 16 31  1  0  0  0
 17 18  1  0  0  0
 17 97  1  0  0  0
 18 19  2  0  0  0
 18 98  1  0  0  0
 19 20  1  0  0  0
 19 24  1  0  0  0
 20 21  2  0  0  0
 20 99  1  0  0  0
 21 23  1  0  0  0
 22 28  1  0  0  0
 22 32  2  0  0  0
 26 27  1  0  0  0
 28100  1  0  0  0
 28101  1  0  0  0
 29102  1  0  0  0
 29103  1  0  0  0
 33 34  1  0  0  0
 33 66  1  0  0  0
 33 70  2  0  0  0
 34 36  1  0  0  0
 34 59  1  0  0  0
 34104  1  0  0  0
 35 44  2  0  0  0
 35 45  1  0  0  0
 35 68  1  0  0  0
 36 56  1  0  0  0
 36105  1  0  0  0
 37 39  1  0  0  0
 37 47  1  0  0  0
 37 66  1  0  0  0
 37106  1  0  0  0
 38 43  2  0  0  0
 38 46  1  0  0  0
 38 47  1  0  0  0
 39 64  1  0  0  0
 39 67  2  0  0  0
 40 52  1  0  0  0
 40 53  2  0  0  0
 40 58  1  0  0  0
 41107  1  0  0  0
 41108  1  0  0  0
 41109  1  0  0  0
 41 48  1  0  0  0
 42 43  1  0  0  0
 42 66  1  0  0  0
 42110  1  0  0  0
 42111  1  0  0  0
 43 44  1  0  0  0
 44112  1  0  0  0
 45 46  2  0  0  0
 45113  1  0  0  0
 46114  1  0  0  0
 47115  1  0  0  0
 47116  1  0  0  0
 48 56  1  0  0  0
 48 65  1  0  0  0
 48117  1  0  0  0
 49 50  1  0  0  0
 49 53  1  0  0  0
 49 64  1  0  0  0
 49118  1  0  0  0
 50 51  1  0  0  0
 50119  1  0  0  0
 50120  1  0  0  0
 51 52  1  0  0  0
 51121  1  0  0  0
 51122  1  0  0  0
 52123  1  0  0  0
 52124  1  0  0  0
 53 54  1  0  0  0
 54 55  2  0  0  0
 54125  1  0  0  0
 55 57  1  0  0  0
 55126  1  0  0  0
 56 69  2  0  0  0
 57 58  2  0  0  0
 57127  1  0  0  0
 58128  1  0  0  0
 59 60  1  0  0  0
 59 61  1  0  0  0
 59 62  1  0  0  0
 60129  1  0  0  0
 60130  1  0  0  0
 60131  1  0  0  0
 61132  1  0  0  0
 61133  1  0  0  0
 61134  1  0  0  0
 62135  1  0  0  0
 62136  1  0  0  0
 62137  1  0  0  0
 63 65  1  0  0  0
 63138  1  0  0  0
 63139  1  0  0  0
 63140  1  0  0  0
 64141  1  0  0  0
 65142  1  0  0  0
 68 81  1  0  0  0
 71 73  2  0  0  0
 71 74  1  0  0  0
 71143  1  0  0  0
 72 73  1  0  0  0
 72 82  2  0  0  0
 72144  1  0  0  0
 73 78  1  0  0  0
 74 75  2  0  0  0
 74 79  1  0  0  0
 75 76  1  0  0  0
 75 82  1  0  0  0
 76145  1  0  0  0
 76146  1  0  0  0
 76147  1  0  0  0
 77148  1  0  0  0
 77149  1  0  0  0
 77150  1  0  0  0
 77 81  1  0  0  0
 78 80  1  0  0  0
 78151  1  0  0  0
 78152  1  0  0  0
 79 83  1  0  0  0
 79153  1  0  0  0
 79154  1  0  0  0
 80 81  1  0  0  0
 80155  1  0  0  0
 80156  1  0  0  0
 81157  1  0  0  0
 83158  1  0  0  0
M  ISO  4   1 100  68 101  81 101  83 100
M  END
> <chiral flag>
0

> <version>
0

> <s_m_source_file>
/data/baiqing/PycharmProjects/Reinvent-master-3.2/result/LINK_invent/BTK/process_docking_weight1_custom_sum_contain_oxygen_bond_distance_aromatic_linkinvent_7_9_3/rearranged_h_0098.sdf

> <i_m_source_file_index>
40

> <r_mmod_Potential_Energy-OPLS-2005>
1.38949608802795

> <r_mmod_Stretch_Energy-OPLS-2005>
111.263702392578

> <r_mmod_Bend_Energy-OPLS-2005>
167.775909423828

> <r_mmod_Torsional_Energy-OPLS-2005>
217.907073974609

> <r_mmod_Improper_Torsional_Energy-OPLS-2005>
6.24316930770874

> <r_mmod_Van_der_Waal_Energy-OPLS-2005>
142.444610595703

> <r_mmod_Electrostatic_Energy-OPLS-2005>
-494.579833984375

> <r_mmod_Solvation_Energy-OPLS-2005>
-220.871536254883

> <b_mmod_Minimization_Converged-OPLS-2005>
0

> <r_mmod_RMS_Derivative-OPLS-2005>
1.4654940366745

$$$$
41
                    3D
 Structure written by MMmdl.
177185  0  0  1  0            999 V2000
  -30.6827  -14.5254   20.5957 C   0  0  0  0  0  0
  -30.4245  -12.3550   19.4215 C   0  0  0  0  0  0
  -29.4924  -12.5099   18.2030 C   0  0  0  0  0  0
  -28.0160  -12.3581   18.6200 C   0  0  0  0  0  0
  -27.6535  -13.2103   19.8656 C   0  0  2  0  0  0
  -28.6944  -13.0190   20.9884 C   0  0  0  0  0  0
  -25.2566  -13.8172   20.5672 C   0  0  0  0  0  0
  -24.1824  -13.0445   20.9180 C   0  0  0  0  0  0
  -24.6379  -11.6912   20.8728 C   0  0  0  0  0  0
  -23.9045  -10.4293   21.0404 C   0  0  0  0  0  0
  -24.3603   -9.4218   21.9186 C   0  0  0  0  0  0
  -23.6284   -8.2248   22.0753 C   0  0  0  0  0  0
  -22.4267   -8.0280   21.3545 C   0  0  0  0  0  0
  -21.9899   -9.0250   20.4645 C   0  0  0  0  0  0
  -22.7215  -10.2135   20.3054 C   0  0  0  0  0  0
  -21.6852   -6.0728   22.5277 C   0  0  0  0  0  0
  -21.4012   -6.5637   23.8208 C   0  0  0  0  0  0
  -21.3663   -5.6792   24.9173 C   0  0  0  0  0  0
  -21.6035   -4.3052   24.7227 C   0  0  0  0  0  0
  -21.8827   -3.8145   23.4348 C   0  0  0  0  0  0
  -21.9196   -4.6956   22.3402 C   0  0  0  0  0  0
  -22.7850  -13.5245   21.1848 C   0  0  0  0  0  0
  -22.1665   -4.2140   21.0982 F   0  0  0  0  0  0
  -21.5630   -3.4542   25.7740 F   0  0  0  0  0  0
  -30.0144  -13.3488   20.4295 N   0  0  0  0  0  0
  -26.2980  -12.9336   20.3311 N   0  0  0  0  0  0
  -25.9300  -11.6494   20.5740 N   0  0  0  0  0  0
  -22.0489  -12.8233   22.0402 N   0  0  0  0  0  0
  -25.4321  -15.1883   20.4096 N   0  0  0  0  0  0
  -31.8140  -14.7134   20.1407 O   0  0  0  0  0  0
  -21.6640   -6.8871   21.4235 O   0  0  0  0  0  0
  -22.3542  -14.5555   20.6703 O   0  0  0  0  0  0
  -24.6177  -31.8626   23.2063 C   0  0  0  0  0  0
  -25.9055  -32.4793   23.8379 C   0  0  1  0  0  0
  -27.2413  -27.3928   20.1141 C   0  0  0  0  0  0
  -25.5892  -33.8595   24.2294 N   0  0  0  0  0  0
  -23.4102  -30.4816   21.5488 C   0  0  2  0  0  0
  -24.8579  -28.9288   20.1280 C   0  0  0  0  0  0
  -22.7418  -29.4633   22.5004 C   0  0  0  0  0  0
  -18.0263  -28.1377   22.8477 C   0  0  0  0  0  0
  -24.1491  -36.7322   23.2641 C   0  0  0  0  0  0
  -25.9403  -30.8147   21.3648 C   0  0  0  0  0  0
  -26.0209  -29.4423   20.7189 C   0  0  0  0  0  0
  -27.2177  -28.6852   20.7000 C   0  0  0  0  0  0
  -26.0607  -26.8931   19.5303 C   0  0  0  0  0  0
  -24.8724  -27.6536   19.5336 C   0  0  0  0  0  0
  -23.6224  -29.8030   20.1684 C   0  0  0  0  0  0
  -25.4109  -36.3093   24.0321 C   0  0  1  0  0  0
  -20.5856  -28.3682   23.1308 C   0  0  2  0  0  0
  -20.6759  -26.9423   22.5416 C   0  0  0  0  0  0
  -19.5747  -26.6390   21.5207 C   0  0  0  0  0  0
  -18.1919  -26.7927   22.1612 C   0  0  0  0  0  0
  -19.1513  -28.8844   23.2887 C   0  0  0  0  0  0
  -18.9450  -30.1441   23.8919 C   0  0  0  0  0  0
  -17.6457  -30.6593   24.0557 C   0  0  0  0  0  0
  -25.9035  -34.9457   23.5111 C   0  0  0  0  0  0
  -16.5342  -29.9098   23.6330 C   0  0  0  0  0  0
  -16.7253  -28.6505   23.0362 C   0  0  0  0  0  0
  -26.4479  -31.6588   25.0733 C   0  0  0  0  0  0
  -25.3734  -31.3680   26.1477 C   0  0  0  0  0  0
  -27.0339  -30.3019   24.6157 C   0  0  0  0  0  0
  -27.6053  -32.4317   25.7488 C   0  0  0  0  0  0
  -27.5577  -37.1812   24.8461 C   0  0  0  0  0  0
  -21.4142  -29.3043   22.3719 N   0  0  0  0  0  0
  -26.4296  -37.3776   23.9403 N   0  0  0  0  0  0
  -24.6747  -31.0682   22.0985 N   0  0  0  0  0  0
  -23.4144  -28.8190   23.3088 O   0  0  0  0  0  0
  -28.4181  -26.6724   20.0091 O   0  0  0  0  0  0
  -26.5623  -34.8925   22.4693 O   0  0  0  0  0  0
  -23.5362  -32.1419   23.7435 O   0  0  0  0  0  0
  -27.7845  -21.2107   21.7497 C   0  0  0  0  0  0
  -29.8758  -20.4830   20.7581 C   0  0  0  0  0  0
  -28.4891  -18.8641   21.9118 C   0  0  0  0  0  0
  -28.9682  -21.5387   21.0596 C   0  0  0  0  0  0
  -27.5405  -19.8822   22.1719 C   0  0  0  0  0  0
  -29.6954  -19.1422   21.2275 C   0  0  0  0  0  0
  -25.0366  -19.6052   22.0508 C   0  0  0  0  0  0
  -26.1139  -20.4503   24.1956 C   0  0  0  0  0  0
  -28.2944  -25.8641   22.3485 C   0  0  0  0  0  0
  -33.0280  -19.1501   20.4765 C   0  0  0  0  0  0
  -32.1390  -19.4068   22.7818 C   0  0  0  0  0  0
  -29.3732  -23.0188   20.8259 C   0  0  0  0  0  0
  -28.3070  -24.1103   20.4339 C   0  0  0  0  0  0
  -30.6656  -16.6955   21.8734 C   0  0  0  0  0  0
  -26.2752  -19.5515   22.9558 C   0  0  0  0  0  0
  -30.8268  -18.0586   21.0772 C   0  0  2  0  0  0
  -28.7081  -25.5612   20.8974 C   0  0  1  0  0  0
  -30.0205  -15.5208   21.2352 N   0  0  0  0  0  0
  -32.1477  -18.5983   21.5350 N   0  3  0  0  0  0
  -31.4653  -12.4756   19.1167 H   0  0  0  0  0  0
  -30.3492  -11.3483   19.8349 H   0  0  0  0  0  0
  -29.7413  -11.7693   17.4417 H   0  0  0  0  0  0
  -29.6464  -13.4865   17.7416 H   0  0  0  0  0  0
  -27.8407  -11.3029   18.8318 H   0  0  0  0  0  0
  -27.3609  -12.6124   17.7856 H   0  0  0  0  0  0
  -27.6897  -14.2533   19.5530 H   0  0  0  0  0  0
  -28.6902  -11.9855   21.3392 H   0  0  0  0  0  0
  -28.4428  -13.6244   21.8599 H   0  0  0  0  0  0
  -25.2747   -9.5694   22.4762 H   0  0  0  0  0  0
  -23.9992   -7.4638   22.7480 H   0  0  0  0  0  0
  -21.0828   -8.8763   19.8954 H   0  0  0  0  0  0
  -22.3669  -10.9673   19.6167 H   0  0  0  0  0  0
  -21.2005   -7.6145   23.9703 H   0  0  0  0  0  0
  -21.1476   -6.0529   25.9074 H   0  0  0  0  0  0
  -22.0604   -2.7604   23.2857 H   0  0  0  0  0  0
  -22.4105  -11.9885   22.4777 H   0  0  0  0  0  0
  -21.1111  -13.1262   22.2609 H   0  0  0  0  0  0
  -24.6696  -15.8480   20.5138 H   0  0  0  0  0  0
  -26.2865  -15.6219   20.0817 H   0  0  0  0  0  0
  -26.7127  -32.5491   23.1137 H   0  0  0  0  0  0
  -24.9987  -33.9749   25.0396 H   0  0  0  0  0  0
  -22.7036  -31.3000   21.4030 H   0  0  0  0  0  0
  -23.3728  -35.9678   23.3303 H   0  0  0  0  0  0
  -24.3577  -36.8961   22.2059 H   0  0  0  0  0  0
  -23.7286  -37.6535   23.6680 H   0  0  0  0  0  0
  -26.0531  -31.5750   20.5900 H   0  0  0  0  0  0
  -26.8246  -30.8730   21.9875 H   0  0  0  0  0  0
  -28.1244  -29.0858   21.1330 H   0  0  0  0  0  0
  -26.0672  -25.9192   19.0608 H   0  0  0  0  0  0
  -23.9784  -27.2493   19.0788 H   0  0  0  0  0  0
  -23.7351  -30.5717   19.4029 H   0  0  0  0  0  0
  -22.7451  -29.2232   19.8755 H   0  0  0  0  0  0
  -25.1283  -36.1938   25.0808 H   0  0  0  0  0  0
  -20.9939  -28.3274   24.1433 H   0  0  0  0  0  0
  -20.5683  -26.2297   23.3608 H   0  0  0  0  0  0
  -21.6633  -26.7482   22.1213 H   0  0  0  0  0  0
  -19.6926  -25.6300   21.1247 H   0  0  0  0  0  0
  -19.6692  -27.3189   20.6732 H   0  0  0  0  0  0
  -17.4195  -26.6661   21.4011 H   0  0  0  0  0  0
  -18.0320  -26.0067   22.9009 H   0  0  0  0  0  0
  -19.7936  -30.7212   24.2344 H   0  0  0  0  0  0
  -17.5031  -31.6290   24.5128 H   0  0  0  0  0  0
  -15.5350  -30.3007   23.7668 H   0  0  0  0  0  0
  -15.8642  -28.0826   22.7104 H   0  0  0  0  0  0
  -24.5909  -30.7038   25.7789 H   0  0  0  0  0  0
  -24.8918  -32.2823   26.4961 H   0  0  0  0  0  0
  -25.8073  -30.8817   27.0229 H   0  0  0  0  0  0
  -26.2908  -29.6733   24.1237 H   0  0  0  0  0  0
  -27.4117  -29.7304   25.4649 H   0  0  0  0  0  0
  -27.8732  -30.4314   23.9315 H   0  0  0  0  0  0
  -27.2688  -33.3618   26.2087 H   0  0  0  0  0  0
  -28.3850  -32.6880   25.0299 H   0  0  0  0  0  0
  -28.0742  -31.8429   26.5392 H   0  0  0  0  0  0
  -28.2588  -38.0113   24.7503 H   0  0  0  0  0  0
  -28.1082  -36.2644   24.6285 H   0  0  0  0  0  0
  -27.2301  -37.1464   25.8866 H   0  0  0  0  0  0
  -20.9330  -29.8745   21.6901 H   0  0  0  0  0  0
  -26.0174  -38.2855   24.1385 H   0  0  0  0  0  0
  -27.0774  -21.9869   22.0040 H   0  0  0  0  0  0
  -30.7769  -20.7447   20.2294 H   0  0  0  0  0  0
  -28.2845  -17.8659   22.2695 H   0  0  0  0  0  0
  -25.1393  -18.9210   21.2080 H   0  0  0  0  0  0
  -24.8794  -20.6046   21.6441 H   0  0  0  0  0  0
  -24.1374  -19.3214   22.5990 H   0  0  0  0  0  0
  -26.9969  -20.4020   24.8341 H   0  0  0  0  0  0
  -25.2606  -20.1382   24.7984 H   0  0  0  0  0  0
  -25.9565  -21.4960   23.9288 H   0  0  0  0  0  0
  -28.6417  -25.0882   23.0294 H   0  0  0  0  0  0
  -27.2113  -25.9360   22.4528 H   0  0  0  0  0  0
  -28.7238  -26.8076   22.6872 H   0  0  0  0  0  0
  -34.0627  -19.1384   20.8190 H   0  0  0  0  0  0
  -32.7943  -20.1815   20.2222 H   0  0  0  0  0  0
  -32.9886  -18.5536   19.5644 H   0  0  0  0  0  0
  -33.1465  -19.4800   23.1917 H   0  0  0  0  0  0
  -31.5069  -18.9541   23.5471 H   0  0  0  0  0  0
  -31.7856  -20.4245   22.6143 H   0  0  0  0  0  0
  -30.1770  -23.0512   20.0896 H   0  0  0  0  0  0
  -29.8437  -23.3257   21.7610 H   0  0  0  0  0  0
  -27.3311  -23.8762   20.8531 H   0  0  0  0  0  0
  -28.1754  -24.0857   19.3525 H   0  0  0  0  0  0
  -30.1911  -16.8763   22.8385 H   0  0  0  0  0  0
  -31.6575  -16.3394   22.1615 H   0  0  0  0  0  0
  -26.3648  -18.5264   23.3202 H   0  0  0  0  0  0
  -30.8994  -17.8056   20.0189 H   0  0  0  0  0  0
  -29.7986  -25.5644   20.8957 H   0  0  0  0  0  0
  -29.0691  -15.3211   21.5071 H   0  0  0  0  0  0
  -32.6323  -17.7524   21.7956 H   0  0  0  0  0  0
  1 25  1  0  0  0
  1 30  2  0  0  0
  1 88  1  0  0  0
  2  3  1  0  0  0
  2 25  1  0  0  0
  2 90  1  0  0  0
  2 91  1  0  0  0
  3  4  1  0  0  0
  3 92  1  0  0  0
  3 93  1  0  0  0
  4  5  1  0  0  0
  4 94  1  0  0  0
  4 95  1  0  0  0
  5  6  1  0  0  0
  5 26  1  0  0  0
  5 96  1  0  0  0
  6 25  1  0  0  0
  6 97  1  0  0  0
  6 98  1  0  0  0
  7  8  2  0  0  0
  7 26  1  0  0  0
  7 29  1  0  0  0
  8  9  1  0  0  0
  8 22  1  0  0  0
  9 10  1  0  0  0
  9 27  2  0  0  0
 10 11  2  0  0  0
 10 15  1  0  0  0
 11 12  1  0  0  0
 11 99  1  0  0  0
 12 13  2  0  0  0
 12100  1  0  0  0
 13 14  1  0  0  0
 13 31  1  0  0  0
 14 15  2  0  0  0
 14101  1  0  0  0
 15102  1  0  0  0
 16 17  2  0  0  0
 16 21  1  0  0  0
 16 31  1  0  0  0
 17 18  1  0  0  0
 17103  1  0  0  0
 18 19  2  0  0  0
 18104  1  0  0  0
 19 20  1  0  0  0
 19 24  1  0  0  0
 20 21  2  0  0  0
 20105  1  0  0  0
 21 23  1  0  0  0
 22 28  1  0  0  0
 22 32  2  0  0  0
 26 27  1  0  0  0
 28106  1  0  0  0
 28107  1  0  0  0
 29108  1  0  0  0
 29109  1  0  0  0
 33 34  1  0  0  0
 33 66  1  0  0  0
 33 70  2  0  0  0
 34 36  1  0  0  0
 34 59  1  0  0  0
 34110  1  0  0  0
 35 44  2  0  0  0
 35 45  1  0  0  0
 35 68  1  0  0  0
 36 56  1  0  0  0
 36111  1  0  0  0
 37 39  1  0  0  0
 37 47  1  0  0  0
 37 66  1  0  0  0
 37112  1  0  0  0
 38 43  2  0  0  0
 38 46  1  0  0  0
 38 47  1  0  0  0
 39 64  1  0  0  0
 39 67  2  0  0  0
 40 52  1  0  0  0
 40 53  2  0  0  0
 40 58  1  0  0  0
 41113  1  0  0  0
 41114  1  0  0  0
 41115  1  0  0  0
 41 48  1  0  0  0
 42 43  1  0  0  0
 42 66  1  0  0  0
 42116  1  0  0  0
 42117  1  0  0  0
 43 44  1  0  0  0
 44118  1  0  0  0
 45 46  2  0  0  0
 45119  1  0  0  0
 46120  1  0  0  0
 47121  1  0  0  0
 47122  1  0  0  0
 48 56  1  0  0  0
 48 65  1  0  0  0
 48123  1  0  0  0
 49 50  1  0  0  0
 49 53  1  0  0  0
 49 64  1  0  0  0
 49124  1  0  0  0
 50 51  1  0  0  0
 50125  1  0  0  0
 50126  1  0  0  0
 51 52  1  0  0  0
 51127  1  0  0  0
 51128  1  0  0  0
 52129  1  0  0  0
 52130  1  0  0  0
 53 54  1  0  0  0
 54 55  2  0  0  0
 54131  1  0  0  0
 55 57  1  0  0  0
 55132  1  0  0  0
 56 69  2  0  0  0
 57 58  2  0  0  0
 57133  1  0  0  0
 58134  1  0  0  0
 59 60  1  0  0  0
 59 61  1  0  0  0
 59 62  1  0  0  0
 60135  1  0  0  0
 60136  1  0  0  0
 60137  1  0  0  0
 61138  1  0  0  0
 61139  1  0  0  0
 61140  1  0  0  0
 62141  1  0  0  0
 62142  1  0  0  0
 62143  1  0  0  0
 63 65  1  0  0  0
 63144  1  0  0  0
 63145  1  0  0  0
 63146  1  0  0  0
 64147  1  0  0  0
 65148  1  0  0  0
 68 87  1  0  0  0
 71 74  2  0  0  0
 71 75  1  0  0  0
 71149  1  0  0  0
 72 74  1  0  0  0
 72 76  2  0  0  0
 72150  1  0  0  0
 73 75  2  0  0  0
 73 76  1  0  0  0
 73151  1  0  0  0
 74 82  1  0  0  0
 75 85  1  0  0  0
 76 86  1  0  0  0
 77152  1  0  0  0
 77153  1  0  0  0
 77154  1  0  0  0
 77 85  1  0  0  0
 78 85  1  0  0  0
 78155  1  0  0  0
 78156  1  0  0  0
 78157  1  0  0  0
 79158  1  0  0  0
 79159  1  0  0  0
 79160  1  0  0  0
 79 87  1  0  0  0
 80161  1  0  0  0
 80162  1  0  0  0
 80163  1  0  0  0
 80 89  1  0  0  0
 81 89  1  0  0  0
 81164  1  0  0  0
 81165  1  0  0  0
 81166  1  0  0  0
 82 83  1  0  0  0
 82167  1  0  0  0
 82168  1  0  0  0
 83 87  1  0  0  0
 83169  1  0  0  0
 83170  1  0  0  0
 84 88  1  0  0  0
 84171  1  0  0  0
 84172  1  0  0  0
 84 86  1  0  0  0
 85173  1  0  0  0
 86 89  1  0  0  0
 86174  1  0  0  0
 87175  1  0  0  0
 88176  1  0  0  0
 89177  1  0  0  0
M  CHG  1  89   1
M  ISO  4   1 100  68 101  87 101  88 100
M  END
> <chiral flag>
0

> <version>
0

> <s_m_source_file>
/data/baiqing/PycharmProjects/Reinvent-master-3.2/result/LINK_invent/BTK/process_docking_weight1_custom_sum_contain_oxygen_bond_distance_aromatic_linkinvent_7_9_3/rearranged_h_0098.sdf

> <i_m_source_file_index>
41

> <r_mmod_Potential_Energy-OPLS-2005>
-150.18017578125

> <r_mmod_Stretch_Energy-OPLS-2005>
59.3686561584473

> <r_mmod_Bend_Energy-OPLS-2005>
146.999084472656

> <r_mmod_Torsional_Energy-OPLS-2005>
269.915863037109

> <r_mmod_Improper_Torsional_Energy-OPLS-2005>
4.19220924377441

> <r_mmod_Van_der_Waal_Energy-OPLS-2005>
145.778015136719

> <r_mmod_Electrostatic_Energy-OPLS-2005>
-376.984375

> <r_mmod_Solvation_Energy-OPLS-2005>
-418.334808349609

> <b_mmod_Minimization_Converged-OPLS-2005>
0

> <r_mmod_RMS_Derivative-OPLS-2005>
2.01767492294312

$$$$
42
                    3D
 Structure written by MMmdl.
164172  0  0  1  0            999 V2000
  -30.8119  -14.4439   20.5588 C   0  0  0  0  0  0
  -30.3744  -12.2971   19.4262 C   0  0  0  0  0  0
  -29.4703  -12.4958   18.1988 C   0  0  0  0  0  0
  -27.9933  -12.3678   18.6116 C   0  0  0  0  0  0
  -27.6438  -13.2281   19.8572 C   0  0  2  0  0  0
  -28.6876  -13.0573   20.9801 C   0  0  0  0  0  0
  -25.2488  -13.8212   20.5667 C   0  0  0  0  0  0
  -24.1802  -13.0452   20.9187 C   0  0  0  0  0  0
  -24.6390  -11.6921   20.8747 C   0  0  0  0  0  0
  -23.9064  -10.4299   21.0420 C   0  0  0  0  0  0
  -24.3607   -9.4200   21.9192 C   0  0  0  0  0  0
  -23.6292   -8.2232   22.0745 C   0  0  0  0  0  0
  -22.4276   -8.0276   21.3533 C   0  0  0  0  0  0
  -21.9913   -9.0250   20.4632 C   0  0  0  0  0  0
  -22.7239  -10.2137   20.3060 C   0  0  0  0  0  0
  -21.6857   -6.0735   22.5283 C   0  0  0  0  0  0
  -21.4009   -6.5630   23.8215 C   0  0  0  0  0  0
  -21.3657   -5.6790   24.9172 C   0  0  0  0  0  0
  -21.6052   -4.3054   24.7236 C   0  0  0  0  0  0
  -21.8816   -3.8138   23.4352 C   0  0  0  0  0  0
  -21.9184   -4.6959   22.3399 C   0  0  0  0  0  0
  -22.7817  -13.5207   21.1895 C   0  0  0  0  0  0
  -22.1662   -4.2134   21.0992 F   0  0  0  0  0  0
  -21.5628   -3.4535   25.7745 F   0  0  0  0  0  0
  -30.0163  -13.3384   20.4152 N   0  0  0  0  0  0
  -26.2947  -12.9433   20.3326 N   0  0  0  0  0  0
  -25.9326  -11.6559   20.5772 N   0  0  0  0  0  0
  -22.0472  -12.8179   22.0431 N   0  0  0  0  0  0
  -25.4160  -15.1944   20.4037 N   0  0  0  0  0  0
  -31.9514  -14.4044   20.1070 O   0  0  0  0  0  0
  -21.6645   -6.8868   21.4240 O   0  0  0  0  0  0
  -22.3465  -14.5522   20.6768 O   0  0  0  0  0  0
  -24.6173  -31.8729   23.2098 C   0  0  0  0  0  0
  -25.9052  -32.4845   23.8424 C   0  0  1  0  0  0
  -27.2223  -27.4223   20.0623 C   0  0  0  0  0  0
  -25.5878  -33.8649   24.2354 N   0  0  0  0  0  0
  -23.4040  -30.4941   21.5617 C   0  0  2  0  0  0
  -24.8425  -28.9736   20.1162 C   0  0  0  0  0  0
  -22.7428  -29.4674   22.5100 C   0  0  0  0  0  0
  -18.0270  -28.1334   22.8514 C   0  0  0  0  0  0
  -24.1488  -36.7314   23.2645 C   0  0  0  0  0  0
  -25.9416  -30.8267   21.3723 C   0  0  0  0  0  0
  -26.0130  -29.4668   20.7064 C   0  0  0  0  0  0
  -27.2065  -28.7010   20.6741 C   0  0  0  0  0  0
  -26.0155  -26.9586   19.4740 C   0  0  0  0  0  0
  -24.8403  -27.7195   19.4956 C   0  0  0  0  0  0
  -23.6028  -29.8321   20.1766 C   0  0  0  0  0  0
  -25.4108  -36.3133   24.0363 C   0  0  1  0  0  0
  -20.5871  -28.3638   23.1330 C   0  0  2  0  0  0
  -20.6757  -26.9385   22.5406 C   0  0  0  0  0  0
  -19.5719  -26.6368   21.5210 C   0  0  0  0  0  0
  -18.1908  -26.7887   22.1646 C   0  0  0  0  0  0
  -19.1525  -28.8809   23.2910 C   0  0  0  0  0  0
  -18.9449  -30.1411   23.8906 C   0  0  0  0  0  0
  -17.6450  -30.6556   24.0543 C   0  0  0  0  0  0
  -25.9036  -34.9498   23.5154 C   0  0  0  0  0  0
  -16.5343  -29.9044   23.6308 C   0  0  0  0  0  0
  -16.7254  -28.6446   23.0376 C   0  0  0  0  0  0
  -26.4436  -31.6597   25.0759 C   0  0  0  0  0  0
  -25.3634  -31.3762   26.1462 C   0  0  0  0  0  0
  -27.0261  -30.3011   24.6182 C   0  0  0  0  0  0
  -27.6011  -32.4334   25.7489 C   0  0  0  0  0  0
  -27.5597  -37.1803   24.8482 C   0  0  0  0  0  0
  -21.4180  -29.3014   22.3773 N   0  0  0  0  0  0
  -26.4307  -37.3801   23.9417 N   0  0  0  0  0  0
  -24.6733  -31.0791   22.1033 N   0  0  0  0  0  0
  -23.4199  -28.8249   23.3160 O   0  0  0  0  0  0
  -28.3822  -26.6508   20.0562 O   0  0  0  0  0  0
  -26.5641  -34.8955   22.4755 O   0  0  0  0  0  0
  -23.5353  -32.1558   23.7441 O   0  0  0  0  0  0
  -31.9171  -17.2016   19.9231 C   0  0  0  0  0  0
  -32.2864  -18.4815   19.5204 C   0  0  0  0  0  0
  -29.7635  -18.0671   20.5747 C   0  0  0  0  0  0
  -30.6394  -16.9339   20.4848 C   0  0  0  0  0  0
  -30.2415  -19.3531   20.1617 C   0  0  0  0  0  0
  -28.3501  -17.9133   21.1326 C   0  0  0  0  0  0
  -29.9181  -21.2882   21.7262 C   0  0  0  0  0  0
  -29.9627  -15.6396   22.4884 C   0  0  0  0  0  0
  -28.7809  -22.9085   19.1385 C   0  0  0  0  0  0
  -29.3189  -24.2531   19.7102 C   0  0  0  0  0  0
  -29.7034  -21.6700   19.1887 C   0  0  0  0  0  0
  -28.1855  -25.2889   19.6296 C   0  0  0  0  0  0
  -29.4991  -20.6869   20.3777 C   0  0  1  0  0  0
  -31.4816  -19.5361   19.6661 N   0  0  0  0  0  0
  -30.3094  -15.6210   21.0566 N   0  0  0  0  0  0
  -31.4201  -12.3078   19.1167 H   0  0  0  0  0  0
  -30.2171  -11.3016   19.8488 H   0  0  0  0  0  0
  -29.7060  -11.7597   17.4275 H   0  0  0  0  0  0
  -29.6561  -13.4746   17.7546 H   0  0  0  0  0  0
  -27.8049  -11.3151   18.8255 H   0  0  0  0  0  0
  -27.3427  -12.6275   17.7724 H   0  0  0  0  0  0
  -27.6735  -14.2722   19.5417 H   0  0  0  0  0  0
  -28.6613  -12.0343   21.3589 H   0  0  0  0  0  0
  -28.4339  -13.6811   21.8322 H   0  0  0  0  0  0
  -25.2742   -9.5695   22.4775 H   0  0  0  0  0  0
  -23.9992   -7.4623   22.7482 H   0  0  0  0  0  0
  -21.0818   -8.8780   19.8949 H   0  0  0  0  0  0
  -22.3686  -10.9677   19.6174 H   0  0  0  0  0  0
  -21.2012   -7.6144   23.9707 H   0  0  0  0  0  0
  -21.1487   -6.0530   25.9081 H   0  0  0  0  0  0
  -22.0600   -2.7602   23.2869 H   0  0  0  0  0  0
  -22.4061  -11.9816   22.4814 H   0  0  0  0  0  0
  -21.1106  -13.1226   22.2689 H   0  0  0  0  0  0
  -24.6431  -15.8449   20.4861 H   0  0  0  0  0  0
  -26.2683  -15.6291   20.0778 H   0  0  0  0  0  0
  -26.7133  -32.5523   23.1203 H   0  0  0  0  0  0
  -24.9908  -33.9819   25.0406 H   0  0  0  0  0  0
  -22.6911  -31.3107   21.4291 H   0  0  0  0  0  0
  -23.3765  -35.9629   23.3348 H   0  0  0  0  0  0
  -24.3559  -36.8893   22.2044 H   0  0  0  0  0  0
  -23.7224  -37.6533   23.6620 H   0  0  0  0  0  0
  -26.0821  -31.6000   20.6151 H   0  0  0  0  0  0
  -26.8192  -30.8576   22.0066 H   0  0  0  0  0  0
  -28.1115  -29.0886   21.1197 H   0  0  0  0  0  0
  -25.9278  -26.0019   18.9801 H   0  0  0  0  0  0
  -23.9429  -27.3368   19.0322 H   0  0  0  0  0  0
  -23.6942  -30.6089   19.4176 H   0  0  0  0  0  0
  -22.7285  -29.2442   19.8866 H   0  0  0  0  0  0
  -25.1275  -36.2035   25.0853 H   0  0  0  0  0  0
  -20.9951  -28.3174   24.1459 H   0  0  0  0  0  0
  -20.5657  -26.2244   23.3595 H   0  0  0  0  0  0
  -21.6619  -26.7403   22.1193 H   0  0  0  0  0  0
  -19.6876  -25.6296   21.1189 H   0  0  0  0  0  0
  -19.6627  -27.3211   20.6765 H   0  0  0  0  0  0
  -17.4179  -26.6649   21.4047 H   0  0  0  0  0  0
  -18.0310  -26.0002   22.9010 H   0  0  0  0  0  0
  -19.7916  -30.7219   24.2295 H   0  0  0  0  0  0
  -17.4988  -31.6233   24.5153 H   0  0  0  0  0  0
  -15.5336  -30.2945   23.7598 H   0  0  0  0  0  0
  -15.8659  -28.0716   22.7144 H   0  0  0  0  0  0
  -24.5773  -30.7185   25.7757 H   0  0  0  0  0  0
  -24.8852  -32.2938   26.4883 H   0  0  0  0  0  0
  -25.7880  -30.8896   27.0241 H   0  0  0  0  0  0
  -26.2839  -29.6813   24.1136 H   0  0  0  0  0  0
  -27.3902  -29.7233   25.4689 H   0  0  0  0  0  0
  -27.8739  -30.4344   23.9462 H   0  0  0  0  0  0
  -27.2618  -33.3622   26.2097 H   0  0  0  0  0  0
  -28.3727  -32.6930   25.0227 H   0  0  0  0  0  0
  -28.0764  -31.8451   26.5346 H   0  0  0  0  0  0
  -28.2637  -38.0079   24.7500 H   0  0  0  0  0  0
  -28.1077  -36.2609   24.6330 H   0  0  0  0  0  0
  -27.2320  -37.1489   25.8890 H   0  0  0  0  0  0
  -20.9383  -29.8708   21.6962 H   0  0  0  0  0  0
  -26.0247  -38.2928   24.1301 H   0  0  0  0  0  0
  -32.7017  -16.4738   19.8114 H   0  0  0  0  0  0
  -33.2698  -18.6615   19.1085 H   0  0  0  0  0  0
  -27.6368  -18.5825   20.6575 H   0  0  0  0  0  0
  -27.9674  -16.9090   20.9552 H   0  0  0  0  0  0
  -28.3407  -18.1016   22.2073 H   0  0  0  0  0  0
  -29.7085  -20.5768   22.5249 H   0  0  0  0  0  0
  -29.3767  -22.2033   21.9549 H   0  0  0  0  0  0
  -30.9860  -21.5061   21.7445 H   0  0  0  0  0  0
  -30.3561  -16.5331   22.9746 H   0  0  0  0  0  0
  -30.3765  -14.7848   23.0278 H   0  0  0  0  0  0
  -28.8871  -15.6424   22.6542 H   0  0  0  0  0  0
  -27.8169  -22.6642   19.5875 H   0  0  0  0  0  0
  -28.5533  -23.0835   18.0862 H   0  0  0  0  0  0
  -30.1813  -24.5954   19.1336 H   0  0  0  0  0  0
  -29.6375  -24.1379   20.7443 H   0  0  0  0  0  0
  -30.7446  -21.9814   19.0967 H   0  0  0  0  0  0
  -29.4932  -21.0962   18.2839 H   0  0  0  0  0  0
  -27.3664  -24.8680   20.2166 H   0  0  0  0  0  0
  -27.8850  -25.3131   18.5831 H   0  0  0  0  0  0
  -28.4305  -20.5055   20.4300 H   0  0  0  0  0  0
  1 25  1  0  0  0
  1 30  2  0  0  0
  1 85  1  0  0  0
  2  3  1  0  0  0
  2 25  1  0  0  0
  2 86  1  0  0  0
  2 87  1  0  0  0
  3  4  1  0  0  0
  3 88  1  0  0  0
  3 89  1  0  0  0
  4  5  1  0  0  0
  4 90  1  0  0  0
  4 91  1  0  0  0
  5  6  1  0  0  0
  5 26  1  0  0  0
  5 92  1  0  0  0
  6 25  1  0  0  0
  6 93  1  0  0  0
  6 94  1  0  0  0
  7  8  2  0  0  0
  7 26  1  0  0  0
  7 29  1  0  0  0
  8  9  1  0  0  0
  8 22  1  0  0  0
  9 10  1  0  0  0
  9 27  2  0  0  0
 10 11  2  0  0  0
 10 15  1  0  0  0
 11 12  1  0  0  0
 11 95  1  0  0  0
 12 13  2  0  0  0
 12 96  1  0  0  0
 13 14  1  0  0  0
 13 31  1  0  0  0
 14 15  2  0  0  0
 14 97  1  0  0  0
 15 98  1  0  0  0
 16 17  2  0  0  0
 16 21  1  0  0  0
 16 31  1  0  0  0
 17 18  1  0  0  0
 17 99  1  0  0  0
 18 19  2  0  0  0
 18100  1  0  0  0
 19 20  1  0  0  0
 19 24  1  0  0  0
 20 21  2  0  0  0
 20101  1  0  0  0
 21 23  1  0  0  0
 22 28  1  0  0  0
 22 32  2  0  0  0
 26 27  1  0  0  0
 28102  1  0  0  0
 28103  1  0  0  0
 29104  1  0  0  0
 29105  1  0  0  0
 33 34  1  0  0  0
 33 66  1  0  0  0
 33 70  2  0  0  0
 34 36  1  0  0  0
 34 59  1  0  0  0
 34106  1  0  0  0
 35 44  2  0  0  0
 35 45  1  0  0  0
 35 68  1  0  0  0
 36 56  1  0  0  0
 36107  1  0  0  0
 37 39  1  0  0  0
 37 47  1  0  0  0
 37 66  1  0  0  0
 37108  1  0  0  0
 38 43  2  0  0  0
 38 46  1  0  0  0
 38 47  1  0  0  0
 39 64  1  0  0  0
 39 67  2  0  0  0
 40 52  1  0  0  0
 40 53  2  0  0  0
 40 58  1  0  0  0
 41109  1  0  0  0
 41110  1  0  0  0
 41111  1  0  0  0
 41 48  1  0  0  0
 42 43  1  0  0  0
 42 66  1  0  0  0
 42112  1  0  0  0
 42113  1  0  0  0
 43 44  1  0  0  0
 44114  1  0  0  0
 45 46  2  0  0  0
 45115  1  0  0  0
 46116  1  0  0  0
 47117  1  0  0  0
 47118  1  0  0  0
 48 56  1  0  0  0
 48 65  1  0  0  0
 48119  1  0  0  0
 49 50  1  0  0  0
 49 53  1  0  0  0
 49 64  1  0  0  0
 49120  1  0  0  0
 50 51  1  0  0  0
 50121  1  0  0  0
 50122  1  0  0  0
 51 52  1  0  0  0
 51123  1  0  0  0
 51124  1  0  0  0
 52125  1  0  0  0
 52126  1  0  0  0
 53 54  1  0  0  0
 54 55  2  0  0  0
 54127  1  0  0  0
 55 57  1  0  0  0
 55128  1  0  0  0
 56 69  2  0  0  0
 57 58  2  0  0  0
 57129  1  0  0  0
 58130  1  0  0  0
 59 60  1  0  0  0
 59 61  1  0  0  0
 59 62  1  0  0  0
 60131  1  0  0  0
 60132  1  0  0  0
 60133  1  0  0  0
 61134  1  0  0  0
 61135  1  0  0  0
 61136  1  0  0  0
 62137  1  0  0  0
 62138  1  0  0  0
 62139  1  0  0  0
 63 65  1  0  0  0
 63140  1  0  0  0
 63141  1  0  0  0
 63142  1  0  0  0
 64143  1  0  0  0
 65144  1  0  0  0
 68 82  1  0  0  0
 71 72  2  0  0  0
 71 74  1  0  0  0
 71145  1  0  0  0
 72 84  1  0  0  0
 72146  1  0  0  0
 73 74  2  0  0  0
 73 75  1  0  0  0
 73 76  1  0  0  0
 74 85  1  0  0  0
 75 83  1  0  0  0
 75 84  2  0  0  0
 76147  1  0  0  0
 76148  1  0  0  0
 76149  1  0  0  0
 77150  1  0  0  0
 77151  1  0  0  0
 77152  1  0  0  0
 77 83  1  0  0  0
 78 85  1  0  0  0
 78153  1  0  0  0
 78154  1  0  0  0
 78155  1  0  0  0
 79 80  1  0  0  0
 79 81  1  0  0  0
 79156  1  0  0  0
 79157  1  0  0  0
 80 82  1  0  0  0
 80158  1  0  0  0
 80159  1  0  0  0
 81 83  1  0  0  0
 81160  1  0  0  0
 81161  1  0  0  0
 82162  1  0  0  0
 82163  1  0  0  0
 83164  1  0  0  0
M  ISO  4   1 100  68 101  82 101  85 100
M  END
> <chiral flag>
0

> <version>
0

> <s_m_source_file>
/data/baiqing/PycharmProjects/Reinvent-master-3.2/result/LINK_invent/BTK/process_docking_weight1_custom_sum_contain_oxygen_bond_distance_aromatic_linkinvent_7_9_3/rearranged_h_0098.sdf

> <i_m_source_file_index>
42

> <r_mmod_Potential_Energy-OPLS-2005>
72.5029373168945

> <r_mmod_Stretch_Energy-OPLS-2005>
54.4208946228027

> <r_mmod_Bend_Energy-OPLS-2005>
139.000534057617

> <r_mmod_Torsional_Energy-OPLS-2005>
286.930297851562

> <r_mmod_Improper_Torsional_Energy-OPLS-2005>
5.79466772079468

> <r_mmod_Van_der_Waal_Energy-OPLS-2005>
198.382629394531

> <r_mmod_Electrostatic_Energy-OPLS-2005>
-444.710327148438

> <r_mmod_Solvation_Energy-OPLS-2005>
-194.097610473633

> <b_mmod_Minimization_Converged-OPLS-2005>
0

> <r_mmod_RMS_Derivative-OPLS-2005>
4.51810312271118

$$$$
43
                    3D
 Structure written by MMmdl.
158166  0  0  1  0            999 V2000
  -30.5124  -14.9671   20.4045 C   0  0  0  0  0  0
  -30.4294  -12.5986   19.4918 C   0  0  0  0  0  0
  -29.5204  -12.5436   18.2406 C   0  0  0  0  0  0
  -28.0468  -12.3376   18.6433 C   0  0  0  0  0  0
  -27.6209  -13.2502   19.8234 C   0  0  2  0  0  0
  -28.6601  -13.2798   20.9609 C   0  0  0  0  0  0
  -25.2409  -13.8218   20.5624 C   0  0  0  0  0  0
  -24.1737  -13.0443   20.9187 C   0  0  0  0  0  0
  -24.6381  -11.6911   20.8710 C   0  0  0  0  0  0
  -23.9062  -10.4289   21.0379 C   0  0  0  0  0  0
  -24.3617   -9.4227   21.9176 C   0  0  0  0  0  0
  -23.6301   -8.2257   22.0761 C   0  0  0  0  0  0
  -22.4288   -8.0272   21.3543 C   0  0  0  0  0  0
  -21.9906   -9.0243   20.4639 C   0  0  0  0  0  0
  -22.7230  -10.2129   20.3044 C   0  0  0  0  0  0
  -21.6876   -6.0733   22.5278 C   0  0  0  0  0  0
  -21.4017   -6.5629   23.8212 C   0  0  0  0  0  0
  -21.3668   -5.6780   24.9157 C   0  0  0  0  0  0
  -21.6058   -4.3048   24.7211 C   0  0  0  0  0  0
  -21.8825   -3.8142   23.4330 C   0  0  0  0  0  0
  -21.9190   -4.6953   22.3384 C   0  0  0  0  0  0
  -22.7767  -13.5191   21.1859 C   0  0  0  0  0  0
  -22.1657   -4.2133   21.0969 F   0  0  0  0  0  0
  -21.5637   -3.4533   25.7733 F   0  0  0  0  0  0
  -29.9279  -13.7040   20.3554 N   0  0  0  0  0  0
  -26.2824  -12.9453   20.3116 N   0  0  0  0  0  0
  -25.9310  -11.6587   20.5657 N   0  0  0  0  0  0
  -22.0414  -12.8162   22.0403 N   0  0  0  0  0  0
  -25.4107  -15.1926   20.3989 N   0  0  0  0  0  0
  -31.7308  -15.0210   20.1995 O   0  0  0  0  0  0
  -21.6641   -6.8873   21.4247 O   0  0  0  0  0  0
  -22.3434  -14.5532   20.6744 O   0  0  0  0  0  0
  -24.6445  -31.8401   23.1769 C   0  0  0  0  0  0
  -25.9198  -32.4669   23.8206 C   0  0  1  0  0  0
  -27.2320  -27.1197   20.1607 C   0  0  0  0  0  0
  -25.6007  -33.8480   24.2220 N   0  0  0  0  0  0
  -23.4483  -30.4583   21.5182 C   0  0  2  0  0  0
  -24.9072  -28.8797   20.0974 C   0  0  0  0  0  0
  -22.7600  -29.4511   22.4742 C   0  0  0  0  0  0
  -18.0338  -28.1408   22.8465 C   0  0  0  0  0  0
  -24.1489  -36.7241   23.2656 C   0  0  0  0  0  0
  -26.0035  -30.7219   21.3623 C   0  0  0  0  0  0
  -26.0772  -29.3212   20.7223 C   0  0  0  0  0  0
  -27.2318  -28.4549   20.7401 C   0  0  0  0  0  0
  -26.0335  -26.7832   19.4891 C   0  0  0  0  0  0
  -24.8999  -27.6274   19.4617 C   0  0  0  0  0  0
  -23.6790  -29.7787   20.1371 C   0  0  0  0  0  0
  -25.4098  -36.3031   24.0345 C   0  0  1  0  0  0
  -20.5950  -28.3707   23.1215 C   0  0  2  0  0  0
  -20.6795  -26.9379   22.5405 C   0  0  0  0  0  0
  -19.5769  -26.6398   21.5216 C   0  0  0  0  0  0
  -18.1957  -26.7960   22.1641 C   0  0  0  0  0  0
  -19.1585  -28.8860   23.2864 C   0  0  0  0  0  0
  -18.9511  -30.1453   23.8889 C   0  0  0  0  0  0
  -17.6499  -30.6575   24.0527 C   0  0  0  0  0  0
  -25.9071  -34.9403   23.5096 C   0  0  0  0  0  0
  -16.5395  -29.9065   23.6291 C   0  0  0  0  0  0
  -16.7319  -28.6483   23.0303 C   0  0  0  0  0  0
  -26.4490  -31.6445   25.0583 C   0  0  0  0  0  0
  -25.3696  -31.3560   26.1254 C   0  0  0  0  0  0
  -27.0234  -30.2851   24.5975 C   0  0  0  0  0  0
  -27.6113  -32.4009   25.7399 C   0  0  0  0  0  0
  -27.5545  -37.1753   24.8507 C   0  0  0  0  0  0
  -21.4267  -29.3051   22.3556 N   0  0  0  0  0  0
  -26.4248  -37.3743   23.9459 N   0  0  0  0  0  0
  -24.7193  -31.0278   22.0773 N   0  0  0  0  0  0
  -23.4233  -28.8011   23.2854 O   0  0  0  0  0  0
  -28.3104  -26.1602   20.2682 O   0  0  0  0  0  0
  -26.5639  -34.8907   22.4688 O   0  0  0  0  0  0
  -23.5548  -32.1249   23.6987 O   0  0  0  0  0  0
  -28.8990  -19.1194   18.8725 C   0  0  0  0  0  0
  -29.3206  -20.4035   20.8487 C   0  0  0  0  0  0
  -28.4431  -20.3381   18.3089 C   0  0  0  0  0  0
  -29.3925  -19.0722   20.1898 C   0  0  0  0  0  0
  -28.8448  -21.6846   20.2266 C   0  0  0  0  0  0
  -28.9689  -24.7365   22.9938 C   0  0  0  0  0  0
  -30.1459  -22.5963   22.9435 C   0  0  0  0  0  0
  -30.0896  -17.6753   20.7602 C   0  0  0  0  0  0
  -28.3190  -24.6271   19.8952 C   0  0  0  0  0  0
  -28.6093  -23.2415   20.8603 C   0  0  2  0  0  0
  -29.5784  -23.6905   22.0244 C   0  0  0  0  0  0
  -28.4130  -21.5467   18.9481 N   0  0  0  0  0  0
  -29.7285  -16.1574   20.4893 N   0  0  0  0  0  0
  -31.4669  -12.7520   19.1930 H   0  0  0  0  0  0
  -30.4113  -11.6476   20.0294 H   0  0  0  0  0  0
  -29.8440  -11.7450   17.5707 H   0  0  0  0  0  0
  -29.6165  -13.4755   17.6777 H   0  0  0  0  0  0
  -27.9166  -11.2905   18.9136 H   0  0  0  0  0  0
  -27.4003  -12.5119   17.7835 H   0  0  0  0  0  0
  -27.5801  -14.2528   19.4008 H   0  0  0  0  0  0
  -28.7509  -12.3035   21.4400 H   0  0  0  0  0  0
  -28.3555  -13.9823   21.7374 H   0  0  0  0  0  0
  -25.2781   -9.5687   22.4725 H   0  0  0  0  0  0
  -24.0015   -7.4637   22.7492 H   0  0  0  0  0  0
  -21.0848   -8.8766   19.8912 H   0  0  0  0  0  0
  -22.3728  -10.9660   19.6118 H   0  0  0  0  0  0
  -21.2026   -7.6145   23.9706 H   0  0  0  0  0  0
  -21.1485   -6.0504   25.9061 H   0  0  0  0  0  0
  -22.0600   -2.7606   23.2830 H   0  0  0  0  0  0
  -22.4055  -11.9804   22.4747 H   0  0  0  0  0  0
  -21.1040  -13.1174   22.2637 H   0  0  0  0  0  0
  -24.6460  -15.8497   20.5048 H   0  0  0  0  0  0
  -26.2472  -15.6267   20.0350 H   0  0  0  0  0  0
  -26.7260  -32.5256   23.0958 H   0  0  0  0  0  0
  -25.0119  -33.9618   25.0347 H   0  0  0  0  0  0
  -22.7548  -31.2864   21.3524 H   0  0  0  0  0  0
  -23.3726  -35.9603   23.3295 H   0  0  0  0  0  0
  -24.3600  -36.8878   22.2081 H   0  0  0  0  0  0
  -23.7250  -37.6456   23.6670 H   0  0  0  0  0  0
  -26.1198  -31.4508   20.5587 H   0  0  0  0  0  0
  -26.8976  -30.8175   21.9692 H   0  0  0  0  0  0
  -28.1169  -28.7831   21.2654 H   0  0  0  0  0  0
  -25.9347  -25.8309   18.9969 H   0  0  0  0  0  0
  -24.0153  -27.2934   18.9435 H   0  0  0  0  0  0
  -23.8134  -30.5475   19.3759 H   0  0  0  0  0  0
  -22.7998  -29.2182   19.8130 H   0  0  0  0  0  0
  -25.1285  -36.1816   25.0817 H   0  0  0  0  0  0
  -21.0090  -28.3294   24.1315 H   0  0  0  0  0  0
  -20.5713  -26.2274   23.3618 H   0  0  0  0  0  0
  -21.6651  -26.7401   22.1189 H   0  0  0  0  0  0
  -19.6910  -25.6335   21.1191 H   0  0  0  0  0  0
  -19.6713  -27.3238   20.6755 H   0  0  0  0  0  0
  -17.4235  -26.6698   21.4019 H   0  0  0  0  0  0
  -18.0289  -26.0140   22.9063 H   0  0  0  0  0  0
  -19.7996  -30.7250   24.2234 H   0  0  0  0  0  0
  -17.5081  -31.6252   24.5161 H   0  0  0  0  0  0
  -15.5395  -30.2966   23.7622 H   0  0  0  0  0  0
  -15.8745  -28.0830   22.6951 H   0  0  0  0  0  0
  -24.6135  -30.6579   25.7634 H   0  0  0  0  0  0
  -24.8547  -32.2647   26.4412 H   0  0  0  0  0  0
  -25.8042  -30.9059   27.0194 H   0  0  0  0  0  0
  -26.2755  -29.6694   24.0953 H   0  0  0  0  0  0
  -27.3921  -29.6995   25.4403 H   0  0  0  0  0  0
  -27.8695  -30.4135   23.9203 H   0  0  0  0  0  0
  -27.2921  -33.3482   26.1754 H   0  0  0  0  0  0
  -28.4090  -32.6229   25.0286 H   0  0  0  0  0  0
  -28.0502  -31.8152   26.5488 H   0  0  0  0  0  0
  -28.2538  -38.0072   24.7553 H   0  0  0  0  0  0
  -28.1059  -36.2597   24.6299 H   0  0  0  0  0  0
  -27.2294  -37.1393   25.8928 H   0  0  0  0  0  0
  -20.9394  -29.8902   21.6922 H   0  0  0  0  0  0
  -26.0097  -38.2808   24.1476 H   0  0  0  0  0  0
  -28.9011  -18.2225   18.2635 H   0  0  0  0  0  0
  -29.6432  -20.3939   21.8762 H   0  0  0  0  0  0
  -28.0927  -20.3413   17.2831 H   0  0  0  0  0  0
  -29.7353  -25.1735   23.6416 H   0  0  0  0  0  0
  -28.2231  -24.2896   23.6541 H   0  0  0  0  0  0
  -28.4925  -25.5807   22.5096 H   0  0  0  0  0  0
  -30.6707  -23.0342   23.7974 H   0  0  0  0  0  0
  -30.8832  -21.9888   22.4240 H   0  0  0  0  0  0
  -29.3534  -21.9679   23.3560 H   0  0  0  0  0  0
  -30.0990  -17.7746   21.8460 H   0  0  0  0  0  0
  -31.1362  -17.7610   20.4666 H   0  0  0  0  0  0
  -27.4254  -24.4092   19.3221 H   0  0  0  0  0  0
  -29.1099  -24.5842   19.1453 H   0  0  0  0  0  0
  -27.6526  -23.0925   21.3639 H   0  0  0  0  0  0
  -30.4415  -24.1475   21.5444 H   0  0  0  0  0  0
  -28.7366  -15.9820   20.5056 H   0  0  0  0  0  0
  1 25  1  0  0  0
  1 30  2  0  0  0
  1 83  1  0  0  0
  2  3  1  0  0  0
  2 25  1  0  0  0
  2 84  1  0  0  0
  2 85  1  0  0  0
  3  4  1  0  0  0
  3 86  1  0  0  0
  3 87  1  0  0  0
  4  5  1  0  0  0
  4 88  1  0  0  0
  4 89  1  0  0  0
  5  6  1  0  0  0
  5 26  1  0  0  0
  5 90  1  0  0  0
  6 25  1  0  0  0
  6 91  1  0  0  0
  6 92  1  0  0  0
  7  8  2  0  0  0
  7 26  1  0  0  0
  7 29  1  0  0  0
  8  9  1  0  0  0
  8 22  1  0  0  0
  9 10  1  0  0  0
  9 27  2  0  0  0
 10 11  2  0  0  0
 10 15  1  0  0  0
 11 12  1  0  0  0
 11 93  1  0  0  0
 12 13  2  0  0  0
 12 94  1  0  0  0
 13 14  1  0  0  0
 13 31  1  0  0  0
 14 15  2  0  0  0
 14 95  1  0  0  0
 15 96  1  0  0  0
 16 17  2  0  0  0
 16 21  1  0  0  0
 16 31  1  0  0  0
 17 18  1  0  0  0
 17 97  1  0  0  0
 18 19  2  0  0  0
 18 98  1  0  0  0
 19 20  1  0  0  0
 19 24  1  0  0  0
 20 21  2  0  0  0
 20 99  1  0  0  0
 21 23  1  0  0  0
 22 28  1  0  0  0
 22 32  2  0  0  0
 26 27  1  0  0  0
 28100  1  0  0  0
 28101  1  0  0  0
 29102  1  0  0  0
 29103  1  0  0  0
 33 34  1  0  0  0
 33 66  1  0  0  0
 33 70  2  0  0  0
 34 36  1  0  0  0
 34 59  1  0  0  0
 34104  1  0  0  0
 35 44  2  0  0  0
 35 45  1  0  0  0
 35 68  1  0  0  0
 36 56  1  0  0  0
 36105  1  0  0  0
 37 39  1  0  0  0
 37 47  1  0  0  0
 37 66  1  0  0  0
 37106  1  0  0  0
 38 43  2  0  0  0
 38 46  1  0  0  0
 38 47  1  0  0  0
 39 64  1  0  0  0
 39 67  2  0  0  0
 40 52  1  0  0  0
 40 53  2  0  0  0
 40 58  1  0  0  0
 41107  1  0  0  0
 41108  1  0  0  0
 41109  1  0  0  0
 41 48  1  0  0  0
 42 43  1  0  0  0
 42 66  1  0  0  0
 42110  1  0  0  0
 42111  1  0  0  0
 43 44  1  0  0  0
 44112  1  0  0  0
 45 46  2  0  0  0
 45113  1  0  0  0
 46114  1  0  0  0
 47115  1  0  0  0
 47116  1  0  0  0
 48 56  1  0  0  0
 48 65  1  0  0  0
 48117  1  0  0  0
 49 50  1  0  0  0
 49 53  1  0  0  0
 49 64  1  0  0  0
 49118  1  0  0  0
 50 51  1  0  0  0
 50119  1  0  0  0
 50120  1  0  0  0
 51 52  1  0  0  0
 51121  1  0  0  0
 51122  1  0  0  0
 52123  1  0  0  0
 52124  1  0  0  0
 53 54  1  0  0  0
 54 55  2  0  0  0
 54125  1  0  0  0
 55 57  1  0  0  0
 55126  1  0  0  0
 56 69  2  0  0  0
 57 58  2  0  0  0
 57127  1  0  0  0
 58128  1  0  0  0
 59 60  1  0  0  0
 59 61  1  0  0  0
 59 62  1  0  0  0
 60129  1  0  0  0
 60130  1  0  0  0
 60131  1  0  0  0
 61132  1  0  0  0
 61133  1  0  0  0
 61134  1  0  0  0
 62135  1  0  0  0
 62136  1  0  0  0
 62137  1  0  0  0
 63 65  1  0  0  0
 63138  1  0  0  0
 63139  1  0  0  0
 63140  1  0  0  0
 64141  1  0  0  0
 65142  1  0  0  0
 68 79  1  0  0  0
 71 73  2  0  0  0
 71 74  1  0  0  0
 71143  1  0  0  0
 72 74  2  0  0  0
 72 75  1  0  0  0
 72144  1  0  0  0
 73 82  1  0  0  0
 73145  1  0  0  0
 74 78  1  0  0  0
 75 80  1  0  0  0
 75 82  2  0  0  0
 76146  1  0  0  0
 76147  1  0  0  0
 76148  1  0  0  0
 76 81  1  0  0  0
 77 81  1  0  0  0
 77149  1  0  0  0
 77150  1  0  0  0
 77151  1  0  0  0
 78 83  1  0  0  0
 78152  1  0  0  0
 78153  1  0  0  0
 79154  1  0  0  0
 79155  1  0  0  0
 79 80  1  0  0  0
 80 81  1  0  0  0
 80156  1  0  0  0
 81157  1  0  0  0
 83158  1  0  0  0
M  ISO  4   1 100  68 101  79 101  83 100
M  END
> <chiral flag>
0

> <version>
0

> <s_m_source_file>
/data/baiqing/PycharmProjects/Reinvent-master-3.2/result/LINK_invent/BTK/process_docking_weight1_custom_sum_contain_oxygen_bond_distance_aromatic_linkinvent_7_9_3/rearranged_h_0098.sdf

> <i_m_source_file_index>
43

> <r_mmod_Potential_Energy-OPLS-2005>
430.808624267578

> <r_mmod_Stretch_Energy-OPLS-2005>
302.254119873047

> <r_mmod_Bend_Energy-OPLS-2005>
303.052947998047

> <r_mmod_Torsional_Energy-OPLS-2005>
223.075775146484

> <r_mmod_Improper_Torsional_Energy-OPLS-2005>
5.09032869338989

> <r_mmod_Van_der_Waal_Energy-OPLS-2005>
139.798629760742

> <r_mmod_Electrostatic_Energy-OPLS-2005>
-527.925354003906

> <r_mmod_Solvation_Energy-OPLS-2005>
-220.591339111328

> <b_mmod_Minimization_Converged-OPLS-2005>
0

> <r_mmod_RMS_Derivative-OPLS-2005>
7.03440284729004

$$$$
44
                    3D
 Structure written by MMmdl.
158165  0  0  1  0            999 V2000
  -30.6508  -14.5250   20.5649 C   0  0  0  0  0  0
  -30.4378  -12.3456   19.4117 C   0  0  0  0  0  0
  -29.4936  -12.5161   18.2014 C   0  0  0  0  0  0
  -28.0180  -12.3568   18.6199 C   0  0  0  0  0  0
  -27.6593  -13.2007   19.8719 C   0  0  2  0  0  0
  -28.7049  -12.9830   20.9887 C   0  0  0  0  0  0
  -25.2593  -13.8139   20.5682 C   0  0  0  0  0  0
  -24.1838  -13.0427   20.9179 C   0  0  0  0  0  0
  -24.6383  -11.6891   20.8739 C   0  0  0  0  0  0
  -23.9051  -10.4286   21.0413 C   0  0  0  0  0  0
  -24.3608   -9.4199   21.9190 C   0  0  0  0  0  0
  -23.6289   -8.2233   22.0755 C   0  0  0  0  0  0
  -22.4276   -8.0275   21.3540 C   0  0  0  0  0  0
  -21.9914   -9.0249   20.4643 C   0  0  0  0  0  0
  -22.7232  -10.2129   20.3056 C   0  0  0  0  0  0
  -21.6849   -6.0733   22.5279 C   0  0  0  0  0  0
  -21.4007   -6.5636   23.8212 C   0  0  0  0  0  0
  -21.3660   -5.6790   24.9178 C   0  0  0  0  0  0
  -21.6049   -4.3052   24.7231 C   0  0  0  0  0  0
  -21.8814   -3.8146   23.4352 C   0  0  0  0  0  0
  -21.9192   -4.6962   22.3409 C   0  0  0  0  0  0
  -22.7865  -13.5239   21.1852 C   0  0  0  0  0  0
  -22.1659   -4.2144   21.0985 F   0  0  0  0  0  0
  -21.5636   -3.4536   25.7743 F   0  0  0  0  0  0
  -30.0278  -13.3203   20.4348 N   0  0  0  0  0  0
  -26.3013  -12.9287   20.3358 N   0  0  0  0  0  0
  -25.9302  -11.6452   20.5757 N   0  0  0  0  0  0
  -22.0507  -12.8230   22.0402 N   0  0  0  0  0  0
  -25.4351  -15.1860   20.4093 N   0  0  0  0  0  0
  -31.7892  -14.7419   20.1399 O   0  0  0  0  0  0
  -21.6635   -6.8877   21.4240 O   0  0  0  0  0  0
  -22.3560  -14.5563   20.6722 O   0  0  0  0  0  0
  -24.6177  -31.8663   23.2073 C   0  0  0  0  0  0
  -25.9058  -32.4810   23.8390 C   0  0  1  0  0  0
  -27.2331  -27.4002   20.1123 C   0  0  0  0  0  0
  -25.5935  -33.8611   24.2335 N   0  0  0  0  0  0
  -23.4062  -30.4883   21.5485 C   0  0  2  0  0  0
  -24.8531  -28.9426   20.1202 C   0  0  0  0  0  0
  -22.7425  -29.4647   22.4982 C   0  0  0  0  0  0
  -18.0277  -28.1372   22.8495 C   0  0  0  0  0  0
  -24.1490  -36.7294   23.2637 C   0  0  0  0  0  0
  -25.9371  -30.8212   21.3635 C   0  0  0  0  0  0
  -26.0145  -29.4499   20.7170 C   0  0  0  0  0  0
  -27.2088  -28.6884   20.7042 C   0  0  0  0  0  0
  -26.0550  -26.9111   19.5116 C   0  0  0  0  0  0
  -24.8705  -27.6744   19.5129 C   0  0  0  0  0  0
  -23.6175  -29.8161   20.1647 C   0  0  0  0  0  0
  -25.4114  -36.3100   24.0336 C   0  0  1  0  0  0
  -20.5869  -28.3667   23.1324 C   0  0  2  0  0  0
  -20.6772  -26.9403   22.5418 C   0  0  0  0  0  0
  -19.5749  -26.6383   21.5216 C   0  0  0  0  0  0
  -18.1928  -26.7921   22.1623 C   0  0  0  0  0  0
  -19.1527  -28.8832   23.2908 C   0  0  0  0  0  0
  -18.9453  -30.1439   23.8923 C   0  0  0  0  0  0
  -17.6452  -30.6583   24.0567 C   0  0  0  0  0  0
  -25.9040  -34.9466   23.5122 C   0  0  0  0  0  0
  -16.5346  -29.9082   23.6325 C   0  0  0  0  0  0
  -16.7268  -28.6498   23.0355 C   0  0  0  0  0  0
  -26.4476  -31.6589   25.0725 C   0  0  0  0  0  0
  -25.3737  -31.3672   26.1467 C   0  0  0  0  0  0
  -27.0301  -30.3042   24.6081 C   0  0  0  0  0  0
  -27.6065  -32.4290   25.7491 C   0  0  0  0  0  0
  -27.5574  -37.1803   24.8471 C   0  0  0  0  0  0
  -21.4146  -29.3037   22.3731 N   0  0  0  0  0  0
  -26.4293  -37.3788   23.9405 N   0  0  0  0  0  0
  -24.6721  -31.0743   22.0984 N   0  0  0  0  0  0
  -23.4185  -28.8191   23.3032 O   0  0  0  0  0  0
  -28.4028  -26.6646   20.0666 O   0  0  0  0  0  0
  -26.5579  -34.8915   22.4669 O   0  0  0  0  0  0
  -23.5367  -32.1421   23.7467 O   0  0  0  0  0  0
  -28.4794  -19.6214   18.0855 C   0  0  0  0  0  0
  -28.7680  -22.7627   20.2576 C   0  0  0  0  0  0
  -28.1482  -24.1301   19.7908 C   0  0  0  0  0  0
  -29.6156  -17.8800   20.0868 C   0  0  0  0  0  0
  -30.1230  -16.9588   21.2440 C   0  0  0  0  0  0
  -28.1021  -21.5079   19.6026 C   0  0  0  0  0  0
  -29.2435  -19.3716   20.4606 C   0  0  0  0  0  0
  -28.4278  -25.3638   20.7031 C   0  0  0  0  0  0
  -29.8613  -15.5129   21.0464 N   0  0  0  0  0  0
  -28.9767  -20.3124   19.3068 N   0  3  1  0  0  0
  -31.4760  -12.4827   19.1015 H   0  0  0  0  0  0
  -30.3751  -11.3318   19.8092 H   0  0  0  0  0  0
  -29.7407  -11.7920   17.4243 H   0  0  0  0  0  0
  -29.6404  -13.5021   17.7577 H   0  0  0  0  0  0
  -27.8449  -11.3002   18.8267 H   0  0  0  0  0  0
  -27.3594  -12.6129   17.7886 H   0  0  0  0  0  0
  -27.6997  -14.2470   19.5680 H   0  0  0  0  0  0
  -28.6997  -11.9412   21.3130 H   0  0  0  0  0  0
  -28.4608  -13.5631   21.8799 H   0  0  0  0  0  0
  -25.2750   -9.5668   22.4768 H   0  0  0  0  0  0
  -23.9991   -7.4622   22.7474 H   0  0  0  0  0  0
  -21.0846   -8.8768   19.8950 H   0  0  0  0  0  0
  -22.3699  -10.9670   19.6163 H   0  0  0  0  0  0
  -21.1986   -7.6138   23.9719 H   0  0  0  0  0  0
  -21.1490   -6.0518   25.9081 H   0  0  0  0  0  0
  -22.0593   -2.7606   23.2857 H   0  0  0  0  0  0
  -22.4114  -11.9868   22.4755 H   0  0  0  0  0  0
  -21.1127  -13.1252   22.2617 H   0  0  0  0  0  0
  -24.6720  -15.8462   20.5150 H   0  0  0  0  0  0
  -26.2866  -15.6181   20.0746 H   0  0  0  0  0  0
  -26.7134  -32.5509   23.1157 H   0  0  0  0  0  0
  -25.0179  -33.9787   25.0547 H   0  0  0  0  0  0
  -22.6956  -31.3052   21.4064 H   0  0  0  0  0  0
  -23.3758  -35.9621   23.3312 H   0  0  0  0  0  0
  -24.3577  -36.8889   22.2046 H   0  0  0  0  0  0
  -23.7237  -37.6499   23.6643 H   0  0  0  0  0  0
  -26.0481  -31.5809   20.5888 H   0  0  0  0  0  0
  -26.8269  -30.8813   21.9779 H   0  0  0  0  0  0
  -28.1082  -29.0795   21.1589 H   0  0  0  0  0  0
  -26.0529  -25.9469   19.0253 H   0  0  0  0  0  0
  -23.9797  -27.2803   19.0432 H   0  0  0  0  0  0
  -23.7301  -30.5896   19.4045 H   0  0  0  0  0  0
  -22.7407  -29.2385   19.8673 H   0  0  0  0  0  0
  -25.1285  -36.1964   25.0827 H   0  0  0  0  0  0
  -20.9965  -28.3223   24.1442 H   0  0  0  0  0  0
  -20.5688  -26.2265   23.3599 H   0  0  0  0  0  0
  -21.6642  -26.7452   22.1196 H   0  0  0  0  0  0
  -19.6916  -25.6296   21.1233 H   0  0  0  0  0  0
  -19.6695  -27.3207   20.6757 H   0  0  0  0  0  0
  -17.4200  -26.6690   21.4017 H   0  0  0  0  0  0
  -18.0320  -26.0050   22.9006 H   0  0  0  0  0  0
  -19.7928  -30.7249   24.2305 H   0  0  0  0  0  0
  -17.5011  -31.6270   24.5157 H   0  0  0  0  0  0
  -15.5351  -30.2998   23.7629 H   0  0  0  0  0  0
  -15.8665  -28.0823   22.7060 H   0  0  0  0  0  0
  -24.5941  -30.6987   25.7788 H   0  0  0  0  0  0
  -24.8890  -32.2807   26.4923 H   0  0  0  0  0  0
  -25.8093  -30.8838   27.0221 H   0  0  0  0  0  0
  -26.2824  -29.6810   24.1159 H   0  0  0  0  0  0
  -27.4108  -29.7269   25.4516 H   0  0  0  0  0  0
  -27.8644  -30.4372   23.9189 H   0  0  0  0  0  0
  -27.2713  -33.3594   26.2086 H   0  0  0  0  0  0
  -28.3870  -32.6835   25.0310 H   0  0  0  0  0  0
  -28.0734  -31.8392   26.5390 H   0  0  0  0  0  0
  -28.2604  -38.0092   24.7510 H   0  0  0  0  0  0
  -28.1058  -36.2618   24.6313 H   0  0  0  0  0  0
  -27.2280  -37.1458   25.8873 H   0  0  0  0  0  0
  -20.9308  -29.8778   21.6971 H   0  0  0  0  0  0
  -26.0180  -38.2857   24.1428 H   0  0  0  0  0  0
  -28.3256  -20.3180   17.2609 H   0  0  0  0  0  0
  -27.5286  -19.1214   18.2768 H   0  0  0  0  0  0
  -29.1873  -18.8865   17.7068 H   0  0  0  0  0  0
  -28.6820  -22.6703   21.3414 H   0  0  0  0  0  0
  -29.8365  -22.7794   20.0423 H   0  0  0  0  0  0
  -27.0683  -24.0205   19.6897 H   0  0  0  0  0  0
  -28.5199  -24.3461   18.7885 H   0  0  0  0  0  0
  -28.7364  -17.4107   19.6437 H   0  0  0  0  0  0
  -30.3873  -17.8746   19.3166 H   0  0  0  0  0  0
  -29.6141  -17.2382   22.1676 H   0  0  0  0  0  0
  -31.1852  -17.1286   21.4285 H   0  0  0  0  0  0
  -27.6927  -21.8630   18.6557 H   0  0  0  0  0  0
  -27.2259  -21.2000   20.1756 H   0  0  0  0  0  0
  -30.0353  -19.8083   21.0703 H   0  0  0  0  0  0
  -28.3624  -19.3439   21.1030 H   0  0  0  0  0  0
  -29.4333  -25.2606   21.1119 H   0  0  0  0  0  0
  -27.7613  -25.3472   21.5677 H   0  0  0  0  0  0
  -28.9467  -15.1974   21.3341 H   0  0  0  0  0  0
  -29.8748  -20.6817   19.0311 H   0  0  0  0  0  0
  1 25  1  0  0  0
  1 30  2  0  0  0
  1 79  1  0  0  0
  2  3  1  0  0  0
  2 25  1  0  0  0
  2 81  1  0  0  0
  2 82  1  0  0  0
  3  4  1  0  0  0
  3 83  1  0  0  0
  3 84  1  0  0  0
  4  5  1  0  0  0
  4 85  1  0  0  0
  4 86  1  0  0  0
  5  6  1  0  0  0
  5 26  1  0  0  0
  5 87  1  0  0  0
  6 25  1  0  0  0
  6 88  1  0  0  0
  6 89  1  0  0  0
  7  8  2  0  0  0
  7 26  1  0  0  0
  7 29  1  0  0  0
  8  9  1  0  0  0
  8 22  1  0  0  0
  9 10  1  0  0  0
  9 27  2  0  0  0
 10 11  2  0  0  0
 10 15  1  0  0  0
 11 12  1  0  0  0
 11 90  1  0  0  0
 12 13  2  0  0  0
 12 91  1  0  0  0
 13 14  1  0  0  0
 13 31  1  0  0  0
 14 15  2  0  0  0
 14 92  1  0  0  0
 15 93  1  0  0  0
 16 17  2  0  0  0
 16 21  1  0  0  0
 16 31  1  0  0  0
 17 18  1  0  0  0
 17 94  1  0  0  0
 18 19  2  0  0  0
 18 95  1  0  0  0
 19 20  1  0  0  0
 19 24  1  0  0  0
 20 21  2  0  0  0
 20 96  1  0  0  0
 21 23  1  0  0  0
 22 28  1  0  0  0
 22 32  2  0  0  0
 26 27  1  0  0  0
 28 97  1  0  0  0
 28 98  1  0  0  0
 29 99  1  0  0  0
 29100  1  0  0  0
 33 34  1  0  0  0
 33 66  1  0  0  0
 33 70  2  0  0  0
 34 36  1  0  0  0
 34 59  1  0  0  0
 34101  1  0  0  0
 35 44  2  0  0  0
 35 45  1  0  0  0
 35 68  1  0  0  0
 36 56  1  0  0  0
 36102  1  0  0  0
 37 39  1  0  0  0
 37 47  1  0  0  0
 37 66  1  0  0  0
 37103  1  0  0  0
 38 43  2  0  0  0
 38 46  1  0  0  0
 38 47  1  0  0  0
 39 64  1  0  0  0
 39 67  2  0  0  0
 40 52  1  0  0  0
 40 53  2  0  0  0
 40 58  1  0  0  0
 41104  1  0  0  0
 41105  1  0  0  0
 41106  1  0  0  0
 41 48  1  0  0  0
 42 43  1  0  0  0
 42 66  1  0  0  0
 42107  1  0  0  0
 42108  1  0  0  0
 43 44  1  0  0  0
 44109  1  0  0  0
 45 46  2  0  0  0
 45110  1  0  0  0
 46111  1  0  0  0
 47112  1  0  0  0
 47113  1  0  0  0
 48 56  1  0  0  0
 48 65  1  0  0  0
 48114  1  0  0  0
 49 50  1  0  0  0
 49 53  1  0  0  0
 49 64  1  0  0  0
 49115  1  0  0  0
 50 51  1  0  0  0
 50116  1  0  0  0
 50117  1  0  0  0
 51 52  1  0  0  0
 51118  1  0  0  0
 51119  1  0  0  0
 52120  1  0  0  0
 52121  1  0  0  0
 53 54  1  0  0  0
 54 55  2  0  0  0
 54122  1  0  0  0
 55 57  1  0  0  0
 55123  1  0  0  0
 56 69  2  0  0  0
 57 58  2  0  0  0
 57124  1  0  0  0
 58125  1  0  0  0
 59 60  1  0  0  0
 59 61  1  0  0  0
 59 62  1  0  0  0
 60126  1  0  0  0
 60127  1  0  0  0
 60128  1  0  0  0
 61129  1  0  0  0
 61130  1  0  0  0
 61131  1  0  0  0
 62132  1  0  0  0
 62133  1  0  0  0
 62134  1  0  0  0
 63 65  1  0  0  0
 63135  1  0  0  0
 63136  1  0  0  0
 63137  1  0  0  0
 64138  1  0  0  0
 65139  1  0  0  0
 68 78  1  0  0  0
 71140  1  0  0  0
 71141  1  0  0  0
 71142  1  0  0  0
 71 80  1  0  0  0
 72 73  1  0  0  0
 72 76  1  0  0  0
 72143  1  0  0  0
 72144  1  0  0  0
 73 78  1  0  0  0
 73145  1  0  0  0
 73146  1  0  0  0
 74 75  1  0  0  0
 74 77  1  0  0  0
 74147  1  0  0  0
 74148  1  0  0  0
 75 79  1  0  0  0
 75149  1  0  0  0
 75150  1  0  0  0
 76 80  1  0  0  0
 76151  1  0  0  0
 76152  1  0  0  0
 77 80  1  0  0  0
 77153  1  0  0  0
 77154  1  0  0  0
 78155  1  0  0  0
 78156  1  0  0  0
 79157  1  0  0  0
 80158  1  0  0  0
M  CHG  1  80   1
M  ISO  4   1 100  68 101  78 101  79 100
M  END
> <chiral flag>
0

> <version>
0

> <s_m_source_file>
/data/baiqing/PycharmProjects/Reinvent-master-3.2/result/LINK_invent/BTK/process_docking_weight1_custom_sum_contain_oxygen_bond_distance_aromatic_linkinvent_7_9_3/rearranged_h_0098.sdf

> <i_m_source_file_index>
44

> <r_mmod_Potential_Energy-OPLS-2005>
-117.081047058105

> <r_mmod_Stretch_Energy-OPLS-2005>
49.6467971801758

> <r_mmod_Bend_Energy-OPLS-2005>
117.403350830078

> <r_mmod_Torsional_Energy-OPLS-2005>
241.43440246582

> <r_mmod_Improper_Torsional_Energy-OPLS-2005>
3.69282793998718

> <r_mmod_Van_der_Waal_Energy-OPLS-2005>
130.755767822266

> <r_mmod_Electrostatic_Energy-OPLS-2005>
-220.329528808594

> <r_mmod_Solvation_Energy-OPLS-2005>
-457.979461669922

> <b_mmod_Minimization_Converged-OPLS-2005>
0

> <r_mmod_RMS_Derivative-OPLS-2005>
1.37276816368103

$$$$
45
                    3D
 Structure written by MMmdl.
193201  0  0  1  0            999 V2000
  -30.7762  -14.3235   20.7206 C   0  0  0  0  0  0
  -30.4210  -12.2854   19.3772 C   0  0  0  0  0  0
  -29.4830  -12.5319   18.1821 C   0  0  0  0  0  0
  -28.0071  -12.3831   18.5976 C   0  0  0  0  0  0
  -27.6652  -13.1938   19.8741 C   0  0  2  0  0  0
  -28.7012  -12.9191   20.9845 C   0  0  0  0  0  0
  -25.2603  -13.8139   20.5654 C   0  0  0  0  0  0
  -24.1827  -13.0444   20.9164 C   0  0  0  0  0  0
  -24.6336  -11.6896   20.8672 C   0  0  0  0  0  0
  -23.8989  -10.4293   21.0353 C   0  0  0  0  0  0
  -24.3566   -9.4239   21.9151 C   0  0  0  0  0  0
  -23.6293   -8.2251   22.0733 C   0  0  0  0  0  0
  -22.4272   -8.0248   21.3526 C   0  0  0  0  0  0
  -21.9869   -9.0198   20.4623 C   0  0  0  0  0  0
  -22.7146  -10.2113   20.3021 C   0  0  0  0  0  0
  -21.6871   -6.0705   22.5279 C   0  0  0  0  0  0
  -21.4012   -6.5620   23.8201 C   0  0  0  0  0  0
  -21.3660   -5.6775   24.9172 C   0  0  0  0  0  0
  -21.6053   -4.3046   24.7231 C   0  0  0  0  0  0
  -21.8825   -3.8128   23.4358 C   0  0  0  0  0  0
  -21.9196   -4.6928   22.3414 C   0  0  0  0  0  0
  -22.7851  -13.5252   21.1854 C   0  0  0  0  0  0
  -22.1661   -4.2113   21.0990 F   0  0  0  0  0  0
  -21.5651   -3.4535   25.7757 F   0  0  0  0  0  0
  -30.0543  -13.2040   20.4629 N   0  0  0  0  0  0
  -26.3020  -12.9273   20.3312 N   0  0  0  0  0  0
  -25.9266  -11.6441   20.5708 N   0  0  0  0  0  0
  -22.0471  -12.8241   22.0399 N   0  0  0  0  0  0
  -25.4394  -15.1856   20.4069 N   0  0  0  0  0  0
  -31.7368  -14.6943   20.0370 O   0  0  0  0  0  0
  -21.6665   -6.8825   21.4226 O   0  0  0  0  0  0
  -22.3530  -14.5559   20.6708 O   0  0  0  0  0  0
  -24.6083  -31.8718   23.2127 C   0  0  0  0  0  0
  -25.8995  -32.4853   23.8405 C   0  0  1  0  0  0
  -27.2669  -27.4853   20.1103 C   0  0  0  0  0  0
  -25.5879  -33.8647   24.2384 N   0  0  0  0  0  0
  -23.3949  -30.4901   21.5517 C   0  0  2  0  0  0
  -24.8498  -28.9615   20.1151 C   0  0  0  0  0  0
  -22.7382  -29.4669   22.5043 C   0  0  0  0  0  0
  -18.0261  -28.1357   22.8463 C   0  0  0  0  0  0
  -24.1469  -36.7309   23.2643 C   0  0  0  0  0  0
  -25.9138  -30.8574   21.3557 C   0  0  0  0  0  0
  -25.9991  -29.4923   20.7110 C   0  0  0  0  0  0
  -27.2076  -28.7704   20.6994 C   0  0  0  0  0  0
  -26.1060  -26.9692   19.4963 C   0  0  0  0  0  0
  -24.8982  -27.6960   19.4981 C   0  0  0  0  0  0
  -23.6017  -29.8139   20.1672 C   0  0  0  0  0  0
  -25.4087  -36.3139   24.0369 C   0  0  1  0  0  0
  -20.5841  -28.3639   23.1348 C   0  0  2  0  0  0
  -20.6762  -26.9382   22.5436 C   0  0  0  0  0  0
  -19.5757  -26.6369   21.5214 C   0  0  0  0  0  0
  -18.1912  -26.7908   22.1585 C   0  0  0  0  0  0
  -19.1509  -28.8813   23.2894 C   0  0  0  0  0  0
  -18.9443  -30.1407   23.8913 C   0  0  0  0  0  0
  -17.6444  -30.6569   24.0548 C   0  0  0  0  0  0
  -25.8997  -34.9493   23.5171 C   0  0  0  0  0  0
  -16.5338  -29.9075   23.6308 C   0  0  0  0  0  0
  -16.7255  -28.6478   23.0338 C   0  0  0  0  0  0
  -26.4461  -31.6612   25.0701 C   0  0  0  0  0  0
  -25.3771  -31.3700   26.1489 C   0  0  0  0  0  0
  -27.0280  -30.3072   24.6014 C   0  0  0  0  0  0
  -27.6044  -32.4327   25.7455 C   0  0  0  0  0  0
  -27.5586  -37.1800   24.8460 C   0  0  0  0  0  0
  -21.4114  -29.3026   22.3778 N   0  0  0  0  0  0
  -26.4290  -37.3819   23.9423 N   0  0  0  0  0  0
  -24.6558  -31.0871   22.0989 N   0  0  0  0  0  0
  -23.4173  -28.8230   23.3086 O   0  0  0  0  0  0
  -28.4052  -26.7060   20.0896 O   0  0  0  0  0  0
  -26.5536  -34.8922   22.4715 O   0  0  0  0  0  0
  -23.5302  -32.1422   23.7584 O   0  0  0  0  0  0
  -33.7923  -23.5608   20.6884 C   0  0  0  0  0  0
  -34.6330  -22.7135   19.9155 C   0  0  0  0  0  0
  -32.5611  -22.9904   20.8071 C   0  0  0  0  0  0
  -33.8733  -21.6187   19.5766 C   0  0  0  0  0  0
  -34.2375  -20.4025   18.7733 C   0  0  0  0  0  0
  -35.6639  -26.0828   17.1057 C   0  0  0  0  0  0
  -30.6392  -14.5739   23.1414 C   0  0  0  0  0  0
  -37.1051  -21.3936   21.1544 C   0  0  0  0  0  0
  -29.2449  -19.2635   21.9195 C   0  0  0  0  0  0
  -31.3639  -23.5368   21.5263 C   0  0  0  0  0  0
  -35.4859  -24.6687   17.6737 C   0  0  0  0  0  0
  -30.7331  -24.7375   20.7964 C   0  0  0  0  0  0
  -29.8302  -25.5718   21.7183 C   0  0  0  0  0  0
  -36.2479  -24.4449   18.9947 C   0  0  0  0  0  0
  -31.5008  -20.8191   20.0472 C   0  0  0  0  0  0
  -29.8358  -16.4002   21.6367 C   0  0  0  0  0  0
  -31.5430  -19.8410   21.2349 C   0  0  0  0  0  0
  -30.9483  -17.4689   21.5423 C   0  0  0  0  0  0
  -29.3747  -26.9122   21.1219 C   0  0  0  0  0  0
  -36.0839  -23.0141   19.5598 C   0  0  1  0  0  0
  -32.6006  -21.7771   20.1316 N   0  0  0  0  0  0
  -30.3493  -15.0357   21.7824 N   0  0  0  0  0  0
  -36.9579  -22.8021   20.7319 N   0  3  0  0  0  0
  -30.4563  -18.8288   21.1801 N   0  3  1  0  0  0
  -31.4631  -12.4000   19.0722 H   0  0  0  0  0  0
  -30.3296  -11.2557   19.7264 H   0  0  0  0  0  0
  -29.7159  -11.8370   17.3734 H   0  0  0  0  0  0
  -29.6558  -13.5323   17.7843 H   0  0  0  0  0  0
  -27.8125  -11.3217   18.7641 H   0  0  0  0  0  0
  -27.3539  -12.6833   17.7780 H   0  0  0  0  0  0
  -27.7288  -14.2497   19.6133 H   0  0  0  0  0  0
  -28.6581  -11.8753   21.2974 H   0  0  0  0  0  0
  -28.4346  -13.4936   21.8725 H   0  0  0  0  0  0
  -25.2704   -9.5796   22.4718 H   0  0  0  0  0  0
  -24.0034   -7.4669   22.7456 H   0  0  0  0  0  0
  -21.0800   -8.8640   19.8958 H   0  0  0  0  0  0
  -22.3513  -10.9618   19.6133 H   0  0  0  0  0  0
  -21.1984   -7.6122   23.9695 H   0  0  0  0  0  0
  -21.1491   -6.0514   25.9070 H   0  0  0  0  0  0
  -22.0611   -2.7586   23.2884 H   0  0  0  0  0  0
  -22.4073  -11.9917   22.4816 H   0  0  0  0  0  0
  -21.1073  -13.1246   22.2553 H   0  0  0  0  0  0
  -24.6881  -15.8561   20.5311 H   0  0  0  0  0  0
  -26.2993  -15.6134   20.0876 H   0  0  0  0  0  0
  -26.7080  -32.5619   23.1189 H   0  0  0  0  0  0
  -25.0124  -33.9816   25.0597 H   0  0  0  0  0  0
  -22.6792  -31.3017   21.4104 H   0  0  0  0  0  0
  -23.3758  -35.9612   23.3312 H   0  0  0  0  0  0
  -24.3574  -36.8911   22.2058 H   0  0  0  0  0  0
  -23.7165  -37.6495   23.6627 H   0  0  0  0  0  0
  -26.0109  -31.6228   20.5842 H   0  0  0  0  0  0
  -26.8051  -30.9249   21.9670 H   0  0  0  0  0  0
  -28.0829  -29.2252   21.1397 H   0  0  0  0  0  0
  -26.1440  -25.9992   19.0212 H   0  0  0  0  0  0
  -24.0202  -27.2800   19.0231 H   0  0  0  0  0  0
  -23.6913  -30.5817   19.3978 H   0  0  0  0  0  0
  -22.7319  -29.2182   19.8841 H   0  0  0  0  0  0
  -25.1266  -36.2030   25.0867 H   0  0  0  0  0  0
  -20.9892  -28.3197   24.1486 H   0  0  0  0  0  0
  -20.5682  -26.2237   23.3616 H   0  0  0  0  0  0
  -21.6638  -26.7448   22.1222 H   0  0  0  0  0  0
  -19.6919  -25.6284   21.1236 H   0  0  0  0  0  0
  -19.6736  -27.3197   20.6762 H   0  0  0  0  0  0
  -17.4214  -26.6701   21.3947 H   0  0  0  0  0  0
  -18.0241  -26.0047   22.8965 H   0  0  0  0  0  0
  -19.7922  -30.7202   24.2311 H   0  0  0  0  0  0
  -17.5010  -31.6269   24.5110 H   0  0  0  0  0  0
  -15.5336  -30.2988   23.7627 H   0  0  0  0  0  0
  -15.8641  -28.0803   22.7085 H   0  0  0  0  0  0
  -24.5925  -30.7061   25.7852 H   0  0  0  0  0  0
  -24.8979  -32.2853   26.4962 H   0  0  0  0  0  0
  -25.8160  -30.8856   27.0223 H   0  0  0  0  0  0
  -26.2787  -29.6843   24.1117 H   0  0  0  0  0  0
  -27.4149  -29.7297   25.4415 H   0  0  0  0  0  0
  -27.8573  -30.4432   23.9074 H   0  0  0  0  0  0
  -27.2635  -33.3584   26.2099 H   0  0  0  0  0  0
  -28.3806  -32.6977   25.0266 H   0  0  0  0  0  0
  -28.0759  -31.8418   26.5313 H   0  0  0  0  0  0
  -28.2602  -38.0102   24.7526 H   0  0  0  0  0  0
  -28.1092  -36.2630   24.6273 H   0  0  0  0  0  0
  -27.2306  -37.1459   25.8866 H   0  0  0  0  0  0
  -20.9259  -29.8721   21.6987 H   0  0  0  0  0  0
  -26.0203  -38.2901   24.1450 H   0  0  0  0  0  0
  -34.0584  -24.5157   21.1193 H   0  0  0  0  0  0
  -33.5231  -20.2193   17.9706 H   0  0  0  0  0  0
  -34.2791  -19.5123   19.4024 H   0  0  0  0  0  0
  -35.2117  -20.5057   18.2983 H   0  0  0  0  0  0
  -35.1595  -26.1764   16.1437 H   0  0  0  0  0  0
  -36.7170  -26.3233   16.9516 H   0  0  0  0  0  0
  -35.2411  -26.8344   17.7739 H   0  0  0  0  0  0
  -29.8146  -14.7908   23.8192 H   0  0  0  0  0  0
  -31.5370  -15.0602   23.5225 H   0  0  0  0  0  0
  -30.8074  -13.4951   23.1795 H   0  0  0  0  0  0
  -37.8011  -21.3239   21.9912 H   0  0  0  0  0  0
  -37.4963  -20.7799   20.3414 H   0  0  0  0  0  0
  -36.1519  -20.9724   21.4773 H   0  0  0  0  0  0
  -29.0044  -20.3083   21.7167 H   0  0  0  0  0  0
  -29.3759  -19.1484   22.9961 H   0  0  0  0  0  0
  -28.3736  -18.6807   21.6182 H   0  0  0  0  0  0
  -31.6920  -23.8526   22.5182 H   0  0  0  0  0  0
  -30.6103  -22.7736   21.7163 H   0  0  0  0  0  0
  -35.8267  -23.9426   16.9339 H   0  0  0  0  0  0
  -34.4215  -24.4763   17.8183 H   0  0  0  0  0  0
  -30.1845  -24.4009   19.9154 H   0  0  0  0  0  0
  -31.5307  -25.3850   20.4276 H   0  0  0  0  0  0
  -30.3853  -25.7958   22.6295 H   0  0  0  0  0  0
  -28.9637  -24.9865   22.0284 H   0  0  0  0  0  0
  -35.9205  -25.1780   19.7331 H   0  0  0  0  0  0
  -37.3061  -24.6473   18.8243 H   0  0  0  0  0  0
  -30.5544  -21.3578   20.0135 H   0  0  0  0  0  0
  -31.5599  -20.2809   19.1019 H   0  0  0  0  0  0
  -29.1915  -16.4413   20.7580 H   0  0  0  0  0  0
  -29.1884  -16.6084   22.4894 H   0  0  0  0  0  0
  -31.5042  -20.3842   22.1808 H   0  0  0  0  0  0
  -32.5168  -19.3498   21.2263 H   0  0  0  0  0  0
  -31.6922  -17.1749   20.8002 H   0  0  0  0  0  0
  -31.4698  -17.5181   22.4989 H   0  0  0  0  0  0
  -30.2257  -27.4721   20.7326 H   0  0  0  0  0  0
  -28.9843  -27.4828   21.9646 H   0  0  0  0  0  0
  -36.4123  -22.3246   18.7816 H   0  0  0  0  0  0
  -37.8742  -23.1537   20.5090 H   0  0  0  0  0  0
  -36.6026  -23.3390   21.5056 H   0  0  0  0  0  0
  -30.1835  -18.7729   20.2090 H   0  0  0  0  0  0
  1 25  1  0  0  0
  1 30  2  0  0  0
  1 92  1  0  0  0
  2  3  1  0  0  0
  2 25  1  0  0  0
  2 95  1  0  0  0
  2 96  1  0  0  0
  3  4  1  0  0  0
  3 97  1  0  0  0
  3 98  1  0  0  0
  4  5  1  0  0  0
  4 99  1  0  0  0
  4100  1  0  0  0
  5  6  1  0  0  0
  5 26  1  0  0  0
  5101  1  0  0  0
  6 25  1  0  0  0
  6102  1  0  0  0
  6103  1  0  0  0
  7  8  2  0  0  0
  7 26  1  0  0  0
  7 29  1  0  0  0
  8  9  1  0  0  0
  8 22  1  0  0  0
  9 10  1  0  0  0
  9 27  2  0  0  0
 10 11  2  0  0  0
 10 15  1  0  0  0
 11 12  1  0  0  0
 11104  1  0  0  0
 12 13  2  0  0  0
 12105  1  0  0  0
 13 14  1  0  0  0
 13 31  1  0  0  0
 14 15  2  0  0  0
 14106  1  0  0  0
 15107  1  0  0  0
 16 17  2  0  0  0
 16 21  1  0  0  0
 16 31  1  0  0  0
 17 18  1  0  0  0
 17108  1  0  0  0
 18 19  2  0  0  0
 18109  1  0  0  0
 19 20  1  0  0  0
 19 24  1  0  0  0
 20 21  2  0  0  0
 20110  1  0  0  0
 21 23  1  0  0  0
 22 28  1  0  0  0
 22 32  2  0  0  0
 26 27  1  0  0  0
 28111  1  0  0  0
 28112  1  0  0  0
 29113  1  0  0  0
 29114  1  0  0  0
 33 34  1  0  0  0
 33 66  1  0  0  0
 33 70  2  0  0  0
 34 36  1  0  0  0
 34 59  1  0  0  0
 34115  1  0  0  0
 35 44  2  0  0  0
 35 45  1  0  0  0
 35 68  1  0  0  0
 36 56  1  0  0  0
 36116  1  0  0  0
 37 39  1  0  0  0
 37 47  1  0  0  0
 37 66  1  0  0  0
 37117  1  0  0  0
 38 43  2  0  0  0
 38 46  1  0  0  0
 38 47  1  0  0  0
 39 64  1  0  0  0
 39 67  2  0  0  0
 40 52  1  0  0  0
 40 53  2  0  0  0
 40 58  1  0  0  0
 41118  1  0  0  0
 41119  1  0  0  0
 41120  1  0  0  0
 41 48  1  0  0  0
 42 43  1  0  0  0
 42 66  1  0  0  0
 42121  1  0  0  0
 42122  1  0  0  0
 43 44  1  0  0  0
 44123  1  0  0  0
 45 46  2  0  0  0
 45124  1  0  0  0
 46125  1  0  0  0
 47126  1  0  0  0
 47127  1  0  0  0
 48 56  1  0  0  0
 48 65  1  0  0  0
 48128  1  0  0  0
 49 50  1  0  0  0
 49 53  1  0  0  0
 49 64  1  0  0  0
 49129  1  0  0  0
 50 51  1  0  0  0
 50130  1  0  0  0
 50131  1  0  0  0
 51 52  1  0  0  0
 51132  1  0  0  0
 51133  1  0  0  0
 52134  1  0  0  0
 52135  1  0  0  0
 53 54  1  0  0  0
 54 55  2  0  0  0
 54136  1  0  0  0
 55 57  1  0  0  0
 55137  1  0  0  0
 56 69  2  0  0  0
 57 58  2  0  0  0
 57138  1  0  0  0
 58139  1  0  0  0
 59 60  1  0  0  0
 59 61  1  0  0  0
 59 62  1  0  0  0
 60140  1  0  0  0
 60141  1  0  0  0
 60142  1  0  0  0
 61143  1  0  0  0
 61144  1  0  0  0
 61145  1  0  0  0
 62146  1  0  0  0
 62147  1  0  0  0
 62148  1  0  0  0
 63 65  1  0  0  0
 63149  1  0  0  0
 63150  1  0  0  0
 63151  1  0  0  0
 64152  1  0  0  0
 65153  1  0  0  0
 68 89  1  0  0  0
 71 72  1  0  0  0
 71 73  2  0  0  0
 71154  1  0  0  0
 72 74  2  0  0  0
 72 90  1  0  0  0
 73 80  1  0  0  0
 73 91  1  0  0  0
 74 75  1  0  0  0
 74 91  1  0  0  0
 75155  1  0  0  0
 75156  1  0  0  0
 75157  1  0  0  0
 76 81  1  0  0  0
 76158  1  0  0  0
 76159  1  0  0  0
 76160  1  0  0  0
 77 92  1  0  0  0
 77161  1  0  0  0
 77162  1  0  0  0
 77163  1  0  0  0
 78 93  1  0  0  0
 78164  1  0  0  0
 78165  1  0  0  0
 78166  1  0  0  0
 79167  1  0  0  0
 79168  1  0  0  0
 79169  1  0  0  0
 79 94  1  0  0  0
 80 82  1  0  0  0
 80170  1  0  0  0
 80171  1  0  0  0
 81 84  1  0  0  0
 81172  1  0  0  0
 81173  1  0  0  0
 82 83  1  0  0  0
 82174  1  0  0  0
 82175  1  0  0  0
 83 89  1  0  0  0
 83176  1  0  0  0
 83177  1  0  0  0
 84178  1  0  0  0
 84179  1  0  0  0
 84 90  1  0  0  0
 85 87  1  0  0  0
 85 91  1  0  0  0
 85180  1  0  0  0
 85181  1  0  0  0
 86 88  1  0  0  0
 86 92  1  0  0  0
 86182  1  0  0  0
 86183  1  0  0  0
 87 94  1  0  0  0
 87184  1  0  0  0
 87185  1  0  0  0
 88 94  1  0  0  0
 88186  1  0  0  0
 88187  1  0  0  0
 89188  1  0  0  0
 89189  1  0  0  0
 90 93  1  0  0  0
 90190  1  0  0  0
 93191  1  0  0  0
 93192  1  0  0  0
 94193  1  0  0  0
M  CHG  2  93   1  94   1
M  ISO  4   1 100  68 101  89 101  92 100
M  END
> <chiral flag>
0

> <version>
0

> <s_m_source_file>
/data/baiqing/PycharmProjects/Reinvent-master-3.2/result/LINK_invent/BTK/process_docking_weight1_custom_sum_contain_oxygen_bond_distance_aromatic_linkinvent_7_9_3/rearranged_h_0098.sdf

> <i_m_source_file_index>
45

> <r_mmod_Potential_Energy-OPLS-2005>
-245.263931274414

> <r_mmod_Stretch_Energy-OPLS-2005>
35.3776741027832

> <r_mmod_Bend_Energy-OPLS-2005>
104.062683105469

> <r_mmod_Torsional_Energy-OPLS-2005>
315.314147949219

> <r_mmod_Improper_Torsional_Energy-OPLS-2005>
2.11935615539551

> <r_mmod_Van_der_Waal_Energy-OPLS-2005>
131.514343261719

> <r_mmod_Electrostatic_Energy-OPLS-2005>
-1.22963070869446

> <r_mmod_Solvation_Energy-OPLS-2005>
-839.711853027344

> <b_mmod_Minimization_Converged-OPLS-2005>
0

> <r_mmod_RMS_Derivative-OPLS-2005>
3.12991857528687

$$$$
46
                    3D
 Structure written by MMmdl.
171179  0  0  1  0            999 V2000
  -30.6195  -14.6839   20.4720 C   0  0  0  0  0  0
  -30.4430  -12.4192   19.4493 C   0  0  0  0  0  0
  -29.5069  -12.4908   18.2230 C   0  0  0  0  0  0
  -28.0326  -12.3269   18.6452 C   0  0  0  0  0  0
  -27.6501  -13.2185   19.8559 C   0  0  2  0  0  0
  -28.7015  -13.1165   20.9838 C   0  0  0  0  0  0
  -25.2576  -13.8178   20.5721 C   0  0  0  0  0  0
  -24.1848  -13.0447   20.9229 C   0  0  0  0  0  0
  -24.6416  -11.6916   20.8773 C   0  0  0  0  0  0
  -23.9084  -10.4300   21.0427 C   0  0  0  0  0  0
  -24.3623   -9.4215   21.9204 C   0  0  0  0  0  0
  -23.6299   -8.2250   22.0765 C   0  0  0  0  0  0
  -22.4281   -8.0287   21.3549 C   0  0  0  0  0  0
  -21.9924   -9.0271   20.4659 C   0  0  0  0  0  0
  -22.7257  -10.2152   20.3078 C   0  0  0  0  0  0
  -21.6852   -6.0747   22.5280 C   0  0  0  0  0  0
  -21.4015   -6.5649   23.8216 C   0  0  0  0  0  0
  -21.3649   -5.6799   24.9176 C   0  0  0  0  0  0
  -21.6046   -4.3059   24.7230 C   0  0  0  0  0  0
  -21.8815   -3.8157   23.4346 C   0  0  0  0  0  0
  -21.9199   -4.6976   22.3406 C   0  0  0  0  0  0
  -22.7872  -13.5254   21.1877 C   0  0  0  0  0  0
  -22.1667   -4.2165   21.0983 F   0  0  0  0  0  0
  -21.5626   -3.4537   25.7738 F   0  0  0  0  0  0
  -30.0042  -13.4606   20.3987 N   0  0  0  0  0  0
  -26.2994  -12.9361   20.3337 N   0  0  0  0  0  0
  -25.9345  -11.6512   20.5785 N   0  0  0  0  0  0
  -22.0496  -12.8239   22.0405 N   0  0  0  0  0  0
  -25.4280  -15.1896   20.4124 N   0  0  0  0  0  0
  -31.8043  -14.8249   20.1621 O   0  0  0  0  0  0
  -21.6640   -6.8888   21.4239 O   0  0  0  0  0  0
  -22.3574  -14.5562   20.6720 O   0  0  0  0  0  0
  -24.6284  -31.8577   23.2017 C   0  0  0  0  0  0
  -25.9113  -32.4766   23.8361 C   0  0  1  0  0  0
  -27.2280  -27.2879   20.1277 C   0  0  0  0  0  0
  -25.5909  -33.8569   24.2274 N   0  0  0  0  0  0
  -23.4262  -30.4768   21.5479 C   0  0  2  0  0  0
  -24.8758  -28.9253   20.1184 C   0  0  0  0  0  0
  -22.7499  -29.4587   22.4969 C   0  0  0  0  0  0
  -18.0278  -28.1377   22.8486 C   0  0  0  0  0  0
  -24.1470  -36.7271   23.2649 C   0  0  0  0  0  0
  -25.9726  -30.7750   21.3832 C   0  0  0  0  0  0
  -26.0479  -29.4007   20.7233 C   0  0  0  0  0  0
  -27.2291  -28.5956   20.7138 C   0  0  0  0  0  0
  -26.0354  -26.8722   19.4962 C   0  0  0  0  0  0
  -24.8726  -27.6663   19.4984 C   0  0  0  0  0  0
  -23.6450  -29.8092   20.1654 C   0  0  0  0  0  0
  -25.4105  -36.3072   24.0334 C   0  0  1  0  0  0
  -20.5882  -28.3684   23.1278 C   0  0  2  0  0  0
  -20.6763  -26.9402   22.5413 C   0  0  0  0  0  0
  -19.5746  -26.6377   21.5202 C   0  0  0  0  0  0
  -18.1924  -26.7918   22.1609 C   0  0  0  0  0  0
  -19.1530  -28.8849   23.2866 C   0  0  0  0  0  0
  -18.9455  -30.1452   23.8880 C   0  0  0  0  0  0
  -17.6455  -30.6592   24.0547 C   0  0  0  0  0  0
  -25.9048  -34.9445   23.5107 C   0  0  0  0  0  0
  -16.5344  -29.9090   23.6336 C   0  0  0  0  0  0
  -16.7260  -28.6501   23.0363 C   0  0  0  0  0  0
  -26.4484  -31.6612   25.0763 C   0  0  0  0  0  0
  -25.3698  -31.3741   26.1484 C   0  0  0  0  0  0
  -27.0370  -30.3038   24.6277 C   0  0  0  0  0  0
  -27.6045  -32.4390   25.7508 C   0  0  0  0  0  0
  -27.5581  -37.1764   24.8463 C   0  0  0  0  0  0
  -21.4208  -29.3020   22.3685 N   0  0  0  0  0  0
  -26.4283  -37.3769   23.9430 N   0  0  0  0  0  0
  -24.6952  -31.0523   22.1004 N   0  0  0  0  0  0
  -23.4199  -28.8139   23.3079 O   0  0  0  0  0  0
  -28.3318  -26.4135   20.1397 O   0  0  0  0  0  0
  -26.5622  -34.8911   22.4679 O   0  0  0  0  0  0
  -23.5430  -32.1438   23.7278 O   0  0  0  0  0  0
  -27.7763  -22.1331   21.6255 C   0  0  0  0  0  0
  -28.1336  -19.7085   21.6832 C   0  0  0  0  0  0
  -29.2839  -21.0742   20.0390 C   0  0  0  0  0  0
  -27.5072  -20.8661   22.1936 C   0  0  0  0  0  0
  -28.6719  -22.2924   20.5437 C   0  0  0  0  0  0
  -29.0128  -19.7529   20.5837 C   0  0  0  0  0  0
  -24.9222  -19.1640   21.9332 C   0  0  0  0  0  0
  -26.5002  -21.8597   24.3345 C   0  0  0  0  0  0
  -28.7170  -23.7491   18.4292 C   0  0  0  0  0  0
  -25.0622  -20.4518   22.7686 C   0  0  0  0  0  0
  -30.1338  -17.2389   20.9177 C   0  0  0  0  0  0
  -28.1079  -25.0017   20.5850 C   0  0  0  0  0  0
  -26.4834  -20.7030   23.3185 C   0  0  1  0  0  0
  -28.9192  -23.7541   19.9511 C   0  0  1  0  0  0
  -29.4441  -18.3439   19.9731 C   0  0  2  0  0  0
  -29.8110  -15.7713   20.6994 N   0  0  0  0  0  0
  -30.2045  -18.4970   18.7247 N   0  3  0  0  0  0
  -31.4802  -12.5536   19.1361 H   0  0  0  0  0  0
  -30.3959  -11.4344   19.9175 H   0  0  0  0  0  0
  -29.7721  -11.7158   17.5017 H   0  0  0  0  0  0
  -29.6395  -13.4431   17.7103 H   0  0  0  0  0  0
  -27.8800  -11.2784   18.9011 H   0  0  0  0  0  0
  -27.3708  -12.5316   17.8033 H   0  0  0  0  0  0
  -27.6555  -14.2449   19.4893 H   0  0  0  0  0  0
  -28.7289  -12.1091   21.4026 H   0  0  0  0  0  0
  -28.4519  -13.7808   21.8124 H   0  0  0  0  0  0
  -25.2760   -9.5685   22.4791 H   0  0  0  0  0  0
  -24.0008   -7.4634   22.7478 H   0  0  0  0  0  0
  -21.0857   -8.8803   19.8956 H   0  0  0  0  0  0
  -22.3720  -10.9704   19.6199 H   0  0  0  0  0  0
  -21.1996   -7.6155   23.9725 H   0  0  0  0  0  0
  -21.1474   -6.0526   25.9081 H   0  0  0  0  0  0
  -22.0601   -2.7620   23.2844 H   0  0  0  0  0  0
  -22.4087  -11.9880   22.4776 H   0  0  0  0  0  0
  -21.1125  -13.1291   22.2612 H   0  0  0  0  0  0
  -24.6560  -15.8372   20.5198 H   0  0  0  0  0  0
  -26.2604  -15.6261   20.0396 H   0  0  0  0  0  0
  -26.7181  -32.5422   23.1104 H   0  0  0  0  0  0
  -25.0031  -33.9714   25.0405 H   0  0  0  0  0  0
  -22.7205  -31.2964   21.3997 H   0  0  0  0  0  0
  -23.3756  -35.9574   23.3316 H   0  0  0  0  0  0
  -24.3553  -36.8908   22.2059 H   0  0  0  0  0  0
  -23.7205  -37.6455   23.6677 H   0  0  0  0  0  0
  -26.1131  -31.5364   20.6154 H   0  0  0  0  0  0
  -26.8489  -30.8211   22.0188 H   0  0  0  0  0  0
  -28.1318  -28.9566   21.1882 H   0  0  0  0  0  0
  -25.9922  -25.9096   19.0068 H   0  0  0  0  0  0
  -23.9751  -27.2912   19.0262 H   0  0  0  0  0  0
  -23.7668  -30.5846   19.4080 H   0  0  0  0  0  0
  -22.7649  -29.2393   19.8637 H   0  0  0  0  0  0
  -25.1269  -36.1925   25.0824 H   0  0  0  0  0  0
  -20.9939  -28.3246   24.1406 H   0  0  0  0  0  0
  -20.5650  -26.2282   23.3611 H   0  0  0  0  0  0
  -21.6632  -26.7422   22.1210 H   0  0  0  0  0  0
  -19.6895  -25.6284   21.1246 H   0  0  0  0  0  0
  -19.6691  -27.3164   20.6709 H   0  0  0  0  0  0
  -17.4195  -26.6663   21.4011 H   0  0  0  0  0  0
  -18.0318  -26.0062   22.9001 H   0  0  0  0  0  0
  -19.7929  -30.7253   24.2277 H   0  0  0  0  0  0
  -17.5014  -31.6273   24.5132 H   0  0  0  0  0  0
  -15.5343  -30.2972   23.7702 H   0  0  0  0  0  0
  -15.8653  -28.0807   22.7117 H   0  0  0  0  0  0
  -24.5852  -30.7123   25.7792 H   0  0  0  0  0  0
  -24.8894  -32.2886   26.4950 H   0  0  0  0  0  0
  -25.8011  -30.8870   27.0244 H   0  0  0  0  0  0
  -26.2977  -29.6731   24.1320 H   0  0  0  0  0  0
  -27.4078  -29.7346   25.4818 H   0  0  0  0  0  0
  -27.8830  -30.4340   23.9540 H   0  0  0  0  0  0
  -27.2671  -33.3721   26.2036 H   0  0  0  0  0  0
  -28.3843  -32.6933   25.0316 H   0  0  0  0  0  0
  -28.0724  -31.8572   26.5451 H   0  0  0  0  0  0
  -28.2565  -38.0094   24.7583 H   0  0  0  0  0  0
  -28.1119  -36.2628   24.6216 H   0  0  0  0  0  0
  -27.2302  -37.1346   25.8866 H   0  0  0  0  0  0
  -20.9430  -29.8750   21.6875 H   0  0  0  0  0  0
  -26.0161  -38.2834   24.1496 H   0  0  0  0  0  0
  -27.2624  -22.9942   22.0200 H   0  0  0  0  0  0
  -27.8693  -18.7482   22.1070 H   0  0  0  0  0  0
  -29.9480  -21.1593   19.1916 H   0  0  0  0  0  0
  -23.8763  -18.9568   21.7079 H   0  0  0  0  0  0
  -25.3172  -18.2975   22.4658 H   0  0  0  0  0  0
  -25.4513  -19.2369   20.9820 H   0  0  0  0  0  0
  -27.5002  -22.0071   24.7437 H   0  0  0  0  0  0
  -25.8368  -21.6472   25.1738 H   0  0  0  0  0  0
  -26.1686  -22.8049   23.9060 H   0  0  0  0  0  0
  -29.3563  -23.0183   17.9334 H   0  0  0  0  0  0
  -28.9655  -24.7227   18.0066 H   0  0  0  0  0  0
  -27.6823  -23.5237   18.1668 H   0  0  0  0  0  0
  -24.3628  -20.3865   23.6034 H   0  0  0  0  0  0
  -24.7405  -21.3087   22.1754 H   0  0  0  0  0  0
  -29.8141  -17.4357   21.9405 H   0  0  0  0  0  0
  -31.2133  -17.3918   20.9388 H   0  0  0  0  0  0
  -28.3300  -25.0166   21.6532 H   0  0  0  0  0  0
  -27.0496  -24.7524   20.5394 H   0  0  0  0  0  0
  -26.7750  -19.8152   23.8837 H   0  0  0  0  0  0
  -29.9768  -23.9575   20.1268 H   0  0  0  0  0  0
  -28.4926  -17.9037   19.6652 H   0  0  0  0  0  0
  -28.8480  -15.5226   20.8675 H   0  0  0  0  0  0
  -31.0971  -18.9192   18.9013 H   0  0  0  0  0  0
  -29.6956  -19.0675   18.0741 H   0  0  0  0  0  0
  -30.3513  -17.5979   18.3038 H   0  0  0  0  0  0
  1 25  1  0  0  0
  1 30  2  0  0  0
  1 86  1  0  0  0
  2  3  1  0  0  0
  2 25  1  0  0  0
  2 88  1  0  0  0
  2 89  1  0  0  0
  3  4  1  0  0  0
  3 90  1  0  0  0
  3 91  1  0  0  0
  4  5  1  0  0  0
  4 92  1  0  0  0
  4 93  1  0  0  0
  5  6  1  0  0  0
  5 26  1  0  0  0
  5 94  1  0  0  0
  6 25  1  0  0  0
  6 95  1  0  0  0
  6 96  1  0  0  0
  7  8  2  0  0  0
  7 26  1  0  0  0
  7 29  1  0  0  0
  8  9  1  0  0  0
  8 22  1  0  0  0
  9 10  1  0  0  0
  9 27  2  0  0  0
 10 11  2  0  0  0
 10 15  1  0  0  0
 11 12  1  0  0  0
 11 97  1  0  0  0
 12 13  2  0  0  0
 12 98  1  0  0  0
 13 14  1  0  0  0
 13 31  1  0  0  0
 14 15  2  0  0  0
 14 99  1  0  0  0
 15100  1  0  0  0
 16 17  2  0  0  0
 16 21  1  0  0  0
 16 31  1  0  0  0
 17 18  1  0  0  0
 17101  1  0  0  0
 18 19  2  0  0  0
 18102  1  0  0  0
 19 20  1  0  0  0
 19 24  1  0  0  0
 20 21  2  0  0  0
 20103  1  0  0  0
 21 23  1  0  0  0
 22 28  1  0  0  0
 22 32  2  0  0  0
 26 27  1  0  0  0
 28104  1  0  0  0
 28105  1  0  0  0
 29106  1  0  0  0
 29107  1  0  0  0
 33 34  1  0  0  0
 33 66  1  0  0  0
 33 70  2  0  0  0
 34 36  1  0  0  0
 34 59  1  0  0  0
 34108  1  0  0  0
 35 44  2  0  0  0
 35 45  1  0  0  0
 35 68  1  0  0  0
 36 56  1  0  0  0
 36109  1  0  0  0
 37 39  1  0  0  0
 37 47  1  0  0  0
 37 66  1  0  0  0
 37110  1  0  0  0
 38 43  2  0  0  0
 38 46  1  0  0  0
 38 47  1  0  0  0
 39 64  1  0  0  0
 39 67  2  0  0  0
 40 52  1  0  0  0
 40 53  2  0  0  0
 40 58  1  0  0  0
 41111  1  0  0  0
 41112  1  0  0  0
 41113  1  0  0  0
 41 48  1  0  0  0
 42 43  1  0  0  0
 42 66  1  0  0  0
 42114  1  0  0  0
 42115  1  0  0  0
 43 44  1  0  0  0
 44116  1  0  0  0
 45 46  2  0  0  0
 45117  1  0  0  0
 46118  1  0  0  0
 47119  1  0  0  0
 47120  1  0  0  0
 48 56  1  0  0  0
 48 65  1  0  0  0
 48121  1  0  0  0
 49 50  1  0  0  0
 49 53  1  0  0  0
 49 64  1  0  0  0
 49122  1  0  0  0
 50 51  1  0  0  0
 50123  1  0  0  0
 50124  1  0  0  0
 51 52  1  0  0  0
 51125  1  0  0  0
 51126  1  0  0  0
 52127  1  0  0  0
 52128  1  0  0  0
 53 54  1  0  0  0
 54 55  2  0  0  0
 54129  1  0  0  0
 55 57  1  0  0  0
 55130  1  0  0  0
 56 69  2  0  0  0
 57 58  2  0  0  0
 57131  1  0  0  0
 58132  1  0  0  0
 59 60  1  0  0  0
 59 61  1  0  0  0
 59 62  1  0  0  0
 60133  1  0  0  0
 60134  1  0  0  0
 60135  1  0  0  0
 61136  1  0  0  0
 61137  1  0  0  0
 61138  1  0  0  0
 62139  1  0  0  0
 62140  1  0  0  0
 62141  1  0  0  0
 63 65  1  0  0  0
 63142  1  0  0  0
 63143  1  0  0  0
 63144  1  0  0  0
 64145  1  0  0  0
 65146  1  0  0  0
 68 82  1  0  0  0
 71 74  2  0  0  0
 71 75  1  0  0  0
 71147  1  0  0  0
 72 74  1  0  0  0
 72 76  2  0  0  0
 72148  1  0  0  0
 73 75  2  0  0  0
 73 76  1  0  0  0
 73149  1  0  0  0
 74 83  1  0  0  0
 75 84  1  0  0  0
 76 85  1  0  0  0
 77 80  1  0  0  0
 77150  1  0  0  0
 77151  1  0  0  0
 77152  1  0  0  0
 78153  1  0  0  0
 78154  1  0  0  0
 78155  1  0  0  0
 78 83  1  0  0  0
 79156  1  0  0  0
 79157  1  0  0  0
 79158  1  0  0  0
 79 84  1  0  0  0
 80 83  1  0  0  0
 80159  1  0  0  0
 80160  1  0  0  0
 81 85  1  0  0  0
 81 86  1  0  0  0
 81161  1  0  0  0
 81162  1  0  0  0
 82 84  1  0  0  0
 82163  1  0  0  0
 82164  1  0  0  0
 83165  1  0  0  0
 84166  1  0  0  0
 85 87  1  0  0  0
 85167  1  0  0  0
 86168  1  0  0  0
 87169  1  0  0  0
 87170  1  0  0  0
 87171  1  0  0  0
M  CHG  1  87   1
M  ISO  4   1 100  68 101  82 101  86 100
M  END
> <chiral flag>
0

> <version>
0

> <s_m_source_file>
/data/baiqing/PycharmProjects/Reinvent-master-3.2/result/LINK_invent/BTK/process_docking_weight1_custom_sum_contain_oxygen_bond_distance_aromatic_linkinvent_7_9_3/rearranged_h_0098.sdf

> <i_m_source_file_index>
46

> <r_mmod_Potential_Energy-OPLS-2005>
-191.090881347656

> <r_mmod_Stretch_Energy-OPLS-2005>
108.820465087891

> <r_mmod_Bend_Energy-OPLS-2005>
152.990158081055

> <r_mmod_Torsional_Energy-OPLS-2005>
268.971466064453

> <r_mmod_Improper_Torsional_Energy-OPLS-2005>
5.63567638397217

> <r_mmod_Van_der_Waal_Energy-OPLS-2005>
135.681137084961

> <r_mmod_Electrostatic_Energy-OPLS-2005>
-437.910125732422

> <r_mmod_Solvation_Energy-OPLS-2005>
-490.706512451172

> <b_mmod_Minimization_Converged-OPLS-2005>
0

> <r_mmod_RMS_Derivative-OPLS-2005>
2.7925181388855

$$$$
47
                    3D
 Structure written by MMmdl.
161169  0  0  1  0            999 V2000
  -30.6192  -14.7196   20.4490 C   0  0  0  0  0  0
  -30.4343  -12.4364   19.4834 C   0  0  0  0  0  0
  -29.5171  -12.5097   18.2419 C   0  0  0  0  0  0
  -28.0410  -12.3309   18.6491 C   0  0  0  0  0  0
  -27.6425  -13.2277   19.8521 C   0  0  2  0  0  0
  -28.6851  -13.1575   20.9915 C   0  0  0  0  0  0
  -25.2501  -13.8180   20.5695 C   0  0  0  0  0  0
  -24.1788  -13.0436   20.9196 C   0  0  0  0  0  0
  -24.6363  -11.6907   20.8729 C   0  0  0  0  0  0
  -23.9041  -10.4285   21.0383 C   0  0  0  0  0  0
  -24.3619   -9.4193   21.9156 C   0  0  0  0  0  0
  -23.6283   -8.2235   22.0740 C   0  0  0  0  0  0
  -22.4265   -8.0262   21.3540 C   0  0  0  0  0  0
  -21.9889   -9.0238   20.4638 C   0  0  0  0  0  0
  -22.7225  -10.2103   20.3038 C   0  0  0  0  0  0
  -21.6825   -6.0732   22.5262 C   0  0  0  0  0  0
  -21.4014   -6.5625   23.8208 C   0  0  0  0  0  0
  -21.3682   -5.6772   24.9159 C   0  0  0  0  0  0
  -21.6047   -4.3037   24.7191 C   0  0  0  0  0  0
  -21.8820   -3.8141   23.4304 C   0  0  0  0  0  0
  -21.9184   -4.6967   22.3378 C   0  0  0  0  0  0
  -22.7813  -13.5236   21.1837 C   0  0  0  0  0  0
  -22.1649   -4.2167   21.0947 F   0  0  0  0  0  0
  -21.5644   -3.4510   25.7696 F   0  0  0  0  0  0
  -29.9903  -13.4969   20.4139 N   0  0  0  0  0  0
  -26.2927  -12.9387   20.3277 N   0  0  0  0  0  0
  -25.9293  -11.6524   20.5716 N   0  0  0  0  0  0
  -22.0451  -12.8261   22.0406 N   0  0  0  0  0  0
  -25.4161  -15.1902   20.4135 N   0  0  0  0  0  0
  -31.8075  -14.8128   20.1308 O   0  0  0  0  0  0
  -21.6633   -6.8864   21.4218 O   0  0  0  0  0  0
  -22.3505  -14.5519   20.6648 O   0  0  0  0  0  0
  -24.6296  -31.8571   23.1951 C   0  0  0  0  0  0
  -25.9125  -32.4750   23.8329 C   0  0  1  0  0  0
  -27.2206  -27.2831   20.1339 C   0  0  0  0  0  0
  -25.5928  -33.8551   24.2248 N   0  0  0  0  0  0
  -23.4261  -30.4767   21.5381 C   0  0  2  0  0  0
  -24.8709  -28.9172   20.1166 C   0  0  0  0  0  0
  -22.7508  -29.4610   22.4909 C   0  0  0  0  0  0
  -18.0296  -28.1384   22.8462 C   0  0  0  0  0  0
  -24.1494  -36.7299   23.2641 C   0  0  0  0  0  0
  -25.9686  -30.7764   21.3705 C   0  0  0  0  0  0
  -26.0407  -29.3968   20.7205 C   0  0  0  0  0  0
  -27.2231  -28.5933   20.7122 C   0  0  0  0  0  0
  -26.0305  -26.8525   19.5192 C   0  0  0  0  0  0
  -24.8676  -27.6501   19.5078 C   0  0  0  0  0  0
  -23.6430  -29.8044   20.1561 C   0  0  0  0  0  0
  -25.4113  -36.3060   24.0321 C   0  0  1  0  0  0
  -20.5901  -28.3702   23.1265 C   0  0  2  0  0  0
  -20.6791  -26.9423   22.5406 C   0  0  0  0  0  0
  -19.5767  -26.6382   21.5204 C   0  0  0  0  0  0
  -18.1943  -26.7934   22.1604 C   0  0  0  0  0  0
  -19.1556  -28.8862   23.2859 C   0  0  0  0  0  0
  -18.9473  -30.1455   23.8882 C   0  0  0  0  0  0
  -17.6474  -30.6580   24.0564 C   0  0  0  0  0  0
  -25.9051  -34.9430   23.5086 C   0  0  0  0  0  0
  -16.5364  -29.9083   23.6307 C   0  0  0  0  0  0
  -16.7289  -28.6510   23.0318 C   0  0  0  0  0  0
  -26.4478  -31.6575   25.0726 C   0  0  0  0  0  0
  -25.3700  -31.3759   26.1458 C   0  0  0  0  0  0
  -27.0328  -30.2992   24.6212 C   0  0  0  0  0  0
  -27.6028  -32.4328   25.7496 C   0  0  0  0  0  0
  -27.5584  -37.1796   24.8452 C   0  0  0  0  0  0
  -21.4218  -29.3045   22.3650 N   0  0  0  0  0  0
  -26.4286  -37.3758   23.9404 N   0  0  0  0  0  0
  -24.6936  -31.0566   22.0905 N   0  0  0  0  0  0
  -23.4218  -28.8169   23.3022 O   0  0  0  0  0  0
  -28.3388  -26.4350   20.0797 O   0  0  0  0  0  0
  -26.5633  -34.8911   22.4660 O   0  0  0  0  0  0
  -23.5445  -32.1385   23.7259 O   0  0  0  0  0  0
  -28.7166  -21.1409   20.4109 C   0  0  0  0  0  0
  -29.8364  -22.7314   19.0016 C   0  0  0  0  0  0
  -28.8465  -22.5131   19.9601 C   0  0  0  0  0  0
  -29.5247  -20.0502   19.8910 C   0  0  0  0  0  0
  -30.4710  -20.4582   18.9003 C   0  0  0  0  0  0
  -32.5470  -20.1482   17.3944 C   0  0  0  0  0  0
  -30.4828  -18.7324   17.0406 C   0  0  0  0  0  0
  -27.8650  -23.7105   20.3037 C   0  0  0  0  0  0
  -29.2180  -18.5213   20.3019 C   0  0  0  0  0  0
  -30.2861  -17.2919   20.2687 C   0  0  0  0  0  0
  -28.3534  -25.1539   20.8403 C   0  0  0  0  0  0
  -31.3315  -19.4883   18.0805 C   0  0  0  0  0  0
  -30.5899  -21.7456   18.4860 N   0  0  0  0  0  0
  -29.8549  -15.8654   20.5995 N   0  0  0  0  0  0
  -31.4794  -12.5515   19.1892 H   0  0  0  0  0  0
  -30.3710  -11.4607   19.9671 H   0  0  0  0  0  0
  -29.8087  -11.7499   17.5157 H   0  0  0  0  0  0
  -29.6450  -13.4745   17.7452 H   0  0  0  0  0  0
  -27.8945  -11.2816   18.9111 H   0  0  0  0  0  0
  -27.3888  -12.5274   17.7962 H   0  0  0  0  0  0
  -27.6419  -14.2502   19.4735 H   0  0  0  0  0  0
  -28.7070  -12.1635   21.4409 H   0  0  0  0  0  0
  -28.4226  -13.8463   21.7962 H   0  0  0  0  0  0
  -25.2758   -9.5672   22.4722 H   0  0  0  0  0  0
  -23.9992   -7.4610   22.7465 H   0  0  0  0  0  0
  -21.0818   -8.8765   19.8923 H   0  0  0  0  0  0
  -22.3693  -10.9651   19.6149 H   0  0  0  0  0  0
  -21.2009   -7.6132   23.9721 H   0  0  0  0  0  0
  -21.1513   -6.0491   25.9077 H   0  0  0  0  0  0
  -22.0579   -2.7600   23.2781 H   0  0  0  0  0  0
  -22.4068  -11.9979   22.4885 H   0  0  0  0  0  0
  -21.1059  -13.1282   22.2537 H   0  0  0  0  0  0
  -24.6412  -15.8339   20.5311 H   0  0  0  0  0  0
  -26.2544  -15.6369   20.0642 H   0  0  0  0  0  0
  -26.7214  -32.5389   23.1093 H   0  0  0  0  0  0
  -25.0051  -33.9679   25.0382 H   0  0  0  0  0  0
  -22.7199  -31.2956   21.3881 H   0  0  0  0  0  0
  -23.3736  -35.9650   23.3278 H   0  0  0  0  0  0
  -24.3607  -36.8952   22.2065 H   0  0  0  0  0  0
  -23.7271  -37.6499   23.6693 H   0  0  0  0  0  0
  -26.1089  -31.5349   20.5983 H   0  0  0  0  0  0
  -26.8469  -30.8253   22.0026 H   0  0  0  0  0  0
  -28.1283  -28.9680   21.1684 H   0  0  0  0  0  0
  -26.0015  -25.8835   19.0419 H   0  0  0  0  0  0
  -23.9714  -27.2744   19.0332 H   0  0  0  0  0  0
  -23.7699  -30.5760   19.3954 H   0  0  0  0  0  0
  -22.7613  -29.2362   19.8531 H   0  0  0  0  0  0
  -25.1289  -36.1898   25.0811 H   0  0  0  0  0  0
  -20.9989  -28.3292   24.1389 H   0  0  0  0  0  0
  -20.5678  -26.2323   23.3614 H   0  0  0  0  0  0
  -21.6663  -26.7438   22.1215 H   0  0  0  0  0  0
  -19.6930  -25.6286   21.1252 H   0  0  0  0  0  0
  -19.6706  -27.3178   20.6722 H   0  0  0  0  0  0
  -17.4217  -26.6675   21.4003 H   0  0  0  0  0  0
  -18.0336  -26.0086   22.9008 H   0  0  0  0  0  0
  -19.7947  -30.7274   24.2262 H   0  0  0  0  0  0
  -17.5021  -31.6245   24.5185 H   0  0  0  0  0  0
  -15.5365  -30.2985   23.7622 H   0  0  0  0  0  0
  -15.8691  -28.0829   22.7023 H   0  0  0  0  0  0
  -24.5837  -30.7137   25.7820 H   0  0  0  0  0  0
  -24.8928  -32.2944   26.4886 H   0  0  0  0  0  0
  -25.8017  -30.8942   27.0241 H   0  0  0  0  0  0
  -26.2927  -29.6738   24.1208 H   0  0  0  0  0  0
  -27.3991  -29.7250   25.4736 H   0  0  0  0  0  0
  -27.8803  -30.4274   23.9473 H   0  0  0  0  0  0
  -27.2616  -33.3616   26.2082 H   0  0  0  0  0  0
  -28.3823  -32.6921   25.0321 H   0  0  0  0  0  0
  -28.0710  -31.8458   26.5402 H   0  0  0  0  0  0
  -28.2570  -38.0119   24.7495 H   0  0  0  0  0  0
  -28.1104  -36.2646   24.6250 H   0  0  0  0  0  0
  -27.2315  -37.1417   25.8858 H   0  0  0  0  0  0
  -20.9421  -29.8760   21.6837 H   0  0  0  0  0  0
  -26.0152  -38.2825   24.1407 H   0  0  0  0  0  0
  -27.9317  -20.9118   21.1165 H   0  0  0  0  0  0
  -29.9795  -23.7155   18.5785 H   0  0  0  0  0  0
  -33.1796  -20.6585   18.1207 H   0  0  0  0  0  0
  -32.2448  -20.8789   16.6439 H   0  0  0  0  0  0
  -33.1579  -19.4029   16.8863 H   0  0  0  0  0  0
  -29.6468  -18.2063   17.5015 H   0  0  0  0  0  0
  -31.0763  -17.9914   16.5060 H   0  0  0  0  0  0
  -30.0586  -19.4160   16.3054 H   0  0  0  0  0  0
  -27.1755  -23.3120   21.0502 H   0  0  0  0  0  0
  -27.2452  -23.8738   19.4222 H   0  0  0  0  0  0
  -28.3755  -18.2253   19.6752 H   0  0  0  0  0  0
  -28.8074  -18.5632   21.3103 H   0  0  0  0  0  0
  -31.1403  -17.5405   20.8993 H   0  0  0  0  0  0
  -30.6786  -17.1722   19.2642 H   0  0  0  0  0  0
  -29.3640  -25.0362   21.2318 H   0  0  0  0  0  0
  -27.7542  -25.3611   21.7306 H   0  0  0  0  0  0
  -31.7991  -18.8029   18.7789 H   0  0  0  0  0  0
  -28.8829  -15.7259   20.8306 H   0  0  0  0  0  0
  1 25  1  0  0  0
  1 30  2  0  0  0
  1 84  1  0  0  0
  2  3  1  0  0  0
  2 25  1  0  0  0
  2 85  1  0  0  0
  2 86  1  0  0  0
  3  4  1  0  0  0
  3 87  1  0  0  0
  3 88  1  0  0  0
  4  5  1  0  0  0
  4 89  1  0  0  0
  4 90  1  0  0  0
  5  6  1  0  0  0
  5 26  1  0  0  0
  5 91  1  0  0  0
  6 25  1  0  0  0
  6 92  1  0  0  0
  6 93  1  0  0  0
  7  8  2  0  0  0
  7 26  1  0  0  0
  7 29  1  0  0  0
  8  9  1  0  0  0
  8 22  1  0  0  0
  9 10  1  0  0  0
  9 27  2  0  0  0
 10 11  2  0  0  0
 10 15  1  0  0  0
 11 12  1  0  0  0
 11 94  1  0  0  0
 12 13  2  0  0  0
 12 95  1  0  0  0
 13 14  1  0  0  0
 13 31  1  0  0  0
 14 15  2  0  0  0
 14 96  1  0  0  0
 15 97  1  0  0  0
 16 17  2  0  0  0
 16 21  1  0  0  0
 16 31  1  0  0  0
 17 18  1  0  0  0
 17 98  1  0  0  0
 18 19  2  0  0  0
 18 99  1  0  0  0
 19 20  1  0  0  0
 19 24  1  0  0  0
 20 21  2  0  0  0
 20100  1  0  0  0
 21 23  1  0  0  0
 22 28  1  0  0  0
 22 32  2  0  0  0
 26 27  1  0  0  0
 28101  1  0  0  0
 28102  1  0  0  0
 29103  1  0  0  0
 29104  1  0  0  0
 33 34  1  0  0  0
 33 66  1  0  0  0
 33 70  2  0  0  0
 34 36  1  0  0  0
 34 59  1  0  0  0
 34105  1  0  0  0
 35 44  2  0  0  0
 35 45  1  0  0  0
 35 68  1  0  0  0
 36 56  1  0  0  0
 36106  1  0  0  0
 37 39  1  0  0  0
 37 47  1  0  0  0
 37 66  1  0  0  0
 37107  1  0  0  0
 38 43  2  0  0  0
 38 46  1  0  0  0
 38 47  1  0  0  0
 39 64  1  0  0  0
 39 67  2  0  0  0
 40 52  1  0  0  0
 40 53  2  0  0  0
 40 58  1  0  0  0
 41108  1  0  0  0
 41109  1  0  0  0
 41110  1  0  0  0
 41 48  1  0  0  0
 42 43  1  0  0  0
 42 66  1  0  0  0
 42111  1  0  0  0
 42112  1  0  0  0
 43 44  1  0  0  0
 44113  1  0  0  0
 45 46  2  0  0  0
 45114  1  0  0  0
 46115  1  0  0  0
 47116  1  0  0  0
 47117  1  0  0  0
 48 56  1  0  0  0
 48 65  1  0  0  0
 48118  1  0  0  0
 49 50  1  0  0  0
 49 53  1  0  0  0
 49 64  1  0  0  0
 49119  1  0  0  0
 50 51  1  0  0  0
 50120  1  0  0  0
 50121  1  0  0  0
 51 52  1  0  0  0
 51122  1  0  0  0
 51123  1  0  0  0
 52124  1  0  0  0
 52125  1  0  0  0
 53 54  1  0  0  0
 54 55  2  0  0  0
 54126  1  0  0  0
 55 57  1  0  0  0
 55127  1  0  0  0
 56 69  2  0  0  0
 57 58  2  0  0  0
 57128  1  0  0  0
 58129  1  0  0  0
 59 60  1  0  0  0
 59 61  1  0  0  0
 59 62  1  0  0  0
 60130  1  0  0  0
 60131  1  0  0  0
 60132  1  0  0  0
 61133  1  0  0  0
 61134  1  0  0  0
 61135  1  0  0  0
 62136  1  0  0  0
 62137  1  0  0  0
 62138  1  0  0  0
 63 65  1  0  0  0
 63139  1  0  0  0
 63140  1  0  0  0
 63141  1  0  0  0
 64142  1  0  0  0
 65143  1  0  0  0
 68 81  1  0  0  0
 71 73  2  0  0  0
 71 74  1  0  0  0
 71144  1  0  0  0
 72 73  1  0  0  0
 72 83  2  0  0  0
 72145  1  0  0  0
 73 78  1  0  0  0
 74 75  2  0  0  0
 74 79  1  0  0  0
 75 82  1  0  0  0
 75 83  1  0  0  0
 76146  1  0  0  0
 76147  1  0  0  0
 76148  1  0  0  0
 76 82  1  0  0  0
 77 82  1  0  0  0
 77149  1  0  0  0
 77150  1  0  0  0
 77151  1  0  0  0
 78 81  1  0  0  0
 78152  1  0  0  0
 78153  1  0  0  0
 79 80  1  0  0  0
 79154  1  0  0  0
 79155  1  0  0  0
 80 84  1  0  0  0
 80156  1  0  0  0
 80157  1  0  0  0
 81158  1  0  0  0
 81159  1  0  0  0
 82160  1  0  0  0
 84161  1  0  0  0
M  ISO  4   1 100  68 101  81 101  84 100
M  END
> <chiral flag>
0

> <version>
0

> <s_m_source_file>
/data/baiqing/PycharmProjects/Reinvent-master-3.2/result/LINK_invent/BTK/process_docking_weight1_custom_sum_contain_oxygen_bond_distance_aromatic_linkinvent_7_9_3/rearranged_h_0098.sdf

> <i_m_source_file_index>
47

> <r_mmod_Potential_Energy-OPLS-2005>
-39.1625823974609

> <r_mmod_Stretch_Energy-OPLS-2005>
117.150329589844

> <r_mmod_Bend_Energy-OPLS-2005>
190.347351074219

> <r_mmod_Torsional_Energy-OPLS-2005>
237.28971862793

> <r_mmod_Improper_Torsional_Energy-OPLS-2005>
7.80253267288208

> <r_mmod_Van_der_Waal_Energy-OPLS-2005>
142.735137939453

> <r_mmod_Electrostatic_Energy-OPLS-2005>
-582.785766601562

> <r_mmod_Solvation_Energy-OPLS-2005>
-222.663375854492

> <b_mmod_Minimization_Converged-OPLS-2005>
0

> <r_mmod_RMS_Derivative-OPLS-2005>
3.37762022018433

$$$$
48
                    3D
 Structure written by MMmdl.
190198  0  0  1  0            999 V2000
  -30.7677  -14.4674   20.5156 C   0  0  0  0  0  0
  -30.3946  -12.2923   19.4461 C   0  0  0  0  0  0
  -29.4878  -12.4920   18.2166 C   0  0  0  0  0  0
  -28.0106  -12.3652   18.6273 C   0  0  0  0  0  0
  -27.6547  -13.2257   19.8716 C   0  0  2  0  0  0
  -28.7014  -13.0767   21.0017 C   0  0  0  0  0  0
  -25.2542  -13.8206   20.5714 C   0  0  0  0  0  0
  -24.1815  -13.0463   20.9189 C   0  0  0  0  0  0
  -24.6395  -11.6929   20.8748 C   0  0  0  0  0  0
  -23.9072  -10.4301   21.0409 C   0  0  0  0  0  0
  -24.3623   -9.4210   21.9182 C   0  0  0  0  0  0
  -23.6297   -8.2244   22.0750 C   0  0  0  0  0  0
  -22.4278   -8.0288   21.3536 C   0  0  0  0  0  0
  -21.9923   -9.0263   20.4641 C   0  0  0  0  0  0
  -22.7249  -10.2140   20.3052 C   0  0  0  0  0  0
  -21.6855   -6.0739   22.5273 C   0  0  0  0  0  0
  -21.4020   -6.5643   23.8211 C   0  0  0  0  0  0
  -21.3661   -5.6792   24.9175 C   0  0  0  0  0  0
  -21.6045   -4.3059   24.7219 C   0  0  0  0  0  0
  -21.8821   -3.8149   23.4344 C   0  0  0  0  0  0
  -21.9193   -4.6963   22.3400 C   0  0  0  0  0  0
  -22.7838  -13.5227   21.1854 C   0  0  0  0  0  0
  -22.1660   -4.2148   21.0976 F   0  0  0  0  0  0
  -21.5627   -3.4543   25.7736 F   0  0  0  0  0  0
  -30.0307  -13.3264   20.4296 N   0  0  0  0  0  0
  -26.3002  -12.9415   20.3404 N   0  0  0  0  0  0
  -25.9334  -11.6553   20.5805 N   0  0  0  0  0  0
  -22.0498  -12.8205   22.0406 N   0  0  0  0  0  0
  -25.4248  -15.1934   20.4112 N   0  0  0  0  0  0
  -31.9289  -14.5100   20.1037 O   0  0  0  0  0  0
  -21.6642   -6.8888   21.4237 O   0  0  0  0  0  0
  -22.3514  -14.5527   20.6697 O   0  0  0  0  0  0
  -24.6171  -31.8687   23.2118 C   0  0  0  0  0  0
  -25.9074  -32.4821   23.8407 C   0  0  1  0  0  0
  -27.2283  -27.4135   20.1131 C   0  0  0  0  0  0
  -25.5907  -33.8612   24.2355 N   0  0  0  0  0  0
  -23.4062  -30.4923   21.5544 C   0  0  2  0  0  0
  -24.8496  -28.9561   20.1183 C   0  0  0  0  0  0
  -22.7446  -29.4649   22.5015 C   0  0  0  0  0  0
  -18.0275  -28.1345   22.8481 C   0  0  0  0  0  0
  -24.1480  -36.7302   23.2645 C   0  0  0  0  0  0
  -25.9384  -30.8279   21.3701 C   0  0  0  0  0  0
  -26.0138  -29.4655   20.7064 C   0  0  0  0  0  0
  -27.2058  -28.7043   20.6950 C   0  0  0  0  0  0
  -26.0439  -26.9223   19.5162 C   0  0  0  0  0  0
  -24.8603  -27.6834   19.5204 C   0  0  0  0  0  0
  -23.6137  -29.8266   20.1693 C   0  0  0  0  0  0
  -25.4106  -36.3130   24.0358 C   0  0  1  0  0  0
  -20.5864  -28.3643   23.1302 C   0  0  2  0  0  0
  -20.6766  -26.9383   22.5398 C   0  0  0  0  0  0
  -19.5750  -26.6360   21.5194 C   0  0  0  0  0  0
  -18.1921  -26.7890   22.1597 C   0  0  0  0  0  0
  -19.1522  -28.8809   23.2885 C   0  0  0  0  0  0
  -18.9453  -30.1405   23.8914 C   0  0  0  0  0  0
  -17.6464  -30.6570   24.0535 C   0  0  0  0  0  0
  -25.9033  -34.9480   23.5164 C   0  0  0  0  0  0
  -16.5356  -29.9059   23.6322 C   0  0  0  0  0  0
  -16.7265  -28.6454   23.0386 C   0  0  0  0  0  0
  -26.4485  -31.6600   25.0752 C   0  0  0  0  0  0
  -25.3723  -31.3655   26.1489 C   0  0  0  0  0  0
  -27.0366  -30.3060   24.6149 C   0  0  0  0  0  0
  -27.6091  -32.4317   25.7474 C   0  0  0  0  0  0
  -27.5600  -37.1806   24.8480 C   0  0  0  0  0  0
  -21.4176  -29.3015   22.3734 N   0  0  0  0  0  0
  -26.4314  -37.3795   23.9408 N   0  0  0  0  0  0
  -24.6712  -31.0770   22.1021 N   0  0  0  0  0  0
  -23.4217  -28.8219   23.3076 O   0  0  0  0  0  0
  -28.3949  -26.6696   20.1467 O   0  0  0  0  0  0
  -26.5613  -34.8935   22.4739 O   0  0  0  0  0  0
  -23.5361  -32.1464   23.7498 O   0  0  0  0  0  0
  -29.1955  -18.8210   21.4967 C   0  0  0  0  0  0
  -29.3816  -19.9200   22.3865 C   0  0  0  0  0  0
  -30.3575  -18.1091   21.3826 C   0  0  0  0  0  0
  -30.6181  -19.7314   22.9675 C   0  0  0  0  0  0
  -30.4334  -20.3671   25.4318 C   0  0  0  0  0  0
  -31.8022  -21.8154   23.8724 C   0  0  0  0  0  0
  -26.1563  -23.1453   21.5124 C   0  0  0  0  0  0
  -27.1660  -23.5378   23.7535 C   0  0  0  0  0  0
  -32.6810  -18.3411   22.3832 C   0  0  0  0  0  0
  -27.8270  -17.5347   16.3523 C   0  0  0  0  0  0
  -29.8086  -18.9682   16.4711 C   0  0  0  0  0  0
  -28.3286  -20.9919   22.6573 C   0  0  0  0  0  0
  -28.5404  -22.3664   21.9410 C   0  0  0  0  0  0
  -30.6149  -17.2741   18.9656 C   0  0  0  0  0  0
  -27.9588  -24.9210   21.8571 C   0  0  0  0  0  0
  -29.1987  -17.5241   18.4002 C   0  0  0  0  0  0
  -28.2922  -25.2458   20.3773 C   0  0  0  0  0  0
  -31.2866  -20.3994   24.1566 C   0  0  0  0  0  0
  -30.7299  -16.9418   20.4791 C   0  0  2  0  0  0
  -27.4751  -23.4787   22.2397 C   0  0  0  0  0  0
  -31.2697  -18.7199   22.2475 N   0  0  0  0  0  0
  -30.1328  -15.6230   20.8147 N   0  0  0  0  0  0
  -29.1842  -17.7002   16.9220 N   0  3  0  0  0  0
  -31.4447  -12.3287   19.1487 H   0  0  0  0  0  0
  -30.2476  -11.2999   19.8763 H   0  0  0  0  0  0
  -29.7259  -11.7574   17.4464 H   0  0  0  0  0  0
  -29.6675  -13.4729   17.7735 H   0  0  0  0  0  0
  -27.8158  -11.3125   18.8363 H   0  0  0  0  0  0
  -27.3636  -12.6318   17.7902 H   0  0  0  0  0  0
  -27.6790  -14.2649   19.5428 H   0  0  0  0  0  0
  -28.6679  -12.0738   21.4302 H   0  0  0  0  0  0
  -28.4857  -13.7632   21.8221 H   0  0  0  0  0  0
  -25.2773   -9.5685   22.4756 H   0  0  0  0  0  0
  -24.0009   -7.4640   22.7470 H   0  0  0  0  0  0
  -21.0855   -8.8780   19.8947 H   0  0  0  0  0  0
  -22.3709  -10.9678   19.6157 H   0  0  0  0  0  0
  -21.2019   -7.6151   23.9707 H   0  0  0  0  0  0
  -21.1484   -6.0530   25.9074 H   0  0  0  0  0  0
  -22.0600   -2.7613   23.2844 H   0  0  0  0  0  0
  -22.4142  -11.9864   22.4773 H   0  0  0  0  0  0
  -21.1108  -13.1192   22.2619 H   0  0  0  0  0  0
  -24.6605  -15.8499   20.5290 H   0  0  0  0  0  0
  -26.2848  -15.6355   20.1202 H   0  0  0  0  0  0
  -26.7152  -32.5537   23.1164 H   0  0  0  0  0  0
  -25.0059  -33.9739   25.0512 H   0  0  0  0  0  0
  -22.6959  -31.3105   21.4193 H   0  0  0  0  0  0
  -23.3761  -35.9615   23.3309 H   0  0  0  0  0  0
  -24.3586  -36.8904   22.2063 H   0  0  0  0  0  0
  -23.7189  -37.6491   23.6650 H   0  0  0  0  0  0
  -26.0728  -31.6076   20.6200 H   0  0  0  0  0  0
  -26.8171  -30.8629   22.0023 H   0  0  0  0  0  0
  -28.1006  -29.0947   21.1593 H   0  0  0  0  0  0
  -26.0085  -25.9550   19.0400 H   0  0  0  0  0  0
  -23.9615  -27.2772   19.0759 H   0  0  0  0  0  0
  -23.7238  -30.6090   19.4156 H   0  0  0  0  0  0
  -22.7370  -29.2497   19.8694 H   0  0  0  0  0  0
  -25.1259  -36.2032   25.0845 H   0  0  0  0  0  0
  -20.9923  -28.3204   24.1437 H   0  0  0  0  0  0
  -20.5652  -26.2261   23.3586 H   0  0  0  0  0  0
  -21.6651  -26.7433   22.1213 H   0  0  0  0  0  0
  -19.6928  -25.6275   21.1223 H   0  0  0  0  0  0
  -19.6695  -27.3176   20.6722 H   0  0  0  0  0  0
  -17.4208  -26.6646   21.3986 H   0  0  0  0  0  0
  -18.0306  -26.0023   22.8969 H   0  0  0  0  0  0
  -19.7949  -30.7165   24.2344 H   0  0  0  0  0  0
  -17.5045  -31.6266   24.5106 H   0  0  0  0  0  0
  -15.5366  -30.2966   23.7630 H   0  0  0  0  0  0
  -15.8654  -28.0745   22.7156 H   0  0  0  0  0  0
  -24.5957  -30.6958   25.7778 H   0  0  0  0  0  0
  -24.8839  -32.2771   26.4947 H   0  0  0  0  0  0
  -25.8075  -30.8825   27.0249 H   0  0  0  0  0  0
  -26.2940  -29.6745   24.1282 H   0  0  0  0  0  0
  -27.4230  -29.7380   25.4613 H   0  0  0  0  0  0
  -27.8709  -30.4384   23.9260 H   0  0  0  0  0  0
  -27.2782  -33.3642   26.2053 H   0  0  0  0  0  0
  -28.3874  -32.6826   25.0251 H   0  0  0  0  0  0
  -28.0800  -31.8434   26.5364 H   0  0  0  0  0  0
  -28.2635  -38.0097   24.7579 H   0  0  0  0  0  0
  -28.1091  -36.2643   24.6259 H   0  0  0  0  0  0
  -27.2341  -37.1405   25.8892 H   0  0  0  0  0  0
  -20.9384  -29.8713   21.6908 H   0  0  0  0  0  0
  -26.0236  -38.2887   24.1399 H   0  0  0  0  0  0
  -28.2866  -18.6114   20.9528 H   0  0  0  0  0  0
  -30.0697  -19.3580   25.6302 H   0  0  0  0  0  0
  -29.5774  -21.0353   25.3846 H   0  0  0  0  0  0
  -31.0233  -20.6701   26.2976 H   0  0  0  0  0  0
  -32.4573  -21.8380   23.0006 H   0  0  0  0  0  0
  -32.3696  -22.1935   24.7240 H   0  0  0  0  0  0
  -30.9868  -22.5153   23.7102 H   0  0  0  0  0  0
  -25.7442  -22.1899   21.8371 H   0  0  0  0  0  0
  -26.2880  -23.0807   20.4336 H   0  0  0  0  0  0
  -25.3940  -23.9003   21.7106 H   0  0  0  0  0  0
  -26.6571  -22.6402   24.1054 H   0  0  0  0  0  0
  -26.5034  -24.3698   23.9974 H   0  0  0  0  0  0
  -28.0780  -23.6655   24.3392 H   0  0  0  0  0  0
  -33.1408  -18.2119   21.4035 H   0  0  0  0  0  0
  -32.7746  -17.4135   22.9487 H   0  0  0  0  0  0
  -33.2759  -19.1178   22.8604 H   0  0  0  0  0  0
  -27.8496  -17.6124   15.2653 H   0  0  0  0  0  0
  -27.1455  -18.2973   16.7296 H   0  0  0  0  0  0
  -27.4127  -16.5563   16.5972 H   0  0  0  0  0  0
  -29.7711  -19.0537   15.3846 H   0  0  0  0  0  0
  -30.8591  -19.0271   16.7544 H   0  0  0  0  0  0
  -29.2957  -19.8340   16.8910 H   0  0  0  0  0  0
  -28.2473  -21.1189   23.7314 H   0  0  0  0  0  0
  -27.3697  -20.5784   22.3472 H   0  0  0  0  0  0
  -28.5783  -22.1989   20.8647 H   0  0  0  0  0  0
  -29.5219  -22.7533   22.1960 H   0  0  0  0  0  0
  -31.2447  -18.1435   18.7789 H   0  0  0  0  0  0
  -31.0716  -16.4634   18.3966 H   0  0  0  0  0  0
  -27.1924  -25.6250   22.1858 H   0  0  0  0  0  0
  -28.8384  -25.1741   22.4510 H   0  0  0  0  0  0
  -28.7484  -18.4066   18.8511 H   0  0  0  0  0  0
  -28.5644  -16.6773   18.6689 H   0  0  0  0  0  0
  -27.5967  -24.7701   19.6925 H   0  0  0  0  0  0
  -29.2592  -24.8017   20.1363 H   0  0  0  0  0  0
  -32.1560  -19.8164   24.4500 H   0  0  0  0  0  0
  -31.7985  -16.8037   20.6039 H   0  0  0  0  0  0
  -29.1899  -15.5886   21.1703 H   0  0  0  0  0  0
  -29.7336  -16.9519   16.5257 H   0  0  0  0  0  0
  1 25  1  0  0  0
  1 30  2  0  0  0
  1 92  1  0  0  0
  2  3  1  0  0  0
  2 25  1  0  0  0
  2 94  1  0  0  0
  2 95  1  0  0  0
  3  4  1  0  0  0
  3 96  1  0  0  0
  3 97  1  0  0  0
  4  5  1  0  0  0
  4 98  1  0  0  0
  4 99  1  0  0  0
  5  6  1  0  0  0
  5 26  1  0  0  0
  5100  1  0  0  0
  6 25  1  0  0  0
  6101  1  0  0  0
  6102  1  0  0  0
  7  8  2  0  0  0
  7 26  1  0  0  0
  7 29  1  0  0  0
  8  9  1  0  0  0
  8 22  1  0  0  0
  9 10  1  0  0  0
  9 27  2  0  0  0
 10 11  2  0  0  0
 10 15  1  0  0  0
 11 12  1  0  0  0
 11103  1  0  0  0
 12 13  2  0  0  0
 12104  1  0  0  0
 13 14  1  0  0  0
 13 31  1  0  0  0
 14 15  2  0  0  0
 14105  1  0  0  0
 15106  1  0  0  0
 16 17  2  0  0  0
 16 21  1  0  0  0
 16 31  1  0  0  0
 17 18  1  0  0  0
 17107  1  0  0  0
 18 19  2  0  0  0
 18108  1  0  0  0
 19 20  1  0  0  0
 19 24  1  0  0  0
 20 21  2  0  0  0
 20109  1  0  0  0
 21 23  1  0  0  0
 22 28  1  0  0  0
 22 32  2  0  0  0
 26 27  1  0  0  0
 28110  1  0  0  0
 28111  1  0  0  0
 29112  1  0  0  0
 29113  1  0  0  0
 33 34  1  0  0  0
 33 66  1  0  0  0
 33 70  2  0  0  0
 34 36  1  0  0  0
 34 59  1  0  0  0
 34114  1  0  0  0
 35 44  2  0  0  0
 35 45  1  0  0  0
 35 68  1  0  0  0
 36 56  1  0  0  0
 36115  1  0  0  0
 37 39  1  0  0  0
 37 47  1  0  0  0
 37 66  1  0  0  0
 37116  1  0  0  0
 38 43  2  0  0  0
 38 46  1  0  0  0
 38 47  1  0  0  0
 39 64  1  0  0  0
 39 67  2  0  0  0
 40 52  1  0  0  0
 40 53  2  0  0  0
 40 58  1  0  0  0
 41117  1  0  0  0
 41118  1  0  0  0
 41119  1  0  0  0
 41 48  1  0  0  0
 42 43  1  0  0  0
 42 66  1  0  0  0
 42120  1  0  0  0
 42121  1  0  0  0
 43 44  1  0  0  0
 44122  1  0  0  0
 45 46  2  0  0  0
 45123  1  0  0  0
 46124  1  0  0  0
 47125  1  0  0  0
 47126  1  0  0  0
 48 56  1  0  0  0
 48 65  1  0  0  0
 48127  1  0  0  0
 49 50  1  0  0  0
 49 53  1  0  0  0
 49 64  1  0  0  0
 49128  1  0  0  0
 50 51  1  0  0  0
 50129  1  0  0  0
 50130  1  0  0  0
 51 52  1  0  0  0
 51131  1  0  0  0
 51132  1  0  0  0
 52133  1  0  0  0
 52134  1  0  0  0
 53 54  1  0  0  0
 54 55  2  0  0  0
 54135  1  0  0  0
 55 57  1  0  0  0
 55136  1  0  0  0
 56 69  2  0  0  0
 57 58  2  0  0  0
 57137  1  0  0  0
 58138  1  0  0  0
 59 60  1  0  0  0
 59 61  1  0  0  0
 59 62  1  0  0  0
 60139  1  0  0  0
 60140  1  0  0  0
 60141  1  0  0  0
 61142  1  0  0  0
 61143  1  0  0  0
 61144  1  0  0  0
 62145  1  0  0  0
 62146  1  0  0  0
 62147  1  0  0  0
 63 65  1  0  0  0
 63148  1  0  0  0
 63149  1  0  0  0
 63150  1  0  0  0
 64151  1  0  0  0
 65152  1  0  0  0
 68 87  1  0  0  0
 71 72  1  0  0  0
 71 73  2  0  0  0
 71153  1  0  0  0
 72 74  2  0  0  0
 72 82  1  0  0  0
 73 89  1  0  0  0
 73 91  1  0  0  0
 74 88  1  0  0  0
 74 91  1  0  0  0
 75154  1  0  0  0
 75155  1  0  0  0
 75156  1  0  0  0
 75 88  1  0  0  0
 76 88  1  0  0  0
 76157  1  0  0  0
 76158  1  0  0  0
 76159  1  0  0  0
 77160  1  0  0  0
 77161  1  0  0  0
 77162  1  0  0  0
 77 90  1  0  0  0
 78 90  1  0  0  0
 78163  1  0  0  0
 78164  1  0  0  0
 78165  1  0  0  0
 79 91  1  0  0  0
 79166  1  0  0  0
 79167  1  0  0  0
 79168  1  0  0  0
 80169  1  0  0  0
 80170  1  0  0  0
 80171  1  0  0  0
 80 93  1  0  0  0
 81 93  1  0  0  0
 81172  1  0  0  0
 81173  1  0  0  0
 81174  1  0  0  0
 82 83  1  0  0  0
 82175  1  0  0  0
 82176  1  0  0  0
 83 90  1  0  0  0
 83177  1  0  0  0
 83178  1  0  0  0
 84 86  1  0  0  0
 84179  1  0  0  0
 84180  1  0  0  0
 84 89  1  0  0  0
 85 87  1  0  0  0
 85 90  1  0  0  0
 85181  1  0  0  0
 85182  1  0  0  0
 86 93  1  0  0  0
 86183  1  0  0  0
 86184  1  0  0  0
 87185  1  0  0  0
 87186  1  0  0  0
 88187  1  0  0  0
 89 92  1  0  0  0
 89188  1  0  0  0
 92189  1  0  0  0
 93190  1  0  0  0
M  CHG  1  93   1
M  ISO  4   1 100  68 101  87 101  92 100
M  END
> <chiral flag>
0

> <version>
0

> <s_m_source_file>
/data/baiqing/PycharmProjects/Reinvent-master-3.2/result/LINK_invent/BTK/process_docking_weight1_custom_sum_contain_oxygen_bond_distance_aromatic_linkinvent_7_9_3/rearranged_h_0098.sdf

> <i_m_source_file_index>
48

> <r_mmod_Potential_Energy-OPLS-2005>
-174.110443115234

> <r_mmod_Stretch_Energy-OPLS-2005>
48.5402908325195

> <r_mmod_Bend_Energy-OPLS-2005>
135.635726928711

> <r_mmod_Torsional_Energy-OPLS-2005>
254.543914794922

> <r_mmod_Improper_Torsional_Energy-OPLS-2005>
6.35641098022461

> <r_mmod_Van_der_Waal_Energy-OPLS-2005>
136.916076660156

> <r_mmod_Electrostatic_Energy-OPLS-2005>
-348.609252929688

> <r_mmod_Solvation_Energy-OPLS-2005>
-429.984619140625

> <b_mmod_Minimization_Converged-OPLS-2005>
0

> <r_mmod_RMS_Derivative-OPLS-2005>
2.74385356903076

$$$$
49
                    3D
 Structure written by MMmdl.
161169  0  0  1  0            999 V2000
  -30.6269  -14.6986   20.4662 C   0  0  0  0  0  0
  -30.4340  -12.4181   19.4793 C   0  0  0  0  0  0
  -29.5164  -12.5109   18.2399 C   0  0  0  0  0  0
  -28.0447  -12.3276   18.6536 C   0  0  0  0  0  0
  -27.6537  -13.2238   19.8595 C   0  0  2  0  0  0
  -28.6961  -13.1352   20.9988 C   0  0  0  0  0  0
  -25.2560  -13.8173   20.5681 C   0  0  0  0  0  0
  -24.1846  -13.0459   20.9214 C   0  0  0  0  0  0
  -24.6415  -11.6919   20.8760 C   0  0  0  0  0  0
  -23.9085  -10.4300   21.0421 C   0  0  0  0  0  0
  -24.3627   -9.4214   21.9207 C   0  0  0  0  0  0
  -23.6302   -8.2245   22.0772 C   0  0  0  0  0  0
  -22.4286   -8.0282   21.3562 C   0  0  0  0  0  0
  -21.9926   -9.0258   20.4673 C   0  0  0  0  0  0
  -22.7242  -10.2145   20.3078 C   0  0  0  0  0  0
  -21.6845   -6.0745   22.5293 C   0  0  0  0  0  0
  -21.3999   -6.5645   23.8226 C   0  0  0  0  0  0
  -21.3667   -5.6800   24.9187 C   0  0  0  0  0  0
  -21.6049   -4.3065   24.7240 C   0  0  0  0  0  0
  -21.8806   -3.8160   23.4355 C   0  0  0  0  0  0
  -21.9187   -4.6975   22.3413 C   0  0  0  0  0  0
  -22.7858  -13.5260   21.1846 C   0  0  0  0  0  0
  -22.1662   -4.2143   21.0995 F   0  0  0  0  0  0
  -21.5625   -3.4556   25.7764 F   0  0  0  0  0  0
  -30.0121  -13.4688   20.4343 N   0  0  0  0  0  0
  -26.3008  -12.9383   20.3326 N   0  0  0  0  0  0
  -25.9351  -11.6535   20.5801 N   0  0  0  0  0  0
  -22.0486  -12.8263   22.0395 N   0  0  0  0  0  0
  -25.4230  -15.1893   20.4025 N   0  0  0  0  0  0
  -31.7793  -14.8350   20.0448 O   0  0  0  0  0  0
  -21.6647   -6.8881   21.4252 O   0  0  0  0  0  0
  -22.3566  -14.5579   20.6703 O   0  0  0  0  0  0
  -24.6300  -31.8597   23.2033 C   0  0  0  0  0  0
  -25.9112  -32.4793   23.8387 C   0  0  1  0  0  0
  -27.2240  -27.2966   20.1182 C   0  0  0  0  0  0
  -25.5938  -33.8607   24.2307 N   0  0  0  0  0  0
  -23.4274  -30.4840   21.5470 C   0  0  2  0  0  0
  -24.8740  -28.9395   20.1105 C   0  0  0  0  0  0
  -22.7483  -29.4669   22.4956 C   0  0  0  0  0  0
  -18.0371  -28.1395   22.8439 C   0  0  0  0  0  0
  -24.1493  -36.7288   23.2640 C   0  0  0  0  0  0
  -25.9728  -30.7812   21.3824 C   0  0  0  0  0  0
  -26.0454  -29.4106   20.7166 C   0  0  0  0  0  0
  -27.2237  -28.6017   20.7073 C   0  0  0  0  0  0
  -26.0283  -26.8928   19.4784 C   0  0  0  0  0  0
  -24.8710  -27.6898   19.4807 C   0  0  0  0  0  0
  -23.6392  -29.8128   20.1658 C   0  0  0  0  0  0
  -25.4113  -36.3097   24.0341 C   0  0  1  0  0  0
  -20.5947  -28.3770   23.1348 C   0  0  2  0  0  0
  -20.6930  -26.9493   22.5492 C   0  0  0  0  0  0
  -19.5978  -26.6414   21.5253 C   0  0  0  0  0  0
  -18.2093  -26.7979   22.1518 C   0  0  0  0  0  0
  -19.1585  -28.8886   23.2885 C   0  0  0  0  0  0
  -18.9498  -30.1487   23.8856 C   0  0  0  0  0  0
  -17.6490  -30.6600   24.0494 C   0  0  0  0  0  0
  -25.9040  -34.9470   23.5128 C   0  0  0  0  0  0
  -16.5400  -29.9087   23.6246 C   0  0  0  0  0  0
  -16.7351  -28.6494   23.0262 C   0  0  0  0  0  0
  -26.4499  -31.6609   25.0748 C   0  0  0  0  0  0
  -25.3743  -31.3720   26.1477 C   0  0  0  0  0  0
  -27.0331  -30.3035   24.6206 C   0  0  0  0  0  0
  -27.6080  -32.4342   25.7497 C   0  0  0  0  0  0
  -27.5591  -37.1789   24.8461 C   0  0  0  0  0  0
  -21.4188  -29.3153   22.3731 N   0  0  0  0  0  0
  -26.4302  -37.3775   23.9395 N   0  0  0  0  0  0
  -24.6972  -31.0561   22.1021 N   0  0  0  0  0  0
  -23.4193  -28.8161   23.3005 O   0  0  0  0  0  0
  -28.3278  -26.4188   20.1796 O   0  0  0  0  0  0
  -26.5598  -34.8927   22.4680 O   0  0  0  0  0  0
  -23.5434  -32.1402   23.7302 O   0  0  0  0  0  0
  -29.6298  -21.1529   20.5292 C   0  0  0  0  0  0
  -27.4001  -22.0151   20.7855 C   0  0  0  0  0  0
  -28.7545  -22.3107   20.5492 C   0  0  0  0  0  0
  -29.1464  -19.8071   20.7852 C   0  0  0  0  0  0
  -27.7614  -19.7218   21.0657 C   0  0  0  0  0  0
  -27.0970  -18.4425   21.5411 C   0  0  0  0  0  0
  -29.7850  -23.4697   17.9105 C   0  0  0  0  0  0
  -30.0693  -18.5179   20.9645 C   0  0  0  0  0  0
  -30.2384  -24.0170   19.2744 C   0  0  0  0  0  0
  -29.8543  -17.1781   20.0970 C   0  0  0  0  0  0
  -28.0408  -24.9531   20.2096 C   0  0  0  0  0  0
  -29.1936  -23.8384   20.3922 C   0  0  1  0  0  0
  -26.9279  -20.7793   21.0309 N   0  0  0  0  0  0
  -29.8485  -15.8006   20.7515 N   0  0  0  0  0  0
  -31.4805  -12.5218   19.1846 H   0  0  0  0  0  0
  -30.3530  -11.4320   19.9418 H   0  0  0  0  0  0
  -29.7997  -11.7595   17.5019 H   0  0  0  0  0  0
  -29.6474  -13.4787   17.7525 H   0  0  0  0  0  0
  -27.9053  -11.2791   18.9191 H   0  0  0  0  0  0
  -27.3866  -12.5142   17.8049 H   0  0  0  0  0  0
  -27.6600  -14.2492   19.4889 H   0  0  0  0  0  0
  -28.7158  -12.1331   21.4285 H   0  0  0  0  0  0
  -28.4362  -13.8095   21.8161 H   0  0  0  0  0  0
  -25.2777   -9.5689   22.4773 H   0  0  0  0  0  0
  -24.0010   -7.4638   22.7491 H   0  0  0  0  0  0
  -21.0855   -8.8771   19.8984 H   0  0  0  0  0  0
  -22.3701  -10.9679   19.6182 H   0  0  0  0  0  0
  -21.1969   -7.6150   23.9712 H   0  0  0  0  0  0
  -21.1517   -6.0546   25.9089 H   0  0  0  0  0  0
  -22.0578   -2.7618   23.2866 H   0  0  0  0  0  0
  -22.4118  -11.9937   22.4789 H   0  0  0  0  0  0
  -21.1098  -13.1270   22.2608 H   0  0  0  0  0  0
  -24.6403  -15.8280   20.4827 H   0  0  0  0  0  0
  -26.2537  -15.6215   20.0231 H   0  0  0  0  0  0
  -26.7190  -32.5430   23.1152 H   0  0  0  0  0  0
  -25.0083  -33.9810   25.0456 H   0  0  0  0  0  0
  -22.7265  -31.3061   21.3965 H   0  0  0  0  0  0
  -23.3784  -35.9594   23.3288 H   0  0  0  0  0  0
  -24.3589  -36.8894   22.2050 H   0  0  0  0  0  0
  -23.7224  -37.6481   23.6658 H   0  0  0  0  0  0
  -26.1108  -31.5512   20.6213 H   0  0  0  0  0  0
  -26.8530  -30.8272   22.0126 H   0  0  0  0  0  0
  -28.1198  -28.9551   21.1971 H   0  0  0  0  0  0
  -25.9383  -25.9454   18.9723 H   0  0  0  0  0  0
  -23.9760  -27.3321   18.9918 H   0  0  0  0  0  0
  -23.7387  -30.5777   19.3962 H   0  0  0  0  0  0
  -22.7634  -29.2243   19.8872 H   0  0  0  0  0  0
  -25.1311  -36.1961   25.0841 H   0  0  0  0  0  0
  -21.0009  -28.3343   24.1492 H   0  0  0  0  0  0
  -20.5986  -26.2327   23.3666 H   0  0  0  0  0  0
  -21.6795  -26.7659   22.1273 H   0  0  0  0  0  0
  -19.7213  -25.6357   21.1246 H   0  0  0  0  0  0
  -19.6976  -27.3235   20.6807 H   0  0  0  0  0  0
  -17.4504  -26.6871   21.3756 H   0  0  0  0  0  0
  -18.0292  -26.0067   22.8806 H   0  0  0  0  0  0
  -19.7952  -30.7356   24.2175 H   0  0  0  0  0  0
  -17.5052  -31.6274   24.5103 H   0  0  0  0  0  0
  -15.5412  -30.2984   23.7573 H   0  0  0  0  0  0
  -15.8781  -28.0824   22.6938 H   0  0  0  0  0  0
  -24.5938  -30.7066   25.7778 H   0  0  0  0  0  0
  -24.8933  -32.2870   26.4944 H   0  0  0  0  0  0
  -25.8083  -30.8861   27.0228 H   0  0  0  0  0  0
  -26.2891  -29.6785   24.1249 H   0  0  0  0  0  0
  -27.4032  -29.7303   25.4712 H   0  0  0  0  0  0
  -27.8785  -30.4315   23.9439 H   0  0  0  0  0  0
  -27.2736  -33.3653   26.2099 H   0  0  0  0  0  0
  -28.3879  -32.6883   25.0305 H   0  0  0  0  0  0
  -28.0791  -31.8458   26.5383 H   0  0  0  0  0  0
  -28.2626  -38.0065   24.7525 H   0  0  0  0  0  0
  -28.1091  -36.2618   24.6313 H   0  0  0  0  0  0
  -27.2313  -37.1451   25.8861 H   0  0  0  0  0  0
  -20.9309  -29.8964   21.7052 H   0  0  0  0  0  0
  -26.0205  -38.2866   24.1360 H   0  0  0  0  0  0
  -30.6870  -21.3051   20.3654 H   0  0  0  0  0  0
  -26.6450  -22.7855   20.8204 H   0  0  0  0  0  0
  -27.6235  -18.0287   22.3990 H   0  0  0  0  0  0
  -27.0542  -17.6906   20.7564 H   0  0  0  0  0  0
  -26.0732  -18.6329   21.8693 H   0  0  0  0  0  0
  -28.7632  -23.7683   17.6779 H   0  0  0  0  0  0
  -29.8189  -22.3804   17.8855 H   0  0  0  0  0  0
  -30.4251  -23.8434   17.1131 H   0  0  0  0  0  0
  -30.0487  -18.2509   22.0217 H   0  0  0  0  0  0
  -31.0959  -18.8448   20.7942 H   0  0  0  0  0  0
  -30.4685  -25.0790   19.1790 H   0  0  0  0  0  0
  -31.1778  -23.5434   19.5600 H   0  0  0  0  0  0
  -30.5891  -17.1723   19.2889 H   0  0  0  0  0  0
  -28.9055  -17.2553   19.5684 H   0  0  0  0  0  0
  -27.3170  -24.8252   21.0136 H   0  0  0  0  0  0
  -27.5296  -24.6847   19.2897 H   0  0  0  0  0  0
  -29.6930  -24.0919   21.3275 H   0  0  0  0  0  0
  -28.9821  -15.5641   21.2123 H   0  0  0  0  0  0
  1 25  1  0  0  0
  1 30  2  0  0  0
  1 84  1  0  0  0
  2  3  1  0  0  0
  2 25  1  0  0  0
  2 85  1  0  0  0
  2 86  1  0  0  0
  3  4  1  0  0  0
  3 87  1  0  0  0
  3 88  1  0  0  0
  4  5  1  0  0  0
  4 89  1  0  0  0
  4 90  1  0  0  0
  5  6  1  0  0  0
  5 26  1  0  0  0
  5 91  1  0  0  0
  6 25  1  0  0  0
  6 92  1  0  0  0
  6 93  1  0  0  0
  7  8  2  0  0  0
  7 26  1  0  0  0
  7 29  1  0  0  0
  8  9  1  0  0  0
  8 22  1  0  0  0
  9 10  1  0  0  0
  9 27  2  0  0  0
 10 11  2  0  0  0
 10 15  1  0  0  0
 11 12  1  0  0  0
 11 94  1  0  0  0
 12 13  2  0  0  0
 12 95  1  0  0  0
 13 14  1  0  0  0
 13 31  1  0  0  0
 14 15  2  0  0  0
 14 96  1  0  0  0
 15 97  1  0  0  0
 16 17  2  0  0  0
 16 21  1  0  0  0
 16 31  1  0  0  0
 17 18  1  0  0  0
 17 98  1  0  0  0
 18 19  2  0  0  0
 18 99  1  0  0  0
 19 20  1  0  0  0
 19 24  1  0  0  0
 20 21  2  0  0  0
 20100  1  0  0  0
 21 23  1  0  0  0
 22 28  1  0  0  0
 22 32  2  0  0  0
 26 27  1  0  0  0
 28101  1  0  0  0
 28102  1  0  0  0
 29103  1  0  0  0
 29104  1  0  0  0
 33 34  1  0  0  0
 33 66  1  0  0  0
 33 70  2  0  0  0
 34 36  1  0  0  0
 34 59  1  0  0  0
 34105  1  0  0  0
 35 44  2  0  0  0
 35 45  1  0  0  0
 35 68  1  0  0  0
 36 56  1  0  0  0
 36106  1  0  0  0
 37 39  1  0  0  0
 37 47  1  0  0  0
 37 66  1  0  0  0
 37107  1  0  0  0
 38 43  2  0  0  0
 38 46  1  0  0  0
 38 47  1  0  0  0
 39 64  1  0  0  0
 39 67  2  0  0  0
 40 52  1  0  0  0
 40 53  2  0  0  0
 40 58  1  0  0  0
 41108  1  0  0  0
 41109  1  0  0  0
 41110  1  0  0  0
 41 48  1  0  0  0
 42 43  1  0  0  0
 42 66  1  0  0  0
 42111  1  0  0  0
 42112  1  0  0  0
 43 44  1  0  0  0
 44113  1  0  0  0
 45 46  2  0  0  0
 45114  1  0  0  0
 46115  1  0  0  0
 47116  1  0  0  0
 47117  1  0  0  0
 48 56  1  0  0  0
 48 65  1  0  0  0
 48118  1  0  0  0
 49 50  1  0  0  0
 49 53  1  0  0  0
 49 64  1  0  0  0
 49119  1  0  0  0
 50 51  1  0  0  0
 50120  1  0  0  0
 50121  1  0  0  0
 51 52  1  0  0  0
 51122  1  0  0  0
 51123  1  0  0  0
 52124  1  0  0  0
 52125  1  0  0  0
 53 54  1  0  0  0
 54 55  2  0  0  0
 54126  1  0  0  0
 55 57  1  0  0  0
 55127  1  0  0  0
 56 69  2  0  0  0
 57 58  2  0  0  0
 57128  1  0  0  0
 58129  1  0  0  0
 59 60  1  0  0  0
 59 61  1  0  0  0
 59 62  1  0  0  0
 60130  1  0  0  0
 60131  1  0  0  0
 60132  1  0  0  0
 61133  1  0  0  0
 61134  1  0  0  0
 61135  1  0  0  0
 62136  1  0  0  0
 62137  1  0  0  0
 62138  1  0  0  0
 63 65  1  0  0  0
 63139  1  0  0  0
 63140  1  0  0  0
 63141  1  0  0  0
 64142  1  0  0  0
 65143  1  0  0  0
 68 81  1  0  0  0
 71 73  2  0  0  0
 71 74  1  0  0  0
 71144  1  0  0  0
 72 73  1  0  0  0
 72 83  2  0  0  0
 72145  1  0  0  0
 73 82  1  0  0  0
 74 75  2  0  0  0
 74 78  1  0  0  0
 75 76  1  0  0  0
 75 83  1  0  0  0
 76146  1  0  0  0
 76147  1  0  0  0
 76148  1  0  0  0
 77 79  1  0  0  0
 77149  1  0  0  0
 77150  1  0  0  0
 77151  1  0  0  0
 78 80  1  0  0  0
 78152  1  0  0  0
 78153  1  0  0  0
 79154  1  0  0  0
 79155  1  0  0  0
 79 82  1  0  0  0
 80 84  1  0  0  0
 80156  1  0  0  0
 80157  1  0  0  0
 81 82  1  0  0  0
 81158  1  0  0  0
 81159  1  0  0  0
 82160  1  0  0  0
 84161  1  0  0  0
M  ISO  4   1 100  68 101  81 101  84 100
M  END
> <chiral flag>
0

> <version>
0

> <s_m_source_file>
/data/baiqing/PycharmProjects/Reinvent-master-3.2/result/LINK_invent/BTK/process_docking_weight1_custom_sum_contain_oxygen_bond_distance_aromatic_linkinvent_7_9_3/rearranged_h_0098.sdf

> <i_m_source_file_index>
49

> <r_mmod_Potential_Energy-OPLS-2005>
-52.2464637756348

> <r_mmod_Stretch_Energy-OPLS-2005>
108.885116577148

> <r_mmod_Bend_Energy-OPLS-2005>
154.921356201172

> <r_mmod_Torsional_Energy-OPLS-2005>
243.295837402344

> <r_mmod_Improper_Torsional_Energy-OPLS-2005>
8.30517387390137

> <r_mmod_Van_der_Waal_Energy-OPLS-2005>
145.205764770508

> <r_mmod_Electrostatic_Energy-OPLS-2005>
-557.579040527344

> <r_mmod_Solvation_Energy-OPLS-2005>
-222.124267578125

> <b_mmod_Minimization_Converged-OPLS-2005>
0

> <r_mmod_RMS_Derivative-OPLS-2005>
4.14852523803711

$$$$
50
                    3D
 Structure written by MMmdl.
157166  0  0  1  0            999 V2000
  -28.9860  -16.1017   20.7199 C   0  0  0  0  0  0
  -30.0747  -13.6862   19.6679 C   0  0  0  0  0  0
  -29.4527  -12.7931   18.4829 C   0  0  0  0  0  0
  -28.1150  -12.1866   18.8978 C   0  0  0  0  0  0
  -27.4560  -13.2068   19.8118 C   0  0  2  0  0  0
  -28.2782  -13.5894   21.0231 C   0  0  0  0  0  0
  -25.1612  -13.7815   20.5536 C   0  0  0  0  0  0
  -24.0979  -13.0117   20.9294 C   0  0  0  0  0  0
  -24.5570  -11.6611   20.8789 C   0  0  0  0  0  0
  -23.8494  -10.4038   21.0519 C   0  0  0  0  0  0
  -24.3212   -9.4121   21.9337 C   0  0  0  0  0  0
  -23.6052   -8.2103   22.0802 C   0  0  0  0  0  0
  -22.4075   -8.0066   21.3539 C   0  0  0  0  0  0
  -21.9601   -8.9971   20.4636 C   0  0  0  0  0  0
  -22.6742  -10.1931   20.3134 C   0  0  0  0  0  0
  -21.6772   -6.0561   22.5273 C   0  0  0  0  0  0
  -21.3929   -6.5527   23.8178 C   0  0  0  0  0  0
  -21.3684   -5.6742   24.9181 C   0  0  0  0  0  0
  -21.6066   -4.2999   24.7273 C   0  0  0  0  0  0
  -21.8795   -3.8021   23.4403 C   0  0  0  0  0  0
  -21.9137   -4.6798   22.3427 C   0  0  0  0  0  0
  -22.7208  -13.5204   21.1958 C   0  0  0  0  0  0
  -22.1658   -4.1943   21.1030 F   0  0  0  0  0  0
  -21.5689   -3.4538   25.7840 F   0  0  0  0  0  0
  -29.0648  -14.6256   20.4284 N   0  0  0  0  0  0
  -26.1527  -12.8700   20.2508 N   0  0  0  0  0  0
  -25.8277  -11.5898   20.5280 N   0  0  0  0  0  0
  -21.9839  -12.8193   22.0540 N   0  0  0  0  0  0
  -25.3580  -15.1470   20.3899 N   0  0  0  0  0  0
  -30.2433  -16.3223   20.5969 O   0  0  0  0  0  0
  -21.6537   -6.8603   21.4195 O   0  0  0  0  0  0
  -22.3158  -14.5688   20.7035 O   0  0  0  0  0  0
  -24.6191  -31.8983   23.2542 C   0  0  0  0  0  0
  -25.9196  -32.4922   23.8733 C   0  0  1  0  0  0
  -27.0555  -27.4618   19.9506 C   0  0  0  0  0  0
  -25.6212  -33.8765   24.2590 N   0  0  0  0  0  0
  -23.4276  -30.5101   21.6054 C   0  0  2  0  0  0
  -24.9399  -29.1923   19.9659 C   0  0  0  0  0  0
  -22.8223  -29.3808   22.4608 C   0  0  0  0  0  0
  -17.9794  -28.0306   22.9985 C   0  0  0  0  0  0
  -24.1481  -36.7312   23.2578 C   0  0  0  0  0  0
  -25.9809  -30.7605   21.5124 C   0  0  0  0  0  0
  -25.9959  -29.4176   20.8328 C   0  0  0  0  0  0
  -27.0292  -28.4608   20.9434 C   0  0  0  0  0  0
  -26.4128  -27.7398   18.7582 C   0  0  0  0  0  0
  -25.1809  -28.3926   18.8544 C   0  0  0  0  0  0
  -23.6995  -30.0405   20.1312 C   0  0  0  0  0  0
  -25.4121  -36.3158   24.0319 C   0  0  1  0  0  0
  -20.5755  -28.3233   23.1818 C   0  0  2  0  0  0
  -20.6305  -26.9000   22.7544 C   0  0  0  0  0  0
  -19.4949  -26.2439   22.0730 C   0  0  0  0  0  0
  -18.1404  -26.6627   22.4788 C   0  0  0  0  0  0
  -19.1211  -28.7911   23.3771 C   0  0  0  0  0  0
  -18.8798  -30.0499   23.9972 C   0  0  0  0  0  0
  -17.5405  -30.5420   24.1100 C   0  0  0  0  0  0
  -25.9117  -34.9511   23.5192 C   0  0  0  0  0  0
  -16.4579  -29.7618   23.6155 C   0  0  0  0  0  0
  -16.6348  -28.4718   23.0772 C   0  0  0  0  0  0
  -26.4525  -31.6711   25.1096 C   0  0  0  0  0  0
  -25.3700  -31.3869   26.1700 C   0  0  0  0  0  0
  -27.0381  -30.3079   24.6761 C   0  0  0  0  0  0
  -27.6029  -32.4453   25.7952 C   0  0  0  0  0  0
  -27.5669  -37.1753   24.8365 C   0  0  0  0  0  0
  -21.4691  -29.2531   22.3868 N   0  0  0  0  0  0
  -26.4234  -37.3933   23.9527 N   0  0  0  0  0  0
  -24.6891  -31.0798   22.1743 N   0  0  0  0  0  0
  -23.4752  -28.6868   23.2319 O   0  0  0  0  0  0
  -26.9185  -26.1223   20.2033 O   0  0  0  0  0  0
  -26.5442  -34.8853   22.4627 O   0  0  0  0  0  0
  -23.5239  -32.2085   23.7510 O   0  0  0  0  0  0
  -24.9453  -22.3358   19.4545 C   0  0  0  0  0  0
  -25.4508  -21.0348   19.7945 C   0  0  0  0  0  0
  -24.2475  -21.4034   21.8025 C   0  0  0  0  0  0
  -24.2888  -23.3079   20.2858 C   0  0  0  0  0  0
  -23.6025  -22.7574   21.3931 C   0  0  0  0  0  0
  -25.3736  -20.3776   21.1188 C   0  0  0  0  0  0
  -22.4379  -23.9515   21.7838 C   0  0  0  0  0  0
  -22.0038  -24.8247   20.5160 C   0  0  0  0  0  0
  -23.0463  -25.7192   19.7724 C   0  0  0  0  0  0
  -24.2200  -24.8265   19.6924 C   0  0  1  0  0  0
  -26.7301  -18.8619   21.3674 C   0  0  0  0  0  0
  -25.4254  -25.7702   20.1266 C   0  0  0  0  0  0
  -27.7304  -17.2171   20.8335 N   0  0  0  0  0  0
  -30.8167  -14.3305   19.1822 H   0  0  0  0  0  0
  -30.6203  -13.0406   20.3760 H   0  0  0  0  0  0
  -30.1374  -11.9939   18.1480 H   0  0  0  0  0  0
  -29.2583  -13.4305   17.6034 H   0  0  0  0  0  0
  -28.3940  -11.2528   19.4098 H   0  0  0  0  0  0
  -27.4619  -11.9681   18.0465 H   0  0  0  0  0  0
  -27.3136  -14.0719   19.1420 H   0  0  0  0  0  0
  -28.7891  -12.7260   21.4618 H   0  0  0  0  0  0
  -27.6441  -14.0908   21.7459 H   0  0  0  0  0  0
  -25.2280   -9.5749   22.4944 H   0  0  0  0  0  0
  -23.9850   -7.4525   22.7453 H   0  0  0  0  0  0
  -21.0613   -8.8288   19.8866 H   0  0  0  0  0  0
  -22.3126  -10.9457   19.6276 H   0  0  0  0  0  0
  -21.1901   -7.6025   23.9627 H   0  0  0  0  0  0
  -21.1605   -6.0504   25.9093 H   0  0  0  0  0  0
  -22.0564   -2.7451   23.2989 H   0  0  0  0  0  0
  -22.3548  -11.9802   22.4677 H   0  0  0  0  0  0
  -21.0547  -13.1248   22.3103 H   0  0  0  0  0  0
  -24.6426  -15.8717   20.4823 H   0  0  0  0  0  0
  -26.2445  -15.4678   20.0107 H   0  0  0  0  0  0
  -26.7359  -32.5247   23.1501 H   0  0  0  0  0  0
  -25.0771  -34.0139   25.0965 H   0  0  0  0  0  0
  -22.7581  -31.3758   21.5093 H   0  0  0  0  0  0
  -23.3841  -35.9508   23.2945 H   0  0  0  0  0  0
  -24.3730  -36.9180   22.2059 H   0  0  0  0  0  0
  -23.6972  -37.6360   23.6722 H   0  0  0  0  0  0
  -26.2334  -31.4991   20.7342 H   0  0  0  0  0  0
  -26.8342  -30.7385   22.1577 H   0  0  0  0  0  0
  -27.6490  -28.4260   21.8204 H   0  0  0  0  0  0
  -26.5113  -27.0616   17.9224 H   0  0  0  0  0  0
  -24.5184  -28.3792   17.9941 H   0  0  0  0  0  0
  -23.9433  -30.9295   19.5278 H   0  0  0  0  0  0
  -22.8554  -29.5064   19.6891 H   0  0  0  0  0  0
  -25.1182  -36.2158   25.0787 H   0  0  0  0  0  0
  -20.9121  -28.2336   24.2192 H   0  0  0  0  0  0
  -20.7355  -26.2307   23.6202 H   0  0  0  0  0  0
  -21.5895  -26.8557   22.2646 H   0  0  0  0  0  0
  -19.4180  -25.3253   22.5246 H   0  0  0  0  0  0
  -19.6375  -26.4889   21.0301 H   0  0  0  0  0  0
  -17.5673  -26.4916   21.5510 H   0  0  0  0  0  0
  -17.7174  -25.9009   23.1844 H   0  0  0  0  0  0
  -19.8673  -30.5823   24.1347 H   0  0  0  0  0  0
  -17.5382  -31.5247   24.3729 H   0  0  0  0  0  0
  -15.4725  -30.0967   23.5373 H   0  0  0  0  0  0
  -15.9448  -27.8358   22.5021 H   0  0  0  0  0  0
  -24.5909  -30.7272   25.7872 H   0  0  0  0  0  0
  -24.8937  -32.3050   26.5147 H   0  0  0  0  0  0
  -25.7982  -30.9006   27.0486 H   0  0  0  0  0  0
  -26.3000  -29.6891   24.1674 H   0  0  0  0  0  0
  -27.3781  -29.7363   25.5416 H   0  0  0  0  0  0
  -27.9066  -30.4243   24.0289 H   0  0  0  0  0  0
  -27.2616  -33.3710   26.2637 H   0  0  0  0  0  0
  -28.3868  -32.7142   25.0854 H   0  0  0  0  0  0
  -28.0734  -31.8602   26.5883 H   0  0  0  0  0  0
  -28.2262  -38.0447   24.8248 H   0  0  0  0  0  0
  -28.1598  -36.3156   24.5214 H   0  0  0  0  0  0
  -27.2568  -37.0180   25.8716 H   0  0  0  0  0  0
  -20.9638  -30.0155   21.9147 H   0  0  0  0  0  0
  -26.0061  -38.2876   24.2006 H   0  0  0  0  0  0
  -24.8646  -22.5743   18.3815 H   0  0  0  0  0  0
  -25.7517  -20.4113   19.0436 H   0  0  0  0  0  0
  -23.8558  -21.1726   22.7835 H   0  0  0  0  0  0
  -22.6061  -24.8478   22.4482 H   0  0  0  0  0  0
  -21.2772  -23.5463   21.9388 H   0  0  0  0  0  0
  -21.5765  -25.7355   20.6647 H   0  0  0  0  0  0
  -21.2599  -24.6599   19.8660 H   0  0  0  0  0  0
  -23.0696  -26.8487   19.9034 H   0  0  0  0  0  0
  -22.6412  -25.7515   18.7504 H   0  0  0  0  0  0
  -24.1078  -24.3501   18.6005 H   0  0  0  0  0  0
  -26.5397  -18.8124   22.4772 H   0  0  0  0  0  0
  -27.5119  -19.6319   21.2940 H   0  0  0  0  0  0
  -24.8218  -26.5946   20.7102 H   0  0  0  0  0  0
  -25.3042  -25.9023   19.0618 H   0  0  0  0  0  0
  -27.7949  -17.5648   19.8889 H   0  0  0  0  0  0
  1 25  1  0  0  0
  1 30  2  0  0  0
  1 83  1  0  0  0
  2  3  1  0  0  0
  2 25  1  0  0  0
  2 84  1  0  0  0
  2 85  1  0  0  0
  3  4  1  0  0  0
  3 86  1  0  0  0
  3 87  1  0  0  0
  4  5  1  0  0  0
  4 88  1  0  0  0
  4 89  1  0  0  0
  5  6  1  0  0  0
  5 26  1  0  0  0
  5 90  1  0  0  0
  6 25  1  0  0  0
  6 91  1  0  0  0
  6 92  1  0  0  0
  7  8  2  0  0  0
  7 26  1  0  0  0
  7 29  1  0  0  0
  8  9  1  0  0  0
  8 22  1  0  0  0
  9 10  1  0  0  0
  9 27  2  0  0  0
 10 11  2  0  0  0
 10 15  1  0  0  0
 11 12  1  0  0  0
 11 93  1  0  0  0
 12 13  2  0  0  0
 12 94  1  0  0  0
 13 14  1  0  0  0
 13 31  1  0  0  0
 14 15  2  0  0  0
 14 95  1  0  0  0
 15 96  1  0  0  0
 16 17  2  0  0  0
 16 21  1  0  0  0
 16 31  1  0  0  0
 17 18  1  0  0  0
 17 97  1  0  0  0
 18 19  2  0  0  0
 18 98  1  0  0  0
 19 20  1  0  0  0
 19 24  1  0  0  0
 20 21  2  0  0  0
 20 99  1  0  0  0
 21 23  1  0  0  0
 22 28  1  0  0  0
 22 32  2  0  0  0
 26 27  1  0  0  0
 28100  1  0  0  0
 28101  1  0  0  0
 29102  1  0  0  0
 29103  1  0  0  0
 33 34  1  0  0  0
 33 66  1  0  0  0
 33 70  2  0  0  0
 34 36  1  0  0  0
 34 59  1  0  0  0
 34104  1  0  0  0
 35 44  2  0  0  0
 35 45  1  0  0  0
 35 68  1  0  0  0
 36 56  1  0  0  0
 36105  1  0  0  0
 37 39  1  0  0  0
 37 47  1  0  0  0
 37 66  1  0  0  0
 37106  1  0  0  0
 38 43  2  0  0  0
 38 46  1  0  0  0
 38 47  1  0  0  0
 39 64  1  0  0  0
 39 67  2  0  0  0
 40 52  1  0  0  0
 40 53  2  0  0  0
 40 58  1  0  0  0
 41107  1  0  0  0
 41108  1  0  0  0
 41109  1  0  0  0
 41 48  1  0  0  0
 42 43  1  0  0  0
 42 66  1  0  0  0
 42110  1  0  0  0
 42111  1  0  0  0
 43 44  1  0  0  0
 44112  1  0  0  0
 45 46  2  0  0  0
 45113  1  0  0  0
 46114  1  0  0  0
 47115  1  0  0  0
 47116  1  0  0  0
 48 56  1  0  0  0
 48 65  1  0  0  0
 48117  1  0  0  0
 49 50  1  0  0  0
 49 53  1  0  0  0
 49 64  1  0  0  0
 49118  1  0  0  0
 50 51  1  0  0  0
 50119  1  0  0  0
 50120  1  0  0  0
 51 52  1  0  0  0
 51121  1  0  0  0
 51122  1  0  0  0
 52123  1  0  0  0
 52124  1  0  0  0
 53 54  1  0  0  0
 54 55  2  0  0  0
 54125  1  0  0  0
 55 57  1  0  0  0
 55126  1  0  0  0
 56 69  2  0  0  0
 57 58  2  0  0  0
 57127  1  0  0  0
 58128  1  0  0  0
 59 60  1  0  0  0
 59 61  1  0  0  0
 59 62  1  0  0  0
 60129  1  0  0  0
 60130  1  0  0  0
 60131  1  0  0  0
 61132  1  0  0  0
 61133  1  0  0  0
 61134  1  0  0  0
 62135  1  0  0  0
 62136  1  0  0  0
 62137  1  0  0  0
 63 65  1  0  0  0
 63138  1  0  0  0
 63139  1  0  0  0
 63140  1  0  0  0
 64141  1  0  0  0
 65142  1  0  0  0
 68 82  1  0  0  0
 71 72  2  0  0  0
 71 74  1  0  0  0
 71143  1  0  0  0
 72 76  1  0  0  0
 72144  1  0  0  0
 73 75  1  0  0  0
 73 76  2  0  0  0
 73145  1  0  0  0
 74 75  2  0  0  0
 74 80  1  0  0  0
 75 77  1  0  0  0
 76 81  1  0  0  0
 77 78  1  0  0  0
 77146  1  0  0  0
 77147  1  0  0  0
 78 79  1  0  0  0
 78148  1  0  0  0
 78149  1  0  0  0
 79 80  1  0  0  0
 79150  1  0  0  0
 79151  1  0  0  0
 80 82  1  0  0  0
 80152  1  0  0  0
 81 83  1  0  0  0
 81153  1  0  0  0
 81154  1  0  0  0
 82155  1  0  0  0
 82156  1  0  0  0
 83157  1  0  0  0
M  ISO  4   1 100  68 101  82 101  83 100
M  END
> <chiral flag>
0

> <version>
0

> <s_m_source_file>
/data/baiqing/PycharmProjects/Reinvent-master-3.2/result/LINK_invent/BTK/process_docking_weight1_custom_sum_contain_oxygen_bond_distance_aromatic_linkinvent_7_9_3/rearranged_h_0098.sdf

> <i_m_source_file_index>
50

> <r_mmod_Potential_Energy-OPLS-2005>
5861.404296875

> <r_mmod_Stretch_Energy-OPLS-2005>
1635.53210449219

> <r_mmod_Bend_Energy-OPLS-2005>
1481.46472167969

> <r_mmod_Torsional_Energy-OPLS-2005>
577.829284667969

> <r_mmod_Improper_Torsional_Energy-OPLS-2005>
40.3265838623047

> <r_mmod_Van_der_Waal_Energy-OPLS-2005>
305.156616210938

> <r_mmod_Electrostatic_Energy-OPLS-2005>
-372.013854980469

> <r_mmod_Solvation_Energy-OPLS-2005>
-219.318908691406

> <b_mmod_Minimization_Converged-OPLS-2005>
0

> <r_mmod_RMS_Derivative-OPLS-2005>
99.9990005493164

$$$$
51
                    3D
 Structure written by MMmdl.
190198  0  0  1  0            999 V2000
  -30.7890  -14.3768   20.6143 C   0  0  0  0  0  0
  -30.4011  -12.2697   19.4135 C   0  0  0  0  0  0
  -29.4846  -12.5101   18.2004 C   0  0  0  0  0  0
  -28.0064  -12.3847   18.6133 C   0  0  0  0  0  0
  -27.6632  -13.2160   19.8791 C   0  0  2  0  0  0
  -28.7047  -12.9952   20.9997 C   0  0  0  0  0  0
  -25.2580  -13.8188   20.5694 C   0  0  0  0  0  0
  -24.1835  -13.0451   20.9179 C   0  0  0  0  0  0
  -24.6399  -11.6919   20.8729 C   0  0  0  0  0  0
  -23.9071  -10.4302   21.0399 C   0  0  0  0  0  0
  -24.3619   -9.4217   21.9179 C   0  0  0  0  0  0
  -23.6296   -8.2253   22.0752 C   0  0  0  0  0  0
  -22.4280   -8.0286   21.3548 C   0  0  0  0  0  0
  -21.9917   -9.0255   20.4649 C   0  0  0  0  0  0
  -22.7237  -10.2137   20.3054 C   0  0  0  0  0  0
  -21.6857   -6.0737   22.5280 C   0  0  0  0  0  0
  -21.4015   -6.5636   23.8207 C   0  0  0  0  0  0
  -21.3661   -5.6796   24.9169 C   0  0  0  0  0  0
  -21.6046   -4.3056   24.7229 C   0  0  0  0  0  0
  -21.8821   -3.8145   23.4344 C   0  0  0  0  0  0
  -21.9190   -4.6965   22.3398 C   0  0  0  0  0  0
  -22.7859  -13.5241   21.1840 C   0  0  0  0  0  0
  -22.1661   -4.2147   21.0981 F   0  0  0  0  0  0
  -21.5631   -3.4539   25.7736 F   0  0  0  0  0  0
  -30.0420  -13.2562   20.4433 N   0  0  0  0  0  0
  -26.3037  -12.9388   20.3410 N   0  0  0  0  0  0
  -25.9335  -11.6533   20.5781 N   0  0  0  0  0  0
  -22.0512  -12.8228   22.0396 N   0  0  0  0  0  0
  -25.4295  -15.1909   20.4101 N   0  0  0  0  0  0
  -31.9040  -14.5125   20.1079 O   0  0  0  0  0  0
  -21.6645   -6.8879   21.4238 O   0  0  0  0  0  0
  -22.3548  -14.5546   20.6688 O   0  0  0  0  0  0
  -24.6136  -31.8679   23.2136 C   0  0  0  0  0  0
  -25.9045  -32.4811   23.8431 C   0  0  1  0  0  0
  -27.2154  -27.4462   20.1006 C   0  0  0  0  0  0
  -25.5933  -33.8622   24.2368 N   0  0  0  0  0  0
  -23.4018  -30.4929   21.5523 C   0  0  2  0  0  0
  -24.8493  -28.9777   20.0954 C   0  0  0  0  0  0
  -22.7427  -29.4631   22.4993 C   0  0  0  0  0  0
  -18.0257  -28.1399   22.8473 C   0  0  0  0  0  0
  -24.1491  -36.7315   23.2632 C   0  0  0  0  0  0
  -25.9284  -30.8389   21.3680 C   0  0  0  0  0  0
  -26.0060  -29.4765   20.7131 C   0  0  0  0  0  0
  -27.1946  -28.7109   20.7271 C   0  0  0  0  0  0
  -26.0698  -26.9949   19.4133 C   0  0  0  0  0  0
  -24.8751  -27.7352   19.4411 C   0  0  0  0  0  0
  -23.6076  -29.8354   20.1612 C   0  0  0  0  0  0
  -25.4099  -36.3119   24.0330 C   0  0  1  0  0  0
  -20.5857  -28.3672   23.1311 C   0  0  2  0  0  0
  -20.6756  -26.9409   22.5430 C   0  0  0  0  0  0
  -19.5728  -26.6389   21.5225 C   0  0  0  0  0  0
  -18.1896  -26.7939   22.1623 C   0  0  0  0  0  0
  -19.1514  -28.8848   23.2880 C   0  0  0  0  0  0
  -18.9450  -30.1459   23.8893 C   0  0  0  0  0  0
  -17.6451  -30.6607   24.0566 C   0  0  0  0  0  0
  -25.9026  -34.9482   23.5142 C   0  0  0  0  0  0
  -16.5332  -29.9104   23.6348 C   0  0  0  0  0  0
  -16.7250  -28.6533   23.0332 C   0  0  0  0  0  0
  -26.4481  -31.6577   25.0747 C   0  0  0  0  0  0
  -25.3749  -31.3657   26.1492 C   0  0  0  0  0  0
  -27.0308  -30.3030   24.6106 C   0  0  0  0  0  0
  -27.6074  -32.4274   25.7499 C   0  0  0  0  0  0
  -27.5576  -37.1806   24.8453 C   0  0  0  0  0  0
  -21.4151  -29.3016   22.3726 N   0  0  0  0  0  0
  -26.4294  -37.3783   23.9395 N   0  0  0  0  0  0
  -24.6653  -31.0805   22.1021 N   0  0  0  0  0  0
  -23.4192  -28.8158   23.3022 O   0  0  0  0  0  0
  -28.3090  -26.6205   20.1812 O   0  0  0  0  0  0
  -26.5579  -34.8928   22.4699 O   0  0  0  0  0  0
  -23.5348  -32.1408   23.7554 O   0  0  0  0  0  0
  -27.0396  -22.9454   23.3011 C   0  0  0  0  0  0
  -27.2160  -23.3891   21.9570 C   0  0  0  0  0  0
  -27.1192  -21.5842   23.3515 C   0  0  0  0  0  0
  -27.4933  -22.2624   21.2116 C   0  0  0  0  0  0
  -31.8516  -20.0491   19.7762 C   0  0  0  0  0  0
  -25.9439  -25.5136   22.3567 C   0  0  0  0  0  0
  -25.4990  -20.0729   24.5650 C   0  0  0  0  0  0
  -27.2786  -21.2937   25.8626 C   0  0  0  0  0  0
  -28.7065  -23.1230   19.1112 C   0  0  0  0  0  0
  -26.4931  -21.9215   18.9129 C   0  0  0  0  0  0
  -31.0126  -17.2165   19.0561 C   0  0  0  0  0  0
  -31.8107  -18.8690   20.7668 C   0  0  0  0  0  0
  -28.9733  -19.2958   21.6553 C   0  0  0  0  0  0
  -29.3019  -18.3256   20.5021 C   0  0  0  0  0  0
  -27.5084  -19.7528   21.6410 C   0  0  0  0  0  0
  -30.9120  -16.6591   21.5718 C   0  0  0  0  0  0
  -28.2906  -25.6881   21.2919 C   0  0  0  0  0  0
  -26.9981  -24.8172   21.4634 C   0  0  1  0  0  0
  -26.9282  -20.6439   24.5143 C   0  0  0  0  0  0
  -27.7799  -22.0697   19.7344 C   0  0  0  0  0  0
  -30.7495  -17.7673   20.4780 C   0  0  1  0  0  0
  -27.3752  -21.1516   22.0570 N   0  0  0  0  0  0
  -30.2274  -15.3861   21.2953 N   0  0  0  0  0  0
  -31.4481  -12.3290   19.1110 H   0  0  0  0  0  0
  -30.2659  -11.2596   19.8023 H   0  0  0  0  0  0
  -29.7124  -11.7967   17.4067 H   0  0  0  0  0  0
  -29.6716  -13.5028   17.7865 H   0  0  0  0  0  0
  -27.8016  -11.3291   18.7948 H   0  0  0  0  0  0
  -27.3603  -12.6827   17.7863 H   0  0  0  0  0  0
  -27.7111  -14.2664   19.5905 H   0  0  0  0  0  0
  -28.6596  -11.9681   21.3647 H   0  0  0  0  0  0
  -28.4790  -13.6217   21.8636 H   0  0  0  0  0  0
  -25.2764   -9.5692   22.4751 H   0  0  0  0  0  0
  -24.0000   -7.4651   22.7478 H   0  0  0  0  0  0
  -21.0849   -8.8778   19.8958 H   0  0  0  0  0  0
  -22.3698  -10.9677   19.6165 H   0  0  0  0  0  0
  -21.2009   -7.6147   23.9709 H   0  0  0  0  0  0
  -21.1484   -6.0527   25.9076 H   0  0  0  0  0  0
  -22.0596   -2.7609   23.2849 H   0  0  0  0  0  0
  -22.4130  -11.9883   22.4772 H   0  0  0  0  0  0
  -21.1127  -13.1264   22.2613 H   0  0  0  0  0  0
  -24.6633  -15.8465   20.5150 H   0  0  0  0  0  0
  -26.2859  -15.6282   20.0935 H   0  0  0  0  0  0
  -26.7115  -32.5523   23.1199 H   0  0  0  0  0  0
  -25.0105  -33.9756   25.0543 H   0  0  0  0  0  0
  -22.6902  -31.3095   21.4180 H   0  0  0  0  0  0
  -23.3750  -35.9656   23.3288 H   0  0  0  0  0  0
  -24.3614  -36.8949   22.2063 H   0  0  0  0  0  0
  -23.7261  -37.6512   23.6657 H   0  0  0  0  0  0
  -26.0414  -31.6083   20.6025 H   0  0  0  0  0  0
  -26.8169  -30.8891   21.9859 H   0  0  0  0  0  0
  -28.0785  -29.0677   21.2397 H   0  0  0  0  0  0
  -26.0867  -26.0484   18.8905 H   0  0  0  0  0  0
  -23.9919  -27.3520   18.9464 H   0  0  0  0  0  0
  -23.7017  -30.6142   19.4035 H   0  0  0  0  0  0
  -22.7342  -29.2462   19.8733 H   0  0  0  0  0  0
  -25.1290  -36.1979   25.0823 H   0  0  0  0  0  0
  -20.9908  -28.3251   24.1439 H   0  0  0  0  0  0
  -20.5724  -26.2263   23.3610 H   0  0  0  0  0  0
  -21.6619  -26.7488   22.1190 H   0  0  0  0  0  0
  -19.6914  -25.6298   21.1259 H   0  0  0  0  0  0
  -19.6710  -27.3199   20.6749 H   0  0  0  0  0  0
  -17.4186  -26.6678   21.4011 H   0  0  0  0  0  0
  -18.0282  -26.0117   22.9050 H   0  0  0  0  0  0
  -19.7926  -30.7253   24.2282 H   0  0  0  0  0  0
  -17.5016  -31.6289   24.5164 H   0  0  0  0  0  0
  -15.5341  -30.3002   23.7695 H   0  0  0  0  0  0
  -15.8631  -28.0873   22.7022 H   0  0  0  0  0  0
  -24.5969  -30.6947   25.7819 H   0  0  0  0  0  0
  -24.8864  -32.2782   26.4920 H   0  0  0  0  0  0
  -25.8122  -30.8860   27.0256 H   0  0  0  0  0  0
  -26.2841  -29.6776   24.1188 H   0  0  0  0  0  0
  -27.4096  -29.7289   25.4562 H   0  0  0  0  0  0
  -27.8678  -30.4334   23.9238 H   0  0  0  0  0  0
  -27.2733  -33.3583   26.2086 H   0  0  0  0  0  0
  -28.3883  -32.6806   25.0314 H   0  0  0  0  0  0
  -28.0731  -31.8371   26.5397 H   0  0  0  0  0  0
  -28.2575  -38.0116   24.7525 H   0  0  0  0  0  0
  -28.1096  -36.2662   24.6257 H   0  0  0  0  0  0
  -27.2298  -37.1413   25.8851 H   0  0  0  0  0  0
  -20.9322  -29.8760   21.6966 H   0  0  0  0  0  0
  -26.0196  -38.2861   24.1413 H   0  0  0  0  0  0
  -26.7997  -23.5652   24.1522 H   0  0  0  0  0  0
  -32.5117  -20.8336   20.1454 H   0  0  0  0  0  0
  -30.8701  -20.4972   19.6225 H   0  0  0  0  0  0
  -32.2358  -19.7484   18.8010 H   0  0  0  0  0  0
  -25.0219  -24.9334   22.3971 H   0  0  0  0  0  0
  -25.6667  -26.5034   22.0068 H   0  0  0  0  0  0
  -26.3046  -25.6378   23.3768 H   0  0  0  0  0  0
  -25.2227  -19.5827   23.6315 H   0  0  0  0  0  0
  -24.7622  -20.8542   24.7514 H   0  0  0  0  0  0
  -25.3979  -19.3303   25.3578 H   0  0  0  0  0  0
  -28.3047  -21.6650   25.8629 H   0  0  0  0  0  0
  -27.1908  -20.5771   26.6798 H   0  0  0  0  0  0
  -26.6192  -22.1288   26.0956 H   0  0  0  0  0  0
  -29.6338  -23.2135   19.6776 H   0  0  0  0  0  0
  -28.2427  -24.1051   19.0553 H   0  0  0  0  0  0
  -28.9775  -22.8414   18.0932 H   0  0  0  0  0  0
  -25.8563  -21.1315   19.3086 H   0  0  0  0  0  0
  -26.7218  -21.6650   17.8774 H   0  0  0  0  0  0
  -25.9125  -22.8433   18.9107 H   0  0  0  0  0  0
  -30.9047  -17.9847   18.2915 H   0  0  0  0  0  0
  -30.3110  -16.4289   18.7826 H   0  0  0  0  0  0
  -32.0246  -16.8190   18.9655 H   0  0  0  0  0  0
  -31.6766  -19.2581   21.7767 H   0  0  0  0  0  0
  -32.8040  -18.4167   20.7792 H   0  0  0  0  0  0
  -29.6098  -20.1775   21.5768 H   0  0  0  0  0  0
  -29.1966  -18.8498   22.6235 H   0  0  0  0  0  0
  -29.1113  -18.8518   19.5659 H   0  0  0  0  0  0
  -28.5921  -17.4978   20.5093 H   0  0  0  0  0  0
  -26.9120  -19.1013   22.2752 H   0  0  0  0  0  0
  -27.0685  -19.6358   20.6514 H   0  0  0  0  0  0
  -30.5564  -17.0229   22.5357 H   0  0  0  0  0  0
  -31.9723  -16.4549   21.7390 H   0  0  0  0  0  0
  -29.1441  -25.0281   21.1362 H   0  0  0  0  0  0
  -28.5177  -26.2111   22.2206 H   0  0  0  0  0  0
  -26.5492  -24.6642   20.4869 H   0  0  0  0  0  0
  -27.6131  -19.8034   24.3958 H   0  0  0  0  0  0
  -28.3349  -21.1415   19.6119 H   0  0  0  0  0  0
  -29.3029  -15.2455   21.6740 H   0  0  0  0  0  0
  1 25  1  0  0  0
  1 30  2  0  0  0
  1 93  1  0  0  0
  2  3  1  0  0  0
  2 25  1  0  0  0
  2 94  1  0  0  0
  2 95  1  0  0  0
  3  4  1  0  0  0
  3 96  1  0  0  0
  3 97  1  0  0  0
  4  5  1  0  0  0
  4 98  1  0  0  0
  4 99  1  0  0  0
  5  6  1  0  0  0
  5 26  1  0  0  0
  5100  1  0  0  0
  6 25  1  0  0  0
  6101  1  0  0  0
  6102  1  0  0  0
  7  8  2  0  0  0
  7 26  1  0  0  0
  7 29  1  0  0  0
  8  9  1  0  0  0
  8 22  1  0  0  0
  9 10  1  0  0  0
  9 27  2  0  0  0
 10 11  2  0  0  0
 10 15  1  0  0  0
 11 12  1  0  0  0
 11103  1  0  0  0
 12 13  2  0  0  0
 12104  1  0  0  0
 13 14  1  0  0  0
 13 31  1  0  0  0
 14 15  2  0  0  0
 14105  1  0  0  0
 15106  1  0  0  0
 16 17  2  0  0  0
 16 21  1  0  0  0
 16 31  1  0  0  0
 17 18  1  0  0  0
 17107  1  0  0  0
 18 19  2  0  0  0
 18108  1  0  0  0
 19 20  1  0  0  0
 19 24  1  0  0  0
 20 21  2  0  0  0
 20109  1  0  0  0
 21 23  1  0  0  0
 22 28  1  0  0  0
 22 32  2  0  0  0
 26 27  1  0  0  0
 28110  1  0  0  0
 28111  1  0  0  0
 29112  1  0  0  0
 29113  1  0  0  0
 33 34  1  0  0  0
 33 66  1  0  0  0
 33 70  2  0  0  0
 34 36  1  0  0  0
 34 59  1  0  0  0
 34114  1  0  0  0
 35 44  2  0  0  0
 35 45  1  0  0  0
 35 68  1  0  0  0
 36 56  1  0  0  0
 36115  1  0  0  0
 37 39  1  0  0  0
 37 47  1  0  0  0
 37 66  1  0  0  0
 37116  1  0  0  0
 38 43  2  0  0  0
 38 46  1  0  0  0
 38 47  1  0  0  0
 39 64  1  0  0  0
 39 67  2  0  0  0
 40 52  1  0  0  0
 40 53  2  0  0  0
 40 58  1  0  0  0
 41117  1  0  0  0
 41118  1  0  0  0
 41119  1  0  0  0
 41 48  1  0  0  0
 42 43  1  0  0  0
 42 66  1  0  0  0
 42120  1  0  0  0
 42121  1  0  0  0
 43 44  1  0  0  0
 44122  1  0  0  0
 45 46  2  0  0  0
 45123  1  0  0  0
 46124  1  0  0  0
 47125  1  0  0  0
 47126  1  0  0  0
 48 56  1  0  0  0
 48 65  1  0  0  0
 48127  1  0  0  0
 49 50  1  0  0  0
 49 53  1  0  0  0
 49 64  1  0  0  0
 49128  1  0  0  0
 50 51  1  0  0  0
 50129  1  0  0  0
 50130  1  0  0  0
 51 52  1  0  0  0
 51131  1  0  0  0
 51132  1  0  0  0
 52133  1  0  0  0
 52134  1  0  0  0
 53 54  1  0  0  0
 54 55  2  0  0  0
 54135  1  0  0  0
 55 57  1  0  0  0
 55136  1  0  0  0
 56 69  2  0  0  0
 57 58  2  0  0  0
 57137  1  0  0  0
 58138  1  0  0  0
 59 60  1  0  0  0
 59 61  1  0  0  0
 59 62  1  0  0  0
 60139  1  0  0  0
 60140  1  0  0  0
 60141  1  0  0  0
 61142  1  0  0  0
 61143  1  0  0  0
 61144  1  0  0  0
 62145  1  0  0  0
 62146  1  0  0  0
 62147  1  0  0  0
 63 65  1  0  0  0
 63148  1  0  0  0
 63149  1  0  0  0
 63150  1  0  0  0
 64151  1  0  0  0
 65152  1  0  0  0
 68 87  1  0  0  0
 71 72  1  0  0  0
 71 73  2  0  0  0
 71153  1  0  0  0
 72 74  2  0  0  0
 72 88  1  0  0  0
 73 89  1  0  0  0
 73 92  1  0  0  0
 74 90  1  0  0  0
 74 92  1  0  0  0
 75 82  1  0  0  0
 75154  1  0  0  0
 75155  1  0  0  0
 75156  1  0  0  0
 76157  1  0  0  0
 76158  1  0  0  0
 76159  1  0  0  0
 76 88  1  0  0  0
 77160  1  0  0  0
 77161  1  0  0  0
 77162  1  0  0  0
 77 89  1  0  0  0
 78 89  1  0  0  0
 78163  1  0  0  0
 78164  1  0  0  0
 78165  1  0  0  0
 79166  1  0  0  0
 79167  1  0  0  0
 79168  1  0  0  0
 79 90  1  0  0  0
 80 90  1  0  0  0
 80169  1  0  0  0
 80170  1  0  0  0
 80171  1  0  0  0
 81172  1  0  0  0
 81173  1  0  0  0
 81174  1  0  0  0
 81 91  1  0  0  0
 82 91  1  0  0  0
 82175  1  0  0  0
 82176  1  0  0  0
 83 84  1  0  0  0
 83 85  1  0  0  0
 83177  1  0  0  0
 83178  1  0  0  0
 84 91  1  0  0  0
 84179  1  0  0  0
 84180  1  0  0  0
 85 92  1  0  0  0
 85181  1  0  0  0
 85182  1  0  0  0
 86 91  1  0  0  0
 86 93  1  0  0  0
 86183  1  0  0  0
 86184  1  0  0  0
 87 88  1  0  0  0
 87185  1  0  0  0
 87186  1  0  0  0
 88187  1  0  0  0
 89188  1  0  0  0
 90189  1  0  0  0
 93190  1  0  0  0
M  ISO  4   1 100  68 101  87 101  93 100
M  END
> <chiral flag>
0

> <version>
0

> <s_m_source_file>
/data/baiqing/PycharmProjects/Reinvent-master-3.2/result/LINK_invent/BTK/process_docking_weight1_custom_sum_contain_oxygen_bond_distance_aromatic_linkinvent_7_9_3/rearranged_h_0098.sdf

> <i_m_source_file_index>
51

> <r_mmod_Potential_Energy-OPLS-2005>
-64.9098052978516

> <r_mmod_Stretch_Energy-OPLS-2005>
41.1979789733887

> <r_mmod_Bend_Energy-OPLS-2005>
118.546081542969

> <r_mmod_Torsional_Energy-OPLS-2005>
286.790588378906

> <r_mmod_Improper_Torsional_Energy-OPLS-2005>
2.89363765716553

> <r_mmod_Van_der_Waal_Energy-OPLS-2005>
137.1435546875

> <r_mmod_Electrostatic_Energy-OPLS-2005>
-485.470153808594

> <r_mmod_Solvation_Energy-OPLS-2005>
-184.479782104492

> <b_mmod_Minimization_Converged-OPLS-2005>
0

> <r_mmod_RMS_Derivative-OPLS-2005>
2.78288340568542

$$$$
52
                    3D
 Structure written by MMmdl.
164171  0  0  1  0            999 V2000
  -30.5751  -14.9456   20.4037 C   0  0  0  0  0  0
  -30.4468  -12.5927   19.4768 C   0  0  0  0  0  0
  -29.5197  -12.5167   18.2414 C   0  0  0  0  0  0
  -28.0530  -12.3190   18.6689 C   0  0  0  0  0  0
  -27.6352  -13.2478   19.8392 C   0  0  2  0  0  0
  -28.6908  -13.2927   20.9653 C   0  0  0  0  0  0
  -25.2527  -13.8206   20.5772 C   0  0  0  0  0  0
  -24.1839  -13.0435   20.9238 C   0  0  0  0  0  0
  -24.6432  -11.6914   20.8750 C   0  0  0  0  0  0
  -23.9085  -10.4295   21.0384 C   0  0  0  0  0  0
  -24.3628   -9.4211   21.9169 C   0  0  0  0  0  0
  -23.6303   -8.2237   22.0742 C   0  0  0  0  0  0
  -22.4290   -8.0266   21.3526 C   0  0  0  0  0  0
  -21.9919   -9.0251   20.4631 C   0  0  0  0  0  0
  -22.7244  -10.2141   20.3048 C   0  0  0  0  0  0
  -21.6868   -6.0726   22.5268 C   0  0  0  0  0  0
  -21.4012   -6.5634   23.8197 C   0  0  0  0  0  0
  -21.3661   -5.6783   24.9165 C   0  0  0  0  0  0
  -21.6063   -4.3046   24.7215 C   0  0  0  0  0  0
  -21.8825   -3.8136   23.4335 C   0  0  0  0  0  0
  -21.9207   -4.6955   22.3390 C   0  0  0  0  0  0
  -22.7858  -13.5222   21.1874 C   0  0  0  0  0  0
  -22.1679   -4.2143   21.0964 F   0  0  0  0  0  0
  -21.5631   -3.4527   25.7720 F   0  0  0  0  0  0
  -29.9575  -13.6982   20.3444 N   0  0  0  0  0  0
  -26.2959  -12.9448   20.3315 N   0  0  0  0  0  0
  -25.9378  -11.6569   20.5767 N   0  0  0  0  0  0
  -22.0511  -12.8210   22.0414 N   0  0  0  0  0  0
  -25.4190  -15.1926   20.4203 N   0  0  0  0  0  0
  -31.7870  -14.9896   20.1803 O   0  0  0  0  0  0
  -21.6660   -6.8863   21.4228 O   0  0  0  0  0  0
  -22.3565  -14.5522   20.6707 O   0  0  0  0  0  0
  -24.6421  -31.8444   23.1890 C   0  0  0  0  0  0
  -25.9188  -32.4700   23.8284 C   0  0  1  0  0  0
  -27.2192  -27.1429   20.1399 C   0  0  0  0  0  0
  -25.5942  -33.8502   24.2209 N   0  0  0  0  0  0
  -23.4454  -30.4619   21.5367 C   0  0  2  0  0  0
  -24.8960  -28.8943   20.1056 C   0  0  0  0  0  0
  -22.7560  -29.4533   22.4891 C   0  0  0  0  0  0
  -18.0303  -28.1364   22.8489 C   0  0  0  0  0  0
  -24.1488  -36.7265   23.2644 C   0  0  0  0  0  0
  -26.0006  -30.7168   21.3883 C   0  0  0  0  0  0
  -26.0718  -29.3294   20.7293 C   0  0  0  0  0  0
  -27.2323  -28.4680   20.7339 C   0  0  0  0  0  0
  -26.0227  -26.8217   19.4580 C   0  0  0  0  0  0
  -24.8851  -27.6547   19.4527 C   0  0  0  0  0  0
  -23.6681  -29.7882   20.1558 C   0  0  0  0  0  0
  -25.4117  -36.3042   24.0327 C   0  0  1  0  0  0
  -20.5916  -28.3689   23.1254 C   0  0  2  0  0  0
  -20.6780  -26.9393   22.5408 C   0  0  0  0  0  0
  -19.5749  -26.6355   21.5219 C   0  0  0  0  0  0
  -18.1936  -26.7908   22.1630 C   0  0  0  0  0  0
  -19.1560  -28.8852   23.2860 C   0  0  0  0  0  0
  -18.9471  -30.1455   23.8874 C   0  0  0  0  0  0
  -17.6464  -30.6566   24.0548 C   0  0  0  0  0  0
  -25.9064  -34.9414   23.5075 C   0  0  0  0  0  0
  -16.5365  -29.9052   23.6326 C   0  0  0  0  0  0
  -16.7287  -28.6471   23.0360 C   0  0  0  0  0  0
  -26.4510  -31.6563   25.0719 C   0  0  0  0  0  0
  -25.3701  -31.3737   26.1424 C   0  0  0  0  0  0
  -27.0367  -30.2962   24.6275 C   0  0  0  0  0  0
  -27.6042  -32.4327   25.7497 C   0  0  0  0  0  0
  -27.5582  -37.1782   24.8463 C   0  0  0  0  0  0
  -21.4264  -29.3024   22.3640 N   0  0  0  0  0  0
  -26.4290  -37.3759   23.9418 N   0  0  0  0  0  0
  -24.7161  -31.0298   22.0930 N   0  0  0  0  0  0
  -23.4225  -28.8080   23.3029 O   0  0  0  0  0  0
  -28.2697  -26.1540   20.2268 O   0  0  0  0  0  0
  -26.5655  -34.8910   22.4658 O   0  0  0  0  0  0
  -23.5539  -32.1333   23.7102 O   0  0  0  0  0  0
  -27.0069  -24.3500   21.3683 C   0  0  0  0  0  0
  -29.0218  -23.2295   17.4671 C   0  0  0  0  0  0
  -30.5943  -21.3909   17.8362 C   0  0  0  0  0  0
  -28.0760  -20.9770   17.5471 C   0  0  0  0  0  0
  -29.3343  -18.9967   20.0673 C   0  0  0  0  0  0
  -30.2154  -17.6721   20.6374 C   0  0  0  0  0  0
  -29.5883  -20.6393   20.4561 C   0  0  0  0  0  0
  -29.1328  -23.3707   20.3144 C   0  0  0  0  0  0
  -27.9887  -24.6144   20.2102 C   0  0  2  0  0  0
  -29.1596  -21.8638   18.2010 C   0  0  0  0  0  0
  -29.8164  -16.1441   20.5037 N   0  0  0  0  0  0
  -28.9356  -21.9037   19.7082 N   0  3  1  0  0  0
  -31.4772  -12.7503   19.1548 H   0  0  0  0  0  0
  -30.4460  -11.6472   20.0224 H   0  0  0  0  0  0
  -29.8269  -11.6953   17.5918 H   0  0  0  0  0  0
  -29.6136  -13.4247   17.6441 H   0  0  0  0  0  0
  -27.9435  -11.2784   18.9732 H   0  0  0  0  0  0
  -27.3869  -12.4620   17.8167 H   0  0  0  0  0  0
  -27.5895  -14.2468   19.4071 H   0  0  0  0  0  0
  -28.7935  -12.3300   21.4676 H   0  0  0  0  0  0
  -28.4032  -14.0124   21.7333 H   0  0  0  0  0  0
  -25.2775   -9.5711   22.4750 H   0  0  0  0  0  0
  -24.0034   -7.4637   22.7464 H   0  0  0  0  0  0
  -21.0846   -8.8763   19.8927 H   0  0  0  0  0  0
  -22.3684  -10.9684   19.6163 H   0  0  0  0  0  0
  -21.2006   -7.6144   23.9689 H   0  0  0  0  0  0
  -21.1477   -6.0521   25.9062 H   0  0  0  0  0  0
  -22.0612   -2.7602   23.2840 H   0  0  0  0  0  0
  -22.4171  -11.9889   22.4819 H   0  0  0  0  0  0
  -21.1111  -13.1197   22.2551 H   0  0  0  0  0  0
  -24.6524  -15.8444   20.5435 H   0  0  0  0  0  0
  -26.2599  -15.6346   20.0721 H   0  0  0  0  0  0
  -26.7250  -32.5305   23.1013 H   0  0  0  0  0  0
  -25.0059  -33.9626   25.0336 H   0  0  0  0  0  0
  -22.7472  -31.2878   21.3818 H   0  0  0  0  0  0
  -23.3763  -35.9580   23.3275 H   0  0  0  0  0  0
  -24.3586  -36.8924   22.2065 H   0  0  0  0  0  0
  -23.7214  -37.6445   23.6689 H   0  0  0  0  0  0
  -26.1514  -31.4684   20.6131 H   0  0  0  0  0  0
  -26.8737  -30.7727   22.0263 H   0  0  0  0  0  0
  -28.1219  -28.7906   21.2563 H   0  0  0  0  0  0
  -25.9222  -25.8802   18.9416 H   0  0  0  0  0  0
  -23.9907  -27.3222   18.9433 H   0  0  0  0  0  0
  -23.7910  -30.5596   19.3954 H   0  0  0  0  0  0
  -22.7857  -29.2203   19.8543 H   0  0  0  0  0  0
  -25.1294  -36.1889   25.0821 H   0  0  0  0  0  0
  -21.0010  -28.3260   24.1380 H   0  0  0  0  0  0
  -20.5662  -26.2301   23.3627 H   0  0  0  0  0  0
  -21.6642  -26.7377   22.1211 H   0  0  0  0  0  0
  -19.6897  -25.6263   21.1254 H   0  0  0  0  0  0
  -19.6673  -27.3167   20.6753 H   0  0  0  0  0  0
  -17.4204  -26.6680   21.4033 H   0  0  0  0  0  0
  -18.0314  -26.0043   22.9013 H   0  0  0  0  0  0
  -19.7948  -30.7281   24.2227 H   0  0  0  0  0  0
  -17.5008  -31.6248   24.5142 H   0  0  0  0  0  0
  -15.5356  -30.2930   23.7646 H   0  0  0  0  0  0
  -15.8707  -28.0761   22.7086 H   0  0  0  0  0  0
  -24.5838  -30.7150   25.7726 H   0  0  0  0  0  0
  -24.8947  -32.2918   26.4885 H   0  0  0  0  0  0
  -25.7988  -30.8853   27.0185 H   0  0  0  0  0  0
  -26.2977  -29.6695   24.1270 H   0  0  0  0  0  0
  -27.3980  -29.7251   25.4838 H   0  0  0  0  0  0
  -27.8888  -30.4216   23.9591 H   0  0  0  0  0  0
  -27.2621  -33.3610   26.2087 H   0  0  0  0  0  0
  -28.3837  -32.6925   25.0321 H   0  0  0  0  0  0
  -28.0732  -31.8454   26.5404 H   0  0  0  0  0  0
  -28.2576  -38.0102   24.7538 H   0  0  0  0  0  0
  -28.1099  -36.2635   24.6245 H   0  0  0  0  0  0
  -27.2312  -37.1383   25.8869 H   0  0  0  0  0  0
  -20.9480  -29.8753   21.6829 H   0  0  0  0  0  0
  -26.0160  -38.2828   24.1421 H   0  0  0  0  0  0
  -26.7248  -23.2976   21.4063 H   0  0  0  0  0  0
  -26.0809  -24.9160   21.2854 H   0  0  0  0  0  0
  -27.4606  -24.6048   22.3249 H   0  0  0  0  0  0
  -29.2772  -23.1213   16.4117 H   0  0  0  0  0  0
  -29.6953  -24.0022   17.8329 H   0  0  0  0  0  0
  -28.0065  -23.6166   17.4647 H   0  0  0  0  0  0
  -30.7276  -21.3252   16.7556 H   0  0  0  0  0  0
  -30.8709  -20.4130   18.2212 H   0  0  0  0  0  0
  -31.3420  -22.1013   18.1922 H   0  0  0  0  0  0
  -28.2229  -20.8975   16.4697 H   0  0  0  0  0  0
  -27.0819  -21.4007   17.6951 H   0  0  0  0  0  0
  -28.0303  -19.9631   17.9256 H   0  0  0  0  0  0
  -28.2827  -18.7998   20.2757 H   0  0  0  0  0  0
  -29.4345  -18.8876   18.9925 H   0  0  0  0  0  0
  -30.3580  -17.8381   21.7056 H   0  0  0  0  0  0
  -31.2177  -17.7528   20.2141 H   0  0  0  0  0  0
  -30.6644  -20.8134   20.4732 H   0  0  0  0  0  0
  -29.3065  -20.7448   21.5038 H   0  0  0  0  0  0
  -29.3267  -23.2215   21.3760 H   0  0  0  0  0  0
  -30.0866  -23.7526   19.9524 H   0  0  0  0  0  0
  -27.4360  -24.4368   19.2970 H   0  0  0  0  0  0
  -28.8255  -15.9712   20.5723 H   0  0  0  0  0  0
  -27.9446  -21.7467   19.8232 H   0  0  0  0  0  0
  1 25  1  0  0  0
  1 30  2  0  0  0
  1 81  1  0  0  0
  2  3  1  0  0  0
  2 25  1  0  0  0
  2 83  1  0  0  0
  2 84  1  0  0  0
  3  4  1  0  0  0
  3 85  1  0  0  0
  3 86  1  0  0  0
  4  5  1  0  0  0
  4 87  1  0  0  0
  4 88  1  0  0  0
  5  6  1  0  0  0
  5 26  1  0  0  0
  5 89  1  0  0  0
  6 25  1  0  0  0
  6 90  1  0  0  0
  6 91  1  0  0  0
  7  8  2  0  0  0
  7 26  1  0  0  0
  7 29  1  0  0  0
  8  9  1  0  0  0
  8 22  1  0  0  0
  9 10  1  0  0  0
  9 27  2  0  0  0
 10 11  2  0  0  0
 10 15  1  0  0  0
 11 12  1  0  0  0
 11 92  1  0  0  0
 12 13  2  0  0  0
 12 93  1  0  0  0
 13 14  1  0  0  0
 13 31  1  0  0  0
 14 15  2  0  0  0
 14 94  1  0  0  0
 15 95  1  0  0  0
 16 17  2  0  0  0
 16 21  1  0  0  0
 16 31  1  0  0  0
 17 18  1  0  0  0
 17 96  1  0  0  0
 18 19  2  0  0  0
 18 97  1  0  0  0
 19 20  1  0  0  0
 19 24  1  0  0  0
 20 21  2  0  0  0
 20 98  1  0  0  0
 21 23  1  0  0  0
 22 28  1  0  0  0
 22 32  2  0  0  0
 26 27  1  0  0  0
 28 99  1  0  0  0
 28100  1  0  0  0
 29101  1  0  0  0
 29102  1  0  0  0
 33 34  1  0  0  0
 33 66  1  0  0  0
 33 70  2  0  0  0
 34 36  1  0  0  0
 34 59  1  0  0  0
 34103  1  0  0  0
 35 44  2  0  0  0
 35 45  1  0  0  0
 35 68  1  0  0  0
 36 56  1  0  0  0
 36104  1  0  0  0
 37 39  1  0  0  0
 37 47  1  0  0  0
 37 66  1  0  0  0
 37105  1  0  0  0
 38 43  2  0  0  0
 38 46  1  0  0  0
 38 47  1  0  0  0
 39 64  1  0  0  0
 39 67  2  0  0  0
 40 52  1  0  0  0
 40 53  2  0  0  0
 40 58  1  0  0  0
 41106  1  0  0  0
 41107  1  0  0  0
 41108  1  0  0  0
 41 48  1  0  0  0
 42 43  1  0  0  0
 42 66  1  0  0  0
 42109  1  0  0  0
 42110  1  0  0  0
 43 44  1  0  0  0
 44111  1  0  0  0
 45 46  2  0  0  0
 45112  1  0  0  0
 46113  1  0  0  0
 47114  1  0  0  0
 47115  1  0  0  0
 48 56  1  0  0  0
 48 65  1  0  0  0
 48116  1  0  0  0
 49 50  1  0  0  0
 49 53  1  0  0  0
 49 64  1  0  0  0
 49117  1  0  0  0
 50 51  1  0  0  0
 50118  1  0  0  0
 50119  1  0  0  0
 51 52  1  0  0  0
 51120  1  0  0  0
 51121  1  0  0  0
 52122  1  0  0  0
 52123  1  0  0  0
 53 54  1  0  0  0
 54 55  2  0  0  0
 54124  1  0  0  0
 55 57  1  0  0  0
 55125  1  0  0  0
 56 69  2  0  0  0
 57 58  2  0  0  0
 57126  1  0  0  0
 58127  1  0  0  0
 59 60  1  0  0  0
 59 61  1  0  0  0
 59 62  1  0  0  0
 60128  1  0  0  0
 60129  1  0  0  0
 60130  1  0  0  0
 61131  1  0  0  0
 61132  1  0  0  0
 61133  1  0  0  0
 62134  1  0  0  0
 62135  1  0  0  0
 62136  1  0  0  0
 63 65  1  0  0  0
 63137  1  0  0  0
 63138  1  0  0  0
 63139  1  0  0  0
 64140  1  0  0  0
 65141  1  0  0  0
 68 79  1  0  0  0
 71142  1  0  0  0
 71143  1  0  0  0
 71144  1  0  0  0
 71 79  1  0  0  0
 72145  1  0  0  0
 72146  1  0  0  0
 72147  1  0  0  0
 72 80  1  0  0  0
 73 80  1  0  0  0
 73148  1  0  0  0
 73149  1  0  0  0
 73150  1  0  0  0
 74 80  1  0  0  0
 74151  1  0  0  0
 74152  1  0  0  0
 74153  1  0  0  0
 75 76  1  0  0  0
 75 77  1  0  0  0
 75154  1  0  0  0
 75155  1  0  0  0
 76 81  1  0  0  0
 76156  1  0  0  0
 76157  1  0  0  0
 77158  1  0  0  0
 77159  1  0  0  0
 77 82  1  0  0  0
 78 79  1  0  0  0
 78 82  1  0  0  0
 78160  1  0  0  0
 78161  1  0  0  0
 79162  1  0  0  0
 80 82  1  0  0  0
 81163  1  0  0  0
 82164  1  0  0  0
M  CHG  1  82   1
M  ISO  4   1 100  68 101  79 101  81 100
M  END
> <chiral flag>
0

> <version>
0

> <s_m_source_file>
/data/baiqing/PycharmProjects/Reinvent-master-3.2/result/LINK_invent/BTK/process_docking_weight1_custom_sum_contain_oxygen_bond_distance_aromatic_linkinvent_7_9_3/rearranged_h_0098.sdf

> <i_m_source_file_index>
52

> <r_mmod_Potential_Energy-OPLS-2005>
469.035308837891

> <r_mmod_Stretch_Energy-OPLS-2005>
290.374206542969

> <r_mmod_Bend_Energy-OPLS-2005>
278.610046386719

> <r_mmod_Torsional_Energy-OPLS-2005>
239.960144042969

> <r_mmod_Improper_Torsional_Energy-OPLS-2005>
4.30757808685303

> <r_mmod_Van_der_Waal_Energy-OPLS-2005>
136.001541137695

> <r_mmod_Electrostatic_Energy-OPLS-2005>
-246.119598388672

> <r_mmod_Solvation_Energy-OPLS-2005>
-425.412841796875

> <b_mmod_Minimization_Converged-OPLS-2005>
0

> <r_mmod_RMS_Derivative-OPLS-2005>
3.22330856323242

$$$$
53
                    3D
 Structure written by MMmdl.
175183  0  0  1  0            999 V2000
  -30.7407  -14.5258   20.5418 C   0  0  0  0  0  0
  -30.4141  -12.3411   19.4318 C   0  0  0  0  0  0
  -29.4871  -12.4763   18.2084 C   0  0  0  0  0  0
  -28.0147  -12.2931   18.6254 C   0  0  0  0  0  0
  -27.6397  -13.1669   19.8482 C   0  0  2  0  0  0
  -28.6961  -13.0452   20.9789 C   0  0  0  0  0  0
  -25.2541  -13.8036   20.5624 C   0  0  0  0  0  0
  -24.1785  -13.0373   20.9201 C   0  0  0  0  0  0
  -24.6305  -11.6828   20.8783 C   0  0  0  0  0  0
  -23.8980  -10.4254   21.0450 C   0  0  0  0  0  0
  -24.3567   -9.4176   21.9204 C   0  0  0  0  0  0
  -23.6260   -8.2203   22.0751 C   0  0  0  0  0  0
  -22.4242   -8.0256   21.3540 C   0  0  0  0  0  0
  -21.9871   -9.0218   20.4639 C   0  0  0  0  0  0
  -22.7182  -10.2103   20.3073 C   0  0  0  0  0  0
  -21.6828   -6.0726   22.5288 C   0  0  0  0  0  0
  -21.3992   -6.5627   23.8224 C   0  0  0  0  0  0
  -21.3657   -5.6781   24.9180 C   0  0  0  0  0  0
  -21.6056   -4.3047   24.7225 C   0  0  0  0  0  0
  -21.8820   -3.8143   23.4342 C   0  0  0  0  0  0
  -21.9178   -4.6960   22.3403 C   0  0  0  0  0  0
  -22.7828  -13.5229   21.1851 C   0  0  0  0  0  0
  -22.1648   -4.2148   21.0978 F   0  0  0  0  0  0
  -21.5632   -3.4539   25.7743 F   0  0  0  0  0  0
  -30.0108  -13.3730   20.4076 N   0  0  0  0  0  0
  -26.2908  -12.9107   20.3286 N   0  0  0  0  0  0
  -25.9205  -11.6326   20.5790 N   0  0  0  0  0  0
  -22.0438  -12.8266   22.0414 N   0  0  0  0  0  0
  -25.4246  -15.1748   20.3938 N   0  0  0  0  0  0
  -31.9191  -14.5589   20.1754 O   0  0  0  0  0  0
  -21.6598   -6.8872   21.4251 O   0  0  0  0  0  0
  -22.3550  -14.5535   20.6670 O   0  0  0  0  0  0
  -24.6107  -31.8689   23.2131 C   0  0  0  0  0  0
  -25.9007  -32.4834   23.8417 C   0  0  1  0  0  0
  -27.2449  -27.4663   20.0798 C   0  0  0  0  0  0
  -25.5877  -33.8637   24.2345 N   0  0  0  0  0  0
  -23.3984  -30.4921   21.5520 C   0  0  2  0  0  0
  -24.8447  -28.9559   20.1171 C   0  0  0  0  0  0
  -22.7397  -29.4651   22.5000 C   0  0  0  0  0  0
  -18.0262  -28.1387   22.8495 C   0  0  0  0  0  0
  -24.1480  -36.7326   23.2640 C   0  0  0  0  0  0
  -25.9226  -30.8399   21.3634 C   0  0  0  0  0  0
  -25.9985  -29.4732   20.7170 C   0  0  0  0  0  0
  -27.1945  -28.7267   20.7104 C   0  0  0  0  0  0
  -26.0714  -26.9477   19.4861 C   0  0  0  0  0  0
  -24.8713  -27.6872   19.5087 C   0  0  0  0  0  0
  -23.6071  -29.8228   20.1660 C   0  0  0  0  0  0
  -25.4096  -36.3124   24.0345 C   0  0  1  0  0  0
  -20.5850  -28.3659   23.1334 C   0  0  2  0  0  0
  -20.6753  -26.9398   22.5429 C   0  0  0  0  0  0
  -19.5730  -26.6392   21.5223 C   0  0  0  0  0  0
  -18.1909  -26.7935   22.1632 C   0  0  0  0  0  0
  -19.1512  -28.8839   23.2914 C   0  0  0  0  0  0
  -18.9447  -30.1449   23.8918 C   0  0  0  0  0  0
  -17.6450  -30.6595   24.0569 C   0  0  0  0  0  0
  -25.9026  -34.9483   23.5141 C   0  0  0  0  0  0
  -16.5339  -29.9106   23.6317 C   0  0  0  0  0  0
  -16.7252  -28.6522   23.0338 C   0  0  0  0  0  0
  -26.4455  -31.6608   25.0734 C   0  0  0  0  0  0
  -25.3747  -31.3701   26.1508 C   0  0  0  0  0  0
  -27.0271  -30.3054   24.6077 C   0  0  0  0  0  0
  -27.6047  -32.4320   25.7479 C   0  0  0  0  0  0
  -27.5577  -37.1810   24.8460 C   0  0  0  0  0  0
  -21.4130  -29.3027   22.3747 N   0  0  0  0  0  0
  -26.4282  -37.3805   23.9419 N   0  0  0  0  0  0
  -24.6620  -31.0810   22.1023 N   0  0  0  0  0  0
  -23.4176  -28.8185   23.3026 O   0  0  0  0  0  0
  -28.4443  -26.7938   20.0878 O   0  0  0  0  0  0
  -26.5595  -34.8923   22.4706 O   0  0  0  0  0  0
  -23.5305  -32.1432   23.7540 O   0  0  0  0  0  0
  -31.6115  -19.0639   20.2423 C   0  0  0  0  0  0
  -30.0100  -20.4334   20.9346 C   0  0  0  0  0  0
  -30.8376  -18.3294   21.1132 C   0  0  0  0  0  0
  -29.8471  -19.2547   21.6155 C   0  0  0  0  0  0
  -27.3977  -19.5529   22.1978 C   0  0  0  0  0  0
  -29.1793  -19.6961   23.9879 C   0  0  0  0  0  0
  -30.4380  -25.4442   16.4513 C   0  0  0  0  0  0
  -28.8143  -16.1132   20.5382 C   0  0  0  0  0  0
  -31.0569  -16.8176   21.3918 C   0  0  0  0  0  0
  -31.2008  -22.7541   19.2414 C   0  0  0  0  0  0
  -30.6500  -23.4113   17.9551 C   0  0  0  0  0  0
  -30.2614  -25.7695   18.9858 C   0  0  0  0  0  0
  -31.5132  -21.2512   19.0299 C   0  0  0  0  0  0
  -28.7273  -25.8797   19.0353 C   0  0  0  0  0  0
  -28.7685  -19.0353   22.6666 C   0  0  0  0  0  0
  -30.8689  -24.9325   17.8375 C   0  0  2  0  0  0
  -31.0728  -20.3185   20.0646 N   0  0  0  0  0  0
  -30.1568  -15.6887   20.9885 N   0  0  0  0  0  0
  -31.4560  -12.4308   19.1208 H   0  0  0  0  0  0
  -30.3266  -11.3482   19.8745 H   0  0  0  0  0  0
  -29.7581  -11.7417   17.4485 H   0  0  0  0  0  0
  -29.6214  -13.4567   17.7510 H   0  0  0  0  0  0
  -27.8685  -11.2407   18.8661 H   0  0  0  0  0  0
  -27.3544  -12.5058   17.7839 H   0  0  0  0  0  0
  -27.6208  -14.1677   19.4433 H   0  0  0  0  0  0
  -28.7097  -12.0242   21.3651 H   0  0  0  0  0  0
  -28.4603  -13.6662   21.8418 H   0  0  0  0  0  0
  -25.2714   -9.5647   22.4777 H   0  0  0  0  0  0
  -23.9970   -7.4597   22.7465 H   0  0  0  0  0  0
  -21.0799   -8.8733   19.8955 H   0  0  0  0  0  0
  -22.3644  -10.9644   19.6187 H   0  0  0  0  0  0
  -21.1973   -7.6134   23.9733 H   0  0  0  0  0  0
  -21.1487   -6.0500   25.9089 H   0  0  0  0  0  0
  -22.0607   -2.7609   23.2833 H   0  0  0  0  0  0
  -22.3994  -11.9915   22.4829 H   0  0  0  0  0  0
  -21.1074  -13.1369   22.2608 H   0  0  0  0  0  0
  -24.6565  -15.8291   20.5018 H   0  0  0  0  0  0
  -26.2756  -15.6156   20.0693 H   0  0  0  0  0  0
  -26.7077  -32.5553   23.1186 H   0  0  0  0  0  0
  -25.0017  -33.9802   25.0482 H   0  0  0  0  0  0
  -22.6848  -31.3072   21.4138 H   0  0  0  0  0  0
  -23.3736  -35.9669   23.3319 H   0  0  0  0  0  0
  -24.3571  -36.8921   22.2050 H   0  0  0  0  0  0
  -23.7233  -37.6539   23.6637 H   0  0  0  0  0  0
  -26.0261  -31.6019   20.5899 H   0  0  0  0  0  0
  -26.8141  -30.8998   21.9761 H   0  0  0  0  0  0
  -28.0866  -29.1219   21.1756 H   0  0  0  0  0  0
  -26.0703  -25.9754   19.0143 H   0  0  0  0  0  0
  -23.9797  -27.2778   19.0539 H   0  0  0  0  0  0
  -23.7209  -30.5987   19.4086 H   0  0  0  0  0  0
  -22.7309  -29.2461   19.8654 H   0  0  0  0  0  0
  -25.1265  -36.2000   25.0839 H   0  0  0  0  0  0
  -20.9938  -28.3232   24.1455 H   0  0  0  0  0  0
  -20.5662  -26.2272   23.3617 H   0  0  0  0  0  0
  -21.6626  -26.7456   22.1214 H   0  0  0  0  0  0
  -19.6894  -25.6311   21.1234 H   0  0  0  0  0  0
  -19.6672  -27.3221   20.6767 H   0  0  0  0  0  0
  -17.4184  -26.6685   21.4031 H   0  0  0  0  0  0
  -18.0304  -26.0078   22.9027 H   0  0  0  0  0  0
  -19.7926  -30.7257   24.2301 H   0  0  0  0  0  0
  -17.5010  -31.6271   24.5183 H   0  0  0  0  0  0
  -15.5342  -30.3019   23.7633 H   0  0  0  0  0  0
  -15.8653  -28.0859   22.7027 H   0  0  0  0  0  0
  -24.5916  -30.7042   25.7860 H   0  0  0  0  0  0
  -24.8947  -32.2856   26.4980 H   0  0  0  0  0  0
  -25.8135  -30.8866   27.0249 H   0  0  0  0  0  0
  -26.2794  -29.6834   24.1145 H   0  0  0  0  0  0
  -27.4064  -29.7264   25.4507 H   0  0  0  0  0  0
  -27.8621  -30.4374   23.9192 H   0  0  0  0  0  0
  -27.2675  -33.3607   26.2093 H   0  0  0  0  0  0
  -28.3834  -32.6903   25.0291 H   0  0  0  0  0  0
  -28.0746  -31.8430   26.5366 H   0  0  0  0  0  0
  -28.2600  -38.0105   24.7521 H   0  0  0  0  0  0
  -28.1070  -36.2640   24.6268 H   0  0  0  0  0  0
  -27.2307  -37.1441   25.8866 H   0  0  0  0  0  0
  -20.9295  -29.8764   21.6983 H   0  0  0  0  0  0
  -26.0181  -38.2886   24.1439 H   0  0  0  0  0  0
  -32.4634  -18.7567   19.6484 H   0  0  0  0  0  0
  -29.4234  -21.3406   20.9889 H   0  0  0  0  0  0
  -27.0938  -19.0807   21.2622 H   0  0  0  0  0  0
  -27.4012  -20.6314   22.0390 H   0  0  0  0  0  0
  -26.6255  -19.3374   22.9373 H   0  0  0  0  0  0
  -30.1238  -19.2873   24.3525 H   0  0  0  0  0  0
  -28.4287  -19.5329   24.7621 H   0  0  0  0  0  0
  -29.3072  -20.7727   23.8683 H   0  0  0  0  0  0
  -31.0131  -24.9636   15.6573 H   0  0  0  0  0  0
  -30.5906  -26.5199   16.3564 H   0  0  0  0  0  0
  -29.3850  -25.2413   16.2535 H   0  0  0  0  0  0
  -28.0242  -15.6358   21.1102 H   0  0  0  0  0  0
  -28.7067  -15.9280   19.4706 H   0  0  0  0  0  0
  -28.6208  -17.1759   20.6349 H   0  0  0  0  0  0
  -30.3757  -16.9095   22.2317 H   0  0  0  0  0  0
  -31.0197  -16.8899   20.3036 H   0  0  0  0  0  0
  -30.4998  -22.9307   20.0543 H   0  0  0  0  0  0
  -32.1246  -23.2488   19.5446 H   0  0  0  0  0  0
  -29.5923  -23.1667   17.8459 H   0  0  0  0  0  0
  -31.1433  -22.9546   17.0958 H   0  0  0  0  0  0
  -30.6243  -25.3960   19.9437 H   0  0  0  0  0  0
  -30.6632  -26.7807   18.9046 H   0  0  0  0  0  0
  -32.5895  -21.1302   18.8940 H   0  0  0  0  0  0
  -31.0645  -20.9024   18.0992 H   0  0  0  0  0  0
  -28.2664  -24.9109   19.2302 H   0  0  0  0  0  0
  -28.3433  -26.2587   18.0875 H   0  0  0  0  0  0
  -28.6480  -17.9689   22.8526 H   0  0  0  0  0  0
  -31.9471  -25.0924   17.8915 H   0  0  0  0  0  0
  1 25  1  0  0  0
  1 30  2  0  0  0
  1 88  1  0  0  0
  2  3  1  0  0  0
  2 25  1  0  0  0
  2 89  1  0  0  0
  2 90  1  0  0  0
  3  4  1  0  0  0
  3 91  1  0  0  0
  3 92  1  0  0  0
  4  5  1  0  0  0
  4 93  1  0  0  0
  4 94  1  0  0  0
  5  6  1  0  0  0
  5 26  1  0  0  0
  5 95  1  0  0  0
  6 25  1  0  0  0
  6 96  1  0  0  0
  6 97  1  0  0  0
  7  8  2  0  0  0
  7 26  1  0  0  0
  7 29  1  0  0  0
  8  9  1  0  0  0
  8 22  1  0  0  0
  9 10  1  0  0  0
  9 27  2  0  0  0
 10 11  2  0  0  0
 10 15  1  0  0  0
 11 12  1  0  0  0
 11 98  1  0  0  0
 12 13  2  0  0  0
 12 99  1  0  0  0
 13 14  1  0  0  0
 13 31  1  0  0  0
 14 15  2  0  0  0
 14100  1  0  0  0
 15101  1  0  0  0
 16 17  2  0  0  0
 16 21  1  0  0  0
 16 31  1  0  0  0
 17 18  1  0  0  0
 17102  1  0  0  0
 18 19  2  0  0  0
 18103  1  0  0  0
 19 20  1  0  0  0
 19 24  1  0  0  0
 20 21  2  0  0  0
 20104  1  0  0  0
 21 23  1  0  0  0
 22 28  1  0  0  0
 22 32  2  0  0  0
 26 27  1  0  0  0
 28105  1  0  0  0
 28106  1  0  0  0
 29107  1  0  0  0
 29108  1  0  0  0
 33 34  1  0  0  0
 33 66  1  0  0  0
 33 70  2  0  0  0
 34 36  1  0  0  0
 34 59  1  0  0  0
 34109  1  0  0  0
 35 44  2  0  0  0
 35 45  1  0  0  0
 35 68  1  0  0  0
 36 56  1  0  0  0
 36110  1  0  0  0
 37 39  1  0  0  0
 37 47  1  0  0  0
 37 66  1  0  0  0
 37111  1  0  0  0
 38 43  2  0  0  0
 38 46  1  0  0  0
 38 47  1  0  0  0
 39 64  1  0  0  0
 39 67  2  0  0  0
 40 52  1  0  0  0
 40 53  2  0  0  0
 40 58  1  0  0  0
 41112  1  0  0  0
 41113  1  0  0  0
 41114  1  0  0  0
 41 48  1  0  0  0
 42 43  1  0  0  0
 42 66  1  0  0  0
 42115  1  0  0  0
 42116  1  0  0  0
 43 44  1  0  0  0
 44117  1  0  0  0
 45 46  2  0  0  0
 45118  1  0  0  0
 46119  1  0  0  0
 47120  1  0  0  0
 47121  1  0  0  0
 48 56  1  0  0  0
 48 65  1  0  0  0
 48122  1  0  0  0
 49 50  1  0  0  0
 49 53  1  0  0  0
 49 64  1  0  0  0
 49123  1  0  0  0
 50 51  1  0  0  0
 50124  1  0  0  0
 50125  1  0  0  0
 51 52  1  0  0  0
 51126  1  0  0  0
 51127  1  0  0  0
 52128  1  0  0  0
 52129  1  0  0  0
 53 54  1  0  0  0
 54 55  2  0  0  0
 54130  1  0  0  0
 55 57  1  0  0  0
 55131  1  0  0  0
 56 69  2  0  0  0
 57 58  2  0  0  0
 57132  1  0  0  0
 58133  1  0  0  0
 59 60  1  0  0  0
 59 61  1  0  0  0
 59 62  1  0  0  0
 60134  1  0  0  0
 60135  1  0  0  0
 60136  1  0  0  0
 61137  1  0  0  0
 61138  1  0  0  0
 61139  1  0  0  0
 62140  1  0  0  0
 62141  1  0  0  0
 62142  1  0  0  0
 63 65  1  0  0  0
 63143  1  0  0  0
 63144  1  0  0  0
 63145  1  0  0  0
 64146  1  0  0  0
 65147  1  0  0  0
 68 84  1  0  0  0
 71 73  2  0  0  0
 71 87  1  0  0  0
 71148  1  0  0  0
 72 74  2  0  0  0
 72 87  1  0  0  0
 72149  1  0  0  0
 73 74  1  0  0  0
 73 79  1  0  0  0
 74 85  1  0  0  0
 75150  1  0  0  0
 75151  1  0  0  0
 75152  1  0  0  0
 75 85  1  0  0  0
 76 85  1  0  0  0
 76153  1  0  0  0
 76154  1  0  0  0
 76155  1  0  0  0
 77156  1  0  0  0
 77157  1  0  0  0
 77158  1  0  0  0
 77 86  1  0  0  0
 78 88  1  0  0  0
 78159  1  0  0  0
 78160  1  0  0  0
 78161  1  0  0  0
 79 88  1  0  0  0
 79162  1  0  0  0
 79163  1  0  0  0
 80 81  1  0  0  0
 80 83  1  0  0  0
 80164  1  0  0  0
 80165  1  0  0  0
 81 86  1  0  0  0
 81166  1  0  0  0
 81167  1  0  0  0
 82 84  1  0  0  0
 82 86  1  0  0  0
 82168  1  0  0  0
 82169  1  0  0  0
 83 87  1  0  0  0
 83170  1  0  0  0
 83171  1  0  0  0
 84172  1  0  0  0
 84173  1  0  0  0
 85174  1  0  0  0
 86175  1  0  0  0
M  ISO  4   1 100  68 101  84 101  88 100
M  END
> <chiral flag>
0

> <version>
0

> <s_m_source_file>
/data/baiqing/PycharmProjects/Reinvent-master-3.2/result/LINK_invent/BTK/process_docking_weight1_custom_sum_contain_oxygen_bond_distance_aromatic_linkinvent_7_9_3/rearranged_h_0098.sdf

> <i_m_source_file_index>
53

> <r_mmod_Potential_Energy-OPLS-2005>
352.428466796875

> <r_mmod_Stretch_Energy-OPLS-2005>
45.3129463195801

> <r_mmod_Bend_Energy-OPLS-2005>
343.353698730469

> <r_mmod_Torsional_Energy-OPLS-2005>
291.678497314453

> <r_mmod_Improper_Torsional_Energy-OPLS-2005>
4.71657371520996

> <r_mmod_Van_der_Waal_Energy-OPLS-2005>
170.563278198242

> <r_mmod_Electrostatic_Energy-OPLS-2005>
-333.494140625

> <r_mmod_Solvation_Energy-OPLS-2005>
-193.126953125

> <b_mmod_Minimization_Converged-OPLS-2005>
0

> <r_mmod_RMS_Derivative-OPLS-2005>
2.26173806190491

$$$$
54
                    3D
 Structure written by MMmdl.
157165  0  0  1  0            999 V2000
  -30.5922  -14.7480   20.4469 C   0  0  0  0  0  0
  -30.4418  -12.4509   19.4737 C   0  0  0  0  0  0
  -29.5149  -12.5101   18.2379 C   0  0  0  0  0  0
  -28.0404  -12.3339   18.6504 C   0  0  0  0  0  0
  -27.6466  -13.2322   19.8544 C   0  0  2  0  0  0
  -28.6922  -13.1539   20.9889 C   0  0  0  0  0  0
  -25.2530  -13.8219   20.5675 C   0  0  0  0  0  0
  -24.1821  -13.0437   20.9182 C   0  0  0  0  0  0
  -24.6430  -11.6931   20.8762 C   0  0  0  0  0  0
  -23.9103  -10.4298   21.0430 C   0  0  0  0  0  0
  -24.3657   -9.4198   21.9189 C   0  0  0  0  0  0
  -23.6320   -8.2235   22.0749 C   0  0  0  0  0  0
  -22.4293   -8.0298   21.3550 C   0  0  0  0  0  0
  -21.9947   -9.0271   20.4645 C   0  0  0  0  0  0
  -22.7288  -10.2142   20.3065 C   0  0  0  0  0  0
  -21.6857   -6.0762   22.5296 C   0  0  0  0  0  0
  -21.4015   -6.5656   23.8235 C   0  0  0  0  0  0
  -21.3642   -5.6803   24.9190 C   0  0  0  0  0  0
  -21.6035   -4.3070   24.7233 C   0  0  0  0  0  0
  -21.8818   -3.8173   23.4352 C   0  0  0  0  0  0
  -21.9181   -4.6992   22.3416 C   0  0  0  0  0  0
  -22.7838  -13.5208   21.1842 C   0  0  0  0  0  0
  -22.1659   -4.2184   21.0991 F   0  0  0  0  0  0
  -21.5615   -3.4536   25.7733 F   0  0  0  0  0  0
  -29.9954  -13.5078   20.4100 N   0  0  0  0  0  0
  -26.2972  -12.9429   20.3304 N   0  0  0  0  0  0
  -25.9361  -11.6572   20.5779 N   0  0  0  0  0  0
  -22.0504  -12.8193   22.0424 N   0  0  0  0  0  0
  -25.4156  -15.1958   20.4123 N   0  0  0  0  0  0
  -31.7760  -14.8738   20.1192 O   0  0  0  0  0  0
  -21.6641   -6.8906   21.4257 O   0  0  0  0  0  0
  -22.3495  -14.5479   20.6650 O   0  0  0  0  0  0
  -24.6340  -31.8527   23.1945 C   0  0  0  0  0  0
  -25.9161  -32.4728   23.8299 C   0  0  1  0  0  0
  -27.2227  -27.2561   20.1179 C   0  0  0  0  0  0
  -25.5942  -33.8537   24.2224 N   0  0  0  0  0  0
  -23.4313  -30.4728   21.5395 C   0  0  2  0  0  0
  -24.8747  -28.9154   20.1056 C   0  0  0  0  0  0
  -22.7526  -29.4579   22.4914 C   0  0  0  0  0  0
  -18.0299  -28.1386   22.8493 C   0  0  0  0  0  0
  -24.1495  -36.7279   23.2644 C   0  0  0  0  0  0
  -25.9773  -30.7623   21.3739 C   0  0  0  0  0  0
  -26.0453  -29.3852   20.7131 C   0  0  0  0  0  0
  -27.2183  -28.5669   20.7073 C   0  0  0  0  0  0
  -26.0271  -26.8446   19.4918 C   0  0  0  0  0  0
  -24.8711  -27.6547   19.4848 C   0  0  0  0  0  0
  -23.6463  -29.8046   20.1556 C   0  0  0  0  0  0
  -25.4121  -36.3059   24.0322 C   0  0  1  0  0  0
  -20.5906  -28.3702   23.1277 C   0  0  2  0  0  0
  -20.6795  -26.9418   22.5420 C   0  0  0  0  0  0
  -19.5755  -26.6386   21.5239 C   0  0  0  0  0  0
  -18.1934  -26.7931   22.1646 C   0  0  0  0  0  0
  -19.1553  -28.8863   23.2874 C   0  0  0  0  0  0
  -18.9469  -30.1466   23.8888 C   0  0  0  0  0  0
  -17.6463  -30.6584   24.0570 C   0  0  0  0  0  0
  -25.9064  -34.9429   23.5078 C   0  0  0  0  0  0
  -16.5355  -29.9078   23.6334 C   0  0  0  0  0  0
  -16.7283  -28.6498   23.0351 C   0  0  0  0  0  0
  -26.4511  -31.6561   25.0701 C   0  0  0  0  0  0
  -25.3719  -31.3741   26.1412 C   0  0  0  0  0  0
  -27.0368  -30.2961   24.6238 C   0  0  0  0  0  0
  -27.6035  -32.4334   25.7481 C   0  0  0  0  0  0
  -27.5580  -37.1797   24.8465 C   0  0  0  0  0  0
  -21.4231  -29.3028   22.3650 N   0  0  0  0  0  0
  -26.4299  -37.3760   23.9396 N   0  0  0  0  0  0
  -24.6998  -31.0493   22.0916 N   0  0  0  0  0  0
  -23.4212  -28.8133   23.3033 O   0  0  0  0  0  0
  -28.3410  -26.3970   20.2022 O   0  0  0  0  0  0
  -26.5658  -34.8914   22.4662 O   0  0  0  0  0  0
  -23.5491  -32.1354   23.7245 O   0  0  0  0  0  0
  -27.5590  -18.8785   22.8026 C   0  0  0  0  0  0
  -28.4048  -17.8724   22.2955 C   0  0  0  0  0  0
  -27.6615  -19.9650   21.9931 C   0  0  0  0  0  0
  -29.0352  -18.3273   21.1685 C   0  0  0  0  0  0
  -26.8570  -21.2152   22.1113 C   0  0  0  0  0  0
  -29.9630  -17.3475   20.3618 C   0  0  0  0  0  0
  -29.1775  -22.3897   20.3720 C   0  0  0  0  0  0
  -28.0940  -23.6086   20.2348 C   0  0  0  0  0  0
  -28.9467  -20.8100   19.9729 C   0  0  0  0  0  0
  -28.4596  -25.0432   19.5575 C   0  0  0  0  0  0
  -28.6286  -19.7302   21.0064 N   0  0  0  0  0  0
  -29.7707  -15.8472   20.6303 N   0  0  0  0  0  0
  -31.4825  -12.5816   19.1700 H   0  0  0  0  0  0
  -30.3913  -11.4730   19.9563 H   0  0  0  0  0  0
  -29.8009  -11.7461   17.5145 H   0  0  0  0  0  0
  -29.6378  -13.4693   17.7319 H   0  0  0  0  0  0
  -27.8976  -11.2845   18.9133 H   0  0  0  0  0  0
  -27.3832  -12.5288   17.8019 H   0  0  0  0  0  0
  -27.6422  -14.2559   19.4805 H   0  0  0  0  0  0
  -28.7265  -12.1515   21.4191 H   0  0  0  0  0  0
  -28.4293  -13.8263   21.8064 H   0  0  0  0  0  0
  -25.2813   -9.5654   22.4749 H   0  0  0  0  0  0
  -24.0027   -7.4611   22.7448 H   0  0  0  0  0  0
  -21.0891   -8.8809   19.8937 H   0  0  0  0  0  0
  -22.3778  -10.9687   19.6167 H   0  0  0  0  0  0
  -21.2030   -7.6167   23.9762 H   0  0  0  0  0  0
  -21.1457   -6.0528   25.9096 H   0  0  0  0  0  0
  -22.0610   -2.7633   23.2844 H   0  0  0  0  0  0
  -22.4177  -11.9902   22.4863 H   0  0  0  0  0  0
  -21.1072  -13.1134   22.2538 H   0  0  0  0  0  0
  -24.6445  -15.8391   20.5555 H   0  0  0  0  0  0
  -26.2654  -15.6672   20.1289 H   0  0  0  0  0  0
  -26.7230  -32.5356   23.1035 H   0  0  0  0  0  0
  -25.0072  -33.9658   25.0362 H   0  0  0  0  0  0
  -22.7288  -31.2951   21.3935 H   0  0  0  0  0  0
  -23.3760  -35.9608   23.3306 H   0  0  0  0  0  0
  -24.3587  -36.8915   22.2061 H   0  0  0  0  0  0
  -23.7250  -37.6480   23.6672 H   0  0  0  0  0  0
  -26.1279  -31.5228   20.6068 H   0  0  0  0  0  0
  -26.8524  -30.8026   22.0118 H   0  0  0  0  0  0
  -28.1187  -28.9240   21.1876 H   0  0  0  0  0  0
  -25.9583  -25.8714   19.0310 H   0  0  0  0  0  0
  -23.9718  -27.2930   19.0057 H   0  0  0  0  0  0
  -23.7633  -30.5793   19.3959 H   0  0  0  0  0  0
  -22.7648  -29.2338   19.8600 H   0  0  0  0  0  0
  -25.1307  -36.1908   25.0816 H   0  0  0  0  0  0
  -21.0011  -28.3300   24.1396 H   0  0  0  0  0  0
  -20.5733  -26.2320   23.3633 H   0  0  0  0  0  0
  -21.6652  -26.7453   22.1186 H   0  0  0  0  0  0
  -19.6906  -25.6303   21.1256 H   0  0  0  0  0  0
  -19.6677  -27.3215   20.6780 H   0  0  0  0  0  0
  -17.4217  -26.6709   21.4031 H   0  0  0  0  0  0
  -18.0289  -26.0067   22.9028 H   0  0  0  0  0  0
  -19.7936  -30.7292   24.2251 H   0  0  0  0  0  0
  -17.5004  -31.6254   24.5180 H   0  0  0  0  0  0
  -15.5350  -30.2967   23.7643 H   0  0  0  0  0  0
  -15.8697  -28.0809   22.7055 H   0  0  0  0  0  0
  -24.5870  -30.7120   25.7739 H   0  0  0  0  0  0
  -24.8943  -32.2932   26.4815 H   0  0  0  0  0  0
  -25.8008  -30.8918   27.0203 H   0  0  0  0  0  0
  -26.2971  -29.6690   24.1247 H   0  0  0  0  0  0
  -27.4008  -29.7235   25.4781 H   0  0  0  0  0  0
  -27.8857  -30.4206   23.9511 H   0  0  0  0  0  0
  -27.2594  -33.3626   26.2031 H   0  0  0  0  0  0
  -28.3837  -32.6929   25.0314 H   0  0  0  0  0  0
  -28.0708  -31.8501   26.5425 H   0  0  0  0  0  0
  -28.2598  -38.0097   24.7513 H   0  0  0  0  0  0
  -28.1076  -36.2629   24.6282 H   0  0  0  0  0  0
  -27.2298  -37.1437   25.8872 H   0  0  0  0  0  0
  -20.9435  -29.8718   21.6825 H   0  0  0  0  0  0
  -26.0180  -38.2836   24.1378 H   0  0  0  0  0  0
  -26.9035  -18.8060   23.6601 H   0  0  0  0  0  0
  -28.5113  -16.8804   22.7136 H   0  0  0  0  0  0
  -25.9837  -21.0485   22.7413 H   0  0  0  0  0  0
  -26.4809  -21.5460   21.1437 H   0  0  0  0  0  0
  -27.4415  -22.0069   22.5765 H   0  0  0  0  0  0
  -31.0064  -17.5947   20.5604 H   0  0  0  0  0  0
  -29.8146  -17.5112   19.2941 H   0  0  0  0  0  0
  -29.5969  -22.4274   21.3781 H   0  0  0  0  0  0
  -30.0123  -22.6991   19.7438 H   0  0  0  0  0  0
  -27.6985  -23.8183   21.2275 H   0  0  0  0  0  0
  -27.2409  -23.2191   19.6785 H   0  0  0  0  0  0
  -29.8654  -20.4762   19.4888 H   0  0  0  0  0  0
  -28.1896  -20.7505   19.1915 H   0  0  0  0  0  0
  -29.5155  -24.9852   19.2930 H   0  0  0  0  0  0
  -27.9722  -25.0812   18.5821 H   0  0  0  0  0  0
  -28.8274  -15.5989   20.8783 H   0  0  0  0  0  0
  1 25  1  0  0  0
  1 30  2  0  0  0
  1 82  1  0  0  0
  2  3  1  0  0  0
  2 25  1  0  0  0
  2 83  1  0  0  0
  2 84  1  0  0  0
  3  4  1  0  0  0
  3 85  1  0  0  0
  3 86  1  0  0  0
  4  5  1  0  0  0
  4 87  1  0  0  0
  4 88  1  0  0  0
  5  6  1  0  0  0
  5 26  1  0  0  0
  5 89  1  0  0  0
  6 25  1  0  0  0
  6 90  1  0  0  0
  6 91  1  0  0  0
  7  8  2  0  0  0
  7 26  1  0  0  0
  7 29  1  0  0  0
  8  9  1  0  0  0
  8 22  1  0  0  0
  9 10  1  0  0  0
  9 27  2  0  0  0
 10 11  2  0  0  0
 10 15  1  0  0  0
 11 12  1  0  0  0
 11 92  1  0  0  0
 12 13  2  0  0  0
 12 93  1  0  0  0
 13 14  1  0  0  0
 13 31  1  0  0  0
 14 15  2  0  0  0
 14 94  1  0  0  0
 15 95  1  0  0  0
 16 17  2  0  0  0
 16 21  1  0  0  0
 16 31  1  0  0  0
 17 18  1  0  0  0
 17 96  1  0  0  0
 18 19  2  0  0  0
 18 97  1  0  0  0
 19 20  1  0  0  0
 19 24  1  0  0  0
 20 21  2  0  0  0
 20 98  1  0  0  0
 21 23  1  0  0  0
 22 28  1  0  0  0
 22 32  2  0  0  0
 26 27  1  0  0  0
 28 99  1  0  0  0
 28100  1  0  0  0
 29101  1  0  0  0
 29102  1  0  0  0
 33 34  1  0  0  0
 33 66  1  0  0  0
 33 70  2  0  0  0
 34 36  1  0  0  0
 34 59  1  0  0  0
 34103  1  0  0  0
 35 44  2  0  0  0
 35 45  1  0  0  0
 35 68  1  0  0  0
 36 56  1  0  0  0
 36104  1  0  0  0
 37 39  1  0  0  0
 37 47  1  0  0  0
 37 66  1  0  0  0
 37105  1  0  0  0
 38 43  2  0  0  0
 38 46  1  0  0  0
 38 47  1  0  0  0
 39 64  1  0  0  0
 39 67  2  0  0  0
 40 52  1  0  0  0
 40 53  2  0  0  0
 40 58  1  0  0  0
 41106  1  0  0  0
 41107  1  0  0  0
 41108  1  0  0  0
 41 48  1  0  0  0
 42 43  1  0  0  0
 42 66  1  0  0  0
 42109  1  0  0  0
 42110  1  0  0  0
 43 44  1  0  0  0
 44111  1  0  0  0
 45 46  2  0  0  0
 45112  1  0  0  0
 46113  1  0  0  0
 47114  1  0  0  0
 47115  1  0  0  0
 48 56  1  0  0  0
 48 65  1  0  0  0
 48116  1  0  0  0
 49 50  1  0  0  0
 49 53  1  0  0  0
 49 64  1  0  0  0
 49117  1  0  0  0
 50 51  1  0  0  0
 50118  1  0  0  0
 50119  1  0  0  0
 51 52  1  0  0  0
 51120  1  0  0  0
 51121  1  0  0  0
 52122  1  0  0  0
 52123  1  0  0  0
 53 54  1  0  0  0
 54 55  2  0  0  0
 54124  1  0  0  0
 55 57  1  0  0  0
 55125  1  0  0  0
 56 69  2  0  0  0
 57 58  2  0  0  0
 57126  1  0  0  0
 58127  1  0  0  0
 59 60  1  0  0  0
 59 61  1  0  0  0
 59 62  1  0  0  0
 60128  1  0  0  0
 60129  1  0  0  0
 60130  1  0  0  0
 61131  1  0  0  0
 61132  1  0  0  0
 61133  1  0  0  0
 62134  1  0  0  0
 62135  1  0  0  0
 62136  1  0  0  0
 63 65  1  0  0  0
 63137  1  0  0  0
 63138  1  0  0  0
 63139  1  0  0  0
 64140  1  0  0  0
 65141  1  0  0  0
 68 80  1  0  0  0
 71 72  1  0  0  0
 71 73  2  0  0  0
 71142  1  0  0  0
 72 74  2  0  0  0
 72143  1  0  0  0
 73 75  1  0  0  0
 73 81  1  0  0  0
 74 76  1  0  0  0
 74 81  1  0  0  0
 75144  1  0  0  0
 75145  1  0  0  0
 75146  1  0  0  0
 76 82  1  0  0  0
 76147  1  0  0  0
 76148  1  0  0  0
 77 78  1  0  0  0
 77 79  1  0  0  0
 77149  1  0  0  0
 77150  1  0  0  0
 78 80  1  0  0  0
 78151  1  0  0  0
 78152  1  0  0  0
 79 81  1  0  0  0
 79153  1  0  0  0
 79154  1  0  0  0
 80155  1  0  0  0
 80156  1  0  0  0
 82157  1  0  0  0
M  ISO  4   1 100  68 101  80 101  82 100
M  END
> <chiral flag>
0

> <version>
0

> <s_m_source_file>
/data/baiqing/PycharmProjects/Reinvent-master-3.2/result/LINK_invent/BTK/process_docking_weight1_custom_sum_contain_oxygen_bond_distance_aromatic_linkinvent_7_9_3/rearranged_h_0098.sdf

> <i_m_source_file_index>
54

> <r_mmod_Potential_Energy-OPLS-2005>
181.08723449707

> <r_mmod_Stretch_Energy-OPLS-2005>
143.132949829102

> <r_mmod_Bend_Energy-OPLS-2005>
228.18815612793

> <r_mmod_Torsional_Energy-OPLS-2005>
235.494400024414

> <r_mmod_Improper_Torsional_Energy-OPLS-2005>
5.89187288284302

> <r_mmod_Van_der_Waal_Energy-OPLS-2005>
115.433486938477

> <r_mmod_Electrostatic_Energy-OPLS-2005>
-423.213592529297

> <r_mmod_Solvation_Energy-OPLS-2005>
-209.779296875

> <b_mmod_Minimization_Converged-OPLS-2005>
0

> <r_mmod_RMS_Derivative-OPLS-2005>
2.40527439117432

$$$$
55
                    3D
 Structure written by MMmdl.
176184  0  0  1  0            999 V2000
  -30.7154  -14.4654   20.6365 C   0  0  0  0  0  0
  -30.4237  -12.3085   19.4435 C   0  0  0  0  0  0
  -29.5066  -12.5340   18.2227 C   0  0  0  0  0  0
  -28.0267  -12.3845   18.6210 C   0  0  0  0  0  0
  -27.6626  -13.2088   19.8836 C   0  0  2  0  0  0
  -28.6973  -12.9810   21.0103 C   0  0  0  0  0  0
  -25.2491  -13.8008   20.5486 C   0  0  0  0  0  0
  -24.1750  -13.0369   20.9063 C   0  0  0  0  0  0
  -24.6329  -11.6844   20.8684 C   0  0  0  0  0  0
  -23.8984  -10.4266   21.0413 C   0  0  0  0  0  0
  -24.3563   -9.4238   21.9204 C   0  0  0  0  0  0
  -23.6267   -8.2259   22.0781 C   0  0  0  0  0  0
  -22.4258   -8.0276   21.3569 C   0  0  0  0  0  0
  -21.9853   -9.0232   20.4670 C   0  0  0  0  0  0
  -22.7150  -10.2104   20.3071 C   0  0  0  0  0  0
  -21.6845   -6.0713   22.5280 C   0  0  0  0  0  0
  -21.4002   -6.5607   23.8196 C   0  0  0  0  0  0
  -21.3661   -5.6772   24.9159 C   0  0  0  0  0  0
  -21.6058   -4.3039   24.7224 C   0  0  0  0  0  0
  -21.8821   -3.8127   23.4340 C   0  0  0  0  0  0
  -21.9177   -4.6946   22.3395 C   0  0  0  0  0  0
  -22.7802  -13.5269   21.1766 C   0  0  0  0  0  0
  -22.1653   -4.2126   21.0984 F   0  0  0  0  0  0
  -21.5641   -3.4544   25.7741 F   0  0  0  0  0  0
  -30.0444  -13.2843   20.4804 N   0  0  0  0  0  0
  -26.2997  -12.9228   20.3343 N   0  0  0  0  0  0
  -25.9280  -11.6399   20.5777 N   0  0  0  0  0  0
  -22.0436  -12.8315   22.0330 N   0  0  0  0  0  0
  -25.4132  -15.1633   20.3685 N   0  0  0  0  0  0
  -31.7776  -14.7028   20.0546 O   0  0  0  0  0  0
  -21.6649   -6.8869   21.4250 O   0  0  0  0  0  0
  -22.3529  -14.5650   20.6698 O   0  0  0  0  0  0
  -24.6135  -31.8691   23.2106 C   0  0  0  0  0  0
  -25.9024  -32.4835   23.8400 C   0  0  1  0  0  0
  -27.2610  -27.4495   20.0960 C   0  0  0  0  0  0
  -25.5870  -33.8632   24.2324 N   0  0  0  0  0  0
  -23.4025  -30.4882   21.5517 C   0  0  2  0  0  0
  -24.8571  -28.9545   20.1166 C   0  0  0  0  0  0
  -22.7413  -29.4638   22.5014 C   0  0  0  0  0  0
  -18.0260  -28.1364   22.8480 C   0  0  0  0  0  0
  -24.1474  -36.7313   23.2639 C   0  0  0  0  0  0
  -25.9294  -30.8382   21.3618 C   0  0  0  0  0  0
  -26.0128  -29.4707   20.7169 C   0  0  0  0  0  0
  -27.2160  -28.7274   20.7122 C   0  0  0  0  0  0
  -26.0863  -26.9504   19.4950 C   0  0  0  0  0  0
  -24.8881  -27.6912   19.5036 C   0  0  0  0  0  0
  -23.6115  -29.8147   20.1677 C   0  0  0  0  0  0
  -25.4093  -36.3121   24.0341 C   0  0  1  0  0  0
  -20.5857  -28.3635   23.1335 C   0  0  2  0  0  0
  -20.6739  -26.9357   22.5456 C   0  0  0  0  0  0
  -19.5741  -26.6366   21.5211 C   0  0  0  0  0  0
  -18.1901  -26.7920   22.1589 C   0  0  0  0  0  0
  -19.1517  -28.8818   23.2902 C   0  0  0  0  0  0
  -18.9440  -30.1419   23.8914 C   0  0  0  0  0  0
  -17.6449  -30.6564   24.0565 C   0  0  0  0  0  0
  -25.9020  -34.9482   23.5131 C   0  0  0  0  0  0
  -16.5335  -29.9067   23.6328 C   0  0  0  0  0  0
  -16.7252  -28.6487   23.0341 C   0  0  0  0  0  0
  -26.4452  -31.6623   25.0728 C   0  0  0  0  0  0
  -25.3724  -31.3759   26.1493 C   0  0  0  0  0  0
  -27.0260  -30.3063   24.6097 C   0  0  0  0  0  0
  -27.6039  -32.4340   25.7474 C   0  0  0  0  0  0
  -27.5577  -37.1808   24.8450 C   0  0  0  0  0  0
  -21.4140  -29.3005   22.3753 N   0  0  0  0  0  0
  -26.4287  -37.3802   23.9408 N   0  0  0  0  0  0
  -24.6659  -31.0790   22.0996 N   0  0  0  0  0  0
  -23.4190  -28.8183   23.3052 O   0  0  0  0  0  0
  -28.3759  -26.6352   20.0246 O   0  0  0  0  0  0
  -26.5587  -34.8932   22.4699 O   0  0  0  0  0  0
  -23.5323  -32.1430   23.7501 O   0  0  0  0  0  0
  -29.4728  -19.4815   21.3509 C   0  0  0  0  0  0
  -30.9733  -17.6266   20.9662 C   0  0  0  0  0  0
  -30.7358  -19.0240   20.9304 C   0  0  0  0  0  0
  -28.5180  -18.5573   21.8182 C   0  0  0  0  0  0
  -29.9692  -16.7405   21.4313 C   0  0  0  0  0  0
  -26.7811  -20.4543   21.9099 C   0  0  0  0  0  0
  -26.9135  -18.7919   23.7751 C   0  0  0  0  0  0
  -26.0668  -18.1184   21.5126 C   0  0  0  0  0  0
  -32.5221  -24.3113   22.6973 C   0  0  0  0  0  0
  -31.8276  -19.9825   20.4376 C   0  0  0  0  0  0
  -31.5219  -21.5154   20.3687 C   0  0  0  0  0  0
  -30.6393  -25.8827   20.6452 C   0  0  0  0  0  0
  -31.5325  -22.2794   21.7212 C   0  0  0  0  0  0
  -30.4279  -24.5371   21.4023 C   0  0  0  0  0  0
  -29.5277  -26.9543   20.7977 C   0  0  0  0  0  0
  -27.0983  -18.9808   22.2551 C   0  0  0  0  0  0
  -28.7914  -17.2310   21.8797 N   0  0  0  0  0  0
  -30.1381  -15.3240   21.5037 N   0  0  0  0  0  0
  -31.6974  -23.7656   21.5845 N   0  3  1  0  0  0
  -31.4777  -12.3773   19.1611 H   0  0  0  0  0  0
  -30.2893  -11.2981   19.8340 H   0  0  0  0  0  0
  -29.7520  -11.8359   17.4227 H   0  0  0  0  0  0
  -29.6812  -13.5310   17.8133 H   0  0  0  0  0  0
  -27.8303  -11.3275   18.8012 H   0  0  0  0  0  0
  -27.3852  -12.6731   17.7889 H   0  0  0  0  0  0
  -27.7088  -14.2618   19.6002 H   0  0  0  0  0  0
  -28.6674  -11.9439   21.3428 H   0  0  0  0  0  0
  -28.4293  -13.5658   21.8927 H   0  0  0  0  0  0
  -25.2718   -9.5712   22.4780 H   0  0  0  0  0  0
  -23.9976   -7.4644   22.7499 H   0  0  0  0  0  0
  -21.0758   -8.8720   19.8992 H   0  0  0  0  0  0
  -22.3596  -10.9630   19.6173 H   0  0  0  0  0  0
  -21.2012   -7.6115   23.9677 H   0  0  0  0  0  0
  -21.1473   -6.0511   25.9046 H   0  0  0  0  0  0
  -22.0597   -2.7596   23.2840 H   0  0  0  0  0  0
  -22.3992  -11.9924   22.4656 H   0  0  0  0  0  0
  -21.1093  -13.1402   22.2629 H   0  0  0  0  0  0
  -24.6697  -15.8302   20.5461 H   0  0  0  0  0  0
  -26.2975  -15.6034   20.1540 H   0  0  0  0  0  0
  -26.7115  -32.5563   23.1181 H   0  0  0  0  0  0
  -25.0014  -33.9800   25.0469 H   0  0  0  0  0  0
  -22.6890  -31.3030   21.4107 H   0  0  0  0  0  0
  -23.3731  -35.9651   23.3326 H   0  0  0  0  0  0
  -24.3564  -36.8903   22.2047 H   0  0  0  0  0  0
  -23.7231  -37.6529   23.6635 H   0  0  0  0  0  0
  -26.0344  -31.5965   20.5850 H   0  0  0  0  0  0
  -26.8191  -30.9027   21.9753 H   0  0  0  0  0  0
  -28.0961  -29.1483   21.1759 H   0  0  0  0  0  0
  -26.1003  -25.9767   19.0244 H   0  0  0  0  0  0
  -24.0022  -27.2843   19.0345 H   0  0  0  0  0  0
  -23.7106  -30.5856   19.4028 H   0  0  0  0  0  0
  -22.7388  -29.2258   19.8796 H   0  0  0  0  0  0
  -25.1270  -36.1991   25.0834 H   0  0  0  0  0  0
  -20.9931  -28.3193   24.1462 H   0  0  0  0  0  0
  -20.5567  -26.2233   23.3643 H   0  0  0  0  0  0
  -21.6627  -26.7357   22.1305 H   0  0  0  0  0  0
  -19.6897  -25.6283   21.1221 H   0  0  0  0  0  0
  -19.6707  -27.3198   20.6759 H   0  0  0  0  0  0
  -17.4190  -26.6697   21.3963 H   0  0  0  0  0  0
  -18.0257  -26.0055   22.8967 H   0  0  0  0  0  0
  -19.7914  -30.7223   24.2311 H   0  0  0  0  0  0
  -17.4998  -31.6249   24.5156 H   0  0  0  0  0  0
  -15.5344  -30.2965   23.7651 H   0  0  0  0  0  0
  -15.8643  -28.0808   22.7061 H   0  0  0  0  0  0
  -24.5929  -30.7043   25.7880 H   0  0  0  0  0  0
  -24.8867  -32.2921   26.4869 H   0  0  0  0  0  0
  -25.8101  -30.9028   27.0291 H   0  0  0  0  0  0
  -26.2798  -29.6864   24.1117 H   0  0  0  0  0  0
  -27.3988  -29.7273   25.4552 H   0  0  0  0  0  0
  -27.8652  -30.4379   23.9263 H   0  0  0  0  0  0
  -27.2664  -33.3625   26.2090 H   0  0  0  0  0  0
  -28.3813  -32.6929   25.0272 H   0  0  0  0  0  0
  -28.0745  -31.8448   26.5354 H   0  0  0  0  0  0
  -28.2624  -38.0080   24.7478 H   0  0  0  0  0  0
  -28.1044  -36.2617   24.6272 H   0  0  0  0  0  0
  -27.2312  -37.1477   25.8863 H   0  0  0  0  0  0
  -20.9295  -29.8726   21.6979 H   0  0  0  0  0  0
  -26.0175  -38.2886   24.1411 H   0  0  0  0  0  0
  -29.2441  -20.5336   21.3145 H   0  0  0  0  0  0
  -31.9281  -17.2365   20.6368 H   0  0  0  0  0  0
  -27.4263  -21.1463   22.4514 H   0  0  0  0  0  0
  -25.7538  -20.7089   22.1760 H   0  0  0  0  0  0
  -26.8972  -20.6444   20.8405 H   0  0  0  0  0  0
  -27.5697  -19.4518   24.3432 H   0  0  0  0  0  0
  -27.1228  -17.7653   24.0803 H   0  0  0  0  0  0
  -25.8871  -19.0075   24.0774 H   0  0  0  0  0  0
  -26.2617  -18.1110   20.4381 H   0  0  0  0  0  0
  -25.0450  -18.4575   21.6783 H   0  0  0  0  0  0
  -26.1227  -17.0913   21.8669 H   0  0  0  0  0  0
  -33.5466  -23.9431   22.6413 H   0  0  0  0  0  0
  -32.1187  -24.0208   23.6670 H   0  0  0  0  0  0
  -32.5794  -25.3990   22.6849 H   0  0  0  0  0  0
  -32.0882  -19.6488   19.4309 H   0  0  0  0  0  0
  -32.7249  -19.8175   21.0359 H   0  0  0  0  0  0
  -30.6017  -21.7107   19.8204 H   0  0  0  0  0  0
  -32.3208  -21.9403   19.7585 H   0  0  0  0  0  0
  -30.8138  -25.6828   19.5879 H   0  0  0  0  0  0
  -31.5553  -26.3555   20.9953 H   0  0  0  0  0  0
  -32.3796  -21.8958   22.2891 H   0  0  0  0  0  0
  -30.6553  -22.0554   22.3270 H   0  0  0  0  0  0
  -29.7034  -23.9378   20.8499 H   0  0  0  0  0  0
  -29.9845  -24.7218   22.3817 H   0  0  0  0  0  0
  -29.9201  -27.9098   20.4454 H   0  0  0  0  0  0
  -29.2588  -27.0852   21.8462 H   0  0  0  0  0  0
  -29.4038  -14.8750   22.0202 H   0  0  0  0  0  0
  -32.2449  -23.9121   20.7504 H   0  0  0  0  0  0
  1 25  1  0  0  0
  1 30  2  0  0  0
  1 88  1  0  0  0
  2  3  1  0  0  0
  2 25  1  0  0  0
  2 90  1  0  0  0
  2 91  1  0  0  0
  3  4  1  0  0  0
  3 92  1  0  0  0
  3 93  1  0  0  0
  4  5  1  0  0  0
  4 94  1  0  0  0
  4 95  1  0  0  0
  5  6  1  0  0  0
  5 26  1  0  0  0
  5 96  1  0  0  0
  6 25  1  0  0  0
  6 97  1  0  0  0
  6 98  1  0  0  0
  7  8  2  0  0  0
  7 26  1  0  0  0
  7 29  1  0  0  0
  8  9  1  0  0  0
  8 22  1  0  0  0
  9 10  1  0  0  0
  9 27  2  0  0  0
 10 11  2  0  0  0
 10 15  1  0  0  0
 11 12  1  0  0  0
 11 99  1  0  0  0
 12 13  2  0  0  0
 12100  1  0  0  0
 13 14  1  0  0  0
 13 31  1  0  0  0
 14 15  2  0  0  0
 14101  1  0  0  0
 15102  1  0  0  0
 16 17  2  0  0  0
 16 21  1  0  0  0
 16 31  1  0  0  0
 17 18  1  0  0  0
 17103  1  0  0  0
 18 19  2  0  0  0
 18104  1  0  0  0
 19 20  1  0  0  0
 19 24  1  0  0  0
 20 21  2  0  0  0
 20105  1  0  0  0
 21 23  1  0  0  0
 22 28  1  0  0  0
 22 32  2  0  0  0
 26 27  1  0  0  0
 28106  1  0  0  0
 28107  1  0  0  0
 29108  1  0  0  0
 29109  1  0  0  0
 33 34  1  0  0  0
 33 66  1  0  0  0
 33 70  2  0  0  0
 34 36  1  0  0  0
 34 59  1  0  0  0
 34110  1  0  0  0
 35 44  2  0  0  0
 35 45  1  0  0  0
 35 68  1  0  0  0
 36 56  1  0  0  0
 36111  1  0  0  0
 37 39  1  0  0  0
 37 47  1  0  0  0
 37 66  1  0  0  0
 37112  1  0  0  0
 38 43  2  0  0  0
 38 46  1  0  0  0
 38 47  1  0  0  0
 39 64  1  0  0  0
 39 67  2  0  0  0
 40 52  1  0  0  0
 40 53  2  0  0  0
 40 58  1  0  0  0
 41113  1  0  0  0
 41114  1  0  0  0
 41115  1  0  0  0
 41 48  1  0  0  0
 42 43  1  0  0  0
 42 66  1  0  0  0
 42116  1  0  0  0
 42117  1  0  0  0
 43 44  1  0  0  0
 44118  1  0  0  0
 45 46  2  0  0  0
 45119  1  0  0  0
 46120  1  0  0  0
 47121  1  0  0  0
 47122  1  0  0  0
 48 56  1  0  0  0
 48 65  1  0  0  0
 48123  1  0  0  0
 49 50  1  0  0  0
 49 53  1  0  0  0
 49 64  1  0  0  0
 49124  1  0  0  0
 50 51  1  0  0  0
 50125  1  0  0  0
 50126  1  0  0  0
 51 52  1  0  0  0
 51127  1  0  0  0
 51128  1  0  0  0
 52129  1  0  0  0
 52130  1  0  0  0
 53 54  1  0  0  0
 54 55  2  0  0  0
 54131  1  0  0  0
 55 57  1  0  0  0
 55132  1  0  0  0
 56 69  2  0  0  0
 57 58  2  0  0  0
 57133  1  0  0  0
 58134  1  0  0  0
 59 60  1  0  0  0
 59 61  1  0  0  0
 59 62  1  0  0  0
 60135  1  0  0  0
 60136  1  0  0  0
 60137  1  0  0  0
 61138  1  0  0  0
 61139  1  0  0  0
 61140  1  0  0  0
 62141  1  0  0  0
 62142  1  0  0  0
 62143  1  0  0  0
 63 65  1  0  0  0
 63144  1  0  0  0
 63145  1  0  0  0
 63146  1  0  0  0
 64147  1  0  0  0
 65148  1  0  0  0
 68 85  1  0  0  0
 71 73  2  0  0  0
 71 74  1  0  0  0
 71149  1  0  0  0
 72 73  1  0  0  0
 72 75  2  0  0  0
 72150  1  0  0  0
 73 80  1  0  0  0
 74 86  1  0  0  0
 74 87  2  0  0  0
 75 87  1  0  0  0
 75 88  1  0  0  0
 76151  1  0  0  0
 76152  1  0  0  0
 76153  1  0  0  0
 76 86  1  0  0  0
 77 86  1  0  0  0
 77154  1  0  0  0
 77155  1  0  0  0
 77156  1  0  0  0
 78 86  1  0  0  0
 78157  1  0  0  0
 78158  1  0  0  0
 78159  1  0  0  0
 79160  1  0  0  0
 79161  1  0  0  0
 79162  1  0  0  0
 79 89  1  0  0  0
 80 81  1  0  0  0
 80163  1  0  0  0
 80164  1  0  0  0
 81 83  1  0  0  0
 81165  1  0  0  0
 81166  1  0  0  0
 82 84  1  0  0  0
 82 85  1  0  0  0
 82167  1  0  0  0
 82168  1  0  0  0
 83 89  1  0  0  0
 83169  1  0  0  0
 83170  1  0  0  0
 84 89  1  0  0  0
 84171  1  0  0  0
 84172  1  0  0  0
 85173  1  0  0  0
 85174  1  0  0  0
 88175  1  0  0  0
 89176  1  0  0  0
M  CHG  1  89   1
M  ISO  4   1 100  68 101  85 101  88 100
M  END
> <chiral flag>
0

> <version>
0

> <s_m_source_file>
/data/baiqing/PycharmProjects/Reinvent-master-3.2/result/LINK_invent/BTK/process_docking_weight1_custom_sum_contain_oxygen_bond_distance_aromatic_linkinvent_7_9_3/rearranged_h_0098.sdf

> <i_m_source_file_index>
55

> <r_mmod_Potential_Energy-OPLS-2005>
-348.482177734375

> <r_mmod_Stretch_Energy-OPLS-2005>
45.0186042785645

> <r_mmod_Bend_Energy-OPLS-2005>
134.668807983398

> <r_mmod_Torsional_Energy-OPLS-2005>
220.470748901367

> <r_mmod_Improper_Torsional_Energy-OPLS-2005>
4.25574731826782

> <r_mmod_Van_der_Waal_Energy-OPLS-2005>
158.395004272461

> <r_mmod_Electrostatic_Energy-OPLS-2005>
-486.551605224609

> <r_mmod_Solvation_Energy-OPLS-2005>
-435.683471679688

> <b_mmod_Minimization_Converged-OPLS-2005>
0

> <r_mmod_RMS_Derivative-OPLS-2005>
4.64176845550537

$$$$
56
                    3D
 Structure written by MMmdl.
167174  0  0  1  0            999 V2000
  -30.5461  -14.9328   20.4136 C   0  0  0  0  0  0
  -30.4394  -12.5778   19.4755 C   0  0  0  0  0  0
  -29.5125  -12.5172   18.2409 C   0  0  0  0  0  0
  -28.0485  -12.3068   18.6702 C   0  0  0  0  0  0
  -27.6289  -13.2415   19.8343 C   0  0  2  0  0  0
  -28.6784  -13.2612   20.9637 C   0  0  0  0  0  0
  -25.2483  -13.8208   20.5719 C   0  0  0  0  0  0
  -24.1781  -13.0425   20.9229 C   0  0  0  0  0  0
  -24.6381  -11.6904   20.8744 C   0  0  0  0  0  0
  -23.9068  -10.4277   21.0403 C   0  0  0  0  0  0
  -24.3632   -9.4191   21.9169 C   0  0  0  0  0  0
  -23.6295   -8.2229   22.0748 C   0  0  0  0  0  0
  -22.4279   -8.0285   21.3544 C   0  0  0  0  0  0
  -21.9918   -9.0242   20.4637 C   0  0  0  0  0  0
  -22.7250  -10.2117   20.3043 C   0  0  0  0  0  0
  -21.6864   -6.0734   22.5270 C   0  0  0  0  0  0
  -21.4009   -6.5632   23.8198 C   0  0  0  0  0  0
  -21.3661   -5.6794   24.9171 C   0  0  0  0  0  0
  -21.6057   -4.3054   24.7222 C   0  0  0  0  0  0
  -21.8818   -3.8143   23.4345 C   0  0  0  0  0  0
  -21.9186   -4.6952   22.3400 C   0  0  0  0  0  0
  -22.7806  -13.5197   21.1889 C   0  0  0  0  0  0
  -22.1663   -4.2149   21.0977 F   0  0  0  0  0  0
  -21.5637   -3.4536   25.7732 F   0  0  0  0  0  0
  -29.9483  -13.6753   20.3493 N   0  0  0  0  0  0
  -26.2893  -12.9409   20.3253 N   0  0  0  0  0  0
  -25.9318  -11.6551   20.5747 N   0  0  0  0  0  0
  -22.0484  -12.8152   22.0457 N   0  0  0  0  0  0
  -25.4142  -15.1928   20.4136 N   0  0  0  0  0  0
  -31.7649  -15.0015   20.2241 O   0  0  0  0  0  0
  -21.6643   -6.8876   21.4236 O   0  0  0  0  0  0
  -22.3477  -14.5502   20.6764 O   0  0  0  0  0  0
  -24.6404  -31.8392   23.1888 C   0  0  0  0  0  0
  -25.9158  -32.4676   23.8275 C   0  0  1  0  0  0
  -27.2313  -27.1431   20.1389 C   0  0  0  0  0  0
  -25.5871  -33.8476   24.2159 N   0  0  0  0  0  0
  -23.4437  -30.4653   21.5291 C   0  0  2  0  0  0
  -24.8939  -28.8956   20.1020 C   0  0  0  0  0  0
  -22.7589  -29.4491   22.4779 C   0  0  0  0  0  0
  -18.0314  -28.1359   22.8443 C   0  0  0  0  0  0
  -24.1469  -36.7284   23.2665 C   0  0  0  0  0  0
  -25.9989  -30.7232   21.3796 C   0  0  0  0  0  0
  -26.0702  -29.3362   20.7178 C   0  0  0  0  0  0
  -27.2303  -28.4739   20.7231 C   0  0  0  0  0  0
  -26.0101  -26.7907   19.5189 C   0  0  0  0  0  0
  -24.8757  -27.6318   19.4903 C   0  0  0  0  0  0
  -23.6743  -29.8040   20.1427 C   0  0  0  0  0  0
  -25.4088  -36.3040   24.0345 C   0  0  1  0  0  0
  -20.5933  -28.3669   23.1206 C   0  0  2  0  0  0
  -20.6764  -26.9363   22.5388 C   0  0  0  0  0  0
  -19.5745  -26.6340   21.5170 C   0  0  0  0  0  0
  -18.1934  -26.7884   22.1598 C   0  0  0  0  0  0
  -19.1587  -28.8827   23.2812 C   0  0  0  0  0  0
  -18.9523  -30.1413   23.8854 C   0  0  0  0  0  0
  -17.6533  -30.6562   24.0537 C   0  0  0  0  0  0
  -25.9047  -34.9405   23.5091 C   0  0  0  0  0  0
  -16.5408  -29.9080   23.6289 C   0  0  0  0  0  0
  -16.7313  -28.6494   23.0309 C   0  0  0  0  0  0
  -26.4456  -31.6589   25.0728 C   0  0  0  0  0  0
  -25.3673  -31.3791   26.1469 C   0  0  0  0  0  0
  -27.0309  -30.3008   24.6262 C   0  0  0  0  0  0
  -27.5980  -32.4394   25.7463 C   0  0  0  0  0  0
  -27.5556  -37.1789   24.8467 C   0  0  0  0  0  0
  -21.4274  -29.3013   22.3585 N   0  0  0  0  0  0
  -26.4249  -37.3767   23.9441 N   0  0  0  0  0  0
  -24.7145  -31.0312   22.0879 N   0  0  0  0  0  0
  -23.4276  -28.7950   23.2841 O   0  0  0  0  0  0
  -28.3329  -26.2120   20.2698 O   0  0  0  0  0  0
  -26.5665  -34.8899   22.4694 O   0  0  0  0  0  0
  -23.5547  -32.1238   23.7179 O   0  0  0  0  0  0
  -31.7577  -22.3842   21.0146 C   0  0  0  0  0  0
  -28.4326  -18.6209   18.9418 C   0  0  0  0  0  0
  -30.1279  -25.2490   19.2662 C   0  0  0  0  0  0
  -27.9686  -24.6743   18.2579 C   0  0  0  0  0  0
  -27.9823  -20.4129   21.3524 C   0  0  0  0  0  0
  -31.0098  -22.0073   19.7172 C   0  0  0  0  0  0
  -28.7371  -23.3021   20.3811 C   0  0  0  0  0  0
  -29.9645  -17.6279   20.8521 C   0  0  0  0  0  0
  -29.5435  -18.9924   19.9408 C   0  0  2  0  0  0
  -29.4714  -21.8302   19.8681 C   0  0  2  0  0  0
  -28.6875  -24.8332   19.6089 C   0  0  0  0  0  0
  -29.7453  -16.1024   20.4778 N   0  0  0  0  0  0
  -29.2642  -20.4258   20.6117 N   0  3  1  0  0  0
  -31.4714  -12.7381   19.1617 H   0  0  0  0  0  0
  -30.4342  -11.6263   20.0087 H   0  0  0  0  0  0
  -29.8225  -11.7136   17.5721 H   0  0  0  0  0  0
  -29.5981  -13.4429   17.6692 H   0  0  0  0  0  0
  -27.9485  -11.2673   18.9849 H   0  0  0  0  0  0
  -27.3760  -12.4315   17.8209 H   0  0  0  0  0  0
  -27.5931  -14.2443   19.4094 H   0  0  0  0  0  0
  -28.7667  -12.2805   21.4340 H   0  0  0  0  0  0
  -28.3861  -13.9551   21.7535 H   0  0  0  0  0  0
  -25.2782   -9.5669   22.4738 H   0  0  0  0  0  0
  -24.0014   -7.4626   22.7466 H   0  0  0  0  0  0
  -21.0860   -8.8750   19.8942 H   0  0  0  0  0  0
  -22.3706  -10.9651   19.6156 H   0  0  0  0  0  0
  -21.1999   -7.6138   23.9706 H   0  0  0  0  0  0
  -21.1497   -6.0521   25.9076 H   0  0  0  0  0  0
  -22.0597   -2.7601   23.2837 H   0  0  0  0  0  0
  -22.4151  -11.9806   22.4791 H   0  0  0  0  0  0
  -21.1100  -13.1136   22.2708 H   0  0  0  0  0  0
  -24.6429  -15.8433   20.5258 H   0  0  0  0  0  0
  -26.2523  -15.6316   20.0572 H   0  0  0  0  0  0
  -26.7224  -32.5273   23.1013 H   0  0  0  0  0  0
  -24.9885  -33.9554   25.0211 H   0  0  0  0  0  0
  -22.7462  -31.2929   21.3816 H   0  0  0  0  0  0
  -23.3706  -35.9634   23.3310 H   0  0  0  0  0  0
  -24.3548  -36.8944   22.2084 H   0  0  0  0  0  0
  -23.7222  -37.6485   23.6696 H   0  0  0  0  0  0
  -26.1477  -31.4822   20.6103 H   0  0  0  0  0  0
  -26.8735  -30.7724   22.0175 H   0  0  0  0  0  0
  -28.1243  -28.8050   21.2316 H   0  0  0  0  0  0
  -25.8639  -25.8101   19.1075 H   0  0  0  0  0  0
  -23.9709  -27.2772   19.0162 H   0  0  0  0  0  0
  -23.8266  -30.5857   19.3970 H   0  0  0  0  0  0
  -22.7861  -29.2655   19.8107 H   0  0  0  0  0  0
  -25.1266  -36.1870   25.0833 H   0  0  0  0  0  0
  -21.0035  -28.3254   24.1318 H   0  0  0  0  0  0
  -20.5548  -26.2299   23.3619 H   0  0  0  0  0  0
  -21.6637  -26.7270   22.1250 H   0  0  0  0  0  0
  -19.6885  -25.6246   21.1200 H   0  0  0  0  0  0
  -19.6676  -27.3130   20.6694 H   0  0  0  0  0  0
  -17.4176  -26.6608   21.4021 H   0  0  0  0  0  0
  -18.0368  -26.0025   22.9018 H   0  0  0  0  0  0
  -19.8025  -30.7195   24.2231 H   0  0  0  0  0  0
  -17.5113  -31.6224   24.5164 H   0  0  0  0  0  0
  -15.5413  -30.2992   23.7614 H   0  0  0  0  0  0
  -15.8707  -28.0821   22.7029 H   0  0  0  0  0  0
  -24.5840  -30.7114   25.7851 H   0  0  0  0  0  0
  -24.8833  -32.2973   26.4837 H   0  0  0  0  0  0
  -25.7994  -30.9042   27.0287 H   0  0  0  0  0  0
  -26.2910  -29.6764   24.1232 H   0  0  0  0  0  0
  -27.3939  -29.7256   25.4777 H   0  0  0  0  0  0
  -27.8797  -30.4286   23.9529 H   0  0  0  0  0  0
  -27.2569  -33.3739   26.1916 H   0  0  0  0  0  0
  -28.3796  -32.6914   25.0291 H   0  0  0  0  0  0
  -28.0602  -31.8607   26.5466 H   0  0  0  0  0  0
  -28.2575  -38.0090   24.7504 H   0  0  0  0  0  0
  -28.1050  -36.2611   24.6281 H   0  0  0  0  0  0
  -27.2277  -37.1458   25.8878 H   0  0  0  0  0  0
  -20.9459  -29.8957   21.6967 H   0  0  0  0  0  0
  -26.0117  -38.2826   24.1505 H   0  0  0  0  0  0
  -32.8383  -22.4023   20.8513 H   0  0  0  0  0  0
  -31.5699  -21.6736   21.8211 H   0  0  0  0  0  0
  -31.4867  -23.3715   21.3918 H   0  0  0  0  0  0
  -28.7102  -17.7444   18.3584 H   0  0  0  0  0  0
  -28.2570  -19.4258   18.2305 H   0  0  0  0  0  0
  -27.4918  -18.3951   19.4433 H   0  0  0  0  0  0
  -30.1527  -26.2652   18.8641 H   0  0  0  0  0  0
  -30.5817  -24.6282   18.5012 H   0  0  0  0  0  0
  -30.7642  -25.2334   20.1493 H   0  0  0  0  0  0
  -28.5137  -23.9967   17.5977 H   0  0  0  0  0  0
  -27.8813  -25.6266   17.7318 H   0  0  0  0  0  0
  -26.9745  -24.2435   18.3783 H   0  0  0  0  0  0
  -27.8141  -19.4639   21.8595 H   0  0  0  0  0  0
  -27.1459  -20.5873   20.6764 H   0  0  0  0  0  0
  -27.9648  -21.1906   22.1172 H   0  0  0  0  0  0
  -31.4545  -21.0943   19.3217 H   0  0  0  0  0  0
  -31.2432  -22.7298   18.9429 H   0  0  0  0  0  0
  -29.1012  -23.4902   21.3916 H   0  0  0  0  0  0
  -27.6878  -23.0568   20.5257 H   0  0  0  0  0  0
  -29.4452  -17.7239   21.8049 H   0  0  0  0  0  0
  -31.0177  -17.7242   21.1206 H   0  0  0  0  0  0
  -30.4243  -19.1521   19.3182 H   0  0  0  0  0  0
  -29.0722  -21.6579   18.8693 H   0  0  0  0  0  0
  -28.7650  -15.8658   20.4399 H   0  0  0  0  0  0
  -29.9549  -20.4723   21.3459 H   0  0  0  0  0  0
  1 25  1  0  0  0
  1 30  2  0  0  0
  1 82  1  0  0  0
  2  3  1  0  0  0
  2 25  1  0  0  0
  2 84  1  0  0  0
  2 85  1  0  0  0
  3  4  1  0  0  0
  3 86  1  0  0  0
  3 87  1  0  0  0
  4  5  1  0  0  0
  4 88  1  0  0  0
  4 89  1  0  0  0
  5  6  1  0  0  0
  5 26  1  0  0  0
  5 90  1  0  0  0
  6 25  1  0  0  0
  6 91  1  0  0  0
  6 92  1  0  0  0
  7  8  2  0  0  0
  7 26  1  0  0  0
  7 29  1  0  0  0
  8  9  1  0  0  0
  8 22  1  0  0  0
  9 10  1  0  0  0
  9 27  2  0  0  0
 10 11  2  0  0  0
 10 15  1  0  0  0
 11 12  1  0  0  0
 11 93  1  0  0  0
 12 13  2  0  0  0
 12 94  1  0  0  0
 13 14  1  0  0  0
 13 31  1  0  0  0
 14 15  2  0  0  0
 14 95  1  0  0  0
 15 96  1  0  0  0
 16 17  2  0  0  0
 16 21  1  0  0  0
 16 31  1  0  0  0
 17 18  1  0  0  0
 17 97  1  0  0  0
 18 19  2  0  0  0
 18 98  1  0  0  0
 19 20  1  0  0  0
 19 24  1  0  0  0
 20 21  2  0  0  0
 20 99  1  0  0  0
 21 23  1  0  0  0
 22 28  1  0  0  0
 22 32  2  0  0  0
 26 27  1  0  0  0
 28100  1  0  0  0
 28101  1  0  0  0
 29102  1  0  0  0
 29103  1  0  0  0
 33 34  1  0  0  0
 33 66  1  0  0  0
 33 70  2  0  0  0
 34 36  1  0  0  0
 34 59  1  0  0  0
 34104  1  0  0  0
 35 44  2  0  0  0
 35 45  1  0  0  0
 35 68  1  0  0  0
 36 56  1  0  0  0
 36105  1  0  0  0
 37 39  1  0  0  0
 37 47  1  0  0  0
 37 66  1  0  0  0
 37106  1  0  0  0
 38 43  2  0  0  0
 38 46  1  0  0  0
 38 47  1  0  0  0
 39 64  1  0  0  0
 39 67  2  0  0  0
 40 52  1  0  0  0
 40 53  2  0  0  0
 40 58  1  0  0  0
 41107  1  0  0  0
 41108  1  0  0  0
 41109  1  0  0  0
 41 48  1  0  0  0
 42 43  1  0  0  0
 42 66  1  0  0  0
 42110  1  0  0  0
 42111  1  0  0  0
 43 44  1  0  0  0
 44112  1  0  0  0
 45 46  2  0  0  0
 45113  1  0  0  0
 46114  1  0  0  0
 47115  1  0  0  0
 47116  1  0  0  0
 48 56  1  0  0  0
 48 65  1  0  0  0
 48117  1  0  0  0
 49 50  1  0  0  0
 49 53  1  0  0  0
 49 64  1  0  0  0
 49118  1  0  0  0
 50 51  1  0  0  0
 50119  1  0  0  0
 50120  1  0  0  0
 51 52  1  0  0  0
 51121  1  0  0  0
 51122  1  0  0  0
 52123  1  0  0  0
 52124  1  0  0  0
 53 54  1  0  0  0
 54 55  2  0  0  0
 54125  1  0  0  0
 55 57  1  0  0  0
 55126  1  0  0  0
 56 69  2  0  0  0
 57 58  2  0  0  0
 57127  1  0  0  0
 58128  1  0  0  0
 59 60  1  0  0  0
 59 61  1  0  0  0
 59 62  1  0  0  0
 60129  1  0  0  0
 60130  1  0  0  0
 60131  1  0  0  0
 61132  1  0  0  0
 61133  1  0  0  0
 61134  1  0  0  0
 62135  1  0  0  0
 62136  1  0  0  0
 62137  1  0  0  0
 63 65  1  0  0  0
 63138  1  0  0  0
 63139  1  0  0  0
 63140  1  0  0  0
 64141  1  0  0  0
 65142  1  0  0  0
 68 81  1  0  0  0
 71 76  1  0  0  0
 71143  1  0  0  0
 71144  1  0  0  0
 71145  1  0  0  0
 72146  1  0  0  0
 72147  1  0  0  0
 72148  1  0  0  0
 72 79  1  0  0  0
 73149  1  0  0  0
 73150  1  0  0  0
 73151  1  0  0  0
 73 81  1  0  0  0
 74 81  1  0  0  0
 74152  1  0  0  0
 74153  1  0  0  0
 74154  1  0  0  0
 75155  1  0  0  0
 75156  1  0  0  0
 75157  1  0  0  0
 75 83  1  0  0  0
 76158  1  0  0  0
 76159  1  0  0  0
 76 80  1  0  0  0
 77 80  1  0  0  0
 77 81  1  0  0  0
 77160  1  0  0  0
 77161  1  0  0  0
 78 79  1  0  0  0
 78 82  1  0  0  0
 78162  1  0  0  0
 78163  1  0  0  0
 79 83  1  0  0  0
 79164  1  0  0  0
 80 83  1  0  0  0
 80165  1  0  0  0
 82166  1  0  0  0
 83167  1  0  0  0
M  CHG  1  83   1
M  ISO  4   1 100  68 101  81 101  82 100
M  END
> <chiral flag>
0

> <version>
0

> <s_m_source_file>
/data/baiqing/PycharmProjects/Reinvent-master-3.2/result/LINK_invent/BTK/process_docking_weight1_custom_sum_contain_oxygen_bond_distance_aromatic_linkinvent_7_9_3/rearranged_h_0098.sdf

> <i_m_source_file_index>
56

> <r_mmod_Potential_Energy-OPLS-2005>
484.459686279297

> <r_mmod_Stretch_Energy-OPLS-2005>
305.925170898438

> <r_mmod_Bend_Energy-OPLS-2005>
339.296875

> <r_mmod_Torsional_Energy-OPLS-2005>
264.071899414062

> <r_mmod_Improper_Torsional_Energy-OPLS-2005>
5.24644947052002

> <r_mmod_Van_der_Waal_Energy-OPLS-2005>
114.04239654541

> <r_mmod_Electrostatic_Energy-OPLS-2005>
-281.341064453125

> <r_mmod_Solvation_Energy-OPLS-2005>
-445.061553955078

> <b_mmod_Minimization_Converged-OPLS-2005>
0

> <r_mmod_RMS_Derivative-OPLS-2005>
4.17240715026855

$$$$
57
                    3D
 Structure written by MMmdl.
162170  0  0  1  0            999 V2000
  -30.7055  -14.4522   20.5023 C   0  0  0  0  0  0
  -30.4209  -12.2756   19.4367 C   0  0  0  0  0  0
  -29.4987  -12.4786   18.2163 C   0  0  0  0  0  0
  -28.0183  -12.3479   18.6259 C   0  0  0  0  0  0
  -27.6616  -13.1987   19.8746 C   0  0  2  0  0  0
  -28.7036  -12.9997   21.0020 C   0  0  0  0  0  0
  -25.2593  -13.8150   20.5699 C   0  0  0  0  0  0
  -24.1815  -13.0442   20.9184 C   0  0  0  0  0  0
  -24.6349  -11.6913   20.8739 C   0  0  0  0  0  0
  -23.9013  -10.4310   21.0401 C   0  0  0  0  0  0
  -24.3579   -9.4233   21.9180 C   0  0  0  0  0  0
  -23.6274   -8.2257   22.0753 C   0  0  0  0  0  0
  -22.4260   -8.0274   21.3543 C   0  0  0  0  0  0
  -21.9873   -9.0240   20.4651 C   0  0  0  0  0  0
  -22.7182  -10.2132   20.3061 C   0  0  0  0  0  0
  -21.6847   -6.0732   22.5285 C   0  0  0  0  0  0
  -21.4006   -6.5633   23.8220 C   0  0  0  0  0  0
  -21.3663   -5.6777   24.9180 C   0  0  0  0  0  0
  -21.6060   -4.3052   24.7224 C   0  0  0  0  0  0
  -21.8817   -3.8141   23.4348 C   0  0  0  0  0  0
  -21.9195   -4.6957   22.3404 C   0  0  0  0  0  0
  -22.7854  -13.5268   21.1861 C   0  0  0  0  0  0
  -22.1663   -4.2137   21.0983 F   0  0  0  0  0  0
  -21.5636   -3.4536   25.7745 F   0  0  0  0  0  0
  -30.0401  -13.2709   20.4468 N   0  0  0  0  0  0
  -26.3007  -12.9295   20.3367 N   0  0  0  0  0  0
  -25.9278  -11.6472   20.5759 N   0  0  0  0  0  0
  -22.0460  -12.8274   22.0409 N   0  0  0  0  0  0
  -25.4330  -15.1865   20.4092 N   0  0  0  0  0  0
  -31.8732  -14.5924   20.1314 O   0  0  0  0  0  0
  -21.6645   -6.8863   21.4239 O   0  0  0  0  0  0
  -22.3568  -14.5592   20.6739 O   0  0  0  0  0  0
  -24.6133  -31.8691   23.2135 C   0  0  0  0  0  0
  -25.9039  -32.4827   23.8414 C   0  0  1  0  0  0
  -27.2293  -27.4432   20.1000 C   0  0  0  0  0  0
  -25.5892  -33.8617   24.2348 N   0  0  0  0  0  0
  -23.3998  -30.4988   21.5518 C   0  0  2  0  0  0
  -24.8446  -28.9711   20.1109 C   0  0  0  0  0  0
  -22.7384  -29.4702   22.4975 C   0  0  0  0  0  0
  -18.0273  -28.1377   22.8498 C   0  0  0  0  0  0
  -24.1483  -36.7317   23.2641 C   0  0  0  0  0  0
  -25.9285  -30.8402   21.3655 C   0  0  0  0  0  0
  -26.0040  -29.4777   20.7086 C   0  0  0  0  0  0
  -27.1971  -28.7215   20.7005 C   0  0  0  0  0  0
  -26.0542  -26.9655   19.4692 C   0  0  0  0  0  0
  -24.8635  -27.7133   19.4880 C   0  0  0  0  0  0
  -23.6059  -29.8355   20.1639 C   0  0  0  0  0  0
  -25.4095  -36.3121   24.0353 C   0  0  1  0  0  0
  -20.5863  -28.3673   23.1297 C   0  0  2  0  0  0
  -20.6753  -26.9409   22.5407 C   0  0  0  0  0  0
  -19.5739  -26.6393   21.5197 C   0  0  0  0  0  0
  -18.1923  -26.7927   22.1618 C   0  0  0  0  0  0
  -19.1528  -28.8839   23.2900 C   0  0  0  0  0  0
  -18.9455  -30.1439   23.8923 C   0  0  0  0  0  0
  -17.6459  -30.6588   24.0570 C   0  0  0  0  0  0
  -25.9017  -34.9477   23.5147 C   0  0  0  0  0  0
  -16.5344  -29.9097   23.6327 C   0  0  0  0  0  0
  -16.7260  -28.6510   23.0357 C   0  0  0  0  0  0
  -26.4476  -31.6590   25.0731 C   0  0  0  0  0  0
  -25.3745  -31.3711   26.1488 C   0  0  0  0  0  0
  -27.0296  -30.3025   24.6094 C   0  0  0  0  0  0
  -27.6056  -32.4303   25.7486 C   0  0  0  0  0  0
  -27.5577  -37.1811   24.8469 C   0  0  0  0  0  0
  -21.4116  -29.3050   22.3698 N   0  0  0  0  0  0
  -26.4289  -37.3796   23.9422 N   0  0  0  0  0  0
  -24.6660  -31.0818   22.1031 N   0  0  0  0  0  0
  -23.4161  -28.8222   23.3003 O   0  0  0  0  0  0
  -28.3988  -26.7070   20.1610 O   0  0  0  0  0  0
  -26.5572  -34.8933   22.4709 O   0  0  0  0  0  0
  -23.5324  -32.1435   23.7537 O   0  0  0  0  0  0
  -30.6440  -18.4563   21.4102 C   0  0  0  0  0  0
  -29.2964  -19.0635   19.5088 C   0  0  0  0  0  0
  -29.9602  -18.0649   20.2419 C   0  0  0  0  0  0
  -30.6212  -19.8154   21.7996 C   0  0  0  0  0  0
  -29.9340  -20.7459   20.9839 C   0  0  0  0  0  0
  -30.5033  -18.5336   24.7781 C   0  0  0  0  0  0
  -31.3686  -20.2535   23.0529 C   0  0  0  0  0  0
  -29.9906  -16.6426   19.6852 C   0  0  0  0  0  0
  -30.5852  -20.0098   24.3579 C   0  0  0  0  0  0
  -29.3015  -24.4681   20.7965 C   0  0  0  0  0  0
  -28.2959  -25.2897   19.9677 C   0  0  0  0  0  0
  -29.1931  -22.9772   20.4194 C   0  0  0  0  0  0
  -29.2785  -20.3601   19.8675 N   0  0  0  0  0  0
  -29.9104  -15.5268   20.6394 N   0  0  0  0  0  0
  -29.9297  -22.1015   21.2880 O   0  0  0  0  0  0
  -31.4679  -12.3613   19.1390 H   0  0  0  0  0  0
  -30.3068  -11.2702   19.8429 H   0  0  0  0  0  0
  -29.7346  -11.7433   17.4456 H   0  0  0  0  0  0
  -29.6780  -13.4581   17.7682 H   0  0  0  0  0  0
  -27.8280  -11.2939   18.8324 H   0  0  0  0  0  0
  -27.3687  -12.6125   17.7895 H   0  0  0  0  0  0
  -27.6979  -14.2402   19.5602 H   0  0  0  0  0  0
  -28.6666  -11.9754   21.3755 H   0  0  0  0  0  0
  -28.4829  -13.6367   21.8603 H   0  0  0  0  0  0
  -25.2710   -9.5732   22.4754 H   0  0  0  0  0  0
  -24.0003   -7.4651   22.7464 H   0  0  0  0  0  0
  -21.0817   -8.8756   19.8948 H   0  0  0  0  0  0
  -22.3631  -10.9676   19.6185 H   0  0  0  0  0  0
  -21.1985   -7.6133   23.9714 H   0  0  0  0  0  0
  -21.1490   -6.0514   25.9084 H   0  0  0  0  0  0
  -22.0589   -2.7596   23.2857 H   0  0  0  0  0  0
  -22.4035  -11.9927   22.4820 H   0  0  0  0  0  0
  -21.1083  -13.1336   22.2602 H   0  0  0  0  0  0
  -24.6669  -15.8414   20.5238 H   0  0  0  0  0  0
  -26.2837  -15.6244   20.0781 H   0  0  0  0  0  0
  -26.7101  -32.5558   23.1170 H   0  0  0  0  0  0
  -25.0070  -33.9775   25.0509 H   0  0  0  0  0  0
  -22.6902  -31.3175   21.4143 H   0  0  0  0  0  0
  -23.3744  -35.9654   23.3311 H   0  0  0  0  0  0
  -24.3584  -36.8909   22.2057 H   0  0  0  0  0  0
  -23.7232  -37.6528   23.6629 H   0  0  0  0  0  0
  -26.0384  -31.6109   20.6003 H   0  0  0  0  0  0
  -26.8173  -30.8916   21.9823 H   0  0  0  0  0  0
  -28.0884  -29.1047   21.1762 H   0  0  0  0  0  0
  -26.0319  -26.0169   18.9541 H   0  0  0  0  0  0
  -23.9732  -27.3209   19.0168 H   0  0  0  0  0  0
  -23.7138  -30.6128   19.4059 H   0  0  0  0  0  0
  -22.7300  -29.2538   19.8672 H   0  0  0  0  0  0
  -25.1270  -36.1995   25.0845 H   0  0  0  0  0  0
  -20.9965  -28.3252   24.1408 H   0  0  0  0  0  0
  -20.5637  -26.2294   23.3599 H   0  0  0  0  0  0
  -21.6632  -26.7440   22.1216 H   0  0  0  0  0  0
  -19.6899  -25.6309   21.1220 H   0  0  0  0  0  0
  -19.6671  -27.3209   20.6736 H   0  0  0  0  0  0
  -17.4181  -26.6673   21.4024 H   0  0  0  0  0  0
  -18.0332  -26.0056   22.9013 H   0  0  0  0  0  0
  -19.7938  -30.7241   24.2301 H   0  0  0  0  0  0
  -17.5030  -31.6273   24.5169 H   0  0  0  0  0  0
  -15.5361  -30.3014   23.7634 H   0  0  0  0  0  0
  -15.8654  -28.0831   22.7063 H   0  0  0  0  0  0
  -24.5927  -30.7032   25.7855 H   0  0  0  0  0  0
  -24.8937  -32.2876   26.4915 H   0  0  0  0  0  0
  -25.8127  -30.8920   27.0253 H   0  0  0  0  0  0
  -26.2839  -29.6795   24.1145 H   0  0  0  0  0  0
  -27.4057  -29.7253   25.4552 H   0  0  0  0  0  0
  -27.8681  -30.4342   23.9253 H   0  0  0  0  0  0
  -27.2671  -33.3590   26.2093 H   0  0  0  0  0  0
  -28.3854  -32.6872   25.0304 H   0  0  0  0  0  0
  -28.0726  -31.8401   26.5377 H   0  0  0  0  0  0
  -28.2612  -38.0091   24.7504 H   0  0  0  0  0  0
  -28.1056  -36.2626   24.6303 H   0  0  0  0  0  0
  -27.2302  -37.1478   25.8874 H   0  0  0  0  0  0
  -20.9251  -29.8806   21.6957 H   0  0  0  0  0  0
  -26.0187  -38.2885   24.1402 H   0  0  0  0  0  0
  -31.2026  -17.7321   21.9841 H   0  0  0  0  0  0
  -28.7825  -18.8262   18.5873 H   0  0  0  0  0  0
  -29.9780  -17.9220   24.0446 H   0  0  0  0  0  0
  -29.9719  -18.4284   25.7248 H   0  0  0  0  0  0
  -31.4975  -18.1089   24.9166 H   0  0  0  0  0  0
  -31.6169  -21.3122   22.9728 H   0  0  0  0  0  0
  -32.3283  -19.7357   23.0955 H   0  0  0  0  0  0
  -30.8722  -16.5697   19.0448 H   0  0  0  0  0  0
  -29.1470  -16.5169   19.0020 H   0  0  0  0  0  0
  -31.0855  -20.5567   25.1587 H   0  0  0  0  0  0
  -29.5842  -20.4401   24.2826 H   0  0  0  0  0  0
  -29.0911  -24.5969   21.8588 H   0  0  0  0  0  0
  -30.3176  -24.8255   20.6297 H   0  0  0  0  0  0
  -27.3175  -24.9182   20.2667 H   0  0  0  0  0  0
  -28.4148  -25.0782   18.9046 H   0  0  0  0  0  0
  -29.5431  -22.8666   19.3914 H   0  0  0  0  0  0
  -28.1418  -22.6813   20.4342 H   0  0  0  0  0  0
  -28.9905  -15.3292   21.0013 H   0  0  0  0  0  0
  1 25  1  0  0  0
  1 30  2  0  0  0
  1 84  1  0  0  0
  2  3  1  0  0  0
  2 25  1  0  0  0
  2 86  1  0  0  0
  2 87  1  0  0  0
  3  4  1  0  0  0
  3 88  1  0  0  0
  3 89  1  0  0  0
  4  5  1  0  0  0
  4 90  1  0  0  0
  4 91  1  0  0  0
  5  6  1  0  0  0
  5 26  1  0  0  0
  5 92  1  0  0  0
  6 25  1  0  0  0
  6 93  1  0  0  0
  6 94  1  0  0  0
  7  8  2  0  0  0
  7 26  1  0  0  0
  7 29  1  0  0  0
  8  9  1  0  0  0
  8 22  1  0  0  0
  9 10  1  0  0  0
  9 27  2  0  0  0
 10 11  2  0  0  0
 10 15  1  0  0  0
 11 12  1  0  0  0
 11 95  1  0  0  0
 12 13  2  0  0  0
 12 96  1  0  0  0
 13 14  1  0  0  0
 13 31  1  0  0  0
 14 15  2  0  0  0
 14 97  1  0  0  0
 15 98  1  0  0  0
 16 17  2  0  0  0
 16 21  1  0  0  0
 16 31  1  0  0  0
 17 18  1  0  0  0
 17 99  1  0  0  0
 18 19  2  0  0  0
 18100  1  0  0  0
 19 20  1  0  0  0
 19 24  1  0  0  0
 20 21  2  0  0  0
 20101  1  0  0  0
 21 23  1  0  0  0
 22 28  1  0  0  0
 22 32  2  0  0  0
 26 27  1  0  0  0
 28102  1  0  0  0
 28103  1  0  0  0
 29104  1  0  0  0
 29105  1  0  0  0
 33 34  1  0  0  0
 33 66  1  0  0  0
 33 70  2  0  0  0
 34 36  1  0  0  0
 34 59  1  0  0  0
 34106  1  0  0  0
 35 44  2  0  0  0
 35 45  1  0  0  0
 35 68  1  0  0  0
 36 56  1  0  0  0
 36107  1  0  0  0
 37 39  1  0  0  0
 37 47  1  0  0  0
 37 66  1  0  0  0
 37108  1  0  0  0
 38 43  2  0  0  0
 38 46  1  0  0  0
 38 47  1  0  0  0
 39 64  1  0  0  0
 39 67  2  0  0  0
 40 52  1  0  0  0
 40 53  2  0  0  0
 40 58  1  0  0  0
 41109  1  0  0  0
 41110  1  0  0  0
 41111  1  0  0  0
 41 48  1  0  0  0
 42 43  1  0  0  0
 42 66  1  0  0  0
 42112  1  0  0  0
 42113  1  0  0  0
 43 44  1  0  0  0
 44114  1  0  0  0
 45 46  2  0  0  0
 45115  1  0  0  0
 46116  1  0  0  0
 47117  1  0  0  0
 47118  1  0  0  0
 48 56  1  0  0  0
 48 65  1  0  0  0
 48119  1  0  0  0
 49 50  1  0  0  0
 49 53  1  0  0  0
 49 64  1  0  0  0
 49120  1  0  0  0
 50 51  1  0  0  0
 50121  1  0  0  0
 50122  1  0  0  0
 51 52  1  0  0  0
 51123  1  0  0  0
 51124  1  0  0  0
 52125  1  0  0  0
 52126  1  0  0  0
 53 54  1  0  0  0
 54 55  2  0  0  0
 54127  1  0  0  0
 55 57  1  0  0  0
 55128  1  0  0  0
 56 69  2  0  0  0
 57 58  2  0  0  0
 57129  1  0  0  0
 58130  1  0  0  0
 59 60  1  0  0  0
 59 61  1  0  0  0
 59 62  1  0  0  0
 60131  1  0  0  0
 60132  1  0  0  0
 60133  1  0  0  0
 61134  1  0  0  0
 61135  1  0  0  0
 61136  1  0  0  0
 62137  1  0  0  0
 62138  1  0  0  0
 62139  1  0  0  0
 63 65  1  0  0  0
 63140  1  0  0  0
 63141  1  0  0  0
 63142  1  0  0  0
 64143  1  0  0  0
 65144  1  0  0  0
 68 81  1  0  0  0
 71 73  2  0  0  0
 71 74  1  0  0  0
 71145  1  0  0  0
 72 73  1  0  0  0
 72 83  2  0  0  0
 72146  1  0  0  0
 73 78  1  0  0  0
 74 75  2  0  0  0
 74 77  1  0  0  0
 75 83  1  0  0  0
 75 85  1  0  0  0
 76 79  1  0  0  0
 76147  1  0  0  0
 76148  1  0  0  0
 76149  1  0  0  0
 77 79  1  0  0  0
 77150  1  0  0  0
 77151  1  0  0  0
 78 84  1  0  0  0
 78152  1  0  0  0
 78153  1  0  0  0
 79154  1  0  0  0
 79155  1  0  0  0
 80 81  1  0  0  0
 80 82  1  0  0  0
 80156  1  0  0  0
 80157  1  0  0  0
 81158  1  0  0  0
 81159  1  0  0  0
 82 85  1  0  0  0
 82160  1  0  0  0
 82161  1  0  0  0
 84162  1  0  0  0
M  ISO  4   1 100  68 101  81 101  84 100
M  END
> <chiral flag>
0

> <version>
0

> <s_m_source_file>
/data/baiqing/PycharmProjects/Reinvent-master-3.2/result/LINK_invent/BTK/process_docking_weight1_custom_sum_contain_oxygen_bond_distance_aromatic_linkinvent_7_9_3/rearranged_h_0098.sdf

> <i_m_source_file_index>
57

> <r_mmod_Potential_Energy-OPLS-2005>
-196.610504150391

> <r_mmod_Stretch_Energy-OPLS-2005>
35.6047401428223

> <r_mmod_Bend_Energy-OPLS-2005>
103.073516845703

> <r_mmod_Torsional_Energy-OPLS-2005>
213.518997192383

> <r_mmod_Improper_Torsional_Energy-OPLS-2005>
12.5138263702393

> <r_mmod_Van_der_Waal_Energy-OPLS-2005>
170.520065307617

> <r_mmod_Electrostatic_Energy-OPLS-2005>
-531.651672363281

> <r_mmod_Solvation_Energy-OPLS-2005>
-216.922256469727

> <b_mmod_Minimization_Converged-OPLS-2005>
0

> <r_mmod_RMS_Derivative-OPLS-2005>
2.76866292953491

$$$$
58
                    3D
 Structure written by MMmdl.
178186  0  0  1  0            999 V2000
  -30.6925  -14.4931   20.5581 C   0  0  0  0  0  0
  -30.4260  -12.3102   19.4421 C   0  0  0  0  0  0
  -29.5074  -12.4821   18.2163 C   0  0  0  0  0  0
  -28.0231  -12.3646   18.6112 C   0  0  0  0  0  0
  -27.6590  -13.2107   19.8640 C   0  0  2  0  0  0
  -28.6960  -13.0105   20.9929 C   0  0  0  0  0  0
  -25.2572  -13.8186   20.5584 C   0  0  0  0  0  0
  -24.1866  -13.0463   20.9158 C   0  0  0  0  0  0
  -24.6409  -11.6932   20.8665 C   0  0  0  0  0  0
  -23.9032  -10.4303   21.0313 C   0  0  0  0  0  0
  -24.3602   -9.4230   21.9083 C   0  0  0  0  0  0
  -23.6312   -8.2251   22.0698 C   0  0  0  0  0  0
  -22.4273   -8.0267   21.3536 C   0  0  0  0  0  0
  -21.9877   -9.0197   20.4604 C   0  0  0  0  0  0
  -22.7191  -10.2090   20.2981 C   0  0  0  0  0  0
  -21.6887   -6.0694   22.5254 C   0  0  0  0  0  0
  -21.4037   -6.5584   23.8196 C   0  0  0  0  0  0
  -21.3640   -5.6750   24.9143 C   0  0  0  0  0  0
  -21.6054   -4.3013   24.7199 C   0  0  0  0  0  0
  -21.8839   -3.8090   23.4318 C   0  0  0  0  0  0
  -21.9229   -4.6905   22.3388 C   0  0  0  0  0  0
  -22.7869  -13.5224   21.1801 C   0  0  0  0  0  0
  -22.1679   -4.2086   21.0967 F   0  0  0  0  0  0
  -21.5625   -3.4508   25.7698 F   0  0  0  0  0  0
  -30.0246  -13.3115   20.4447 N   0  0  0  0  0  0
  -26.3003  -12.9353   20.3265 N   0  0  0  0  0  0
  -25.9326  -11.6505   20.5700 N   0  0  0  0  0  0
  -22.0525  -12.8251   22.0386 N   0  0  0  0  0  0
  -25.4215  -15.1887   20.3909 N   0  0  0  0  0  0
  -31.8261  -14.6613   20.1017 O   0  0  0  0  0  0
  -21.6672   -6.8820   21.4237 O   0  0  0  0  0  0
  -22.3467  -14.5441   20.6524 O   0  0  0  0  0  0
  -24.6226  -31.8714   23.2086 C   0  0  0  0  0  0
  -25.9122  -32.4851   23.8369 C   0  0  1  0  0  0
  -27.2012  -27.3835   20.0613 C   0  0  0  0  0  0
  -25.5946  -33.8650   24.2301 N   0  0  0  0  0  0
  -23.4048  -30.5053   21.5551 C   0  0  2  0  0  0
  -24.8332  -28.9763   20.1079 C   0  0  0  0  0  0
  -22.7450  -29.4741   22.4995 C   0  0  0  0  0  0
  -18.0293  -28.1403   22.8482 C   0  0  0  0  0  0
  -24.1494  -36.7316   23.2634 C   0  0  0  0  0  0
  -25.9462  -30.8133   21.3764 C   0  0  0  0  0  0
  -26.0067  -29.4475   20.7138 C   0  0  0  0  0  0
  -27.1847  -28.6555   20.6985 C   0  0  0  0  0  0
  -25.9984  -26.9620   19.4312 C   0  0  0  0  0  0
  -24.8284  -27.7307   19.4715 C   0  0  0  0  0  0
  -23.6058  -29.8519   20.1663 C   0  0  0  0  0  0
  -25.4123  -36.3137   24.0324 C   0  0  1  0  0  0
  -20.5881  -28.3720   23.1283 C   0  0  2  0  0  0
  -20.6791  -26.9460   22.5380 C   0  0  0  0  0  0
  -19.5758  -26.6398   21.5215 C   0  0  0  0  0  0
  -18.1939  -26.7938   22.1623 C   0  0  0  0  0  0
  -19.1535  -28.8875   23.2880 C   0  0  0  0  0  0
  -18.9463  -30.1462   23.8909 C   0  0  0  0  0  0
  -17.6477  -30.6587   24.0579 C   0  0  0  0  0  0
  -25.9063  -34.9507   23.5119 C   0  0  0  0  0  0
  -16.5371  -29.9098   23.6336 C   0  0  0  0  0  0
  -16.7287  -28.6511   23.0362 C   0  0  0  0  0  0
  -26.4476  -31.6645   25.0736 C   0  0  0  0  0  0
  -25.3660  -31.3808   26.1434 C   0  0  0  0  0  0
  -27.0298  -30.3073   24.6178 C   0  0  0  0  0  0
  -27.6063  -32.4353   25.7496 C   0  0  0  0  0  0
  -27.5595  -37.1808   24.8459 C   0  0  0  0  0  0
  -21.4170  -29.3102   22.3689 N   0  0  0  0  0  0
  -26.4309  -37.3826   23.9401 N   0  0  0  0  0  0
  -24.6790  -31.0767   22.1042 N   0  0  0  0  0  0
  -23.4208  -28.8278   23.3050 O   0  0  0  0  0  0
  -28.3470  -26.5878   20.0806 O   0  0  0  0  0  0
  -26.5637  -34.8956   22.4692 O   0  0  0  0  0  0
  -23.5414  -32.1541   23.7434 O   0  0  0  0  0  0
  -30.8947  -19.9607   20.2724 C   0  0  0  0  0  0
  -28.8887  -20.5802   20.9447 C   0  0  0  0  0  0
  -29.6821  -19.4654   20.8383 C   0  0  0  0  0  0
  -30.8095  -21.3151   20.0433 C   0  0  0  0  0  0
  -32.5117  -19.4262   15.1510 C   0  0  0  0  0  0
  -32.7351  -22.8225   20.6455 C   0  0  0  0  0  0
  -27.9489  -17.6801   20.5899 C   0  0  0  0  0  0
  -29.1709  -17.9587   22.7863 C   0  0  0  0  0  0
  -33.1928  -20.1767   16.3071 C   0  0  0  0  0  0
  -32.2075  -20.9773   17.1848 C   0  0  0  0  0  0
  -32.8618  -21.5059   18.4860 C   0  0  0  0  0  0
  -29.3719  -24.2340   19.6478 C   0  0  0  0  0  0
  -28.8442  -23.0422   20.5148 C   0  0  0  0  0  0
  -30.3790  -16.9584   20.8083 C   0  0  0  0  0  0
  -28.3288  -25.3449   19.3224 C   0  0  0  0  0  0
  -31.9103  -22.2062   19.4992 C   0  0  1  0  0  0
  -29.3085  -18.0192   21.2467 C   0  0  0  0  0  0
  -29.5326  -21.7223   20.4675 N   0  0  0  0  0  0
  -29.9871  -15.5446   21.0254 N   0  0  0  0  0  0
  -31.4658  -12.4164   19.1299 H   0  0  0  0  0  0
  -30.3437  -11.3001   19.8434 H   0  0  0  0  0  0
  -29.7581  -11.7379   17.4575 H   0  0  0  0  0  0
  -29.6967  -13.4538   17.7624 H   0  0  0  0  0  0
  -27.8243  -11.3107   18.7964 H   0  0  0  0  0  0
  -27.3916  -12.6464   17.7677 H   0  0  0  0  0  0
  -27.6950  -14.2570   19.5620 H   0  0  0  0  0  0
  -28.6750  -11.9771   21.3458 H   0  0  0  0  0  0
  -28.4433  -13.6275   21.8576 H   0  0  0  0  0  0
  -25.2740   -9.5734   22.4637 H   0  0  0  0  0  0
  -24.0010   -7.4664   22.7457 H   0  0  0  0  0  0
  -21.0782   -8.8689   19.8934 H   0  0  0  0  0  0
  -22.3617  -10.9584   19.6054 H   0  0  0  0  0  0
  -21.2015   -7.6097   23.9666 H   0  0  0  0  0  0
  -21.1467   -6.0475   25.9057 H   0  0  0  0  0  0
  -22.0650   -2.7556   23.2854 H   0  0  0  0  0  0
  -22.4104  -11.9947   22.4900 H   0  0  0  0  0  0
  -21.1074  -13.1178   22.2374 H   0  0  0  0  0  0
  -24.6590  -15.8507   20.4965 H   0  0  0  0  0  0
  -26.2587  -15.6128   20.0129 H   0  0  0  0  0  0
  -26.7195  -32.5513   23.1121 H   0  0  0  0  0  0
  -25.0035  -33.9802   25.0408 H   0  0  0  0  0  0
  -22.6957  -31.3255   21.4272 H   0  0  0  0  0  0
  -23.3769  -35.9628   23.3287 H   0  0  0  0  0  0
  -24.3571  -36.8961   22.2046 H   0  0  0  0  0  0
  -23.7206  -37.6501   23.6652 H   0  0  0  0  0  0
  -26.0727  -31.5733   20.6034 H   0  0  0  0  0  0
  -26.8320  -30.8537   21.9958 H   0  0  0  0  0  0
  -28.0820  -29.0194   21.1790 H   0  0  0  0  0  0
  -25.8951  -26.0455   18.8775 H   0  0  0  0  0  0
  -23.9319  -27.3722   18.9847 H   0  0  0  0  0  0
  -23.7133  -30.6350   19.4158 H   0  0  0  0  0  0
  -22.7233  -29.2787   19.8717 H   0  0  0  0  0  0
  -25.1292  -36.2005   25.0820 H   0  0  0  0  0  0
  -20.9989  -28.3316   24.1407 H   0  0  0  0  0  0
  -20.5737  -26.2368   23.3602 H   0  0  0  0  0  0
  -21.6663  -26.7516   22.1167 H   0  0  0  0  0  0
  -19.6934  -25.6310   21.1249 H   0  0  0  0  0  0
  -19.6688  -27.3215   20.6757 H   0  0  0  0  0  0
  -17.4231  -26.6722   21.4019 H   0  0  0  0  0  0
  -18.0338  -26.0073   22.9009 H   0  0  0  0  0  0
  -19.7962  -30.7278   24.2285 H   0  0  0  0  0  0
  -17.5044  -31.6270   24.5180 H   0  0  0  0  0  0
  -15.5377  -30.3016   23.7627 H   0  0  0  0  0  0
  -15.8688  -28.0820   22.7084 H   0  0  0  0  0  0
  -24.5782  -30.7273   25.7696 H   0  0  0  0  0  0
  -24.8908  -32.3011   26.4865 H   0  0  0  0  0  0
  -25.7893  -30.8904   27.0212 H   0  0  0  0  0  0
  -26.2885  -29.6852   24.1177 H   0  0  0  0  0  0
  -27.3991  -29.7318   25.4669 H   0  0  0  0  0  0
  -27.8749  -30.4365   23.9412 H   0  0  0  0  0  0
  -27.2702  -33.3640   26.2112 H   0  0  0  0  0  0
  -28.3840  -32.6951   25.0304 H   0  0  0  0  0  0
  -28.0776  -31.8459   26.5370 H   0  0  0  0  0  0
  -28.2618  -38.0102   24.7549 H   0  0  0  0  0  0
  -28.1095  -36.2657   24.6241 H   0  0  0  0  0  0
  -27.2324  -37.1402   25.8863 H   0  0  0  0  0  0
  -20.9369  -29.8800   21.6870 H   0  0  0  0  0  0
  -26.0214  -38.2914   24.1386 H   0  0  0  0  0  0
  -31.7722  -19.3714   20.0481 H   0  0  0  0  0  0
  -27.8812  -20.6586   21.3317 H   0  0  0  0  0  0
  -33.2166  -18.7789   14.6268 H   0  0  0  0  0  0
  -32.0891  -20.1170   14.4203 H   0  0  0  0  0  0
  -31.7042  -18.7890   15.5147 H   0  0  0  0  0  0
  -32.1316  -23.4792   21.2739 H   0  0  0  0  0  0
  -33.5648  -23.4172   20.2651 H   0  0  0  0  0  0
  -33.1597  -22.0529   21.2916 H   0  0  0  0  0  0
  -27.1587  -18.3768   20.8791 H   0  0  0  0  0  0
  -27.5912  -16.6928   20.8700 H   0  0  0  0  0  0
  -28.0263  -17.7135   19.5013 H   0  0  0  0  0  0
  -28.4081  -18.6412   23.1613 H   0  0  0  0  0  0
  -30.1089  -18.2307   23.2720 H   0  0  0  0  0  0
  -28.8991  -16.9594   23.1289 H   0  0  0  0  0  0
  -33.9681  -20.8367   15.9132 H   0  0  0  0  0  0
  -33.7130  -19.4446   16.9240 H   0  0  0  0  0  0
  -31.3610  -20.3369   17.4318 H   0  0  0  0  0  0
  -31.8023  -21.8150   16.6120 H   0  0  0  0  0  0
  -33.6418  -22.2114   18.1965 H   0  0  0  0  0  0
  -33.3826  -20.6884   18.9867 H   0  0  0  0  0  0
  -29.5838  -23.8084   18.6672 H   0  0  0  0  0  0
  -30.3007  -24.6507   20.0455 H   0  0  0  0  0  0
  -27.8231  -22.8265   20.1891 H   0  0  0  0  0  0
  -28.7425  -23.3437   21.5606 H   0  0  0  0  0  0
  -31.3210  -17.1315   21.3354 H   0  0  0  0  0  0
  -30.5988  -17.0787   19.7444 H   0  0  0  0  0  0
  -27.3766  -24.8217   19.3828 H   0  0  0  0  0  0
  -28.4543  -25.6303   18.2739 H   0  0  0  0  0  0
  -31.4925  -23.0347   18.9449 H   0  0  0  0  0  0
  -29.0713  -15.3627   21.4090 H   0  0  0  0  0  0
  1 25  1  0  0  0
  1 30  2  0  0  0
  1 89  1  0  0  0
  2  3  1  0  0  0
  2 25  1  0  0  0
  2 90  1  0  0  0
  2 91  1  0  0  0
  3  4  1  0  0  0
  3 92  1  0  0  0
  3 93  1  0  0  0
  4  5  1  0  0  0
  4 94  1  0  0  0
  4 95  1  0  0  0
  5  6  1  0  0  0
  5 26  1  0  0  0
  5 96  1  0  0  0
  6 25  1  0  0  0
  6 97  1  0  0  0
  6 98  1  0  0  0
  7  8  2  0  0  0
  7 26  1  0  0  0
  7 29  1  0  0  0
  8  9  1  0  0  0
  8 22  1  0  0  0
  9 10  1  0  0  0
  9 27  2  0  0  0
 10 11  2  0  0  0
 10 15  1  0  0  0
 11 12  1  0  0  0
 11 99  1  0  0  0
 12 13  2  0  0  0
 12100  1  0  0  0
 13 14  1  0  0  0
 13 31  1  0  0  0
 14 15  2  0  0  0
 14101  1  0  0  0
 15102  1  0  0  0
 16 17  2  0  0  0
 16 21  1  0  0  0
 16 31  1  0  0  0
 17 18  1  0  0  0
 17103  1  0  0  0
 18 19  2  0  0  0
 18104  1  0  0  0
 19 20  1  0  0  0
 19 24  1  0  0  0
 20 21  2  0  0  0
 20105  1  0  0  0
 21 23  1  0  0  0
 22 28  1  0  0  0
 22 32  2  0  0  0
 26 27  1  0  0  0
 28106  1  0  0  0
 28107  1  0  0  0
 29108  1  0  0  0
 29109  1  0  0  0
 33 34  1  0  0  0
 33 66  1  0  0  0
 33 70  2  0  0  0
 34 36  1  0  0  0
 34 59  1  0  0  0
 34110  1  0  0  0
 35 44  2  0  0  0
 35 45  1  0  0  0
 35 68  1  0  0  0
 36 56  1  0  0  0
 36111  1  0  0  0
 37 39  1  0  0  0
 37 47  1  0  0  0
 37 66  1  0  0  0
 37112  1  0  0  0
 38 43  2  0  0  0
 38 46  1  0  0  0
 38 47  1  0  0  0
 39 64  1  0  0  0
 39 67  2  0  0  0
 40 52  1  0  0  0
 40 53  2  0  0  0
 40 58  1  0  0  0
 41113  1  0  0  0
 41114  1  0  0  0
 41115  1  0  0  0
 41 48  1  0  0  0
 42 43  1  0  0  0
 42 66  1  0  0  0
 42116  1  0  0  0
 42117  1  0  0  0
 43 44  1  0  0  0
 44118  1  0  0  0
 45 46  2  0  0  0
 45119  1  0  0  0
 46120  1  0  0  0
 47121  1  0  0  0
 47122  1  0  0  0
 48 56  1  0  0  0
 48 65  1  0  0  0
 48123  1  0  0  0
 49 50  1  0  0  0
 49 53  1  0  0  0
 49 64  1  0  0  0
 49124  1  0  0  0
 50 51  1  0  0  0
 50125  1  0  0  0
 50126  1  0  0  0
 51 52  1  0  0  0
 51127  1  0  0  0
 51128  1  0  0  0
 52129  1  0  0  0
 52130  1  0  0  0
 53 54  1  0  0  0
 54 55  2  0  0  0
 54131  1  0  0  0
 55 57  1  0  0  0
 55132  1  0  0  0
 56 69  2  0  0  0
 57 58  2  0  0  0
 57133  1  0  0  0
 58134  1  0  0  0
 59 60  1  0  0  0
 59 61  1  0  0  0
 59 62  1  0  0  0
 60135  1  0  0  0
 60136  1  0  0  0
 60137  1  0  0  0
 61138  1  0  0  0
 61139  1  0  0  0
 61140  1  0  0  0
 62141  1  0  0  0
 62142  1  0  0  0
 62143  1  0  0  0
 63 65  1  0  0  0
 63144  1  0  0  0
 63145  1  0  0  0
 63146  1  0  0  0
 64147  1  0  0  0
 65148  1  0  0  0
 68 85  1  0  0  0
 71 73  1  0  0  0
 71 74  2  0  0  0
 71149  1  0  0  0
 72 73  2  0  0  0
 72 88  1  0  0  0
 72150  1  0  0  0
 73 87  1  0  0  0
 74 86  1  0  0  0
 74 88  1  0  0  0
 75 79  1  0  0  0
 75151  1  0  0  0
 75152  1  0  0  0
 75153  1  0  0  0
 76154  1  0  0  0
 76155  1  0  0  0
 76156  1  0  0  0
 76 86  1  0  0  0
 77157  1  0  0  0
 77158  1  0  0  0
 77159  1  0  0  0
 77 87  1  0  0  0
 78 87  1  0  0  0
 78160  1  0  0  0
 78161  1  0  0  0
 78162  1  0  0  0
 79 80  1  0  0  0
 79163  1  0  0  0
 79164  1  0  0  0
 80 81  1  0  0  0
 80165  1  0  0  0
 80166  1  0  0  0
 81 86  1  0  0  0
 81167  1  0  0  0
 81168  1  0  0  0
 82 83  1  0  0  0
 82 85  1  0  0  0
 82169  1  0  0  0
 82170  1  0  0  0
 83 88  1  0  0  0
 83171  1  0  0  0
 83172  1  0  0  0
 84 87  1  0  0  0
 84 89  1  0  0  0
 84173  1  0  0  0
 84174  1  0  0  0
 85175  1  0  0  0
 85176  1  0  0  0
 86177  1  0  0  0
 89178  1  0  0  0
M  ISO  4   1 100  68 101  85 101  89 100
M  END
> <chiral flag>
0

> <version>
0

> <s_m_source_file>
/data/baiqing/PycharmProjects/Reinvent-master-3.2/result/LINK_invent/BTK/process_docking_weight1_custom_sum_contain_oxygen_bond_distance_aromatic_linkinvent_7_9_3/rearranged_h_0098.sdf

> <i_m_source_file_index>
58

> <r_mmod_Potential_Energy-OPLS-2005>
-67.9303665161133

> <r_mmod_Stretch_Energy-OPLS-2005>
53.0586738586426

> <r_mmod_Bend_Energy-OPLS-2005>
146.51921081543

> <r_mmod_Torsional_Energy-OPLS-2005>
235.73583984375

> <r_mmod_Improper_Torsional_Energy-OPLS-2005>
4.66006994247437

> <r_mmod_Van_der_Waal_Energy-OPLS-2005>
136.156326293945

> <r_mmod_Electrostatic_Energy-OPLS-2005>
-473.725738525391

> <r_mmod_Solvation_Energy-OPLS-2005>
-192.815475463867

> <b_mmod_Minimization_Converged-OPLS-2005>
0

> <r_mmod_RMS_Derivative-OPLS-2005>
6.32723951339722

$$$$
59
                    3D
 Structure written by MMmdl.
161169  0  0  1  0            999 V2000
  -30.5377  -14.9806   20.4267 C   0  0  0  0  0  0
  -30.4393  -12.6145   19.4901 C   0  0  0  0  0  0
  -29.5202  -12.5292   18.2508 C   0  0  0  0  0  0
  -28.0549  -12.3098   18.6728 C   0  0  0  0  0  0
  -27.6249  -13.2493   19.8300 C   0  0  2  0  0  0
  -28.6692  -13.3008   20.9641 C   0  0  0  0  0  0
  -25.2448  -13.8215   20.5708 C   0  0  0  0  0  0
  -24.1776  -13.0437   20.9239 C   0  0  0  0  0  0
  -24.6398  -11.6925   20.8762 C   0  0  0  0  0  0
  -23.9084  -10.4296   21.0411 C   0  0  0  0  0  0
  -24.3632   -9.4211   21.9184 C   0  0  0  0  0  0
  -23.6308   -8.2244   22.0750 C   0  0  0  0  0  0
  -22.4287   -8.0284   21.3545 C   0  0  0  0  0  0
  -21.9925   -9.0257   20.4643 C   0  0  0  0  0  0
  -22.7258  -10.2135   20.3058 C   0  0  0  0  0  0
  -21.6856   -6.0741   22.5283 C   0  0  0  0  0  0
  -21.4014   -6.5642   23.8218 C   0  0  0  0  0  0
  -21.3660   -5.6791   24.9177 C   0  0  0  0  0  0
  -21.6044   -4.3054   24.7223 C   0  0  0  0  0  0
  -21.8820   -3.8151   23.4343 C   0  0  0  0  0  0
  -21.9191   -4.6969   22.3402 C   0  0  0  0  0  0
  -22.7795  -13.5207   21.1883 C   0  0  0  0  0  0
  -22.1660   -4.2155   21.0980 F   0  0  0  0  0  0
  -21.5626   -3.4536   25.7735 F   0  0  0  0  0  0
  -29.9340  -13.7234   20.3505 N   0  0  0  0  0  0
  -26.2870  -12.9444   20.3222 N   0  0  0  0  0  0
  -25.9330  -11.6578   20.5742 N   0  0  0  0  0  0
  -22.0436  -12.8209   22.0439 N   0  0  0  0  0  0
  -25.4078  -15.1947   20.4126 N   0  0  0  0  0  0
  -31.7577  -15.0079   20.2179 O   0  0  0  0  0  0
  -21.6647   -6.8886   21.4247 O   0  0  0  0  0  0
  -22.3482  -14.5508   20.6715 O   0  0  0  0  0  0
  -24.6458  -31.8416   23.1860 C   0  0  0  0  0  0
  -25.9220  -32.4682   23.8258 C   0  0  1  0  0  0
  -27.2123  -27.1083   20.1650 C   0  0  0  0  0  0
  -25.5957  -33.8488   24.2176 N   0  0  0  0  0  0
  -23.4504  -30.4602   21.5326 C   0  0  2  0  0  0
  -24.8989  -28.8792   20.1144 C   0  0  0  0  0  0
  -22.7578  -29.4538   22.4859 C   0  0  0  0  0  0
  -18.0308  -28.1394   22.8479 C   0  0  0  0  0  0
  -24.1492  -36.7253   23.2643 C   0  0  0  0  0  0
  -26.0081  -30.7074   21.3882 C   0  0  0  0  0  0
  -26.0779  -29.3143   20.7337 C   0  0  0  0  0  0
  -27.2370  -28.4468   20.7373 C   0  0  0  0  0  0
  -26.0100  -26.7816   19.5021 C   0  0  0  0  0  0
  -24.8795  -27.6276   19.4809 C   0  0  0  0  0  0
  -23.6780  -29.7863   20.1536 C   0  0  0  0  0  0
  -25.4127  -36.3029   24.0315 C   0  0  1  0  0  0
  -20.5920  -28.3722   23.1233 C   0  0  2  0  0  0
  -20.6790  -26.9423   22.5404 C   0  0  0  0  0  0
  -19.5763  -26.6378   21.5213 C   0  0  0  0  0  0
  -18.1946  -26.7932   22.1625 C   0  0  0  0  0  0
  -19.1564  -28.8877   23.2846 C   0  0  0  0  0  0
  -18.9477  -30.1474   23.8870 C   0  0  0  0  0  0
  -17.6472  -30.6590   24.0555 C   0  0  0  0  0  0
  -25.9077  -34.9402   23.5059 C   0  0  0  0  0  0
  -16.5364  -29.9080   23.6335 C   0  0  0  0  0  0
  -16.7291  -28.6498   23.0357 C   0  0  0  0  0  0
  -26.4530  -31.6558   25.0711 C   0  0  0  0  0  0
  -25.3707  -31.3753   26.1403 C   0  0  0  0  0  0
  -27.0398  -30.2949   24.6312 C   0  0  0  0  0  0
  -27.6059  -32.4328   25.7495 C   0  0  0  0  0  0
  -27.5578  -37.1785   24.8469 C   0  0  0  0  0  0
  -21.4271  -29.3045   22.3605 N   0  0  0  0  0  0
  -26.4292  -37.3742   23.9405 N   0  0  0  0  0  0
  -24.7215  -31.0253   22.0905 N   0  0  0  0  0  0
  -23.4213  -28.8091   23.3022 O   0  0  0  0  0  0
  -28.2666  -26.1178   20.1959 O   0  0  0  0  0  0
  -26.5669  -34.8903   22.4640 O   0  0  0  0  0  0
  -23.5569  -32.1304   23.7068 O   0  0  0  0  0  0
  -31.4068  -19.1232   22.1687 C   0  0  0  0  0  0
  -31.1153  -17.8603   21.6388 C   0  0  0  0  0  0
  -30.6675  -20.2812   21.8373 C   0  0  0  0  0  0
  -29.6239  -20.2044   20.8588 C   0  0  0  0  0  0
  -30.0433  -17.6662   20.7591 C   0  0  0  0  0  0
  -32.4907  -21.9765   22.3896 C   0  0  0  0  0  0
  -30.7493  -21.3755   24.1299 C   0  0  0  0  0  0
  -30.4501  -23.7919   20.1912 C   0  0  0  0  0  0
  -28.7624  -21.5856   20.4158 C   0  0  0  0  0  0
  -28.0117  -24.5886   20.4624 C   0  0  0  0  0  0
  -31.0328  -21.5453   22.6270 C   0  0  0  0  0  0
  -29.0017  -23.2725   20.0451 C   0  0  1  0  0  0
  -29.3375  -18.8700   20.3910 N   0  0  0  0  0  0
  -29.7559  -16.1840   20.4520 N   0  0  0  0  0  0
  -31.4698  -12.7802   19.1727 H   0  0  0  0  0  0
  -30.4443  -11.6705   20.0374 H   0  0  0  0  0  0
  -29.8465  -11.7234   17.5924 H   0  0  0  0  0  0
  -29.6021  -13.4501   17.6716 H   0  0  0  0  0  0
  -27.9569  -11.2706   18.9890 H   0  0  0  0  0  0
  -27.3910  -12.4306   17.8156 H   0  0  0  0  0  0
  -27.5795  -14.2459   19.3906 H   0  0  0  0  0  0
  -28.7698  -12.3331   21.4578 H   0  0  0  0  0  0
  -28.3648  -14.0128   21.7332 H   0  0  0  0  0  0
  -25.2771   -9.5689   22.4768 H   0  0  0  0  0  0
  -24.0012   -7.4635   22.7472 H   0  0  0  0  0  0
  -21.0850   -8.8787   19.8958 H   0  0  0  0  0  0
  -22.3712  -10.9678   19.6177 H   0  0  0  0  0  0
  -21.2012   -7.6150   23.9726 H   0  0  0  0  0  0
  -21.1478   -6.0518   25.9080 H   0  0  0  0  0  0
  -22.0597   -2.7614   23.2842 H   0  0  0  0  0  0
  -22.4048  -11.9886   22.4857 H   0  0  0  0  0  0
  -21.1046  -13.1235   22.2615 H   0  0  0  0  0  0
  -24.6328  -15.8398   20.5242 H   0  0  0  0  0  0
  -26.2414  -15.6420   20.0553 H   0  0  0  0  0  0
  -26.7290  -32.5278   23.0986 H   0  0  0  0  0  0
  -25.0073  -33.9596   25.0304 H   0  0  0  0  0  0
  -22.7541  -31.2868   21.3757 H   0  0  0  0  0  0
  -23.3758  -35.9581   23.3299 H   0  0  0  0  0  0
  -24.3573  -36.8891   22.2058 H   0  0  0  0  0  0
  -23.7245  -37.6446   23.6683 H   0  0  0  0  0  0
  -26.1663  -31.4582   20.6130 H   0  0  0  0  0  0
  -26.8776  -30.7590   22.0319 H   0  0  0  0  0  0
  -28.1376  -28.7775   21.2349 H   0  0  0  0  0  0
  -25.9204  -25.8318   18.9968 H   0  0  0  0  0  0
  -23.9825  -27.2927   18.9778 H   0  0  0  0  0  0
  -23.8182  -30.5582   19.3961 H   0  0  0  0  0  0
  -22.7916  -29.2307   19.8426 H   0  0  0  0  0  0
  -25.1315  -36.1857   25.0808 H   0  0  0  0  0  0
  -21.0012  -28.3309   24.1353 H   0  0  0  0  0  0
  -20.5683  -26.2333   23.3623 H   0  0  0  0  0  0
  -21.6656  -26.7426   22.1199 H   0  0  0  0  0  0
  -19.6922  -25.6282   21.1258 H   0  0  0  0  0  0
  -19.6698  -27.3174   20.6732 H   0  0  0  0  0  0
  -17.4214  -26.6677   21.4029 H   0  0  0  0  0  0
  -18.0345  -26.0080   22.9027 H   0  0  0  0  0  0
  -19.7951  -30.7299   24.2227 H   0  0  0  0  0  0
  -17.5022  -31.6268   24.5160 H   0  0  0  0  0  0
  -15.5361  -30.2969   23.7674 H   0  0  0  0  0  0
  -15.8693  -28.0806   22.7086 H   0  0  0  0  0  0
  -24.5893  -30.7097   25.7718 H   0  0  0  0  0  0
  -24.8889  -32.2936   26.4770 H   0  0  0  0  0  0
  -25.7981  -30.8959   27.0220 H   0  0  0  0  0  0
  -26.3018  -29.6664   24.1318 H   0  0  0  0  0  0
  -27.3997  -29.7260   25.4895 H   0  0  0  0  0  0
  -27.8932  -30.4175   23.9641 H   0  0  0  0  0  0
  -27.2656  -33.3657   26.2002 H   0  0  0  0  0  0
  -28.3903  -32.6844   25.0345 H   0  0  0  0  0  0
  -28.0691  -31.8501   26.5467 H   0  0  0  0  0  0
  -28.2596  -38.0080   24.7504 H   0  0  0  0  0  0
  -28.1072  -36.2610   24.6312 H   0  0  0  0  0  0
  -27.2292  -37.1452   25.8871 H   0  0  0  0  0  0
  -20.9488  -29.8750   21.6772 H   0  0  0  0  0  0
  -26.0161  -38.2813   24.1392 H   0  0  0  0  0  0
  -32.2049  -19.1859   22.8937 H   0  0  0  0  0  0
  -31.7066  -17.0236   21.9827 H   0  0  0  0  0  0
  -32.7048  -22.1051   21.3289 H   0  0  0  0  0  0
  -33.2032  -21.2499   22.7797 H   0  0  0  0  0  0
  -32.6986  -22.9271   22.8823 H   0  0  0  0  0  0
  -29.7010  -21.1312   24.3074 H   0  0  0  0  0  0
  -30.9624  -22.2973   24.6726 H   0  0  0  0  0  0
  -31.3564  -20.5905   24.5816 H   0  0  0  0  0  0
  -31.1997  -23.0588   19.8975 H   0  0  0  0  0  0
  -30.6664  -24.1371   21.2011 H   0  0  0  0  0  0
  -30.6004  -24.6589   19.5470 H   0  0  0  0  0  0
  -29.6782  -21.5136   19.8336 H   0  0  0  0  0  0
  -28.6220  -21.7890   21.4737 H   0  0  0  0  0  0
  -27.8974  -24.5331   21.5454 H   0  0  0  0  0  0
  -27.0213  -24.3386   20.0871 H   0  0  0  0  0  0
  -30.4045  -22.3712   22.3329 H   0  0  0  0  0  0
  -28.8783  -23.2563   18.9606 H   0  0  0  0  0  0
  -28.7775  -15.9998   20.3051 H   0  0  0  0  0  0
  1 25  1  0  0  0
  1 30  2  0  0  0
  1 84  1  0  0  0
  2  3  1  0  0  0
  2 25  1  0  0  0
  2 85  1  0  0  0
  2 86  1  0  0  0
  3  4  1  0  0  0
  3 87  1  0  0  0
  3 88  1  0  0  0
  4  5  1  0  0  0
  4 89  1  0  0  0
  4 90  1  0  0  0
  5  6  1  0  0  0
  5 26  1  0  0  0
  5 91  1  0  0  0
  6 25  1  0  0  0
  6 92  1  0  0  0
  6 93  1  0  0  0
  7  8  2  0  0  0
  7 26  1  0  0  0
  7 29  1  0  0  0
  8  9  1  0  0  0
  8 22  1  0  0  0
  9 10  1  0  0  0
  9 27  2  0  0  0
 10 11  2  0  0  0
 10 15  1  0  0  0
 11 12  1  0  0  0
 11 94  1  0  0  0
 12 13  2  0  0  0
 12 95  1  0  0  0
 13 14  1  0  0  0
 13 31  1  0  0  0
 14 15  2  0  0  0
 14 96  1  0  0  0
 15 97  1  0  0  0
 16 17  2  0  0  0
 16 21  1  0  0  0
 16 31  1  0  0  0
 17 18  1  0  0  0
 17 98  1  0  0  0
 18 19  2  0  0  0
 18 99  1  0  0  0
 19 20  1  0  0  0
 19 24  1  0  0  0
 20 21  2  0  0  0
 20100  1  0  0  0
 21 23  1  0  0  0
 22 28  1  0  0  0
 22 32  2  0  0  0
 26 27  1  0  0  0
 28101  1  0  0  0
 28102  1  0  0  0
 29103  1  0  0  0
 29104  1  0  0  0
 33 34  1  0  0  0
 33 66  1  0  0  0
 33 70  2  0  0  0
 34 36  1  0  0  0
 34 59  1  0  0  0
 34105  1  0  0  0
 35 44  2  0  0  0
 35 45  1  0  0  0
 35 68  1  0  0  0
 36 56  1  0  0  0
 36106  1  0  0  0
 37 39  1  0  0  0
 37 47  1  0  0  0
 37 66  1  0  0  0
 37107  1  0  0  0
 38 43  2  0  0  0
 38 46  1  0  0  0
 38 47  1  0  0  0
 39 64  1  0  0  0
 39 67  2  0  0  0
 40 52  1  0  0  0
 40 53  2  0  0  0
 40 58  1  0  0  0
 41108  1  0  0  0
 41109  1  0  0  0
 41110  1  0  0  0
 41 48  1  0  0  0
 42 43  1  0  0  0
 42 66  1  0  0  0
 42111  1  0  0  0
 42112  1  0  0  0
 43 44  1  0  0  0
 44113  1  0  0  0
 45 46  2  0  0  0
 45114  1  0  0  0
 46115  1  0  0  0
 47116  1  0  0  0
 47117  1  0  0  0
 48 56  1  0  0  0
 48 65  1  0  0  0
 48118  1  0  0  0
 49 50  1  0  0  0
 49 53  1  0  0  0
 49 64  1  0  0  0
 49119  1  0  0  0
 50 51  1  0  0  0
 50120  1  0  0  0
 50121  1  0  0  0
 51 52  1  0  0  0
 51122  1  0  0  0
 51123  1  0  0  0
 52124  1  0  0  0
 52125  1  0  0  0
 53 54  1  0  0  0
 54 55  2  0  0  0
 54126  1  0  0  0
 55 57  1  0  0  0
 55127  1  0  0  0
 56 69  2  0  0  0
 57 58  2  0  0  0
 57128  1  0  0  0
 58129  1  0  0  0
 59 60  1  0  0  0
 59 61  1  0  0  0
 59 62  1  0  0  0
 60130  1  0  0  0
 60131  1  0  0  0
 60132  1  0  0  0
 61133  1  0  0  0
 61134  1  0  0  0
 61135  1  0  0  0
 62136  1  0  0  0
 62137  1  0  0  0
 62138  1  0  0  0
 63 65  1  0  0  0
 63139  1  0  0  0
 63140  1  0  0  0
 63141  1  0  0  0
 64142  1  0  0  0
 65143  1  0  0  0
 68 80  1  0  0  0
 71 72  2  0  0  0
 71 73  1  0  0  0
 71144  1  0  0  0
 72 75  1  0  0  0
 72145  1  0  0  0
 73 74  2  0  0  0
 73 81  1  0  0  0
 74 79  1  0  0  0
 74 83  1  0  0  0
 75 83  2  0  0  0
 75 84  1  0  0  0
 76146  1  0  0  0
 76147  1  0  0  0
 76148  1  0  0  0
 76 81  1  0  0  0
 77 81  1  0  0  0
 77149  1  0  0  0
 77150  1  0  0  0
 77151  1  0  0  0
 78152  1  0  0  0
 78153  1  0  0  0
 78154  1  0  0  0
 78 82  1  0  0  0
 79 82  1  0  0  0
 79155  1  0  0  0
 79156  1  0  0  0
 80 82  1  0  0  0
 80157  1  0  0  0
 80158  1  0  0  0
 81159  1  0  0  0
 82160  1  0  0  0
 84161  1  0  0  0
M  ISO  4   1 100  68 101  80 101  84 100
M  END
> <chiral flag>
0

> <version>
0

> <s_m_source_file>
/data/baiqing/PycharmProjects/Reinvent-master-3.2/result/LINK_invent/BTK/process_docking_weight1_custom_sum_contain_oxygen_bond_distance_aromatic_linkinvent_7_9_3/rearranged_h_0098.sdf

> <i_m_source_file_index>
59

> <r_mmod_Potential_Energy-OPLS-2005>
709.943603515625

> <r_mmod_Stretch_Energy-OPLS-2005>
322.45263671875

> <r_mmod_Bend_Energy-OPLS-2005>
498.698425292969

> <r_mmod_Torsional_Energy-OPLS-2005>
239.818908691406

> <r_mmod_Improper_Torsional_Energy-OPLS-2005>
7.26677751541138

> <r_mmod_Van_der_Waal_Energy-OPLS-2005>
146.469039916992

> <r_mmod_Electrostatic_Energy-OPLS-2005>
-504.736663818359

> <r_mmod_Solvation_Energy-OPLS-2005>
-214.836334228516

> <b_mmod_Minimization_Converged-OPLS-2005>
0

> <r_mmod_RMS_Derivative-OPLS-2005>
0.812597513198853

$$$$
60
                    3D
 Structure written by MMmdl.
178186  0  0  1  0            999 V2000
  -30.6635  -14.5335   20.5427 C   0  0  0  0  0  0
  -30.4228  -12.3390   19.4209 C   0  0  0  0  0  0
  -29.4974  -12.5139   18.2023 C   0  0  0  0  0  0
  -28.0208  -12.3606   18.6136 C   0  0  0  0  0  0
  -27.6544  -13.2097   19.8610 C   0  0  2  0  0  0
  -28.6959  -13.0186   20.9837 C   0  0  0  0  0  0
  -25.2582  -13.8177   20.5677 C   0  0  0  0  0  0
  -24.1852  -13.0435   20.9173 C   0  0  0  0  0  0
  -24.6397  -11.6911   20.8721 C   0  0  0  0  0  0
  -23.9081  -10.4298   21.0388 C   0  0  0  0  0  0
  -24.3640   -9.4243   21.9162 C   0  0  0  0  0  0
  -23.6314   -8.2274   22.0731 C   0  0  0  0  0  0
  -22.4270   -8.0306   21.3536 C   0  0  0  0  0  0
  -21.9912   -9.0281   20.4617 C   0  0  0  0  0  0
  -22.7255  -10.2146   20.3031 C   0  0  0  0  0  0
  -21.6865   -6.0744   22.5271 C   0  0  0  0  0  0
  -21.4032   -6.5636   23.8213 C   0  0  0  0  0  0
  -21.3672   -5.6784   24.9172 C   0  0  0  0  0  0
  -21.6045   -4.3045   24.7207 C   0  0  0  0  0  0
  -21.8830   -3.8142   23.4327 C   0  0  0  0  0  0
  -21.9205   -4.6974   22.3393 C   0  0  0  0  0  0
  -22.7871  -13.5222   21.1856 C   0  0  0  0  0  0
  -22.1661   -4.2160   21.0951 F   0  0  0  0  0  0
  -21.5644   -3.4526   25.7714 F   0  0  0  0  0  0
  -30.0157  -13.3407   20.4228 N   0  0  0  0  0  0
  -26.2990  -12.9333   20.3285 N   0  0  0  0  0  0
  -25.9309  -11.6498   20.5713 N   0  0  0  0  0  0
  -22.0509  -12.8226   22.0407 N   0  0  0  0  0  0
  -25.4321  -15.1909   20.4123 N   0  0  0  0  0  0
  -31.8113  -14.6976   20.1256 O   0  0  0  0  0  0
  -21.6640   -6.8895   21.4236 O   0  0  0  0  0  0
  -22.3546  -14.5503   20.6682 O   0  0  0  0  0  0
  -24.6180  -31.8663   23.2101 C   0  0  0  0  0  0
  -25.9053  -32.4817   23.8390 C   0  0  1  0  0  0
  -27.2157  -27.3699   20.1162 C   0  0  0  0  0  0
  -25.5891  -33.8631   24.2296 N   0  0  0  0  0  0
  -23.4075  -30.4940   21.5526 C   0  0  2  0  0  0
  -24.8524  -28.9641   20.1085 C   0  0  0  0  0  0
  -22.7423  -29.4661   22.4976 C   0  0  0  0  0  0
  -18.0268  -28.1390   22.8494 C   0  0  0  0  0  0
  -24.1480  -36.7322   23.2643 C   0  0  0  0  0  0
  -25.9465  -30.8134   21.3773 C   0  0  0  0  0  0
  -26.0188  -29.4475   20.7160 C   0  0  0  0  0  0
  -27.2046  -28.6600   20.7147 C   0  0  0  0  0  0
  -26.0331  -26.9438   19.4625 C   0  0  0  0  0  0
  -24.8589  -27.7153   19.4741 C   0  0  0  0  0  0
  -23.6171  -29.8366   20.1643 C   0  0  0  0  0  0
  -25.4112  -36.3110   24.0317 C   0  0  1  0  0  0
  -20.5869  -28.3689   23.1298 C   0  0  2  0  0  0
  -20.6774  -26.9414   22.5419 C   0  0  0  0  0  0
  -19.5763  -26.6388   21.5213 C   0  0  0  0  0  0
  -18.1934  -26.7938   22.1607 C   0  0  0  0  0  0
  -19.1526  -28.8848   23.2910 C   0  0  0  0  0  0
  -18.9459  -30.1450   23.8917 C   0  0  0  0  0  0
  -17.6472  -30.6607   24.0561 C   0  0  0  0  0  0
  -25.9029  -34.9480   23.5109 C   0  0  0  0  0  0
  -16.5354  -29.9110   23.6330 C   0  0  0  0  0  0
  -16.7258  -28.6526   23.0352 C   0  0  0  0  0  0
  -26.4464  -31.6633   25.0763 C   0  0  0  0  0  0
  -25.3704  -31.3813   26.1505 C   0  0  0  0  0  0
  -27.0299  -30.3043   24.6239 C   0  0  0  0  0  0
  -27.6014  -32.4388   25.7525 C   0  0  0  0  0  0
  -27.5583  -37.1815   24.8453 C   0  0  0  0  0  0
  -21.4150  -29.3058   22.3701 N   0  0  0  0  0  0
  -26.4290  -37.3803   23.9399 N   0  0  0  0  0  0
  -24.6744  -31.0724   22.1030 N   0  0  0  0  0  0
  -23.4180  -28.8192   23.3027 O   0  0  0  0  0  0
  -28.3394  -26.5434   20.2123 O   0  0  0  0  0  0
  -26.5630  -34.8929   22.4695 O   0  0  0  0  0  0
  -23.5359  -32.1453   23.7464 O   0  0  0  0  0  0
  -31.5312  -21.6345   21.2003 C   0  0  0  0  0  0
  -33.2602  -20.0910   20.5235 C   0  0  0  0  0  0
  -32.8966  -21.3235   21.0810 C   0  0  0  0  0  0
  -30.5253  -20.7083   20.8529 C   0  0  0  0  0  0
  -30.9103  -19.3650   20.4713 C   0  0  0  0  0  0
  -32.2858  -19.1277   20.1772 C   0  0  0  0  0  0
  -34.2692  -22.1116   23.0395 C   0  0  0  0  0  0
  -33.7159  -23.7457   21.1695 C   0  0  0  0  0  0
  -29.6450  -17.7055   18.9503 C   0  0  0  0  0  0
  -28.6322  -24.1173   22.2820 C   0  0  0  0  0  0
  -33.9544  -17.8127   19.0282 C   0  0  0  0  0  0
  -29.0862  -21.2534   20.9245 C   0  0  0  0  0  0
  -28.8003  -22.6107   20.1575 C   0  0  0  0  0  0
  -30.4208  -16.9414   21.3267 C   0  0  0  0  0  0
  -28.1357  -25.1107   19.9944 C   0  0  0  0  0  0
  -33.9927  -22.2816   21.5387 C   0  0  0  0  0  0
  -29.9448  -18.1363   20.4000 C   0  0  1  0  0  0
  -28.9953  -24.0559   20.7850 C   0  0  1  0  0  0
  -29.9325  -15.5662   21.0312 N   0  0  0  0  0  0
  -32.6419  -17.9377   19.5714 O   0  0  0  0  0  0
  -31.4647  -12.4535   19.1169 H   0  0  0  0  0  0
  -30.3390  -11.3287   19.8276 H   0  0  0  0  0  0
  -29.7481  -11.7905   17.4243 H   0  0  0  0  0  0
  -29.6595  -13.5004   17.7678 H   0  0  0  0  0  0
  -27.8397  -11.3045   18.8166 H   0  0  0  0  0  0
  -27.3737  -12.6217   17.7739 H   0  0  0  0  0  0
  -27.6892  -14.2535   19.5481 H   0  0  0  0  0  0
  -28.6878  -11.9885   21.3429 H   0  0  0  0  0  0
  -28.4416  -13.6351   21.8456 H   0  0  0  0  0  0
  -25.2814   -9.5715   22.4723 H   0  0  0  0  0  0
  -24.0067   -7.4645   22.7423 H   0  0  0  0  0  0
  -21.0867   -8.8773   19.8901 H   0  0  0  0  0  0
  -22.3722  -10.9691   19.6128 H   0  0  0  0  0  0
  -21.1988   -7.6126   23.9721 H   0  0  0  0  0  0
  -21.1498   -6.0488   25.9076 H   0  0  0  0  0  0
  -22.0586   -2.7608   23.2802 H   0  0  0  0  0  0
  -22.4164  -11.9921   22.4859 H   0  0  0  0  0  0
  -21.1107  -13.1229   22.2535 H   0  0  0  0  0  0
  -24.6652  -15.8484   20.5090 H   0  0  0  0  0  0
  -26.2774  -15.6282   20.0659 H   0  0  0  0  0  0
  -26.7133  -32.5492   23.1147 H   0  0  0  0  0  0
  -24.9969  -33.9783   25.0394 H   0  0  0  0  0  0
  -22.6984  -31.3135   21.4181 H   0  0  0  0  0  0
  -23.3732  -35.9659   23.3302 H   0  0  0  0  0  0
  -24.3571  -36.8967   22.2058 H   0  0  0  0  0  0
  -23.7219  -37.6522   23.6677 H   0  0  0  0  0  0
  -26.0776  -31.5823   20.6155 H   0  0  0  0  0  0
  -26.8233  -30.8525   22.0103 H   0  0  0  0  0  0
  -28.0940  -29.0254   21.2080 H   0  0  0  0  0  0
  -25.9746  -26.0001   18.9392 H   0  0  0  0  0  0
  -23.9665  -27.3399   18.9904 H   0  0  0  0  0  0
  -23.7306  -30.6168   19.4114 H   0  0  0  0  0  0
  -22.7355  -29.2661   19.8637 H   0  0  0  0  0  0
  -25.1284  -36.1983   25.0806 H   0  0  0  0  0  0
  -20.9953  -28.3270   24.1421 H   0  0  0  0  0  0
  -20.5673  -26.2296   23.3625 H   0  0  0  0  0  0
  -21.6648  -26.7470   22.1211 H   0  0  0  0  0  0
  -19.6927  -25.6298   21.1250 H   0  0  0  0  0  0
  -19.6703  -27.3180   20.6738 H   0  0  0  0  0  0
  -17.4201  -26.6674   21.4007 H   0  0  0  0  0  0
  -18.0333  -26.0092   22.9014 H   0  0  0  0  0  0
  -19.7950  -30.7256   24.2287 H   0  0  0  0  0  0
  -17.5038  -31.6276   24.5179 H   0  0  0  0  0  0
  -15.5359  -30.3019   23.7663 H   0  0  0  0  0  0
  -15.8651  -28.0843   22.7060 H   0  0  0  0  0  0
  -24.5815  -30.7230   25.7853 H   0  0  0  0  0  0
  -24.8967  -32.3015   26.4950 H   0  0  0  0  0  0
  -25.8013  -30.8961   27.0273 H   0  0  0  0  0  0
  -26.2897  -29.6827   24.1187 H   0  0  0  0  0  0
  -27.3890  -29.7282   25.4782 H   0  0  0  0  0  0
  -27.8808  -30.4309   23.9537 H   0  0  0  0  0  0
  -27.2590  -33.3672   26.2115 H   0  0  0  0  0  0
  -28.3803  -32.7005   25.0352 H   0  0  0  0  0  0
  -28.0710  -31.8535   26.5445 H   0  0  0  0  0  0
  -28.2590  -38.0124   24.7514 H   0  0  0  0  0  0
  -28.1085  -36.2652   24.6245 H   0  0  0  0  0  0
  -27.2311  -37.1441   25.8861 H   0  0  0  0  0  0
  -20.9307  -29.8782   21.6933 H   0  0  0  0  0  0
  -26.0175  -38.2878   24.1430 H   0  0  0  0  0  0
  -31.2380  -22.6007   21.5830 H   0  0  0  0  0  0
  -34.3132  -19.8884   20.3948 H   0  0  0  0  0  0
  -34.5554  -21.0836   23.2681 H   0  0  0  0  0  0
  -33.3923  -22.3482   23.6421 H   0  0  0  0  0  0
  -35.0885  -22.7539   23.3671 H   0  0  0  0  0  0
  -33.5696  -23.8520   20.0953 H   0  0  0  0  0  0
  -34.5607  -24.3797   21.4447 H   0  0  0  0  0  0
  -32.8350  -24.1422   21.6738 H   0  0  0  0  0  0
  -29.3051  -18.5520   18.3524 H   0  0  0  0  0  0
  -28.8583  -16.9497   18.9159 H   0  0  0  0  0  0
  -30.5170  -17.2778   18.4586 H   0  0  0  0  0  0
  -29.1805  -23.3814   22.8692 H   0  0  0  0  0  0
  -27.5670  -23.9488   22.4499 H   0  0  0  0  0  0
  -28.8669  -25.0993   22.6936 H   0  0  0  0  0  0
  -33.9931  -16.9381   18.3790 H   0  0  0  0  0  0
  -34.6938  -17.6725   19.8200 H   0  0  0  0  0  0
  -34.2280  -18.6748   18.4139 H   0  0  0  0  0  0
  -28.7650  -21.3032   21.9653 H   0  0  0  0  0  0
  -28.4383  -20.5108   20.4602 H   0  0  0  0  0  0
  -27.7437  -22.5530   19.8962 H   0  0  0  0  0  0
  -29.3161  -22.5784   19.1963 H   0  0  0  0  0  0
  -30.1167  -17.1757   22.3480 H   0  0  0  0  0  0
  -31.5085  -16.9015   21.3867 H   0  0  0  0  0  0
  -27.1132  -24.8321   20.2477 H   0  0  0  0  0  0
  -28.2472  -24.9350   18.9243 H   0  0  0  0  0  0
  -34.9085  -22.0020   21.0131 H   0  0  0  0  0  0
  -28.9877  -18.4489   20.8147 H   0  0  0  0  0  0
  -30.0470  -24.3266   20.6859 H   0  0  0  0  0  0
  -28.9919  -15.3413   21.3202 H   0  0  0  0  0  0
  1 25  1  0  0  0
  1 30  2  0  0  0
  1 89  1  0  0  0
  2  3  1  0  0  0
  2 25  1  0  0  0
  2 91  1  0  0  0
  2 92  1  0  0  0
  3  4  1  0  0  0
  3 93  1  0  0  0
  3 94  1  0  0  0
  4  5  1  0  0  0
  4 95  1  0  0  0
  4 96  1  0  0  0
  5  6  1  0  0  0
  5 26  1  0  0  0
  5 97  1  0  0  0
  6 25  1  0  0  0
  6 98  1  0  0  0
  6 99  1  0  0  0
  7  8  2  0  0  0
  7 26  1  0  0  0
  7 29  1  0  0  0
  8  9  1  0  0  0
  8 22  1  0  0  0
  9 10  1  0  0  0
  9 27  2  0  0  0
 10 11  2  0  0  0
 10 15  1  0  0  0
 11 12  1  0  0  0
 11100  1  0  0  0
 12 13  2  0  0  0
 12101  1  0  0  0
 13 14  1  0  0  0
 13 31  1  0  0  0
 14 15  2  0  0  0
 14102  1  0  0  0
 15103  1  0  0  0
 16 17  2  0  0  0
 16 21  1  0  0  0
 16 31  1  0  0  0
 17 18  1  0  0  0
 17104  1  0  0  0
 18 19  2  0  0  0
 18105  1  0  0  0
 19 20  1  0  0  0
 19 24  1  0  0  0
 20 21  2  0  0  0
 20106  1  0  0  0
 21 23  1  0  0  0
 22 28  1  0  0  0
 22 32  2  0  0  0
 26 27  1  0  0  0
 28107  1  0  0  0
 28108  1  0  0  0
 29109  1  0  0  0
 29110  1  0  0  0
 33 34  1  0  0  0
 33 66  1  0  0  0
 33 70  2  0  0  0
 34 36  1  0  0  0
 34 59  1  0  0  0
 34111  1  0  0  0
 35 44  2  0  0  0
 35 45  1  0  0  0
 35 68  1  0  0  0
 36 56  1  0  0  0
 36112  1  0  0  0
 37 39  1  0  0  0
 37 47  1  0  0  0
 37 66  1  0  0  0
 37113  1  0  0  0
 38 43  2  0  0  0
 38 46  1  0  0  0
 38 47  1  0  0  0
 39 64  1  0  0  0
 39 67  2  0  0  0
 40 52  1  0  0  0
 40 53  2  0  0  0
 40 58  1  0  0  0
 41114  1  0  0  0
 41115  1  0  0  0
 41116  1  0  0  0
 41 48  1  0  0  0
 42 43  1  0  0  0
 42 66  1  0  0  0
 42117  1  0  0  0
 42118  1  0  0  0
 43 44  1  0  0  0
 44119  1  0  0  0
 45 46  2  0  0  0
 45120  1  0  0  0
 46121  1  0  0  0
 47122  1  0  0  0
 47123  1  0  0  0
 48 56  1  0  0  0
 48 65  1  0  0  0
 48124  1  0  0  0
 49 50  1  0  0  0
 49 53  1  0  0  0
 49 64  1  0  0  0
 49125  1  0  0  0
 50 51  1  0  0  0
 50126  1  0  0  0
 50127  1  0  0  0
 51 52  1  0  0  0
 51128  1  0  0  0
 51129  1  0  0  0
 52130  1  0  0  0
 52131  1  0  0  0
 53 54  1  0  0  0
 54 55  2  0  0  0
 54132  1  0  0  0
 55 57  1  0  0  0
 55133  1  0  0  0
 56 69  2  0  0  0
 57 58  2  0  0  0
 57134  1  0  0  0
 58135  1  0  0  0
 59 60  1  0  0  0
 59 61  1  0  0  0
 59 62  1  0  0  0
 60136  1  0  0  0
 60137  1  0  0  0
 60138  1  0  0  0
 61139  1  0  0  0
 61140  1  0  0  0
 61141  1  0  0  0
 62142  1  0  0  0
 62143  1  0  0  0
 62144  1  0  0  0
 63 65  1  0  0  0
 63145  1  0  0  0
 63146  1  0  0  0
 63147  1  0  0  0
 64148  1  0  0  0
 65149  1  0  0  0
 68 85  1  0  0  0
 71 73  2  0  0  0
 71 74  1  0  0  0
 71150  1  0  0  0
 72 73  1  0  0  0
 72 76  2  0  0  0
 72151  1  0  0  0
 73 86  1  0  0  0
 74 75  2  0  0  0
 74 82  1  0  0  0
 75 76  1  0  0  0
 75 87  1  0  0  0
 76 90  1  0  0  0
 77152  1  0  0  0
 77153  1  0  0  0
 77154  1  0  0  0
 77 86  1  0  0  0
 78 86  1  0  0  0
 78155  1  0  0  0
 78156  1  0  0  0
 78157  1  0  0  0
 79158  1  0  0  0
 79159  1  0  0  0
 79160  1  0  0  0
 79 87  1  0  0  0
 80161  1  0  0  0
 80162  1  0  0  0
 80163  1  0  0  0
 80 88  1  0  0  0
 81 90  1  0  0  0
 81164  1  0  0  0
 81165  1  0  0  0
 81166  1  0  0  0
 82 83  1  0  0  0
 82167  1  0  0  0
 82168  1  0  0  0
 83 88  1  0  0  0
 83169  1  0  0  0
 83170  1  0  0  0
 84 87  1  0  0  0
 84 89  1  0  0  0
 84171  1  0  0  0
 84172  1  0  0  0
 85 88  1  0  0  0
 85173  1  0  0  0
 85174  1  0  0  0
 86175  1  0  0  0
 87176  1  0  0  0
 88177  1  0  0  0
 89178  1  0  0  0
M  ISO  4   1 100  68 101  85 101  89 100
M  END
> <chiral flag>
0

> <version>
0

> <s_m_source_file>
/data/baiqing/PycharmProjects/Reinvent-master-3.2/result/LINK_invent/BTK/process_docking_weight1_custom_sum_contain_oxygen_bond_distance_aromatic_linkinvent_7_9_3/rearranged_h_0098.sdf

> <i_m_source_file_index>
60

> <r_mmod_Potential_Energy-OPLS-2005>
18.7470760345459

> <r_mmod_Stretch_Energy-OPLS-2005>
66.9866485595703

> <r_mmod_Bend_Energy-OPLS-2005>
146.909103393555

> <r_mmod_Torsional_Energy-OPLS-2005>
241.876251220703

> <r_mmod_Improper_Torsional_Energy-OPLS-2005>
3.16033458709717

> <r_mmod_Van_der_Waal_Energy-OPLS-2005>
162.263778686523

> <r_mmod_Electrostatic_Energy-OPLS-2005>
-426.540313720703

> <r_mmod_Solvation_Energy-OPLS-2005>
-204.871856689453

> <b_mmod_Minimization_Converged-OPLS-2005>
0

> <r_mmod_RMS_Derivative-OPLS-2005>
4.5794529914856

$$$$
61
                    3D
 Structure written by MMmdl.
171179  0  0  1  0            999 V2000
  -30.6214  -14.6821   20.4823 C   0  0  0  0  0  0
  -30.4284  -12.4210   19.4512 C   0  0  0  0  0  0
  -29.5036  -12.5091   18.2186 C   0  0  0  0  0  0
  -28.0265  -12.3445   18.6303 C   0  0  0  0  0  0
  -27.6439  -13.2245   19.8524 C   0  0  2  0  0  0
  -28.6893  -13.1178   20.9831 C   0  0  0  0  0  0
  -25.2530  -13.8171   20.5690 C   0  0  0  0  0  0
  -24.1807  -13.0437   20.9204 C   0  0  0  0  0  0
  -24.6373  -11.6913   20.8738 C   0  0  0  0  0  0
  -23.9036  -10.4301   21.0391 C   0  0  0  0  0  0
  -24.3601   -9.4232   21.9173 C   0  0  0  0  0  0
  -23.6293   -8.2258   22.0741 C   0  0  0  0  0  0
  -22.4291   -8.0267   21.3525 C   0  0  0  0  0  0
  -21.9900   -9.0230   20.4629 C   0  0  0  0  0  0
  -22.7208  -10.2123   20.3047 C   0  0  0  0  0  0
  -21.6863   -6.0727   22.5276 C   0  0  0  0  0  0
  -21.4008   -6.5630   23.8203 C   0  0  0  0  0  0
  -21.3668   -5.6787   24.9170 C   0  0  0  0  0  0
  -21.6062   -4.3049   24.7222 C   0  0  0  0  0  0
  -21.8812   -3.8133   23.4342 C   0  0  0  0  0  0
  -21.9194   -4.6951   22.3397 C   0  0  0  0  0  0
  -22.7837  -13.5244   21.1859 C   0  0  0  0  0  0
  -22.1668   -4.2136   21.0979 F   0  0  0  0  0  0
  -21.5631   -3.4534   25.7731 F   0  0  0  0  0  0
  -29.9912  -13.4650   20.4012 N   0  0  0  0  0  0
  -26.2950  -12.9368   20.3278 N   0  0  0  0  0  0
  -25.9305  -11.6520   20.5726 N   0  0  0  0  0  0
  -22.0477  -12.8239   22.0419 N   0  0  0  0  0  0
  -25.4220  -15.1890   20.4097 N   0  0  0  0  0  0
  -31.8088  -14.7939   20.1767 O   0  0  0  0  0  0
  -21.6650   -6.8865   21.4238 O   0  0  0  0  0  0
  -22.3539  -14.5548   20.6688 O   0  0  0  0  0  0
  -24.6284  -31.8556   23.1988 C   0  0  0  0  0  0
  -25.9116  -32.4755   23.8336 C   0  0  1  0  0  0
  -27.2181  -27.2649   20.1471 C   0  0  0  0  0  0
  -25.5918  -33.8564   24.2253 N   0  0  0  0  0  0
  -23.4261  -30.4763   21.5407 C   0  0  2  0  0  0
  -24.8767  -28.9230   20.1120 C   0  0  0  0  0  0
  -22.7477  -29.4598   22.4911 C   0  0  0  0  0  0
  -18.0278  -28.1399   22.8459 C   0  0  0  0  0  0
  -24.1493  -36.7289   23.2642 C   0  0  0  0  0  0
  -25.9709  -30.7690   21.3814 C   0  0  0  0  0  0
  -26.0462  -29.3916   20.7261 C   0  0  0  0  0  0
  -27.2220  -28.5745   20.7325 C   0  0  0  0  0  0
  -26.0316  -26.8692   19.4905 C   0  0  0  0  0  0
  -24.8739  -27.6701   19.4819 C   0  0  0  0  0  0
  -23.6454  -29.8062   20.1587 C   0  0  0  0  0  0
  -25.4116  -36.3061   24.0326 C   0  0  1  0  0  0
  -20.5876  -28.3699   23.1259 C   0  0  2  0  0  0
  -20.6767  -26.9420   22.5397 C   0  0  0  0  0  0
  -19.5759  -26.6384   21.5187 C   0  0  0  0  0  0
  -18.1937  -26.7939   22.1599 C   0  0  0  0  0  0
  -19.1534  -28.8864   23.2861 C   0  0  0  0  0  0
  -18.9468  -30.1462   23.8890 C   0  0  0  0  0  0
  -17.6472  -30.6599   24.0546 C   0  0  0  0  0  0
  -25.9054  -34.9434   23.5083 C   0  0  0  0  0  0
  -16.5353  -29.9095   23.6332 C   0  0  0  0  0  0
  -16.7266  -28.6509   23.0350 C   0  0  0  0  0  0
  -26.4491  -31.6594   25.0735 C   0  0  0  0  0  0
  -25.3704  -31.3768   26.1441 C   0  0  0  0  0  0
  -27.0351  -30.3000   24.6259 C   0  0  0  0  0  0
  -27.6024  -32.4353   25.7518 C   0  0  0  0  0  0
  -27.5578  -37.1788   24.8451 C   0  0  0  0  0  0
  -21.4186  -29.3053   22.3654 N   0  0  0  0  0  0
  -26.4288  -37.3759   23.9407 N   0  0  0  0  0  0
  -24.6936  -31.0505   22.0970 N   0  0  0  0  0  0
  -23.4171  -28.8141   23.3021 O   0  0  0  0  0  0
  -28.3068  -26.3663   20.1872 O   0  0  0  0  0  0
  -26.5626  -34.8897   22.4653 O   0  0  0  0  0  0
  -23.5432  -32.1400   23.7257 O   0  0  0  0  0  0
  -29.9896  -24.0594   19.2128 C   0  0  0  0  0  0
  -28.9705  -22.4011   20.6387 C   0  0  0  0  0  0
  -29.0137  -23.7711   20.1642 C   0  0  0  0  0  0
  -30.9075  -23.0872   18.7736 C   0  0  0  0  0  0
  -29.9172  -21.3569   20.2583 C   0  0  0  0  0  0
  -30.9327  -21.7553   19.3090 C   0  0  0  0  0  0
  -31.8880  -23.5706   17.7124 C   0  0  0  0  0  0
  -29.5464  -20.1260   22.5057 C   0  0  0  0  0  0
  -31.8045  -19.4773   18.3331 C   0  0  0  0  0  0
  -33.2863  -20.8447   19.9005 C   0  0  0  0  0  0
  -27.9681  -18.3102   20.6445 C   0  0  0  0  0  0
  -28.0368  -24.9418   20.5980 C   0  0  0  0  0  0
  -30.2947  -17.2217   21.0027 C   0  0  0  0  0  0
  -29.9841  -19.9486   21.0375 C   0  0  1  0  0  0
  -32.1331  -20.8650   18.8800 C   0  0  0  0  0  0
  -29.4788  -18.5147   20.4523 C   0  0  2  0  0  0
  -29.8454  -15.7946   20.7288 N   0  0  0  0  0  0
  -31.4689  -12.5467   19.1471 H   0  0  0  0  0  0
  -30.3667  -11.4335   19.9113 H   0  0  0  0  0  0
  -29.7797  -11.7500   17.4848 H   0  0  0  0  0  0
  -29.6384  -13.4726   17.7235 H   0  0  0  0  0  0
  -27.8722  -11.2920   18.8708 H   0  0  0  0  0  0
  -27.3729  -12.5636   17.7847 H   0  0  0  0  0  0
  -27.6509  -14.2556   19.4990 H   0  0  0  0  0  0
  -28.7143  -12.1089   21.3996 H   0  0  0  0  0  0
  -28.4334  -13.7825   21.8106 H   0  0  0  0  0  0
  -25.2738   -9.5736   22.4746 H   0  0  0  0  0  0
  -24.0009   -7.4664   22.7460 H   0  0  0  0  0  0
  -21.0834   -8.8747   19.8948 H   0  0  0  0  0  0
  -22.3651  -10.9659   19.6158 H   0  0  0  0  0  0
  -21.2010   -7.6137   23.9708 H   0  0  0  0  0  0
  -21.1501   -6.0513   25.9072 H   0  0  0  0  0  0
  -22.0590   -2.7596   23.2842 H   0  0  0  0  0  0
  -22.4086  -11.9911   22.4839 H   0  0  0  0  0  0
  -21.1072  -13.1243   22.2569 H   0  0  0  0  0  0
  -24.6498  -15.8371   20.5174 H   0  0  0  0  0  0
  -26.2618  -15.6280   20.0591 H   0  0  0  0  0  0
  -26.7171  -32.5411   23.1074 H   0  0  0  0  0  0
  -25.0025  -33.9715   25.0361 H   0  0  0  0  0  0
  -22.7224  -31.2981   21.3912 H   0  0  0  0  0  0
  -23.3750  -35.9628   23.3294 H   0  0  0  0  0  0
  -24.3570  -36.8926   22.2054 H   0  0  0  0  0  0
  -23.7254  -37.6487   23.6684 H   0  0  0  0  0  0
  -26.1096  -31.5297   20.6117 H   0  0  0  0  0  0
  -26.8469  -30.8156   22.0168 H   0  0  0  0  0  0
  -28.1146  -28.9229   21.2335 H   0  0  0  0  0  0
  -25.9799  -25.9180   18.9808 H   0  0  0  0  0  0
  -23.9805  -27.3097   18.9887 H   0  0  0  0  0  0
  -23.7640  -30.5776   19.3974 H   0  0  0  0  0  0
  -22.7677  -29.2319   19.8573 H   0  0  0  0  0  0
  -25.1301  -36.1896   25.0822 H   0  0  0  0  0  0
  -20.9968  -28.3278   24.1377 H   0  0  0  0  0  0
  -20.5631  -26.2319   23.3602 H   0  0  0  0  0  0
  -21.6647  -26.7433   22.1221 H   0  0  0  0  0  0
  -19.6928  -25.6286   21.1240 H   0  0  0  0  0  0
  -19.6716  -27.3165   20.6696 H   0  0  0  0  0  0
  -17.4202  -26.6646   21.4011 H   0  0  0  0  0  0
  -18.0373  -26.0095   22.9015 H   0  0  0  0  0  0
  -19.7953  -30.7264   24.2274 H   0  0  0  0  0  0
  -17.5035  -31.6278   24.5157 H   0  0  0  0  0  0
  -15.5359  -30.2998   23.7686 H   0  0  0  0  0  0
  -15.8654  -28.0827   22.7085 H   0  0  0  0  0  0
  -24.5848  -30.7168   25.7748 H   0  0  0  0  0  0
  -24.8950  -32.2963   26.4864 H   0  0  0  0  0  0
  -25.7990  -30.8914   27.0214 H   0  0  0  0  0  0
  -26.2956  -29.6734   24.1255 H   0  0  0  0  0  0
  -27.3971  -29.7283   25.4814 H   0  0  0  0  0  0
  -27.8861  -30.4263   23.9563 H   0  0  0  0  0  0
  -27.2604  -33.3636   26.2104 H   0  0  0  0  0  0
  -28.3833  -32.6940   25.0361 H   0  0  0  0  0  0
  -28.0702  -31.8490   26.5431 H   0  0  0  0  0  0
  -28.2568  -38.0110   24.7506 H   0  0  0  0  0  0
  -28.1101  -36.2629   24.6264 H   0  0  0  0  0  0
  -27.2298  -37.1421   25.8855 H   0  0  0  0  0  0
  -20.9366  -29.8783   21.6869 H   0  0  0  0  0  0
  -26.0156  -38.2835   24.1403 H   0  0  0  0  0  0
  -30.0311  -25.0641   18.8149 H   0  0  0  0  0  0
  -28.2081  -22.1666   21.3656 H   0  0  0  0  0  0
  -31.7027  -24.6071   17.4328 H   0  0  0  0  0  0
  -31.7903  -22.9788   16.8016 H   0  0  0  0  0  0
  -32.9157  -23.5169   18.0707 H   0  0  0  0  0  0
  -30.0961  -20.9417   22.9772 H   0  0  0  0  0  0
  -29.7330  -19.2321   23.0994 H   0  0  0  0  0  0
  -28.4833  -20.3463   22.5904 H   0  0  0  0  0  0
  -30.8687  -19.4750   17.7746 H   0  0  0  0  0  0
  -31.7764  -18.7321   19.1176 H   0  0  0  0  0  0
  -32.5876  -19.1460   17.6503 H   0  0  0  0  0  0
  -33.6187  -21.8548   20.1417 H   0  0  0  0  0  0
  -34.1452  -20.3153   19.4870 H   0  0  0  0  0  0
  -33.0360  -20.3510   20.8360 H   0  0  0  0  0  0
  -27.6184  -17.4563   20.0648 H   0  0  0  0  0  0
  -27.4043  -19.1797   20.3063 H   0  0  0  0  0  0
  -27.7138  -18.1294   21.6892 H   0  0  0  0  0  0
  -28.0059  -24.9354   21.6887 H   0  0  0  0  0  0
  -27.0463  -24.6167   20.2880 H   0  0  0  0  0  0
  -30.3087  -17.2843   22.0904 H   0  0  0  0  0  0
  -31.3437  -17.3106   20.7233 H   0  0  0  0  0  0
  -31.0499  -19.7824   21.1319 H   0  0  0  0  0  0
  -32.5913  -21.2986   17.9985 H   0  0  0  0  0  0
  -29.6144  -18.5323   19.3750 H   0  0  0  0  0  0
  -28.8656  -15.6073   20.8702 H   0  0  0  0  0  0
  1 25  1  0  0  0
  1 30  2  0  0  0
  1 87  1  0  0  0
  2  3  1  0  0  0
  2 25  1  0  0  0
  2 88  1  0  0  0
  2 89  1  0  0  0
  3  4  1  0  0  0
  3 90  1  0  0  0
  3 91  1  0  0  0
  4  5  1  0  0  0
  4 92  1  0  0  0
  4 93  1  0  0  0
  5  6  1  0  0  0
  5 26  1  0  0  0
  5 94  1  0  0  0
  6 25  1  0  0  0
  6 95  1  0  0  0
  6 96  1  0  0  0
  7  8  2  0  0  0
  7 26  1  0  0  0
  7 29  1  0  0  0
  8  9  1  0  0  0
  8 22  1  0  0  0
  9 10  1  0  0  0
  9 27  2  0  0  0
 10 11  2  0  0  0
 10 15  1  0  0  0
 11 12  1  0  0  0
 11 97  1  0  0  0
 12 13  2  0  0  0
 12 98  1  0  0  0
 13 14  1  0  0  0
 13 31  1  0  0  0
 14 15  2  0  0  0
 14 99  1  0  0  0
 15100  1  0  0  0
 16 17  2  0  0  0
 16 21  1  0  0  0
 16 31  1  0  0  0
 17 18  1  0  0  0
 17101  1  0  0  0
 18 19  2  0  0  0
 18102  1  0  0  0
 19 20  1  0  0  0
 19 24  1  0  0  0
 20 21  2  0  0  0
 20103  1  0  0  0
 21 23  1  0  0  0
 22 28  1  0  0  0
 22 32  2  0  0  0
 26 27  1  0  0  0
 28104  1  0  0  0
 28105  1  0  0  0
 29106  1  0  0  0
 29107  1  0  0  0
 33 34  1  0  0  0
 33 66  1  0  0  0
 33 70  2  0  0  0
 34 36  1  0  0  0
 34 59  1  0  0  0
 34108  1  0  0  0
 35 44  2  0  0  0
 35 45  1  0  0  0
 35 68  1  0  0  0
 36 56  1  0  0  0
 36109  1  0  0  0
 37 39  1  0  0  0
 37 47  1  0  0  0
 37 66  1  0  0  0
 37110  1  0  0  0
 38 43  2  0  0  0
 38 46  1  0  0  0
 38 47  1  0  0  0
 39 64  1  0  0  0
 39 67  2  0  0  0
 40 52  1  0  0  0
 40 53  2  0  0  0
 40 58  1  0  0  0
 41111  1  0  0  0
 41112  1  0  0  0
 41113  1  0  0  0
 41 48  1  0  0  0
 42 43  1  0  0  0
 42 66  1  0  0  0
 42114  1  0  0  0
 42115  1  0  0  0
 43 44  1  0  0  0
 44116  1  0  0  0
 45 46  2  0  0  0
 45117  1  0  0  0
 46118  1  0  0  0
 47119  1  0  0  0
 47120  1  0  0  0
 48 56  1  0  0  0
 48 65  1  0  0  0
 48121  1  0  0  0
 49 50  1  0  0  0
 49 53  1  0  0  0
 49 64  1  0  0  0
 49122  1  0  0  0
 50 51  1  0  0  0
 50123  1  0  0  0
 50124  1  0  0  0
 51 52  1  0  0  0
 51125  1  0  0  0
 51126  1  0  0  0
 52127  1  0  0  0
 52128  1  0  0  0
 53 54  1  0  0  0
 54 55  2  0  0  0
 54129  1  0  0  0
 55 57  1  0  0  0
 55130  1  0  0  0
 56 69  2  0  0  0
 57 58  2  0  0  0
 57131  1  0  0  0
 58132  1  0  0  0
 59 60  1  0  0  0
 59 61  1  0  0  0
 59 62  1  0  0  0
 60133  1  0  0  0
 60134  1  0  0  0
 60135  1  0  0  0
 61136  1  0  0  0
 61137  1  0  0  0
 61138  1  0  0  0
 62139  1  0  0  0
 62140  1  0  0  0
 62141  1  0  0  0
 63 65  1  0  0  0
 63142  1  0  0  0
 63143  1  0  0  0
 63144  1  0  0  0
 64145  1  0  0  0
 65146  1  0  0  0
 68 82  1  0  0  0
 71 73  2  0  0  0
 71 74  1  0  0  0
 71147  1  0  0  0
 72 73  1  0  0  0
 72 75  2  0  0  0
 72148  1  0  0  0
 73 82  1  0  0  0
 74 76  2  0  0  0
 74 77  1  0  0  0
 75 76  1  0  0  0
 75 84  1  0  0  0
 76 85  1  0  0  0
 77149  1  0  0  0
 77150  1  0  0  0
 77151  1  0  0  0
 78152  1  0  0  0
 78153  1  0  0  0
 78154  1  0  0  0
 78 84  1  0  0  0
 79155  1  0  0  0
 79156  1  0  0  0
 79157  1  0  0  0
 79 85  1  0  0  0
 80 85  1  0  0  0
 80158  1  0  0  0
 80159  1  0  0  0
 80160  1  0  0  0
 81161  1  0  0  0
 81162  1  0  0  0
 81163  1  0  0  0
 81 86  1  0  0  0
 82164  1  0  0  0
 82165  1  0  0  0
 83 86  1  0  0  0
 83 87  1  0  0  0
 83166  1  0  0  0
 83167  1  0  0  0
 84 86  1  0  0  0
 84168  1  0  0  0
 85169  1  0  0  0
 86170  1  0  0  0
 87171  1  0  0  0
M  ISO  4   1 100  68 101  82 101  87 100
M  END
> <chiral flag>
0

> <version>
0

> <s_m_source_file>
/data/baiqing/PycharmProjects/Reinvent-master-3.2/result/LINK_invent/BTK/process_docking_weight1_custom_sum_contain_oxygen_bond_distance_aromatic_linkinvent_7_9_3/rearranged_h_0098.sdf

> <i_m_source_file_index>
61

> <r_mmod_Potential_Energy-OPLS-2005>
182.864761352539

> <r_mmod_Stretch_Energy-OPLS-2005>
129.378311157227

> <r_mmod_Bend_Energy-OPLS-2005>
180.16520690918

> <r_mmod_Torsional_Energy-OPLS-2005>
252.381546020508

> <r_mmod_Improper_Torsional_Energy-OPLS-2005>
5.69882965087891

> <r_mmod_Van_der_Waal_Energy-OPLS-2005>
153.495590209961

> <r_mmod_Electrostatic_Energy-OPLS-2005>
-415.535614013672

> <r_mmod_Solvation_Energy-OPLS-2005>
-194.640106201172

> <b_mmod_Minimization_Converged-OPLS-2005>
0

> <r_mmod_RMS_Derivative-OPLS-2005>
2.75892210006714

$$$$
62
                    3D
 Structure written by MMmdl.
170178  0  0  1  0            999 V2000
  -30.5557  -15.0188   20.4470 C   0  0  0  0  0  0
  -30.4481  -12.6481   19.5114 C   0  0  0  0  0  0
  -29.5355  -12.5693   18.2662 C   0  0  0  0  0  0
  -28.0691  -12.3556   18.6766 C   0  0  0  0  0  0
  -27.6435  -13.2682   19.8568 C   0  0  2  0  0  0
  -28.6918  -13.3173   20.9945 C   0  0  0  0  0  0
  -25.2571  -13.8242   20.5832 C   0  0  0  0  0  0
  -24.1917  -13.0500   20.9354 C   0  0  0  0  0  0
  -24.6510  -11.6970   20.8785 C   0  0  0  0  0  0
  -23.9142  -10.4376   21.0383 C   0  0  0  0  0  0
  -24.3688   -9.4315   21.9167 C   0  0  0  0  0  0
  -23.6407   -8.2319   22.0706 C   0  0  0  0  0  0
  -22.4365   -8.0346   21.3538 C   0  0  0  0  0  0
  -22.0000   -9.0316   20.4625 C   0  0  0  0  0  0
  -22.7294  -10.2231   20.3053 C   0  0  0  0  0  0
  -21.6905   -6.0815   22.5304 C   0  0  0  0  0  0
  -21.3992   -6.5684   23.8251 C   0  0  0  0  0  0
  -21.3694   -5.6814   24.9206 C   0  0  0  0  0  0
  -21.6065   -4.3075   24.7214 C   0  0  0  0  0  0
  -21.8829   -3.8202   23.4321 C   0  0  0  0  0  0
  -21.9223   -4.7039   22.3408 C   0  0  0  0  0  0
  -22.7920  -13.5243   21.2029 C   0  0  0  0  0  0
  -22.1714   -4.2248   21.0968 F   0  0  0  0  0  0
  -21.5654   -3.4531   25.7710 F   0  0  0  0  0  0
  -29.9606  -13.7495   20.4013 N   0  0  0  0  0  0
  -26.3025  -12.9509   20.3380 N   0  0  0  0  0  0
  -25.9458  -11.6619   20.5773 N   0  0  0  0  0  0
  -22.0588  -12.8157   22.0508 N   0  0  0  0  0  0
  -25.4239  -15.1988   20.4233 N   0  0  0  0  0  0
  -31.7369  -15.0808   20.0969 O   0  0  0  0  0  0
  -21.6716   -6.8951   21.4261 O   0  0  0  0  0  0
  -22.3597  -14.5595   20.6917 O   0  0  0  0  0  0
  -24.6457  -31.8287   23.1928 C   0  0  0  0  0  0
  -25.9214  -32.4609   23.8245 C   0  0  1  0  0  0
  -27.2437  -27.1182   20.1714 C   0  0  0  0  0  0
  -25.5957  -33.8430   24.2149 N   0  0  0  0  0  0
  -23.4467  -30.4562   21.5349 C   0  0  2  0  0  0
  -24.9042  -28.8743   20.1086 C   0  0  0  0  0  0
  -22.7498  -29.4522   22.4870 C   0  0  0  0  0  0
  -18.0290  -28.1363   22.8483 C   0  0  0  0  0  0
  -24.1500  -36.7251   23.2656 C   0  0  0  0  0  0
  -26.0012  -30.7047   21.3836 C   0  0  0  0  0  0
  -26.0788  -29.3162   20.7278 C   0  0  0  0  0  0
  -27.2466  -28.4593   20.7382 C   0  0  0  0  0  0
  -26.0424  -26.7764   19.5077 C   0  0  0  0  0  0
  -24.9023  -27.6215   19.4726 C   0  0  0  0  0  0
  -23.6718  -29.7750   20.1562 C   0  0  0  0  0  0
  -25.4125  -36.2985   24.0325 C   0  0  1  0  0  0
  -20.5884  -28.3669   23.1245 C   0  0  2  0  0  0
  -20.6798  -26.9368   22.5418 C   0  0  0  0  0  0
  -19.5787  -26.6344   21.5222 C   0  0  0  0  0  0
  -18.1947  -26.7908   22.1600 C   0  0  0  0  0  0
  -19.1542  -28.8843   23.2867 C   0  0  0  0  0  0
  -18.9460  -30.1448   23.8863 C   0  0  0  0  0  0
  -17.6464  -30.6581   24.0543 C   0  0  0  0  0  0
  -25.9059  -34.9360   23.5059 C   0  0  0  0  0  0
  -16.5354  -29.9053   23.6359 C   0  0  0  0  0  0
  -16.7272  -28.6478   23.0363 C   0  0  0  0  0  0
  -26.4578  -31.6500   25.0677 C   0  0  0  0  0  0
  -25.3824  -31.3643   26.1422 C   0  0  0  0  0  0
  -27.0451  -30.2898   24.6232 C   0  0  0  0  0  0
  -27.6037  -32.4327   25.7461 C   0  0  0  0  0  0
  -27.5572  -37.1766   24.8457 C   0  0  0  0  0  0
  -21.4196  -29.3001   22.3595 N   0  0  0  0  0  0
  -26.4269  -37.3711   23.9429 N   0  0  0  0  0  0
  -24.7178  -31.0145   22.0960 N   0  0  0  0  0  0
  -23.4134  -28.8041   23.3007 O   0  0  0  0  0  0
  -28.3206  -26.1431   20.2637 O   0  0  0  0  0  0
  -26.5605  -34.8882   22.4593 O   0  0  0  0  0  0
  -23.5593  -32.1154   23.7200 O   0  0  0  0  0  0
  -31.3840  -18.4285   22.0566 C   0  0  0  0  0  0
  -30.3684  -19.0141   21.2762 C   0  0  0  0  0  0
  -30.1214  -20.5283   21.4490 C   0  0  0  0  0  0
  -30.8396  -21.0581   22.5972 C   0  0  0  0  0  0
  -31.8323  -20.2938   23.2745 C   0  0  0  0  0  0
  -32.6440  -20.7695   24.4736 C   0  0  0  0  0  0
  -32.4528  -25.7701   23.6634 C   0  0  0  0  0  0
  -30.0925  -25.1911   24.4032 C   0  0  0  0  0  0
  -29.1487  -21.6415   20.6355 C   0  0  0  0  0  0
  -30.4981  -22.3895   23.2686 C   0  0  0  0  0  0
  -29.8035  -17.7797   20.3503 C   0  0  0  0  0  0
  -29.2747  -23.3763   20.5507 C   0  0  0  0  0  0
  -31.5464  -23.5232   23.0426 C   0  0  0  0  0  0
  -28.1349  -24.5825   20.1807 C   0  0  0  0  0  0
  -31.5025  -24.6494   24.0990 C   0  0  0  0  0  0
  -32.1302  -19.0380   22.9658 N   0  0  0  0  0  0
  -29.7875  -16.2065   20.7091 N   0  0  0  0  0  0
  -31.4777  -12.8063   19.1979 H   0  0  0  0  0  0
  -30.4467  -11.6932   20.0374 H   0  0  0  0  0  0
  -29.8515  -11.7566   17.6101 H   0  0  0  0  0  0
  -29.6362  -13.4856   17.6823 H   0  0  0  0  0  0
  -27.9616  -11.3120   18.9612 H   0  0  0  0  0  0
  -27.4104  -12.5176   17.8232 H   0  0  0  0  0  0
  -27.5968  -14.2741   19.4375 H   0  0  0  0  0  0
  -28.8132  -12.3516   21.4889 H   0  0  0  0  0  0
  -28.3841  -14.0275   21.7616 H   0  0  0  0  0  0
  -25.2820   -9.5875   22.4765 H   0  0  0  0  0  0
  -24.0234   -7.4679   22.7323 H   0  0  0  0  0  0
  -21.0984   -8.8811   19.8826 H   0  0  0  0  0  0
  -22.3726  -10.9819   19.6213 H   0  0  0  0  0  0
  -21.1910   -7.6169   23.9790 H   0  0  0  0  0  0
  -21.1514   -6.0514   25.9135 H   0  0  0  0  0  0
  -22.0550   -2.7665   23.2779 H   0  0  0  0  0  0
  -22.4195  -11.9815   22.4876 H   0  0  0  0  0  0
  -21.1175  -13.1118   22.2599 H   0  0  0  0  0  0
  -24.6320  -15.8306   20.4787 H   0  0  0  0  0  0
  -26.2476  -15.6358   20.0321 H   0  0  0  0  0  0
  -26.7220  -32.5179   23.0917 H   0  0  0  0  0  0
  -25.0158  -33.9493   25.0340 H   0  0  0  0  0  0
  -22.7577  -31.2898   21.3830 H   0  0  0  0  0  0
  -23.3761  -35.9578   23.3274 H   0  0  0  0  0  0
  -24.3623  -36.8910   22.2075 H   0  0  0  0  0  0
  -23.7254  -37.6445   23.6716 H   0  0  0  0  0  0
  -26.1526  -31.4584   20.6086 H   0  0  0  0  0  0
  -26.8760  -30.7513   22.0208 H   0  0  0  0  0  0
  -28.1368  -28.8009   21.2439 H   0  0  0  0  0  0
  -25.9575  -25.8086   19.0345 H   0  0  0  0  0  0
  -24.0163  -27.2835   18.9553 H   0  0  0  0  0  0
  -23.7858  -30.5476   19.3952 H   0  0  0  0  0  0
  -22.7841  -29.2128   19.8562 H   0  0  0  0  0  0
  -25.1333  -36.1797   25.0817 H   0  0  0  0  0  0
  -21.0000  -28.3270   24.1355 H   0  0  0  0  0  0
  -20.5704  -26.2237   23.3602 H   0  0  0  0  0  0
  -21.6658  -26.7392   22.1194 H   0  0  0  0  0  0
  -19.6954  -25.6255   21.1236 H   0  0  0  0  0  0
  -19.6794  -27.3161   20.6767 H   0  0  0  0  0  0
  -17.4227  -26.6653   21.3978 H   0  0  0  0  0  0
  -18.0360  -26.0040   22.8984 H   0  0  0  0  0  0
  -19.7942  -30.7290   24.2185 H   0  0  0  0  0  0
  -17.5020  -31.6267   24.5103 H   0  0  0  0  0  0
  -15.5346  -30.2933   23.7773 H   0  0  0  0  0  0
  -15.8652  -28.0811   22.7095 H   0  0  0  0  0  0
  -24.5975  -30.7004   25.7810 H   0  0  0  0  0  0
  -24.9085  -32.2798   26.4934 H   0  0  0  0  0  0
  -25.8196  -30.8770   27.0142 H   0  0  0  0  0  0
  -26.3053  -29.6596   24.1279 H   0  0  0  0  0  0
  -27.4123  -29.7217   25.4794 H   0  0  0  0  0  0
  -27.8945  -30.4173   23.9520 H   0  0  0  0  0  0
  -27.2529  -33.3617   26.1987 H   0  0  0  0  0  0
  -28.3860  -32.6908   25.0310 H   0  0  0  0  0  0
  -28.0691  -31.8497   26.5416 H   0  0  0  0  0  0
  -28.2552  -38.0097   24.7531 H   0  0  0  0  0  0
  -28.1084  -36.2614   24.6242 H   0  0  0  0  0  0
  -27.2277  -37.1385   25.8851 H   0  0  0  0  0  0
  -20.9375  -29.8633   21.6735 H   0  0  0  0  0  0
  -26.0122  -38.2762   24.1469 H   0  0  0  0  0  0
  -31.6353  -17.3792   21.9754 H   0  0  0  0  0  0
  -33.5675  -21.2392   24.1436 H   0  0  0  0  0  0
  -32.9251  -19.9120   25.0861 H   0  0  0  0  0  0
  -32.1376  -21.4559   25.1472 H   0  0  0  0  0  0
  -32.5371  -26.5578   24.4139 H   0  0  0  0  0  0
  -32.1245  -26.2227   22.7269 H   0  0  0  0  0  0
  -33.4523  -25.3700   23.4969 H   0  0  0  0  0  0
  -30.1399  -26.0465   25.0792 H   0  0  0  0  0  0
  -29.4727  -24.4491   24.9110 H   0  0  0  0  0  0
  -29.5593  -25.5169   23.5127 H   0  0  0  0  0  0
  -28.1198  -21.4139   20.9214 H   0  0  0  0  0  0
  -29.2372  -21.3067   19.6027 H   0  0  0  0  0  0
  -30.4082  -22.2047   24.3369 H   0  0  0  0  0  0
  -29.4605  -22.6610   23.1046 H   0  0  0  0  0  0
  -30.3229  -17.8742   19.3963 H   0  0  0  0  0  0
  -28.7675  -18.0502   20.1432 H   0  0  0  0  0  0
  -30.1500  -23.5829   19.9342 H   0  0  0  0  0  0
  -29.5226  -23.7849   21.5049 H   0  0  0  0  0  0
  -31.5187  -23.9644   22.0457 H   0  0  0  0  0  0
  -32.5461  -23.0902   23.0791 H   0  0  0  0  0  0
  -27.2822  -24.3607   20.8254 H   0  0  0  0  0  0
  -27.8071  -24.3838   19.1611 H   0  0  0  0  0  0
  -31.8900  -24.2434   25.0341 H   0  0  0  0  0  0
  -28.8786  -15.9475   21.0593 H   0  0  0  0  0  0
  1 25  1  0  0  0
  1 30  2  0  0  0
  1 87  1  0  0  0
  2  3  1  0  0  0
  2 25  1  0  0  0
  2 88  1  0  0  0
  2 89  1  0  0  0
  3  4  1  0  0  0
  3 90  1  0  0  0
  3 91  1  0  0  0
  4  5  1  0  0  0
  4 92  1  0  0  0
  4 93  1  0  0  0
  5  6  1  0  0  0
  5 26  1  0  0  0
  5 94  1  0  0  0
  6 25  1  0  0  0
  6 95  1  0  0  0
  6 96  1  0  0  0
  7  8  2  0  0  0
  7 26  1  0  0  0
  7 29  1  0  0  0
  8  9  1  0  0  0
  8 22  1  0  0  0
  9 10  1  0  0  0
  9 27  2  0  0  0
 10 11  2  0  0  0
 10 15  1  0  0  0
 11 12  1  0  0  0
 11 97  1  0  0  0
 12 13  2  0  0  0
 12 98  1  0  0  0
 13 14  1  0  0  0
 13 31  1  0  0  0
 14 15  2  0  0  0
 14 99  1  0  0  0
 15100  1  0  0  0
 16 17  2  0  0  0
 16 21  1  0  0  0
 16 31  1  0  0  0
 17 18  1  0  0  0
 17101  1  0  0  0
 18 19  2  0  0  0
 18102  1  0  0  0
 19 20  1  0  0  0
 19 24  1  0  0  0
 20 21  2  0  0  0
 20103  1  0  0  0
 21 23  1  0  0  0
 22 28  1  0  0  0
 22 32  2  0  0  0
 26 27  1  0  0  0
 28104  1  0  0  0
 28105  1  0  0  0
 29106  1  0  0  0
 29107  1  0  0  0
 33 34  1  0  0  0
 33 66  1  0  0  0
 33 70  2  0  0  0
 34 36  1  0  0  0
 34 59  1  0  0  0
 34108  1  0  0  0
 35 44  2  0  0  0
 35 45  1  0  0  0
 35 68  1  0  0  0
 36 56  1  0  0  0
 36109  1  0  0  0
 37 39  1  0  0  0
 37 47  1  0  0  0
 37 66  1  0  0  0
 37110  1  0  0  0
 38 43  2  0  0  0
 38 46  1  0  0  0
 38 47  1  0  0  0
 39 64  1  0  0  0
 39 67  2  0  0  0
 40 52  1  0  0  0
 40 53  2  0  0  0
 40 58  1  0  0  0
 41111  1  0  0  0
 41112  1  0  0  0
 41113  1  0  0  0
 41 48  1  0  0  0
 42 43  1  0  0  0
 42 66  1  0  0  0
 42114  1  0  0  0
 42115  1  0  0  0
 43 44  1  0  0  0
 44116  1  0  0  0
 45 46  2  0  0  0
 45117  1  0  0  0
 46118  1  0  0  0
 47119  1  0  0  0
 47120  1  0  0  0
 48 56  1  0  0  0
 48 65  1  0  0  0
 48121  1  0  0  0
 49 50  1  0  0  0
 49 53  1  0  0  0
 49 64  1  0  0  0
 49122  1  0  0  0
 50 51  1  0  0  0
 50123  1  0  0  0
 50124  1  0  0  0
 51 52  1  0  0  0
 51125  1  0  0  0
 51126  1  0  0  0
 52127  1  0  0  0
 52128  1  0  0  0
 53 54  1  0  0  0
 54 55  2  0  0  0
 54129  1  0  0  0
 55 57  1  0  0  0
 55130  1  0  0  0
 56 69  2  0  0  0
 57 58  2  0  0  0
 57131  1  0  0  0
 58132  1  0  0  0
 59 60  1  0  0  0
 59 61  1  0  0  0
 59 62  1  0  0  0
 60133  1  0  0  0
 60134  1  0  0  0
 60135  1  0  0  0
 61136  1  0  0  0
 61137  1  0  0  0
 61138  1  0  0  0
 62139  1  0  0  0
 62140  1  0  0  0
 62141  1  0  0  0
 63 65  1  0  0  0
 63142  1  0  0  0
 63143  1  0  0  0
 63144  1  0  0  0
 64145  1  0  0  0
 65146  1  0  0  0
 68 84  1  0  0  0
 71 72  2  0  0  0
 71 86  1  0  0  0
 71147  1  0  0  0
 72 73  1  0  0  0
 72 81  1  0  0  0
 73 74  2  0  0  0
 73 79  1  0  0  0
 74 75  1  0  0  0
 74 80  1  0  0  0
 75 76  1  0  0  0
 75 86  2  0  0  0
 76148  1  0  0  0
 76149  1  0  0  0
 76150  1  0  0  0
 77151  1  0  0  0
 77152  1  0  0  0
 77153  1  0  0  0
 77 85  1  0  0  0
 78 85  1  0  0  0
 78154  1  0  0  0
 78155  1  0  0  0
 78156  1  0  0  0
 79 82  1  0  0  0
 79157  1  0  0  0
 79158  1  0  0  0
 80 83  1  0  0  0
 80159  1  0  0  0
 80160  1  0  0  0
 81 87  1  0  0  0
 81161  1  0  0  0
 81162  1  0  0  0
 82 84  1  0  0  0
 82163  1  0  0  0
 82164  1  0  0  0
 83 85  1  0  0  0
 83165  1  0  0  0
 83166  1  0  0  0
 84167  1  0  0  0
 84168  1  0  0  0
 85169  1  0  0  0
 87170  1  0  0  0
M  ISO  4   1 100  68 101  84 101  87 100
M  END
> <chiral flag>
0

> <version>
0

> <s_m_source_file>
/data/baiqing/PycharmProjects/Reinvent-master-3.2/result/LINK_invent/BTK/process_docking_weight1_custom_sum_contain_oxygen_bond_distance_aromatic_linkinvent_7_9_3/rearranged_h_0098.sdf

> <i_m_source_file_index>
62

> <r_mmod_Potential_Energy-OPLS-2005>
637.412536621094

> <r_mmod_Stretch_Energy-OPLS-2005>
367.358795166016

> <r_mmod_Bend_Energy-OPLS-2005>
384.848388671875

> <r_mmod_Torsional_Energy-OPLS-2005>
226.351638793945

> <r_mmod_Improper_Torsional_Energy-OPLS-2005>
5.5525221824646

> <r_mmod_Van_der_Waal_Energy-OPLS-2005>
156.938217163086

> <r_mmod_Electrostatic_Energy-OPLS-2005>
-495.2939453125

> <r_mmod_Solvation_Energy-OPLS-2005>
-231.972610473633

> <b_mmod_Minimization_Converged-OPLS-2005>
0

> <r_mmod_RMS_Derivative-OPLS-2005>
8.16417026519775

$$$$
63
                    3D
 Structure written by MMmdl.
168176  0  0  1  0            999 V2000
  -30.6058  -14.7113   20.4801 C   0  0  0  0  0  0
  -30.4471  -12.4400   19.4481 C   0  0  0  0  0  0
  -29.5122  -12.5112   18.2205 C   0  0  0  0  0  0
  -28.0375  -12.3356   18.6380 C   0  0  0  0  0  0
  -27.6509  -13.2208   19.8527 C   0  0  2  0  0  0
  -28.7023  -13.1171   20.9793 C   0  0  0  0  0  0
  -25.2574  -13.8172   20.5671 C   0  0  0  0  0  0
  -24.1857  -13.0433   20.9192 C   0  0  0  0  0  0
  -24.6435  -11.6899   20.8740 C   0  0  0  0  0  0
  -23.9096  -10.4295   21.0411 C   0  0  0  0  0  0
  -24.3640   -9.4209   21.9194 C   0  0  0  0  0  0
  -23.6306   -8.2253   22.0762 C   0  0  0  0  0  0
  -22.4291   -8.0293   21.3551 C   0  0  0  0  0  0
  -21.9929   -9.0267   20.4652 C   0  0  0  0  0  0
  -22.7262  -10.2142   20.3070 C   0  0  0  0  0  0
  -21.6873   -6.0737   22.5270 C   0  0  0  0  0  0
  -21.4015   -6.5634   23.8202 C   0  0  0  0  0  0
  -21.3663   -5.6785   24.9162 C   0  0  0  0  0  0
  -21.6057   -4.3048   24.7222 C   0  0  0  0  0  0
  -21.8820   -3.8141   23.4339 C   0  0  0  0  0  0
  -21.9203   -4.6965   22.3392 C   0  0  0  0  0  0
  -22.7875  -13.5221   21.1845 C   0  0  0  0  0  0
  -22.1664   -4.2155   21.0967 F   0  0  0  0  0  0
  -21.5640   -3.4527   25.7735 F   0  0  0  0  0  0
  -30.0030  -13.4793   20.3973 N   0  0  0  0  0  0
  -26.3005  -12.9351   20.3282 N   0  0  0  0  0  0
  -25.9369  -11.6505   20.5752 N   0  0  0  0  0  0
  -22.0528  -12.8214   22.0406 N   0  0  0  0  0  0
  -25.4247  -15.1892   20.4020 N   0  0  0  0  0  0
  -31.7964  -14.8576   20.1944 O   0  0  0  0  0  0
  -21.6652   -6.8885   21.4241 O   0  0  0  0  0  0
  -22.3556  -14.5523   20.6699 O   0  0  0  0  0  0
  -24.6319  -31.8558   23.1975 C   0  0  0  0  0  0
  -25.9141  -32.4757   23.8336 C   0  0  1  0  0  0
  -27.2274  -27.2646   20.1182 C   0  0  0  0  0  0
  -25.5950  -33.8559   24.2266 N   0  0  0  0  0  0
  -23.4295  -30.4771   21.5426 C   0  0  2  0  0  0
  -24.8772  -28.9246   20.1107 C   0  0  0  0  0  0
  -22.7510  -29.4602   22.4926 C   0  0  0  0  0  0
  -18.0289  -28.1384   22.8498 C   0  0  0  0  0  0
  -24.1499  -36.7283   23.2633 C   0  0  0  0  0  0
  -25.9778  -30.7651   21.3807 C   0  0  0  0  0  0
  -26.0497  -29.3890   20.7203 C   0  0  0  0  0  0
  -27.2259  -28.5715   20.7142 C   0  0  0  0  0  0
  -26.0263  -26.8690   19.4830 C   0  0  0  0  0  0
  -24.8703  -27.6705   19.4840 C   0  0  0  0  0  0
  -23.6482  -29.8104   20.1599 C   0  0  0  0  0  0
  -25.4120  -36.3061   24.0319 C   0  0  1  0  0  0
  -20.5897  -28.3706   23.1283 C   0  0  2  0  0  0
  -20.6794  -26.9427   22.5422 C   0  0  0  0  0  0
  -19.5761  -26.6387   21.5238 C   0  0  0  0  0  0
  -18.1935  -26.7933   22.1633 C   0  0  0  0  0  0
  -19.1549  -28.8864   23.2884 C   0  0  0  0  0  0
  -18.9453  -30.1461   23.8900 C   0  0  0  0  0  0
  -17.6451  -30.6586   24.0567 C   0  0  0  0  0  0
  -25.9065  -34.9436   23.5095 C   0  0  0  0  0  0
  -16.5344  -29.9074   23.6337 C   0  0  0  0  0  0
  -16.7278  -28.6495   23.0364 C   0  0  0  0  0  0
  -26.4499  -31.6569   25.0721 C   0  0  0  0  0  0
  -25.3720  -31.3724   26.1440 C   0  0  0  0  0  0
  -27.0323  -30.2965   24.6224 C   0  0  0  0  0  0
  -27.6054  -32.4302   25.7489 C   0  0  0  0  0  0
  -27.5592  -37.1780   24.8446 C   0  0  0  0  0  0
  -21.4215  -29.3040   22.3665 N   0  0  0  0  0  0
  -26.4289  -37.3765   23.9413 N   0  0  0  0  0  0
  -24.6989  -31.0502   22.0962 N   0  0  0  0  0  0
  -23.4205  -28.8150   23.3034 O   0  0  0  0  0  0
  -28.3272  -26.3728   20.1700 O   0  0  0  0  0  0
  -26.5639  -34.8901   22.4661 O   0  0  0  0  0  0
  -23.5468  -32.1391   23.7262 O   0  0  0  0  0  0
  -29.6660  -21.0741   20.2572 C   0  0  0  0  0  0
  -28.0662  -19.5059   19.3160 C   0  0  0  0  0  0
  -27.5819  -21.9060   19.3239 C   0  0  0  0  0  0
  -29.3121  -19.7012   19.9398 C   0  0  0  0  0  0
  -28.8108  -22.2126   19.9558 C   0  0  0  0  0  0
  -27.2022  -20.5785   18.9876 C   0  0  0  0  0  0
  -30.4980  -24.1083   19.5449 C   0  0  0  0  0  0
  -25.0198  -19.3061   19.0646 C   0  0  0  0  0  0
  -26.2205  -19.5899   16.8800 C   0  0  0  0  0  0
  -25.0533  -21.5229   17.9183 C   0  0  0  0  0  0
  -30.2471  -18.4205   20.0465 C   0  0  0  0  0  0
  -29.9670  -17.2418   21.1018 C   0  0  0  0  0  0
  -28.0883  -24.9055   19.9303 C   0  0  0  0  0  0
  -29.1800  -23.7469   20.2461 C   0  0  1  0  0  0
  -25.8934  -20.2638   18.2298 C   0  0  0  0  0  0
  -29.7718  -15.7832   20.7049 N   0  0  0  0  0  0
  -31.4841  -12.5868   19.1382 H   0  0  0  0  0  0
  -30.4051  -11.4536   19.9139 H   0  0  0  0  0  0
  -29.7842  -11.7482   17.4901 H   0  0  0  0  0  0
  -29.6431  -13.4745   17.7226 H   0  0  0  0  0  0
  -27.8895  -11.2829   18.8848 H   0  0  0  0  0  0
  -27.3808  -12.5449   17.7926 H   0  0  0  0  0  0
  -27.6524  -14.2483   19.4911 H   0  0  0  0  0  0
  -28.7397  -12.1054   21.3850 H   0  0  0  0  0  0
  -28.4439  -13.7685   21.8157 H   0  0  0  0  0  0
  -25.2797   -9.5672   22.4750 H   0  0  0  0  0  0
  -24.0021   -7.4641   22.7485 H   0  0  0  0  0  0
  -21.0864   -8.8787   19.8951 H   0  0  0  0  0  0
  -22.3738  -10.9682   19.6172 H   0  0  0  0  0  0
  -21.1983   -7.6136   23.9696 H   0  0  0  0  0  0
  -21.1493   -6.0515   25.9064 H   0  0  0  0  0  0
  -22.0600   -2.7607   23.2833 H   0  0  0  0  0  0
  -22.4155  -11.9862   22.4762 H   0  0  0  0  0  0
  -21.1150  -13.1232   22.2625 H   0  0  0  0  0  0
  -24.6469  -15.8322   20.4971 H   0  0  0  0  0  0
  -26.2539  -15.6275   20.0223 H   0  0  0  0  0  0
  -26.7217  -32.5377   23.1092 H   0  0  0  0  0  0
  -25.0091  -33.9723   25.0403 H   0  0  0  0  0  0
  -22.7233  -31.2970   21.3955 H   0  0  0  0  0  0
  -23.3776  -35.9594   23.3233 H   0  0  0  0  0  0
  -24.3616  -36.8974   22.2064 H   0  0  0  0  0  0
  -23.7221  -37.6448   23.6706 H   0  0  0  0  0  0
  -26.1206  -31.5243   20.6104 H   0  0  0  0  0  0
  -26.8547  -30.8123   22.0153 H   0  0  0  0  0  0
  -28.1217  -28.9213   21.2069 H   0  0  0  0  0  0
  -25.9445  -25.9131   18.9893 H   0  0  0  0  0  0
  -23.9717  -27.3071   19.0053 H   0  0  0  0  0  0
  -23.7714  -30.5871   19.4044 H   0  0  0  0  0  0
  -22.7673  -29.2425   19.8564 H   0  0  0  0  0  0
  -25.1295  -36.1913   25.0809 H   0  0  0  0  0  0
  -20.9991  -28.3287   24.1405 H   0  0  0  0  0  0
  -20.5749  -26.2304   23.3624 H   0  0  0  0  0  0
  -21.6649  -26.7478   22.1179 H   0  0  0  0  0  0
  -19.6928  -25.6298   21.1264 H   0  0  0  0  0  0
  -19.6700  -27.3205   20.6779 H   0  0  0  0  0  0
  -17.4222  -26.6718   21.4015 H   0  0  0  0  0  0
  -18.0294  -26.0070   22.9018 H   0  0  0  0  0  0
  -19.7920  -30.7301   24.2268 H   0  0  0  0  0  0
  -17.4982  -31.6266   24.5167 H   0  0  0  0  0  0
  -15.5338  -30.2973   23.7646 H   0  0  0  0  0  0
  -15.8680  -28.0803   22.7082 H   0  0  0  0  0  0
  -24.5879  -30.7108   25.7747 H   0  0  0  0  0  0
  -24.8943  -32.2903   26.4877 H   0  0  0  0  0  0
  -25.8024  -30.8868   27.0209 H   0  0  0  0  0  0
  -26.2901  -29.6717   24.1252 H   0  0  0  0  0  0
  -27.3978  -29.7226   25.4749 H   0  0  0  0  0  0
  -27.8797  -30.4197   23.9476 H   0  0  0  0  0  0
  -27.2673  -33.3613   26.2051 H   0  0  0  0  0  0
  -28.3872  -32.6854   25.0321 H   0  0  0  0  0  0
  -28.0724  -31.8444   26.5423 H   0  0  0  0  0  0
  -28.2546  -38.0138   24.7564 H   0  0  0  0  0  0
  -28.1157  -36.2672   24.6179 H   0  0  0  0  0  0
  -27.2329  -37.1305   25.8850 H   0  0  0  0  0  0
  -20.9410  -29.8736   21.6842 H   0  0  0  0  0  0
  -26.0163  -38.2824   24.1453 H   0  0  0  0  0  0
  -30.6296  -21.2631   20.7091 H   0  0  0  0  0  0
  -27.7934  -18.4995   19.0325 H   0  0  0  0  0  0
  -26.9242  -22.7223   19.0746 H   0  0  0  0  0  0
  -31.3161  -23.4613   19.8636 H   0  0  0  0  0  0
  -30.7906  -25.1330   19.7758 H   0  0  0  0  0  0
  -30.4104  -24.0242   18.4607 H   0  0  0  0  0  0
  -25.5054  -18.3443   19.2283 H   0  0  0  0  0  0
  -24.0694  -19.0967   18.5713 H   0  0  0  0  0  0
  -24.7932  -19.7290   20.0434 H   0  0  0  0  0  0
  -26.7566  -18.6484   17.0001 H   0  0  0  0  0  0
  -26.8338  -20.2355   16.2506 H   0  0  0  0  0  0
  -25.3129  -19.3621   16.3200 H   0  0  0  0  0  0
  -24.7594  -22.0518   18.8257 H   0  0  0  0  0  0
  -24.1333  -21.2715   17.3884 H   0  0  0  0  0  0
  -25.5985  -22.2195   17.2797 H   0  0  0  0  0  0
  -31.2553  -18.7931   20.2325 H   0  0  0  0  0  0
  -30.3059  -17.9739   19.0534 H   0  0  0  0  0  0
  -29.0771  -17.5213   21.6688 H   0  0  0  0  0  0
  -30.7704  -17.2578   21.8388 H   0  0  0  0  0  0
  -27.1975  -24.6362   20.4997 H   0  0  0  0  0  0
  -27.8271  -24.8056   18.8761 H   0  0  0  0  0  0
  -29.3710  -23.7969   21.3189 H   0  0  0  0  0  0
  -28.8131  -15.4844   20.8037 H   0  0  0  0  0  0
  1 25  1  0  0  0
  1 30  2  0  0  0
  1 86  1  0  0  0
  2  3  1  0  0  0
  2 25  1  0  0  0
  2 87  1  0  0  0
  2 88  1  0  0  0
  3  4  1  0  0  0
  3 89  1  0  0  0
  3 90  1  0  0  0
  4  5  1  0  0  0
  4 91  1  0  0  0
  4 92  1  0  0  0
  5  6  1  0  0  0
  5 26  1  0  0  0
  5 93  1  0  0  0
  6 25  1  0  0  0
  6 94  1  0  0  0
  6 95  1  0  0  0
  7  8  2  0  0  0
  7 26  1  0  0  0
  7 29  1  0  0  0
  8  9  1  0  0  0
  8 22  1  0  0  0
  9 10  1  0  0  0
  9 27  2  0  0  0
 10 11  2  0  0  0
 10 15  1  0  0  0
 11 12  1  0  0  0
 11 96  1  0  0  0
 12 13  2  0  0  0
 12 97  1  0  0  0
 13 14  1  0  0  0
 13 31  1  0  0  0
 14 15  2  0  0  0
 14 98  1  0  0  0
 15 99  1  0  0  0
 16 17  2  0  0  0
 16 21  1  0  0  0
 16 31  1  0  0  0
 17 18  1  0  0  0
 17100  1  0  0  0
 18 19  2  0  0  0
 18101  1  0  0  0
 19 20  1  0  0  0
 19 24  1  0  0  0
 20 21  2  0  0  0
 20102  1  0  0  0
 21 23  1  0  0  0
 22 28  1  0  0  0
 22 32  2  0  0  0
 26 27  1  0  0  0
 28103  1  0  0  0
 28104  1  0  0  0
 29105  1  0  0  0
 29106  1  0  0  0
 33 34  1  0  0  0
 33 66  1  0  0  0
 33 70  2  0  0  0
 34 36  1  0  0  0
 34 59  1  0  0  0
 34107  1  0  0  0
 35 44  2  0  0  0
 35 45  1  0  0  0
 35 68  1  0  0  0
 36 56  1  0  0  0
 36108  1  0  0  0
 37 39  1  0  0  0
 37 47  1  0  0  0
 37 66  1  0  0  0
 37109  1  0  0  0
 38 43  2  0  0  0
 38 46  1  0  0  0
 38 47  1  0  0  0
 39 64  1  0  0  0
 39 67  2  0  0  0
 40 52  1  0  0  0
 40 53  2  0  0  0
 40 58  1  0  0  0
 41110  1  0  0  0
 41111  1  0  0  0
 41112  1  0  0  0
 41 48  1  0  0  0
 42 43  1  0  0  0
 42 66  1  0  0  0
 42113  1  0  0  0
 42114  1  0  0  0
 43 44  1  0  0  0
 44115  1  0  0  0
 45 46  2  0  0  0
 45116  1  0  0  0
 46117  1  0  0  0
 47118  1  0  0  0
 47119  1  0  0  0
 48 56  1  0  0  0
 48 65  1  0  0  0
 48120  1  0  0  0
 49 50  1  0  0  0
 49 53  1  0  0  0
 49 64  1  0  0  0
 49121  1  0  0  0
 50 51  1  0  0  0
 50122  1  0  0  0
 50123  1  0  0  0
 51 52  1  0  0  0
 51124  1  0  0  0
 51125  1  0  0  0
 52126  1  0  0  0
 52127  1  0  0  0
 53 54  1  0  0  0
 54 55  2  0  0  0
 54128  1  0  0  0
 55 57  1  0  0  0
 55129  1  0  0  0
 56 69  2  0  0  0
 57 58  2  0  0  0
 57130  1  0  0  0
 58131  1  0  0  0
 59 60  1  0  0  0
 59 61  1  0  0  0
 59 62  1  0  0  0
 60132  1  0  0  0
 60133  1  0  0  0
 60134  1  0  0  0
 61135  1  0  0  0
 61136  1  0  0  0
 61137  1  0  0  0
 62138  1  0  0  0
 62139  1  0  0  0
 62140  1  0  0  0
 63 65  1  0  0  0
 63141  1  0  0  0
 63142  1  0  0  0
 63143  1  0  0  0
 64144  1  0  0  0
 65145  1  0  0  0
 68 83  1  0  0  0
 71 74  2  0  0  0
 71 75  1  0  0  0
 71146  1  0  0  0
 72 74  1  0  0  0
 72 76  2  0  0  0
 72147  1  0  0  0
 73 75  2  0  0  0
 73 76  1  0  0  0
 73148  1  0  0  0
 74 81  1  0  0  0
 75 84  1  0  0  0
 76 85  1  0  0  0
 77149  1  0  0  0
 77150  1  0  0  0
 77151  1  0  0  0
 77 84  1  0  0  0
 78152  1  0  0  0
 78153  1  0  0  0
 78154  1  0  0  0
 78 85  1  0  0  0
 79 85  1  0  0  0
 79155  1  0  0  0
 79156  1  0  0  0
 79157  1  0  0  0
 80 85  1  0  0  0
 80158  1  0  0  0
 80159  1  0  0  0
 80160  1  0  0  0
 81 82  1  0  0  0
 81161  1  0  0  0
 81162  1  0  0  0
 82 86  1  0  0  0
 82163  1  0  0  0
 82164  1  0  0  0
 83 84  1  0  0  0
 83165  1  0  0  0
 83166  1  0  0  0
 84167  1  0  0  0
 86168  1  0  0  0
M  ISO  4   1 100  68 101  83 101  86 100
M  END
> <chiral flag>
0

> <version>
0

> <s_m_source_file>
/data/baiqing/PycharmProjects/Reinvent-master-3.2/result/LINK_invent/BTK/process_docking_weight1_custom_sum_contain_oxygen_bond_distance_aromatic_linkinvent_7_9_3/rearranged_h_0098.sdf

> <i_m_source_file_index>
63

> <r_mmod_Potential_Energy-OPLS-2005>
141.30793762207

> <r_mmod_Stretch_Energy-OPLS-2005>
118.974235534668

> <r_mmod_Bend_Energy-OPLS-2005>
179.387802124023

> <r_mmod_Torsional_Energy-OPLS-2005>
225.6962890625

> <r_mmod_Improper_Torsional_Energy-OPLS-2005>
5.6655797958374

> <r_mmod_Van_der_Waal_Energy-OPLS-2005>
142.924835205078

> <r_mmod_Electrostatic_Energy-OPLS-2005>
-411.884582519531

> <r_mmod_Solvation_Energy-OPLS-2005>
-197.067459106445

> <b_mmod_Minimization_Converged-OPLS-2005>
0

> <r_mmod_RMS_Derivative-OPLS-2005>
2.45924401283264

$$$$
64
                    3D
 Structure written by MMmdl.
161169  0  0  1  0            999 V2000
  -30.5960  -14.8650   20.4155 C   0  0  0  0  0  0
  -30.4301  -12.5334   19.4901 C   0  0  0  0  0  0
  -29.5090  -12.5152   18.2506 C   0  0  0  0  0  0
  -28.0358  -12.3359   18.6642 C   0  0  0  0  0  0
  -27.6347  -13.2471   19.8534 C   0  0  2  0  0  0
  -28.6845  -13.2487   20.9860 C   0  0  0  0  0  0
  -25.2502  -13.8247   20.5788 C   0  0  0  0  0  0
  -24.1810  -13.0452   20.9238 C   0  0  0  0  0  0
  -24.6409  -11.6934   20.8720 C   0  0  0  0  0  0
  -23.9061  -10.4305   21.0351 C   0  0  0  0  0  0
  -24.3613   -9.4230   21.9161 C   0  0  0  0  0  0
  -23.6293   -8.2262   22.0750 C   0  0  0  0  0  0
  -22.4282   -8.0277   21.3529 C   0  0  0  0  0  0
  -21.9889   -9.0252   20.4637 C   0  0  0  0  0  0
  -22.7210  -10.2134   20.3033 C   0  0  0  0  0  0
  -21.6860   -6.0726   22.5275 C   0  0  0  0  0  0
  -21.4014   -6.5637   23.8203 C   0  0  0  0  0  0
  -21.3669   -5.6796   24.9162 C   0  0  0  0  0  0
  -21.6046   -4.3058   24.7216 C   0  0  0  0  0  0
  -21.8826   -3.8143   23.4339 C   0  0  0  0  0  0
  -21.9200   -4.6952   22.3398 C   0  0  0  0  0  0
  -22.7830  -13.5188   21.1862 C   0  0  0  0  0  0
  -22.1667   -4.2143   21.0969 F   0  0  0  0  0  0
  -21.5631   -3.4550   25.7731 F   0  0  0  0  0  0
  -29.9663  -13.6290   20.3848 N   0  0  0  0  0  0
  -26.2912  -12.9480   20.3339 N   0  0  0  0  0  0
  -25.9346  -11.6595   20.5778 N   0  0  0  0  0  0
  -22.0485  -12.8178   22.0412 N   0  0  0  0  0  0
  -25.4181  -15.1979   20.4353 N   0  0  0  0  0  0
  -31.7900  -14.9052   20.1108 O   0  0  0  0  0  0
  -21.6642   -6.8870   21.4244 O   0  0  0  0  0  0
  -22.3502  -14.5472   20.6669 O   0  0  0  0  0  0
  -24.6339  -31.8475   23.1935 C   0  0  0  0  0  0
  -25.9136  -32.4716   23.8287 C   0  0  1  0  0  0
  -27.2286  -27.1888   20.1821 C   0  0  0  0  0  0
  -25.5891  -33.8514   24.2218 N   0  0  0  0  0  0
  -23.4368  -30.4665   21.5343 C   0  0  2  0  0  0
  -24.8928  -28.8940   20.1184 C   0  0  0  0  0  0
  -22.7515  -29.4559   22.4876 C   0  0  0  0  0  0
  -18.0295  -28.1369   22.8481 C   0  0  0  0  0  0
  -24.1481  -36.7272   23.2648 C   0  0  0  0  0  0
  -25.9854  -30.7462   21.3783 C   0  0  0  0  0  0
  -26.0647  -29.3574   20.7303 C   0  0  0  0  0  0
  -27.2349  -28.5211   20.7429 C   0  0  0  0  0  0
  -26.0352  -26.8081   19.5344 C   0  0  0  0  0  0
  -24.8855  -27.6277   19.5075 C   0  0  0  0  0  0
  -23.6636  -29.7871   20.1555 C   0  0  0  0  0  0
  -25.4103  -36.3048   24.0336 C   0  0  1  0  0  0
  -20.5899  -28.3678   23.1254 C   0  0  2  0  0  0
  -20.6781  -26.9384   22.5411 C   0  0  0  0  0  0
  -19.5771  -26.6359   21.5201 C   0  0  0  0  0  0
  -18.1948  -26.7915   22.1602 C   0  0  0  0  0  0
  -19.1553  -28.8839   23.2867 C   0  0  0  0  0  0
  -18.9471  -30.1440   23.8891 C   0  0  0  0  0  0
  -17.6472  -30.6580   24.0551 C   0  0  0  0  0  0
  -25.9048  -34.9419   23.5096 C   0  0  0  0  0  0
  -16.5363  -29.9075   23.6322 C   0  0  0  0  0  0
  -16.7281  -28.6480   23.0359 C   0  0  0  0  0  0
  -26.4473  -31.6562   25.0700 C   0  0  0  0  0  0
  -25.3681  -31.3726   26.1410 C   0  0  0  0  0  0
  -27.0354  -30.2988   24.6214 C   0  0  0  0  0  0
  -27.6028  -32.4284   25.7472 C   0  0  0  0  0  0
  -27.5580  -37.1782   24.8451 C   0  0  0  0  0  0
  -21.4207  -29.3038   22.3634 N   0  0  0  0  0  0
  -26.4279  -37.3759   23.9426 N   0  0  0  0  0  0
  -24.7044  -31.0401   22.0922 N   0  0  0  0  0  0
  -23.4198  -28.8114   23.2994 O   0  0  0  0  0  0
  -28.3178  -26.2647   20.2140 O   0  0  0  0  0  0
  -26.5632  -34.8919   22.4670 O   0  0  0  0  0  0
  -23.5471  -32.1284   23.7202 O   0  0  0  0  0  0
  -30.7281  -20.0236   20.7991 C   0  0  0  0  0  0
  -28.5718  -19.6348   19.9982 C   0  0  0  0  0  0
  -29.8120  -19.0191   20.3720 C   0  0  0  0  0  0
  -30.4628  -21.4462   20.7894 C   0  0  0  0  0  0
  -29.2135  -21.9787   20.3030 C   0  0  0  0  0  0
  -32.6739  -22.5094   20.1551 C   0  0  0  0  0  0
  -32.2482  -21.8951   22.5721 C   0  0  0  0  0  0
  -28.4556  -23.5526   18.3870 C   0  0  0  0  0  0
  -30.3447  -17.4866   20.0746 C   0  0  0  0  0  0
  -28.1560  -24.7809   20.6109 C   0  0  0  0  0  0
  -31.6016  -22.3645   21.2503 C   0  0  0  0  0  0
  -28.9665  -23.5538   19.8370 C   0  0  1  0  0  0
  -28.2920  -21.0029   19.9753 N   0  0  0  0  0  0
  -29.8691  -16.0726   20.5376 N   0  0  0  0  0  0
  -31.4642  -12.6713   19.1708 H   0  0  0  0  0  0
  -30.4043  -11.5759   20.0143 H   0  0  0  0  0  0
  -29.7993  -11.7100   17.5729 H   0  0  0  0  0  0
  -29.6284  -13.4451   17.6912 H   0  0  0  0  0  0
  -27.8850  -11.2904   18.9299 H   0  0  0  0  0  0
  -27.3772  -12.5228   17.8145 H   0  0  0  0  0  0
  -27.6069  -14.2577   19.4494 H   0  0  0  0  0  0
  -28.7599  -12.2734   21.4720 H   0  0  0  0  0  0
  -28.4079  -13.9618   21.7646 H   0  0  0  0  0  0
  -25.2741   -9.5740   22.4731 H   0  0  0  0  0  0
  -24.0031   -7.4666   22.7480 H   0  0  0  0  0  0
  -21.0807   -8.8734   19.8943 H   0  0  0  0  0  0
  -22.3629  -10.9677   19.6149 H   0  0  0  0  0  0
  -21.2006   -7.6150   23.9693 H   0  0  0  0  0  0
  -21.1480   -6.0531   25.9071 H   0  0  0  0  0  0
  -22.0593   -2.7601   23.2841 H   0  0  0  0  0  0
  -22.4135  -11.9864   22.4809 H   0  0  0  0  0  0
  -21.1112  -13.1195   22.2600 H   0  0  0  0  0  0
  -24.6656  -15.8534   20.6230 H   0  0  0  0  0  0
  -26.2659  -15.6508   20.1223 H   0  0  0  0  0  0
  -26.7200  -32.5384   23.1029 H   0  0  0  0  0  0
  -24.9987  -33.9605   25.0324 H   0  0  0  0  0  0
  -22.7381  -31.2908   21.3749 H   0  0  0  0  0  0
  -23.3765  -35.9583   23.3251 H   0  0  0  0  0  0
  -24.3612  -36.8950   22.2082 H   0  0  0  0  0  0
  -23.7194  -37.6438   23.6706 H   0  0  0  0  0  0
  -26.1206  -31.5009   20.6019 H   0  0  0  0  0  0
  -26.8638  -30.8117   22.0096 H   0  0  0  0  0  0
  -28.1302  -28.8740   21.2370 H   0  0  0  0  0  0
  -25.9825  -25.8389   19.0612 H   0  0  0  0  0  0
  -23.9909  -27.2589   19.0262 H   0  0  0  0  0  0
  -23.7965  -30.5523   19.3912 H   0  0  0  0  0  0
  -22.7835  -29.2172   19.8507 H   0  0  0  0  0  0
  -25.1296  -36.1874   25.0830 H   0  0  0  0  0  0
  -21.0001  -28.3254   24.1370 H   0  0  0  0  0  0
  -20.5611  -26.2297   23.3626 H   0  0  0  0  0  0
  -21.6661  -26.7377   22.1249 H   0  0  0  0  0  0
  -19.6931  -25.6259   21.1248 H   0  0  0  0  0  0
  -19.6726  -27.3156   20.6720 H   0  0  0  0  0  0
  -17.4219  -26.6652   21.4005 H   0  0  0  0  0  0
  -18.0355  -26.0057   22.8992 H   0  0  0  0  0  0
  -19.7960  -30.7240   24.2276 H   0  0  0  0  0  0
  -17.5042  -31.6276   24.5123 H   0  0  0  0  0  0
  -15.5365  -30.2978   23.7661 H   0  0  0  0  0  0
  -15.8685  -28.0800   22.7089 H   0  0  0  0  0  0
  -24.5845  -30.7091   25.7725 H   0  0  0  0  0  0
  -24.8879  -32.2911   26.4802 H   0  0  0  0  0  0
  -25.7969  -30.8899   27.0205 H   0  0  0  0  0  0
  -26.2977  -29.6698   24.1221 H   0  0  0  0  0  0
  -27.4032  -29.7273   25.4742 H   0  0  0  0  0  0
  -27.8838  -30.4290   23.9497 H   0  0  0  0  0  0
  -27.2660  -33.3599   26.2034 H   0  0  0  0  0  0
  -28.3857  -32.6795   25.0308 H   0  0  0  0  0  0
  -28.0676  -31.8398   26.5390 H   0  0  0  0  0  0
  -28.2544  -38.0126   24.7569 H   0  0  0  0  0  0
  -28.1120  -36.2665   24.6173 H   0  0  0  0  0  0
  -27.2336  -37.1324   25.8859 H   0  0  0  0  0  0
  -20.9371  -29.8775   21.6869 H   0  0  0  0  0  0
  -26.0138  -38.2826   24.1444 H   0  0  0  0  0  0
  -31.7181  -19.6868   21.0653 H   0  0  0  0  0  0
  -27.7838  -19.0082   19.6117 H   0  0  0  0  0  0
  -32.2470  -22.8875   19.2269 H   0  0  0  0  0  0
  -33.1524  -21.5536   19.9346 H   0  0  0  0  0  0
  -33.4636  -23.1995   20.4558 H   0  0  0  0  0  0
  -31.5061  -21.7881   23.3637 H   0  0  0  0  0  0
  -32.9975  -22.6096   22.9159 H   0  0  0  0  0  0
  -32.7673  -20.9404   22.4741 H   0  0  0  0  0  0
  -27.5255  -22.9878   18.3060 H   0  0  0  0  0  0
  -29.1877  -23.1136   17.7089 H   0  0  0  0  0  0
  -28.2477  -24.5656   18.0410 H   0  0  0  0  0  0
  -31.4098  -17.5101   20.3189 H   0  0  0  0  0  0
  -30.3275  -17.4136   18.9869 H   0  0  0  0  0  0
  -28.4680  -24.7522   21.6553 H   0  0  0  0  0  0
  -27.0927  -24.5352   20.6497 H   0  0  0  0  0  0
  -31.1891  -23.3519   21.4649 H   0  0  0  0  0  0
  -29.9725  -23.9603   19.7509 H   0  0  0  0  0  0
  -28.8919  -15.9741   20.7657 H   0  0  0  0  0  0
  1 25  1  0  0  0
  1 30  2  0  0  0
  1 84  1  0  0  0
  2  3  1  0  0  0
  2 25  1  0  0  0
  2 85  1  0  0  0
  2 86  1  0  0  0
  3  4  1  0  0  0
  3 87  1  0  0  0
  3 88  1  0  0  0
  4  5  1  0  0  0
  4 89  1  0  0  0
  4 90  1  0  0  0
  5  6  1  0  0  0
  5 26  1  0  0  0
  5 91  1  0  0  0
  6 25  1  0  0  0
  6 92  1  0  0  0
  6 93  1  0  0  0
  7  8  2  0  0  0
  7 26  1  0  0  0
  7 29  1  0  0  0
  8  9  1  0  0  0
  8 22  1  0  0  0
  9 10  1  0  0  0
  9 27  2  0  0  0
 10 11  2  0  0  0
 10 15  1  0  0  0
 11 12  1  0  0  0
 11 94  1  0  0  0
 12 13  2  0  0  0
 12 95  1  0  0  0
 13 14  1  0  0  0
 13 31  1  0  0  0
 14 15  2  0  0  0
 14 96  1  0  0  0
 15 97  1  0  0  0
 16 17  2  0  0  0
 16 21  1  0  0  0
 16 31  1  0  0  0
 17 18  1  0  0  0
 17 98  1  0  0  0
 18 19  2  0  0  0
 18 99  1  0  0  0
 19 20  1  0  0  0
 19 24  1  0  0  0
 20 21  2  0  0  0
 20100  1  0  0  0
 21 23  1  0  0  0
 22 28  1  0  0  0
 22 32  2  0  0  0
 26 27  1  0  0  0
 28101  1  0  0  0
 28102  1  0  0  0
 29103  1  0  0  0
 29104  1  0  0  0
 33 34  1  0  0  0
 33 66  1  0  0  0
 33 70  2  0  0  0
 34 36  1  0  0  0
 34 59  1  0  0  0
 34105  1  0  0  0
 35 44  2  0  0  0
 35 45  1  0  0  0
 35 68  1  0  0  0
 36 56  1  0  0  0
 36106  1  0  0  0
 37 39  1  0  0  0
 37 47  1  0  0  0
 37 66  1  0  0  0
 37107  1  0  0  0
 38 43  2  0  0  0
 38 46  1  0  0  0
 38 47  1  0  0  0
 39 64  1  0  0  0
 39 67  2  0  0  0
 40 52  1  0  0  0
 40 53  2  0  0  0
 40 58  1  0  0  0
 41108  1  0  0  0
 41109  1  0  0  0
 41110  1  0  0  0
 41 48  1  0  0  0
 42 43  1  0  0  0
 42 66  1  0  0  0
 42111  1  0  0  0
 42112  1  0  0  0
 43 44  1  0  0  0
 44113  1  0  0  0
 45 46  2  0  0  0
 45114  1  0  0  0
 46115  1  0  0  0
 47116  1  0  0  0
 47117  1  0  0  0
 48 56  1  0  0  0
 48 65  1  0  0  0
 48118  1  0  0  0
 49 50  1  0  0  0
 49 53  1  0  0  0
 49 64  1  0  0  0
 49119  1  0  0  0
 50 51  1  0  0  0
 50120  1  0  0  0
 50121  1  0  0  0
 51 52  1  0  0  0
 51122  1  0  0  0
 51123  1  0  0  0
 52124  1  0  0  0
 52125  1  0  0  0
 53 54  1  0  0  0
 54 55  2  0  0  0
 54126  1  0  0  0
 55 57  1  0  0  0
 55127  1  0  0  0
 56 69  2  0  0  0
 57 58  2  0  0  0
 57128  1  0  0  0
 58129  1  0  0  0
 59 60  1  0  0  0
 59 61  1  0  0  0
 59 62  1  0  0  0
 60130  1  0  0  0
 60131  1  0  0  0
 60132  1  0  0  0
 61133  1  0  0  0
 61134  1  0  0  0
 61135  1  0  0  0
 62136  1  0  0  0
 62137  1  0  0  0
 62138  1  0  0  0
 63 65  1  0  0  0
 63139  1  0  0  0
 63140  1  0  0  0
 63141  1  0  0  0
 64142  1  0  0  0
 65143  1  0  0  0
 68 80  1  0  0  0
 71 73  2  0  0  0
 71 74  1  0  0  0
 71144  1  0  0  0
 72 73  1  0  0  0
 72 83  2  0  0  0
 72145  1  0  0  0
 73 79  1  0  0  0
 74 75  2  0  0  0
 74 81  1  0  0  0
 75 82  1  0  0  0
 75 83  1  0  0  0
 76146  1  0  0  0
 76147  1  0  0  0
 76148  1  0  0  0
 76 81  1  0  0  0
 77 81  1  0  0  0
 77149  1  0  0  0
 77150  1  0  0  0
 77151  1  0  0  0
 78152  1  0  0  0
 78153  1  0  0  0
 78154  1  0  0  0
 78 82  1  0  0  0
 79 84  1  0  0  0
 79155  1  0  0  0
 79156  1  0  0  0
 80 82  1  0  0  0
 80157  1  0  0  0
 80158  1  0  0  0
 81159  1  0  0  0
 82160  1  0  0  0
 84161  1  0  0  0
M  ISO  4   1 100  68 101  80 101  84 100
M  END
> <chiral flag>
0

> <version>
0

> <s_m_source_file>
/data/baiqing/PycharmProjects/Reinvent-master-3.2/result/LINK_invent/BTK/process_docking_weight1_custom_sum_contain_oxygen_bond_distance_aromatic_linkinvent_7_9_3/rearranged_h_0098.sdf

> <i_m_source_file_index>
64

> <r_mmod_Potential_Energy-OPLS-2005>
289.786285400391

> <r_mmod_Stretch_Energy-OPLS-2005>
206.294509887695

> <r_mmod_Bend_Energy-OPLS-2005>
264.746704101562

> <r_mmod_Torsional_Energy-OPLS-2005>
235.324920654297

> <r_mmod_Improper_Torsional_Energy-OPLS-2005>
9.88704872131348

> <r_mmod_Van_der_Waal_Energy-OPLS-2005>
136.568435668945

> <r_mmod_Electrostatic_Energy-OPLS-2005>
-483.716949462891

> <r_mmod_Solvation_Energy-OPLS-2005>
-218.346298217773

> <b_mmod_Minimization_Converged-OPLS-2005>
0

> <r_mmod_RMS_Derivative-OPLS-2005>
4.46216773986816

$$$$
65
                    3D
 Structure written by MMmdl.
178186  0  0  1  0            999 V2000
  -30.6947  -14.4406   20.6468 C   0  0  0  0  0  0
  -30.4319  -12.3139   19.4093 C   0  0  0  0  0  0
  -29.4962  -12.5266   18.2017 C   0  0  0  0  0  0
  -28.0172  -12.3768   18.6129 C   0  0  0  0  0  0
  -27.6660  -13.1970   19.8821 C   0  0  2  0  0  0
  -28.7031  -12.9365   20.9967 C   0  0  0  0  0  0
  -25.2614  -13.8132   20.5652 C   0  0  0  0  0  0
  -24.1854  -13.0431   20.9149 C   0  0  0  0  0  0
  -24.6390  -11.6887   20.8715 C   0  0  0  0  0  0
  -23.9048  -10.4287   21.0393 C   0  0  0  0  0  0
  -24.3602   -9.4212   21.9181 C   0  0  0  0  0  0
  -23.6282   -8.2244   22.0758 C   0  0  0  0  0  0
  -22.4268   -8.0276   21.3542 C   0  0  0  0  0  0
  -21.9897   -9.0246   20.4641 C   0  0  0  0  0  0
  -22.7216  -10.2126   20.3045 C   0  0  0  0  0  0
  -21.6851   -6.0728   22.5277 C   0  0  0  0  0  0
  -21.4014   -6.5637   23.8209 C   0  0  0  0  0  0
  -21.3662   -5.6795   24.9173 C   0  0  0  0  0  0
  -21.6043   -4.3055   24.7222 C   0  0  0  0  0  0
  -21.8824   -3.8142   23.4344 C   0  0  0  0  0  0
  -21.9194   -4.6958   22.3397 C   0  0  0  0  0  0
  -22.7883  -13.5243   21.1824 C   0  0  0  0  0  0
  -22.1664   -4.2143   21.0976 F   0  0  0  0  0  0
  -21.5630   -3.4541   25.7736 F   0  0  0  0  0  0
  -30.0370  -13.2650   20.4590 N   0  0  0  0  0  0
  -26.3041  -12.9278   20.3365 N   0  0  0  0  0  0
  -25.9314  -11.6448   20.5740 N   0  0  0  0  0  0
  -22.0515  -12.8234   22.0364 N   0  0  0  0  0  0
  -25.4374  -15.1846   20.4060 N   0  0  0  0  0  0
  -31.7759  -14.7086   20.1146 O   0  0  0  0  0  0
  -21.6638   -6.8869   21.4237 O   0  0  0  0  0  0
  -22.3582  -14.5561   20.6683 O   0  0  0  0  0  0
  -24.6179  -31.8712   23.2136 C   0  0  0  0  0  0
  -25.9059  -32.4833   23.8426 C   0  0  1  0  0  0
  -27.2092  -27.4036   20.0975 C   0  0  0  0  0  0
  -25.5906  -33.8628   24.2336 N   0  0  0  0  0  0
  -23.4037  -30.4996   21.5594 C   0  0  2  0  0  0
  -24.8412  -28.9697   20.1249 C   0  0  0  0  0  0
  -22.7411  -29.4693   22.5040 C   0  0  0  0  0  0
  -18.0261  -28.1380   22.8488 C   0  0  0  0  0  0
  -24.1487  -36.7328   23.2642 C   0  0  0  0  0  0
  -25.9387  -30.8265   21.3721 C   0  0  0  0  0  0
  -26.0082  -29.4567   20.7274 C   0  0  0  0  0  0
  -27.1942  -28.6792   20.7171 C   0  0  0  0  0  0
  -26.0262  -26.9649   19.4609 C   0  0  0  0  0  0
  -24.8456  -27.7213   19.4924 C   0  0  0  0  0  0
  -23.6083  -29.8418   20.1738 C   0  0  0  0  0  0
  -25.4097  -36.3102   24.0332 C   0  0  1  0  0  0
  -20.5857  -28.3677   23.1318 C   0  0  2  0  0  0
  -20.6771  -26.9420   22.5405 C   0  0  0  0  0  0
  -19.5749  -26.6392   21.5212 C   0  0  0  0  0  0
  -18.1921  -26.7931   22.1615 C   0  0  0  0  0  0
  -19.1510  -28.8844   23.2904 C   0  0  0  0  0  0
  -18.9441  -30.1446   23.8923 C   0  0  0  0  0  0
  -17.6443  -30.6594   24.0557 C   0  0  0  0  0  0
  -25.9019  -34.9470   23.5113 C   0  0  0  0  0  0
  -16.5327  -29.9086   23.6335 C   0  0  0  0  0  0
  -16.7245  -28.6499   23.0357 C   0  0  0  0  0  0
  -26.4460  -31.6612   25.0754 C   0  0  0  0  0  0
  -25.3701  -31.3699   26.1483 C   0  0  0  0  0  0
  -27.0322  -30.3074   24.6108 C   0  0  0  0  0  0
  -27.6031  -32.4335   25.7522 C   0  0  0  0  0  0
  -27.5573  -37.1809   24.8465 C   0  0  0  0  0  0
  -21.4140  -29.3058   22.3745 N   0  0  0  0  0  0
  -26.4289  -37.3774   23.9403 N   0  0  0  0  0  0
  -24.6731  -31.0794   22.1061 N   0  0  0  0  0  0
  -23.4173  -28.8214   23.3071 O   0  0  0  0  0  0
  -28.3853  -26.6797   20.0057 O   0  0  0  0  0  0
  -26.5583  -34.8923   22.4678 O   0  0  0  0  0  0
  -23.5362  -32.1476   23.7501 O   0  0  0  0  0  0
  -29.2555  -22.1615   20.2450 C   0  0  0  0  0  0
  -28.1786  -22.8764   19.6449 C   0  0  0  0  0  0
  -29.5268  -21.0283   19.5149 C   0  0  0  0  0  0
  -27.7511  -22.0980   18.5984 C   0  0  0  0  0  0
  -26.5741  -22.3238   17.6849 C   0  0  0  0  0  0
  -26.3679  -23.9780   20.9943 C   0  0  0  0  0  0
  -31.9990  -20.7357   19.8896 C   0  0  0  0  0  0
  -28.2692  -18.6325   17.6848 C   0  0  0  0  0  0
  -29.7627  -20.2563   16.3442 C   0  0  0  0  0  0
  -29.7189  -17.0866   23.0654 C   0  0  0  0  0  0
  -30.0590  -17.7068   20.5883 C   0  0  0  0  0  0
  -28.4995  -25.3415   20.5601 C   0  0  0  0  0  0
  -27.5512  -24.2149   20.0394 C   0  0  1  0  0  0
  -30.6493  -20.0193   19.7211 C   0  0  1  0  0  0
  -28.5637  -20.0872   17.2944 C   0  0  0  0  0  0
  -30.4075  -16.7169   21.7375 C   0  0  2  0  0  0
  -28.6204  -21.0144   18.4431 N   0  0  0  0  0  0
  -30.0290  -15.3373   21.3977 N   0  0  0  0  0  0
  -30.4358  -19.1169   20.8834 N   0  3  0  0  0  0
  -31.4745  -12.4356   19.1104 H   0  0  0  0  0  0
  -30.3483  -11.2916   19.7819 H   0  0  0  0  0  0
  -29.7384  -11.8189   17.4079 H   0  0  0  0  0  0
  -29.6604  -13.5208   17.7830 H   0  0  0  0  0  0
  -27.8276  -11.3177   18.7915 H   0  0  0  0  0  0
  -27.3675  -12.6654   17.7863 H   0  0  0  0  0  0
  -27.7244  -14.2508   19.6092 H   0  0  0  0  0  0
  -28.6822  -11.8864   21.2942 H   0  0  0  0  0  0
  -28.4483  -13.4879   21.9025 H   0  0  0  0  0  0
  -25.2745   -9.5696   22.4751 H   0  0  0  0  0  0
  -23.9990   -7.4645   22.7487 H   0  0  0  0  0  0
  -21.0827   -8.8751   19.8945 H   0  0  0  0  0  0
  -22.3671  -10.9660   19.6147 H   0  0  0  0  0  0
  -21.2007   -7.6150   23.9706 H   0  0  0  0  0  0
  -21.1480   -6.0527   25.9076 H   0  0  0  0  0  0
  -22.0602   -2.7603   23.2845 H   0  0  0  0  0  0
  -22.4123  -11.9877   22.4723 H   0  0  0  0  0  0
  -21.1132  -13.1260   22.2563 H   0  0  0  0  0  0
  -24.6709  -15.8410   20.5034 H   0  0  0  0  0  0
  -26.2907  -15.6174   20.0769 H   0  0  0  0  0  0
  -26.7145  -32.5549   23.1204 H   0  0  0  0  0  0
  -25.0078  -33.9806   25.0494 H   0  0  0  0  0  0
  -22.6945  -31.3194   21.4267 H   0  0  0  0  0  0
  -23.3729  -35.9684   23.3312 H   0  0  0  0  0  0
  -24.3606  -36.8943   22.2064 H   0  0  0  0  0  0
  -23.7258  -37.6535   23.6663 H   0  0  0  0  0  0
  -26.0452  -31.5821   20.5933 H   0  0  0  0  0  0
  -26.8311  -30.8890   21.9833 H   0  0  0  0  0  0
  -28.0973  -29.0547   21.1810 H   0  0  0  0  0  0
  -25.9706  -26.0644   18.8820 H   0  0  0  0  0  0
  -23.9561  -27.3513   18.9983 H   0  0  0  0  0  0
  -23.7158  -30.6194   19.4171 H   0  0  0  0  0  0
  -22.7296  -29.2659   19.8779 H   0  0  0  0  0  0
  -25.1263  -36.1976   25.0821 H   0  0  0  0  0  0
  -20.9931  -28.3240   24.1442 H   0  0  0  0  0  0
  -20.5716  -26.2269   23.3573 H   0  0  0  0  0  0
  -21.6641  -26.7507   22.1175 H   0  0  0  0  0  0
  -19.6927  -25.6305   21.1239 H   0  0  0  0  0  0
  -19.6705  -27.3206   20.6743 H   0  0  0  0  0  0
  -17.4196  -26.6676   21.4008 H   0  0  0  0  0  0
  -18.0322  -26.0074   22.9001 H   0  0  0  0  0  0
  -19.7920  -30.7234   24.2340 H   0  0  0  0  0  0
  -17.5003  -31.6293   24.5122 H   0  0  0  0  0  0
  -15.5322  -30.2982   23.7693 H   0  0  0  0  0  0
  -15.8640  -28.0825   22.7075 H   0  0  0  0  0  0
  -24.5874  -30.7049   25.7801 H   0  0  0  0  0  0
  -24.8870  -32.2836   26.4951 H   0  0  0  0  0  0
  -25.8021  -30.8844   27.0243 H   0  0  0  0  0  0
  -26.2895  -29.6835   24.1108 H   0  0  0  0  0  0
  -27.4085  -29.7290   25.4557 H   0  0  0  0  0  0
  -27.8712  -30.4456   23.9282 H   0  0  0  0  0  0
  -27.2665  -33.3652   26.2089 H   0  0  0  0  0  0
  -28.3841  -32.6866   25.0336 H   0  0  0  0  0  0
  -28.0686  -31.8452   26.5448 H   0  0  0  0  0  0
  -28.2565  -38.0128   24.7507 H   0  0  0  0  0  0
  -28.1084  -36.2645   24.6284 H   0  0  0  0  0  0
  -27.2294  -37.1458   25.8870 H   0  0  0  0  0  0
  -20.9297  -29.8795   21.6984 H   0  0  0  0  0  0
  -26.0175  -38.2854   24.1387 H   0  0  0  0  0  0
  -29.8090  -22.4810   21.1174 H   0  0  0  0  0  0
  -25.8856  -23.0703   18.0806 H   0  0  0  0  0  0
  -25.9843  -21.4143   17.5658 H   0  0  0  0  0  0
  -26.8936  -22.6594   16.6979 H   0  0  0  0  0  0
  -25.6210  -23.3197   20.5502 H   0  0  0  0  0  0
  -25.8667  -24.9066   21.2653 H   0  0  0  0  0  0
  -26.7055  -23.5093   21.9188 H   0  0  0  0  0  0
  -32.2079  -21.3782   19.0335 H   0  0  0  0  0  0
  -32.8213  -20.0250   19.9684 H   0  0  0  0  0  0
  -32.0168  -21.3668   20.7786 H   0  0  0  0  0  0
  -27.9098  -18.0746   16.8195 H   0  0  0  0  0  0
  -27.4934  -18.5784   18.4489 H   0  0  0  0  0  0
  -29.1503  -18.1096   18.0392 H   0  0  0  0  0  0
  -29.6136  -19.6816   15.4299 H   0  0  0  0  0  0
  -30.7065  -19.9311   16.7741 H   0  0  0  0  0  0
  -29.8760  -21.3001   16.0511 H   0  0  0  0  0  0
  -30.0604  -18.0491   23.4475 H   0  0  0  0  0  0
  -29.9352  -16.3495   23.8401 H   0  0  0  0  0  0
  -28.6341  -17.1390   22.9585 H   0  0  0  0  0  0
  -28.9921  -17.6694   20.3623 H   0  0  0  0  0  0
  -30.5882  -17.3690   19.6969 H   0  0  0  0  0  0
  -29.5229  -25.0471   20.3273 H   0  0  0  0  0  0
  -28.4654  -25.3929   21.6495 H   0  0  0  0  0  0
  -27.2004  -24.5550   19.0765 H   0  0  0  0  0  0
  -30.7647  -19.4037   18.8363 H   0  0  0  0  0  0
  -27.7134  -20.3648   16.6774 H   0  0  0  0  0  0
  -31.4867  -16.7332   21.9020 H   0  0  0  0  0  0
  -29.1544  -15.0056   21.7770 H   0  0  0  0  0  0
  -31.3154  -19.0860   21.3716 H   0  0  0  0  0  0
  -29.7610  -19.5367   21.5021 H   0  0  0  0  0  0
  1 25  1  0  0  0
  1 30  2  0  0  0
  1 88  1  0  0  0
  2  3  1  0  0  0
  2 25  1  0  0  0
  2 90  1  0  0  0
  2 91  1  0  0  0
  3  4  1  0  0  0
  3 92  1  0  0  0
  3 93  1  0  0  0
  4  5  1  0  0  0
  4 94  1  0  0  0
  4 95  1  0  0  0
  5  6  1  0  0  0
  5 26  1  0  0  0
  5 96  1  0  0  0
  6 25  1  0  0  0
  6 97  1  0  0  0
  6 98  1  0  0  0
  7  8  2  0  0  0
  7 26  1  0  0  0
  7 29  1  0  0  0
  8  9  1  0  0  0
  8 22  1  0  0  0
  9 10  1  0  0  0
  9 27  2  0  0  0
 10 11  2  0  0  0
 10 15  1  0  0  0
 11 12  1  0  0  0
 11 99  1  0  0  0
 12 13  2  0  0  0
 12100  1  0  0  0
 13 14  1  0  0  0
 13 31  1  0  0  0
 14 15  2  0  0  0
 14101  1  0  0  0
 15102  1  0  0  0
 16 17  2  0  0  0
 16 21  1  0  0  0
 16 31  1  0  0  0
 17 18  1  0  0  0
 17103  1  0  0  0
 18 19  2  0  0  0
 18104  1  0  0  0
 19 20  1  0  0  0
 19 24  1  0  0  0
 20 21  2  0  0  0
 20105  1  0  0  0
 21 23  1  0  0  0
 22 28  1  0  0  0
 22 32  2  0  0  0
 26 27  1  0  0  0
 28106  1  0  0  0
 28107  1  0  0  0
 29108  1  0  0  0
 29109  1  0  0  0
 33 34  1  0  0  0
 33 66  1  0  0  0
 33 70  2  0  0  0
 34 36  1  0  0  0
 34 59  1  0  0  0
 34110  1  0  0  0
 35 44  2  0  0  0
 35 45  1  0  0  0
 35 68  1  0  0  0
 36 56  1  0  0  0
 36111  1  0  0  0
 37 39  1  0  0  0
 37 47  1  0  0  0
 37 66  1  0  0  0
 37112  1  0  0  0
 38 43  2  0  0  0
 38 46  1  0  0  0
 38 47  1  0  0  0
 39 64  1  0  0  0
 39 67  2  0  0  0
 40 52  1  0  0  0
 40 53  2  0  0  0
 40 58  1  0  0  0
 41113  1  0  0  0
 41114  1  0  0  0
 41115  1  0  0  0
 41 48  1  0  0  0
 42 43  1  0  0  0
 42 66  1  0  0  0
 42116  1  0  0  0
 42117  1  0  0  0
 43 44  1  0  0  0
 44118  1  0  0  0
 45 46  2  0  0  0
 45119  1  0  0  0
 46120  1  0  0  0
 47121  1  0  0  0
 47122  1  0  0  0
 48 56  1  0  0  0
 48 65  1  0  0  0
 48123  1  0  0  0
 49 50  1  0  0  0
 49 53  1  0  0  0
 49 64  1  0  0  0
 49124  1  0  0  0
 50 51  1  0  0  0
 50125  1  0  0  0
 50126  1  0  0  0
 51 52  1  0  0  0
 51127  1  0  0  0
 51128  1  0  0  0
 52129  1  0  0  0
 52130  1  0  0  0
 53 54  1  0  0  0
 54 55  2  0  0  0
 54131  1  0  0  0
 55 57  1  0  0  0
 55132  1  0  0  0
 56 69  2  0  0  0
 57 58  2  0  0  0
 57133  1  0  0  0
 58134  1  0  0  0
 59 60  1  0  0  0
 59 61  1  0  0  0
 59 62  1  0  0  0
 60135  1  0  0  0
 60136  1  0  0  0
 60137  1  0  0  0
 61138  1  0  0  0
 61139  1  0  0  0
 61140  1  0  0  0
 62141  1  0  0  0
 62142  1  0  0  0
 62143  1  0  0  0
 63 65  1  0  0  0
 63144  1  0  0  0
 63145  1  0  0  0
 63146  1  0  0  0
 64147  1  0  0  0
 65148  1  0  0  0
 68 82  1  0  0  0
 71 72  1  0  0  0
 71 73  2  0  0  0
 71149  1  0  0  0
 72 74  2  0  0  0
 72 83  1  0  0  0
 73 84  1  0  0  0
 73 87  1  0  0  0
 74 75  1  0  0  0
 74 87  1  0  0  0
 75150  1  0  0  0
 75151  1  0  0  0
 75152  1  0  0  0
 76153  1  0  0  0
 76154  1  0  0  0
 76155  1  0  0  0
 76 83  1  0  0  0
 77156  1  0  0  0
 77157  1  0  0  0
 77158  1  0  0  0
 77 84  1  0  0  0
 78159  1  0  0  0
 78160  1  0  0  0
 78161  1  0  0  0
 78 85  1  0  0  0
 79 85  1  0  0  0
 79162  1  0  0  0
 79163  1  0  0  0
 79164  1  0  0  0
 80165  1  0  0  0
 80166  1  0  0  0
 80167  1  0  0  0
 80 86  1  0  0  0
 81 86  1  0  0  0
 81 89  1  0  0  0
 81168  1  0  0  0
 81169  1  0  0  0
 82 83  1  0  0  0
 82170  1  0  0  0
 82171  1  0  0  0
 83172  1  0  0  0
 84 89  1  0  0  0
 84173  1  0  0  0
 85 87  1  0  0  0
 85174  1  0  0  0
 86 88  1  0  0  0
 86175  1  0  0  0
 88176  1  0  0  0
 89177  1  0  0  0
 89178  1  0  0  0
M  CHG  1  89   1
M  ISO  4   1 100  68 101  82 101  88 100
M  END
> <chiral flag>
0

> <version>
0

> <s_m_source_file>
/data/baiqing/PycharmProjects/Reinvent-master-3.2/result/LINK_invent/BTK/process_docking_weight1_custom_sum_contain_oxygen_bond_distance_aromatic_linkinvent_7_9_3/rearranged_h_0098.sdf

> <i_m_source_file_index>
65

> <r_mmod_Potential_Energy-OPLS-2005>
-247.808441162109

> <r_mmod_Stretch_Energy-OPLS-2005>
43.1428031921387

> <r_mmod_Bend_Energy-OPLS-2005>
134.746826171875

> <r_mmod_Torsional_Energy-OPLS-2005>
266.518127441406

> <r_mmod_Improper_Torsional_Energy-OPLS-2005>
3.11844611167908

> <r_mmod_Van_der_Waal_Energy-OPLS-2005>
129.13069152832

> <r_mmod_Electrostatic_Energy-OPLS-2005>
-403.607604980469

> <r_mmod_Solvation_Energy-OPLS-2005>
-432.946044921875

> <b_mmod_Minimization_Converged-OPLS-2005>
0

> <r_mmod_RMS_Derivative-OPLS-2005>
2.12102293968201

$$$$
68
                    3D
 Structure written by MMmdl.
169177  0  0  1  0            999 V2000
  -30.6503  -14.7175   20.4595 C   0  0  0  0  0  0
  -30.4237  -12.4387   19.4789 C   0  0  0  0  0  0
  -29.5072  -12.5004   18.2391 C   0  0  0  0  0  0
  -28.0331  -12.3325   18.6538 C   0  0  0  0  0  0
  -27.6406  -13.2353   19.8550 C   0  0  2  0  0  0
  -28.6863  -13.1778   20.9904 C   0  0  0  0  0  0
  -25.2454  -13.8177   20.5672 C   0  0  0  0  0  0
  -24.1788  -13.0414   20.9243 C   0  0  0  0  0  0
  -24.6396  -11.6899   20.8778 C   0  0  0  0  0  0
  -23.9075  -10.4273   21.0430 C   0  0  0  0  0  0
  -24.3615   -9.4191   21.9199 C   0  0  0  0  0  0
  -23.6289   -8.2227   22.0753 C   0  0  0  0  0  0
  -22.4270   -8.0274   21.3546 C   0  0  0  0  0  0
  -21.9914   -9.0252   20.4639 C   0  0  0  0  0  0
  -22.7251  -10.2128   20.3064 C   0  0  0  0  0  0
  -21.6844   -6.0736   22.5280 C   0  0  0  0  0  0
  -21.4009   -6.5641   23.8218 C   0  0  0  0  0  0
  -21.3656   -5.6794   24.9176 C   0  0  0  0  0  0
  -21.6048   -4.3058   24.7226 C   0  0  0  0  0  0
  -21.8817   -3.8146   23.4347 C   0  0  0  0  0  0
  -21.9185   -4.6964   22.3399 C   0  0  0  0  0  0
  -22.7816  -13.5196   21.1869 C   0  0  0  0  0  0
  -22.1653   -4.2152   21.0978 F   0  0  0  0  0  0
  -21.5624   -3.4541   25.7738 F   0  0  0  0  0  0
  -29.9909  -13.5110   20.4052 N   0  0  0  0  0  0
  -26.2927  -12.9423   20.3321 N   0  0  0  0  0  0
  -25.9333  -11.6565   20.5798 N   0  0  0  0  0  0
  -22.0433  -12.8201   22.0416 N   0  0  0  0  0  0
  -25.3999  -15.1922   20.3958 N   0  0  0  0  0  0
  -31.8371  -14.7777   20.1315 O   0  0  0  0  0  0
  -21.6617   -6.8883   21.4247 O   0  0  0  0  0  0
  -22.3583  -14.5542   20.6730 O   0  0  0  0  0  0
  -24.6301  -31.8567   23.1992 C   0  0  0  0  0  0
  -25.9126  -32.4765   23.8334 C   0  0  1  0  0  0
  -27.2197  -27.2669   20.1199 C   0  0  0  0  0  0
  -25.5939  -33.8574   24.2258 N   0  0  0  0  0  0
  -23.4255  -30.4815   21.5416 C   0  0  2  0  0  0
  -24.8714  -28.9338   20.1057 C   0  0  0  0  0  0
  -22.7492  -29.4615   22.4897 C   0  0  0  0  0  0
  -18.0291  -28.1396   22.8484 C   0  0  0  0  0  0
  -24.1484  -36.7277   23.2635 C   0  0  0  0  0  0
  -25.9714  -30.7700   21.3795 C   0  0  0  0  0  0
  -26.0413  -29.3945   20.7199 C   0  0  0  0  0  0
  -27.2119  -28.5705   20.7250 C   0  0  0  0  0  0
  -26.0255  -26.8859   19.4619 C   0  0  0  0  0  0
  -24.8694  -27.6875   19.4658 C   0  0  0  0  0  0
  -23.6427  -29.8201   20.1557 C   0  0  0  0  0  0
  -25.4111  -36.3079   24.0332 C   0  0  1  0  0  0
  -20.5900  -28.3701   23.1263 C   0  0  2  0  0  0
  -20.6785  -26.9423   22.5405 C   0  0  0  0  0  0
  -19.5761  -26.6395   21.5213 C   0  0  0  0  0  0
  -18.1938  -26.7938   22.1624 C   0  0  0  0  0  0
  -19.1547  -28.8864   23.2876 C   0  0  0  0  0  0
  -18.9469  -30.1461   23.8895 C   0  0  0  0  0  0
  -17.6473  -30.6599   24.0568 C   0  0  0  0  0  0
  -25.9059  -34.9456   23.5100 C   0  0  0  0  0  0
  -16.5361  -29.9101   23.6336 C   0  0  0  0  0  0
  -16.7281  -28.6520   23.0366 C   0  0  0  0  0  0
  -26.4492  -31.6602   25.0723 C   0  0  0  0  0  0
  -25.3724  -31.3760   26.1459 C   0  0  0  0  0  0
  -27.0316  -30.3014   24.6196 C   0  0  0  0  0  0
  -27.6040  -32.4343   25.7498 C   0  0  0  0  0  0
  -27.5576  -37.1788   24.8455 C   0  0  0  0  0  0
  -21.4207  -29.3053   22.3652 N   0  0  0  0  0  0
  -26.4272  -37.3790   23.9425 N   0  0  0  0  0  0
  -24.6946  -31.0544   22.0961 N   0  0  0  0  0  0
  -23.4211  -28.8172   23.2999 O   0  0  0  0  0  0
  -28.3294  -26.3883   20.2277 O   0  0  0  0  0  0
  -26.5625  -34.8935   22.4662 O   0  0  0  0  0  0
  -23.5450  -32.1381   23.7288 O   0  0  0  0  0  0
  -29.6796  -19.7839   19.7320 C   0  0  0  0  0  0
  -28.9505  -20.5280   21.6711 C   0  0  0  0  0  0
  -29.7857  -18.6822   20.5799 C   0  0  0  0  0  0
  -29.3052  -19.1969   21.8356 C   0  0  0  0  0  0
  -29.8914  -19.1749   24.2902 C   0  0  0  0  0  0
  -29.1910  -25.1914   18.3646 C   0  0  0  0  0  0
  -30.4333  -17.2682   20.2124 C   0  0  0  0  0  0
  -28.8834  -23.7110   20.4793 C   0  0  0  0  0  0
  -27.7415  -18.0797   23.4782 C   0  0  0  0  0  0
  -28.8764  -22.2838   19.7129 C   0  0  0  0  0  0
  -27.0530  -17.2539   22.3764 C   0  0  0  0  0  0
  -29.2047  -18.4259   23.1367 C   0  0  1  0  0  0
  -28.3630  -25.0027   19.6435 C   0  0  1  0  0  0
  -29.1886  -20.9433   20.3726 N   0  0  0  0  0  0
  -29.9322  -15.8899   20.6326 N   0  0  0  0  0  0
  -25.6835  -16.8439   22.7210 N   0  3  0  0  0  0
  -31.4685  -12.5402   19.1773 H   0  0  0  0  0  0
  -30.3488  -11.4647   19.9655 H   0  0  0  0  0  0
  -29.7849  -11.7229   17.5261 H   0  0  0  0  0  0
  -29.6434  -13.4537   17.7256 H   0  0  0  0  0  0
  -27.8890  -11.2841   18.9185 H   0  0  0  0  0  0
  -27.3735  -12.5224   17.8064 H   0  0  0  0  0  0
  -27.6327  -14.2561   19.4735 H   0  0  0  0  0  0
  -28.7168  -12.1864   21.4445 H   0  0  0  0  0  0
  -28.4282  -13.8721   21.7908 H   0  0  0  0  0  0
  -25.2758   -9.5651   22.4787 H   0  0  0  0  0  0
  -24.0001   -7.4608   22.7458 H   0  0  0  0  0  0
  -21.0856   -8.8760   19.8936 H   0  0  0  0  0  0
  -22.3721  -10.9668   19.6170 H   0  0  0  0  0  0
  -21.2001   -7.6146   23.9724 H   0  0  0  0  0  0
  -21.1481   -6.0520   25.9082 H   0  0  0  0  0  0
  -22.0598   -2.7609   23.2844 H   0  0  0  0  0  0
  -22.4009  -11.9842   22.4787 H   0  0  0  0  0  0
  -21.1053  -13.1244   22.2598 H   0  0  0  0  0  0
  -24.5175  -15.6070   20.1071 H   0  0  0  0  0  0
  -26.1148  -15.4170   19.7133 H   0  0  0  0  0  0
  -26.7197  -32.5406   23.1076 H   0  0  0  0  0  0
  -25.0122  -33.9724   25.0424 H   0  0  0  0  0  0
  -22.7217  -31.3046   21.3999 H   0  0  0  0  0  0
  -23.3771  -35.9585   23.3290 H   0  0  0  0  0  0
  -24.3586  -36.8904   22.2052 H   0  0  0  0  0  0
  -23.7221  -37.6469   23.6658 H   0  0  0  0  0  0
  -26.1141  -31.5319   20.6118 H   0  0  0  0  0  0
  -26.8479  -30.8158   22.0138 H   0  0  0  0  0  0
  -28.1014  -28.9149   21.2331 H   0  0  0  0  0  0
  -25.9184  -25.9504   18.9409 H   0  0  0  0  0  0
  -23.9764  -27.3313   18.9711 H   0  0  0  0  0  0
  -23.7689  -30.6002   19.4037 H   0  0  0  0  0  0
  -22.7595  -29.2553   19.8494 H   0  0  0  0  0  0
  -25.1301  -36.1910   25.0828 H   0  0  0  0  0  0
  -20.9998  -28.3280   24.1380 H   0  0  0  0  0  0
  -20.5683  -26.2318   23.3618 H   0  0  0  0  0  0
  -21.6659  -26.7459   22.1196 H   0  0  0  0  0  0
  -19.6931  -25.6308   21.1245 H   0  0  0  0  0  0
  -19.6701  -27.3201   20.6741 H   0  0  0  0  0  0
  -17.4218  -26.6689   21.4020 H   0  0  0  0  0  0
  -18.0332  -26.0082   22.9020 H   0  0  0  0  0  0
  -19.7948  -30.7273   24.2266 H   0  0  0  0  0  0
  -17.5039  -31.6275   24.5172 H   0  0  0  0  0  0
  -15.5364  -30.3022   23.7658 H   0  0  0  0  0  0
  -15.8682  -28.0845   22.7085 H   0  0  0  0  0  0
  -24.5913  -30.7083   25.7813 H   0  0  0  0  0  0
  -24.8889  -32.2923   26.4844 H   0  0  0  0  0  0
  -25.8060  -30.8994   27.0257 H   0  0  0  0  0  0
  -26.2874  -29.6791   24.1199 H   0  0  0  0  0  0
  -27.3980  -29.7260   25.4698 H   0  0  0  0  0  0
  -27.8782  -30.4298   23.9450 H   0  0  0  0  0  0
  -27.2650  -33.3668   26.2026 H   0  0  0  0  0  0
  -28.3880  -32.6864   25.0346 H   0  0  0  0  0  0
  -28.0674  -31.8498   26.5453 H   0  0  0  0  0  0
  -28.2573  -38.0103   24.7561 H   0  0  0  0  0  0
  -28.1107  -36.2650   24.6222 H   0  0  0  0  0  0
  -27.2312  -37.1357   25.8858 H   0  0  0  0  0  0
  -20.9372  -29.8795   21.6884 H   0  0  0  0  0  0
  -26.0152  -38.2859   24.1469 H   0  0  0  0  0  0
  -29.9350  -19.8512   18.6822 H   0  0  0  0  0  0
  -28.5408  -21.2296   22.3865 H   0  0  0  0  0  0
  -30.9422  -19.3608   24.0659 H   0  0  0  0  0  0
  -29.8556  -18.5918   25.2112 H   0  0  0  0  0  0
  -29.4176  -20.1362   24.4907 H   0  0  0  0  0  0
  -29.2001  -24.2992   17.7402 H   0  0  0  0  0  0
  -30.2234  -25.4477   18.6044 H   0  0  0  0  0  0
  -28.7870  -25.9988   17.7532 H   0  0  0  0  0  0
  -31.4696  -17.3392   20.5449 H   0  0  0  0  0  0
  -30.4955  -17.2417   19.1244 H   0  0  0  0  0  0
  -29.8933  -23.9073   20.8394 H   0  0  0  0  0  0
  -28.2642  -23.6206   21.3717 H   0  0  0  0  0  0
  -27.7199  -17.5194   24.4138 H   0  0  0  0  0  0
  -27.1790  -18.9978   23.6535 H   0  0  0  0  0  0
  -29.5654  -22.3652   18.8728 H   0  0  0  0  0  0
  -27.8939  -22.1678   19.2557 H   0  0  0  0  0  0
  -27.6311  -16.3526   22.1806 H   0  0  0  0  0  0
  -27.0140  -17.8120   21.4398 H   0  0  0  0  0  0
  -29.7476  -17.4901   23.0013 H   0  0  0  0  0  0
  -27.3739  -24.6854   19.3363 H   0  0  0  0  0  0
  -28.9500  -15.7942   20.8254 H   0  0  0  0  0  0
  -25.6559  -16.3306   23.5835 H   0  0  0  0  0  0
  -25.3636  -16.2345   21.9733 H   0  0  0  0  0  0
  -25.0668  -17.6338   22.7794 H   0  0  0  0  0  0
  1 25  1  0  0  0
  1 30  2  0  0  0
  1 85  1  0  0  0
  2  3  1  0  0  0
  2 25  1  0  0  0
  2 87  1  0  0  0
  2 88  1  0  0  0
  3  4  1  0  0  0
  3 89  1  0  0  0
  3 90  1  0  0  0
  4  5  1  0  0  0
  4 91  1  0  0  0
  4 92  1  0  0  0
  5  6  1  0  0  0
  5 26  1  0  0  0
  5 93  1  0  0  0
  6 25  1  0  0  0
  6 94  1  0  0  0
  6 95  1  0  0  0
  7  8  2  0  0  0
  7 26  1  0  0  0
  7 29  1  0  0  0
  8  9  1  0  0  0
  8 22  1  0  0  0
  9 10  1  0  0  0
  9 27  2  0  0  0
 10 11  2  0  0  0
 10 15  1  0  0  0
 11 12  1  0  0  0
 11 96  1  0  0  0
 12 13  2  0  0  0
 12 97  1  0  0  0
 13 14  1  0  0  0
 13 31  1  0  0  0
 14 15  2  0  0  0
 14 98  1  0  0  0
 15 99  1  0  0  0
 16 17  2  0  0  0
 16 21  1  0  0  0
 16 31  1  0  0  0
 17 18  1  0  0  0
 17100  1  0  0  0
 18 19  2  0  0  0
 18101  1  0  0  0
 19 20  1  0  0  0
 19 24  1  0  0  0
 20 21  2  0  0  0
 20102  1  0  0  0
 21 23  1  0  0  0
 22 28  1  0  0  0
 22 32  2  0  0  0
 26 27  1  0  0  0
 28103  1  0  0  0
 28104  1  0  0  0
 29105  1  0  0  0
 29106  1  0  0  0
 33 34  1  0  0  0
 33 66  1  0  0  0
 33 70  2  0  0  0
 34 36  1  0  0  0
 34 59  1  0  0  0
 34107  1  0  0  0
 35 44  2  0  0  0
 35 45  1  0  0  0
 35 68  1  0  0  0
 36 56  1  0  0  0
 36108  1  0  0  0
 37 39  1  0  0  0
 37 47  1  0  0  0
 37 66  1  0  0  0
 37109  1  0  0  0
 38 43  2  0  0  0
 38 46  1  0  0  0
 38 47  1  0  0  0
 39 64  1  0  0  0
 39 67  2  0  0  0
 40 52  1  0  0  0
 40 53  2  0  0  0
 40 58  1  0  0  0
 41110  1  0  0  0
 41111  1  0  0  0
 41112  1  0  0  0
 41 48  1  0  0  0
 42 43  1  0  0  0
 42 66  1  0  0  0
 42113  1  0  0  0
 42114  1  0  0  0
 43 44  1  0  0  0
 44115  1  0  0  0
 45 46  2  0  0  0
 45116  1  0  0  0
 46117  1  0  0  0
 47118  1  0  0  0
 47119  1  0  0  0
 48 56  1  0  0  0
 48 65  1  0  0  0
 48120  1  0  0  0
 49 50  1  0  0  0
 49 53  1  0  0  0
 49 64  1  0  0  0
 49121  1  0  0  0
 50 51  1  0  0  0
 50122  1  0  0  0
 50123  1  0  0  0
 51 52  1  0  0  0
 51124  1  0  0  0
 51125  1  0  0  0
 52126  1  0  0  0
 52127  1  0  0  0
 53 54  1  0  0  0
 54 55  2  0  0  0
 54128  1  0  0  0
 55 57  1  0  0  0
 55129  1  0  0  0
 56 69  2  0  0  0
 57 58  2  0  0  0
 57130  1  0  0  0
 58131  1  0  0  0
 59 60  1  0  0  0
 59 61  1  0  0  0
 59 62  1  0  0  0
 60132  1  0  0  0
 60133  1  0  0  0
 60134  1  0  0  0
 61135  1  0  0  0
 61136  1  0  0  0
 61137  1  0  0  0
 62138  1  0  0  0
 62139  1  0  0  0
 62140  1  0  0  0
 63 65  1  0  0  0
 63141  1  0  0  0
 63142  1  0  0  0
 63143  1  0  0  0
 64144  1  0  0  0
 65145  1  0  0  0
 68 83  1  0  0  0
 71 73  2  0  0  0
 71 84  1  0  0  0
 71146  1  0  0  0
 72 74  2  0  0  0
 72 84  1  0  0  0
 72147  1  0  0  0
 73 74  1  0  0  0
 73 77  1  0  0  0
 74 82  1  0  0  0
 75148  1  0  0  0
 75149  1  0  0  0
 75150  1  0  0  0
 75 82  1  0  0  0
 76151  1  0  0  0
 76152  1  0  0  0
 76153  1  0  0  0
 76 83  1  0  0  0
 77 85  1  0  0  0
 77154  1  0  0  0
 77155  1  0  0  0
 78 80  1  0  0  0
 78 83  1  0  0  0
 78156  1  0  0  0
 78157  1  0  0  0
 79 81  1  0  0  0
 79 82  1  0  0  0
 79158  1  0  0  0
 79159  1  0  0  0
 80 84  1  0  0  0
 80160  1  0  0  0
 80161  1  0  0  0
 81 86  1  0  0  0
 81162  1  0  0  0
 81163  1  0  0  0
 82164  1  0  0  0
 83165  1  0  0  0
 85166  1  0  0  0
 86167  1  0  0  0
 86168  1  0  0  0
 86169  1  0  0  0
M  CHG  1  86   1
M  ISO  4   1 100  68 101  83 101  85 100
M  END
> <chiral flag>
0

> <version>
0

> <s_m_source_file>
/data/baiqing/PycharmProjects/Reinvent-master-3.2/result/LINK_invent/BTK/process_docking_weight1_custom_sum_contain_oxygen_bond_distance_aromatic_linkinvent_7_9_3/rearranged_h_0098.sdf

> <i_m_source_file_index>
66

> <r_mmod_Potential_Energy-OPLS-2005>
-180.179992675781

> <r_mmod_Stretch_Energy-OPLS-2005>
114.264678955078

> <r_mmod_Bend_Energy-OPLS-2005>
187.696350097656

> <r_mmod_Torsional_Energy-OPLS-2005>
228.128036499023

> <r_mmod_Improper_Torsional_Energy-OPLS-2005>
13.294487953186

> <r_mmod_Van_der_Waal_Energy-OPLS-2005>
116.749328613281

> <r_mmod_Electrostatic_Energy-OPLS-2005>
-447.082397460938

> <r_mmod_Solvation_Energy-OPLS-2005>
-472.644714355469

> <b_mmod_Minimization_Converged-OPLS-2005>
0

> <r_mmod_RMS_Derivative-OPLS-2005>
1.93540954589844

$$$$
69
                    3D
 Structure written by MMmdl.
177185  0  0  1  0            999 V2000
  -30.7020  -14.5179   20.5464 C   0  0  0  0  0  0
  -30.4314  -12.3355   19.4237 C   0  0  0  0  0  0
  -29.4910  -12.4755   18.2099 C   0  0  0  0  0  0
  -28.0129  -12.3454   18.6337 C   0  0  0  0  0  0
  -27.6588  -13.2044   19.8758 C   0  0  2  0  0  0
  -28.7088  -12.9913   20.9873 C   0  0  0  0  0  0
  -25.2578  -13.8202   20.5715 C   0  0  0  0  0  0
  -24.1812  -13.0433   20.9229 C   0  0  0  0  0  0
  -24.6391  -11.6919   20.8770 C   0  0  0  0  0  0
  -23.9068  -10.4307   21.0398 C   0  0  0  0  0  0
  -24.3602   -9.4223   21.9180 C   0  0  0  0  0  0
  -23.6260   -8.2271   22.0754 C   0  0  0  0  0  0
  -22.4222   -8.0329   21.3572 C   0  0  0  0  0  0
  -21.9896   -9.0300   20.4648 C   0  0  0  0  0  0
  -22.7253  -10.2156   20.3054 C   0  0  0  0  0  0
  -21.6848   -6.0747   22.5278 C   0  0  0  0  0  0
  -21.4019   -6.5640   23.8223 C   0  0  0  0  0  0
  -21.3641   -5.6790   24.9185 C   0  0  0  0  0  0
  -21.6041   -4.3054   24.7239 C   0  0  0  0  0  0
  -21.8838   -3.8138   23.4359 C   0  0  0  0  0  0
  -21.9204   -4.6969   22.3405 C   0  0  0  0  0  0
  -22.7812  -13.5210   21.1862 C   0  0  0  0  0  0
  -22.1666   -4.2139   21.0990 F   0  0  0  0  0  0
  -21.5606   -3.4548   25.7746 F   0  0  0  0  0  0
  -30.0223  -13.3394   20.4241 N   0  0  0  0  0  0
  -26.3000  -12.9340   20.3416 N   0  0  0  0  0  0
  -25.9338  -11.6491   20.5874 N   0  0  0  0  0  0
  -22.0408  -12.8172   22.0396 N   0  0  0  0  0  0
  -25.4317  -15.1931   20.4103 N   0  0  0  0  0  0
  -31.8489  -14.6576   20.1236 O   0  0  0  0  0  0
  -21.6617   -6.8881   21.4238 O   0  0  0  0  0  0
  -22.3495  -14.5549   20.6811 O   0  0  0  0  0  0
  -24.6235  -31.8720   23.2045 C   0  0  0  0  0  0
  -25.9123  -32.4834   23.8370 C   0  0  1  0  0  0
  -27.2108  -27.3892   20.0953 C   0  0  0  0  0  0
  -25.5990  -33.8629   24.2328 N   0  0  0  0  0  0
  -23.4070  -30.5008   21.5484 C   0  0  2  0  0  0
  -24.8477  -28.9772   20.1091 C   0  0  0  0  0  0
  -22.7496  -29.4655   22.4954 C   0  0  0  0  0  0
  -18.0295  -28.1509   22.8384 C   0  0  0  0  0  0
  -24.1502  -36.7336   23.2616 C   0  0  0  0  0  0
  -25.9442  -30.8217   21.3676 C   0  0  0  0  0  0
  -26.0158  -29.4558   20.7168 C   0  0  0  0  0  0
  -27.1997  -28.6683   20.7130 C   0  0  0  0  0  0
  -26.0200  -26.9757   19.4376 C   0  0  0  0  0  0
  -24.8486  -27.7389   19.4607 C   0  0  0  0  0  0
  -23.6137  -29.8484   20.1584 C   0  0  0  0  0  0
  -25.4115  -36.3141   24.0337 C   0  0  1  0  0  0
  -20.5863  -28.3731   23.1279 C   0  0  2  0  0  0
  -20.6749  -26.9490   22.5361 C   0  0  0  0  0  0
  -19.5720  -26.6511   21.5154 C   0  0  0  0  0  0
  -18.1947  -26.8066   22.1598 C   0  0  0  0  0  0
  -19.1513  -28.8900   23.2887 C   0  0  0  0  0  0
  -18.9422  -30.1453   23.9000 C   0  0  0  0  0  0
  -17.6446  -30.6520   24.0627 C   0  0  0  0  0  0
  -25.9043  -34.9496   23.5132 C   0  0  0  0  0  0
  -16.5357  -29.9045   23.6403 C   0  0  0  0  0  0
  -16.7281  -28.6592   23.0248 C   0  0  0  0  0  0
  -26.4513  -31.6640   25.0724 C   0  0  0  0  0  0
  -25.3768  -31.3713   26.1438 C   0  0  0  0  0  0
  -27.0300  -30.3097   24.6117 C   0  0  0  0  0  0
  -27.6104  -32.4292   25.7536 C   0  0  0  0  0  0
  -27.5603  -37.1837   24.8465 C   0  0  0  0  0  0
  -21.4218  -29.3060   22.3714 N   0  0  0  0  0  0
  -26.4309  -37.3832   23.9399 N   0  0  0  0  0  0
  -24.6761  -31.0802   22.0967 N   0  0  0  0  0  0
  -23.4305  -28.8154   23.2936 O   0  0  0  0  0  0
  -28.3255  -26.5480   20.1641 O   0  0  0  0  0  0
  -26.5541  -34.8964   22.4653 O   0  0  0  0  0  0
  -23.5421  -32.1497   23.7451 O   0  0  0  0  0  0
  -30.0403  -19.7352   21.4070 C   0  0  0  0  0  0
  -29.7316  -20.9880   20.8403 C   0  0  0  0  0  0
  -27.8367  -18.9237   20.8373 C   0  0  0  0  0  0
  -29.0811  -18.7012   21.4658 C   0  0  0  0  0  0
  -28.4485  -21.2515   20.3126 C   0  0  0  0  0  0
  -27.4688  -20.1870   20.2748 C   0  0  0  0  0  0
  -25.1105  -21.0332   20.7943 C   0  0  0  0  0  0
  -25.3272  -18.9884   19.4327 C   0  0  0  0  0  0
  -25.9030  -21.1221   18.3815 C   0  0  0  0  0  0
  -28.5635  -19.0703   24.2229 C   0  0  0  0  0  0
  -27.1678  -17.1114   23.7306 C   0  0  0  0  0  0
  -28.1576  -22.6651   19.7771 C   0  0  0  0  0  0
  -28.9100  -23.9455   20.2804 C   0  0  0  0  0  0
  -29.1502  -16.0273   21.8672 C   0  0  0  0  0  0
  -28.0105  -25.1547   19.8973 C   0  0  0  0  0  0
  -29.3085  -17.4941   22.4157 C   0  0  2  0  0  0
  -26.0040  -20.3533   19.7294 C   0  0  0  0  0  0
  -29.9821  -15.6507   20.7204 N   0  0  0  0  0  0
  -28.5417  -17.6832   23.6935 N   0  3  0  0  0  0
  -31.4697  -12.4485   19.1070 H   0  0  0  0  0  0
  -30.3650  -11.3355   19.8497 H   0  0  0  0  0  0
  -29.7267  -11.7167   17.4615 H   0  0  0  0  0  0
  -29.6540  -13.4412   17.7304 H   0  0  0  0  0  0
  -27.8396  -11.2905   18.8528 H   0  0  0  0  0  0
  -27.3490  -12.5918   17.8057 H   0  0  0  0  0  0
  -27.7059  -14.2505   19.5686 H   0  0  0  0  0  0
  -28.7123  -11.9503   21.3145 H   0  0  0  0  0  0
  -28.4619  -13.5519   21.8836 H   0  0  0  0  0  0
  -25.2725   -9.5700   22.4799 H   0  0  0  0  0  0
  -23.9970   -7.4646   22.7456 H   0  0  0  0  0  0
  -21.0843   -8.8826   19.8919 H   0  0  0  0  0  0
  -22.3721  -10.9723   19.6184 H   0  0  0  0  0  0
  -21.2031   -7.6154   23.9733 H   0  0  0  0  0  0
  -21.1407   -6.0502   25.9070 H   0  0  0  0  0  0
  -22.0616   -2.7598   23.2896 H   0  0  0  0  0  0
  -22.3923  -11.9868   22.4935 H   0  0  0  0  0  0
  -21.1065  -13.1286   22.2605 H   0  0  0  0  0  0
  -24.6526  -15.8395   20.4808 H   0  0  0  0  0  0
  -26.2602  -15.6073   20.0001 H   0  0  0  0  0  0
  -26.7194  -32.5541   23.1117 H   0  0  0  0  0  0
  -25.0301  -33.9748   25.0594 H   0  0  0  0  0  0
  -22.6941  -31.3174   21.4179 H   0  0  0  0  0  0
  -23.3778  -35.9664   23.3280 H   0  0  0  0  0  0
  -24.3601  -36.8916   22.2027 H   0  0  0  0  0  0
  -23.7256  -37.6544   23.6612 H   0  0  0  0  0  0
  -26.0661  -31.5757   20.5872 H   0  0  0  0  0  0
  -26.8321  -30.8762   21.9845 H   0  0  0  0  0  0
  -28.0881  -29.0208   21.2177 H   0  0  0  0  0  0
  -25.9431  -26.0470   18.8927 H   0  0  0  0  0  0
  -23.9608  -27.3678   18.9677 H   0  0  0  0  0  0
  -23.7208  -30.6247   19.3995 H   0  0  0  0  0  0
  -22.7339  -29.2740   19.8639 H   0  0  0  0  0  0
  -25.1316  -36.1982   25.0836 H   0  0  0  0  0  0
  -20.9919  -28.3214   24.1404 H   0  0  0  0  0  0
  -20.5671  -26.2348   23.3513 H   0  0  0  0  0  0
  -21.6548  -26.7465   22.1062 H   0  0  0  0  0  0
  -19.6775  -25.6426   21.1164 H   0  0  0  0  0  0
  -19.6718  -27.3316   20.6716 H   0  0  0  0  0  0
  -17.4174  -26.6693   21.4056 H   0  0  0  0  0  0
  -18.0488  -26.0412   22.9225 H   0  0  0  0  0  0
  -19.7806  -30.7243   24.2549 H   0  0  0  0  0  0
  -17.4950  -31.6104   24.5353 H   0  0  0  0  0  0
  -15.5345  -30.2925   23.7819 H   0  0  0  0  0  0
  -15.8642  -28.0967   22.6878 H   0  0  0  0  0  0
  -24.5996  -30.7010   25.7746 H   0  0  0  0  0  0
  -24.8886  -32.2826   26.4889 H   0  0  0  0  0  0
  -25.8119  -30.8886   27.0202 H   0  0  0  0  0  0
  -26.2816  -29.6892   24.1188 H   0  0  0  0  0  0
  -27.4068  -29.7337   25.4581 H   0  0  0  0  0  0
  -27.8690  -30.4399   23.9288 H   0  0  0  0  0  0
  -27.2786  -33.3586   26.2190 H   0  0  0  0  0  0
  -28.3965  -32.6822   25.0407 H   0  0  0  0  0  0
  -28.0754  -31.8345   26.5401 H   0  0  0  0  0  0
  -28.2647  -38.0124   24.7541 H   0  0  0  0  0  0
  -28.1099  -36.2656   24.6297 H   0  0  0  0  0  0
  -27.2318  -37.1511   25.8873 H   0  0  0  0  0  0
  -20.9398  -29.9017   21.7102 H   0  0  0  0  0  0
  -26.0202  -38.2932   24.1346 H   0  0  0  0  0  0
  -31.0060  -19.5955   21.8690 H   0  0  0  0  0  0
  -30.4854  -21.7670   20.8550 H   0  0  0  0  0  0
  -27.1486  -18.0953   20.8723 H   0  0  0  0  0  0
  -25.1462  -20.4865   21.7354 H   0  0  0  0  0  0
  -24.0693  -21.0626   20.4796 H   0  0  0  0  0  0
  -25.3882  -22.0617   21.0101 H   0  0  0  0  0  0
  -25.1449  -18.3906   20.3296 H   0  0  0  0  0  0
  -25.9273  -18.3957   18.7430 H   0  0  0  0  0  0
  -24.3498  -19.1208   18.9651 H   0  0  0  0  0  0
  -26.0055  -22.2002   18.4507 H   0  0  0  0  0  0
  -24.9177  -21.0074   17.9307 H   0  0  0  0  0  0
  -26.6388  -20.7547   17.6659 H   0  0  0  0  0  0
  -27.8771  -19.7053   23.6637 H   0  0  0  0  0  0
  -29.5605  -19.5042   24.1592 H   0  0  0  0  0  0
  -28.2712  -19.0952   25.2763 H   0  0  0  0  0  0
  -27.2011  -16.0231   23.7726 H   0  0  0  0  0  0
  -26.5681  -17.3980   22.8673 H   0  0  0  0  0  0
  -26.6228  -17.4464   24.6206 H   0  0  0  0  0  0
  -27.1317  -22.8353   20.0684 H   0  0  0  0  0  0
  -28.1965  -22.6326   18.6861 H   0  0  0  0  0  0
  -29.9000  -24.0415   19.8267 H   0  0  0  0  0  0
  -29.0387  -23.9025   21.3625 H   0  0  0  0  0  0
  -29.3918  -15.3497   22.6860 H   0  0  0  0  0  0
  -28.1152  -15.8348   21.5866 H   0  0  0  0  0  0
  -27.0826  -24.9454   20.4348 H   0  0  0  0  0  0
  -27.8098  -25.0737   18.8280 H   0  0  0  0  0  0
  -30.3604  -17.5668   22.7058 H   0  0  0  0  0  0
  -30.4381  -16.4439   20.2975 H   0  0  0  0  0  0
  -29.0610  -17.1474   24.3721 H   0  0  0  0  0  0
  1 25  1  0  0  0
  1 30  2  0  0  0
  1 88  1  0  0  0
  2  3  1  0  0  0
  2 25  1  0  0  0
  2 90  1  0  0  0
  2 91  1  0  0  0
  3  4  1  0  0  0
  3 92  1  0  0  0
  3 93  1  0  0  0
  4  5  1  0  0  0
  4 94  1  0  0  0
  4 95  1  0  0  0
  5  6  1  0  0  0
  5 26  1  0  0  0
  5 96  1  0  0  0
  6 25  1  0  0  0
  6 97  1  0  0  0
  6 98  1  0  0  0
  7  8  2  0  0  0
  7 26  1  0  0  0
  7 29  1  0  0  0
  8  9  1  0  0  0
  8 22  1  0  0  0
  9 10  1  0  0  0
  9 27  2  0  0  0
 10 11  2  0  0  0
 10 15  1  0  0  0
 11 12  1  0  0  0
 11 99  1  0  0  0
 12 13  2  0  0  0
 12100  1  0  0  0
 13 14  1  0  0  0
 13 31  1  0  0  0
 14 15  2  0  0  0
 14101  1  0  0  0
 15102  1  0  0  0
 16 17  2  0  0  0
 16 21  1  0  0  0
 16 31  1  0  0  0
 17 18  1  0  0  0
 17103  1  0  0  0
 18 19  2  0  0  0
 18104  1  0  0  0
 19 20  1  0  0  0
 19 24  1  0  0  0
 20 21  2  0  0  0
 20105  1  0  0  0
 21 23  1  0  0  0
 22 28  1  0  0  0
 22 32  2  0  0  0
 26 27  1  0  0  0
 28106  1  0  0  0
 28107  1  0  0  0
 29108  1  0  0  0
 29109  1  0  0  0
 33 34  1  0  0  0
 33 66  1  0  0  0
 33 70  2  0  0  0
 34 36  1  0  0  0
 34 59  1  0  0  0
 34110  1  0  0  0
 35 44  2  0  0  0
 35 45  1  0  0  0
 35 68  1  0  0  0
 36 56  1  0  0  0
 36111  1  0  0  0
 37 39  1  0  0  0
 37 47  1  0  0  0
 37 66  1  0  0  0
 37112  1  0  0  0
 38 43  2  0  0  0
 38 46  1  0  0  0
 38 47  1  0  0  0
 39 64  1  0  0  0
 39 67  2  0  0  0
 40 52  1  0  0  0
 40 53  2  0  0  0
 40 58  1  0  0  0
 41113  1  0  0  0
 41114  1  0  0  0
 41115  1  0  0  0
 41 48  1  0  0  0
 42 43  1  0  0  0
 42 66  1  0  0  0
 42116  1  0  0  0
 42117  1  0  0  0
 43 44  1  0  0  0
 44118  1  0  0  0
 45 46  2  0  0  0
 45119  1  0  0  0
 46120  1  0  0  0
 47121  1  0  0  0
 47122  1  0  0  0
 48 56  1  0  0  0
 48 65  1  0  0  0
 48123  1  0  0  0
 49 50  1  0  0  0
 49 53  1  0  0  0
 49 64  1  0  0  0
 49124  1  0  0  0
 50 51  1  0  0  0
 50125  1  0  0  0
 50126  1  0  0  0
 51 52  1  0  0  0
 51127  1  0  0  0
 51128  1  0  0  0
 52129  1  0  0  0
 52130  1  0  0  0
 53 54  1  0  0  0
 54 55  2  0  0  0
 54131  1  0  0  0
 55 57  1  0  0  0
 55132  1  0  0  0
 56 69  2  0  0  0
 57 58  2  0  0  0
 57133  1  0  0  0
 58134  1  0  0  0
 59 60  1  0  0  0
 59 61  1  0  0  0
 59 62  1  0  0  0
 60135  1  0  0  0
 60136  1  0  0  0
 60137  1  0  0  0
 61138  1  0  0  0
 61139  1  0  0  0
 61140  1  0  0  0
 62141  1  0  0  0
 62142  1  0  0  0
 62143  1  0  0  0
 63 65  1  0  0  0
 63144  1  0  0  0
 63145  1  0  0  0
 63146  1  0  0  0
 64147  1  0  0  0
 65148  1  0  0  0
 68 85  1  0  0  0
 71 72  2  0  0  0
 71 74  1  0  0  0
 71149  1  0  0  0
 72 75  1  0  0  0
 72150  1  0  0  0
 73 74  2  0  0  0
 73 76  1  0  0  0
 73151  1  0  0  0
 74 86  1  0  0  0
 75 76  2  0  0  0
 75 82  1  0  0  0
 76 87  1  0  0  0
 77152  1  0  0  0
 77153  1  0  0  0
 77154  1  0  0  0
 77 87  1  0  0  0
 78 87  1  0  0  0
 78155  1  0  0  0
 78156  1  0  0  0
 78157  1  0  0  0
 79 87  1  0  0  0
 79158  1  0  0  0
 79159  1  0  0  0
 79160  1  0  0  0
 80161  1  0  0  0
 80162  1  0  0  0
 80163  1  0  0  0
 80 89  1  0  0  0
 81 89  1  0  0  0
 81164  1  0  0  0
 81165  1  0  0  0
 81166  1  0  0  0
 82 83  1  0  0  0
 82167  1  0  0  0
 82168  1  0  0  0
 83 85  1  0  0  0
 83169  1  0  0  0
 83170  1  0  0  0
 84 88  1  0  0  0
 84171  1  0  0  0
 84172  1  0  0  0
 84 86  1  0  0  0
 85173  1  0  0  0
 85174  1  0  0  0
 86 89  1  0  0  0
 86175  1  0  0  0
 88176  1  0  0  0
 89177  1  0  0  0
M  CHG  1  89   1
M  ISO  4   1 100  68 101  85 101  88 100
M  END
> <chiral flag>
0

> <version>
0

> <s_m_source_file>
/data/baiqing/PycharmProjects/Reinvent-master-3.2/result/LINK_invent/BTK/process_docking_weight1_custom_sum_contain_oxygen_bond_distance_aromatic_linkinvent_7_9_3/rearranged_h_0098.sdf

> <i_m_source_file_index>
67

> <r_mmod_Potential_Energy-OPLS-2005>
-68.6297302246094

> <r_mmod_Stretch_Energy-OPLS-2005>
62.0285758972168

> <r_mmod_Bend_Energy-OPLS-2005>
175.896347045898

> <r_mmod_Torsional_Energy-OPLS-2005>
268.994445800781

> <r_mmod_Improper_Torsional_Energy-OPLS-2005>
17.581615447998

> <r_mmod_Van_der_Waal_Energy-OPLS-2005>
185.339859008789

> <r_mmod_Electrostatic_Energy-OPLS-2005>
-359.382995605469

> <r_mmod_Solvation_Energy-OPLS-2005>
-445.767303466797

> <b_mmod_Minimization_Converged-OPLS-2005>
0

> <r_mmod_RMS_Derivative-OPLS-2005>
8.52890014648438

$$$$
70
                    3D
 Structure written by MMmdl.
147154  0  0  1  0            999 V2000
  -30.3331  -15.5514   20.3381 C   0  0  0  0  0  0
  -30.4263  -13.0179   19.5383 C   0  0  0  0  0  0
  -29.5462  -12.6368   18.3159 C   0  0  0  0  0  0
  -28.1115  -12.3021   18.7519 C   0  0  0  0  0  0
  -27.5976  -13.3007   19.8150 C   0  0  2  0  0  0
  -28.6182  -13.5981   20.9373 C   0  0  0  0  0  0
  -25.2329  -13.8280   20.5784 C   0  0  0  0  0  0
  -24.1711  -13.0434   20.9280 C   0  0  0  0  0  0
  -24.6404  -11.6942   20.8761 C   0  0  0  0  0  0
  -23.9106  -10.4293   21.0400 C   0  0  0  0  0  0
  -24.3649   -9.4209   21.9180 C   0  0  0  0  0  0
  -23.6313   -8.2249   22.0754 C   0  0  0  0  0  0
  -22.4294   -8.0289   21.3547 C   0  0  0  0  0  0
  -21.9938   -9.0261   20.4644 C   0  0  0  0  0  0
  -22.7275  -10.2135   20.3050 C   0  0  0  0  0  0
  -21.6858   -6.0739   22.5280 C   0  0  0  0  0  0
  -21.4018   -6.5639   23.8213 C   0  0  0  0  0  0
  -21.3663   -5.6793   24.9176 C   0  0  0  0  0  0
  -21.6047   -4.3056   24.7224 C   0  0  0  0  0  0
  -21.8818   -3.8147   23.4345 C   0  0  0  0  0  0
  -21.9192   -4.6965   22.3401 C   0  0  0  0  0  0
  -22.7726  -13.5172   21.1921 C   0  0  0  0  0  0
  -22.1661   -4.2151   21.0978 F   0  0  0  0  0  0
  -21.5633   -3.4538   25.7735 F   0  0  0  0  0  0
  -29.8042  -14.1965   20.2867 N   0  0  0  0  0  0
  -26.2770  -12.9595   20.3230 N   0  0  0  0  0  0
  -25.9347  -11.6673   20.5703 N   0  0  0  0  0  0
  -22.0399  -12.8141   22.0475 N   0  0  0  0  0  0
  -25.3926  -15.2020   20.4232 N   0  0  0  0  0  0
  -31.5654  -15.5021   20.1704 O   0  0  0  0  0  0
  -21.6653   -6.8888   21.4246 O   0  0  0  0  0  0
  -22.3395  -14.5469   20.6761 O   0  0  0  0  0  0
  -24.6807  -31.8038   23.1538 C   0  0  0  0  0  0
  -25.9402  -32.4489   23.8079 C   0  0  1  0  0  0
  -27.2257  -26.7383   20.2111 C   0  0  0  0  0  0
  -25.5993  -33.8313   24.1969 N   0  0  0  0  0  0
  -23.5050  -30.4063   21.5075 C   0  0  2  0  0  0
  -24.9614  -28.7528   20.1181 C   0  0  0  0  0  0
  -22.7749  -29.4335   22.4726 C   0  0  0  0  0  0
  -18.0334  -28.1420   22.8455 C   0  0  0  0  0  0
  -24.1493  -36.7164   23.2652 C   0  0  0  0  0  0
  -26.0839  -30.5479   21.4125 C   0  0  0  0  0  0
  -26.1500  -29.1165   20.7620 C   0  0  0  0  0  0
  -27.2691  -28.1365   20.7751 C   0  0  0  0  0  0
  -26.0044  -26.5732   19.5119 C   0  0  0  0  0  0
  -24.9254  -27.5062   19.4697 C   0  0  0  0  0  0
  -23.7564  -29.7044   20.1422 C   0  0  0  0  0  0
  -25.4142  -36.2909   24.0284 C   0  0  1  0  0  0
  -20.5968  -28.3778   23.1148 C   0  0  2  0  0  0
  -20.6801  -26.9440   22.5403 C   0  0  0  0  0  0
  -19.5777  -26.6370   21.5215 C   0  0  0  0  0  0
  -18.1959  -26.7948   22.1619 C   0  0  0  0  0  0
  -19.1600  -28.8922   23.2783 C   0  0  0  0  0  0
  -18.9507  -30.1505   23.8828 C   0  0  0  0  0  0
  -17.6498  -30.6603   24.0548 C   0  0  0  0  0  0
  -25.9120  -34.9298   23.4960 C   0  0  0  0  0  0
  -16.5386  -29.9085   23.6349 C   0  0  0  0  0  0
  -16.7315  -28.6508   23.0366 C   0  0  0  0  0  0
  -26.4587  -31.6512   25.0690 C   0  0  0  0  0  0
  -25.3660  -31.3823   26.1310 C   0  0  0  0  0  0
  -27.0512  -30.2853   24.6565 C   0  0  0  0  0  0
  -27.6037  -32.4366   25.7509 C   0  0  0  0  0  0
  -27.5563  -37.1738   24.8463 C   0  0  0  0  0  0
  -21.4400  -29.3034   22.3477 N   0  0  0  0  0  0
  -26.4270  -37.3666   23.9406 N   0  0  0  0  0  0
  -24.7798  -30.9514   22.0774 N   0  0  0  0  0  0
  -23.4207  -28.7935   23.3059 O   0  0  0  0  0  0
  -28.2028  -25.5450   20.2841 O   0  0  0  0  0  0
  -26.5756  -34.8867   22.4574 O   0  0  0  0  0  0
  -23.5833  -32.1099   23.6511 O   0  0  0  0  0  0
  -27.6886  -19.9819   19.2271 C   0  0  0  0  0  0
  -29.7975  -18.6496   20.3358 C   0  0  0  0  0  0
  -28.0049  -23.8144   20.1756 C   0  0  0  0  0  0
  -28.7444  -20.2577   20.3041 C   0  0  1  0  0  0
  -29.0041  -22.1671   20.2586 C   0  0  1  0  0  0
  -29.5747  -16.8992   20.3882 N   0  0  0  0  0  0
  -29.7969  -22.2767   19.0904 O   0  0  0  0  0  0
  -31.4264  -13.2666   19.1817 H   0  0  0  0  0  0
  -30.5642  -12.1594   20.1982 H   0  0  0  0  0  0
  -29.9828  -11.7955   17.7761 H   0  0  0  0  0  0
  -29.5257  -13.4735   17.6164 H   0  0  0  0  0  0
  -28.1160  -11.2944   19.1691 H   0  0  0  0  0  0
  -27.4439  -12.2763   17.8896 H   0  0  0  0  0  0
  -27.4713  -14.2340   19.2644 H   0  0  0  0  0  0
  -28.8582  -12.7038   21.5145 H   0  0  0  0  0  0
  -28.2011  -14.3180   21.6433 H   0  0  0  0  0  0
  -25.2789   -9.5681   22.4761 H   0  0  0  0  0  0
  -24.0015   -7.4639   22.7474 H   0  0  0  0  0  0
  -21.0873   -8.8782   19.8946 H   0  0  0  0  0  0
  -22.3733  -10.9675   19.6162 H   0  0  0  0  0  0
  -21.2009   -7.6148   23.9713 H   0  0  0  0  0  0
  -21.1491   -6.0526   25.9079 H   0  0  0  0  0  0
  -22.0592   -2.7608   23.2843 H   0  0  0  0  0  0
  -22.4047  -11.9812   22.4858 H   0  0  0  0  0  0
  -21.1009  -13.1134   22.2684 H   0  0  0  0  0  0
  -24.6191  -15.8485   20.5369 H   0  0  0  0  0  0
  -26.2299  -15.6456   20.0697 H   0  0  0  0  0  0
  -26.7482  -32.4971   23.0793 H   0  0  0  0  0  0
  -25.0061  -33.9360   25.0069 H   0  0  0  0  0  0
  -22.8289  -31.2431   21.3196 H   0  0  0  0  0  0
  -23.3774  -35.9474   23.3265 H   0  0  0  0  0  0
  -24.3563  -36.8873   22.2076 H   0  0  0  0  0  0
  -23.7234  -37.6323   23.6757 H   0  0  0  0  0  0
  -26.2831  -31.2744   20.6238 H   0  0  0  0  0  0
  -26.9367  -30.6144   22.0761 H   0  0  0  0  0  0
  -28.1661  -28.4200   21.3076 H   0  0  0  0  0  0
  -25.8452  -25.6274   19.0140 H   0  0  0  0  0  0
  -24.0270  -27.2191   18.9403 H   0  0  0  0  0  0
  -23.9295  -30.4652   19.3803 H   0  0  0  0  0  0
  -22.8617  -29.1696   19.8188 H   0  0  0  0  0  0
  -25.1350  -36.1677   25.0775 H   0  0  0  0  0  0
  -21.0049  -28.3401   24.1275 H   0  0  0  0  0  0
  -20.5662  -26.2402   23.3663 H   0  0  0  0  0  0
  -21.6662  -26.7384   22.1222 H   0  0  0  0  0  0
  -19.6932  -25.6262   21.1291 H   0  0  0  0  0  0
  -19.6719  -27.3140   20.6713 H   0  0  0  0  0  0
  -17.4227  -26.6688   21.4024 H   0  0  0  0  0  0
  -18.0350  -26.0108   22.9033 H   0  0  0  0  0  0
  -19.7983  -30.7339   24.2168 H   0  0  0  0  0  0
  -17.5048  -31.6276   24.5165 H   0  0  0  0  0  0
  -15.5383  -30.2963   23.7714 H   0  0  0  0  0  0
  -15.8716  -28.0800   22.7123 H   0  0  0  0  0  0
  -24.5861  -30.7158   25.7613 H   0  0  0  0  0  0
  -24.8834  -32.3045   26.4556 H   0  0  0  0  0  0
  -25.7846  -30.9104   27.0208 H   0  0  0  0  0  0
  -26.3222  -29.6478   24.1554 H   0  0  0  0  0  0
  -27.3945  -29.7290   25.5297 H   0  0  0  0  0  0
  -27.9200  -30.3986   24.0079 H   0  0  0  0  0  0
  -27.2576  -33.3729   26.1901 H   0  0  0  0  0  0
  -28.3947  -32.6832   25.0413 H   0  0  0  0  0  0
  -28.0598  -31.8623   26.5583 H   0  0  0  0  0  0
  -28.2545  -38.0065   24.7515 H   0  0  0  0  0  0
  -28.1093  -36.2588   24.6283 H   0  0  0  0  0  0
  -27.2278  -37.1366   25.8864 H   0  0  0  0  0  0
  -20.9699  -29.8700   21.6555 H   0  0  0  0  0  0
  -26.0100  -38.2713   24.1426 H   0  0  0  0  0  0
  -26.8824  -20.7150   19.2695 H   0  0  0  0  0  0
  -27.2462  -18.9931   19.3493 H   0  0  0  0  0  0
  -28.1292  -20.0303   18.2312 H   0  0  0  0  0  0
  -30.4783  -18.8134   21.1713 H   0  0  0  0  0  0
  -30.4439  -18.7595   19.4647 H   0  0  0  0  0  0
  -27.2550  -23.6607   20.9518 H   0  0  0  0  0  0
  -27.4334  -23.7128   19.2529 H   0  0  0  0  0  0
  -28.2066  -20.1611   21.2482 H   0  0  0  0  0  0
  -29.6674  -22.3345   21.1086 H   0  0  0  0  0  0
  -28.5904  -16.6908   20.4802 H   0  0  0  0  0  0
  -30.1798  -23.1505   19.0874 H   0  0  0  0  0  0
  1 25  1  0  0  0
  1 30  2  0  0  0
  1 76  1  0  0  0
  2  3  1  0  0  0
  2 25  1  0  0  0
  2 78  1  0  0  0
  2 79  1  0  0  0
  3  4  1  0  0  0
  3 80  1  0  0  0
  3 81  1  0  0  0
  4  5  1  0  0  0
  4 82  1  0  0  0
  4 83  1  0  0  0
  5  6  1  0  0  0
  5 26  1  0  0  0
  5 84  1  0  0  0
  6 25  1  0  0  0
  6 85  1  0  0  0
  6 86  1  0  0  0
  7  8  2  0  0  0
  7 26  1  0  0  0
  7 29  1  0  0  0
  8  9  1  0  0  0
  8 22  1  0  0  0
  9 10  1  0  0  0
  9 27  2  0  0  0
 10 11  2  0  0  0
 10 15  1  0  0  0
 11 12  1  0  0  0
 11 87  1  0  0  0
 12 13  2  0  0  0
 12 88  1  0  0  0
 13 14  1  0  0  0
 13 31  1  0  0  0
 14 15  2  0  0  0
 14 89  1  0  0  0
 15 90  1  0  0  0
 16 17  2  0  0  0
 16 21  1  0  0  0
 16 31  1  0  0  0
 17 18  1  0  0  0
 17 91  1  0  0  0
 18 19  2  0  0  0
 18 92  1  0  0  0
 19 20  1  0  0  0
 19 24  1  0  0  0
 20 21  2  0  0  0
 20 93  1  0  0  0
 21 23  1  0  0  0
 22 28  1  0  0  0
 22 32  2  0  0  0
 26 27  1  0  0  0
 28 94  1  0  0  0
 28 95  1  0  0  0
 29 96  1  0  0  0
 29 97  1  0  0  0
 33 34  1  0  0  0
 33 66  1  0  0  0
 33 70  2  0  0  0
 34 36  1  0  0  0
 34 59  1  0  0  0
 34 98  1  0  0  0
 35 44  2  0  0  0
 35 45  1  0  0  0
 35 68  1  0  0  0
 36 56  1  0  0  0
 36 99  1  0  0  0
 37 39  1  0  0  0
 37 47  1  0  0  0
 37 66  1  0  0  0
 37100  1  0  0  0
 38 43  2  0  0  0
 38 46  1  0  0  0
 38 47  1  0  0  0
 39 64  1  0  0  0
 39 67  2  0  0  0
 40 52  1  0  0  0
 40 53  2  0  0  0
 40 58  1  0  0  0
 41101  1  0  0  0
 41102  1  0  0  0
 41103  1  0  0  0
 41 48  1  0  0  0
 42 43  1  0  0  0
 42 66  1  0  0  0
 42104  1  0  0  0
 42105  1  0  0  0
 43 44  1  0  0  0
 44106  1  0  0  0
 45 46  2  0  0  0
 45107  1  0  0  0
 46108  1  0  0  0
 47109  1  0  0  0
 47110  1  0  0  0
 48 56  1  0  0  0
 48 65  1  0  0  0
 48111  1  0  0  0
 49 50  1  0  0  0
 49 53  1  0  0  0
 49 64  1  0  0  0
 49112  1  0  0  0
 50 51  1  0  0  0
 50113  1  0  0  0
 50114  1  0  0  0
 51 52  1  0  0  0
 51115  1  0  0  0
 51116  1  0  0  0
 52117  1  0  0  0
 52118  1  0  0  0
 53 54  1  0  0  0
 54 55  2  0  0  0
 54119  1  0  0  0
 55 57  1  0  0  0
 55120  1  0  0  0
 56 69  2  0  0  0
 57 58  2  0  0  0
 57121  1  0  0  0
 58122  1  0  0  0
 59 60  1  0  0  0
 59 61  1  0  0  0
 59 62  1  0  0  0
 60123  1  0  0  0
 60124  1  0  0  0
 60125  1  0  0  0
 61126  1  0  0  0
 61127  1  0  0  0
 61128  1  0  0  0
 62129  1  0  0  0
 62130  1  0  0  0
 62131  1  0  0  0
 63 65  1  0  0  0
 63132  1  0  0  0
 63133  1  0  0  0
 63134  1  0  0  0
 64135  1  0  0  0
 65136  1  0  0  0
 68 73  1  0  0  0
 71137  1  0  0  0
 71138  1  0  0  0
 71139  1  0  0  0
 71 74  1  0  0  0
 72 74  1  0  0  0
 72 76  1  0  0  0
 72140  1  0  0  0
 72141  1  0  0  0
 73 75  1  0  0  0
 73142  1  0  0  0
 73143  1  0  0  0
 74 75  1  0  0  0
 74144  1  0  0  0
 75 77  1  0  0  0
 75145  1  0  0  0
 76146  1  0  0  0
 77147  1  0  0  0
M  ISO  4   1 100  68 101  73 101  76 100
M  END
> <chiral flag>
0

> <version>
0

> <s_m_source_file>
/data/baiqing/PycharmProjects/Reinvent-master-3.2/result/LINK_invent/BTK/process_docking_weight1_custom_sum_contain_oxygen_bond_distance_aromatic_linkinvent_7_9_3/rearranged_h_0098.sdf

> <i_m_source_file_index>
68

> <r_mmod_Potential_Energy-OPLS-2005>
2245.47119140625

> <r_mmod_Stretch_Energy-OPLS-2005>
1096.98413085938

> <r_mmod_Bend_Energy-OPLS-2005>
602.843200683594

> <r_mmod_Torsional_Energy-OPLS-2005>
232.206497192383

> <r_mmod_Improper_Torsional_Energy-OPLS-2005>
3.63608264923096

> <r_mmod_Van_der_Waal_Energy-OPLS-2005>
106.752906799316

> <r_mmod_Electrostatic_Energy-OPLS-2005>
-360.734680175781

> <r_mmod_Solvation_Energy-OPLS-2005>
-234.453903198242

> <b_mmod_Minimization_Converged-OPLS-2005>
0

> <r_mmod_RMS_Derivative-OPLS-2005>
0.610423386096954

$$$$
71
                    3D
 Structure written by MMmdl.
159167  0  0  1  0            999 V2000
  -30.5432  -14.9599   20.4493 C   0  0  0  0  0  0
  -30.4435  -12.5956   19.5237 C   0  0  0  0  0  0
  -29.5321  -12.5506   18.2720 C   0  0  0  0  0  0
  -28.0586  -12.3466   18.6726 C   0  0  0  0  0  0
  -27.6345  -13.2633   19.8520 C   0  0  2  0  0  0
  -28.6756  -13.2814   20.9947 C   0  0  0  0  0  0
  -25.2450  -13.8263   20.5738 C   0  0  0  0  0  0
  -24.1822  -13.0459   20.9236 C   0  0  0  0  0  0
  -24.6458  -11.6924   20.8777 C   0  0  0  0  0  0
  -23.9130  -10.4294   21.0363 C   0  0  0  0  0  0
  -24.3646   -9.4209   21.9152 C   0  0  0  0  0  0
  -23.6314   -8.2259   22.0729 C   0  0  0  0  0  0
  -22.4298   -8.0278   21.3522 C   0  0  0  0  0  0
  -21.9947   -9.0260   20.4629 C   0  0  0  0  0  0
  -22.7284  -10.2129   20.3025 C   0  0  0  0  0  0
  -21.6868   -6.0718   22.5266 C   0  0  0  0  0  0
  -21.4017   -6.5616   23.8200 C   0  0  0  0  0  0
  -21.3670   -5.6772   24.9167 C   0  0  0  0  0  0
  -21.6070   -4.3041   24.7219 C   0  0  0  0  0  0
  -21.8804   -3.8118   23.4342 C   0  0  0  0  0  0
  -21.9199   -4.6940   22.3394 C   0  0  0  0  0  0
  -22.7816  -13.5154   21.1901 C   0  0  0  0  0  0
  -22.1633   -4.2122   21.0968 F   0  0  0  0  0  0
  -21.5662   -3.4522   25.7727 F   0  0  0  0  0  0
  -29.9615  -13.6907   20.4223 N   0  0  0  0  0  0
  -26.2912  -12.9522   20.3288 N   0  0  0  0  0  0
  -25.9399  -11.6628   20.5821 N   0  0  0  0  0  0
  -22.0478  -12.8156   22.0444 N   0  0  0  0  0  0
  -25.4098  -15.2020   20.4141 N   0  0  0  0  0  0
  -31.7155  -15.0429   20.0696 O   0  0  0  0  0  0
  -21.6645   -6.8874   21.4231 O   0  0  0  0  0  0
  -22.3467  -14.5446   20.6732 O   0  0  0  0  0  0
  -24.6466  -31.8373   23.1839 C   0  0  0  0  0  0
  -25.9240  -32.4651   23.8210 C   0  0  1  0  0  0
  -27.2255  -27.1018   20.1955 C   0  0  0  0  0  0
  -25.5995  -33.8472   24.2129 N   0  0  0  0  0  0
  -23.4532  -30.4532   21.5280 C   0  0  2  0  0  0
  -24.9104  -28.8740   20.1161 C   0  0  0  0  0  0
  -22.7577  -29.4489   22.4833 C   0  0  0  0  0  0
  -18.0301  -28.1383   22.8495 C   0  0  0  0  0  0
  -24.1493  -36.7250   23.2636 C   0  0  0  0  0  0
  -26.0106  -30.7059   21.3861 C   0  0  0  0  0  0
  -26.0896  -29.3122   20.7375 C   0  0  0  0  0  0
  -27.2520  -28.4493   20.7495 C   0  0  0  0  0  0
  -26.0222  -26.7613   19.5423 C   0  0  0  0  0  0
  -24.8966  -27.6163   19.4916 C   0  0  0  0  0  0
  -23.6842  -29.7772   20.1492 C   0  0  0  0  0  0
  -25.4140  -36.3022   24.0285 C   0  0  1  0  0  0
  -20.5912  -28.3713   23.1247 C   0  0  2  0  0  0
  -20.6795  -26.9410   22.5420 C   0  0  0  0  0  0
  -19.5772  -26.6354   21.5236 C   0  0  0  0  0  0
  -18.1943  -26.7906   22.1627 C   0  0  0  0  0  0
  -19.1558  -28.8872   23.2849 C   0  0  0  0  0  0
  -18.9475  -30.1460   23.8876 C   0  0  0  0  0  0
  -17.6470  -30.6575   24.0555 C   0  0  0  0  0  0
  -25.9105  -34.9404   23.5014 C   0  0  0  0  0  0
  -16.5362  -29.9066   23.6346 C   0  0  0  0  0  0
  -16.7277  -28.6488   23.0370 C   0  0  0  0  0  0
  -26.4573  -31.6537   25.0661 C   0  0  0  0  0  0
  -25.3754  -31.3779   26.1348 C   0  0  0  0  0  0
  -27.0424  -30.2891   24.6295 C   0  0  0  0  0  0
  -27.6057  -32.4348   25.7505 C   0  0  0  0  0  0
  -27.5584  -37.1774   24.8461 C   0  0  0  0  0  0
  -21.4263  -29.3004   22.3589 N   0  0  0  0  0  0
  -26.4289  -37.3748   23.9414 N   0  0  0  0  0  0
  -24.7238  -31.0186   22.0885 N   0  0  0  0  0  0
  -23.4215  -28.8049   23.2994 O   0  0  0  0  0  0
  -28.2769  -26.1065   20.2024 O   0  0  0  0  0  0
  -26.5667  -34.8927   22.4580 O   0  0  0  0  0  0
  -23.5586  -32.1268   23.7068 O   0  0  0  0  0  0
  -29.0012  -21.7755   18.2416 C   0  0  0  0  0  0
  -28.6825  -23.0191   18.8388 C   0  0  0  0  0  0
  -29.2409  -20.5925   18.9791 C   0  0  0  0  0  0
  -28.6477  -23.1977   20.2343 C   0  0  0  0  0  0
  -29.2198  -20.5653   20.3889 C   0  0  0  0  0  0
  -28.9850  -21.9374   20.9893 C   0  0  0  0  0  0
  -29.1842  -22.0864   22.4927 C   0  0  0  0  0  0
  -28.0709  -18.6770   21.7531 C   0  0  0  0  0  0
  -30.4647  -19.1145   22.2073 C   0  0  0  0  0  0
  -28.0816  -24.6701   20.8006 C   0  0  0  0  0  0
  -29.8452  -17.6394   20.2109 C   0  0  0  0  0  0
  -29.4124  -19.0397   21.0874 C   0  0  0  0  0  0
  -29.7695  -16.1290   20.7124 N   0  0  0  0  0  0
  -31.4841  -12.7369   19.2191 H   0  0  0  0  0  0
  -30.4203  -11.6379   20.0441 H   0  0  0  0  0  0
  -29.8512  -11.7519   17.6005 H   0  0  0  0  0  0
  -29.6361  -13.4848   17.7189 H   0  0  0  0  0  0
  -27.9284  -11.3065   18.9662 H   0  0  0  0  0  0
  -27.4103  -12.5023   17.8076 H   0  0  0  0  0  0
  -27.5982  -14.2700   19.4377 H   0  0  0  0  0  0
  -28.7665  -12.2979   21.4577 H   0  0  0  0  0  0
  -28.3882  -13.9680   21.7877 H   0  0  0  0  0  0
  -25.2770   -9.5655   22.4745 H   0  0  0  0  0  0
  -24.0001   -7.4642   22.7447 H   0  0  0  0  0  0
  -21.0866   -8.8756   19.8974 H   0  0  0  0  0  0
  -22.3695  -10.9649   19.6155 H   0  0  0  0  0  0
  -21.1947   -7.6120   23.9671 H   0  0  0  0  0  0
  -21.1544   -6.0522   25.9079 H   0  0  0  0  0  0
  -22.0588   -2.7575   23.2861 H   0  0  0  0  0  0
  -22.4099  -11.9825   22.4855 H   0  0  0  0  0  0
  -21.1095  -13.1164   22.2630 H   0  0  0  0  0  0
  -24.6528  -15.8668   20.5374 H   0  0  0  0  0  0
  -26.2541  -15.6325   20.0597 H   0  0  0  0  0  0
  -26.7301  -32.5261   23.0943 H   0  0  0  0  0  0
  -25.0178  -33.9587   25.0308 H   0  0  0  0  0  0
  -22.7568  -31.2812   21.3697 H   0  0  0  0  0  0
  -23.3770  -35.9564   23.3276 H   0  0  0  0  0  0
  -24.3577  -36.8926   22.2059 H   0  0  0  0  0  0
  -23.7229  -37.6432   23.6695 H   0  0  0  0  0  0
  -26.1645  -31.4545   20.6105 H   0  0  0  0  0  0
  -26.8781  -30.7581   22.0310 H   0  0  0  0  0  0
  -28.1499  -28.7882   21.2461 H   0  0  0  0  0  0
  -25.9324  -25.7825   19.0917 H   0  0  0  0  0  0
  -24.0036  -27.2792   18.9802 H   0  0  0  0  0  0
  -23.8223  -30.5471   19.3877 H   0  0  0  0  0  0
  -22.8006  -29.2144   19.8447 H   0  0  0  0  0  0
  -25.1329  -36.1831   25.0763 H   0  0  0  0  0  0
  -21.0003  -28.3309   24.1378 H   0  0  0  0  0  0
  -20.5731  -26.2316   23.3635 H   0  0  0  0  0  0
  -21.6654  -26.7431   22.1194 H   0  0  0  0  0  0
  -19.6939  -25.6265   21.1274 H   0  0  0  0  0  0
  -19.6712  -27.3174   20.6780 H   0  0  0  0  0  0
  -17.4215  -26.6672   21.4008 H   0  0  0  0  0  0
  -18.0325  -26.0027   22.9016 H   0  0  0  0  0  0
  -19.7953  -30.7282   24.2227 H   0  0  0  0  0  0
  -17.5024  -31.6265   24.5140 H   0  0  0  0  0  0
  -15.5366  -30.2968   23.7668 H   0  0  0  0  0  0
  -15.8673  -28.0799   22.7097 H   0  0  0  0  0  0
  -24.5921  -30.7128   25.7693 H   0  0  0  0  0  0
  -24.8969  -32.2991   26.4671 H   0  0  0  0  0  0
  -25.8021  -30.9022   27.0174 H   0  0  0  0  0  0
  -26.3022  -29.6601   24.1299 H   0  0  0  0  0  0
  -27.3992  -29.7223   25.4910 H   0  0  0  0  0  0
  -27.8978  -30.4082   23.9637 H   0  0  0  0  0  0
  -27.2552  -33.3661   26.1985 H   0  0  0  0  0  0
  -28.3936  -32.6880   25.0399 H   0  0  0  0  0  0
  -28.0614  -31.8515   26.5525 H   0  0  0  0  0  0
  -28.2564  -38.0107   24.7522 H   0  0  0  0  0  0
  -28.1091  -36.2617   24.6245 H   0  0  0  0  0  0
  -27.2272  -37.1386   25.8854 H   0  0  0  0  0  0
  -20.9491  -29.8742   21.6779 H   0  0  0  0  0  0
  -26.0138  -38.2801   24.1451 H   0  0  0  0  0  0
  -29.0051  -21.7166   17.1624 H   0  0  0  0  0  0
  -28.4420  -23.8549   18.1986 H   0  0  0  0  0  0
  -29.4430  -19.6780   18.4372 H   0  0  0  0  0  0
  -30.2080  -21.8014   22.7415 H   0  0  0  0  0  0
  -28.4954  -21.4735   23.0670 H   0  0  0  0  0  0
  -29.0896  -23.1062   22.8561 H   0  0  0  0  0  0
  -27.7161  -19.4676   22.4149 H   0  0  0  0  0  0
  -28.1530  -17.7621   22.3429 H   0  0  0  0  0  0
  -27.2979  -18.5080   21.0047 H   0  0  0  0  0  0
  -30.1190  -19.6879   23.0635 H   0  0  0  0  0  0
  -31.4006  -19.5399   21.8432 H   0  0  0  0  0  0
  -30.6921  -18.1242   22.6026 H   0  0  0  0  0  0
  -28.4325  -24.7825   21.8241 H   0  0  0  0  0  0
  -27.0100  -24.5258   20.9332 H   0  0  0  0  0  0
  -30.8364  -17.7872   19.7831 H   0  0  0  0  0  0
  -29.1855  -17.6263   19.3438 H   0  0  0  0  0  0
  -28.8675  -15.9005   21.1072 H   0  0  0  0  0  0
  1 25  1  0  0  0
  1 30  2  0  0  0
  1 83  1  0  0  0
  2  3  1  0  0  0
  2 25  1  0  0  0
  2 84  1  0  0  0
  2 85  1  0  0  0
  3  4  1  0  0  0
  3 86  1  0  0  0
  3 87  1  0  0  0
  4  5  1  0  0  0
  4 88  1  0  0  0
  4 89  1  0  0  0
  5  6  1  0  0  0
  5 26  1  0  0  0
  5 90  1  0  0  0
  6 25  1  0  0  0
  6 91  1  0  0  0
  6 92  1  0  0  0
  7  8  2  0  0  0
  7 26  1  0  0  0
  7 29  1  0  0  0
  8  9  1  0  0  0
  8 22  1  0  0  0
  9 10  1  0  0  0
  9 27  2  0  0  0
 10 11  2  0  0  0
 10 15  1  0  0  0
 11 12  1  0  0  0
 11 93  1  0  0  0
 12 13  2  0  0  0
 12 94  1  0  0  0
 13 14  1  0  0  0
 13 31  1  0  0  0
 14 15  2  0  0  0
 14 95  1  0  0  0
 15 96  1  0  0  0
 16 17  2  0  0  0
 16 21  1  0  0  0
 16 31  1  0  0  0
 17 18  1  0  0  0
 17 97  1  0  0  0
 18 19  2  0  0  0
 18 98  1  0  0  0
 19 20  1  0  0  0
 19 24  1  0  0  0
 20 21  2  0  0  0
 20 99  1  0  0  0
 21 23  1  0  0  0
 22 28  1  0  0  0
 22 32  2  0  0  0
 26 27  1  0  0  0
 28100  1  0  0  0
 28101  1  0  0  0
 29102  1  0  0  0
 29103  1  0  0  0
 33 34  1  0  0  0
 33 66  1  0  0  0
 33 70  2  0  0  0
 34 36  1  0  0  0
 34 59  1  0  0  0
 34104  1  0  0  0
 35 44  2  0  0  0
 35 45  1  0  0  0
 35 68  1  0  0  0
 36 56  1  0  0  0
 36105  1  0  0  0
 37 39  1  0  0  0
 37 47  1  0  0  0
 37 66  1  0  0  0
 37106  1  0  0  0
 38 43  2  0  0  0
 38 46  1  0  0  0
 38 47  1  0  0  0
 39 64  1  0  0  0
 39 67  2  0  0  0
 40 52  1  0  0  0
 40 53  2  0  0  0
 40 58  1  0  0  0
 41107  1  0  0  0
 41108  1  0  0  0
 41109  1  0  0  0
 41 48  1  0  0  0
 42 43  1  0  0  0
 42 66  1  0  0  0
 42110  1  0  0  0
 42111  1  0  0  0
 43 44  1  0  0  0
 44112  1  0  0  0
 45 46  2  0  0  0
 45113  1  0  0  0
 46114  1  0  0  0
 47115  1  0  0  0
 47116  1  0  0  0
 48 56  1  0  0  0
 48 65  1  0  0  0
 48117  1  0  0  0
 49 50  1  0  0  0
 49 53  1  0  0  0
 49 64  1  0  0  0
 49118  1  0  0  0
 50 51  1  0  0  0
 50119  1  0  0  0
 50120  1  0  0  0
 51 52  1  0  0  0
 51121  1  0  0  0
 51122  1  0  0  0
 52123  1  0  0  0
 52124  1  0  0  0
 53 54  1  0  0  0
 54 55  2  0  0  0
 54125  1  0  0  0
 55 57  1  0  0  0
 55126  1  0  0  0
 56 69  2  0  0  0
 57 58  2  0  0  0
 57127  1  0  0  0
 58128  1  0  0  0
 59 60  1  0  0  0
 59 61  1  0  0  0
 59 62  1  0  0  0
 60129  1  0  0  0
 60130  1  0  0  0
 60131  1  0  0  0
 61132  1  0  0  0
 61133  1  0  0  0
 61134  1  0  0  0
 62135  1  0  0  0
 62136  1  0  0  0
 62137  1  0  0  0
 63 65  1  0  0  0
 63138  1  0  0  0
 63139  1  0  0  0
 63140  1  0  0  0
 64141  1  0  0  0
 65142  1  0  0  0
 68 80  1  0  0  0
 71 72  2  0  0  0
 71 73  1  0  0  0
 71143  1  0  0  0
 72 74  1  0  0  0
 72144  1  0  0  0
 73 75  2  0  0  0
 73145  1  0  0  0
 74 76  2  0  0  0
 74 80  1  0  0  0
 75 76  1  0  0  0
 75 82  1  0  0  0
 76 77  1  0  0  0
 77146  1  0  0  0
 77147  1  0  0  0
 77148  1  0  0  0
 78149  1  0  0  0
 78150  1  0  0  0
 78151  1  0  0  0
 78 82  1  0  0  0
 79 82  1  0  0  0
 79152  1  0  0  0
 79153  1  0  0  0
 79154  1  0  0  0
 80155  1  0  0  0
 80156  1  0  0  0
 81 82  1  0  0  0
 81 83  1  0  0  0
 81157  1  0  0  0
 81158  1  0  0  0
 83159  1  0  0  0
M  ISO  4   1 100  68 101  80 101  83 100
M  END
> <chiral flag>
0

> <version>
0

> <s_m_source_file>
/data/baiqing/PycharmProjects/Reinvent-master-3.2/result/LINK_invent/BTK/process_docking_weight1_custom_sum_contain_oxygen_bond_distance_aromatic_linkinvent_7_9_3/rearranged_h_0098.sdf

> <i_m_source_file_index>
69

> <r_mmod_Potential_Energy-OPLS-2005>
564.774475097656

> <r_mmod_Stretch_Energy-OPLS-2005>
312.808441162109

> <r_mmod_Bend_Energy-OPLS-2005>
272.519470214844

> <r_mmod_Torsional_Energy-OPLS-2005>
260.270843505859

> <r_mmod_Improper_Torsional_Energy-OPLS-2005>
5.83853054046631

> <r_mmod_Van_der_Waal_Energy-OPLS-2005>
128.762069702148

> <r_mmod_Electrostatic_Energy-OPLS-2005>
-419.741027832031

> <r_mmod_Solvation_Energy-OPLS-2005>
-204.067489624023

> <b_mmod_Minimization_Converged-OPLS-2005>
0

> <r_mmod_RMS_Derivative-OPLS-2005>
6.59106159210205

$$$$
72
                    3D
 Structure written by MMmdl.
169177  0  0  1  0            999 V2000
  -30.6839  -14.4439   20.5710 C   0  0  0  0  0  0
  -30.4320  -12.2920   19.4087 C   0  0  0  0  0  0
  -29.4911  -12.5161   18.2044 C   0  0  0  0  0  0
  -28.0120  -12.3740   18.6188 C   0  0  0  0  0  0
  -27.6677  -13.1978   19.8879 C   0  0  2  0  0  0
  -28.7126  -12.9304   20.9986 C   0  0  0  0  0  0
  -25.2588  -13.8148   20.5709 C   0  0  0  0  0  0
  -24.1827  -13.0442   20.9195 C   0  0  0  0  0  0
  -24.6369  -11.6906   20.8737 C   0  0  0  0  0  0
  -23.9045  -10.4292   21.0411 C   0  0  0  0  0  0
  -24.3597   -9.4207   21.9194 C   0  0  0  0  0  0
  -23.6278   -8.2238   22.0766 C   0  0  0  0  0  0
  -22.4263   -8.0270   21.3544 C   0  0  0  0  0  0
  -21.9889   -9.0255   20.4654 C   0  0  0  0  0  0
  -22.7219  -10.2136   20.3067 C   0  0  0  0  0  0
  -21.6843   -6.0730   22.5291 C   0  0  0  0  0  0
  -21.4010   -6.5631   23.8227 C   0  0  0  0  0  0
  -21.3661   -5.6780   24.9181 C   0  0  0  0  0  0
  -21.6050   -4.3048   24.7228 C   0  0  0  0  0  0
  -21.8817   -3.8143   23.4345 C   0  0  0  0  0  0
  -21.9188   -4.6960   22.3400 C   0  0  0  0  0  0
  -22.7837  -13.5240   21.1858 C   0  0  0  0  0  0
  -22.1652   -4.2149   21.0975 F   0  0  0  0  0  0
  -21.5633   -3.4536   25.7742 F   0  0  0  0  0  0
  -30.0486  -13.2482   20.4564 N   0  0  0  0  0  0
  -26.3048  -12.9315   20.3444 N   0  0  0  0  0  0
  -25.9297  -11.6477   20.5803 N   0  0  0  0  0  0
  -22.0451  -12.8254   22.0406 N   0  0  0  0  0  0
  -25.4285  -15.1878   20.4129 N   0  0  0  0  0  0
  -31.7850  -14.6886   20.0704 O   0  0  0  0  0  0
  -21.6628   -6.8867   21.4247 O   0  0  0  0  0  0
  -22.3529  -14.5546   20.6698 O   0  0  0  0  0  0
  -24.6131  -31.8647   23.2127 C   0  0  0  0  0  0
  -25.9011  -32.4804   23.8395 C   0  0  1  0  0  0
  -27.2350  -27.4387   20.0830 C   0  0  0  0  0  0
  -25.5874  -33.8595   24.2325 N   0  0  0  0  0  0
  -23.4061  -30.4899   21.5479 C   0  0  2  0  0  0
  -24.8565  -28.9655   20.1052 C   0  0  0  0  0  0
  -22.7412  -29.4610   22.4926 C   0  0  0  0  0  0
  -18.0255  -28.1352   22.8455 C   0  0  0  0  0  0
  -24.1524  -36.7352   23.2639 C   0  0  0  0  0  0
  -25.9364  -30.8340   21.3666 C   0  0  0  0  0  0
  -26.0151  -29.4694   20.7097 C   0  0  0  0  0  0
  -27.2124  -28.7119   20.6978 C   0  0  0  0  0  0
  -26.0660  -26.9695   19.4455 C   0  0  0  0  0  0
  -24.8736  -27.7158   19.4659 C   0  0  0  0  0  0
  -23.6183  -29.8322   20.1588 C   0  0  0  0  0  0
  -25.4137  -36.3106   24.0341 C   0  0  1  0  0  0
  -20.5854  -28.3628   23.1311 C   0  0  2  0  0  0
  -20.6761  -26.9353   22.5427 C   0  0  0  0  0  0
  -19.5761  -26.6352   21.5203 C   0  0  0  0  0  0
  -18.1908  -26.7898   22.1571 C   0  0  0  0  0  0
  -19.1502  -28.8792   23.2882 C   0  0  0  0  0  0
  -18.9443  -30.1389   23.8897 C   0  0  0  0  0  0
  -17.6452  -30.6558   24.0516 C   0  0  0  0  0  0
  -25.9032  -34.9456   23.5150 C   0  0  0  0  0  0
  -16.5333  -29.9073   23.6303 C   0  0  0  0  0  0
  -16.7240  -28.6494   23.0318 C   0  0  0  0  0  0
  -26.4458  -31.6572   25.0696 C   0  0  0  0  0  0
  -25.3775  -31.3642   26.1493 C   0  0  0  0  0  0
  -27.0260  -30.3021   24.6000 C   0  0  0  0  0  0
  -27.6048  -32.4277   25.7467 C   0  0  0  0  0  0
  -27.5605  -37.1843   24.8457 C   0  0  0  0  0  0
  -21.4129  -29.3030   22.3740 N   0  0  0  0  0  0
  -26.4329  -37.3793   23.9395 N   0  0  0  0  0  0
  -24.6698  -31.0759   22.1017 N   0  0  0  0  0  0
  -23.4195  -28.8066   23.2886 O   0  0  0  0  0  0
  -28.3698  -26.6500   20.1143 O   0  0  0  0  0  0
  -26.5607  -34.8932   22.4716 O   0  0  0  0  0  0
  -23.5338  -32.1361   23.7541 O   0  0  0  0  0  0
  -30.5583  -21.4402   20.5720 C   0  0  0  0  0  0
  -31.1005  -20.1336   20.5586 C   0  0  0  0  0  0
  -29.5172  -21.7440   21.4794 C   0  0  0  0  0  0
  -30.5959  -19.1764   21.4644 C   0  0  0  0  0  0
  -29.1041  -20.7192   22.3598 C   0  0  0  0  0  0
  -26.2070  -21.2198   25.5858 C   0  0  0  0  0  0
  -25.0174  -20.9358   23.3492 C   0  0  0  0  0  0
  -28.7526  -23.0770   21.4862 C   0  0  0  0  0  0
  -31.0040  -17.7012   21.4672 C   0  0  0  0  0  0
  -29.2411  -24.3041   20.6728 C   0  0  0  0  0  0
  -29.9419  -16.8330   20.7543 C   0  0  0  0  0  0
  -27.2676  -19.8161   23.7394 C   0  0  0  0  0  0
  -28.1355  -25.3883   20.7651 C   0  0  0  0  0  0
  -25.9546  -20.2939   24.3833 C   0  0  0  0  0  0
  -29.6426  -19.4890   22.3614 N   0  0  0  0  0  0
  -28.0720  -20.9388   23.2738 N   0  0  0  0  0  0
  -29.9244  -15.4078   21.1048 N   0  0  0  0  0  0
  -31.4728  -12.4122   19.1017 H   0  0  0  0  0  0
  -30.3489  -11.2704   19.7829 H   0  0  0  0  0  0
  -29.7243  -11.8100   17.4072 H   0  0  0  0  0  0
  -29.6584  -13.5114   17.7902 H   0  0  0  0  0  0
  -27.8157  -11.3171   18.8025 H   0  0  0  0  0  0
  -27.3599  -12.6643   17.7934 H   0  0  0  0  0  0
  -27.7230  -14.2509   19.6117 H   0  0  0  0  0  0
  -28.6817  -11.8788   21.2937 H   0  0  0  0  0  0
  -28.4787  -13.4878   21.9067 H   0  0  0  0  0  0
  -25.2734   -9.5681   22.4777 H   0  0  0  0  0  0
  -23.9986   -7.4622   22.7482 H   0  0  0  0  0  0
  -21.0821   -8.8773   19.8949 H   0  0  0  0  0  0
  -22.3681  -10.9676   19.6179 H   0  0  0  0  0  0
  -21.1999   -7.6142   23.9731 H   0  0  0  0  0  0
  -21.1491   -6.0508   25.9087 H   0  0  0  0  0  0
  -22.0595   -2.7608   23.2853 H   0  0  0  0  0  0
  -22.4020  -11.9894   22.4790 H   0  0  0  0  0  0
  -21.1090  -13.1330   22.2629 H   0  0  0  0  0  0
  -24.6601  -15.8401   20.5298 H   0  0  0  0  0  0
  -26.2859  -15.6367   20.1164 H   0  0  0  0  0  0
  -26.7057  -32.5568   23.1148 H   0  0  0  0  0  0
  -25.0006  -33.9762   25.0452 H   0  0  0  0  0  0
  -22.6959  -31.3082   21.4102 H   0  0  0  0  0  0
  -23.3748  -35.9718   23.3308 H   0  0  0  0  0  0
  -24.3591  -36.8975   22.2049 H   0  0  0  0  0  0
  -23.7360  -37.6595   23.6646 H   0  0  0  0  0  0
  -26.0525  -31.6041   20.6011 H   0  0  0  0  0  0
  -26.8249  -30.8911   21.9838 H   0  0  0  0  0  0
  -28.1084  -29.0823   21.1718 H   0  0  0  0  0  0
  -26.0719  -26.0255   18.9213 H   0  0  0  0  0  0
  -23.9908  -27.3345   18.9709 H   0  0  0  0  0  0
  -23.7300  -30.6156   19.4068 H   0  0  0  0  0  0
  -22.7461  -29.2510   19.8551 H   0  0  0  0  0  0
  -25.1327  -36.1979   25.0839 H   0  0  0  0  0  0
  -20.9910  -28.3183   24.1441 H   0  0  0  0  0  0
  -20.5654  -26.2195   23.3597 H   0  0  0  0  0  0
  -21.6633  -26.7399   22.1201 H   0  0  0  0  0  0
  -19.6912  -25.6258   21.1250 H   0  0  0  0  0  0
  -19.6742  -27.3120   20.6696 H   0  0  0  0  0  0
  -17.4194  -26.6608   21.3952 H   0  0  0  0  0  0
  -18.0266  -26.0041   22.8973 H   0  0  0  0  0  0
  -19.7928  -30.7171   24.2289 H   0  0  0  0  0  0
  -17.5023  -31.6250   24.5099 H   0  0  0  0  0  0
  -15.5324  -30.2962   23.7672 H   0  0  0  0  0  0
  -15.8626  -28.0836   22.7027 H   0  0  0  0  0  0
  -24.6006  -30.6884   25.7895 H   0  0  0  0  0  0
  -24.8911  -32.2772   26.4945 H   0  0  0  0  0  0
  -25.8216  -30.8865   27.0231 H   0  0  0  0  0  0
  -26.2732  -29.6787   24.1157 H   0  0  0  0  0  0
  -27.4196  -29.7263   25.4378 H   0  0  0  0  0  0
  -27.8507  -30.4342   23.9002 H   0  0  0  0  0  0
  -27.2650  -33.3584   26.2026 H   0  0  0  0  0  0
  -28.3859  -32.6834   25.0286 H   0  0  0  0  0  0
  -28.0661  -31.8400   26.5420 H   0  0  0  0  0  0
  -28.2610  -38.0147   24.7478 H   0  0  0  0  0  0
  -28.1121  -36.2668   24.6307 H   0  0  0  0  0  0
  -27.2303  -37.1556   25.8857 H   0  0  0  0  0  0
  -20.9216  -29.8980   21.7220 H   0  0  0  0  0  0
  -26.0213  -38.2873   24.1381 H   0  0  0  0  0  0
  -30.9147  -22.1804   19.8721 H   0  0  0  0  0  0
  -31.8673  -19.8659   19.8421 H   0  0  0  0  0  0
  -25.2680  -21.5031   26.0635 H   0  0  0  0  0  0
  -26.7201  -22.1377   25.2991 H   0  0  0  0  0  0
  -26.8275  -20.7259   26.3352 H   0  0  0  0  0  0
  -24.0739  -21.2317   23.8066 H   0  0  0  0  0  0
  -24.7783  -20.2300   22.5513 H   0  0  0  0  0  0
  -25.4562  -21.8246   22.8948 H   0  0  0  0  0  0
  -28.6523  -23.3985   22.5228 H   0  0  0  0  0  0
  -27.7453  -22.8223   21.1480 H   0  0  0  0  0  0
  -31.1143  -17.3745   22.5029 H   0  0  0  0  0  0
  -31.9812  -17.5712   21.0014 H   0  0  0  0  0  0
  -29.4107  -24.0398   19.6280 H   0  0  0  0  0  0
  -30.1867  -24.6748   21.0684 H   0  0  0  0  0  0
  -30.0236  -16.9586   19.6728 H   0  0  0  0  0  0
  -28.9526  -17.2087   21.0218 H   0  0  0  0  0  0
  -27.0464  -19.1524   22.9010 H   0  0  0  0  0  0
  -27.8495  -19.2351   24.4574 H   0  0  0  0  0  0
  -27.9285  -25.6002   21.8168 H   0  0  0  0  0  0
  -27.2281  -24.9190   20.3848 H   0  0  0  0  0  0
  -25.4369  -19.4127   24.7645 H   0  0  0  0  0  0
  -27.6194  -21.8414   23.2551 H   0  0  0  0  0  0
  -29.0631  -15.0772   21.5144 H   0  0  0  0  0  0
  1 25  1  0  0  0
  1 30  2  0  0  0
  1 87  1  0  0  0
  2  3  1  0  0  0
  2 25  1  0  0  0
  2 88  1  0  0  0
  2 89  1  0  0  0
  3  4  1  0  0  0
  3 90  1  0  0  0
  3 91  1  0  0  0
  4  5  1  0  0  0
  4 92  1  0  0  0
  4 93  1  0  0  0
  5  6  1  0  0  0
  5 26  1  0  0  0
  5 94  1  0  0  0
  6 25  1  0  0  0
  6 95  1  0  0  0
  6 96  1  0  0  0
  7  8  2  0  0  0
  7 26  1  0  0  0
  7 29  1  0  0  0
  8  9  1  0  0  0
  8 22  1  0  0  0
  9 10  1  0  0  0
  9 27  2  0  0  0
 10 11  2  0  0  0
 10 15  1  0  0  0
 11 12  1  0  0  0
 11 97  1  0  0  0
 12 13  2  0  0  0
 12 98  1  0  0  0
 13 14  1  0  0  0
 13 31  1  0  0  0
 14 15  2  0  0  0
 14 99  1  0  0  0
 15100  1  0  0  0
 16 17  2  0  0  0
 16 21  1  0  0  0
 16 31  1  0  0  0
 17 18  1  0  0  0
 17101  1  0  0  0
 18 19  2  0  0  0
 18102  1  0  0  0
 19 20  1  0  0  0
 19 24  1  0  0  0
 20 21  2  0  0  0
 20103  1  0  0  0
 21 23  1  0  0  0
 22 28  1  0  0  0
 22 32  2  0  0  0
 26 27  1  0  0  0
 28104  1  0  0  0
 28105  1  0  0  0
 29106  1  0  0  0
 29107  1  0  0  0
 33 34  1  0  0  0
 33 66  1  0  0  0
 33 70  2  0  0  0
 34 36  1  0  0  0
 34 59  1  0  0  0
 34108  1  0  0  0
 35 44  2  0  0  0
 35 45  1  0  0  0
 35 68  1  0  0  0
 36 56  1  0  0  0
 36109  1  0  0  0
 37 39  1  0  0  0
 37 47  1  0  0  0
 37 66  1  0  0  0
 37110  1  0  0  0
 38 43  2  0  0  0
 38 46  1  0  0  0
 38 47  1  0  0  0
 39 64  1  0  0  0
 39 67  2  0  0  0
 40 52  1  0  0  0
 40 53  2  0  0  0
 40 58  1  0  0  0
 41111  1  0  0  0
 41112  1  0  0  0
 41113  1  0  0  0
 41 48  1  0  0  0
 42 43  1  0  0  0
 42 66  1  0  0  0
 42114  1  0  0  0
 42115  1  0  0  0
 43 44  1  0  0  0
 44116  1  0  0  0
 45 46  2  0  0  0
 45117  1  0  0  0
 46118  1  0  0  0
 47119  1  0  0  0
 47120  1  0  0  0
 48 56  1  0  0  0
 48 65  1  0  0  0
 48121  1  0  0  0
 49 50  1  0  0  0
 49 53  1  0  0  0
 49 64  1  0  0  0
 49122  1  0  0  0
 50 51  1  0  0  0
 50123  1  0  0  0
 50124  1  0  0  0
 51 52  1  0  0  0
 51125  1  0  0  0
 51126  1  0  0  0
 52127  1  0  0  0
 52128  1  0  0  0
 53 54  1  0  0  0
 54 55  2  0  0  0
 54129  1  0  0  0
 55 57  1  0  0  0
 55130  1  0  0  0
 56 69  2  0  0  0
 57 58  2  0  0  0
 57131  1  0  0  0
 58132  1  0  0  0
 59 60  1  0  0  0
 59 61  1  0  0  0
 59 62  1  0  0  0
 60133  1  0  0  0
 60134  1  0  0  0
 60135  1  0  0  0
 61136  1  0  0  0
 61137  1  0  0  0
 61138  1  0  0  0
 62139  1  0  0  0
 62140  1  0  0  0
 62141  1  0  0  0
 63 65  1  0  0  0
 63142  1  0  0  0
 63143  1  0  0  0
 63144  1  0  0  0
 64145  1  0  0  0
 65146  1  0  0  0
 68 83  1  0  0  0
 71 72  2  0  0  0
 71 73  1  0  0  0
 71147  1  0  0  0
 72 74  1  0  0  0
 72148  1  0  0  0
 73 75  2  0  0  0
 73 78  1  0  0  0
 74 79  1  0  0  0
 74 85  2  0  0  0
 75 85  1  0  0  0
 75 86  1  0  0  0
 76149  1  0  0  0
 76150  1  0  0  0
 76151  1  0  0  0
 76 84  1  0  0  0
 77 84  1  0  0  0
 77152  1  0  0  0
 77153  1  0  0  0
 77154  1  0  0  0
 78 80  1  0  0  0
 78155  1  0  0  0
 78156  1  0  0  0
 79 81  1  0  0  0
 79157  1  0  0  0
 79158  1  0  0  0
 80 83  1  0  0  0
 80159  1  0  0  0
 80160  1  0  0  0
 81 87  1  0  0  0
 81161  1  0  0  0
 81162  1  0  0  0
 82 84  1  0  0  0
 82 86  1  0  0  0
 82163  1  0  0  0
 82164  1  0  0  0
 83165  1  0  0  0
 83166  1  0  0  0
 84167  1  0  0  0
 86168  1  0  0  0
 87169  1  0  0  0
M  ISO  4   1 100  68 101  83 101  87 100
M  END
> <chiral flag>
0

> <version>
0

> <s_m_source_file>
/data/baiqing/PycharmProjects/Reinvent-master-3.2/result/LINK_invent/BTK/process_docking_weight1_custom_sum_contain_oxygen_bond_distance_aromatic_linkinvent_7_9_3/rearranged_h_0098.sdf

> <i_m_source_file_index>
70

> <r_mmod_Potential_Energy-OPLS-2005>
-268.654541015625

> <r_mmod_Stretch_Energy-OPLS-2005>
36.7249145507812

> <r_mmod_Bend_Energy-OPLS-2005>
117.92896270752

> <r_mmod_Torsional_Energy-OPLS-2005>
228.267166137695

> <r_mmod_Improper_Torsional_Energy-OPLS-2005>
8.17615795135498

> <r_mmod_Van_der_Waal_Energy-OPLS-2005>
164.166687011719

> <r_mmod_Electrostatic_Energy-OPLS-2005>
-614.818725585938

> <r_mmod_Solvation_Energy-OPLS-2005>
-221.489776611328

> <b_mmod_Minimization_Converged-OPLS-2005>
0

> <r_mmod_RMS_Derivative-OPLS-2005>
3.66604232788086

$$$$
73
                    3D
 Structure written by MMmdl.
184192  0  0  1  0            999 V2000
  -30.7560  -14.4542   20.6154 C   0  0  0  0  0  0
  -30.4125  -12.3181   19.4225 C   0  0  0  0  0  0
  -29.4875  -12.5101   18.2059 C   0  0  0  0  0  0
  -28.0120  -12.3676   18.6214 C   0  0  0  0  0  0
  -27.6601  -13.2138   19.8734 C   0  0  2  0  0  0
  -28.7021  -13.0170   20.9975 C   0  0  0  0  0  0
  -25.2550  -13.8168   20.5548 C   0  0  0  0  0  0
  -24.1836  -13.0450   20.9157 C   0  0  0  0  0  0
  -24.6410  -11.6924   20.8773 C   0  0  0  0  0  0
  -23.9079  -10.4299   21.0424 C   0  0  0  0  0  0
  -24.3624   -9.4208   21.9202 C   0  0  0  0  0  0
  -23.6295   -8.2244   22.0762 C   0  0  0  0  0  0
  -22.4283   -8.0280   21.3540 C   0  0  0  0  0  0
  -21.9923   -9.0261   20.4647 C   0  0  0  0  0  0
  -22.7255  -10.2147   20.3064 C   0  0  0  0  0  0
  -21.6850   -6.0739   22.5275 C   0  0  0  0  0  0
  -21.4010   -6.5646   23.8211 C   0  0  0  0  0  0
  -21.3658   -5.6795   24.9173 C   0  0  0  0  0  0
  -21.6043   -4.3056   24.7227 C   0  0  0  0  0  0
  -21.8821   -3.8152   23.4343 C   0  0  0  0  0  0
  -21.9193   -4.6966   22.3393 C   0  0  0  0  0  0
  -22.7860  -13.5238   21.1835 C   0  0  0  0  0  0
  -22.1666   -4.2155   21.0970 F   0  0  0  0  0  0
  -21.5625   -3.4540   25.7741 F   0  0  0  0  0  0
  -30.0339  -13.3115   20.4425 N   0  0  0  0  0  0
  -26.3032  -12.9363   20.3378 N   0  0  0  0  0  0
  -25.9348  -11.6519   20.5831 N   0  0  0  0  0  0
  -22.0509  -12.8226   22.0397 N   0  0  0  0  0  0
  -25.4206  -15.1842   20.3642 N   0  0  0  0  0  0
  -31.8430  -14.6311   20.0601 O   0  0  0  0  0  0
  -21.6636   -6.8887   21.4239 O   0  0  0  0  0  0
  -22.3531  -14.5538   20.6682 O   0  0  0  0  0  0
  -24.6191  -31.8656   23.2106 C   0  0  0  0  0  0
  -25.9064  -32.4797   23.8411 C   0  0  1  0  0  0
  -27.2348  -27.4113   20.0703 C   0  0  0  0  0  0
  -25.5932  -33.8606   24.2341 N   0  0  0  0  0  0
  -23.4063  -30.4898   21.5548 C   0  0  2  0  0  0
  -24.8481  -28.9518   20.1197 C   0  0  0  0  0  0
  -22.7427  -29.4641   22.5024 C   0  0  0  0  0  0
  -18.0272  -28.1344   22.8477 C   0  0  0  0  0  0
  -24.1496  -36.7310   23.2637 C   0  0  0  0  0  0
  -25.9402  -30.8157   21.3728 C   0  0  0  0  0  0
  -26.0141  -29.4516   20.7135 C   0  0  0  0  0  0
  -27.2073  -28.6878   20.6866 C   0  0  0  0  0  0
  -26.0404  -26.9303   19.4817 C   0  0  0  0  0  0
  -24.8566  -27.6907   19.5052 C   0  0  0  0  0  0
  -23.6137  -29.8230   20.1708 C   0  0  0  0  0  0
  -25.4121  -36.3113   24.0334 C   0  0  1  0  0  0
  -20.5861  -28.3637   23.1323 C   0  0  2  0  0  0
  -20.6769  -26.9380   22.5401 C   0  0  0  0  0  0
  -19.5745  -26.6354   21.5196 C   0  0  0  0  0  0
  -18.1918  -26.7901   22.1594 C   0  0  0  0  0  0
  -19.1522  -28.8822   23.2886 C   0  0  0  0  0  0
  -18.9454  -30.1444   23.8861 C   0  0  0  0  0  0
  -17.6445  -30.6554   24.0558 C   0  0  0  0  0  0
  -25.9040  -34.9464   23.5128 C   0  0  0  0  0  0
  -16.5342  -29.9037   23.6351 C   0  0  0  0  0  0
  -16.7267  -28.6468   23.0330 C   0  0  0  0  0  0
  -26.4480  -31.6576   25.0751 C   0  0  0  0  0  0
  -25.3723  -31.3620   26.1480 C   0  0  0  0  0  0
  -27.0366  -30.3040   24.6152 C   0  0  0  0  0  0
  -27.6096  -32.4275   25.7474 C   0  0  0  0  0  0
  -27.5586  -37.1802   24.8463 C   0  0  0  0  0  0
  -21.4155  -29.3015   22.3751 N   0  0  0  0  0  0
  -26.4307  -37.3796   23.9408 N   0  0  0  0  0  0
  -24.6736  -31.0713   22.1040 N   0  0  0  0  0  0
  -23.4175  -28.8181   23.3068 O   0  0  0  0  0  0
  -28.4147  -26.6796   20.0626 O   0  0  0  0  0  0
  -26.5577  -34.8905   22.4674 O   0  0  0  0  0  0
  -23.5371  -32.1435   23.7473 O   0  0  0  0  0  0
  -30.7874  -18.7391   20.7725 C   0  0  0  0  0  0
  -30.5501  -17.9337   21.8565 C   0  0  0  0  0  0
  -29.9042  -18.7654   22.8373 C   0  0  0  0  0  0
  -29.8713  -20.0571   22.3450 C   0  0  0  0  0  0
  -26.2823  -16.0955   23.4621 C   0  0  0  0  0  0
  -30.5974  -18.1782   25.2032 C   0  0  0  0  0  0
  -30.1087  -21.6874   24.3055 C   0  0  0  0  0  0
  -27.8764  -21.4352   23.1076 C   0  0  0  0  0  0
  -29.4733  -23.3099   17.4170 C   0  0  0  0  0  0
  -31.0315  -16.4885   22.0196 C   0  0  0  0  0  0
  -27.2402  -17.2851   23.3404 C   0  0  0  0  0  0
  -28.4839  -17.1175   24.2283 C   0  0  0  0  0  0
  -29.5453  -22.0012   19.6222 C   0  0  0  0  0  0
  -29.7807  -24.6521   19.6197 C   0  0  0  0  0  0
  -30.7472  -21.2080   20.2179 C   0  0  0  0  0  0
  -28.4034  -25.3548   19.4866 C   0  0  0  0  0  0
  -29.4245  -18.3394   24.2215 C   0  0  2  0  0  0
  -29.4052  -21.3549   22.9798 C   0  0  0  0  0  0
  -29.9924  -23.2939   18.8666 C   0  0  2  0  0  0
  -30.4295  -20.0456   21.0688 N   0  0  0  0  0  0
  -30.2379  -15.4012   21.4210 N   0  0  0  0  0  0
  -31.4571  -12.4029   19.1171 H   0  0  0  0  0  0
  -30.3092  -11.3098   19.8289 H   0  0  0  0  0  0
  -29.7289  -11.7817   17.4307 H   0  0  0  0  0  0
  -29.6543  -13.4946   17.7663 H   0  0  0  0  0  0
  -27.8243  -11.3123   18.8227 H   0  0  0  0  0  0
  -27.3590  -12.6381   17.7901 H   0  0  0  0  0  0
  -27.7024  -14.2592   19.5670 H   0  0  0  0  0  0
  -28.6801  -11.9875   21.3587 H   0  0  0  0  0  0
  -28.4566  -13.6350   21.8616 H   0  0  0  0  0  0
  -25.2761   -9.5677   22.4781 H   0  0  0  0  0  0
  -24.0000   -7.4631   22.7480 H   0  0  0  0  0  0
  -21.0858   -8.8776   19.8945 H   0  0  0  0  0  0
  -22.3714  -10.9680   19.6172 H   0  0  0  0  0  0
  -21.2005   -7.6155   23.9718 H   0  0  0  0  0  0
  -21.1477   -6.0526   25.9075 H   0  0  0  0  0  0
  -22.0603   -2.7618   23.2843 H   0  0  0  0  0  0
  -22.4124  -11.9883   22.4762 H   0  0  0  0  0  0
  -21.1126  -13.1244   22.2610 H   0  0  0  0  0  0
  -24.6549  -15.8405   20.4570 H   0  0  0  0  0  0
  -26.2811  -15.6192   20.0555 H   0  0  0  0  0  0
  -26.7112  -32.5474   23.1144 H   0  0  0  0  0  0
  -25.0215  -33.9798   25.0578 H   0  0  0  0  0  0
  -22.7002  -31.3121   21.4159 H   0  0  0  0  0  0
  -23.3761  -35.9636   23.3324 H   0  0  0  0  0  0
  -24.3602  -36.8918   22.2048 H   0  0  0  0  0  0
  -23.7233  -37.6512   23.6644 H   0  0  0  0  0  0
  -26.0661  -31.5823   20.6073 H   0  0  0  0  0  0
  -26.8229  -30.8606   21.9974 H   0  0  0  0  0  0
  -28.1109  -29.0758   21.1371 H   0  0  0  0  0  0
  -25.9951  -25.9711   18.9886 H   0  0  0  0  0  0
  -23.9558  -27.3016   19.0471 H   0  0  0  0  0  0
  -23.7234  -30.5981   19.4119 H   0  0  0  0  0  0
  -22.7341  -29.2470   19.8770 H   0  0  0  0  0  0
  -25.1291  -36.1992   25.0822 H   0  0  0  0  0  0
  -20.9916  -28.3175   24.1457 H   0  0  0  0  0  0
  -20.5696  -26.2235   23.3578 H   0  0  0  0  0  0
  -21.6645  -26.7437   22.1189 H   0  0  0  0  0  0
  -19.6923  -25.6262   21.1242 H   0  0  0  0  0  0
  -19.6683  -27.3167   20.6731 H   0  0  0  0  0  0
  -17.4198  -26.6660   21.3974 H   0  0  0  0  0  0
  -18.0319  -26.0018   22.8968 H   0  0  0  0  0  0
  -19.7930  -30.7297   24.2149 H   0  0  0  0  0  0
  -17.4999  -31.6243   24.5156 H   0  0  0  0  0  0
  -15.5339  -30.2906   23.7725 H   0  0  0  0  0  0
  -15.8668  -28.0818   22.6989 H   0  0  0  0  0  0
  -24.5997  -30.6851   25.7818 H   0  0  0  0  0  0
  -24.8759  -32.2710   26.4883 H   0  0  0  0  0  0
  -25.8087  -30.8861   27.0275 H   0  0  0  0  0  0
  -26.2954  -29.6715   24.1259 H   0  0  0  0  0  0
  -27.4241  -29.7349   25.4614 H   0  0  0  0  0  0
  -27.8726  -30.4424   23.9294 H   0  0  0  0  0  0
  -27.2844  -33.3653   26.1991 H   0  0  0  0  0  0
  -28.3916  -32.6681   25.0255 H   0  0  0  0  0  0
  -28.0733  -31.8395   26.5406 H   0  0  0  0  0  0
  -28.2588  -38.0107   24.7572 H   0  0  0  0  0  0
  -28.1105  -36.2653   24.6257 H   0  0  0  0  0  0
  -27.2327  -37.1442   25.8867 H   0  0  0  0  0  0
  -20.9333  -29.8724   21.6968 H   0  0  0  0  0  0
  -26.0204  -38.2892   24.1372 H   0  0  0  0  0  0
  -31.2809  -18.5090   19.8374 H   0  0  0  0  0  0
  -25.3761  -16.2688   22.8821 H   0  0  0  0  0  0
  -25.9836  -15.9268   24.4969 H   0  0  0  0  0  0
  -26.7442  -15.1805   23.0905 H   0  0  0  0  0  0
  -31.1867  -19.0926   25.2619 H   0  0  0  0  0  0
  -31.2764  -17.3766   24.9227 H   0  0  0  0  0  0
  -30.2359  -17.9623   26.2080 H   0  0  0  0  0  0
  -31.1915  -21.6500   24.1859 H   0  0  0  0  0  0
  -29.8378  -21.0141   25.1152 H   0  0  0  0  0  0
  -29.8525  -22.6945   24.6351 H   0  0  0  0  0  0
  -27.3974  -21.2704   22.1419 H   0  0  0  0  0  0
  -27.5644  -22.4170   23.4645 H   0  0  0  0  0  0
  -27.4794  -20.6965   23.8019 H   0  0  0  0  0  0
  -29.8180  -22.4253   16.8786 H   0  0  0  0  0  0
  -29.8403  -24.1803   16.8718 H   0  0  0  0  0  0
  -28.3838  -23.3192   17.3709 H   0  0  0  0  0  0
  -31.1161  -16.2567   23.0769 H   0  0  0  0  0  0
  -32.0642  -16.4647   21.6663 H   0  0  0  0  0  0
  -26.7157  -18.2012   23.6143 H   0  0  0  0  0  0
  -27.5342  -17.4039   22.2959 H   0  0  0  0  0  0
  -29.0178  -16.2142   23.9393 H   0  0  0  0  0  0
  -28.1547  -16.9487   25.2547 H   0  0  0  0  0  0
  -28.8039  -22.2624   20.3736 H   0  0  0  0  0  0
  -29.0194  -21.3342   18.9357 H   0  0  0  0  0  0
  -30.0153  -24.5219   20.6761 H   0  0  0  0  0  0
  -30.5289  -25.3545   19.2465 H   0  0  0  0  0  0
  -31.3807  -21.8774   20.8022 H   0  0  0  0  0  0
  -31.3814  -20.8636   19.3991 H   0  0  0  0  0  0
  -27.6387  -24.7376   19.9606 H   0  0  0  0  0  0
  -28.1473  -25.4487   18.4304 H   0  0  0  0  0  0
  -28.8167  -19.1512   24.6099 H   0  0  0  0  0  0
  -29.6879  -22.1874   22.3416 H   0  0  0  0  0  0
  -31.0763  -23.2132   18.7589 H   0  0  0  0  0  0
  -29.3261  -15.2287   21.8140 H   0  0  0  0  0  0
  1 25  1  0  0  0
  1 30  2  0  0  0
  1 91  1  0  0  0
  2  3  1  0  0  0
  2 25  1  0  0  0
  2 92  1  0  0  0
  2 93  1  0  0  0
  3  4  1  0  0  0
  3 94  1  0  0  0
  3 95  1  0  0  0
  4  5  1  0  0  0
  4 96  1  0  0  0
  4 97  1  0  0  0
  5  6  1  0  0  0
  5 26  1  0  0  0
  5 98  1  0  0  0
  6 25  1  0  0  0
  6 99  1  0  0  0
  6100  1  0  0  0
  7  8  2  0  0  0
  7 26  1  0  0  0
  7 29  1  0  0  0
  8  9  1  0  0  0
  8 22  1  0  0  0
  9 10  1  0  0  0
  9 27  2  0  0  0
 10 11  2  0  0  0
 10 15  1  0  0  0
 11 12  1  0  0  0
 11101  1  0  0  0
 12 13  2  0  0  0
 12102  1  0  0  0
 13 14  1  0  0  0
 13 31  1  0  0  0
 14 15  2  0  0  0
 14103  1  0  0  0
 15104  1  0  0  0
 16 17  2  0  0  0
 16 21  1  0  0  0
 16 31  1  0  0  0
 17 18  1  0  0  0
 17105  1  0  0  0
 18 19  2  0  0  0
 18106  1  0  0  0
 19 20  1  0  0  0
 19 24  1  0  0  0
 20 21  2  0  0  0
 20107  1  0  0  0
 21 23  1  0  0  0
 22 28  1  0  0  0
 22 32  2  0  0  0
 26 27  1  0  0  0
 28108  1  0  0  0
 28109  1  0  0  0
 29110  1  0  0  0
 29111  1  0  0  0
 33 34  1  0  0  0
 33 66  1  0  0  0
 33 70  2  0  0  0
 34 36  1  0  0  0
 34 59  1  0  0  0
 34112  1  0  0  0
 35 44  2  0  0  0
 35 45  1  0  0  0
 35 68  1  0  0  0
 36 56  1  0  0  0
 36113  1  0  0  0
 37 39  1  0  0  0
 37 47  1  0  0  0
 37 66  1  0  0  0
 37114  1  0  0  0
 38 43  2  0  0  0
 38 46  1  0  0  0
 38 47  1  0  0  0
 39 64  1  0  0  0
 39 67  2  0  0  0
 40 52  1  0  0  0
 40 53  2  0  0  0
 40 58  1  0  0  0
 41115  1  0  0  0
 41116  1  0  0  0
 41117  1  0  0  0
 41 48  1  0  0  0
 42 43  1  0  0  0
 42 66  1  0  0  0
 42118  1  0  0  0
 42119  1  0  0  0
 43 44  1  0  0  0
 44120  1  0  0  0
 45 46  2  0  0  0
 45121  1  0  0  0
 46122  1  0  0  0
 47123  1  0  0  0
 47124  1  0  0  0
 48 56  1  0  0  0
 48 65  1  0  0  0
 48125  1  0  0  0
 49 50  1  0  0  0
 49 53  1  0  0  0
 49 64  1  0  0  0
 49126  1  0  0  0
 50 51  1  0  0  0
 50127  1  0  0  0
 50128  1  0  0  0
 51 52  1  0  0  0
 51129  1  0  0  0
 51130  1  0  0  0
 52131  1  0  0  0
 52132  1  0  0  0
 53 54  1  0  0  0
 54 55  2  0  0  0
 54133  1  0  0  0
 55 57  1  0  0  0
 55134  1  0  0  0
 56 69  2  0  0  0
 57 58  2  0  0  0
 57135  1  0  0  0
 58136  1  0  0  0
 59 60  1  0  0  0
 59 61  1  0  0  0
 59 62  1  0  0  0
 60137  1  0  0  0
 60138  1  0  0  0
 60139  1  0  0  0
 61140  1  0  0  0
 61141  1  0  0  0
 61142  1  0  0  0
 62143  1  0  0  0
 62144  1  0  0  0
 62145  1  0  0  0
 63 65  1  0  0  0
 63146  1  0  0  0
 63147  1  0  0  0
 63148  1  0  0  0
 64149  1  0  0  0
 65150  1  0  0  0
 68 86  1  0  0  0
 71 72  2  0  0  0
 71 90  1  0  0  0
 71151  1  0  0  0
 72 73  1  0  0  0
 72 80  1  0  0  0
 73 74  2  0  0  0
 73 87  1  0  0  0
 74 88  1  0  0  0
 74 90  1  0  0  0
 75 81  1  0  0  0
 75152  1  0  0  0
 75153  1  0  0  0
 75154  1  0  0  0
 76155  1  0  0  0
 76156  1  0  0  0
 76157  1  0  0  0
 76 87  1  0  0  0
 77158  1  0  0  0
 77159  1  0  0  0
 77160  1  0  0  0
 77 88  1  0  0  0
 78 88  1  0  0  0
 78161  1  0  0  0
 78162  1  0  0  0
 78163  1  0  0  0
 79164  1  0  0  0
 79165  1  0  0  0
 79166  1  0  0  0
 79 89  1  0  0  0
 80 91  1  0  0  0
 80167  1  0  0  0
 80168  1  0  0  0
 81 82  1  0  0  0
 81169  1  0  0  0
 81170  1  0  0  0
 82 87  1  0  0  0
 82171  1  0  0  0
 82172  1  0  0  0
 83 85  1  0  0  0
 83 89  1  0  0  0
 83173  1  0  0  0
 83174  1  0  0  0
 84 86  1  0  0  0
 84 89  1  0  0  0
 84175  1  0  0  0
 84176  1  0  0  0
 85 90  1  0  0  0
 85177  1  0  0  0
 85178  1  0  0  0
 86179  1  0  0  0
 86180  1  0  0  0
 87181  1  0  0  0
 88182  1  0  0  0
 89183  1  0  0  0
 91184  1  0  0  0
M  ISO  4   1 100  68 101  86 101  91 100
M  END
> <chiral flag>
0

> <version>
0

> <s_m_source_file>
/data/baiqing/PycharmProjects/Reinvent-master-3.2/result/LINK_invent/BTK/process_docking_weight1_custom_sum_contain_oxygen_bond_distance_aromatic_linkinvent_7_9_3/rearranged_h_0098.sdf

> <i_m_source_file_index>
71

> <r_mmod_Potential_Energy-OPLS-2005>
-83.2379302978516

> <r_mmod_Stretch_Energy-OPLS-2005>
44.7783164978027

> <r_mmod_Bend_Energy-OPLS-2005>
127.010078430176

> <r_mmod_Torsional_Energy-OPLS-2005>
243.325576782227

> <r_mmod_Improper_Torsional_Energy-OPLS-2005>
3.80119228363037

> <r_mmod_Van_der_Waal_Energy-OPLS-2005>
118.871444702148

> <r_mmod_Electrostatic_Energy-OPLS-2005>
-446.694671630859

> <r_mmod_Solvation_Energy-OPLS-2005>
-188.003540039062

> <b_mmod_Minimization_Converged-OPLS-2005>
0

> <r_mmod_RMS_Derivative-OPLS-2005>
2.76024889945984

$$$$
74
                    3D
 Structure written by MMmdl.
162170  0  0  1  0            999 V2000
  -30.5173  -15.0326   20.4383 C   0  0  0  0  0  0
  -30.4440  -12.6553   19.5088 C   0  0  0  0  0  0
  -29.5305  -12.5668   18.2654 C   0  0  0  0  0  0
  -28.0683  -12.3209   18.6826 C   0  0  0  0  0  0
  -27.6230  -13.2601   19.8353 C   0  0  2  0  0  0
  -28.6656  -13.3268   20.9720 C   0  0  0  0  0  0
  -25.2445  -13.8209   20.5716 C   0  0  0  0  0  0
  -24.1784  -13.0418   20.9272 C   0  0  0  0  0  0
  -24.6430  -11.6913   20.8785 C   0  0  0  0  0  0
  -23.9121  -10.4294   21.0426 C   0  0  0  0  0  0
  -24.3655   -9.4213   21.9214 C   0  0  0  0  0  0
  -23.6332   -8.2244   22.0762 C   0  0  0  0  0  0
  -22.4306   -8.0287   21.3557 C   0  0  0  0  0  0
  -21.9958   -9.0251   20.4656 C   0  0  0  0  0  0
  -22.7281  -10.2134   20.3088 C   0  0  0  0  0  0
  -21.6866   -6.0777   22.5312 C   0  0  0  0  0  0
  -21.4010   -6.5670   23.8249 C   0  0  0  0  0  0
  -21.3665   -5.6809   24.9200 C   0  0  0  0  0  0
  -21.6046   -4.3076   24.7250 C   0  0  0  0  0  0
  -21.8812   -3.8186   23.4374 C   0  0  0  0  0  0
  -21.9185   -4.7003   22.3426 C   0  0  0  0  0  0
  -22.7808  -13.5167   21.1904 C   0  0  0  0  0  0
  -22.1641   -4.2202   21.0992 F   0  0  0  0  0  0
  -21.5644   -3.4539   25.7762 F   0  0  0  0  0  0
  -29.9312  -13.7623   20.3662 N   0  0  0  0  0  0
  -26.2872  -12.9472   20.3262 N   0  0  0  0  0  0
  -25.9351  -11.6594   20.5746 N   0  0  0  0  0  0
  -22.0443  -12.8160   22.0452 N   0  0  0  0  0  0
  -25.4056  -15.1949   20.4074 N   0  0  0  0  0  0
  -31.7355  -15.0874   20.2329 O   0  0  0  0  0  0
  -21.6656   -6.8894   21.4261 O   0  0  0  0  0  0
  -22.3502  -14.5470   20.6720 O   0  0  0  0  0  0
  -24.6499  -31.8384   23.1887 C   0  0  0  0  0  0
  -25.9257  -32.4654   23.8276 C   0  0  1  0  0  0
  -27.2176  -27.0995   20.1662 C   0  0  0  0  0  0
  -25.5984  -33.8472   24.2181 N   0  0  0  0  0  0
  -23.4534  -30.4615   21.5332 C   0  0  2  0  0  0
  -24.9028  -28.8824   20.1131 C   0  0  0  0  0  0
  -22.7580  -29.4546   22.4838 C   0  0  0  0  0  0
  -18.0296  -28.1381   22.8463 C   0  0  0  0  0  0
  -24.1488  -36.7232   23.2650 C   0  0  0  0  0  0
  -26.0131  -30.7027   21.3939 C   0  0  0  0  0  0
  -26.0822  -29.3122   20.7339 C   0  0  0  0  0  0
  -27.2430  -28.4429   20.7343 C   0  0  0  0  0  0
  -26.0120  -26.7845   19.4999 C   0  0  0  0  0  0
  -24.8845  -27.6343   19.4758 C   0  0  0  0  0  0
  -23.6820  -29.7914   20.1540 C   0  0  0  0  0  0
  -25.4132  -36.3021   24.0321 C   0  0  1  0  0  0
  -20.5910  -28.3721   23.1204 C   0  0  2  0  0  0
  -20.6778  -26.9420   22.5385 C   0  0  0  0  0  0
  -19.5764  -26.6375   21.5184 C   0  0  0  0  0  0
  -18.1939  -26.7920   22.1596 C   0  0  0  0  0  0
  -19.1550  -28.8873   23.2822 C   0  0  0  0  0  0
  -18.9480  -30.1458   23.8874 C   0  0  0  0  0  0
  -17.6471  -30.6588   24.0561 C   0  0  0  0  0  0
  -25.9080  -34.9394   23.5059 C   0  0  0  0  0  0
  -16.5359  -29.9077   23.6345 C   0  0  0  0  0  0
  -16.7270  -28.6487   23.0374 C   0  0  0  0  0  0
  -26.4555  -31.6550   25.0740 C   0  0  0  0  0  0
  -25.3735  -31.3748   26.1434 C   0  0  0  0  0  0
  -27.0420  -30.2928   24.6391 C   0  0  0  0  0  0
  -27.6075  -32.4337   25.7526 C   0  0  0  0  0  0
  -27.5577  -37.1783   24.8467 C   0  0  0  0  0  0
  -21.4259  -29.3038   22.3573 N   0  0  0  0  0  0
  -26.4282  -37.3747   23.9408 N   0  0  0  0  0  0
  -24.7244  -31.0226   22.0926 N   0  0  0  0  0  0
  -23.4180  -28.8076   23.3022 O   0  0  0  0  0  0
  -28.2631  -26.0917   20.2105 O   0  0  0  0  0  0
  -26.5668  -34.8894   22.4635 O   0  0  0  0  0  0
  -23.5608  -32.1264   23.7107 O   0  0  0  0  0  0
  -28.9316  -21.7288   20.3124 C   0  0  0  0  0  0
  -30.0950  -23.6432   19.4040 C   0  0  0  0  0  0
  -29.6926  -20.7360   19.6110 C   0  0  0  0  0  0
  -28.9979  -23.3015   20.0904 C   0  0  0  0  0  0
  -30.4833  -21.4304   18.5442 C   0  0  0  0  0  0
  -27.3059  -18.5878   19.1024 C   0  0  0  0  0  0
  -32.5170  -19.1708   19.7553 C   0  0  0  0  0  0
  -27.9630  -24.5565   20.4314 C   0  0  0  0  0  0
  -28.7568  -18.5377   18.5783 C   0  0  0  0  0  0
  -31.2739  -18.6076   19.0071 C   0  0  0  0  0  0
  -29.8294  -17.8088   20.7975 C   0  0  0  0  0  0
  -29.8504  -19.0073   19.5883 C   0  0  0  0  0  0
  -30.8990  -22.6933   18.7798 N   0  0  0  0  0  0
  -29.7111  -16.2156   20.5451 N   0  0  0  0  0  0
  -30.7483  -20.9709   17.4321 O   0  0  0  0  0  0
  -31.4736  -12.8358   19.1986 H   0  0  0  0  0  0
  -30.4580  -11.7115   20.0577 H   0  0  0  0  0  0
  -29.8745  -11.7823   17.5914 H   0  0  0  0  0  0
  -29.6017  -13.5046   17.7113 H   0  0  0  0  0  0
  -27.9862  -11.2809   18.9991 H   0  0  0  0  0  0
  -27.4014  -12.4280   17.8254 H   0  0  0  0  0  0
  -27.5667  -14.2551   19.3950 H   0  0  0  0  0  0
  -28.7710  -12.3636   21.4724 H   0  0  0  0  0  0
  -28.3456  -14.0401   21.7315 H   0  0  0  0  0  0
  -25.2790   -9.5698   22.4806 H   0  0  0  0  0  0
  -24.0065   -7.4634   22.7463 H   0  0  0  0  0  0
  -21.0912   -8.8753   19.8943 H   0  0  0  0  0  0
  -22.3735  -10.9676   19.6212 H   0  0  0  0  0  0
  -21.1979   -7.6173   23.9762 H   0  0  0  0  0  0
  -21.1495   -6.0545   25.9101 H   0  0  0  0  0  0
  -22.0582   -2.7651   23.2856 H   0  0  0  0  0  0
  -22.4027  -11.9797   22.4844 H   0  0  0  0  0  0
  -21.1068  -13.1210   22.2624 H   0  0  0  0  0  0
  -24.6201  -15.8302   20.4846 H   0  0  0  0  0  0
  -26.2258  -15.6280   20.0050 H   0  0  0  0  0  0
  -26.7316  -32.5236   23.0994 H   0  0  0  0  0  0
  -25.0123  -33.9540   25.0328 H   0  0  0  0  0  0
  -22.7620  -31.2925   21.3783 H   0  0  0  0  0  0
  -23.3770  -35.9537   23.3286 H   0  0  0  0  0  0
  -24.3570  -36.8887   22.2064 H   0  0  0  0  0  0
  -23.7203  -37.6411   23.6690 H   0  0  0  0  0  0
  -26.1837  -31.4597   20.6271 H   0  0  0  0  0  0
  -26.8783  -30.7420   22.0455 H   0  0  0  0  0  0
  -28.1458  -28.7778   21.2262 H   0  0  0  0  0  0
  -25.9085  -25.8410   18.9886 H   0  0  0  0  0  0
  -23.9902  -27.3065   18.9647 H   0  0  0  0  0  0
  -23.8253  -30.5648   19.3993 H   0  0  0  0  0  0
  -22.7940  -29.2387   19.8410 H   0  0  0  0  0  0
  -25.1323  -36.1853   25.0812 H   0  0  0  0  0  0
  -21.0001  -28.3316   24.1324 H   0  0  0  0  0  0
  -20.5646  -26.2339   23.3604 H   0  0  0  0  0  0
  -21.6650  -26.7405   22.1202 H   0  0  0  0  0  0
  -19.6937  -25.6280   21.1231 H   0  0  0  0  0  0
  -19.6722  -27.3176   20.6704 H   0  0  0  0  0  0
  -17.4210  -26.6655   21.3992 H   0  0  0  0  0  0
  -18.0361  -26.0039   22.8979 H   0  0  0  0  0  0
  -19.7953  -30.7268   24.2245 H   0  0  0  0  0  0
  -17.5030  -31.6268   24.5145 H   0  0  0  0  0  0
  -15.5363  -30.2985   23.7685 H   0  0  0  0  0  0
  -15.8658  -28.0795   22.7149 H   0  0  0  0  0  0
  -24.5906  -30.7106   25.7749 H   0  0  0  0  0  0
  -24.8943  -32.2925   26.4854 H   0  0  0  0  0  0
  -25.8013  -30.8915   27.0227 H   0  0  0  0  0  0
  -26.3043  -29.6629   24.1406 H   0  0  0  0  0  0
  -27.3977  -29.7267   25.5011 H   0  0  0  0  0  0
  -27.8981  -30.4114   23.9749 H   0  0  0  0  0  0
  -27.2673  -33.3692   26.1991 H   0  0  0  0  0  0
  -28.3953  -32.6821   25.0394 H   0  0  0  0  0  0
  -28.0667  -31.8540   26.5543 H   0  0  0  0  0  0
  -28.2599  -38.0079   24.7531 H   0  0  0  0  0  0
  -28.1069  -36.2617   24.6284 H   0  0  0  0  0  0
  -27.2280  -37.1418   25.8863 H   0  0  0  0  0  0
  -20.9494  -29.8739   21.6730 H   0  0  0  0  0  0
  -26.0152  -38.2810   24.1431 H   0  0  0  0  0  0
  -28.2803  -21.3752   21.1003 H   0  0  0  0  0  0
  -30.3328  -24.6616   19.1334 H   0  0  0  0  0  0
  -26.6007  -18.3184   18.3158 H   0  0  0  0  0  0
  -27.0285  -19.5835   19.4550 H   0  0  0  0  0  0
  -27.1404  -17.8876   19.9225 H   0  0  0  0  0  0
  -33.4342  -18.7312   19.3594 H   0  0  0  0  0  0
  -32.5102  -18.9656   20.8252 H   0  0  0  0  0  0
  -32.6328  -20.2448   19.6393 H   0  0  0  0  0  0
  -27.6578  -24.4428   21.4728 H   0  0  0  0  0  0
  -27.0735  -24.3108   19.8557 H   0  0  0  0  0  0
  -28.8056  -19.1465   17.6749 H   0  0  0  0  0  0
  -28.9643  -17.5250   18.2330 H   0  0  0  0  0  0
  -31.3871  -17.5254   18.9870 H   0  0  0  0  0  0
  -31.3781  -18.8129   17.9433 H   0  0  0  0  0  0
  -28.9827  -18.0433   21.4425 H   0  0  0  0  0  0
  -30.6839  -17.9443   21.4620 H   0  0  0  0  0  0
  -31.5642  -23.0629   18.1153 H   0  0  0  0  0  0
  -28.7420  -15.9404   20.5863 H   0  0  0  0  0  0
  1 25  1  0  0  0
  1 30  2  0  0  0
  1 84  1  0  0  0
  2  3  1  0  0  0
  2 25  1  0  0  0
  2 86  1  0  0  0
  2 87  1  0  0  0
  3  4  1  0  0  0
  3 88  1  0  0  0
  3 89  1  0  0  0
  4  5  1  0  0  0
  4 90  1  0  0  0
  4 91  1  0  0  0
  5  6  1  0  0  0
  5 26  1  0  0  0
  5 92  1  0  0  0
  6 25  1  0  0  0
  6 93  1  0  0  0
  6 94  1  0  0  0
  7  8  2  0  0  0
  7 26  1  0  0  0
  7 29  1  0  0  0
  8  9  1  0  0  0
  8 22  1  0  0  0
  9 10  1  0  0  0
  9 27  2  0  0  0
 10 11  2  0  0  0
 10 15  1  0  0  0
 11 12  1  0  0  0
 11 95  1  0  0  0
 12 13  2  0  0  0
 12 96  1  0  0  0
 13 14  1  0  0  0
 13 31  1  0  0  0
 14 15  2  0  0  0
 14 97  1  0  0  0
 15 98  1  0  0  0
 16 17  2  0  0  0
 16 21  1  0  0  0
 16 31  1  0  0  0
 17 18  1  0  0  0
 17 99  1  0  0  0
 18 19  2  0  0  0
 18100  1  0  0  0
 19 20  1  0  0  0
 19 24  1  0  0  0
 20 21  2  0  0  0
 20101  1  0  0  0
 21 23  1  0  0  0
 22 28  1  0  0  0
 22 32  2  0  0  0
 26 27  1  0  0  0
 28102  1  0  0  0
 28103  1  0  0  0
 29104  1  0  0  0
 29105  1  0  0  0
 33 34  1  0  0  0
 33 66  1  0  0  0
 33 70  2  0  0  0
 34 36  1  0  0  0
 34 59  1  0  0  0
 34106  1  0  0  0
 35 44  2  0  0  0
 35 45  1  0  0  0
 35 68  1  0  0  0
 36 56  1  0  0  0
 36107  1  0  0  0
 37 39  1  0  0  0
 37 47  1  0  0  0
 37 66  1  0  0  0
 37108  1  0  0  0
 38 43  2  0  0  0
 38 46  1  0  0  0
 38 47  1  0  0  0
 39 64  1  0  0  0
 39 67  2  0  0  0
 40 52  1  0  0  0
 40 53  2  0  0  0
 40 58  1  0  0  0
 41109  1  0  0  0
 41110  1  0  0  0
 41111  1  0  0  0
 41 48  1  0  0  0
 42 43  1  0  0  0
 42 66  1  0  0  0
 42112  1  0  0  0
 42113  1  0  0  0
 43 44  1  0  0  0
 44114  1  0  0  0
 45 46  2  0  0  0
 45115  1  0  0  0
 46116  1  0  0  0
 47117  1  0  0  0
 47118  1  0  0  0
 48 56  1  0  0  0
 48 65  1  0  0  0
 48119  1  0  0  0
 49 50  1  0  0  0
 49 53  1  0  0  0
 49 64  1  0  0  0
 49120  1  0  0  0
 50 51  1  0  0  0
 50121  1  0  0  0
 50122  1  0  0  0
 51 52  1  0  0  0
 51123  1  0  0  0
 51124  1  0  0  0
 52125  1  0  0  0
 52126  1  0  0  0
 53 54  1  0  0  0
 54 55  2  0  0  0
 54127  1  0  0  0
 55 57  1  0  0  0
 55128  1  0  0  0
 56 69  2  0  0  0
 57 58  2  0  0  0
 57129  1  0  0  0
 58130  1  0  0  0
 59 60  1  0  0  0
 59 61  1  0  0  0
 59 62  1  0  0  0
 60131  1  0  0  0
 60132  1  0  0  0
 60133  1  0  0  0
 61134  1  0  0  0
 61135  1  0  0  0
 61136  1  0  0  0
 62137  1  0  0  0
 62138  1  0  0  0
 62139  1  0  0  0
 63 65  1  0  0  0
 63140  1  0  0  0
 63141  1  0  0  0
 63142  1  0  0  0
 64143  1  0  0  0
 65144  1  0  0  0
 68 78  1  0  0  0
 71 73  2  0  0  0
 71 74  1  0  0  0
 71145  1  0  0  0
 72 74  2  0  0  0
 72 83  1  0  0  0
 72146  1  0  0  0
 73 75  1  0  0  0
 73 82  1  0  0  0
 74 78  1  0  0  0
 75 83  1  0  0  0
 75 85  2  0  0  0
 76 79  1  0  0  0
 76147  1  0  0  0
 76148  1  0  0  0
 76149  1  0  0  0
 77 80  1  0  0  0
 77150  1  0  0  0
 77151  1  0  0  0
 77152  1  0  0  0
 78153  1  0  0  0
 78154  1  0  0  0
 79155  1  0  0  0
 79156  1  0  0  0
 79 82  1  0  0  0
 80 82  1  0  0  0
 80157  1  0  0  0
 80158  1  0  0  0
 81 82  1  0  0  0
 81 84  1  0  0  0
 81159  1  0  0  0
 81160  1  0  0  0
 83161  1  0  0  0
 84162  1  0  0  0
M  ISO  4   1 100  68 101  78 101  84 100
M  END
> <chiral flag>
0

> <version>
0

> <s_m_source_file>
/data/baiqing/PycharmProjects/Reinvent-master-3.2/result/LINK_invent/BTK/process_docking_weight1_custom_sum_contain_oxygen_bond_distance_aromatic_linkinvent_7_9_3/rearranged_h_0098.sdf

> <i_m_source_file_index>
72

> <r_mmod_Potential_Energy-OPLS-2005>
797.880249023438

> <r_mmod_Stretch_Energy-OPLS-2005>
366.575866699219

> <r_mmod_Bend_Energy-OPLS-2005>
365.402893066406

> <r_mmod_Torsional_Energy-OPLS-2005>
272.564453125

> <r_mmod_Improper_Torsional_Energy-OPLS-2005>
7.36433506011963

> <r_mmod_Van_der_Waal_Energy-OPLS-2005>
152.090927124023

> <r_mmod_Electrostatic_Energy-OPLS-2005>
-390.807495117188

> <r_mmod_Solvation_Energy-OPLS-2005>
-219.338043212891

> <b_mmod_Minimization_Converged-OPLS-2005>
0

> <r_mmod_RMS_Derivative-OPLS-2005>
4.78906631469727

$$$$
75
                    3D
 Structure written by MMmdl.
160168  0  0  1  0            999 V2000
  -30.4578  -15.2988   20.3389 C   0  0  0  0  0  0
  -30.4272  -12.8408   19.4989 C   0  0  0  0  0  0
  -29.5189  -12.5729   18.2756 C   0  0  0  0  0  0
  -28.0779  -12.2789   18.7253 C   0  0  0  0  0  0
  -27.6051  -13.2517   19.8337 C   0  0  2  0  0  0
  -28.6507  -13.4856   20.9432 C   0  0  0  0  0  0
  -25.2422  -13.8176   20.5866 C   0  0  0  0  0  0
  -24.1707  -13.0392   20.9212 C   0  0  0  0  0  0
  -24.6340  -11.6882   20.8754 C   0  0  0  0  0  0
  -23.9042  -10.4262   21.0405 C   0  0  0  0  0  0
  -24.3603   -9.4182   21.9182 C   0  0  0  0  0  0
  -23.6279   -8.2217   22.0751 C   0  0  0  0  0  0
  -22.4260   -8.0262   21.3539 C   0  0  0  0  0  0
  -21.9894   -9.0234   20.4640 C   0  0  0  0  0  0
  -22.7221  -10.2110   20.3050 C   0  0  0  0  0  0
  -21.6848   -6.0724   22.5281 C   0  0  0  0  0  0
  -21.4006   -6.5631   23.8212 C   0  0  0  0  0  0
  -21.3657   -5.6787   24.9178 C   0  0  0  0  0  0
  -21.6045   -4.3049   24.7230 C   0  0  0  0  0  0
  -21.8821   -3.8138   23.4351 C   0  0  0  0  0  0
  -21.9191   -4.6953   22.3408 C   0  0  0  0  0  0
  -22.7747  -13.5190   21.1866 C   0  0  0  0  0  0
  -22.1660   -4.2140   21.0987 F   0  0  0  0  0  0
  -21.5633   -3.4534   25.7745 F   0  0  0  0  0  0
  -29.8548  -14.0069   20.2706 N   0  0  0  0  0  0
  -26.2809  -12.9382   20.3394 N   0  0  0  0  0  0
  -25.9281  -11.6517   20.5799 N   0  0  0  0  0  0
  -22.0384  -12.8186   22.0415 N   0  0  0  0  0  0
  -25.4249  -15.1947   20.4607 N   0  0  0  0  0  0
  -31.6909  -15.2282   20.2254 O   0  0  0  0  0  0
  -21.6625   -6.8860   21.4240 O   0  0  0  0  0  0
  -22.3495  -14.5540   20.6756 O   0  0  0  0  0  0
  -24.6631  -31.8221   23.1688 C   0  0  0  0  0  0
  -25.9308  -32.4577   23.8161 C   0  0  1  0  0  0
  -27.2212  -26.9241   20.1835 C   0  0  0  0  0  0
  -25.5971  -33.8393   24.2064 N   0  0  0  0  0  0
  -23.4780  -30.4322   21.5180 C   0  0  2  0  0  0
  -24.9330  -28.8175   20.1090 C   0  0  0  0  0  0
  -22.7666  -29.4428   22.4775 C   0  0  0  0  0  0
  -18.0321  -28.1407   22.8460 C   0  0  0  0  0  0
  -24.1493  -36.7206   23.2649 C   0  0  0  0  0  0
  -26.0465  -30.6263   21.4009 C   0  0  0  0  0  0
  -26.1143  -29.2158   20.7460 C   0  0  0  0  0  0
  -27.2510  -28.2887   20.7609 C   0  0  0  0  0  0
  -26.0137  -26.6800   19.4916 C   0  0  0  0  0  0
  -24.9078  -27.5704   19.4624 C   0  0  0  0  0  0
  -23.7185  -29.7455   20.1443 C   0  0  0  0  0  0
  -25.4133  -36.2960   24.0299 C   0  0  1  0  0  0
  -20.5943  -28.3751   23.1188 C   0  0  2  0  0  0
  -20.6794  -26.9431   22.5404 C   0  0  0  0  0  0
  -19.5771  -26.6375   21.5212 C   0  0  0  0  0  0
  -18.1954  -26.7939   22.1618 C   0  0  0  0  0  0
  -19.1581  -28.8900   23.2811 C   0  0  0  0  0  0
  -18.9494  -30.1489   23.8845 C   0  0  0  0  0  0
  -17.6487  -30.6594   24.0556 C   0  0  0  0  0  0
  -25.9099  -34.9345   23.5007 C   0  0  0  0  0  0
  -16.5377  -29.9081   23.6344 C   0  0  0  0  0  0
  -16.7305  -28.6504   23.0357 C   0  0  0  0  0  0
  -26.4560  -31.6528   25.0695 C   0  0  0  0  0  0
  -25.3684  -31.3779   26.1347 C   0  0  0  0  0  0
  -27.0469  -30.2897   24.6439 C   0  0  0  0  0  0
  -27.6047  -32.4343   25.7497 C   0  0  0  0  0  0
  -27.5569  -37.1757   24.8464 C   0  0  0  0  0  0
  -21.4335  -29.3038   22.3532 N   0  0  0  0  0  0
  -26.4277  -37.3699   23.9408 N   0  0  0  0  0  0
  -24.7503  -30.9876   22.0829 N   0  0  0  0  0  0
  -23.4210  -28.8005   23.3023 O   0  0  0  0  0  0
  -28.2251  -25.8223   20.2867 O   0  0  0  0  0  0
  -26.5715  -34.8883   22.4605 O   0  0  0  0  0  0
  -23.5701  -32.1198   23.6773 O   0  0  0  0  0  0
  -30.0389  -20.2087   22.2091 C   0  0  0  0  0  0
  -30.4138  -17.5647   22.2885 C   0  0  0  0  0  0
  -29.5808  -19.5762   21.0235 C   0  0  0  0  0  0
  -29.8690  -17.9943   21.0425 C   0  0  0  0  0  0
  -28.8803  -20.9092   20.1386 C   0  0  0  0  0  0
  -28.8792  -22.6931   20.5539 C   0  0  0  0  0  0
  -28.1325  -16.8926   18.2285 C   0  0  0  0  0  0
  -29.5849  -16.9875   18.7405 C   0  0  0  0  0  0
  -27.1000  -17.7722   18.9599 C   0  0  0  0  0  0
  -28.0530  -24.2026   19.9897 C   0  0  0  0  0  0
  -30.5937  -19.6347   23.2907 N   0  0  0  0  0  0
  -30.7521  -18.3271   23.3418 N   0  0  0  0  0  0
  -29.7854  -16.6438   20.1641 N   0  0  0  0  0  0
  -25.7162  -17.4211   18.5972 N   0  3  0  0  0  0
  -31.4402  -13.0452   19.1501 H   0  0  0  0  0  0
  -30.5084  -11.9525   20.1269 H   0  0  0  0  0  0
  -29.9065  -11.7412   17.6859 H   0  0  0  0  0  0
  -29.5262  -13.4454   17.6202 H   0  0  0  0  0  0
  -28.0528  -11.2564   19.1047 H   0  0  0  0  0  0
  -27.3979  -12.3039   17.8732 H   0  0  0  0  0  0
  -27.4872  -14.1976   19.3270 H   0  0  0  0  0  0
  -28.8524  -12.5733   21.5061 H   0  0  0  0  0  0
  -28.2873  -14.2231   21.6603 H   0  0  0  0  0  0
  -25.2746   -9.5662   22.4762 H   0  0  0  0  0  0
  -23.9990   -7.4607   22.7471 H   0  0  0  0  0  0
  -21.0826   -8.8751   19.8947 H   0  0  0  0  0  0
  -22.3679  -10.9651   19.6163 H   0  0  0  0  0  0
  -21.1990   -7.6136   23.9715 H   0  0  0  0  0  0
  -21.1479   -6.0516   25.9084 H   0  0  0  0  0  0
  -22.0603   -2.7600   23.2859 H   0  0  0  0  0  0
  -22.3969  -11.9823   22.4783 H   0  0  0  0  0  0
  -21.1014  -13.1235   22.2635 H   0  0  0  0  0  0
  -24.6898  -15.6763   20.9695 H   0  0  0  0  0  0
  -26.3291  -15.4462   20.8411 H   0  0  0  0  0  0
  -26.7376  -32.5116   23.0876 H   0  0  0  0  0  0
  -25.0057  -33.9469   25.0171 H   0  0  0  0  0  0
  -22.7917  -31.2637   21.3454 H   0  0  0  0  0  0
  -23.3767  -35.9525   23.3275 H   0  0  0  0  0  0
  -24.3572  -36.8890   22.2072 H   0  0  0  0  0  0
  -23.7242  -37.6380   23.6732 H   0  0  0  0  0  0
  -26.2270  -31.3668   20.6202 H   0  0  0  0  0  0
  -26.9063  -30.6836   22.0566 H   0  0  0  0  0  0
  -28.1417  -28.5878   21.2955 H   0  0  0  0  0  0
  -25.8899  -25.7280   18.9959 H   0  0  0  0  0  0
  -24.0108  -27.2601   18.9447 H   0  0  0  0  0  0
  -23.8729  -30.5131   19.3850 H   0  0  0  0  0  0
  -22.8284  -29.1987   19.8284 H   0  0  0  0  0  0
  -25.1333  -36.1753   25.0792 H   0  0  0  0  0  0
  -21.0031  -28.3360   24.1311 H   0  0  0  0  0  0
  -20.5668  -26.2372   23.3647 H   0  0  0  0  0  0
  -21.6661  -26.7402   22.1218 H   0  0  0  0  0  0
  -19.6934  -25.6274   21.1275 H   0  0  0  0  0  0
  -19.6715  -27.3157   20.6719 H   0  0  0  0  0  0
  -17.4225  -26.6681   21.4022 H   0  0  0  0  0  0
  -18.0345  -26.0093   22.9026 H   0  0  0  0  0  0
  -19.7971  -30.7316   24.2195 H   0  0  0  0  0  0
  -17.5040  -31.6268   24.5169 H   0  0  0  0  0  0
  -15.5375  -30.2966   23.7698 H   0  0  0  0  0  0
  -15.8706  -28.0808   22.7098 H   0  0  0  0  0  0
  -24.5875  -30.7123   25.7650 H   0  0  0  0  0  0
  -24.8867  -32.2984   26.4655 H   0  0  0  0  0  0
  -25.7910  -30.9018   27.0203 H   0  0  0  0  0  0
  -26.3147  -29.6553   24.1432 H   0  0  0  0  0  0
  -27.3988  -29.7276   25.5100 H   0  0  0  0  0  0
  -27.9086  -30.4078   23.9865 H   0  0  0  0  0  0
  -27.2610  -33.3683   26.1952 H   0  0  0  0  0  0
  -28.3920  -32.6841   25.0372 H   0  0  0  0  0  0
  -28.0649  -31.8557   26.5515 H   0  0  0  0  0  0
  -28.2562  -38.0075   24.7515 H   0  0  0  0  0  0
  -28.1090  -36.2603   24.6285 H   0  0  0  0  0  0
  -27.2289  -37.1388   25.8867 H   0  0  0  0  0  0
  -20.9589  -29.8732   21.6664 H   0  0  0  0  0  0
  -26.0125  -38.2757   24.1413 H   0  0  0  0  0  0
  -29.9593  -21.2716   22.3440 H   0  0  0  0  0  0
  -30.6164  -16.5297   22.5080 H   0  0  0  0  0  0
  -27.8280  -20.6425   20.0484 H   0  0  0  0  0  0
  -29.2717  -20.8216   19.1250 H   0  0  0  0  0  0
  -29.9356  -22.9606   20.5405 H   0  0  0  0  0  0
  -28.6104  -22.7121   21.6087 H   0  0  0  0  0  0
  -27.8173  -15.8583   18.2237 H   0  0  0  0  0  0
  -28.1302  -17.1742   17.1749 H   0  0  0  0  0  0
  -29.9517  -18.0000   18.5614 H   0  0  0  0  0  0
  -30.2111  -16.3618   18.0993 H   0  0  0  0  0  0
  -27.2762  -18.8189   18.7144 H   0  0  0  0  0  0
  -27.1978  -17.6769   20.0416 H   0  0  0  0  0  0
  -26.9981  -24.0151   20.1916 H   0  0  0  0  0  0
  -28.1225  -24.1551   18.9023 H   0  0  0  0  0  0
  -25.5890  -17.4001   17.6014 H   0  0  0  0  0  0
  -25.0786  -18.0946   18.9838 H   0  0  0  0  0  0
  -25.4773  -16.5166   18.9898 H   0  0  0  0  0  0
  1 25  1  0  0  0
  1 30  2  0  0  0
  1 83  1  0  0  0
  2  3  1  0  0  0
  2 25  1  0  0  0
  2 85  1  0  0  0
  2 86  1  0  0  0
  3  4  1  0  0  0
  3 87  1  0  0  0
  3 88  1  0  0  0
  4  5  1  0  0  0
  4 89  1  0  0  0
  4 90  1  0  0  0
  5  6  1  0  0  0
  5 26  1  0  0  0
  5 91  1  0  0  0
  6 25  1  0  0  0
  6 92  1  0  0  0
  6 93  1  0  0  0
  7  8  2  0  0  0
  7 26  1  0  0  0
  7 29  1  0  0  0
  8  9  1  0  0  0
  8 22  1  0  0  0
  9 10  1  0  0  0
  9 27  2  0  0  0
 10 11  2  0  0  0
 10 15  1  0  0  0
 11 12  1  0  0  0
 11 94  1  0  0  0
 12 13  2  0  0  0
 12 95  1  0  0  0
 13 14  1  0  0  0
 13 31  1  0  0  0
 14 15  2  0  0  0
 14 96  1  0  0  0
 15 97  1  0  0  0
 16 17  2  0  0  0
 16 21  1  0  0  0
 16 31  1  0  0  0
 17 18  1  0  0  0
 17 98  1  0  0  0
 18 19  2  0  0  0
 18 99  1  0  0  0
 19 20  1  0  0  0
 19 24  1  0  0  0
 20 21  2  0  0  0
 20100  1  0  0  0
 21 23  1  0  0  0
 22 28  1  0  0  0
 22 32  2  0  0  0
 26 27  1  0  0  0
 28101  1  0  0  0
 28102  1  0  0  0
 29103  1  0  0  0
 29104  1  0  0  0
 33 34  1  0  0  0
 33 66  1  0  0  0
 33 70  2  0  0  0
 34 36  1  0  0  0
 34 59  1  0  0  0
 34105  1  0  0  0
 35 44  2  0  0  0
 35 45  1  0  0  0
 35 68  1  0  0  0
 36 56  1  0  0  0
 36106  1  0  0  0
 37 39  1  0  0  0
 37 47  1  0  0  0
 37 66  1  0  0  0
 37107  1  0  0  0
 38 43  2  0  0  0
 38 46  1  0  0  0
 38 47  1  0  0  0
 39 64  1  0  0  0
 39 67  2  0  0  0
 40 52  1  0  0  0
 40 53  2  0  0  0
 40 58  1  0  0  0
 41108  1  0  0  0
 41109  1  0  0  0
 41110  1  0  0  0
 41 48  1  0  0  0
 42 43  1  0  0  0
 42 66  1  0  0  0
 42111  1  0  0  0
 42112  1  0  0  0
 43 44  1  0  0  0
 44113  1  0  0  0
 45 46  2  0  0  0
 45114  1  0  0  0
 46115  1  0  0  0
 47116  1  0  0  0
 47117  1  0  0  0
 48 56  1  0  0  0
 48 65  1  0  0  0
 48118  1  0  0  0
 49 50  1  0  0  0
 49 53  1  0  0  0
 49 64  1  0  0  0
 49119  1  0  0  0
 50 51  1  0  0  0
 50120  1  0  0  0
 50121  1  0  0  0
 51 52  1  0  0  0
 51122  1  0  0  0
 51123  1  0  0  0
 52124  1  0  0  0
 52125  1  0  0  0
 53 54  1  0  0  0
 54 55  2  0  0  0
 54126  1  0  0  0
 55 57  1  0  0  0
 55127  1  0  0  0
 56 69  2  0  0  0
 57 58  2  0  0  0
 57128  1  0  0  0
 58129  1  0  0  0
 59 60  1  0  0  0
 59 61  1  0  0  0
 59 62  1  0  0  0
 60130  1  0  0  0
 60131  1  0  0  0
 60132  1  0  0  0
 61133  1  0  0  0
 61134  1  0  0  0
 61135  1  0  0  0
 62136  1  0  0  0
 62137  1  0  0  0
 62138  1  0  0  0
 63 65  1  0  0  0
 63139  1  0  0  0
 63140  1  0  0  0
 63141  1  0  0  0
 64142  1  0  0  0
 65143  1  0  0  0
 68 80  1  0  0  0
 71 73  2  0  0  0
 71 81  1  0  0  0
 71144  1  0  0  0
 72 74  2  0  0  0
 72 82  1  0  0  0
 72145  1  0  0  0
 73 74  1  0  0  0
 73 75  1  0  0  0
 74 83  1  0  0  0
 75 76  1  0  0  0
 75146  1  0  0  0
 75147  1  0  0  0
 76 80  1  0  0  0
 76148  1  0  0  0
 76149  1  0  0  0
 77 78  1  0  0  0
 77 79  1  0  0  0
 77150  1  0  0  0
 77151  1  0  0  0
 78 83  1  0  0  0
 78152  1  0  0  0
 78153  1  0  0  0
 79 84  1  0  0  0
 79154  1  0  0  0
 79155  1  0  0  0
 80156  1  0  0  0
 80157  1  0  0  0
 81 82  2  0  0  0
 84158  1  0  0  0
 84159  1  0  0  0
 84160  1  0  0  0
M  CHG  1  84   1
M  ISO  4   1 100  68 101  80 101  83 100
M  END
> <chiral flag>
0

> <version>
0

> <s_m_source_file>
/data/baiqing/PycharmProjects/Reinvent-master-3.2/result/LINK_invent/BTK/process_docking_weight1_custom_sum_contain_oxygen_bond_distance_aromatic_linkinvent_7_9_3/rearranged_h_0098.sdf

> <i_m_source_file_index>
73

> <r_mmod_Potential_Energy-OPLS-2005>
1456.01892089844

> <r_mmod_Stretch_Energy-OPLS-2005>
680.343933105469

> <r_mmod_Bend_Energy-OPLS-2005>
540.931274414062

> <r_mmod_Torsional_Energy-OPLS-2005>
307.421936035156

> <r_mmod_Improper_Torsional_Energy-OPLS-2005>
18.7641544342041

> <r_mmod_Van_der_Waal_Energy-OPLS-2005>
141.953491210938

> <r_mmod_Electrostatic_Energy-OPLS-2005>
-198.933151245117

> <r_mmod_Solvation_Energy-OPLS-2005>
-516.838134765625

> <b_mmod_Minimization_Converged-OPLS-2005>
0

> <r_mmod_RMS_Derivative-OPLS-2005>
0.810975968837738

$$$$
76
                    3D
 Structure written by MMmdl.
169177  0  0  1  0            999 V2000
  -30.6157  -14.6136   20.5594 C   0  0  0  0  0  0
  -30.4593  -12.3966   19.4198 C   0  0  0  0  0  0
  -29.5033  -12.5140   18.2107 C   0  0  0  0  0  0
  -28.0306  -12.3652   18.6353 C   0  0  0  0  0  0
  -27.6736  -13.2143   19.8886 C   0  0  2  0  0  0
  -28.7294  -13.0016   21.0000 C   0  0  0  0  0  0
  -25.2642  -13.8123   20.5795 C   0  0  0  0  0  0
  -24.1889  -13.0415   20.9169 C   0  0  0  0  0  0
  -24.6424  -11.6893   20.8763 C   0  0  0  0  0  0
  -23.9093  -10.4273   21.0432 C   0  0  0  0  0  0
  -24.3630   -9.4190   21.9208 C   0  0  0  0  0  0
  -23.6272   -8.2246   22.0799 C   0  0  0  0  0  0
  -22.4249   -8.0274   21.3590 C   0  0  0  0  0  0
  -21.9924   -9.0271   20.4705 C   0  0  0  0  0  0
  -22.7269  -10.2117   20.3089 C   0  0  0  0  0  0
  -21.6857   -6.0706   22.5275 C   0  0  0  0  0  0
  -21.4001   -6.5640   23.8189 C   0  0  0  0  0  0
  -21.3658   -5.6815   24.9176 C   0  0  0  0  0  0
  -21.6032   -4.3067   24.7241 C   0  0  0  0  0  0
  -21.8835   -3.8139   23.4370 C   0  0  0  0  0  0
  -21.9176   -4.6934   22.3407 C   0  0  0  0  0  0
  -22.7894  -13.5230   21.1788 C   0  0  0  0  0  0
  -22.1668   -4.2153   21.0979 F   0  0  0  0  0  0
  -21.5616   -3.4536   25.7743 F   0  0  0  0  0  0
  -30.0353  -13.3786   20.4429 N   0  0  0  0  0  0
  -26.3119  -12.9347   20.3496 N   0  0  0  0  0  0
  -25.9381  -11.6498   20.5863 N   0  0  0  0  0  0
  -22.0486  -12.8313   22.0342 N   0  0  0  0  0  0
  -25.4379  -15.1837   20.4309 N   0  0  0  0  0  0
  -31.7339  -14.8531   20.0845 O   0  0  0  0  0  0
  -21.6624   -6.8864   21.4261 O   0  0  0  0  0  0
  -22.3667  -14.5549   20.6572 O   0  0  0  0  0  0
  -24.6166  -31.8637   23.1994 C   0  0  0  0  0  0
  -25.9055  -32.4799   23.8279 C   0  0  1  0  0  0
  -27.2175  -27.3288   20.1328 C   0  0  0  0  0  0
  -25.5922  -33.8606   24.2254 N   0  0  0  0  0  0
  -23.4056  -30.4908   21.5443 C   0  0  2  0  0  0
  -24.8506  -28.9401   20.1115 C   0  0  0  0  0  0
  -22.7399  -29.4635   22.4970 C   0  0  0  0  0  0
  -18.0234  -28.1235   22.8456 C   0  0  0  0  0  0
  -24.1490  -36.7290   23.2641 C   0  0  0  0  0  0
  -25.9439  -30.8019   21.3613 C   0  0  0  0  0  0
  -26.0174  -29.4273   20.7117 C   0  0  0  0  0  0
  -27.1989  -28.6329   20.7121 C   0  0  0  0  0  0
  -26.0206  -26.8828   19.5209 C   0  0  0  0  0  0
  -24.8527  -27.6728   19.5134 C   0  0  0  0  0  0
  -23.6195  -29.8207   20.1586 C   0  0  0  0  0  0
  -25.4122  -36.3076   24.0319 C   0  0  1  0  0  0
  -20.5829  -28.3577   23.1240 C   0  0  2  0  0  0
  -20.6720  -26.9284   22.5406 C   0  0  0  0  0  0
  -19.5694  -26.6219   21.5182 C   0  0  0  0  0  0
  -18.1839  -26.7795   22.1574 C   0  0  0  0  0  0
  -19.1474  -28.8714   23.2816 C   0  0  0  0  0  0
  -18.9326  -30.1351   23.8800 C   0  0  0  0  0  0
  -17.6288  -30.6440   24.0508 C   0  0  0  0  0  0
  -25.9074  -34.9469   23.5097 C   0  0  0  0  0  0
  -16.5210  -29.8919   23.6224 C   0  0  0  0  0  0
  -16.7234  -28.6354   23.0308 C   0  0  0  0  0  0
  -26.4430  -31.6605   25.0642 C   0  0  0  0  0  0
  -25.3640  -31.3784   26.1363 C   0  0  0  0  0  0
  -27.0290  -30.3040   24.6091 C   0  0  0  0  0  0
  -27.5979  -32.4320   25.7436 C   0  0  0  0  0  0
  -27.5571  -37.1810   24.8466 C   0  0  0  0  0  0
  -21.4121  -29.2912   22.3651 N   0  0  0  0  0  0
  -26.4294  -37.3783   23.9402 N   0  0  0  0  0  0
  -24.6742  -31.0709   22.0909 N   0  0  0  0  0  0
  -23.4156  -28.8330   23.3168 O   0  0  0  0  0  0
  -28.3660  -26.5344   20.2280 O   0  0  0  0  0  0
  -26.5642  -34.8953   22.4665 O   0  0  0  0  0  0
  -23.5365  -32.1441   23.7386 O   0  0  0  0  0  0
  -28.5426  -20.4422   20.7688 C   0  0  0  0  0  0
  -28.1300  -19.2021   20.2826 C   0  0  0  0  0  0
  -26.8814  -19.4820   19.6377 C   0  0  0  0  0  0
  -26.5775  -20.8170   19.7296 C   0  0  0  0  0  0
  -25.9804  -18.4539   18.9978 C   0  0  0  0  0  0
  -25.4636  -22.5264   18.1213 C   0  0  0  0  0  0
  -24.3408  -21.9149   20.3689 C   0  0  0  0  0  0
  -29.2544  -24.3648   22.0375 C   0  0  0  0  0  0
  -28.6548  -17.7138   20.2881 C   0  0  0  0  0  0
  -27.5383  -22.8939   20.8773 C   0  0  0  0  0  0
  -29.8809  -17.1046   21.0607 C   0  0  0  0  0  0
  -28.4454  -25.1584   19.7025 C   0  0  0  0  0  0
  -25.2942  -21.4749   19.2339 C   0  0  0  0  0  0
  -28.7242  -23.9096   20.6649 C   0  0  2  0  0  0
  -27.6055  -21.4524   20.4366 N   0  0  0  0  0  0
  -29.8128  -15.5918   21.0784 N   0  0  0  0  0  0
  -31.4866  -12.5707   19.0869 H   0  0  0  0  0  0
  -30.4411  -11.3781   19.8208 H   0  0  0  0  0  0
  -29.7469  -11.7621   17.4560 H   0  0  0  0  0  0
  -29.6533  -13.4821   17.7289 H   0  0  0  0  0  0
  -27.8583  -11.3096   18.8388 H   0  0  0  0  0  0
  -27.3686  -12.6255   17.8096 H   0  0  0  0  0  0
  -27.7088  -14.2632   19.5916 H   0  0  0  0  0  0
  -28.7572  -11.9517   21.3023 H   0  0  0  0  0  0
  -28.4867  -13.5588   21.9072 H   0  0  0  0  0  0
  -25.2752   -9.5641   22.4813 H   0  0  0  0  0  0
  -23.9933   -7.4676   22.7546 H   0  0  0  0  0  0
  -21.0841   -8.8817   19.9052 H   0  0  0  0  0  0
  -22.3732  -10.9676   19.6203 H   0  0  0  0  0  0
  -21.2016   -7.6147   23.9723 H   0  0  0  0  0  0
  -21.1463   -6.0516   25.9081 H   0  0  0  0  0  0
  -22.0608   -2.7607   23.2857 H   0  0  0  0  0  0
  -22.4019  -11.9956   22.4749 H   0  0  0  0  0  0
  -21.1126  -13.1550   22.2483 H   0  0  0  0  0  0
  -24.6811  -15.8349   20.6039 H   0  0  0  0  0  0
  -26.3013  -15.6379   20.1716 H   0  0  0  0  0  0
  -26.7110  -32.5483   23.1033 H   0  0  0  0  0  0
  -24.9950  -33.9766   25.0312 H   0  0  0  0  0  0
  -22.6931  -31.3088   21.3980 H   0  0  0  0  0  0
  -23.3755  -35.9622   23.3307 H   0  0  0  0  0  0
  -24.3553  -36.8919   22.2046 H   0  0  0  0  0  0
  -23.7277  -37.6516   23.6661 H   0  0  0  0  0  0
  -26.0609  -31.5656   20.5884 H   0  0  0  0  0  0
  -26.8276  -30.8648   21.9850 H   0  0  0  0  0  0
  -28.0940  -29.0025   21.1881 H   0  0  0  0  0  0
  -25.9266  -25.9126   19.0628 H   0  0  0  0  0  0
  -23.9452  -27.2902   19.0621 H   0  0  0  0  0  0
  -23.7321  -30.5974   19.3993 H   0  0  0  0  0  0
  -22.7348  -29.2514   19.8575 H   0  0  0  0  0  0
  -25.1313  -36.1899   25.0808 H   0  0  0  0  0  0
  -20.9932  -28.3216   24.1348 H   0  0  0  0  0  0
  -20.5505  -26.2194   23.3610 H   0  0  0  0  0  0
  -21.6628  -26.7246   22.1368 H   0  0  0  0  0  0
  -19.6578  -27.3067   20.6782 H   0  0  0  0  0  0
  -19.6806  -25.6188   21.1135 H   0  0  0  0  0  0
  -17.4058  -26.6517   21.3974 H   0  0  0  0  0  0
  -18.0280  -25.9950   22.8965 H   0  0  0  0  0  0
  -19.7838  -30.7184   24.2004 H   0  0  0  0  0  0
  -17.4777  -31.6161   24.4999 H   0  0  0  0  0  0
  -15.5114  -30.2717   23.7382 H   0  0  0  0  0  0
  -15.8715  -28.0666   22.6852 H   0  0  0  0  0  0
  -24.5805  -30.7165   25.7679 H   0  0  0  0  0  0
  -24.8832  -32.2976   26.4697 H   0  0  0  0  0  0
  -25.7919  -30.8995   27.0174 H   0  0  0  0  0  0
  -26.2888  -29.6811   24.1071 H   0  0  0  0  0  0
  -27.3974  -29.7283   25.4586 H   0  0  0  0  0  0
  -27.8722  -30.4348   23.9319 H   0  0  0  0  0  0
  -27.2574  -33.3607   26.2017 H   0  0  0  0  0  0
  -28.3782  -32.6922   25.0277 H   0  0  0  0  0  0
  -28.0628  -31.8424   26.5349 H   0  0  0  0  0  0
  -28.2605  -38.0084   24.7480 H   0  0  0  0  0  0
  -28.1052  -36.2626   24.6323 H   0  0  0  0  0  0
  -27.2271  -37.1492   25.8866 H   0  0  0  0  0  0
  -20.9289  -29.8344   21.6633 H   0  0  0  0  0  0
  -26.0158  -38.2857   24.1427 H   0  0  0  0  0  0
  -29.4197  -20.7075   21.3426 H   0  0  0  0  0  0
  -26.4470  -17.4753   18.9237 H   0  0  0  0  0  0
  -25.7028  -18.7484   17.9852 H   0  0  0  0  0  0
  -25.0811  -18.3465   19.6108 H   0  0  0  0  0  0
  -26.2081  -22.2030   17.3932 H   0  0  0  0  0  0
  -25.7492  -23.5100   18.4832 H   0  0  0  0  0  0
  -24.5264  -22.6501   17.5721 H   0  0  0  0  0  0
  -24.0279  -21.0515   20.9559 H   0  0  0  0  0  0
  -23.4398  -22.3788   19.9699 H   0  0  0  0  0  0
  -24.7962  -22.6155   21.0676 H   0  0  0  0  0  0
  -29.5144  -23.5136   22.6675 H   0  0  0  0  0  0
  -28.4966  -24.9457   22.5714 H   0  0  0  0  0  0
  -30.1478  -24.9887   21.9467 H   0  0  0  0  0  0
  -28.7987  -17.4326   19.2414 H   0  0  0  0  0  0
  -27.7923  -17.1434   20.6303 H   0  0  0  0  0  0
  -26.6893  -23.3470   20.3896 H   0  0  0  0  0  0
  -27.2565  -22.8933   21.9263 H   0  0  0  0  0  0
  -29.8592  -17.4554   22.0960 H   0  0  0  0  0  0
  -30.8197  -17.4568   20.6331 H   0  0  0  0  0  0
  -27.6818  -24.9014   18.9760 H   0  0  0  0  0  0
  -29.3348  -25.2167   19.0791 H   0  0  0  0  0  0
  -24.7145  -20.7078   18.7263 H   0  0  0  0  0  0
  -29.5242  -23.3285   20.2004 H   0  0  0  0  0  0
  -28.9681  -15.2124   21.4792 H   0  0  0  0  0  0
  1 25  1  0  0  0
  1 30  2  0  0  0
  1 86  1  0  0  0
  2  3  1  0  0  0
  2 25  1  0  0  0
  2 87  1  0  0  0
  2 88  1  0  0  0
  3  4  1  0  0  0
  3 89  1  0  0  0
  3 90  1  0  0  0
  4  5  1  0  0  0
  4 91  1  0  0  0
  4 92  1  0  0  0
  5  6  1  0  0  0
  5 26  1  0  0  0
  5 93  1  0  0  0
  6 25  1  0  0  0
  6 94  1  0  0  0
  6 95  1  0  0  0
  7  8  2  0  0  0
  7 26  1  0  0  0
  7 29  1  0  0  0
  8  9  1  0  0  0
  8 22  1  0  0  0
  9 10  1  0  0  0
  9 27  2  0  0  0
 10 11  2  0  0  0
 10 15  1  0  0  0
 11 12  1  0  0  0
 11 96  1  0  0  0
 12 13  2  0  0  0
 12 97  1  0  0  0
 13 14  1  0  0  0
 13 31  1  0  0  0
 14 15  2  0  0  0
 14 98  1  0  0  0
 15 99  1  0  0  0
 16 17  2  0  0  0
 16 21  1  0  0  0
 16 31  1  0  0  0
 17 18  1  0  0  0
 17100  1  0  0  0
 18 19  2  0  0  0
 18101  1  0  0  0
 19 20  1  0  0  0
 19 24  1  0  0  0
 20 21  2  0  0  0
 20102  1  0  0  0
 21 23  1  0  0  0
 22 28  1  0  0  0
 22 32  2  0  0  0
 26 27  1  0  0  0
 28103  1  0  0  0
 28104  1  0  0  0
 29105  1  0  0  0
 29106  1  0  0  0
 33 34  1  0  0  0
 33 66  1  0  0  0
 33 70  2  0  0  0
 34 36  1  0  0  0
 34 59  1  0  0  0
 34107  1  0  0  0
 35 44  2  0  0  0
 35 45  1  0  0  0
 35 68  1  0  0  0
 36 56  1  0  0  0
 36108  1  0  0  0
 37 39  1  0  0  0
 37 47  1  0  0  0
 37 66  1  0  0  0
 37109  1  0  0  0
 38 43  2  0  0  0
 38 46  1  0  0  0
 38 47  1  0  0  0
 39 64  1  0  0  0
 39 67  2  0  0  0
 40 52  1  0  0  0
 40 53  2  0  0  0
 40 58  1  0  0  0
 41110  1  0  0  0
 41111  1  0  0  0
 41112  1  0  0  0
 41 48  1  0  0  0
 42 43  1  0  0  0
 42 66  1  0  0  0
 42113  1  0  0  0
 42114  1  0  0  0
 43 44  1  0  0  0
 44115  1  0  0  0
 45 46  2  0  0  0
 45116  1  0  0  0
 46117  1  0  0  0
 47118  1  0  0  0
 47119  1  0  0  0
 48 56  1  0  0  0
 48 65  1  0  0  0
 48120  1  0  0  0
 49 50  1  0  0  0
 49 53  1  0  0  0
 49 64  1  0  0  0
 49121  1  0  0  0
 50 51  1  0  0  0
 50122  1  0  0  0
 50123  1  0  0  0
 51 52  1  0  0  0
 51124  1  0  0  0
 51125  1  0  0  0
 52126  1  0  0  0
 52127  1  0  0  0
 53 54  1  0  0  0
 54 55  2  0  0  0
 54128  1  0  0  0
 55 57  1  0  0  0
 55129  1  0  0  0
 56 69  2  0  0  0
 57 58  2  0  0  0
 57130  1  0  0  0
 58131  1  0  0  0
 59 60  1  0  0  0
 59 61  1  0  0  0
 59 62  1  0  0  0
 60132  1  0  0  0
 60133  1  0  0  0
 60134  1  0  0  0
 61135  1  0  0  0
 61136  1  0  0  0
 61137  1  0  0  0
 62138  1  0  0  0
 62139  1  0  0  0
 62140  1  0  0  0
 63 65  1  0  0  0
 63141  1  0  0  0
 63142  1  0  0  0
 63143  1  0  0  0
 64144  1  0  0  0
 65145  1  0  0  0
 68 82  1  0  0  0
 71 72  2  0  0  0
 71 85  1  0  0  0
 71146  1  0  0  0
 72 73  1  0  0  0
 72 79  1  0  0  0
 73 74  2  0  0  0
 73 75  1  0  0  0
 74 83  1  0  0  0
 74 85  1  0  0  0
 75147  1  0  0  0
 75148  1  0  0  0
 75149  1  0  0  0
 76150  1  0  0  0
 76151  1  0  0  0
 76152  1  0  0  0
 76 83  1  0  0  0
 77 83  1  0  0  0
 77153  1  0  0  0
 77154  1  0  0  0
 77155  1  0  0  0
 78156  1  0  0  0
 78157  1  0  0  0
 78158  1  0  0  0
 78 84  1  0  0  0
 79 81  1  0  0  0
 79159  1  0  0  0
 79160  1  0  0  0
 80 84  1  0  0  0
 80 85  1  0  0  0
 80161  1  0  0  0
 80162  1  0  0  0
 81 86  1  0  0  0
 81163  1  0  0  0
 81164  1  0  0  0
 82 84  1  0  0  0
 82165  1  0  0  0
 82166  1  0  0  0
 83167  1  0  0  0
 84168  1  0  0  0
 86169  1  0  0  0
M  ISO  4   1 100  68 101  82 101  86 100
M  END
> <chiral flag>
0

> <version>
0

> <s_m_source_file>
/data/baiqing/PycharmProjects/Reinvent-master-3.2/result/LINK_invent/BTK/process_docking_weight1_custom_sum_contain_oxygen_bond_distance_aromatic_linkinvent_7_9_3/rearranged_h_0098.sdf

> <i_m_source_file_index>
74

> <r_mmod_Potential_Energy-OPLS-2005>
81.3369369506836

> <r_mmod_Stretch_Energy-OPLS-2005>
82.0494995117188

> <r_mmod_Bend_Energy-OPLS-2005>
215.228759765625

> <r_mmod_Torsional_Energy-OPLS-2005>
243.376831054688

> <r_mmod_Improper_Torsional_Energy-OPLS-2005>
5.02636432647705

> <r_mmod_Van_der_Waal_Energy-OPLS-2005>
121.75944519043

> <r_mmod_Electrostatic_Energy-OPLS-2005>
-421.797607421875

> <r_mmod_Solvation_Energy-OPLS-2005>
-206.750518798828

> <b_mmod_Minimization_Converged-OPLS-2005>
0

> <r_mmod_RMS_Derivative-OPLS-2005>
9.50123977661133

$$$$
77
                    3D
 Structure written by MMmdl.
149157  0  0  1  0            999 V2000
  -30.5521  -14.9626   20.4173 C   0  0  0  0  0  0
  -30.4391  -12.5973   19.5045 C   0  0  0  0  0  0
  -29.5255  -12.5362   18.2583 C   0  0  0  0  0  0
  -28.0561  -12.3274   18.6719 C   0  0  0  0  0  0
  -27.6300  -13.2551   19.8404 C   0  0  2  0  0  0
  -28.6733  -13.2911   20.9776 C   0  0  0  0  0  0
  -25.2412  -13.8178   20.5644 C   0  0  0  0  0  0
  -24.1751  -13.0405   20.9192 C   0  0  0  0  0  0
  -24.6405  -11.6906   20.8752 C   0  0  0  0  0  0
  -23.9093  -10.4278   21.0407 C   0  0  0  0  0  0
  -24.3634   -9.4193   21.9189 C   0  0  0  0  0  0
  -23.6295   -8.2235   22.0760 C   0  0  0  0  0  0
  -22.4277   -8.0280   21.3549 C   0  0  0  0  0  0
  -21.9916   -9.0257   20.4654 C   0  0  0  0  0  0
  -22.7261  -10.2127   20.3060 C   0  0  0  0  0  0
  -21.6848   -6.0734   22.5276 C   0  0  0  0  0  0
  -21.4017   -6.5637   23.8211 C   0  0  0  0  0  0
  -21.3661   -5.6788   24.9171 C   0  0  0  0  0  0
  -21.6044   -4.3051   24.7223 C   0  0  0  0  0  0
  -21.8818   -3.8144   23.4344 C   0  0  0  0  0  0
  -21.9188   -4.6963   22.3401 C   0  0  0  0  0  0
  -22.7773  -13.5183   21.1857 C   0  0  0  0  0  0
  -22.1658   -4.2154   21.0978 F   0  0  0  0  0  0
  -21.5630   -3.4531   25.7737 F   0  0  0  0  0  0
  -29.9481  -13.7038   20.3771 N   0  0  0  0  0  0
  -26.2891  -12.9460   20.3261 N   0  0  0  0  0  0
  -25.9353  -11.6578   20.5757 N   0  0  0  0  0  0
  -22.0432  -12.8190   22.0433 N   0  0  0  0  0  0
  -25.3954  -15.1880   20.3981 N   0  0  0  0  0  0
  -31.7544  -15.0111   20.1401 O   0  0  0  0  0  0
  -21.6639   -6.8877   21.4240 O   0  0  0  0  0  0
  -22.3449  -14.5483   20.6702 O   0  0  0  0  0  0
  -24.6454  -31.8428   23.1872 C   0  0  0  0  0  0
  -25.9214  -32.4698   23.8273 C   0  0  1  0  0  0
  -27.2197  -27.1190   20.1527 C   0  0  0  0  0  0
  -25.5951  -33.8503   24.2193 N   0  0  0  0  0  0
  -23.4500  -30.4624   21.5332 C   0  0  2  0  0  0
  -24.8997  -28.8855   20.1137 C   0  0  0  0  0  0
  -22.7575  -29.4545   22.4850 C   0  0  0  0  0  0
  -18.0310  -28.1393   22.8484 C   0  0  0  0  0  0
  -24.1489  -36.7251   23.2643 C   0  0  0  0  0  0
  -26.0084  -30.7115   21.3888 C   0  0  0  0  0  0
  -26.0795  -29.3206   20.7309 C   0  0  0  0  0  0
  -27.2405  -28.4559   20.7288 C   0  0  0  0  0  0
  -26.0118  -26.7909   19.4975 C   0  0  0  0  0  0
  -24.8804  -27.6347   19.4809 C   0  0  0  0  0  0
  -23.6779  -29.7909   20.1534 C   0  0  0  0  0  0
  -25.4124  -36.3038   24.0318 C   0  0  1  0  0  0
  -20.5928  -28.3724   23.1234 C   0  0  2  0  0  0
  -20.6792  -26.9424   22.5408 C   0  0  0  0  0  0
  -19.5761  -26.6376   21.5218 C   0  0  0  0  0  0
  -18.1943  -26.7932   22.1633 C   0  0  0  0  0  0
  -19.1568  -28.8878   23.2852 C   0  0  0  0  0  0
  -18.9481  -30.1468   23.8882 C   0  0  0  0  0  0
  -17.6475  -30.6591   24.0556 C   0  0  0  0  0  0
  -25.9072  -34.9411   23.5067 C   0  0  0  0  0  0
  -16.5368  -29.9080   23.6336 C   0  0  0  0  0  0
  -16.7293  -28.6498   23.0365 C   0  0  0  0  0  0
  -26.4518  -31.6573   25.0724 C   0  0  0  0  0  0
  -25.3691  -31.3771   26.1414 C   0  0  0  0  0  0
  -27.0390  -30.2970   24.6325 C   0  0  0  0  0  0
  -27.6052  -32.4335   25.7510 C   0  0  0  0  0  0
  -27.5577  -37.1787   24.8466 C   0  0  0  0  0  0
  -21.4270  -29.3045   22.3599 N   0  0  0  0  0  0
  -26.4287  -37.3751   23.9404 N   0  0  0  0  0  0
  -24.7217  -31.0270   22.0913 N   0  0  0  0  0  0
  -23.4212  -28.8091   23.3008 O   0  0  0  0  0  0
  -28.2772  -26.1308   20.1986 O   0  0  0  0  0  0
  -26.5660  -34.8904   22.4648 O   0  0  0  0  0  0
  -23.5568  -32.1313   23.7079 O   0  0  0  0  0  0
  -29.6071  -20.4842   20.2542 C   0  0  0  0  0  0
  -27.4904  -21.3410   20.9736 C   0  0  0  0  0  0
  -28.7478  -21.6839   20.4568 C   0  0  0  0  0  0
  -29.2264  -19.0774   20.5673 C   0  0  0  0  0  0
  -27.9226  -19.0147   21.1138 C   0  0  0  0  0  0
  -29.0913  -23.2921   20.2217 C   0  0  0  0  0  0
  -30.1704  -17.7066   20.3955 C   0  0  0  0  0  0
  -27.9945  -24.5884   20.2566 C   0  0  0  0  0  0
  -27.1051  -20.0834   21.2865 N   0  0  0  0  0  0
  -29.7937  -16.1644   20.5569 N   0  0  0  0  0  0
  -27.2801  -17.5107   21.6577 Cl  0  0  0  0  0  0
  -31.4751  -12.7463   19.1963 H   0  0  0  0  0  0
  -30.4264  -11.6479   20.0426 H   0  0  0  0  0  0
  -29.8456  -11.7344   17.5923 H   0  0  0  0  0  0
  -29.6199  -13.4631   17.6894 H   0  0  0  0  0  0
  -27.9452  -11.2848   18.9718 H   0  0  0  0  0  0
  -27.3975  -12.4714   17.8144 H   0  0  0  0  0  0
  -27.5900  -14.2583   19.4149 H   0  0  0  0  0  0
  -28.7626  -12.3183   21.4632 H   0  0  0  0  0  0
  -28.3725  -13.9991   21.7514 H   0  0  0  0  0  0
  -25.2779   -9.5664   22.4765 H   0  0  0  0  0  0
  -24.0001   -7.4622   22.7480 H   0  0  0  0  0  0
  -21.0846   -8.8784   19.8958 H   0  0  0  0  0  0
  -22.3724  -10.9670   19.6170 H   0  0  0  0  0  0
  -21.2016   -7.6148   23.9714 H   0  0  0  0  0  0
  -21.1483   -6.0520   25.9075 H   0  0  0  0  0  0
  -22.0596   -2.7609   23.2837 H   0  0  0  0  0  0
  -22.4048  -11.9875   22.4859 H   0  0  0  0  0  0
  -21.1054  -13.1225   22.2642 H   0  0  0  0  0  0
  -24.6287  -15.8340   20.5450 H   0  0  0  0  0  0
  -26.2552  -15.6508   20.1379 H   0  0  0  0  0  0
  -26.7283  -32.5300   23.1001 H   0  0  0  0  0  0
  -25.0070  -33.9618   25.0324 H   0  0  0  0  0  0
  -22.7546  -31.2901   21.3771 H   0  0  0  0  0  0
  -23.3761  -35.9575   23.3308 H   0  0  0  0  0  0
  -24.3570  -36.8882   22.2058 H   0  0  0  0  0  0
  -23.7237  -37.6443   23.6680 H   0  0  0  0  0  0
  -26.1694  -31.4664   20.6179 H   0  0  0  0  0  0
  -26.8769  -30.7614   22.0343 H   0  0  0  0  0  0
  -28.1414  -28.7881   21.2249 H   0  0  0  0  0  0
  -25.9051  -25.8438   18.9932 H   0  0  0  0  0  0
  -23.9819  -27.2986   18.9819 H   0  0  0  0  0  0
  -23.8172  -30.5646   19.3970 H   0  0  0  0  0  0
  -22.7924  -29.2338   19.8417 H   0  0  0  0  0  0
  -25.1313  -36.1871   25.0811 H   0  0  0  0  0  0
  -21.0031  -28.3314   24.1352 H   0  0  0  0  0  0
  -20.5688  -26.2333   23.3626 H   0  0  0  0  0  0
  -21.6653  -26.7417   22.1204 H   0  0  0  0  0  0
  -19.6914  -25.6278   21.1264 H   0  0  0  0  0  0
  -19.6697  -27.3173   20.6736 H   0  0  0  0  0  0
  -17.4212  -26.6685   21.4034 H   0  0  0  0  0  0
  -18.0337  -26.0072   22.9030 H   0  0  0  0  0  0
  -19.7951  -30.7290   24.2252 H   0  0  0  0  0  0
  -17.5025  -31.6272   24.5150 H   0  0  0  0  0  0
  -15.5368  -30.2978   23.7660 H   0  0  0  0  0  0
  -15.8693  -28.0798   22.7108 H   0  0  0  0  0  0
  -24.5871  -30.7122   25.7727 H   0  0  0  0  0  0
  -24.8873  -32.2954   26.4781 H   0  0  0  0  0  0
  -25.7958  -30.8975   27.0232 H   0  0  0  0  0  0
  -26.3021  -29.6693   24.1304 H   0  0  0  0  0  0
  -27.3967  -29.7277   25.4912 H   0  0  0  0  0  0
  -27.8942  -30.4210   23.9680 H   0  0  0  0  0  0
  -27.2656  -33.3658   26.2034 H   0  0  0  0  0  0
  -28.3890  -32.6858   25.0356 H   0  0  0  0  0  0
  -28.0687  -31.8490   26.5467 H   0  0  0  0  0  0
  -28.2595  -38.0081   24.7506 H   0  0  0  0  0  0
  -28.1070  -36.2612   24.6306 H   0  0  0  0  0  0
  -27.2287  -37.1452   25.8866 H   0  0  0  0  0  0
  -20.9486  -29.8761   21.6778 H   0  0  0  0  0  0
  -26.0159  -38.2821   24.1398 H   0  0  0  0  0  0
  -30.5994  -20.6499   19.8604 H   0  0  0  0  0  0
  -26.7602  -22.1113   21.1722 H   0  0  0  0  0  0
  -29.6112  -23.3460   19.2649 H   0  0  0  0  0  0
  -29.8595  -23.5218   20.9608 H   0  0  0  0  0  0
  -31.0039  -17.8600   21.0821 H   0  0  0  0  0  0
  -30.6221  -17.7901   19.4057 H   0  0  0  0  0  0
  -27.4155  -24.4652   21.1722 H   0  0  0  0  0  0
  -27.2974  -24.3594   19.4537 H   0  0  0  0  0  0
  -28.8196  -15.9984   20.7594 H   0  0  0  0  0  0
  1 25  1  0  0  0
  1 30  2  0  0  0
  1 80  1  0  0  0
  2  3  1  0  0  0
  2 25  1  0  0  0
  2 82  1  0  0  0
  2 83  1  0  0  0
  3  4  1  0  0  0
  3 84  1  0  0  0
  3 85  1  0  0  0
  4  5  1  0  0  0
  4 86  1  0  0  0
  4 87  1  0  0  0
  5  6  1  0  0  0
  5 26  1  0  0  0
  5 88  1  0  0  0
  6 25  1  0  0  0
  6 89  1  0  0  0
  6 90  1  0  0  0
  7  8  2  0  0  0
  7 26  1  0  0  0
  7 29  1  0  0  0
  8  9  1  0  0  0
  8 22  1  0  0  0
  9 10  1  0  0  0
  9 27  2  0  0  0
 10 11  2  0  0  0
 10 15  1  0  0  0
 11 12  1  0  0  0
 11 91  1  0  0  0
 12 13  2  0  0  0
 12 92  1  0  0  0
 13 14  1  0  0  0
 13 31  1  0  0  0
 14 15  2  0  0  0
 14 93  1  0  0  0
 15 94  1  0  0  0
 16 17  2  0  0  0
 16 21  1  0  0  0
 16 31  1  0  0  0
 17 18  1  0  0  0
 17 95  1  0  0  0
 18 19  2  0  0  0
 18 96  1  0  0  0
 19 20  1  0  0  0
 19 24  1  0  0  0
 20 21  2  0  0  0
 20 97  1  0  0  0
 21 23  1  0  0  0
 22 28  1  0  0  0
 22 32  2  0  0  0
 26 27  1  0  0  0
 28 98  1  0  0  0
 28 99  1  0  0  0
 29100  1  0  0  0
 29101  1  0  0  0
 33 34  1  0  0  0
 33 66  1  0  0  0
 33 70  2  0  0  0
 34 36  1  0  0  0
 34 59  1  0  0  0
 34102  1  0  0  0
 35 44  2  0  0  0
 35 45  1  0  0  0
 35 68  1  0  0  0
 36 56  1  0  0  0
 36103  1  0  0  0
 37 39  1  0  0  0
 37 47  1  0  0  0
 37 66  1  0  0  0
 37104  1  0  0  0
 38 43  2  0  0  0
 38 46  1  0  0  0
 38 47  1  0  0  0
 39 64  1  0  0  0
 39 67  2  0  0  0
 40 52  1  0  0  0
 40 53  2  0  0  0
 40 58  1  0  0  0
 41105  1  0  0  0
 41106  1  0  0  0
 41107  1  0  0  0
 41 48  1  0  0  0
 42 43  1  0  0  0
 42 66  1  0  0  0
 42108  1  0  0  0
 42109  1  0  0  0
 43 44  1  0  0  0
 44110  1  0  0  0
 45 46  2  0  0  0
 45111  1  0  0  0
 46112  1  0  0  0
 47113  1  0  0  0
 47114  1  0  0  0
 48 56  1  0  0  0
 48 65  1  0  0  0
 48115  1  0  0  0
 49 50  1  0  0  0
 49 53  1  0  0  0
 49 64  1  0  0  0
 49116  1  0  0  0
 50 51  1  0  0  0
 50117  1  0  0  0
 50118  1  0  0  0
 51 52  1  0  0  0
 51119  1  0  0  0
 51120  1  0  0  0
 52121  1  0  0  0
 52122  1  0  0  0
 53 54  1  0  0  0
 54 55  2  0  0  0
 54123  1  0  0  0
 55 57  1  0  0  0
 55124  1  0  0  0
 56 69  2  0  0  0
 57 58  2  0  0  0
 57125  1  0  0  0
 58126  1  0  0  0
 59 60  1  0  0  0
 59 61  1  0  0  0
 59 62  1  0  0  0
 60127  1  0  0  0
 60128  1  0  0  0
 60129  1  0  0  0
 61130  1  0  0  0
 61131  1  0  0  0
 61132  1  0  0  0
 62133  1  0  0  0
 62134  1  0  0  0
 62135  1  0  0  0
 63 65  1  0  0  0
 63136  1  0  0  0
 63137  1  0  0  0
 63138  1  0  0  0
 64139  1  0  0  0
 65140  1  0  0  0
 68 78  1  0  0  0
 71 73  2  0  0  0
 71 74  1  0  0  0
 71141  1  0  0  0
 72 73  1  0  0  0
 72 79  2  0  0  0
 72142  1  0  0  0
 73 76  1  0  0  0
 74 75  2  0  0  0
 74 77  1  0  0  0
 75 79  1  0  0  0
 75 81  1  0  0  0
 76 78  1  0  0  0
 76143  1  0  0  0
 76144  1  0  0  0
 77 80  1  0  0  0
 77145  1  0  0  0
 77146  1  0  0  0
 78147  1  0  0  0
 78148  1  0  0  0
 80149  1  0  0  0
M  ISO  4   1 100  68 101  78 101  80 100
M  END
> <chiral flag>
0

> <version>
0

> <s_m_source_file>
/data/baiqing/PycharmProjects/Reinvent-master-3.2/result/LINK_invent/BTK/process_docking_weight1_custom_sum_contain_oxygen_bond_distance_aromatic_linkinvent_7_9_3/rearranged_h_0098.sdf

> <i_m_source_file_index>
75

> <r_mmod_Potential_Energy-OPLS-2005>
360.436431884766

> <r_mmod_Stretch_Energy-OPLS-2005>
278.289520263672

> <r_mmod_Bend_Energy-OPLS-2005>
256.288726806641

> <r_mmod_Torsional_Energy-OPLS-2005>
202.975387573242

> <r_mmod_Improper_Torsional_Energy-OPLS-2005>
4.37267303466797

> <r_mmod_Van_der_Waal_Energy-OPLS-2005>
131.246307373047

> <r_mmod_Electrostatic_Energy-OPLS-2005>
-501.772155761719

> <r_mmod_Solvation_Energy-OPLS-2005>
-212.848449707031

> <b_mmod_Minimization_Converged-OPLS-2005>
0

> <r_mmod_RMS_Derivative-OPLS-2005>
1.23974049091339

$$$$
78
                    3D
 Structure written by MMmdl.
172180  0  0  1  0            999 V2000
  -30.6368  -14.7393   20.4926 C   0  0  0  0  0  0
  -30.4325  -12.4565   19.4981 C   0  0  0  0  0  0
  -29.5195  -12.5163   18.2586 C   0  0  0  0  0  0
  -28.0482  -12.3267   18.6646 C   0  0  0  0  0  0
  -27.6444  -13.2337   19.8601 C   0  0  2  0  0  0
  -28.6825  -13.1861   21.0022 C   0  0  0  0  0  0
  -25.2534  -13.8232   20.5746 C   0  0  0  0  0  0
  -24.1807  -13.0453   20.9224 C   0  0  0  0  0  0
  -24.6411  -11.6932   20.8759 C   0  0  0  0  0  0
  -23.9053  -10.4318   21.0421 C   0  0  0  0  0  0
  -24.3614   -9.4221   21.9183 C   0  0  0  0  0  0
  -23.6295   -8.2245   22.0676 C   0  0  0  0  0  0
  -22.4282   -8.0290   21.3480 C   0  0  0  0  0  0
  -21.9916   -9.0251   20.4581 C   0  0  0  0  0  0
  -22.7237  -10.2161   20.3021 C   0  0  0  0  0  0
  -21.6857   -6.0761   22.5254 C   0  0  0  0  0  0
  -21.4018   -6.5617   23.8206 C   0  0  0  0  0  0
  -21.3679   -5.6745   24.9140 C   0  0  0  0  0  0
  -21.6072   -4.3007   24.7203 C   0  0  0  0  0  0
  -21.8815   -3.8134   23.4304 C   0  0  0  0  0  0
  -21.9188   -4.6971   22.3388 C   0  0  0  0  0  0
  -22.7824  -13.5224   21.1871 C   0  0  0  0  0  0
  -22.1661   -4.2149   21.0967 F   0  0  0  0  0  0
  -21.5640   -3.4509   25.7726 F   0  0  0  0  0  0
  -29.9861  -13.5248   20.4248 N   0  0  0  0  0  0
  -26.2934  -12.9432   20.3303 N   0  0  0  0  0  0
  -25.9346  -11.6573   20.5774 N   0  0  0  0  0  0
  -22.0426  -12.8253   22.0450 N   0  0  0  0  0  0
  -25.4265  -15.1960   20.4198 N   0  0  0  0  0  0
  -31.8116  -14.8181   20.1224 O   0  0  0  0  0  0
  -21.6587   -6.8929   21.4239 O   0  0  0  0  0  0
  -22.3537  -14.5558   20.6716 O   0  0  0  0  0  0
  -24.6291  -31.8586   23.1957 C   0  0  0  0  0  0
  -25.9137  -32.4745   23.8279 C   0  0  1  0  0  0
  -27.2161  -27.2604   20.1213 C   0  0  0  0  0  0
  -25.5953  -33.8537   24.2240 N   0  0  0  0  0  0
  -23.4251  -30.4817   21.5373 C   0  0  2  0  0  0
  -24.8702  -28.9316   20.0984 C   0  0  0  0  0  0
  -22.7511  -29.4605   22.4877 C   0  0  0  0  0  0
  -18.0317  -28.1366   22.8489 C   0  0  0  0  0  0
  -24.1511  -36.7285   23.2641 C   0  0  0  0  0  0
  -25.9702  -30.7722   21.3729 C   0  0  0  0  0  0
  -26.0394  -29.3940   20.7130 C   0  0  0  0  0  0
  -27.2093  -28.5718   20.7125 C   0  0  0  0  0  0
  -26.0284  -26.8724   19.4609 C   0  0  0  0  0  0
  -24.8740  -27.6833   19.4559 C   0  0  0  0  0  0
  -23.6402  -29.8151   20.1514 C   0  0  0  0  0  0
  -25.4126  -36.3052   24.0337 C   0  0  1  0  0  0
  -20.5924  -28.3675   23.1258 C   0  0  2  0  0  0
  -20.6765  -26.9385   22.5400 C   0  0  0  0  0  0
  -19.5736  -26.6371   21.5188 C   0  0  0  0  0  0
  -18.1943  -26.7910   22.1622 C   0  0  0  0  0  0
  -19.1581  -28.8835   23.2878 C   0  0  0  0  0  0
  -18.9480  -30.1440   23.8900 C   0  0  0  0  0  0
  -17.6465  -30.6564   24.0551 C   0  0  0  0  0  0
  -25.9060  -34.9428   23.5086 C   0  0  0  0  0  0
  -16.5364  -29.9056   23.6311 C   0  0  0  0  0  0
  -16.7306  -28.6481   23.0343 C   0  0  0  0  0  0
  -26.4524  -31.6531   25.0664 C   0  0  0  0  0  0
  -25.3780  -31.3636   26.1402 C   0  0  0  0  0  0
  -27.0331  -30.2943   24.6105 C   0  0  0  0  0  0
  -27.6116  -32.4228   25.7430 C   0  0  0  0  0  0
  -27.5596  -37.1783   24.8470 C   0  0  0  0  0  0
  -21.4228  -29.3039   22.3655 N   0  0  0  0  0  0
  -26.4303  -37.3759   23.9414 N   0  0  0  0  0  0
  -24.6941  -31.0563   22.0908 N   0  0  0  0  0  0
  -23.4254  -28.8175   23.2972 O   0  0  0  0  0  0
  -28.3382  -26.4013   20.2293 O   0  0  0  0  0  0
  -26.5639  -34.8910   22.4660 O   0  0  0  0  0  0
  -23.5452  -32.1395   23.7285 O   0  0  0  0  0  0
  -28.3332  -18.8611   20.1785 C   0  0  0  0  0  0
  -30.1337  -19.9667   20.7752 C   0  0  0  0  0  0
  -29.6750  -18.6543   20.6297 C   0  0  0  0  0  0
  -28.0855  -20.2014   19.9646 C   0  0  0  0  0  0
  -27.4527  -23.5715   15.5405 C   0  0  0  0  0  0
  -25.1198  -22.9270   14.9506 C   0  0  0  0  0  0
  -29.1386  -24.0907   22.1032 C   0  0  0  0  0  0
  -30.5022  -17.3062   20.8465 C   0  0  0  0  0  0
  -26.8926  -20.8310   19.2961 C   0  0  0  0  0  0
  -27.1505  -21.1675   17.8096 C   0  0  0  0  0  0
  -26.0886  -22.0854   17.1703 C   0  0  0  0  0  0
  -29.4690  -22.4464   20.1363 C   0  0  0  0  0  0
  -28.4184  -24.9766   19.7425 C   0  0  0  0  0  0
  -26.3898  -22.4673   15.6919 C   0  0  0  0  0  0
  -28.5783  -23.6733   20.7208 C   0  0  2  0  0  0
  -29.1976  -20.9498   20.3563 N   0  0  0  0  0  0
  -29.9373  -15.8864   20.8165 N   0  0  0  0  0  0
  -31.4691  -12.5791   19.1863 H   0  0  0  0  0  0
  -30.3796  -11.4777   19.9819 H   0  0  0  0  0  0
  -29.8145  -11.7536   17.5361 H   0  0  0  0  0  0
  -29.6479  -13.4840   17.7682 H   0  0  0  0  0  0
  -27.9185  -11.2829   18.9509 H   0  0  0  0  0  0
  -27.3910  -12.4904   17.8095 H   0  0  0  0  0  0
  -27.6454  -14.2516   19.4735 H   0  0  0  0  0  0
  -28.7058  -12.2046   21.4822 H   0  0  0  0  0  0
  -28.4041  -13.8972   21.7801 H   0  0  0  0  0  0
  -25.2782   -9.5693   22.4727 H   0  0  0  0  0  0
  -24.0002   -7.4639   22.7406 H   0  0  0  0  0  0
  -21.0811   -8.8790   19.8920 H   0  0  0  0  0  0
  -22.3697  -10.9668   19.6089 H   0  0  0  0  0  0
  -21.1987   -7.6108   23.9714 H   0  0  0  0  0  0
  -21.1524   -6.0460   25.9067 H   0  0  0  0  0  0
  -22.0604   -2.7588   23.2776 H   0  0  0  0  0  0
  -22.4004  -11.9933   22.4914 H   0  0  0  0  0  0
  -21.1031  -13.1282   22.2558 H   0  0  0  0  0  0
  -24.6668  -15.8576   20.5342 H   0  0  0  0  0  0
  -26.2840  -15.6288   20.0987 H   0  0  0  0  0  0
  -26.7230  -32.5386   23.1027 H   0  0  0  0  0  0
  -25.0013  -33.9620   25.0328 H   0  0  0  0  0  0
  -22.7227  -31.3062   21.3934 H   0  0  0  0  0  0
  -23.3758  -35.9628   23.3269 H   0  0  0  0  0  0
  -24.3627  -36.8944   22.2066 H   0  0  0  0  0  0
  -23.7268  -37.6489   23.6666 H   0  0  0  0  0  0
  -26.1127  -31.5346   20.6063 H   0  0  0  0  0  0
  -26.8520  -30.8195   22.0003 H   0  0  0  0  0  0
  -28.1027  -28.9266   21.2095 H   0  0  0  0  0  0
  -25.9412  -25.9257   18.9513 H   0  0  0  0  0  0
  -23.9822  -27.3336   18.9558 H   0  0  0  0  0  0
  -23.7607  -30.5928   19.3981 H   0  0  0  0  0  0
  -22.7587  -29.2510   19.8411 H   0  0  0  0  0  0
  -25.1303  -36.1896   25.0834 H   0  0  0  0  0  0
  -21.0047  -28.3222   24.1358 H   0  0  0  0  0  0
  -20.5610  -26.2278   23.3601 H   0  0  0  0  0  0
  -21.6632  -26.7356   22.1217 H   0  0  0  0  0  0
  -19.6881  -25.6296   21.1181 H   0  0  0  0  0  0
  -19.6646  -27.3206   20.6742 H   0  0  0  0  0  0
  -17.4197  -26.6696   21.4035 H   0  0  0  0  0  0
  -18.0336  -26.0054   22.9014 H   0  0  0  0  0  0
  -19.7951  -30.7269   24.2252 H   0  0  0  0  0  0
  -17.5013  -31.6226   24.5166 H   0  0  0  0  0  0
  -15.5352  -30.2935   23.7625 H   0  0  0  0  0  0
  -15.8721  -28.0779   22.7019 H   0  0  0  0  0  0
  -24.6029  -30.6902   25.7731 H   0  0  0  0  0  0
  -24.8879  -32.2761   26.4779 H   0  0  0  0  0  0
  -25.8159  -30.8872   27.0178 H   0  0  0  0  0  0
  -26.2845  -29.6690   24.1235 H   0  0  0  0  0  0
  -27.4134  -29.7201   25.4554 H   0  0  0  0  0  0
  -27.8687  -30.4194   23.9226 H   0  0  0  0  0  0
  -27.2791  -33.3563   26.1944 H   0  0  0  0  0  0
  -28.3953  -32.6697   25.0270 H   0  0  0  0  0  0
  -28.0733  -31.8366   26.5372 H   0  0  0  0  0  0
  -28.2597  -38.0097   24.7513 H   0  0  0  0  0  0
  -28.1113  -36.2616   24.6286 H   0  0  0  0  0  0
  -27.2316  -37.1442   25.8880 H   0  0  0  0  0  0
  -20.9394  -29.8796   21.6903 H   0  0  0  0  0  0
  -26.0181  -38.2852   24.1364 H   0  0  0  0  0  0
  -27.6271  -18.0770   19.9377 H   0  0  0  0  0  0
  -31.1202  -20.2885   21.0844 H   0  0  0  0  0  0
  -27.6340  -23.7867   14.4840 H   0  0  0  0  0  0
  -28.4108  -23.2899   15.9747 H   0  0  0  0  0  0
  -27.1320  -24.5072   16.0032 H   0  0  0  0  0  0
  -25.3444  -23.2027   13.9181 H   0  0  0  0  0  0
  -24.6769  -23.8057   15.4204 H   0  0  0  0  0  0
  -24.3556  -22.1514   14.9124 H   0  0  0  0  0  0
  -29.1801  -23.2548   22.8056 H   0  0  0  0  0  0
  -28.5202  -24.8587   22.5689 H   0  0  0  0  0  0
  -30.1514  -24.4913   22.0143 H   0  0  0  0  0  0
  -31.0304  -17.4017   21.7948 H   0  0  0  0  0  0
  -31.2867  -17.3569   20.0892 H   0  0  0  0  0  0
  -26.5717  -21.7108   19.8479 H   0  0  0  0  0  0
  -26.0409  -20.1492   19.3578 H   0  0  0  0  0  0
  -27.2393  -20.2355   17.2498 H   0  0  0  0  0  0
  -28.1145  -21.6572   17.7119 H   0  0  0  0  0  0
  -25.9715  -22.9870   17.7762 H   0  0  0  0  0  0
  -25.1304  -21.5642   17.2165 H   0  0  0  0  0  0
  -30.5037  -22.6145   20.4395 H   0  0  0  0  0  0
  -29.5104  -22.5847   19.0588 H   0  0  0  0  0  0
  -27.6304  -24.7506   19.0244 H   0  0  0  0  0  0
  -29.3111  -24.9941   19.1109 H   0  0  0  0  0  0
  -26.7556  -21.5689   15.1870 H   0  0  0  0  0  0
  -27.5706  -23.2957   20.9052 H   0  0  0  0  0  0
  -29.0039  -15.7571   21.1819 H   0  0  0  0  0  0
  1 25  1  0  0  0
  1 30  2  0  0  0
  1 87  1  0  0  0
  2  3  1  0  0  0
  2 25  1  0  0  0
  2 88  1  0  0  0
  2 89  1  0  0  0
  3  4  1  0  0  0
  3 90  1  0  0  0
  3 91  1  0  0  0
  4  5  1  0  0  0
  4 92  1  0  0  0
  4 93  1  0  0  0
  5  6  1  0  0  0
  5 26  1  0  0  0
  5 94  1  0  0  0
  6 25  1  0  0  0
  6 95  1  0  0  0
  6 96  1  0  0  0
  7  8  2  0  0  0
  7 26  1  0  0  0
  7 29  1  0  0  0
  8  9  1  0  0  0
  8 22  1  0  0  0
  9 10  1  0  0  0
  9 27  2  0  0  0
 10 11  2  0  0  0
 10 15  1  0  0  0
 11 12  1  0  0  0
 11 97  1  0  0  0
 12 13  2  0  0  0
 12 98  1  0  0  0
 13 14  1  0  0  0
 13 31  1  0  0  0
 14 15  2  0  0  0
 14 99  1  0  0  0
 15100  1  0  0  0
 16 17  2  0  0  0
 16 21  1  0  0  0
 16 31  1  0  0  0
 17 18  1  0  0  0
 17101  1  0  0  0
 18 19  2  0  0  0
 18102  1  0  0  0
 19 20  1  0  0  0
 19 24  1  0  0  0
 20 21  2  0  0  0
 20103  1  0  0  0
 21 23  1  0  0  0
 22 28  1  0  0  0
 22 32  2  0  0  0
 26 27  1  0  0  0
 28104  1  0  0  0
 28105  1  0  0  0
 29106  1  0  0  0
 29107  1  0  0  0
 33 34  1  0  0  0
 33 66  1  0  0  0
 33 70  2  0  0  0
 34 36  1  0  0  0
 34 59  1  0  0  0
 34108  1  0  0  0
 35 44  2  0  0  0
 35 45  1  0  0  0
 35 68  1  0  0  0
 36 56  1  0  0  0
 36109  1  0  0  0
 37 39  1  0  0  0
 37 47  1  0  0  0
 37 66  1  0  0  0
 37110  1  0  0  0
 38 43  2  0  0  0
 38 46  1  0  0  0
 38 47  1  0  0  0
 39 64  1  0  0  0
 39 67  2  0  0  0
 40 52  1  0  0  0
 40 53  2  0  0  0
 40 58  1  0  0  0
 41111  1  0  0  0
 41112  1  0  0  0
 41113  1  0  0  0
 41 48  1  0  0  0
 42 43  1  0  0  0
 42 66  1  0  0  0
 42114  1  0  0  0
 42115  1  0  0  0
 43 44  1  0  0  0
 44116  1  0  0  0
 45 46  2  0  0  0
 45117  1  0  0  0
 46118  1  0  0  0
 47119  1  0  0  0
 47120  1  0  0  0
 48 56  1  0  0  0
 48 65  1  0  0  0
 48121  1  0  0  0
 49 50  1  0  0  0
 49 53  1  0  0  0
 49 64  1  0  0  0
 49122  1  0  0  0
 50 51  1  0  0  0
 50123  1  0  0  0
 50124  1  0  0  0
 51 52  1  0  0  0
 51125  1  0  0  0
 51126  1  0  0  0
 52127  1  0  0  0
 52128  1  0  0  0
 53 54  1  0  0  0
 54 55  2  0  0  0
 54129  1  0  0  0
 55 57  1  0  0  0
 55130  1  0  0  0
 56 69  2  0  0  0
 57 58  2  0  0  0
 57131  1  0  0  0
 58132  1  0  0  0
 59 60  1  0  0  0
 59 61  1  0  0  0
 59 62  1  0  0  0
 60133  1  0  0  0
 60134  1  0  0  0
 60135  1  0  0  0
 61136  1  0  0  0
 61137  1  0  0  0
 61138  1  0  0  0
 62139  1  0  0  0
 62140  1  0  0  0
 62141  1  0  0  0
 63 65  1  0  0  0
 63142  1  0  0  0
 63143  1  0  0  0
 63144  1  0  0  0
 64145  1  0  0  0
 65146  1  0  0  0
 68 83  1  0  0  0
 71 73  1  0  0  0
 71 74  2  0  0  0
 71147  1  0  0  0
 72 73  2  0  0  0
 72 86  1  0  0  0
 72148  1  0  0  0
 73 78  1  0  0  0
 74 79  1  0  0  0
 74 86  1  0  0  0
 75149  1  0  0  0
 75150  1  0  0  0
 75151  1  0  0  0
 75 84  1  0  0  0
 76 84  1  0  0  0
 76152  1  0  0  0
 76153  1  0  0  0
 76154  1  0  0  0
 77155  1  0  0  0
 77156  1  0  0  0
 77157  1  0  0  0
 77 85  1  0  0  0
 78 87  1  0  0  0
 78158  1  0  0  0
 78159  1  0  0  0
 79 80  1  0  0  0
 79160  1  0  0  0
 79161  1  0  0  0
 80 81  1  0  0  0
 80162  1  0  0  0
 80163  1  0  0  0
 81 84  1  0  0  0
 81164  1  0  0  0
 81165  1  0  0  0
 82 85  1  0  0  0
 82 86  1  0  0  0
 82166  1  0  0  0
 82167  1  0  0  0
 83 85  1  0  0  0
 83168  1  0  0  0
 83169  1  0  0  0
 84170  1  0  0  0
 85171  1  0  0  0
 87172  1  0  0  0
M  ISO  4   1 100  68 101  83 101  87 100
M  END
> <chiral flag>
0

> <version>
0

> <s_m_source_file>
/data/baiqing/PycharmProjects/Reinvent-master-3.2/result/LINK_invent/BTK/process_docking_weight1_custom_sum_contain_oxygen_bond_distance_aromatic_linkinvent_7_9_3/rearranged_h_0098.sdf

> <i_m_source_file_index>
76

> <r_mmod_Potential_Energy-OPLS-2005>
145.43180847168

> <r_mmod_Stretch_Energy-OPLS-2005>
124.953094482422

> <r_mmod_Bend_Energy-OPLS-2005>
207.388854980469

> <r_mmod_Torsional_Energy-OPLS-2005>
237.198104858398

> <r_mmod_Improper_Torsional_Energy-OPLS-2005>
5.88803100585938

> <r_mmod_Van_der_Waal_Energy-OPLS-2005>
106.188133239746

> <r_mmod_Electrostatic_Energy-OPLS-2005>
-415.732116699219

> <r_mmod_Solvation_Energy-OPLS-2005>
-203.555709838867

> <b_mmod_Minimization_Converged-OPLS-2005>
0

> <r_mmod_RMS_Derivative-OPLS-2005>
7.78526449203491

$$$$
79
                    3D
 Structure written by MMmdl.
178186  0  0  1  0            999 V2000
  -30.6540  -14.7150   20.5057 C   0  0  0  0  0  0
  -30.4212  -12.4463   19.4725 C   0  0  0  0  0  0
  -29.4995  -12.5204   18.2364 C   0  0  0  0  0  0
  -28.0308  -12.3414   18.6589 C   0  0  0  0  0  0
  -27.6465  -13.2370   19.8671 C   0  0  2  0  0  0
  -28.6915  -13.1605   21.0031 C   0  0  0  0  0  0
  -25.2527  -13.8223   20.5774 C   0  0  0  0  0  0
  -24.1813  -13.0459   20.9238 C   0  0  0  0  0  0
  -24.6421  -11.6939   20.8782 C   0  0  0  0  0  0
  -23.9102  -10.4314   21.0430 C   0  0  0  0  0  0
  -24.3645   -9.4221   21.9204 C   0  0  0  0  0  0
  -23.6313   -8.2254   22.0764 C   0  0  0  0  0  0
  -22.4291   -8.0307   21.3562 C   0  0  0  0  0  0
  -21.9938   -9.0288   20.4657 C   0  0  0  0  0  0
  -22.7273  -10.2163   20.3078 C   0  0  0  0  0  0
  -21.6861   -6.0762   22.5287 C   0  0  0  0  0  0
  -21.4014   -6.5659   23.8226 C   0  0  0  0  0  0
  -21.3656   -5.6806   24.9183 C   0  0  0  0  0  0
  -21.6041   -4.3065   24.7222 C   0  0  0  0  0  0
  -21.8817   -3.8169   23.4341 C   0  0  0  0  0  0
  -21.9196   -4.6993   22.3405 C   0  0  0  0  0  0
  -22.7836  -13.5246   21.1890 C   0  0  0  0  0  0
  -22.1667   -4.2183   21.0980 F   0  0  0  0  0  0
  -21.5627   -3.4546   25.7731 F   0  0  0  0  0  0
  -29.9981  -13.5030   20.4261 N   0  0  0  0  0  0
  -26.2975  -12.9448   20.3409 N   0  0  0  0  0  0
  -25.9357  -11.6581   20.5822 N   0  0  0  0  0  0
  -22.0486  -12.8223   22.0435 N   0  0  0  0  0  0
  -25.4187  -15.1945   20.4210 N   0  0  0  0  0  0
  -31.7740  -14.8326   19.9949 O   0  0  0  0  0  0
  -21.6649   -6.8910   21.4255 O   0  0  0  0  0  0
  -22.3534  -14.5571   20.6762 O   0  0  0  0  0  0
  -24.6331  -31.8495   23.1972 C   0  0  0  0  0  0
  -25.9148  -32.4711   23.8319 C   0  0  1  0  0  0
  -27.2212  -27.2420   20.1222 C   0  0  0  0  0  0
  -25.5933  -33.8516   24.2229 N   0  0  0  0  0  0
  -23.4282  -30.4742   21.5392 C   0  0  2  0  0  0
  -24.8731  -28.9148   20.1112 C   0  0  0  0  0  0
  -22.7501  -29.4570   22.4893 C   0  0  0  0  0  0
  -18.0293  -28.1366   22.8463 C   0  0  0  0  0  0
  -24.1498  -36.7278   23.2651 C   0  0  0  0  0  0
  -25.9769  -30.7565   21.3777 C   0  0  0  0  0  0
  -26.0456  -29.3778   20.7187 C   0  0  0  0  0  0
  -27.2157  -28.5520   20.7164 C   0  0  0  0  0  0
  -26.0217  -26.8488   19.4867 C   0  0  0  0  0  0
  -24.8671  -27.6575   19.4887 C   0  0  0  0  0  0
  -23.6471  -29.8062   20.1561 C   0  0  0  0  0  0
  -25.4108  -36.3028   24.0338 C   0  0  1  0  0  0
  -20.5893  -28.3660   23.1250 C   0  0  2  0  0  0
  -20.6773  -26.9370   22.5389 C   0  0  0  0  0  0
  -19.5760  -26.6341   21.5196 C   0  0  0  0  0  0
  -18.1934  -26.7903   22.1607 C   0  0  0  0  0  0
  -19.1543  -28.8833   23.2855 C   0  0  0  0  0  0
  -18.9472  -30.1442   23.8865 C   0  0  0  0  0  0
  -17.6469  -30.6563   24.0545 C   0  0  0  0  0  0
  -25.9043  -34.9409   23.5081 C   0  0  0  0  0  0
  -16.5356  -29.9047   23.6331 C   0  0  0  0  0  0
  -16.7276  -28.6476   23.0341 C   0  0  0  0  0  0
  -26.4504  -31.6573   25.0736 C   0  0  0  0  0  0
  -25.3733  -31.3723   26.1463 C   0  0  0  0  0  0
  -27.0360  -30.2990   24.6258 C   0  0  0  0  0  0
  -27.6043  -32.4343   25.7504 C   0  0  0  0  0  0
  -27.5566  -37.1787   24.8464 C   0  0  0  0  0  0
  -21.4204  -29.3023   22.3658 N   0  0  0  0  0  0
  -26.4270  -37.3737   23.9418 N   0  0  0  0  0  0
  -24.6992  -31.0460   22.0941 N   0  0  0  0  0  0
  -23.4204  -28.8108   23.2987 O   0  0  0  0  0  0
  -28.3459  -26.3778   20.2000 O   0  0  0  0  0  0
  -26.5622  -34.8888   22.4652 O   0  0  0  0  0  0
  -23.5477  -32.1325   23.7254 O   0  0  0  0  0  0
  -27.3540  -21.2134   22.1154 C   0  0  0  0  0  0
  -27.2345  -20.1977   23.0913 C   0  0  0  0  0  0
  -28.3987  -20.9797   21.2695 C   0  0  0  0  0  0
  -28.1928  -19.2711   22.7659 C   0  0  0  0  0  0
  -28.5983  -18.0711   23.5602 C   0  0  0  0  0  0
  -24.8286  -18.3485   23.1322 C   0  0  0  0  0  0
  -25.2016  -21.3601   24.0836 C   0  0  0  0  0  0
  -30.7731  -15.9571   22.5139 C   0  0  0  0  0  0
  -28.8155  -22.1263   20.2662 C   0  0  0  0  0  0
  -25.4570  -18.9015   24.4239 C   0  0  0  0  0  0
  -28.6272  -23.6950   20.7465 C   0  0  0  0  0  0
  -29.7932  -18.6101   20.8838 C   0  0  0  0  0  0
  -29.3774  -17.0263   20.6465 C   0  0  0  0  0  0
  -27.0128  -20.5259   25.6009 C   0  0  0  0  0  0
  -28.3883  -24.9388   19.7291 C   0  0  0  0  0  0
  -26.2497  -20.2332   24.2776 C   0  0  1  0  0  0
  -28.8113  -19.5992   21.5419 N   0  0  0  0  0  0
  -30.1166  -15.7844   21.2127 N   0  0  0  0  0  0
  -27.8961  -21.7001   25.4904 N   0  3  0  0  0  0
  -31.4644  -12.5472   19.1681 H   0  0  0  0  0  0
  -30.3493  -11.4641   19.9419 H   0  0  0  0  0  0
  -29.7748  -11.7554   17.5089 H   0  0  0  0  0  0
  -29.6238  -13.4805   17.7331 H   0  0  0  0  0  0
  -27.8937  -11.2906   18.9203 H   0  0  0  0  0  0
  -27.3647  -12.5358   17.8175 H   0  0  0  0  0  0
  -27.6465  -14.2632   19.4992 H   0  0  0  0  0  0
  -28.7216  -12.1634   21.4456 H   0  0  0  0  0  0
  -28.4275  -13.8440   21.8104 H   0  0  0  0  0  0
  -25.2786   -9.5710   22.4779 H   0  0  0  0  0  0
  -24.0038   -7.4656   22.7473 H   0  0  0  0  0  0
  -21.0874   -8.8823   19.8950 H   0  0  0  0  0  0
  -22.3747  -10.9724   19.6194 H   0  0  0  0  0  0
  -21.2001   -7.6165   23.9748 H   0  0  0  0  0  0
  -21.1472   -6.0524   25.9093 H   0  0  0  0  0  0
  -22.0592   -2.7630   23.2827 H   0  0  0  0  0  0
  -22.4084  -11.9864   22.4789 H   0  0  0  0  0  0
  -21.1120  -13.1272   22.2671 H   0  0  0  0  0  0
  -24.6494  -15.8428   20.5474 H   0  0  0  0  0  0
  -26.2759  -15.6472   20.1307 H   0  0  0  0  0  0
  -26.7206  -32.5332   23.1037 H   0  0  0  0  0  0
  -25.0086  -33.9656   25.0384 H   0  0  0  0  0  0
  -22.7262  -31.2981   21.3880 H   0  0  0  0  0  0
  -23.3744  -35.9631   23.3284 H   0  0  0  0  0  0
  -24.3593  -36.8929   22.2074 H   0  0  0  0  0  0
  -23.7276  -37.6484   23.6692 H   0  0  0  0  0  0
  -26.1185  -31.5151   20.6071 H   0  0  0  0  0  0
  -26.8546  -30.8009   22.0108 H   0  0  0  0  0  0
  -28.1114  -28.8999   21.2100 H   0  0  0  0  0  0
  -25.9207  -25.8960   18.9940 H   0  0  0  0  0  0
  -23.9671  -27.2933   19.0132 H   0  0  0  0  0  0
  -23.7732  -30.5817   19.3993 H   0  0  0  0  0  0
  -22.7624  -29.2434   19.8501 H   0  0  0  0  0  0
  -25.1284  -36.1862   25.0834 H   0  0  0  0  0  0
  -20.9990  -28.3216   24.1369 H   0  0  0  0  0  0
  -20.5640  -26.2263   23.3586 H   0  0  0  0  0  0
  -21.6633  -26.7353   22.1196 H   0  0  0  0  0  0
  -19.6920  -25.6246   21.1236 H   0  0  0  0  0  0
  -19.6721  -27.3143   20.6729 H   0  0  0  0  0  0
  -17.4198  -26.6643   21.4022 H   0  0  0  0  0  0
  -18.0330  -26.0048   22.9006 H   0  0  0  0  0  0
  -19.7956  -30.7268   24.2202 H   0  0  0  0  0  0
  -17.5023  -31.6248   24.5136 H   0  0  0  0  0  0
  -15.5358  -30.2944   23.7681 H   0  0  0  0  0  0
  -15.8676  -28.0796   22.7062 H   0  0  0  0  0  0
  -24.5921  -30.7038   25.7807 H   0  0  0  0  0  0
  -24.8900  -32.2886   26.4869 H   0  0  0  0  0  0
  -25.8057  -30.8923   27.0255 H   0  0  0  0  0  0
  -26.2950  -29.6726   24.1272 H   0  0  0  0  0  0
  -27.4022  -29.7258   25.4793 H   0  0  0  0  0  0
  -27.8827  -30.4249   23.9504 H   0  0  0  0  0  0
  -27.2641  -33.3674   26.2004 H   0  0  0  0  0  0
  -28.3876  -32.6877   25.0347 H   0  0  0  0  0  0
  -28.0684  -31.8530   26.5480 H   0  0  0  0  0  0
  -28.2546  -38.0115   24.7479 H   0  0  0  0  0  0
  -28.1085  -36.2632   24.6284 H   0  0  0  0  0  0
  -27.2282  -37.1422   25.8868 H   0  0  0  0  0  0
  -20.9373  -29.8789   21.6909 H   0  0  0  0  0  0
  -26.0135  -38.2803   24.1418 H   0  0  0  0  0  0
  -26.7459  -22.1032   22.0884 H   0  0  0  0  0  0
  -28.2341  -18.0988   24.5798 H   0  0  0  0  0  0
  -29.6789  -18.0415   23.6653 H   0  0  0  0  0  0
  -28.2232  -17.1489   23.1232 H   0  0  0  0  0  0
  -24.2387  -17.4571   23.3458 H   0  0  0  0  0  0
  -25.5894  -18.0651   22.4053 H   0  0  0  0  0  0
  -24.1658  -19.0714   22.6582 H   0  0  0  0  0  0
  -24.6443  -21.2424   23.1543 H   0  0  0  0  0  0
  -25.6522  -22.3519   24.0594 H   0  0  0  0  0  0
  -24.4740  -21.3715   24.8947 H   0  0  0  0  0  0
  -30.0524  -15.8213   23.3175 H   0  0  0  0  0  0
  -31.2589  -16.9251   22.6024 H   0  0  0  0  0  0
  -31.5595  -15.2219   22.7098 H   0  0  0  0  0  0
  -28.2251  -21.9955   19.3580 H   0  0  0  0  0  0
  -29.8473  -21.9756   19.9498 H   0  0  0  0  0  0
  -26.0907  -18.1173   24.8331 H   0  0  0  0  0  0
  -24.6722  -19.0293   25.1714 H   0  0  0  0  0  0
  -29.4851  -23.9340   21.3769 H   0  0  0  0  0  0
  -27.7794  -23.7658   21.4211 H   0  0  0  0  0  0
  -30.0273  -19.0282   19.9047 H   0  0  0  0  0  0
  -30.7354  -18.6774   21.4238 H   0  0  0  0  0  0
  -29.3747  -16.8826   19.5649 H   0  0  0  0  0  0
  -28.3260  -16.9099   20.9069 H   0  0  0  0  0  0
  -27.6281  -19.6802   25.9026 H   0  0  0  0  0  0
  -26.3097  -20.6833   26.4191 H   0  0  0  0  0  0
  -27.5358  -24.6871   19.1058 H   0  0  0  0  0  0
  -29.2230  -24.9162   19.0290 H   0  0  0  0  0  0
  -28.5279  -21.5630   24.7199 H   0  0  0  0  0  0
  -28.4250  -21.8245   26.3351 H   0  0  0  0  0  0
  -27.3601  -22.5312   25.3207 H   0  0  0  0  0  0
  1 25  1  0  0  0
  1 30  2  0  0  0
  1 88  1  0  0  0
  2  3  1  0  0  0
  2 25  1  0  0  0
  2 90  1  0  0  0
  2 91  1  0  0  0
  3  4  1  0  0  0
  3 92  1  0  0  0
  3 93  1  0  0  0
  4  5  1  0  0  0
  4 94  1  0  0  0
  4 95  1  0  0  0
  5  6  1  0  0  0
  5 26  1  0  0  0
  5 96  1  0  0  0
  6 25  1  0  0  0
  6 97  1  0  0  0
  6 98  1  0  0  0
  7  8  2  0  0  0
  7 26  1  0  0  0
  7 29  1  0  0  0
  8  9  1  0  0  0
  8 22  1  0  0  0
  9 10  1  0  0  0
  9 27  2  0  0  0
 10 11  2  0  0  0
 10 15  1  0  0  0
 11 12  1  0  0  0
 11 99  1  0  0  0
 12 13  2  0  0  0
 12100  1  0  0  0
 13 14  1  0  0  0
 13 31  1  0  0  0
 14 15  2  0  0  0
 14101  1  0  0  0
 15102  1  0  0  0
 16 17  2  0  0  0
 16 21  1  0  0  0
 16 31  1  0  0  0
 17 18  1  0  0  0
 17103  1  0  0  0
 18 19  2  0  0  0
 18104  1  0  0  0
 19 20  1  0  0  0
 19 24  1  0  0  0
 20 21  2  0  0  0
 20105  1  0  0  0
 21 23  1  0  0  0
 22 28  1  0  0  0
 22 32  2  0  0  0
 26 27  1  0  0  0
 28106  1  0  0  0
 28107  1  0  0  0
 29108  1  0  0  0
 29109  1  0  0  0
 33 34  1  0  0  0
 33 66  1  0  0  0
 33 70  2  0  0  0
 34 36  1  0  0  0
 34 59  1  0  0  0
 34110  1  0  0  0
 35 44  2  0  0  0
 35 45  1  0  0  0
 35 68  1  0  0  0
 36 56  1  0  0  0
 36111  1  0  0  0
 37 39  1  0  0  0
 37 47  1  0  0  0
 37 66  1  0  0  0
 37112  1  0  0  0
 38 43  2  0  0  0
 38 46  1  0  0  0
 38 47  1  0  0  0
 39 64  1  0  0  0
 39 67  2  0  0  0
 40 52  1  0  0  0
 40 53  2  0  0  0
 40 58  1  0  0  0
 41113  1  0  0  0
 41114  1  0  0  0
 41115  1  0  0  0
 41 48  1  0  0  0
 42 43  1  0  0  0
 42 66  1  0  0  0
 42116  1  0  0  0
 42117  1  0  0  0
 43 44  1  0  0  0
 44118  1  0  0  0
 45 46  2  0  0  0
 45119  1  0  0  0
 46120  1  0  0  0
 47121  1  0  0  0
 47122  1  0  0  0
 48 56  1  0  0  0
 48 65  1  0  0  0
 48123  1  0  0  0
 49 50  1  0  0  0
 49 53  1  0  0  0
 49 64  1  0  0  0
 49124  1  0  0  0
 50 51  1  0  0  0
 50125  1  0  0  0
 50126  1  0  0  0
 51 52  1  0  0  0
 51127  1  0  0  0
 51128  1  0  0  0
 52129  1  0  0  0
 52130  1  0  0  0
 53 54  1  0  0  0
 54 55  2  0  0  0
 54131  1  0  0  0
 55 57  1  0  0  0
 55132  1  0  0  0
 56 69  2  0  0  0
 57 58  2  0  0  0
 57133  1  0  0  0
 58134  1  0  0  0
 59 60  1  0  0  0
 59 61  1  0  0  0
 59 62  1  0  0  0
 60135  1  0  0  0
 60136  1  0  0  0
 60137  1  0  0  0
 61138  1  0  0  0
 61139  1  0  0  0
 61140  1  0  0  0
 62141  1  0  0  0
 62142  1  0  0  0
 62143  1  0  0  0
 63 65  1  0  0  0
 63144  1  0  0  0
 63145  1  0  0  0
 63146  1  0  0  0
 64147  1  0  0  0
 65148  1  0  0  0
 68 85  1  0  0  0
 71 72  1  0  0  0
 71 73  2  0  0  0
 71149  1  0  0  0
 72 74  2  0  0  0
 72 86  1  0  0  0
 73 79  1  0  0  0
 73 87  1  0  0  0
 74 75  1  0  0  0
 74 87  1  0  0  0
 75150  1  0  0  0
 75151  1  0  0  0
 75152  1  0  0  0
 76 80  1  0  0  0
 76153  1  0  0  0
 76154  1  0  0  0
 76155  1  0  0  0
 77156  1  0  0  0
 77157  1  0  0  0
 77158  1  0  0  0
 77 86  1  0  0  0
 78 88  1  0  0  0
 78159  1  0  0  0
 78160  1  0  0  0
 78161  1  0  0  0
 79 81  1  0  0  0
 79162  1  0  0  0
 79163  1  0  0  0
 80 86  1  0  0  0
 80164  1  0  0  0
 80165  1  0  0  0
 81 85  1  0  0  0
 81166  1  0  0  0
 81167  1  0  0  0
 82 83  1  0  0  0
 82 87  1  0  0  0
 82168  1  0  0  0
 82169  1  0  0  0
 83 88  1  0  0  0
 83170  1  0  0  0
 83171  1  0  0  0
 84 86  1  0  0  0
 84 89  1  0  0  0
 84172  1  0  0  0
 84173  1  0  0  0
 85174  1  0  0  0
 85175  1  0  0  0
 89176  1  0  0  0
 89177  1  0  0  0
 89178  1  0  0  0
M  CHG  1  89   1
M  ISO  4   1 100  68 101  85 101  88 100
M  END
> <chiral flag>
0

> <version>
0

> <s_m_source_file>
/data/baiqing/PycharmProjects/Reinvent-master-3.2/result/LINK_invent/BTK/process_docking_weight1_custom_sum_contain_oxygen_bond_distance_aromatic_linkinvent_7_9_3/rearranged_h_0098.sdf

> <i_m_source_file_index>
77

> <r_mmod_Potential_Energy-OPLS-2005>
184.248519897461

> <r_mmod_Stretch_Energy-OPLS-2005>
169.277252197266

> <r_mmod_Bend_Energy-OPLS-2005>
259.210113525391

> <r_mmod_Torsional_Energy-OPLS-2005>
353.658752441406

> <r_mmod_Improper_Torsional_Energy-OPLS-2005>
4.25798654556274

> <r_mmod_Van_der_Waal_Energy-OPLS-2005>
132.86457824707

> <r_mmod_Electrostatic_Energy-OPLS-2005>
-368.310699462891

> <r_mmod_Solvation_Energy-OPLS-2005>
-446.799682617188

> <b_mmod_Minimization_Converged-OPLS-2005>
0

> <r_mmod_RMS_Derivative-OPLS-2005>
2.39295864105225

$$$$
80
                    3D
 Structure written by MMmdl.
152159  0  0  1  0            999 V2000
  -30.3519  -15.6018   20.3407 C   0  0  0  0  0  0
  -30.4481  -13.0681   19.5145 C   0  0  0  0  0  0
  -29.5616  -12.6595   18.3076 C   0  0  0  0  0  0
  -28.1229  -12.3190   18.7458 C   0  0  0  0  0  0
  -27.6137  -13.2964   19.8308 C   0  0  2  0  0  0
  -28.6578  -13.5886   20.9366 C   0  0  0  0  0  0
  -25.2360  -13.8188   20.5809 C   0  0  0  0  0  0
  -24.1777  -13.0383   20.9346 C   0  0  0  0  0  0
  -24.6505  -11.6905   20.8876 C   0  0  0  0  0  0
  -23.9181  -10.4272   21.0459 C   0  0  0  0  0  0
  -24.3684   -9.4153   21.9230 C   0  0  0  0  0  0
  -23.6322   -8.2204   22.0773 C   0  0  0  0  0  0
  -22.4296   -8.0293   21.3548 C   0  0  0  0  0  0
  -21.9961   -9.0282   20.4643 C   0  0  0  0  0  0
  -22.7359  -10.2137   20.3087 C   0  0  0  0  0  0
  -21.6842   -6.0763   22.5301 C   0  0  0  0  0  0
  -21.3977   -6.5640   23.8230 C   0  0  0  0  0  0
  -21.3673   -5.6793   24.9192 C   0  0  0  0  0  0
  -21.6071   -4.3055   24.7218 C   0  0  0  0  0  0
  -21.8815   -3.8159   23.4325 C   0  0  0  0  0  0
  -21.9172   -4.6985   22.3391 C   0  0  0  0  0  0
  -22.7782  -13.5117   21.1921 C   0  0  0  0  0  0
  -22.1660   -4.2175   21.0983 F   0  0  0  0  0  0
  -21.5631   -3.4546   25.7731 F   0  0  0  0  0  0
  -29.8175  -14.2389   20.2689 N   0  0  0  0  0  0
  -26.2901  -12.9576   20.3395 N   0  0  0  0  0  0
  -25.9470  -11.6654   20.5881 N   0  0  0  0  0  0
  -22.0357  -12.8176   22.0467 N   0  0  0  0  0  0
  -25.3707  -15.1933   20.4082 N   0  0  0  0  0  0
  -31.5899  -15.5304   20.2181 O   0  0  0  0  0  0
  -21.6635   -6.8904   21.4265 O   0  0  0  0  0  0
  -22.3503  -14.5424   20.6725 O   0  0  0  0  0  0
  -24.6832  -31.8017   23.1548 C   0  0  0  0  0  0
  -25.9430  -32.4474   23.8067 C   0  0  1  0  0  0
  -27.2383  -26.7560   20.1942 C   0  0  0  0  0  0
  -25.6025  -33.8295   24.1971 N   0  0  0  0  0  0
  -23.5048  -30.4043   21.5100 C   0  0  2  0  0  0
  -24.9602  -28.7581   20.1164 C   0  0  0  0  0  0
  -22.7752  -29.4313   22.4733 C   0  0  0  0  0  0
  -18.0339  -28.1438   22.8471 C   0  0  0  0  0  0
  -24.1501  -36.7156   23.2654 C   0  0  0  0  0  0
  -26.0838  -30.5532   21.4079 C   0  0  0  0  0  0
  -26.1489  -29.1249   20.7539 C   0  0  0  0  0  0
  -27.2746  -28.1517   20.7589 C   0  0  0  0  0  0
  -26.0100  -26.5804   19.5094 C   0  0  0  0  0  0
  -24.9265  -27.5113   19.4683 C   0  0  0  0  0  0
  -23.7521  -29.7055   20.1422 C   0  0  0  0  0  0
  -25.4151  -36.2896   24.0284 C   0  0  1  0  0  0
  -20.5982  -28.3769   23.1179 C   0  0  2  0  0  0
  -20.6798  -26.9416   22.5414 C   0  0  0  0  0  0
  -19.5770  -26.6401   21.5210 C   0  0  0  0  0  0
  -18.1952  -26.7983   22.1614 C   0  0  0  0  0  0
  -19.1617  -28.8931   23.2807 C   0  0  0  0  0  0
  -18.9534  -30.1522   23.8853 C   0  0  0  0  0  0
  -17.6523  -30.6622   24.0603 C   0  0  0  0  0  0
  -25.9129  -34.9284   23.4959 C   0  0  0  0  0  0
  -16.5406  -29.9111   23.6407 C   0  0  0  0  0  0
  -16.7331  -28.6530   23.0402 C   0  0  0  0  0  0
  -26.4627  -31.6503   25.0683 C   0  0  0  0  0  0
  -25.3708  -31.3765   26.1292 C   0  0  0  0  0  0
  -27.0564  -30.2867   24.6524 C   0  0  0  0  0  0
  -27.6091  -32.4342   25.7504 C   0  0  0  0  0  0
  -27.5563  -37.1726   24.8463 C   0  0  0  0  0  0
  -21.4399  -29.3033   22.3482 N   0  0  0  0  0  0
  -26.4278  -37.3655   23.9396 N   0  0  0  0  0  0
  -24.7800  -30.9517   22.0761 N   0  0  0  0  0  0
  -23.4220  -28.7864   23.3015 O   0  0  0  0  0  0
  -28.2378  -25.5829   20.2549 O   0  0  0  0  0  0
  -26.5734  -34.8866   22.4564 O   0  0  0  0  0  0
  -23.5873  -32.1013   23.6590 O   0  0  0  0  0  0
  -30.2387  -22.4868   19.2132 C   0  0  0  0  0  0
  -29.7755  -22.4527   21.6693 C   0  0  0  0  0  0
  -28.1563  -16.8407   20.2809 C   0  0  0  0  0  0
  -29.8896  -18.7204   20.3857 C   0  0  0  0  0  0
  -28.0863  -23.8538   20.1272 C   0  0  0  0  0  0
  -28.8809  -20.3503   20.2243 C   0  0  2  0  0  0
  -29.1430  -22.2576   20.2816 C   0  0  0  0  0  0
  -29.6043  -16.9763   20.3499 N   0  0  0  0  0  0
  -27.9421  -20.1838   21.1566 F   0  0  0  0  0  0
  -31.4304  -13.3510   19.1307 H   0  0  0  0  0  0
  -30.6370  -12.2159   20.1694 H   0  0  0  0  0  0
  -30.0115  -11.8168   17.7840 H   0  0  0  0  0  0
  -29.5427  -13.4844   17.5914 H   0  0  0  0  0  0
  -28.1214  -11.3032   19.1413 H   0  0  0  0  0  0
  -27.4491  -12.3206   17.8878 H   0  0  0  0  0  0
  -27.4718  -14.2241   19.2860 H   0  0  0  0  0  0
  -28.9410  -12.6756   21.4648 H   0  0  0  0  0  0
  -28.2530  -14.2476   21.7015 H   0  0  0  0  0  0
  -25.2794   -9.5616   22.4881 H   0  0  0  0  0  0
  -24.0006   -7.4564   22.7481 H   0  0  0  0  0  0
  -21.0882   -8.8864   19.8925 H   0  0  0  0  0  0
  -22.3841  -10.9727   19.6236 H   0  0  0  0  0  0
  -21.1988   -7.6149   23.9749 H   0  0  0  0  0  0
  -21.1506   -6.0513   25.9100 H   0  0  0  0  0  0
  -22.0588   -2.7624   23.2836 H   0  0  0  0  0  0
  -22.3881  -11.9893   22.5025 H   0  0  0  0  0  0
  -21.0956  -13.1281   22.2484 H   0  0  0  0  0  0
  -24.5724  -15.8097   20.5129 H   0  0  0  0  0  0
  -26.1854  -15.6564   20.0328 H   0  0  0  0  0  0
  -26.7525  -32.4942   23.0788 H   0  0  0  0  0  0
  -25.0161  -33.9332   25.0111 H   0  0  0  0  0  0
  -22.8289  -31.2431   21.3284 H   0  0  0  0  0  0
  -23.3786  -35.9463   23.3262 H   0  0  0  0  0  0
  -24.3564  -36.8871   22.2080 H   0  0  0  0  0  0
  -23.7232  -37.6312   23.6753 H   0  0  0  0  0  0
  -26.2875  -31.2870   20.6254 H   0  0  0  0  0  0
  -26.9369  -30.6088   22.0713 H   0  0  0  0  0  0
  -28.1750  -28.4430   21.2806 H   0  0  0  0  0  0
  -25.8550  -25.6333   19.0128 H   0  0  0  0  0  0
  -24.0265  -27.2251   18.9410 H   0  0  0  0  0  0
  -23.9171  -30.4663   19.3776 H   0  0  0  0  0  0
  -22.8562  -29.1701   19.8248 H   0  0  0  0  0  0
  -25.1353  -36.1662   25.0772 H   0  0  0  0  0  0
  -21.0059  -28.3365   24.1303 H   0  0  0  0  0  0
  -20.5695  -26.2349   23.3645 H   0  0  0  0  0  0
  -21.6658  -26.7363   22.1205 H   0  0  0  0  0  0
  -19.6937  -25.6313   21.1246 H   0  0  0  0  0  0
  -19.6760  -27.3206   20.6744 H   0  0  0  0  0  0
  -17.4205  -26.6738   21.4038 H   0  0  0  0  0  0
  -18.0361  -26.0136   22.9014 H   0  0  0  0  0  0
  -19.8009  -30.7367   24.2175 H   0  0  0  0  0  0
  -17.5095  -31.6319   24.5191 H   0  0  0  0  0  0
  -15.5412  -30.3014   23.7812 H   0  0  0  0  0  0
  -15.8707  -28.0854   22.7160 H   0  0  0  0  0  0
  -24.5939  -30.7091   25.7538 H   0  0  0  0  0  0
  -24.8880  -32.2986   26.4542 H   0  0  0  0  0  0
  -25.7922  -30.9010   27.0166 H   0  0  0  0  0  0
  -26.3292  -29.6491   24.1520 H   0  0  0  0  0  0
  -27.4030  -29.7270   25.5215 H   0  0  0  0  0  0
  -27.9232  -30.4007   24.0027 H   0  0  0  0  0  0
  -27.2658  -33.3716   26.1879 H   0  0  0  0  0  0
  -28.4030  -32.6782   25.0433 H   0  0  0  0  0  0
  -28.0626  -31.8602   26.5587 H   0  0  0  0  0  0
  -28.2539  -38.0059   24.7529 H   0  0  0  0  0  0
  -28.1112  -36.2586   24.6286 H   0  0  0  0  0  0
  -27.2279  -37.1345   25.8865 H   0  0  0  0  0  0
  -20.9672  -29.8686   21.6547 H   0  0  0  0  0  0
  -26.0115  -38.2703   24.1423 H   0  0  0  0  0  0
  -30.6801  -23.4835   19.2936 H   0  0  0  0  0  0
  -29.8463  -22.3964   18.1988 H   0  0  0  0  0  0
  -31.0603  -21.7736   19.3045 H   0  0  0  0  0  0
  -30.2161  -23.4469   21.7733 H   0  0  0  0  0  0
  -30.5658  -21.7237   21.8633 H   0  0  0  0  0  0
  -29.0260  -22.3378   22.4515 H   0  0  0  0  0  0
  -27.7802  -16.3091   21.1540 H   0  0  0  0  0  0
  -27.8906  -16.3097   19.3702 H   0  0  0  0  0  0
  -27.6336  -17.7950   20.2413 H   0  0  0  0  0  0
  -30.3652  -18.8341   21.3606 H   0  0  0  0  0  0
  -30.7219  -18.8523   19.6930 H   0  0  0  0  0  0
  -27.2472  -23.6662   20.8002 H   0  0  0  0  0  0
  -27.6344  -23.7528   19.1414 H   0  0  0  0  0  0
  -28.3469  -20.2066   19.2833 H   0  0  0  0  0  0
  1 25  1  0  0  0
  1 30  2  0  0  0
  1 78  1  0  0  0
  2  3  1  0  0  0
  2 25  1  0  0  0
  2 80  1  0  0  0
  2 81  1  0  0  0
  3  4  1  0  0  0
  3 82  1  0  0  0
  3 83  1  0  0  0
  4  5  1  0  0  0
  4 84  1  0  0  0
  4 85  1  0  0  0
  5  6  1  0  0  0
  5 26  1  0  0  0
  5 86  1  0  0  0
  6 25  1  0  0  0
  6 87  1  0  0  0
  6 88  1  0  0  0
  7  8  2  0  0  0
  7 26  1  0  0  0
  7 29  1  0  0  0
  8  9  1  0  0  0
  8 22  1  0  0  0
  9 10  1  0  0  0
  9 27  2  0  0  0
 10 11  2  0  0  0
 10 15  1  0  0  0
 11 12  1  0  0  0
 11 89  1  0  0  0
 12 13  2  0  0  0
 12 90  1  0  0  0
 13 14  1  0  0  0
 13 31  1  0  0  0
 14 15  2  0  0  0
 14 91  1  0  0  0
 15 92  1  0  0  0
 16 17  2  0  0  0
 16 21  1  0  0  0
 16 31  1  0  0  0
 17 18  1  0  0  0
 17 93  1  0  0  0
 18 19  2  0  0  0
 18 94  1  0  0  0
 19 20  1  0  0  0
 19 24  1  0  0  0
 20 21  2  0  0  0
 20 95  1  0  0  0
 21 23  1  0  0  0
 22 28  1  0  0  0
 22 32  2  0  0  0
 26 27  1  0  0  0
 28 96  1  0  0  0
 28 97  1  0  0  0
 29 98  1  0  0  0
 29 99  1  0  0  0
 33 34  1  0  0  0
 33 66  1  0  0  0
 33 70  2  0  0  0
 34 36  1  0  0  0
 34 59  1  0  0  0
 34100  1  0  0  0
 35 44  2  0  0  0
 35 45  1  0  0  0
 35 68  1  0  0  0
 36 56  1  0  0  0
 36101  1  0  0  0
 37 39  1  0  0  0
 37 47  1  0  0  0
 37 66  1  0  0  0
 37102  1  0  0  0
 38 43  2  0  0  0
 38 46  1  0  0  0
 38 47  1  0  0  0
 39 64  1  0  0  0
 39 67  2  0  0  0
 40 52  1  0  0  0
 40 53  2  0  0  0
 40 58  1  0  0  0
 41103  1  0  0  0
 41104  1  0  0  0
 41105  1  0  0  0
 41 48  1  0  0  0
 42 43  1  0  0  0
 42 66  1  0  0  0
 42106  1  0  0  0
 42107  1  0  0  0
 43 44  1  0  0  0
 44108  1  0  0  0
 45 46  2  0  0  0
 45109  1  0  0  0
 46110  1  0  0  0
 47111  1  0  0  0
 47112  1  0  0  0
 48 56  1  0  0  0
 48 65  1  0  0  0
 48113  1  0  0  0
 49 50  1  0  0  0
 49 53  1  0  0  0
 49 64  1  0  0  0
 49114  1  0  0  0
 50 51  1  0  0  0
 50115  1  0  0  0
 50116  1  0  0  0
 51 52  1  0  0  0
 51117  1  0  0  0
 51118  1  0  0  0
 52119  1  0  0  0
 52120  1  0  0  0
 53 54  1  0  0  0
 54 55  2  0  0  0
 54121  1  0  0  0
 55 57  1  0  0  0
 55122  1  0  0  0
 56 69  2  0  0  0
 57 58  2  0  0  0
 57123  1  0  0  0
 58124  1  0  0  0
 59 60  1  0  0  0
 59 61  1  0  0  0
 59 62  1  0  0  0
 60125  1  0  0  0
 60126  1  0  0  0
 60127  1  0  0  0
 61128  1  0  0  0
 61129  1  0  0  0
 61130  1  0  0  0
 62131  1  0  0  0
 62132  1  0  0  0
 62133  1  0  0  0
 63 65  1  0  0  0
 63134  1  0  0  0
 63135  1  0  0  0
 63136  1  0  0  0
 64137  1  0  0  0
 65138  1  0  0  0
 68 75  1  0  0  0
 71139  1  0  0  0
 71140  1  0  0  0
 71141  1  0  0  0
 71 77  1  0  0  0
 72 77  1  0  0  0
 72142  1  0  0  0
 72143  1  0  0  0
 72144  1  0  0  0
 73 78  1  0  0  0
 73145  1  0  0  0
 73146  1  0  0  0
 73147  1  0  0  0
 74 76  1  0  0  0
 74 78  1  0  0  0
 74148  1  0  0  0
 74149  1  0  0  0
 75 77  1  0  0  0
 75150  1  0  0  0
 75151  1  0  0  0
 76 77  1  0  0  0
 76 79  1  0  0  0
 76152  1  0  0  0
M  ISO  4   1 100  68 101  75 101  78 100
M  END
> <chiral flag>
0

> <version>
0

> <s_m_source_file>
/data/baiqing/PycharmProjects/Reinvent-master-3.2/result/LINK_invent/BTK/process_docking_weight1_custom_sum_contain_oxygen_bond_distance_aromatic_linkinvent_7_9_3/rearranged_h_0098.sdf

> <i_m_source_file_index>
78

> <r_mmod_Potential_Energy-OPLS-2005>
2419.38354492188

> <r_mmod_Stretch_Energy-OPLS-2005>
1108.42993164062

> <r_mmod_Bend_Energy-OPLS-2005>
607.8349609375

> <r_mmod_Torsional_Energy-OPLS-2005>
282.609893798828

> <r_mmod_Improper_Torsional_Energy-OPLS-2005>
4.28802680969238

> <r_mmod_Van_der_Waal_Energy-OPLS-2005>
110.282341003418

> <r_mmod_Electrostatic_Energy-OPLS-2005>
-299.138824462891

> <r_mmod_Solvation_Energy-OPLS-2005>
-204.141723632812

> <b_mmod_Minimization_Converged-OPLS-2005>
0

> <r_mmod_RMS_Derivative-OPLS-2005>
5.52258777618408

$$$$
81
                    3D
 Structure written by MMmdl.
169177  0  0  1  0            999 V2000
  -30.6150  -14.7249   20.4581 C   0  0  0  0  0  0
  -30.4347  -12.4387   19.4842 C   0  0  0  0  0  0
  -29.5151  -12.5112   18.2443 C   0  0  0  0  0  0
  -28.0401  -12.3391   18.6535 C   0  0  0  0  0  0
  -27.6485  -13.2299   19.8631 C   0  0  2  0  0  0
  -28.6911  -13.1487   21.0020 C   0  0  0  0  0  0
  -25.2526  -13.8204   20.5696 C   0  0  0  0  0  0
  -24.1813  -13.0445   20.9198 C   0  0  0  0  0  0
  -24.6404  -11.6924   20.8749 C   0  0  0  0  0  0
  -23.9080  -10.4295   21.0409 C   0  0  0  0  0  0
  -24.3625   -9.4206   21.9188 C   0  0  0  0  0  0
  -23.6294   -8.2242   22.0759 C   0  0  0  0  0  0
  -22.4278   -8.0282   21.3541 C   0  0  0  0  0  0
  -21.9915   -9.0262   20.4644 C   0  0  0  0  0  0
  -22.7249  -10.2141   20.3055 C   0  0  0  0  0  0
  -21.6856   -6.0732   22.5274 C   0  0  0  0  0  0
  -21.4012   -6.5639   23.8204 C   0  0  0  0  0  0
  -21.3659   -5.6793   24.9166 C   0  0  0  0  0  0
  -21.6047   -4.3055   24.7224 C   0  0  0  0  0  0
  -21.8819   -3.8143   23.4345 C   0  0  0  0  0  0
  -21.9189   -4.6957   22.3397 C   0  0  0  0  0  0
  -22.7830  -13.5221   21.1850 C   0  0  0  0  0  0
  -22.1658   -4.2140   21.0977 F   0  0  0  0  0  0
  -21.5632   -3.4542   25.7741 F   0  0  0  0  0  0
  -30.0000  -13.4933   20.4311 N   0  0  0  0  0  0
  -26.2971  -12.9408   20.3331 N   0  0  0  0  0  0
  -25.9343  -11.6552   20.5784 N   0  0  0  0  0  0
  -22.0475  -12.8215   22.0409 N   0  0  0  0  0  0
  -25.4216  -15.1929   20.4109 N   0  0  0  0  0  0
  -31.7824  -14.8339   20.0749 O   0  0  0  0  0  0
  -21.6641   -6.8877   21.4239 O   0  0  0  0  0  0
  -22.3502  -14.5513   20.6683 O   0  0  0  0  0  0
  -24.6305  -31.8554   23.1986 C   0  0  0  0  0  0
  -25.9131  -32.4756   23.8336 C   0  0  1  0  0  0
  -27.2170  -27.2621   20.1444 C   0  0  0  0  0  0
  -25.5927  -33.8560   24.2260 N   0  0  0  0  0  0
  -23.4290  -30.4781   21.5393 C   0  0  2  0  0  0
  -24.8803  -28.9283   20.1042 C   0  0  0  0  0  0
  -22.7509  -29.4595   22.4880 C   0  0  0  0  0  0
  -18.0299  -28.1387   22.8490 C   0  0  0  0  0  0
  -24.1475  -36.7281   23.2644 C   0  0  0  0  0  0
  -25.9742  -30.7668   21.3826 C   0  0  0  0  0  0
  -26.0474  -29.3891   20.7283 C   0  0  0  0  0  0
  -27.2196  -28.5668   20.7425 C   0  0  0  0  0  0
  -26.0491  -26.8942   19.4426 C   0  0  0  0  0  0
  -24.8857  -27.6880   19.4476 C   0  0  0  0  0  0
  -23.6492  -29.8129   20.1538 C   0  0  0  0  0  0
  -25.4104  -36.3075   24.0331 C   0  0  1  0  0  0
  -20.5905  -28.3693   23.1260 C   0  0  2  0  0  0
  -20.6770  -26.9406   22.5405 C   0  0  0  0  0  0
  -19.5739  -26.6379   21.5212 C   0  0  0  0  0  0
  -18.1927  -26.7930   22.1633 C   0  0  0  0  0  0
  -19.1556  -28.8860   23.2870 C   0  0  0  0  0  0
  -18.9479  -30.1460   23.8890 C   0  0  0  0  0  0
  -17.6479  -30.6589   24.0567 C   0  0  0  0  0  0
  -25.9047  -34.9448   23.5101 C   0  0  0  0  0  0
  -16.5366  -29.9089   23.6331 C   0  0  0  0  0  0
  -16.7287  -28.6506   23.0356 C   0  0  0  0  0  0
  -26.4503  -31.6585   25.0735 C   0  0  0  0  0  0
  -25.3729  -31.3741   26.1457 C   0  0  0  0  0  0
  -27.0353  -30.3000   24.6231 C   0  0  0  0  0  0
  -27.6049  -32.4332   25.7511 C   0  0  0  0  0  0
  -27.5570  -37.1800   24.8472 C   0  0  0  0  0  0
  -21.4211  -29.3040   22.3642 N   0  0  0  0  0  0
  -26.4277  -37.3775   23.9418 N   0  0  0  0  0  0
  -24.6963  -31.0523   22.0960 N   0  0  0  0  0  0
  -23.4206  -28.8140   23.2986 O   0  0  0  0  0  0
  -28.2837  -26.3339   20.2045 O   0  0  0  0  0  0
  -26.5622  -34.8928   22.4667 O   0  0  0  0  0  0
  -23.5453  -32.1373   23.7278 O   0  0  0  0  0  0
  -28.9493  -19.6824   20.1448 C   0  0  0  0  0  0
  -29.7871  -18.6364   20.5423 C   0  0  0  0  0  0
  -30.6008  -19.2381   21.5570 C   0  0  0  0  0  0
  -30.2433  -20.5691   21.7092 C   0  0  0  0  0  0
  -30.7947  -21.5996   22.6488 C   0  0  0  0  0  0
  -34.1595  -18.1355   22.7263 C   0  0  0  0  0  0
  -33.3419  -18.4595   20.3593 C   0  0  0  0  0  0
  -26.6563  -24.6579   21.3048 C   0  0  0  0  0  0
  -31.6894  -18.5219   22.3278 C   0  0  0  0  0  0
  -29.9333  -17.1745   19.9165 C   0  0  0  0  0  0
  -28.8559  -23.6331   20.3204 C   0  0  0  0  0  0
  -28.3665  -22.1760   20.8546 C   0  0  0  0  0  0
  -33.1198  -18.8310   21.8353 C   0  0  0  0  0  0
  -28.1100  -24.9797   20.8744 C   0  0  1  0  0  0
  -29.1968  -20.8875   20.8468 N   0  0  0  0  0  0
  -29.8354  -15.8502   20.6677 N   0  0  0  0  0  0
  -31.4771  -12.5567   19.1823 H   0  0  0  0  0  0
  -30.3712  -11.4561   19.9545 H   0  0  0  0  0  0
  -29.7948  -11.7440   17.5210 H   0  0  0  0  0  0
  -29.6484  -13.4701   17.7405 H   0  0  0  0  0  0
  -27.8927  -11.2883   18.9059 H   0  0  0  0  0  0
  -27.3850  -12.5432   17.8055 H   0  0  0  0  0  0
  -27.6488  -14.2554   19.4948 H   0  0  0  0  0  0
  -28.7189  -12.1488   21.4370 H   0  0  0  0  0  0
  -28.4297  -13.8258   21.8169 H   0  0  0  0  0  0
  -25.2780   -9.5673   22.4754 H   0  0  0  0  0  0
  -24.0000   -7.4631   22.7484 H   0  0  0  0  0  0
  -21.0841   -8.8784   19.8955 H   0  0  0  0  0  0
  -22.3713  -10.9679   19.6153 H   0  0  0  0  0  0
  -21.2006   -7.6148   23.9701 H   0  0  0  0  0  0
  -21.1483   -6.0527   25.9067 H   0  0  0  0  0  0
  -22.0600   -2.7607   23.2850 H   0  0  0  0  0  0
  -22.4111  -11.9893   22.4821 H   0  0  0  0  0  0
  -21.1083  -13.1221   22.2602 H   0  0  0  0  0  0
  -24.6549  -15.8479   20.5215 H   0  0  0  0  0  0
  -26.2684  -15.6350   20.0788 H   0  0  0  0  0  0
  -26.7199  -32.5414   23.1078 H   0  0  0  0  0  0
  -25.0071  -33.9684   25.0405 H   0  0  0  0  0  0
  -22.7254  -31.3003   21.3925 H   0  0  0  0  0  0
  -23.3740  -35.9610   23.3307 H   0  0  0  0  0  0
  -24.3566  -36.8901   22.2058 H   0  0  0  0  0  0
  -23.7226  -37.6487   23.6657 H   0  0  0  0  0  0
  -26.1140  -31.5243   20.6106 H   0  0  0  0  0  0
  -26.8507  -30.8171   22.0164 H   0  0  0  0  0  0
  -28.1082  -28.9080   21.2550 H   0  0  0  0  0  0
  -26.0213  -25.9501   18.9179 H   0  0  0  0  0  0
  -24.0012  -27.3382   18.9339 H   0  0  0  0  0  0
  -23.7735  -30.5897   19.3982 H   0  0  0  0  0  0
  -22.7688  -29.2456   19.8474 H   0  0  0  0  0  0
  -25.1280  -36.1923   25.0826 H   0  0  0  0  0  0
  -21.0008  -28.3269   24.1377 H   0  0  0  0  0  0
  -20.5651  -26.2307   23.3613 H   0  0  0  0  0  0
  -21.6637  -26.7405   22.1213 H   0  0  0  0  0  0
  -19.6887  -25.6288   21.1246 H   0  0  0  0  0  0
  -19.6675  -27.3188   20.6740 H   0  0  0  0  0  0
  -17.4192  -26.6690   21.4037 H   0  0  0  0  0  0
  -18.0322  -26.0072   22.9029 H   0  0  0  0  0  0
  -19.7957  -30.7278   24.2251 H   0  0  0  0  0  0
  -17.5037  -31.6274   24.5159 H   0  0  0  0  0  0
  -15.5368  -30.2992   23.7659 H   0  0  0  0  0  0
  -15.8685  -28.0825   22.7067 H   0  0  0  0  0  0
  -24.5905  -30.7083   25.7803 H   0  0  0  0  0  0
  -24.8918  -32.2910   26.4870 H   0  0  0  0  0  0
  -25.8060  -30.8942   27.0242 H   0  0  0  0  0  0
  -26.2948  -29.6750   24.1227 H   0  0  0  0  0  0
  -27.3997  -29.7269   25.4768 H   0  0  0  0  0  0
  -27.8839  -30.4267   23.9505 H   0  0  0  0  0  0
  -27.2644  -33.3630   26.2077 H   0  0  0  0  0  0
  -28.3872  -32.6893   25.0357 H   0  0  0  0  0  0
  -28.0697  -31.8463   26.5444 H   0  0  0  0  0  0
  -28.2601  -38.0082   24.7508 H   0  0  0  0  0  0
  -28.1048  -36.2619   24.6301 H   0  0  0  0  0  0
  -27.2288  -37.1459   25.8875 H   0  0  0  0  0  0
  -20.9390  -29.8789   21.6878 H   0  0  0  0  0  0
  -26.0156  -38.2853   24.1420 H   0  0  0  0  0  0
  -28.1645  -19.6728   19.3997 H   0  0  0  0  0  0
  -31.5374  -21.1727   23.3229 H   0  0  0  0  0  0
  -30.0130  -22.0364   23.2702 H   0  0  0  0  0  0
  -31.2828  -22.4041   22.0983 H   0  0  0  0  0  0
  -35.1755  -18.3618   22.4008 H   0  0  0  0  0  0
  -34.0386  -17.0518   22.7082 H   0  0  0  0  0  0
  -34.0696  -18.4597   23.7635 H   0  0  0  0  0  0
  -34.3563  -18.7008   20.0388 H   0  0  0  0  0  0
  -32.6635  -19.0071   19.7047 H   0  0  0  0  0  0
  -33.1832  -17.3946   20.1873 H   0  0  0  0  0  0
  -26.1664  -25.5097   21.7751 H   0  0  0  0  0  0
  -26.0451  -24.3254   20.4675 H   0  0  0  0  0  0
  -26.6173  -23.8716   22.0556 H   0  0  0  0  0  0
  -31.5065  -17.4477   22.2847 H   0  0  0  0  0  0
  -31.5912  -18.7919   23.3804 H   0  0  0  0  0  0
  -30.8852  -17.1821   19.3860 H   0  0  0  0  0  0
  -29.1908  -17.1120   19.1203 H   0  0  0  0  0  0
  -29.9229  -23.7391   20.5189 H   0  0  0  0  0  0
  -28.7733  -23.6204   19.2341 H   0  0  0  0  0  0
  -27.4236  -21.9461   20.3568 H   0  0  0  0  0  0
  -28.0931  -22.3016   21.9010 H   0  0  0  0  0  0
  -33.2796  -19.9063   21.9281 H   0  0  0  0  0  0
  -28.6080  -25.1575   21.8282 H   0  0  0  0  0  0
  -28.9259  -15.6572   21.0581 H   0  0  0  0  0  0
  1 25  1  0  0  0
  1 30  2  0  0  0
  1 86  1  0  0  0
  2  3  1  0  0  0
  2 25  1  0  0  0
  2 87  1  0  0  0
  2 88  1  0  0  0
  3  4  1  0  0  0
  3 89  1  0  0  0
  3 90  1  0  0  0
  4  5  1  0  0  0
  4 91  1  0  0  0
  4 92  1  0  0  0
  5  6  1  0  0  0
  5 26  1  0  0  0
  5 93  1  0  0  0
  6 25  1  0  0  0
  6 94  1  0  0  0
  6 95  1  0  0  0
  7  8  2  0  0  0
  7 26  1  0  0  0
  7 29  1  0  0  0
  8  9  1  0  0  0
  8 22  1  0  0  0
  9 10  1  0  0  0
  9 27  2  0  0  0
 10 11  2  0  0  0
 10 15  1  0  0  0
 11 12  1  0  0  0
 11 96  1  0  0  0
 12 13  2  0  0  0
 12 97  1  0  0  0
 13 14  1  0  0  0
 13 31  1  0  0  0
 14 15  2  0  0  0
 14 98  1  0  0  0
 15 99  1  0  0  0
 16 17  2  0  0  0
 16 21  1  0  0  0
 16 31  1  0  0  0
 17 18  1  0  0  0
 17100  1  0  0  0
 18 19  2  0  0  0
 18101  1  0  0  0
 19 20  1  0  0  0
 19 24  1  0  0  0
 20 21  2  0  0  0
 20102  1  0  0  0
 21 23  1  0  0  0
 22 28  1  0  0  0
 22 32  2  0  0  0
 26 27  1  0  0  0
 28103  1  0  0  0
 28104  1  0  0  0
 29105  1  0  0  0
 29106  1  0  0  0
 33 34  1  0  0  0
 33 66  1  0  0  0
 33 70  2  0  0  0
 34 36  1  0  0  0
 34 59  1  0  0  0
 34107  1  0  0  0
 35 44  2  0  0  0
 35 45  1  0  0  0
 35 68  1  0  0  0
 36 56  1  0  0  0
 36108  1  0  0  0
 37 39  1  0  0  0
 37 47  1  0  0  0
 37 66  1  0  0  0
 37109  1  0  0  0
 38 43  2  0  0  0
 38 46  1  0  0  0
 38 47  1  0  0  0
 39 64  1  0  0  0
 39 67  2  0  0  0
 40 52  1  0  0  0
 40 53  2  0  0  0
 40 58  1  0  0  0
 41110  1  0  0  0
 41111  1  0  0  0
 41112  1  0  0  0
 41 48  1  0  0  0
 42 43  1  0  0  0
 42 66  1  0  0  0
 42113  1  0  0  0
 42114  1  0  0  0
 43 44  1  0  0  0
 44115  1  0  0  0
 45 46  2  0  0  0
 45116  1  0  0  0
 46117  1  0  0  0
 47118  1  0  0  0
 47119  1  0  0  0
 48 56  1  0  0  0
 48 65  1  0  0  0
 48120  1  0  0  0
 49 50  1  0  0  0
 49 53  1  0  0  0
 49 64  1  0  0  0
 49121  1  0  0  0
 50 51  1  0  0  0
 50122  1  0  0  0
 50123  1  0  0  0
 51 52  1  0  0  0
 51124  1  0  0  0
 51125  1  0  0  0
 52126  1  0  0  0
 52127  1  0  0  0
 53 54  1  0  0  0
 54 55  2  0  0  0
 54128  1  0  0  0
 55 57  1  0  0  0
 55129  1  0  0  0
 56 69  2  0  0  0
 57 58  2  0  0  0
 57130  1  0  0  0
 58131  1  0  0  0
 59 60  1  0  0  0
 59 61  1  0  0  0
 59 62  1  0  0  0
 60132  1  0  0  0
 60133  1  0  0  0
 60134  1  0  0  0
 61135  1  0  0  0
 61136  1  0  0  0
 61137  1  0  0  0
 62138  1  0  0  0
 62139  1  0  0  0
 62140  1  0  0  0
 63 65  1  0  0  0
 63141  1  0  0  0
 63142  1  0  0  0
 63143  1  0  0  0
 64144  1  0  0  0
 65145  1  0  0  0
 68 84  1  0  0  0
 71 72  2  0  0  0
 71 85  1  0  0  0
 71146  1  0  0  0
 72 73  1  0  0  0
 72 80  1  0  0  0
 73 74  2  0  0  0
 73 79  1  0  0  0
 74 75  1  0  0  0
 74 85  1  0  0  0
 75147  1  0  0  0
 75148  1  0  0  0
 75149  1  0  0  0
 76150  1  0  0  0
 76151  1  0  0  0
 76152  1  0  0  0
 76 83  1  0  0  0
 77 83  1  0  0  0
 77153  1  0  0  0
 77154  1  0  0  0
 77155  1  0  0  0
 78156  1  0  0  0
 78157  1  0  0  0
 78158  1  0  0  0
 78 84  1  0  0  0
 79 83  1  0  0  0
 79159  1  0  0  0
 79160  1  0  0  0
 80 86  1  0  0  0
 80161  1  0  0  0
 80162  1  0  0  0
 81 82  1  0  0  0
 81 84  1  0  0  0
 81163  1  0  0  0
 81164  1  0  0  0
 82 85  1  0  0  0
 82165  1  0  0  0
 82166  1  0  0  0
 83167  1  0  0  0
 84168  1  0  0  0
 86169  1  0  0  0
M  ISO  4   1 100  68 101  84 101  86 100
M  END
> <chiral flag>
0

> <version>
0

> <s_m_source_file>
/data/baiqing/PycharmProjects/Reinvent-master-3.2/result/LINK_invent/BTK/process_docking_weight1_custom_sum_contain_oxygen_bond_distance_aromatic_linkinvent_7_9_3/rearranged_h_0098.sdf

> <i_m_source_file_index>
79

> <r_mmod_Potential_Energy-OPLS-2005>
149.837829589844

> <r_mmod_Stretch_Energy-OPLS-2005>
124.788261413574

> <r_mmod_Bend_Energy-OPLS-2005>
193.705795288086

> <r_mmod_Torsional_Energy-OPLS-2005>
270.190521240234

> <r_mmod_Improper_Torsional_Energy-OPLS-2005>
9.69657897949219

> <r_mmod_Van_der_Waal_Energy-OPLS-2005>
114.458877563477

> <r_mmod_Electrostatic_Energy-OPLS-2005>
-440.293609619141

> <r_mmod_Solvation_Energy-OPLS-2005>
-206.705764770508

> <b_mmod_Minimization_Converged-OPLS-2005>
0

> <r_mmod_RMS_Derivative-OPLS-2005>
1.47065258026123

$$$$
82
                    3D
 Structure written by MMmdl.
158166  0  0  1  0            999 V2000
  -30.3889  -15.3274   20.2491 C   0  0  0  0  0  0
  -30.4540  -12.8222   19.5286 C   0  0  0  0  0  0
  -29.5593  -12.4504   18.3147 C   0  0  0  0  0  0
  -28.0817  -12.2657   18.7220 C   0  0  0  0  0  0
  -27.6069  -13.2459   19.8276 C   0  0  2  0  0  0
  -28.6480  -13.4780   20.9325 C   0  0  0  0  0  0
  -25.2417  -13.8172   20.5859 C   0  0  0  0  0  0
  -24.1730  -13.0396   20.9306 C   0  0  0  0  0  0
  -24.6348  -11.6885   20.8814 C   0  0  0  0  0  0
  -23.9045  -10.4263   21.0433 C   0  0  0  0  0  0
  -24.3602   -9.4179   21.9200 C   0  0  0  0  0  0
  -23.6284   -8.2213   22.0755 C   0  0  0  0  0  0
  -22.4270   -8.0258   21.3544 C   0  0  0  0  0  0
  -21.9903   -9.0231   20.4650 C   0  0  0  0  0  0
  -22.7223  -10.2113   20.3070 C   0  0  0  0  0  0
  -21.6844   -6.0724   22.5281 C   0  0  0  0  0  0
  -21.4002   -6.5634   23.8213 C   0  0  0  0  0  0
  -21.3658   -5.6792   24.9177 C   0  0  0  0  0  0
  -21.6046   -4.3054   24.7231 C   0  0  0  0  0  0
  -21.8818   -3.8142   23.4353 C   0  0  0  0  0  0
  -21.9189   -4.6955   22.3406 C   0  0  0  0  0  0
  -22.7756  -13.5181   21.1926 C   0  0  0  0  0  0
  -22.1659   -4.2143   21.0984 F   0  0  0  0  0  0
  -21.5635   -3.4542   25.7744 F   0  0  0  0  0  0
  -29.8632  -13.9948   20.2755 N   0  0  0  0  0  0
  -26.2808  -12.9372   20.3356 N   0  0  0  0  0  0
  -25.9281  -11.6512   20.5828 N   0  0  0  0  0  0
  -22.0389  -12.8175   22.0472 N   0  0  0  0  0  0
  -25.4073  -15.1915   20.4378 N   0  0  0  0  0  0
  -31.6295  -15.3111   20.1800 O   0  0  0  0  0  0
  -21.6629   -6.8860   21.4240 O   0  0  0  0  0  0
  -22.3462  -14.5490   20.6758 O   0  0  0  0  0  0
  -24.6619  -31.8223   23.1682 C   0  0  0  0  0  0
  -25.9302  -32.4574   23.8160 C   0  0  1  0  0  0
  -27.2309  -26.9358   20.1862 C   0  0  0  0  0  0
  -25.5972  -33.8397   24.2063 N   0  0  0  0  0  0
  -23.4776  -30.4308   21.5154 C   0  0  2  0  0  0
  -24.9339  -28.8170   20.1041 C   0  0  0  0  0  0
  -22.7665  -29.4428   22.4763 C   0  0  0  0  0  0
  -18.0324  -28.1406   22.8471 C   0  0  0  0  0  0
  -24.1495  -36.7202   23.2651 C   0  0  0  0  0  0
  -26.0440  -30.6306   21.3973 C   0  0  0  0  0  0
  -26.1118  -29.2215   20.7426 C   0  0  0  0  0  0
  -27.2484  -28.2988   20.7632 C   0  0  0  0  0  0
  -26.0285  -26.6798   19.4896 C   0  0  0  0  0  0
  -24.9176  -27.5678   19.4577 C   0  0  0  0  0  0
  -23.7165  -29.7417   20.1410 C   0  0  0  0  0  0
  -25.4135  -36.2961   24.0298 C   0  0  1  0  0  0
  -20.5952  -28.3750   23.1187 C   0  0  2  0  0  0
  -20.6795  -26.9428   22.5411 C   0  0  0  0  0  0
  -19.5771  -26.6371   21.5224 C   0  0  0  0  0  0
  -18.1951  -26.7944   22.1624 C   0  0  0  0  0  0
  -19.1587  -28.8901   23.2816 C   0  0  0  0  0  0
  -18.9499  -30.1496   23.8846 C   0  0  0  0  0  0
  -17.6491  -30.6593   24.0564 C   0  0  0  0  0  0
  -25.9103  -34.9343   23.5000 C   0  0  0  0  0  0
  -16.5380  -29.9081   23.6346 C   0  0  0  0  0  0
  -16.7307  -28.6506   23.0361 C   0  0  0  0  0  0
  -26.4557  -31.6532   25.0696 C   0  0  0  0  0  0
  -25.3686  -31.3785   26.1355 C   0  0  0  0  0  0
  -27.0449  -30.2893   24.6445 C   0  0  0  0  0  0
  -27.6037  -32.4354   25.7497 C   0  0  0  0  0  0
  -27.5562  -37.1755   24.8464 C   0  0  0  0  0  0
  -21.4334  -29.3035   22.3524 N   0  0  0  0  0  0
  -26.4271  -37.3701   23.9411 N   0  0  0  0  0  0
  -24.7488  -30.9891   22.0808 N   0  0  0  0  0  0
  -23.4212  -28.8004   23.3012 O   0  0  0  0  0  0
  -28.2513  -25.8601   20.3447 O   0  0  0  0  0  0
  -26.5720  -34.8882   22.4600 O   0  0  0  0  0  0
  -23.5688  -32.1191   23.6772 O   0  0  0  0  0  0
  -27.9829  -19.1732   19.3148 C   0  0  0  0  0  0
  -29.5689  -16.8141   20.0129 C   0  0  0  0  0  0
  -29.0697  -19.4369   20.1564 C   0  0  0  0  0  0
  -28.5753  -16.8912   18.9682 C   0  0  0  0  0  0
  -30.3775  -21.2621   21.5373 C   0  0  0  0  0  0
  -29.5286  -16.4760   16.6681 C   0  0  0  0  0  0
  -27.1681  -15.7112   17.1376 C   0  0  0  0  0  0
  -28.3413  -22.6005   20.4518 C   0  0  0  0  0  0
  -28.3863  -24.2978   19.8259 C   0  0  0  0  0  0
  -29.4044  -21.1388   20.3577 C   0  0  2  0  0  0
  -28.5670  -15.9593   17.7499 C   0  0  0  0  0  0
  -27.7807  -17.9755   18.7252 N   0  0  0  0  0  0
  -29.8334  -18.2011   20.5007 N   0  0  0  0  0  0
  -31.4611  -13.0443   19.1735 H   0  0  0  0  0  0
  -30.5667  -11.9656   20.1954 H   0  0  0  0  0  0
  -29.9227  -11.5182   17.8804 H   0  0  0  0  0  0
  -29.6675  -13.1716   17.5080 H   0  0  0  0  0  0
  -27.9903  -11.2452   19.0947 H   0  0  0  0  0  0
  -27.4312  -12.3225   17.8484 H   0  0  0  0  0  0
  -27.4873  -14.2009   19.3443 H   0  0  0  0  0  0
  -28.8425  -12.5657   21.4982 H   0  0  0  0  0  0
  -28.2814  -14.2160   21.6473 H   0  0  0  0  0  0
  -25.2739   -9.5657   22.4790 H   0  0  0  0  0  0
  -23.9995   -7.4600   22.7471 H   0  0  0  0  0  0
  -21.0834   -8.8742   19.8959 H   0  0  0  0  0  0
  -22.3672  -10.9659   19.6194 H   0  0  0  0  0  0
  -21.1982   -7.6143   23.9711 H   0  0  0  0  0  0
  -21.1487   -6.0525   25.9082 H   0  0  0  0  0  0
  -22.0599   -2.7606   23.2852 H   0  0  0  0  0  0
  -22.4000  -11.9836   22.4864 H   0  0  0  0  0  0
  -21.1003  -13.1200   22.2663 H   0  0  0  0  0  0
  -24.6326  -15.8346   20.5554 H   0  0  0  0  0  0
  -26.2532  -15.6504   20.1267 H   0  0  0  0  0  0
  -26.7375  -32.5103   23.0876 H   0  0  0  0  0  0
  -25.0060  -33.9491   25.0174 H   0  0  0  0  0  0
  -22.7916  -31.2622   21.3416 H   0  0  0  0  0  0
  -23.3761  -35.9527   23.3279 H   0  0  0  0  0  0
  -24.3570  -36.8886   22.2072 H   0  0  0  0  0  0
  -23.7251  -37.6378   23.6734 H   0  0  0  0  0  0
  -26.2256  -31.3713   20.6173 H   0  0  0  0  0  0
  -26.9049  -30.6865   22.0525 H   0  0  0  0  0  0
  -28.1354  -28.6036   21.3009 H   0  0  0  0  0  0
  -25.9065  -25.7191   19.0111 H   0  0  0  0  0  0
  -24.0218  -27.2514   18.9417 H   0  0  0  0  0  0
  -23.8655  -30.5096   19.3804 H   0  0  0  0  0  0
  -22.8280  -29.1907   19.8276 H   0  0  0  0  0  0
  -25.1335  -36.1745   25.0788 H   0  0  0  0  0  0
  -21.0057  -28.3363   24.1306 H   0  0  0  0  0  0
  -20.5680  -26.2375   23.3658 H   0  0  0  0  0  0
  -21.6653  -26.7398   22.1216 H   0  0  0  0  0  0
  -19.6929  -25.6273   21.1278 H   0  0  0  0  0  0
  -19.6705  -27.3161   20.6741 H   0  0  0  0  0  0
  -17.4228  -26.6710   21.4019 H   0  0  0  0  0  0
  -18.0319  -26.0093   22.9024 H   0  0  0  0  0  0
  -19.7974  -30.7334   24.2175 H   0  0  0  0  0  0
  -17.5038  -31.6266   24.5179 H   0  0  0  0  0  0
  -15.5378  -30.2965   23.7695 H   0  0  0  0  0  0
  -15.8711  -28.0809   22.7092 H   0  0  0  0  0  0
  -24.5895  -30.7102   25.7670 H   0  0  0  0  0  0
  -24.8847  -32.2987   26.4641 H   0  0  0  0  0  0
  -25.7925  -30.9051   27.0225 H   0  0  0  0  0  0
  -26.3114  -29.6561   24.1444 H   0  0  0  0  0  0
  -27.3958  -29.7270   25.5111 H   0  0  0  0  0  0
  -27.9068  -30.4054   23.9868 H   0  0  0  0  0  0
  -27.2593  -33.3709   26.1921 H   0  0  0  0  0  0
  -28.3920  -32.6838   25.0377 H   0  0  0  0  0  0
  -28.0630  -31.8592   26.5541 H   0  0  0  0  0  0
  -28.2557  -38.0072   24.7501 H   0  0  0  0  0  0
  -28.1075  -36.2591   24.6286 H   0  0  0  0  0  0
  -27.2277  -37.1390   25.8868 H   0  0  0  0  0  0
  -20.9588  -29.8718   21.6646 H   0  0  0  0  0  0
  -26.0105  -38.2755   24.1418 H   0  0  0  0  0  0
  -27.3471  -19.9780   18.9756 H   0  0  0  0  0  0
  -31.2441  -20.6144   21.4021 H   0  0  0  0  0  0
  -29.8950  -20.9796   22.4730 H   0  0  0  0  0  0
  -30.7452  -22.2829   21.6444 H   0  0  0  0  0  0
  -30.5380  -16.5981   17.0619 H   0  0  0  0  0  0
  -29.2057  -17.4421   16.2792 H   0  0  0  0  0  0
  -29.5863  -15.7836   15.8279 H   0  0  0  0  0  0
  -26.4357  -15.3776   17.8691 H   0  0  0  0  0  0
  -27.2164  -14.9525   16.3559 H   0  0  0  0  0  0
  -26.7663  -16.6151   16.6784 H   0  0  0  0  0  0
  -27.4108  -22.2345   20.0190 H   0  0  0  0  0  0
  -28.0753  -22.6926   21.5049 H   0  0  0  0  0  0
  -27.7362  -24.2706   18.9514 H   0  0  0  0  0  0
  -29.3777  -24.3361   19.3747 H   0  0  0  0  0  0
  -29.9905  -21.3330   19.4585 H   0  0  0  0  0  0
  -28.9524  -15.0062   18.0506 H   0  0  0  0  0  0
  1 25  1  0  0  0
  1 30  2  0  0  0
  1 72  1  0  0  0
  2  3  1  0  0  0
  2 25  1  0  0  0
  2 84  1  0  0  0
  2 85  1  0  0  0
  3  4  1  0  0  0
  3 86  1  0  0  0
  3 87  1  0  0  0
  4  5  1  0  0  0
  4 88  1  0  0  0
  4 89  1  0  0  0
  5  6  1  0  0  0
  5 26  1  0  0  0
  5 90  1  0  0  0
  6 25  1  0  0  0
  6 91  1  0  0  0
  6 92  1  0  0  0
  7  8  2  0  0  0
  7 26  1  0  0  0
  7 29  1  0  0  0
  8  9  1  0  0  0
  8 22  1  0  0  0
  9 10  1  0  0  0
  9 27  2  0  0  0
 10 11  2  0  0  0
 10 15  1  0  0  0
 11 12  1  0  0  0
 11 93  1  0  0  0
 12 13  2  0  0  0
 12 94  1  0  0  0
 13 14  1  0  0  0
 13 31  1  0  0  0
 14 15  2  0  0  0
 14 95  1  0  0  0
 15 96  1  0  0  0
 16 17  2  0  0  0
 16 21  1  0  0  0
 16 31  1  0  0  0
 17 18  1  0  0  0
 17 97  1  0  0  0
 18 19  2  0  0  0
 18 98  1  0  0  0
 19 20  1  0  0  0
 19 24  1  0  0  0
 20 21  2  0  0  0
 20 99  1  0  0  0
 21 23  1  0  0  0
 22 28  1  0  0  0
 22 32  2  0  0  0
 26 27  1  0  0  0
 28100  1  0  0  0
 28101  1  0  0  0
 29102  1  0  0  0
 29103  1  0  0  0
 33 34  1  0  0  0
 33 66  1  0  0  0
 33 70  2  0  0  0
 34 36  1  0  0  0
 34 59  1  0  0  0
 34104  1  0  0  0
 35 44  2  0  0  0
 35 45  1  0  0  0
 35 68  1  0  0  0
 36 56  1  0  0  0
 36105  1  0  0  0
 37 39  1  0  0  0
 37 47  1  0  0  0
 37 66  1  0  0  0
 37106  1  0  0  0
 38 43  2  0  0  0
 38 46  1  0  0  0
 38 47  1  0  0  0
 39 64  1  0  0  0
 39 67  2  0  0  0
 40 52  1  0  0  0
 40 53  2  0  0  0
 40 58  1  0  0  0
 41107  1  0  0  0
 41108  1  0  0  0
 41109  1  0  0  0
 41 48  1  0  0  0
 42 43  1  0  0  0
 42 66  1  0  0  0
 42110  1  0  0  0
 42111  1  0  0  0
 43 44  1  0  0  0
 44112  1  0  0  0
 45 46  2  0  0  0
 45113  1  0  0  0
 46114  1  0  0  0
 47115  1  0  0  0
 47116  1  0  0  0
 48 56  1  0  0  0
 48 65  1  0  0  0
 48117  1  0  0  0
 49 50  1  0  0  0
 49 53  1  0  0  0
 49 64  1  0  0  0
 49118  1  0  0  0
 50 51  1  0  0  0
 50119  1  0  0  0
 50120  1  0  0  0
 51 52  1  0  0  0
 51121  1  0  0  0
 51122  1  0  0  0
 52123  1  0  0  0
 52124  1  0  0  0
 53 54  1  0  0  0
 54 55  2  0  0  0
 54125  1  0  0  0
 55 57  1  0  0  0
 55126  1  0  0  0
 56 69  2  0  0  0
 57 58  2  0  0  0
 57127  1  0  0  0
 58128  1  0  0  0
 59 60  1  0  0  0
 59 61  1  0  0  0
 59 62  1  0  0  0
 60129  1  0  0  0
 60130  1  0  0  0
 60131  1  0  0  0
 61132  1  0  0  0
 61133  1  0  0  0
 61134  1  0  0  0
 62135  1  0  0  0
 62136  1  0  0  0
 62137  1  0  0  0
 63 65  1  0  0  0
 63138  1  0  0  0
 63139  1  0  0  0
 63140  1  0  0  0
 64141  1  0  0  0
 65142  1  0  0  0
 68 79  1  0  0  0
 71 73  2  0  0  0
 71 82  1  0  0  0
 71143  1  0  0  0
 72 74  1  0  0  0
 72 83  2  0  0  0
 73 80  1  0  0  0
 73 83  1  0  0  0
 74 81  1  0  0  0
 74 82  2  0  0  0
 75144  1  0  0  0
 75145  1  0  0  0
 75146  1  0  0  0
 75 80  1  0  0  0
 76147  1  0  0  0
 76148  1  0  0  0
 76149  1  0  0  0
 76 81  1  0  0  0
 77 81  1  0  0  0
 77150  1  0  0  0
 77151  1  0  0  0
 77152  1  0  0  0
 78 79  1  0  0  0
 78 80  1  0  0  0
 78153  1  0  0  0
 78154  1  0  0  0
 79155  1  0  0  0
 79156  1  0  0  0
 80157  1  0  0  0
 81158  1  0  0  0
M  ISO  4   1 100  68 101  72 100  79 101
M  END
> <chiral flag>
0

> <version>
0

> <s_m_source_file>
/data/baiqing/PycharmProjects/Reinvent-master-3.2/result/LINK_invent/BTK/process_docking_weight1_custom_sum_contain_oxygen_bond_distance_aromatic_linkinvent_7_9_3/rearranged_h_0098.sdf

> <i_m_source_file_index>
80

> <r_mmod_Potential_Energy-OPLS-2005>
1633.50939941406

> <r_mmod_Stretch_Energy-OPLS-2005>
629.811889648438

> <r_mmod_Bend_Energy-OPLS-2005>
494.129760742188

> <r_mmod_Torsional_Energy-OPLS-2005>
259.066589355469

> <r_mmod_Improper_Torsional_Energy-OPLS-2005>
12.4437808990479

> <r_mmod_Van_der_Waal_Energy-OPLS-2005>
126.393264770508

> <r_mmod_Electrostatic_Energy-OPLS-2005>
-188.292846679688

> <r_mmod_Solvation_Energy-OPLS-2005>
-199.840789794922

> <b_mmod_Minimization_Converged-OPLS-2005>
0

> <r_mmod_RMS_Derivative-OPLS-2005>
1.10793578624725

$$$$
83
                    3D
 Structure written by MMmdl.
169177  0  0  1  0            999 V2000
  -30.6740  -14.5626   20.5404 C   0  0  0  0  0  0
  -30.4296  -12.3632   19.4262 C   0  0  0  0  0  0
  -29.4988  -12.5010   18.2045 C   0  0  0  0  0  0
  -28.0216  -12.3458   18.6216 C   0  0  0  0  0  0
  -27.6518  -13.2138   19.8542 C   0  0  2  0  0  0
  -28.6960  -13.0537   20.9789 C   0  0  0  0  0  0
  -25.2570  -13.8160   20.5679 C   0  0  0  0  0  0
  -24.1830  -13.0438   20.9182 C   0  0  0  0  0  0
  -24.6384  -11.6903   20.8710 C   0  0  0  0  0  0
  -23.9056  -10.4288   21.0371 C   0  0  0  0  0  0
  -24.3610   -9.4214   21.9160 C   0  0  0  0  0  0
  -23.6301   -8.2241   22.0738 C   0  0  0  0  0  0
  -22.4287   -8.0272   21.3529 C   0  0  0  0  0  0
  -21.9911   -9.0244   20.4639 C   0  0  0  0  0  0
  -22.7220  -10.2130   20.3040 C   0  0  0  0  0  0
  -21.6858   -6.0729   22.5280 C   0  0  0  0  0  0
  -21.4013   -6.5635   23.8212 C   0  0  0  0  0  0
  -21.3653   -5.6786   24.9169 C   0  0  0  0  0  0
  -21.6047   -4.3052   24.7215 C   0  0  0  0  0  0
  -21.8819   -3.8139   23.4338 C   0  0  0  0  0  0
  -21.9204   -4.6958   22.3401 C   0  0  0  0  0  0
  -22.7860  -13.5243   21.1846 C   0  0  0  0  0  0
  -22.1665   -4.2139   21.0977 F   0  0  0  0  0  0
  -21.5635   -3.4539   25.7728 F   0  0  0  0  0  0
  -30.0125  -13.3768   20.4106 N   0  0  0  0  0  0
  -26.2977  -12.9331   20.3262 N   0  0  0  0  0  0
  -25.9303  -11.6485   20.5702 N   0  0  0  0  0  0
  -22.0487  -12.8255   22.0403 N   0  0  0  0  0  0
  -25.4304  -15.1879   20.4101 N   0  0  0  0  0  0
  -31.8465  -14.6963   20.1857 O   0  0  0  0  0  0
  -21.6644   -6.8871   21.4240 O   0  0  0  0  0  0
  -22.3551  -14.5538   20.6673 O   0  0  0  0  0  0
  -24.6216  -31.8639   23.2071 C   0  0  0  0  0  0
  -25.9090  -32.4802   23.8379 C   0  0  1  0  0  0
  -27.2235  -27.3635   20.1124 C   0  0  0  0  0  0
  -25.5921  -33.8603   24.2308 N   0  0  0  0  0  0
  -23.4120  -30.4892   21.5499 C   0  0  2  0  0  0
  -24.8557  -28.9441   20.1199 C   0  0  0  0  0  0
  -22.7448  -29.4656   22.4976 C   0  0  0  0  0  0
  -18.0276  -28.1386   22.8487 C   0  0  0  0  0  0
  -24.1485  -36.7304   23.2642 C   0  0  0  0  0  0
  -25.9485  -30.8082   21.3706 C   0  0  0  0  0  0
  -26.0219  -29.4369   20.7174 C   0  0  0  0  0  0
  -27.2108  -28.6591   20.7013 C   0  0  0  0  0  0
  -26.0341  -26.9043   19.5045 C   0  0  0  0  0  0
  -24.8594  -27.6794   19.5102 C   0  0  0  0  0  0
  -23.6242  -29.8233   20.1653 C   0  0  0  0  0  0
  -25.4110  -36.3106   24.0340 C   0  0  1  0  0  0
  -20.5870  -28.3684   23.1300 C   0  0  2  0  0  0
  -20.6769  -26.9417   22.5419 C   0  0  0  0  0  0
  -19.5752  -26.6386   21.5216 C   0  0  0  0  0  0
  -18.1926  -26.7931   22.1618 C   0  0  0  0  0  0
  -19.1527  -28.8851   23.2887 C   0  0  0  0  0  0
  -18.9454  -30.1450   23.8909 C   0  0  0  0  0  0
  -17.6461  -30.6596   24.0561 C   0  0  0  0  0  0
  -25.9043  -34.9471   23.5121 C   0  0  0  0  0  0
  -16.5350  -29.9103   23.6321 C   0  0  0  0  0  0
  -16.7265  -28.6513   23.0350 C   0  0  0  0  0  0
  -26.4483  -31.6607   25.0741 C   0  0  0  0  0  0
  -25.3716  -31.3743   26.1476 C   0  0  0  0  0  0
  -27.0330  -30.3042   24.6171 C   0  0  0  0  0  0
  -27.6059  -32.4335   25.7496 C   0  0  0  0  0  0
  -27.5582  -37.1810   24.8465 C   0  0  0  0  0  0
  -21.4167  -29.3044   22.3708 N   0  0  0  0  0  0
  -26.4289  -37.3799   23.9415 N   0  0  0  0  0  0
  -24.6796  -31.0697   22.0999 N   0  0  0  0  0  0
  -23.4196  -28.8196   23.3043 O   0  0  0  0  0  0
  -28.3760  -26.5843   20.1029 O   0  0  0  0  0  0
  -26.5610  -34.8931   22.4688 O   0  0  0  0  0  0
  -23.5399  -32.1421   23.7431 O   0  0  0  0  0  0
  -29.3672  -19.3486   21.0028 C   0  0  0  0  0  0
  -30.0463  -19.8346   18.9460 C   0  0  0  0  0  0
  -30.0596  -18.2366   20.5557 C   0  0  0  0  0  0
  -30.4814  -18.5592   19.2238 C   0  0  0  0  0  0
  -32.8099  -17.9820   18.4911 C   0  0  0  0  0  0
  -30.8878  -17.8094   16.8371 C   0  0  0  0  0  0
  -30.7495  -25.1002   20.6958 C   0  0  0  0  0  0
  -29.7996  -24.3236   18.5240 C   0  0  0  0  0  0
  -30.4208  -16.9666   21.3694 C   0  0  0  0  0  0
  -29.6530  -22.8505   20.6155 C   0  0  0  0  0  0
  -28.7350  -21.7021   20.0713 C   0  0  0  0  0  0
  -28.2629  -25.1460   20.3674 C   0  0  0  0  0  0
  -31.3145  -17.6870   18.3072 C   0  0  0  0  0  0
  -29.5739  -24.3362   20.0493 C   0  0  0  0  0  0
  -29.3621  -20.3509   20.0295 N   0  0  0  0  0  0
  -29.9312  -15.6287   20.9397 N   0  0  0  0  0  0
  -31.4698  -12.4862   19.1194 H   0  0  0  0  0  0
  -30.3589  -11.3639   19.8568 H   0  0  0  0  0  0
  -29.7560  -11.7503   17.4561 H   0  0  0  0  0  0
  -29.6508  -13.4735   17.7321 H   0  0  0  0  0  0
  -27.8554  -11.2928   18.8526 H   0  0  0  0  0  0
  -27.3637  -12.5797   17.7826 H   0  0  0  0  0  0
  -27.6763  -14.2503   19.5191 H   0  0  0  0  0  0
  -28.6925  -12.0322   21.3596 H   0  0  0  0  0  0
  -28.4511  -13.6908   21.8299 H   0  0  0  0  0  0
  -25.2743   -9.5709   22.4742 H   0  0  0  0  0  0
  -24.0008   -7.4642   22.7471 H   0  0  0  0  0  0
  -21.0838   -8.8760   19.8968 H   0  0  0  0  0  0
  -22.3655  -10.9668   19.6159 H   0  0  0  0  0  0
  -21.1992   -7.6140   23.9714 H   0  0  0  0  0  0
  -21.1480   -6.0508   25.9076 H   0  0  0  0  0  0
  -22.0607   -2.7603   23.2841 H   0  0  0  0  0  0
  -22.4079  -11.9932   22.4851 H   0  0  0  0  0  0
  -21.1091  -13.1278   22.2539 H   0  0  0  0  0  0
  -24.6665  -15.8454   20.5236 H   0  0  0  0  0  0
  -26.2844  -15.6257   20.0860 H   0  0  0  0  0  0
  -26.7159  -32.5492   23.1136 H   0  0  0  0  0  0
  -25.0051  -33.9743   25.0444 H   0  0  0  0  0  0
  -22.7031  -31.3087   21.4099 H   0  0  0  0  0  0
  -23.3751  -35.9632   23.3305 H   0  0  0  0  0  0
  -24.3570  -36.8918   22.2053 H   0  0  0  0  0  0
  -23.7221  -37.6507   23.6651 H   0  0  0  0  0  0
  -26.0712  -31.5695   20.5989 H   0  0  0  0  0  0
  -26.8328  -30.8586   21.9942 H   0  0  0  0  0  0
  -28.1121  -29.0383   21.1625 H   0  0  0  0  0  0
  -25.9948  -25.9472   19.0077 H   0  0  0  0  0  0
  -23.9630  -27.2963   19.0421 H   0  0  0  0  0  0
  -23.7487  -30.5999   19.4097 H   0  0  0  0  0  0
  -22.7433  -29.2552   19.8609 H   0  0  0  0  0  0
  -25.1283  -36.1966   25.0831 H   0  0  0  0  0  0
  -20.9950  -28.3260   24.1428 H   0  0  0  0  0  0
  -20.5676  -26.2297   23.3613 H   0  0  0  0  0  0
  -21.6639  -26.7472   22.1212 H   0  0  0  0  0  0
  -19.6914  -25.6299   21.1241 H   0  0  0  0  0  0
  -19.6691  -27.3195   20.6746 H   0  0  0  0  0  0
  -17.4201  -26.6689   21.4014 H   0  0  0  0  0  0
  -18.0325  -26.0074   22.9014 H   0  0  0  0  0  0
  -19.7930  -30.7250   24.2305 H   0  0  0  0  0  0
  -17.5022  -31.6277   24.5166 H   0  0  0  0  0  0
  -15.5353  -30.3016   23.7640 H   0  0  0  0  0  0
  -15.8660  -28.0841   22.7066 H   0  0  0  0  0  0
  -24.5879  -30.7108   25.7805 H   0  0  0  0  0  0
  -24.8912  -32.2908   26.4917 H   0  0  0  0  0  0
  -25.8031  -30.8906   27.0249 H   0  0  0  0  0  0
  -26.2906  -29.6798   24.1190 H   0  0  0  0  0  0
  -27.4042  -29.7294   25.4667 H   0  0  0  0  0  0
  -27.8761  -30.4358   23.9386 H   0  0  0  0  0  0
  -27.2687  -33.3621   26.2118 H   0  0  0  0  0  0
  -28.3838  -32.6926   25.0297 H   0  0  0  0  0  0
  -28.0775  -31.8438   26.5370 H   0  0  0  0  0  0
  -28.2615  -38.0096   24.7514 H   0  0  0  0  0  0
  -28.1059  -36.2627   24.6281 H   0  0  0  0  0  0
  -27.2300  -37.1459   25.8870 H   0  0  0  0  0  0
  -20.9353  -29.8759   21.6907 H   0  0  0  0  0  0
  -26.0177  -38.2878   24.1420 H   0  0  0  0  0  0
  -28.8920  -19.5309   21.9591 H   0  0  0  0  0  0
  -30.1784  -20.4397   18.0574 H   0  0  0  0  0  0
  -33.1156  -17.8186   19.5248 H   0  0  0  0  0  0
  -33.0470  -19.0158   18.2359 H   0  0  0  0  0  0
  -33.4224  -17.3325   17.8646 H   0  0  0  0  0  0
  -29.8398  -17.5361   16.7134 H   0  0  0  0  0  0
  -31.4755  -17.1451   16.2038 H   0  0  0  0  0  0
  -31.0157  -18.8238   16.4579 H   0  0  0  0  0  0
  -31.7080  -24.6232   20.4875 H   0  0  0  0  0  0
  -30.6380  -25.1531   21.7793 H   0  0  0  0  0  0
  -30.8237  -26.1235   20.3281 H   0  0  0  0  0  0
  -30.7348  -23.8281   18.2599 H   0  0  0  0  0  0
  -29.8434  -25.3367   18.1230 H   0  0  0  0  0  0
  -28.9944  -23.8141   17.9968 H   0  0  0  0  0  0
  -30.0616  -17.1212   22.3876 H   0  0  0  0  0  0
  -31.5085  -16.9375   21.4548 H   0  0  0  0  0  0
  -30.6788  -22.5104   20.4651 H   0  0  0  0  0  0
  -29.5374  -22.8783   21.6997 H   0  0  0  0  0  0
  -28.4069  -21.9331   19.0592 H   0  0  0  0  0  0
  -27.8208  -21.6487   20.6654 H   0  0  0  0  0  0
  -28.0175  -25.0264   21.4237 H   0  0  0  0  0  0
  -27.4477  -24.6793   19.8177 H   0  0  0  0  0  0
  -31.1439  -16.6514   18.5948 H   0  0  0  0  0  0
  -28.9552  -15.4428   21.1106 H   0  0  0  0  0  0
  1 25  1  0  0  0
  1 30  2  0  0  0
  1 86  1  0  0  0
  2  3  1  0  0  0
  2 25  1  0  0  0
  2 87  1  0  0  0
  2 88  1  0  0  0
  3  4  1  0  0  0
  3 89  1  0  0  0
  3 90  1  0  0  0
  4  5  1  0  0  0
  4 91  1  0  0  0
  4 92  1  0  0  0
  5  6  1  0  0  0
  5 26  1  0  0  0
  5 93  1  0  0  0
  6 25  1  0  0  0
  6 94  1  0  0  0
  6 95  1  0  0  0
  7  8  2  0  0  0
  7 26  1  0  0  0
  7 29  1  0  0  0
  8  9  1  0  0  0
  8 22  1  0  0  0
  9 10  1  0  0  0
  9 27  2  0  0  0
 10 11  2  0  0  0
 10 15  1  0  0  0
 11 12  1  0  0  0
 11 96  1  0  0  0
 12 13  2  0  0  0
 12 97  1  0  0  0
 13 14  1  0  0  0
 13 31  1  0  0  0
 14 15  2  0  0  0
 14 98  1  0  0  0
 15 99  1  0  0  0
 16 17  2  0  0  0
 16 21  1  0  0  0
 16 31  1  0  0  0
 17 18  1  0  0  0
 17100  1  0  0  0
 18 19  2  0  0  0
 18101  1  0  0  0
 19 20  1  0  0  0
 19 24  1  0  0  0
 20 21  2  0  0  0
 20102  1  0  0  0
 21 23  1  0  0  0
 22 28  1  0  0  0
 22 32  2  0  0  0
 26 27  1  0  0  0
 28103  1  0  0  0
 28104  1  0  0  0
 29105  1  0  0  0
 29106  1  0  0  0
 33 34  1  0  0  0
 33 66  1  0  0  0
 33 70  2  0  0  0
 34 36  1  0  0  0
 34 59  1  0  0  0
 34107  1  0  0  0
 35 44  2  0  0  0
 35 45  1  0  0  0
 35 68  1  0  0  0
 36 56  1  0  0  0
 36108  1  0  0  0
 37 39  1  0  0  0
 37 47  1  0  0  0
 37 66  1  0  0  0
 37109  1  0  0  0
 38 43  2  0  0  0
 38 46  1  0  0  0
 38 47  1  0  0  0
 39 64  1  0  0  0
 39 67  2  0  0  0
 40 52  1  0  0  0
 40 53  2  0  0  0
 40 58  1  0  0  0
 41110  1  0  0  0
 41111  1  0  0  0
 41112  1  0  0  0
 41 48  1  0  0  0
 42 43  1  0  0  0
 42 66  1  0  0  0
 42113  1  0  0  0
 42114  1  0  0  0
 43 44  1  0  0  0
 44115  1  0  0  0
 45 46  2  0  0  0
 45116  1  0  0  0
 46117  1  0  0  0
 47118  1  0  0  0
 47119  1  0  0  0
 48 56  1  0  0  0
 48 65  1  0  0  0
 48120  1  0  0  0
 49 50  1  0  0  0
 49 53  1  0  0  0
 49 64  1  0  0  0
 49121  1  0  0  0
 50 51  1  0  0  0
 50122  1  0  0  0
 50123  1  0  0  0
 51 52  1  0  0  0
 51124  1  0  0  0
 51125  1  0  0  0
 52126  1  0  0  0
 52127  1  0  0  0
 53 54  1  0  0  0
 54 55  2  0  0  0
 54128  1  0  0  0
 55 57  1  0  0  0
 55129  1  0  0  0
 56 69  2  0  0  0
 57 58  2  0  0  0
 57130  1  0  0  0
 58131  1  0  0  0
 59 60  1  0  0  0
 59 61  1  0  0  0
 59 62  1  0  0  0
 60132  1  0  0  0
 60133  1  0  0  0
 60134  1  0  0  0
 61135  1  0  0  0
 61136  1  0  0  0
 61137  1  0  0  0
 62138  1  0  0  0
 62139  1  0  0  0
 62140  1  0  0  0
 63 65  1  0  0  0
 63141  1  0  0  0
 63142  1  0  0  0
 63143  1  0  0  0
 64144  1  0  0  0
 65145  1  0  0  0
 68 82  1  0  0  0
 71 73  2  0  0  0
 71 85  1  0  0  0
 71146  1  0  0  0
 72 74  2  0  0  0
 72 85  1  0  0  0
 72147  1  0  0  0
 73 74  1  0  0  0
 73 79  1  0  0  0
 74 83  1  0  0  0
 75148  1  0  0  0
 75149  1  0  0  0
 75150  1  0  0  0
 75 83  1  0  0  0
 76 83  1  0  0  0
 76151  1  0  0  0
 76152  1  0  0  0
 76153  1  0  0  0
 77154  1  0  0  0
 77155  1  0  0  0
 77156  1  0  0  0
 77 84  1  0  0  0
 78 84  1  0  0  0
 78157  1  0  0  0
 78158  1  0  0  0
 78159  1  0  0  0
 79 86  1  0  0  0
 79160  1  0  0  0
 79161  1  0  0  0
 80 81  1  0  0  0
 80 84  1  0  0  0
 80162  1  0  0  0
 80163  1  0  0  0
 81 85  1  0  0  0
 81164  1  0  0  0
 81165  1  0  0  0
 82 84  1  0  0  0
 82166  1  0  0  0
 82167  1  0  0  0
 83168  1  0  0  0
 86169  1  0  0  0
M  ISO  4   1 100  68 101  82 101  86 100
M  END
> <chiral flag>
0

> <version>
0

> <s_m_source_file>
/data/baiqing/PycharmProjects/Reinvent-master-3.2/result/LINK_invent/BTK/process_docking_weight1_custom_sum_contain_oxygen_bond_distance_aromatic_linkinvent_7_9_3/rearranged_h_0098.sdf

> <i_m_source_file_index>
81

> <r_mmod_Potential_Energy-OPLS-2005>
-60.793155670166

> <r_mmod_Stretch_Energy-OPLS-2005>
56.5723419189453

> <r_mmod_Bend_Energy-OPLS-2005>
130.568740844727

> <r_mmod_Torsional_Energy-OPLS-2005>
240.632705688477

> <r_mmod_Improper_Torsional_Energy-OPLS-2005>
3.91569638252258

> <r_mmod_Van_der_Waal_Energy-OPLS-2005>
116.969535827637

> <r_mmod_Electrostatic_Energy-OPLS-2005>
-440.745788574219

> <r_mmod_Solvation_Energy-OPLS-2005>
-198.047027587891

> <b_mmod_Minimization_Converged-OPLS-2005>
0

> <r_mmod_RMS_Derivative-OPLS-2005>
2.1223828792572

$$$$
84
                    3D
 Structure written by MMmdl.
184192  0  0  1  0            999 V2000
  -30.7531  -14.4404   20.6311 C   0  0  0  0  0  0
  -30.4103  -12.3088   19.4224 C   0  0  0  0  0  0
  -29.4893  -12.5140   18.2036 C   0  0  0  0  0  0
  -28.0076  -12.3858   18.6056 C   0  0  0  0  0  0
  -27.6567  -13.2137   19.8689 C   0  0  2  0  0  0
  -28.6915  -12.9785   20.9858 C   0  0  0  0  0  0
  -25.2544  -13.8194   20.5687 C   0  0  0  0  0  0
  -24.1814  -13.0449   20.9200 C   0  0  0  0  0  0
  -24.6389  -11.6923   20.8743 C   0  0  0  0  0  0
  -23.9075  -10.4306   21.0401 C   0  0  0  0  0  0
  -24.3634   -9.4216   21.9177 C   0  0  0  0  0  0
  -23.6300   -8.2255   22.0753 C   0  0  0  0  0  0
  -22.4283   -8.0295   21.3536 C   0  0  0  0  0  0
  -21.9919   -9.0267   20.4635 C   0  0  0  0  0  0
  -22.7248  -10.2147   20.3054 C   0  0  0  0  0  0
  -21.6853   -6.0754   22.5285 C   0  0  0  0  0  0
  -21.4021   -6.5658   23.8222 C   0  0  0  0  0  0
  -21.3649   -5.6807   24.9180 C   0  0  0  0  0  0
  -21.6047   -4.3074   24.7221 C   0  0  0  0  0  0
  -21.8828   -3.8166   23.4345 C   0  0  0  0  0  0
  -21.9184   -4.6980   22.3399 C   0  0  0  0  0  0
  -22.7826  -13.5213   21.1882 C   0  0  0  0  0  0
  -22.1651   -4.2172   21.0974 F   0  0  0  0  0  0
  -21.5620   -3.4546   25.7729 F   0  0  0  0  0  0
  -30.0295  -13.2940   20.4542 N   0  0  0  0  0  0
  -26.2990  -12.9369   20.3331 N   0  0  0  0  0  0
  -25.9311  -11.6523   20.5738 N   0  0  0  0  0  0
  -22.0480  -12.8187   22.0433 N   0  0  0  0  0  0
  -25.4262  -15.1908   20.4102 N   0  0  0  0  0  0
  -31.8351  -14.6063   20.0576 O   0  0  0  0  0  0
  -21.6635   -6.8898   21.4251 O   0  0  0  0  0  0
  -22.3490  -14.5517   20.6736 O   0  0  0  0  0  0
  -24.6132  -31.8687   23.2114 C   0  0  0  0  0  0
  -25.9023  -32.4828   23.8402 C   0  0  1  0  0  0
  -27.2319  -27.4501   20.0895 C   0  0  0  0  0  0
  -25.5884  -33.8629   24.2332 N   0  0  0  0  0  0
  -23.4013  -30.4925   21.5509 C   0  0  2  0  0  0
  -24.8484  -28.9577   20.1166 C   0  0  0  0  0  0
  -22.7403  -29.4662   22.4992 C   0  0  0  0  0  0
  -18.0269  -28.1375   22.8494 C   0  0  0  0  0  0
  -24.1484  -36.7325   23.2639 C   0  0  0  0  0  0
  -25.9279  -30.8375   21.3638 C   0  0  0  0  0  0
  -26.0066  -29.4700   20.7169 C   0  0  0  0  0  0
  -27.2036  -28.7195   20.7093 C   0  0  0  0  0  0
  -26.0648  -26.9487   19.4832 C   0  0  0  0  0  0
  -24.8701  -27.6929   19.5007 C   0  0  0  0  0  0
  -23.6101  -29.8242   20.1655 C   0  0  0  0  0  0
  -25.4104  -36.3119   24.0340 C   0  0  1  0  0  0
  -20.5857  -28.3661   23.1320 C   0  0  2  0  0  0
  -20.6755  -26.9399   22.5418 C   0  0  0  0  0  0
  -19.5743  -26.6387   21.5209 C   0  0  0  0  0  0
  -18.1918  -26.7926   22.1614 C   0  0  0  0  0  0
  -19.1518  -28.8835   23.2904 C   0  0  0  0  0  0
  -18.9448  -30.1441   23.8918 C   0  0  0  0  0  0
  -17.6452  -30.6585   24.0563 C   0  0  0  0  0  0
  -25.9032  -34.9481   23.5133 C   0  0  0  0  0  0
  -16.5346  -29.9088   23.6319 C   0  0  0  0  0  0
  -16.7260  -28.6503   23.0348 C   0  0  0  0  0  0
  -26.4461  -31.6599   25.0721 C   0  0  0  0  0  0
  -25.3739  -31.3701   26.1478 C   0  0  0  0  0  0
  -27.0289  -30.3047   24.6076 C   0  0  0  0  0  0
  -27.6039  -32.4318   25.7479 C   0  0  0  0  0  0
  -27.5586  -37.1810   24.8458 C   0  0  0  0  0  0
  -21.4133  -29.3028   22.3724 N   0  0  0  0  0  0
  -26.4288  -37.3804   23.9415 N   0  0  0  0  0  0
  -24.6651  -31.0805   22.1006 N   0  0  0  0  0  0
  -23.4170  -28.8204   23.3035 O   0  0  0  0  0  0
  -28.3695  -26.6842   20.0394 O   0  0  0  0  0  0
  -26.5601  -34.8930   22.4702 O   0  0  0  0  0  0
  -23.5327  -32.1430   23.7519 O   0  0  0  0  0  0
  -29.7795  -20.2339   20.8392 C   0  0  0  0  0  0
  -30.2838  -21.2507   20.0729 C   0  0  0  0  0  0
  -30.4335  -20.7172   18.7436 C   0  0  0  0  0  0
  -30.0501  -19.3884   18.7775 C   0  0  0  0  0  0
  -31.4068  -22.4998   21.9484 C   0  0  0  0  0  0
  -32.4926  -21.6211   17.5643 C   0  0  0  0  0  0
  -30.2422  -22.7664   17.2139 C   0  0  0  0  0  0
  -31.3927  -18.0444   17.0648 C   0  0  0  0  0  0
  -28.9492  -18.6081   16.6205 C   0  0  0  0  0  0
  -31.0273  -25.7376   20.3215 C   0  0  0  0  0  0
  -29.8817  -15.3777   22.7216 C   0  0  0  0  0  0
  -29.5082  -23.6594   20.6549 C   0  0  0  0  0  0
  -29.2637  -17.7788   20.6220 C   0  0  0  0  0  0
  -30.4926  -16.8757   20.8828 C   0  0  0  0  0  0
  -28.6977  -26.0623   21.2794 C   0  0  0  0  0  0
  -30.6819  -22.6350   20.5948 C   0  0  2  0  0  0
  -30.9667  -21.4463   17.5135 C   0  0  0  0  0  0
  -30.0172  -18.3299   17.6894 C   0  0  0  0  0  0
  -29.8955  -25.0904   21.1437 C   0  0  2  0  0  0
  -29.6734  -19.0835   20.0846 N   0  0  0  0  0  0
  -30.1653  -15.4828   21.2836 N   0  0  0  0  0  0
  -31.4547  -12.3918   19.1162 H   0  0  0  0  0  0
  -30.3062  -11.2961   19.8148 H   0  0  0  0  0  0
  -29.7236  -11.7878   17.4243 H   0  0  0  0  0  0
  -29.6692  -13.4976   17.7697 H   0  0  0  0  0  0
  -27.7994  -11.3299   18.7842 H   0  0  0  0  0  0
  -27.3695  -12.6856   17.7735 H   0  0  0  0  0  0
  -27.7092  -14.2660   19.5877 H   0  0  0  0  0  0
  -28.6689  -11.9387   21.3156 H   0  0  0  0  0  0
  -28.4087  -13.5550   21.8602 H   0  0  0  0  0  0
  -25.2781   -9.5685   22.4741 H   0  0  0  0  0  0
  -24.0010   -7.4646   22.7480 H   0  0  0  0  0  0
  -21.0855   -8.8794   19.8919 H   0  0  0  0  0  0
  -22.3715  -10.9696   19.6175 H   0  0  0  0  0  0
  -21.2026   -7.6167   23.9735 H   0  0  0  0  0  0
  -21.1457   -6.0530   25.9083 H   0  0  0  0  0  0
  -22.0603   -2.7631   23.2842 H   0  0  0  0  0  0
  -22.4085  -11.9840   22.4817 H   0  0  0  0  0  0
  -21.1100  -13.1210   22.2656 H   0  0  0  0  0  0
  -24.6644  -15.8504   20.5286 H   0  0  0  0  0  0
  -26.2879  -15.6294   20.1100 H   0  0  0  0  0  0
  -26.7099  -32.5560   23.1179 H   0  0  0  0  0  0
  -25.0019  -33.9795   25.0461 H   0  0  0  0  0  0
  -22.6895  -31.3088   21.4127 H   0  0  0  0  0  0
  -23.3747  -35.9657   23.3297 H   0  0  0  0  0  0
  -24.3578  -36.8944   22.2053 H   0  0  0  0  0  0
  -23.7232  -37.6525   23.6660 H   0  0  0  0  0  0
  -26.0348  -31.6016   20.5925 H   0  0  0  0  0  0
  -26.8180  -30.8957   21.9778 H   0  0  0  0  0  0
  -28.1000  -29.1132   21.1672 H   0  0  0  0  0  0
  -26.0831  -25.9800   19.0032 H   0  0  0  0  0  0
  -23.9800  -27.2924   19.0346 H   0  0  0  0  0  0
  -23.7193  -30.5996   19.4064 H   0  0  0  0  0  0
  -22.7338  -29.2447   19.8690 H   0  0  0  0  0  0
  -25.1279  -36.1987   25.0833 H   0  0  0  0  0  0
  -20.9951  -28.3223   24.1442 H   0  0  0  0  0  0
  -20.5650  -26.2270   23.3601 H   0  0  0  0  0  0
  -21.6627  -26.7431   22.1228 H   0  0  0  0  0  0
  -19.6903  -25.6304   21.1225 H   0  0  0  0  0  0
  -19.6684  -27.3202   20.6742 H   0  0  0  0  0  0
  -17.4189  -26.6681   21.4014 H   0  0  0  0  0  0
  -18.0309  -26.0060   22.9002 H   0  0  0  0  0  0
  -19.7924  -30.7243   24.2302 H   0  0  0  0  0  0
  -17.5012  -31.6267   24.5162 H   0  0  0  0  0  0
  -15.5350  -30.2999   23.7637 H   0  0  0  0  0  0
  -15.8655  -28.0831   22.7051 H   0  0  0  0  0  0
  -24.5903  -30.7056   25.7821 H   0  0  0  0  0  0
  -24.8935  -32.2855   26.4945 H   0  0  0  0  0  0
  -25.8108  -30.8860   27.0222 H   0  0  0  0  0  0
  -26.2818  -29.6821   24.1137 H   0  0  0  0  0  0
  -27.4067  -29.7275   25.4526 H   0  0  0  0  0  0
  -27.8651  -30.4377   23.9206 H   0  0  0  0  0  0
  -27.2651  -33.3596   26.2107 H   0  0  0  0  0  0
  -28.3815  -32.6923   25.0287 H   0  0  0  0  0  0
  -28.0744  -31.8409   26.5350 H   0  0  0  0  0  0
  -28.2594  -38.0117   24.7528 H   0  0  0  0  0  0
  -28.1085  -36.2649   24.6253 H   0  0  0  0  0  0
  -27.2309  -37.1430   25.8860 H   0  0  0  0  0  0
  -20.9288  -29.8762   21.6961 H   0  0  0  0  0  0
  -26.0181  -38.2878   24.1433 H   0  0  0  0  0  0
  -29.5359  -20.2154   21.8939 H   0  0  0  0  0  0
  -32.1991  -21.7536   21.8932 H   0  0  0  0  0  0
  -30.7219  -22.2024   22.7425 H   0  0  0  0  0  0
  -31.8829  -23.4318   22.2521 H   0  0  0  0  0  0
  -32.9918  -20.6583   17.6747 H   0  0  0  0  0  0
  -32.8133  -22.2491   18.3934 H   0  0  0  0  0  0
  -32.8635  -22.0776   16.6462 H   0  0  0  0  0  0
  -29.1610  -22.6241   17.1947 H   0  0  0  0  0  0
  -30.5360  -23.1530   16.2376 H   0  0  0  0  0  0
  -30.4737  -23.5425   17.9400 H   0  0  0  0  0  0
  -32.1181  -17.7683   17.8298 H   0  0  0  0  0  0
  -31.7964  -18.8943   16.5203 H   0  0  0  0  0  0
  -31.3327  -17.2137   16.3615 H   0  0  0  0  0  0
  -27.9655  -18.7236   17.0759 H   0  0  0  0  0  0
  -28.8832  -17.7814   15.9132 H   0  0  0  0  0  0
  -29.1498  -19.5100   16.0461 H   0  0  0  0  0  0
  -31.9591  -25.1785   20.3992 H   0  0  0  0  0  0
  -31.2348  -26.7487   20.6737 H   0  0  0  0  0  0
  -30.7628  -25.8045   19.2657 H   0  0  0  0  0  0
  -28.8329  -15.6083   22.9099 H   0  0  0  0  0  0
  -30.4802  -16.0746   23.3089 H   0  0  0  0  0  0
  -30.0873  -14.3827   23.1231 H   0  0  0  0  0  0
  -28.7369  -23.2611   21.3151 H   0  0  0  0  0  0
  -29.0357  -23.7369   19.6762 H   0  0  0  0  0  0
  -28.7105  -17.9366   21.5486 H   0  0  0  0  0  0
  -28.5572  -17.3083   19.9388 H   0  0  0  0  0  0
  -31.1300  -17.3422   21.6338 H   0  0  0  0  0  0
  -31.0980  -16.8890   19.9762 H   0  0  0  0  0  0
  -28.9500  -26.8419   22.0003 H   0  0  0  0  0  0
  -27.8317  -25.5358   21.6851 H   0  0  0  0  0  0
  -31.4209  -23.0208   19.8978 H   0  0  0  0  0  0
  -30.7653  -20.8209   16.6493 H   0  0  0  0  0  0
  -29.7251  -17.3752   18.1197 H   0  0  0  0  0  0
  -30.2658  -24.9744   22.1616 H   0  0  0  0  0  0
  1 25  1  0  0  0
  1 30  2  0  0  0
  1 91  1  0  0  0
  2  3  1  0  0  0
  2 25  1  0  0  0
  2 92  1  0  0  0
  2 93  1  0  0  0
  3  4  1  0  0  0
  3 94  1  0  0  0
  3 95  1  0  0  0
  4  5  1  0  0  0
  4 96  1  0  0  0
  4 97  1  0  0  0
  5  6  1  0  0  0
  5 26  1  0  0  0
  5 98  1  0  0  0
  6 25  1  0  0  0
  6 99  1  0  0  0
  6100  1  0  0  0
  7  8  2  0  0  0
  7 26  1  0  0  0
  7 29  1  0  0  0
  8  9  1  0  0  0
  8 22  1  0  0  0
  9 10  1  0  0  0
  9 27  2  0  0  0
 10 11  2  0  0  0
 10 15  1  0  0  0
 11 12  1  0  0  0
 11101  1  0  0  0
 12 13  2  0  0  0
 12102  1  0  0  0
 13 14  1  0  0  0
 13 31  1  0  0  0
 14 15  2  0  0  0
 14103  1  0  0  0
 15104  1  0  0  0
 16 17  2  0  0  0
 16 21  1  0  0  0
 16 31  1  0  0  0
 17 18  1  0  0  0
 17105  1  0  0  0
 18 19  2  0  0  0
 18106  1  0  0  0
 19 20  1  0  0  0
 19 24  1  0  0  0
 20 21  2  0  0  0
 20107  1  0  0  0
 21 23  1  0  0  0
 22 28  1  0  0  0
 22 32  2  0  0  0
 26 27  1  0  0  0
 28108  1  0  0  0
 28109  1  0  0  0
 29110  1  0  0  0
 29111  1  0  0  0
 33 34  1  0  0  0
 33 66  1  0  0  0
 33 70  2  0  0  0
 34 36  1  0  0  0
 34 59  1  0  0  0
 34112  1  0  0  0
 35 44  2  0  0  0
 35 45  1  0  0  0
 35 68  1  0  0  0
 36 56  1  0  0  0
 36113  1  0  0  0
 37 39  1  0  0  0
 37 47  1  0  0  0
 37 66  1  0  0  0
 37114  1  0  0  0
 38 43  2  0  0  0
 38 46  1  0  0  0
 38 47  1  0  0  0
 39 64  1  0  0  0
 39 67  2  0  0  0
 40 52  1  0  0  0
 40 53  2  0  0  0
 40 58  1  0  0  0
 41115  1  0  0  0
 41116  1  0  0  0
 41117  1  0  0  0
 41 48  1  0  0  0
 42 43  1  0  0  0
 42 66  1  0  0  0
 42118  1  0  0  0
 42119  1  0  0  0
 43 44  1  0  0  0
 44120  1  0  0  0
 45 46  2  0  0  0
 45121  1  0  0  0
 46122  1  0  0  0
 47123  1  0  0  0
 47124  1  0  0  0
 48 56  1  0  0  0
 48 65  1  0  0  0
 48125  1  0  0  0
 49 50  1  0  0  0
 49 53  1  0  0  0
 49 64  1  0  0  0
 49126  1  0  0  0
 50 51  1  0  0  0
 50127  1  0  0  0
 50128  1  0  0  0
 51 52  1  0  0  0
 51129  1  0  0  0
 51130  1  0  0  0
 52131  1  0  0  0
 52132  1  0  0  0
 53 54  1  0  0  0
 54 55  2  0  0  0
 54133  1  0  0  0
 55 57  1  0  0  0
 55134  1  0  0  0
 56 69  2  0  0  0
 57 58  2  0  0  0
 57135  1  0  0  0
 58136  1  0  0  0
 59 60  1  0  0  0
 59 61  1  0  0  0
 59 62  1  0  0  0
 60137  1  0  0  0
 60138  1  0  0  0
 60139  1  0  0  0
 61140  1  0  0  0
 61141  1  0  0  0
 61142  1  0  0  0
 62143  1  0  0  0
 62144  1  0  0  0
 62145  1  0  0  0
 63 65  1  0  0  0
 63146  1  0  0  0
 63147  1  0  0  0
 63148  1  0  0  0
 64149  1  0  0  0
 65150  1  0  0  0
 68 85  1  0  0  0
 71 72  2  0  0  0
 71 90  1  0  0  0
 71151  1  0  0  0
 72 73  1  0  0  0
 72 86  1  0  0  0
 73 74  2  0  0  0
 73 87  1  0  0  0
 74 88  1  0  0  0
 74 90  1  0  0  0
 75152  1  0  0  0
 75153  1  0  0  0
 75154  1  0  0  0
 75 86  1  0  0  0
 76155  1  0  0  0
 76156  1  0  0  0
 76157  1  0  0  0
 76 87  1  0  0  0
 77 87  1  0  0  0
 77158  1  0  0  0
 77159  1  0  0  0
 77160  1  0  0  0
 78161  1  0  0  0
 78162  1  0  0  0
 78163  1  0  0  0
 78 88  1  0  0  0
 79 88  1  0  0  0
 79164  1  0  0  0
 79165  1  0  0  0
 79166  1  0  0  0
 80167  1  0  0  0
 80168  1  0  0  0
 80169  1  0  0  0
 80 89  1  0  0  0
 81 91  1  0  0  0
 81170  1  0  0  0
 81171  1  0  0  0
 81172  1  0  0  0
 82 86  1  0  0  0
 82 89  1  0  0  0
 82173  1  0  0  0
 82174  1  0  0  0
 83 84  1  0  0  0
 83 90  1  0  0  0
 83175  1  0  0  0
 83176  1  0  0  0
 84 91  1  0  0  0
 84177  1  0  0  0
 84178  1  0  0  0
 85 89  1  0  0  0
 85179  1  0  0  0
 85180  1  0  0  0
 86181  1  0  0  0
 87182  1  0  0  0
 88183  1  0  0  0
 89184  1  0  0  0
M  ISO  4   1 100  68 101  85 101  91 100
M  END
> <chiral flag>
0

> <version>
0

> <s_m_source_file>
/data/baiqing/PycharmProjects/Reinvent-master-3.2/result/LINK_invent/BTK/process_docking_weight1_custom_sum_contain_oxygen_bond_distance_aromatic_linkinvent_7_9_3/rearranged_h_0098.sdf

> <i_m_source_file_index>
82

> <r_mmod_Potential_Energy-OPLS-2005>
59.2912368774414

> <r_mmod_Stretch_Energy-OPLS-2005>
43.1028251647949

> <r_mmod_Bend_Energy-OPLS-2005>
116.859474182129

> <r_mmod_Torsional_Energy-OPLS-2005>
320.357818603516

> <r_mmod_Improper_Torsional_Energy-OPLS-2005>
7.37145566940308

> <r_mmod_Van_der_Waal_Energy-OPLS-2005>
127.624816894531

> <r_mmod_Electrostatic_Energy-OPLS-2005>
-384.862701416016

> <r_mmod_Solvation_Energy-OPLS-2005>
-181.011672973633

> <b_mmod_Minimization_Converged-OPLS-2005>
0

> <r_mmod_RMS_Derivative-OPLS-2005>
1.57601141929626

$$$$
85
                    3D
 Structure written by MMmdl.
171179  0  0  1  0            999 V2000
  -30.5821  -14.8171   20.5096 C   0  0  0  0  0  0
  -30.4362  -12.5080   19.5062 C   0  0  0  0  0  0
  -29.5226  -12.5166   18.2576 C   0  0  0  0  0  0
  -28.0492  -12.3169   18.6606 C   0  0  0  0  0  0
  -27.6346  -13.2314   19.8422 C   0  0  2  0  0  0
  -28.6650  -13.1688   20.9860 C   0  0  0  0  0  0
  -25.2463  -13.8205   20.5691 C   0  0  0  0  0  0
  -24.1752  -13.0454   20.9244 C   0  0  0  0  0  0
  -24.6337  -11.6926   20.8727 C   0  0  0  0  0  0
  -23.9019  -10.4300   21.0387 C   0  0  0  0  0  0
  -24.3587   -9.4224   21.9157 C   0  0  0  0  0  0
  -23.6287   -8.2242   22.0722 C   0  0  0  0  0  0
  -22.4262   -8.0277   21.3527 C   0  0  0  0  0  0
  -21.9889   -9.0239   20.4614 C   0  0  0  0  0  0
  -22.7197  -10.2127   20.3026 C   0  0  0  0  0  0
  -21.6843   -6.0728   22.5288 C   0  0  0  0  0  0
  -21.3992   -6.5629   23.8227 C   0  0  0  0  0  0
  -21.3671   -5.6781   24.9186 C   0  0  0  0  0  0
  -21.6053   -4.3046   24.7229 C   0  0  0  0  0  0
  -21.8818   -3.8143   23.4354 C   0  0  0  0  0  0
  -21.9187   -4.6960   22.3408 C   0  0  0  0  0  0
  -22.7775  -13.5228   21.1973 C   0  0  0  0  0  0
  -22.1657   -4.2146   21.0984 F   0  0  0  0  0  0
  -21.5649   -3.4531   25.7744 F   0  0  0  0  0  0
  -29.9646  -13.5734   20.4317 N   0  0  0  0  0  0
  -26.2860  -12.9397   20.3166 N   0  0  0  0  0  0
  -25.9243  -11.6548   20.5654 N   0  0  0  0  0  0
  -22.0417  -12.8175   22.0501 N   0  0  0  0  0  0
  -25.4239  -15.1924   20.4174 N   0  0  0  0  0  0
  -31.7295  -14.9230   20.0674 O   0  0  0  0  0  0
  -21.6624   -6.8866   21.4245 O   0  0  0  0  0  0
  -22.3448  -14.5556   20.6880 O   0  0  0  0  0  0
  -24.6289  -31.8537   23.1889 C   0  0  0  0  0  0
  -25.9105  -32.4731   23.8264 C   0  0  1  0  0  0
  -27.2285  -27.2289   20.1364 C   0  0  0  0  0  0
  -25.5899  -33.8536   24.2175 N   0  0  0  0  0  0
  -23.4290  -30.4741   21.5363 C   0  0  2  0  0  0
  -24.8773  -28.9101   20.1206 C   0  0  0  0  0  0
  -22.7521  -29.4585   22.4891 C   0  0  0  0  0  0
  -18.0327  -28.1362   22.8517 C   0  0  0  0  0  0
  -24.1518  -36.7264   23.2657 C   0  0  0  0  0  0
  -25.9809  -30.7521   21.3812 C   0  0  0  0  0  0
  -26.0519  -29.3706   20.7302 C   0  0  0  0  0  0
  -27.2275  -28.5470   20.7224 C   0  0  0  0  0  0
  -26.0401  -26.8634   19.4685 C   0  0  0  0  0  0
  -24.8794  -27.6621   19.4792 C   0  0  0  0  0  0
  -23.6497  -29.8025   20.1569 C   0  0  0  0  0  0
  -25.4141  -36.3038   24.0330 C   0  0  1  0  0  0
  -20.5930  -28.3659   23.1260 C   0  0  2  0  0  0
  -20.6803  -26.9369   22.5390 C   0  0  0  0  0  0
  -19.5749  -26.6351   21.5212 C   0  0  0  0  0  0
  -18.1939  -26.7915   22.1621 C   0  0  0  0  0  0
  -19.1579  -28.8835   23.2893 C   0  0  0  0  0  0
  -18.9498  -30.1464   23.8857 C   0  0  0  0  0  0
  -17.6480  -30.6564   24.0551 C   0  0  0  0  0  0
  -25.9070  -34.9424   23.5055 C   0  0  0  0  0  0
  -16.5378  -29.9044   23.6337 C   0  0  0  0  0  0
  -16.7309  -28.6474   23.0357 C   0  0  0  0  0  0
  -26.4461  -31.6561   25.0664 C   0  0  0  0  0  0
  -25.3670  -31.3761   26.1371 C   0  0  0  0  0  0
  -27.0330  -30.2970   24.6205 C   0  0  0  0  0  0
  -27.6010  -32.4327   25.7422 C   0  0  0  0  0  0
  -27.5586  -37.1781   24.8474 C   0  0  0  0  0  0
  -21.4221  -29.3009   22.3669 N   0  0  0  0  0  0
  -26.4300  -37.3754   23.9426 N   0  0  0  0  0  0
  -24.6985  -31.0500   22.0876 N   0  0  0  0  0  0
  -23.4213  -28.8141   23.3002 O   0  0  0  0  0  0
  -28.3430  -26.3470   20.1112 O   0  0  0  0  0  0
  -26.5697  -34.8926   22.4653 O   0  0  0  0  0  0
  -23.5420  -32.1352   23.7138 O   0  0  0  0  0  0
  -29.6654  -22.5027   19.8607 C   0  0  0  0  0  0
  -27.2692  -22.3707   20.3804 C   0  0  0  0  0  0
  -29.6652  -24.0749   20.2143 C   0  0  0  0  0  0
  -27.2434  -23.8797   19.8710 C   0  0  0  0  0  0
  -28.6294  -21.5838   20.5919 C   0  0  1  0  0  0
  -28.3019  -24.8553   20.4638 C   0  0  2  0  0  0
  -26.4880  -18.7381   24.8232 C   0  0  0  0  0  0
  -29.5749  -16.1954   22.2801 C   0  0  0  0  0  0
  -26.1622  -18.8583   23.3271 C   0  0  0  0  0  0
  -27.3114  -19.5415   22.5720 C   0  0  0  0  0  0
  -27.2693  -19.3829   21.0359 C   0  0  0  0  0  0
  -29.7166  -18.8264   20.6040 C   0  0  0  0  0  0
  -29.6402  -17.2673   20.0287 C   0  0  0  0  0  0
  -28.5325  -19.9368   20.3132 C   0  0  2  0  0  0
  -29.8426  -15.9693   20.8594 N   0  0  0  0  0  0
  -31.4757  -12.6506   19.2074 H   0  0  0  0  0  0
  -30.4065  -11.5377   20.0047 H   0  0  0  0  0  0
  -29.8344  -11.7336   17.5651 H   0  0  0  0  0  0
  -29.6344  -13.4626   17.7235 H   0  0  0  0  0  0
  -27.9305  -11.2718   18.9529 H   0  0  0  0  0  0
  -27.3949  -12.4722   17.8023 H   0  0  0  0  0  0
  -27.6282  -14.2507   19.4542 H   0  0  0  0  0  0
  -28.7173  -12.1566   21.3907 H   0  0  0  0  0  0
  -28.3390  -13.7994   21.8100 H   0  0  0  0  0  0
  -25.2729   -9.5720   22.4724 H   0  0  0  0  0  0
  -24.0028   -7.4608   22.7411 H   0  0  0  0  0  0
  -21.0835   -8.8737   19.8884 H   0  0  0  0  0  0
  -22.3662  -10.9657   19.6130 H   0  0  0  0  0  0
  -21.1951   -7.6132   23.9740 H   0  0  0  0  0  0
  -21.1504   -6.0497   25.9096 H   0  0  0  0  0  0
  -22.0584   -2.7605   23.2848 H   0  0  0  0  0  0
  -22.4043  -11.9817   22.4872 H   0  0  0  0  0  0
  -21.1021  -13.1143   22.2702 H   0  0  0  0  0  0
  -24.6760  -15.8627   20.5534 H   0  0  0  0  0  0
  -26.2956  -15.6214   20.1330 H   0  0  0  0  0  0
  -26.7168  -32.5345   23.1001 H   0  0  0  0  0  0
  -25.0021  -33.9714   25.0302 H   0  0  0  0  0  0
  -22.7245  -31.2960   21.3820 H   0  0  0  0  0  0
  -23.3791  -35.9573   23.3287 H   0  0  0  0  0  0
  -24.3614  -36.8881   22.2072 H   0  0  0  0  0  0
  -23.7274  -37.6460   23.6691 H   0  0  0  0  0  0
  -26.1521  -31.5104   20.6144 H   0  0  0  0  0  0
  -26.8487  -30.7822   22.0281 H   0  0  0  0  0  0
  -28.1302  -28.9149   21.1893 H   0  0  0  0  0  0
  -26.0000  -25.9519   18.8979 H   0  0  0  0  0  0
  -23.9904  -27.3091   18.9749 H   0  0  0  0  0  0
  -23.7798  -30.5745   19.3974 H   0  0  0  0  0  0
  -22.7672  -29.2338   19.8559 H   0  0  0  0  0  0
  -25.1330  -36.1845   25.0835 H   0  0  0  0  0  0
  -21.0063  -28.3186   24.1356 H   0  0  0  0  0  0
  -20.5692  -26.2246   23.3590 H   0  0  0  0  0  0
  -21.6675  -26.7346   22.1175 H   0  0  0  0  0  0
  -19.6882  -25.6258   21.1219 H   0  0  0  0  0  0
  -19.6704  -27.3211   20.6784 H   0  0  0  0  0  0
  -17.4224  -26.6734   21.4015 H   0  0  0  0  0  0
  -18.0283  -26.0067   22.9014 H   0  0  0  0  0  0
  -19.7972  -30.7342   24.2141 H   0  0  0  0  0  0
  -17.5022  -31.6237   24.5172 H   0  0  0  0  0  0
  -15.5378  -30.2906   23.7686 H   0  0  0  0  0  0
  -15.8728  -28.0770   22.7023 H   0  0  0  0  0  0
  -24.5902  -30.7047   25.7708 H   0  0  0  0  0  0
  -24.8819  -32.2937   26.4687 H   0  0  0  0  0  0
  -25.7963  -30.9033   27.0212 H   0  0  0  0  0  0
  -26.2929  -29.6688   24.1229 H   0  0  0  0  0  0
  -27.4035  -29.7232   25.4706 H   0  0  0  0  0  0
  -27.8780  -30.4277   23.9461 H   0  0  0  0  0  0
  -27.2620  -33.3674   26.1929 H   0  0  0  0  0  0
  -28.3828  -32.6809   25.0234 H   0  0  0  0  0  0
  -28.0677  -31.8509   26.5386 H   0  0  0  0  0  0
  -28.2585  -38.0091   24.7516 H   0  0  0  0  0  0
  -28.1097  -36.2605   24.6286 H   0  0  0  0  0  0
  -27.2308  -37.1413   25.8881 H   0  0  0  0  0  0
  -20.9360  -29.8694   21.6894 H   0  0  0  0  0  0
  -26.0148  -38.2825   24.1392 H   0  0  0  0  0  0
  -30.6668  -22.1036   20.0189 H   0  0  0  0  0  0
  -29.4958  -22.3998   18.7875 H   0  0  0  0  0  0
  -26.6561  -21.8175   19.6690 H   0  0  0  0  0  0
  -26.7090  -22.3307   21.3146 H   0  0  0  0  0  0
  -30.1786  -24.5699   19.3888 H   0  0  0  0  0  0
  -30.3161  -24.2324   21.0751 H   0  0  0  0  0  0
  -26.2426  -24.2514   20.0851 H   0  0  0  0  0  0
  -27.3520  -23.8923   18.7853 H   0  0  0  0  0  0
  -28.8801  -21.6905   21.6469 H   0  0  0  0  0  0
  -28.1285  -24.8421   21.5398 H   0  0  0  0  0  0
  -25.6856  -18.2446   25.3706 H   0  0  0  0  0  0
  -26.6469  -19.7132   25.2834 H   0  0  0  0  0  0
  -27.3943  -18.1485   24.9807 H   0  0  0  0  0  0
  -28.6448  -16.7493   22.4133 H   0  0  0  0  0  0
  -30.3874  -16.7703   22.7278 H   0  0  0  0  0  0
  -29.4854  -15.2738   22.8549 H   0  0  0  0  0  0
  -25.2413  -19.4268   23.1892 H   0  0  0  0  0  0
  -25.9713  -17.8640   22.9179 H   0  0  0  0  0  0
  -28.2466  -19.1378   22.9551 H   0  0  0  0  0  0
  -27.3141  -20.5968   22.8392 H   0  0  0  0  0  0
  -26.3654  -19.8503   20.6466 H   0  0  0  0  0  0
  -27.1476  -18.3270   20.7932 H   0  0  0  0  0  0
  -30.6131  -19.2600   20.1607 H   0  0  0  0  0  0
  -29.9611  -18.8259   21.6636 H   0  0  0  0  0  0
  -30.3399  -17.2045   19.1931 H   0  0  0  0  0  0
  -28.6686  -17.1408   19.5528 H   0  0  0  0  0  0
  -28.3302  -19.8536   19.2454 H   0  0  0  0  0  0
  1 25  1  0  0  0
  1 30  2  0  0  0
  1 85  1  0  0  0
  2  3  1  0  0  0
  2 25  1  0  0  0
  2 86  1  0  0  0
  2 87  1  0  0  0
  3  4  1  0  0  0
  3 88  1  0  0  0
  3 89  1  0  0  0
  4  5  1  0  0  0
  4 90  1  0  0  0
  4 91  1  0  0  0
  5  6  1  0  0  0
  5 26  1  0  0  0
  5 92  1  0  0  0
  6 25  1  0  0  0
  6 93  1  0  0  0
  6 94  1  0  0  0
  7  8  2  0  0  0
  7 26  1  0  0  0
  7 29  1  0  0  0
  8  9  1  0  0  0
  8 22  1  0  0  0
  9 10  1  0  0  0
  9 27  2  0  0  0
 10 11  2  0  0  0
 10 15  1  0  0  0
 11 12  1  0  0  0
 11 95  1  0  0  0
 12 13  2  0  0  0
 12 96  1  0  0  0
 13 14  1  0  0  0
 13 31  1  0  0  0
 14 15  2  0  0  0
 14 97  1  0  0  0
 15 98  1  0  0  0
 16 17  2  0  0  0
 16 21  1  0  0  0
 16 31  1  0  0  0
 17 18  1  0  0  0
 17 99  1  0  0  0
 18 19  2  0  0  0
 18100  1  0  0  0
 19 20  1  0  0  0
 19 24  1  0  0  0
 20 21  2  0  0  0
 20101  1  0  0  0
 21 23  1  0  0  0
 22 28  1  0  0  0
 22 32  2  0  0  0
 26 27  1  0  0  0
 28102  1  0  0  0
 28103  1  0  0  0
 29104  1  0  0  0
 29105  1  0  0  0
 33 34  1  0  0  0
 33 66  1  0  0  0
 33 70  2  0  0  0
 34 36  1  0  0  0
 34 59  1  0  0  0
 34106  1  0  0  0
 35 44  2  0  0  0
 35 45  1  0  0  0
 35 68  1  0  0  0
 36 56  1  0  0  0
 36107  1  0  0  0
 37 39  1  0  0  0
 37 47  1  0  0  0
 37 66  1  0  0  0
 37108  1  0  0  0
 38 43  2  0  0  0
 38 46  1  0  0  0
 38 47  1  0  0  0
 39 64  1  0  0  0
 39 67  2  0  0  0
 40 52  1  0  0  0
 40 53  2  0  0  0
 40 58  1  0  0  0
 41109  1  0  0  0
 41110  1  0  0  0
 41111  1  0  0  0
 41 48  1  0  0  0
 42 43  1  0  0  0
 42 66  1  0  0  0
 42112  1  0  0  0
 42113  1  0  0  0
 43 44  1  0  0  0
 44114  1  0  0  0
 45 46  2  0  0  0
 45115  1  0  0  0
 46116  1  0  0  0
 47117  1  0  0  0
 47118  1  0  0  0
 48 56  1  0  0  0
 48 65  1  0  0  0
 48119  1  0  0  0
 49 50  1  0  0  0
 49 53  1  0  0  0
 49 64  1  0  0  0
 49120  1  0  0  0
 50 51  1  0  0  0
 50121  1  0  0  0
 50122  1  0  0  0
 51 52  1  0  0  0
 51123  1  0  0  0
 51124  1  0  0  0
 52125  1  0  0  0
 52126  1  0  0  0
 53 54  1  0  0  0
 54 55  2  0  0  0
 54127  1  0  0  0
 55 57  1  0  0  0
 55128  1  0  0  0
 56 69  2  0  0  0
 57 58  2  0  0  0
 57129  1  0  0  0
 58130  1  0  0  0
 59 60  1  0  0  0
 59 61  1  0  0  0
 59 62  1  0  0  0
 60131  1  0  0  0
 60132  1  0  0  0
 60133  1  0  0  0
 61134  1  0  0  0
 61135  1  0  0  0
 61136  1  0  0  0
 62137  1  0  0  0
 62138  1  0  0  0
 62139  1  0  0  0
 63 65  1  0  0  0
 63140  1  0  0  0
 63141  1  0  0  0
 63142  1  0  0  0
 64143  1  0  0  0
 65144  1  0  0  0
 68 76  1  0  0  0
 71 73  1  0  0  0
 71145  1  0  0  0
 71146  1  0  0  0
 71 75  1  0  0  0
 72 74  1  0  0  0
 72 75  1  0  0  0
 72147  1  0  0  0
 72148  1  0  0  0
 73 76  1  0  0  0
 73149  1  0  0  0
 73150  1  0  0  0
 74 76  1  0  0  0
 74151  1  0  0  0
 74152  1  0  0  0
 75 84  1  0  0  0
 75153  1  0  0  0
 76154  1  0  0  0
 77 79  1  0  0  0
 77155  1  0  0  0
 77156  1  0  0  0
 77157  1  0  0  0
 78 85  1  0  0  0
 78158  1  0  0  0
 78159  1  0  0  0
 78160  1  0  0  0
 79 80  1  0  0  0
 79161  1  0  0  0
 79162  1  0  0  0
 80 81  1  0  0  0
 80163  1  0  0  0
 80164  1  0  0  0
 81165  1  0  0  0
 81166  1  0  0  0
 81 84  1  0  0  0
 82 83  1  0  0  0
 82 84  1  0  0  0
 82167  1  0  0  0
 82168  1  0  0  0
 83 85  1  0  0  0
 83169  1  0  0  0
 83170  1  0  0  0
 84171  1  0  0  0
M  ISO  4   1 100  68 101  76 101  85 100
M  END
> <chiral flag>
0

> <version>
0

> <s_m_source_file>
/data/baiqing/PycharmProjects/Reinvent-master-3.2/result/LINK_invent/BTK/process_docking_weight1_custom_sum_contain_oxygen_bond_distance_aromatic_linkinvent_7_9_3/rearranged_h_0098.sdf

> <i_m_source_file_index>
83

> <r_mmod_Potential_Energy-OPLS-2005>
575.284606933594

> <r_mmod_Stretch_Energy-OPLS-2005>
181.334014892578

> <r_mmod_Bend_Energy-OPLS-2005>
255.716369628906

> <r_mmod_Torsional_Energy-OPLS-2005>
371.747863769531

> <r_mmod_Improper_Torsional_Energy-OPLS-2005>
6.22162675857544

> <r_mmod_Van_der_Waal_Energy-OPLS-2005>
121.376815795898

> <r_mmod_Electrostatic_Energy-OPLS-2005>
-290.48291015625

> <r_mmod_Solvation_Energy-OPLS-2005>
-176.254119873047

> <b_mmod_Minimization_Converged-OPLS-2005>
0

> <r_mmod_RMS_Derivative-OPLS-2005>
4.72765207290649

$$$$
86
                    3D
 Structure written by MMmdl.
163171  0  0  1  0            999 V2000
  -30.6745  -14.5167   20.5482 C   0  0  0  0  0  0
  -30.4261  -12.3269   19.4332 C   0  0  0  0  0  0
  -29.4988  -12.5084   18.2116 C   0  0  0  0  0  0
  -28.0218  -12.3617   18.6251 C   0  0  0  0  0  0
  -27.6622  -13.2091   19.8749 C   0  0  2  0  0  0
  -28.7032  -13.0102   21.0008 C   0  0  0  0  0  0
  -25.2601  -13.8161   20.5687 C   0  0  0  0  0  0
  -24.1859  -13.0441   20.9197 C   0  0  0  0  0  0
  -24.6404  -11.6899   20.8740 C   0  0  0  0  0  0
  -23.9070  -10.4284   21.0419 C   0  0  0  0  0  0
  -24.3622   -9.4200   21.9200 C   0  0  0  0  0  0
  -23.6299   -8.2239   22.0770 C   0  0  0  0  0  0
  -22.4279   -8.0288   21.3560 C   0  0  0  0  0  0
  -21.9916   -9.0261   20.4657 C   0  0  0  0  0  0
  -22.7243  -10.2138   20.3067 C   0  0  0  0  0  0
  -21.6851   -6.0745   22.5287 C   0  0  0  0  0  0
  -21.4001   -6.5654   23.8218 C   0  0  0  0  0  0
  -21.3649   -5.6811   24.9179 C   0  0  0  0  0  0
  -21.6046   -4.3073   24.7228 C   0  0  0  0  0  0
  -21.8818   -3.8161   23.4351 C   0  0  0  0  0  0
  -21.9193   -4.6975   22.3405 C   0  0  0  0  0  0
  -22.7881  -13.5245   21.1867 C   0  0  0  0  0  0
  -22.1666   -4.2160   21.0981 F   0  0  0  0  0  0
  -21.5617   -3.4554   25.7740 F   0  0  0  0  0  0
  -30.0316  -13.3198   20.4471 N   0  0  0  0  0  0
  -26.3036  -12.9327   20.3368 N   0  0  0  0  0  0
  -25.9334  -11.6486   20.5769 N   0  0  0  0  0  0
  -22.0520  -12.8236   22.0403 N   0  0  0  0  0  0
  -25.4321  -15.1868   20.4037 N   0  0  0  0  0  0
  -31.8077  -14.7067   20.1001 O   0  0  0  0  0  0
  -21.6628   -6.8896   21.4259 O   0  0  0  0  0  0
  -22.3581  -14.5574   20.6734 O   0  0  0  0  0  0
  -24.6156  -31.8657   23.2092 C   0  0  0  0  0  0
  -25.9044  -32.4796   23.8406 C   0  0  1  0  0  0
  -27.2385  -27.4190   20.1049 C   0  0  0  0  0  0
  -25.5885  -33.8596   24.2341 N   0  0  0  0  0  0
  -23.4072  -30.4843   21.5503 C   0  0  2  0  0  0
  -24.8571  -28.9448   20.1162 C   0  0  0  0  0  0
  -22.7422  -29.4648   22.5016 C   0  0  0  0  0  0
  -18.0263  -28.1386   22.8482 C   0  0  0  0  0  0
  -24.1487  -36.7317   23.2652 C   0  0  0  0  0  0
  -25.9353  -30.8269   21.3622 C   0  0  0  0  0  0
  -26.0156  -29.4575   20.7145 C   0  0  0  0  0  0
  -27.2125  -28.7038   20.7002 C   0  0  0  0  0  0
  -26.0700  -26.9218   19.4958 C   0  0  0  0  0  0
  -24.8821  -27.6794   19.4988 C   0  0  0  0  0  0
  -23.6168  -29.8108   20.1660 C   0  0  0  0  0  0
  -25.4097  -36.3101   24.0350 C   0  0  1  0  0  0
  -20.5853  -28.3689   23.1317 C   0  0  2  0  0  0
  -20.6752  -26.9426   22.5419 C   0  0  0  0  0  0
  -19.5738  -26.6393   21.5206 C   0  0  0  0  0  0
  -18.1917  -26.7934   22.1613 C   0  0  0  0  0  0
  -19.1506  -28.8856   23.2888 C   0  0  0  0  0  0
  -18.9433  -30.1456   23.8914 C   0  0  0  0  0  0
  -17.6439  -30.6597   24.0566 C   0  0  0  0  0  0
  -25.9019  -34.9456   23.5146 C   0  0  0  0  0  0
  -16.5328  -29.9093   23.6328 C   0  0  0  0  0  0
  -16.7250  -28.6501   23.0359 C   0  0  0  0  0  0
  -26.4470  -31.6569   25.0731 C   0  0  0  0  0  0
  -25.3728  -31.3627   26.1471 C   0  0  0  0  0  0
  -27.0307  -30.3018   24.6084 C   0  0  0  0  0  0
  -27.6066  -32.4294   25.7476 C   0  0  0  0  0  0
  -27.5572  -37.1799   24.8471 C   0  0  0  0  0  0
  -21.4150  -29.3040   22.3736 N   0  0  0  0  0  0
  -26.4285  -37.3780   23.9416 N   0  0  0  0  0  0
  -24.6721  -31.0743   22.0994 N   0  0  0  0  0  0
  -23.4181  -28.8199   23.3083 O   0  0  0  0  0  0
  -28.4067  -26.6840   20.0745 O   0  0  0  0  0  0
  -26.5594  -34.8914   22.4722 O   0  0  0  0  0  0
  -23.5340  -32.1414   23.7468 O   0  0  0  0  0  0
  -29.0705  -20.4828   21.2560 C   0  0  0  0  0  0
  -28.9677  -19.3204   20.5290 C   0  0  0  0  0  0
  -28.8150  -19.7340   19.1690 C   0  0  0  0  0  0
  -28.8711  -21.1075   19.1189 C   0  0  0  0  0  0
  -28.6132  -18.8252   17.9792 C   0  0  0  0  0  0
  -28.8108  -21.9964   17.9141 C   0  0  0  0  0  0
  -27.7800  -25.6538   22.2628 C   0  0  0  0  0  0
  -28.9379  -17.8776   21.0595 C   0  0  0  0  0  0
  -28.3242  -24.1426   20.2322 C   0  0  0  0  0  0
  -29.1552  -22.9887   20.8950 C   0  0  0  0  0  0
  -30.1878  -16.9884   20.7756 C   0  0  0  0  0  0
  -28.5425  -25.5217   20.9305 C   0  0  1  0  0  0
  -28.9968  -21.5934   20.4177 N   0  0  0  0  0  0
  -29.9170  -15.5457   20.9881 N   0  0  0  0  0  0
  -31.4728  -12.4234   19.1349 H   0  0  0  0  0  0
  -30.3243  -11.3197   19.8398 H   0  0  0  0  0  0
  -29.7410  -11.7726   17.4446 H   0  0  0  0  0  0
  -29.6619  -13.4882   17.7588 H   0  0  0  0  0  0
  -27.8468  -11.3074   18.8373 H   0  0  0  0  0  0
  -27.3665  -12.6214   17.7928 H   0  0  0  0  0  0
  -27.7010  -14.2548   19.5690 H   0  0  0  0  0  0
  -28.6835  -11.9814   21.3634 H   0  0  0  0  0  0
  -28.4621  -13.6273   21.8683 H   0  0  0  0  0  0
  -25.2769   -9.5687   22.4773 H   0  0  0  0  0  0
  -24.0011   -7.4636   22.7499 H   0  0  0  0  0  0
  -21.0846   -8.8801   19.8957 H   0  0  0  0  0  0
  -22.3721  -10.9697   19.6184 H   0  0  0  0  0  0
  -21.1997   -7.6166   23.9719 H   0  0  0  0  0  0
  -21.1458   -6.0540   25.9082 H   0  0  0  0  0  0
  -22.0601   -2.7624   23.2846 H   0  0  0  0  0  0
  -22.4117  -11.9869   22.4764 H   0  0  0  0  0  0
  -21.1148  -13.1273   22.2629 H   0  0  0  0  0  0
  -24.6630  -15.8412   20.4960 H   0  0  0  0  0  0
  -26.2745  -15.6138   20.0412 H   0  0  0  0  0  0
  -26.7120  -32.5521   23.1176 H   0  0  0  0  0  0
  -25.0037  -33.9755   25.0485 H   0  0  0  0  0  0
  -22.6967  -31.3008   21.4080 H   0  0  0  0  0  0
  -23.3735  -35.9660   23.3316 H   0  0  0  0  0  0
  -24.3577  -36.8937   22.2067 H   0  0  0  0  0  0
  -23.7242  -37.6524   23.6664 H   0  0  0  0  0  0
  -26.0377  -31.5848   20.5859 H   0  0  0  0  0  0
  -26.8277  -30.8917   21.9730 H   0  0  0  0  0  0
  -28.1135  -29.0958   21.1532 H   0  0  0  0  0  0
  -26.0844  -25.9535   19.0159 H   0  0  0  0  0  0
  -23.9982  -27.2882   19.0171 H   0  0  0  0  0  0
  -23.7200  -30.5815   19.4019 H   0  0  0  0  0  0
  -22.7425  -29.2262   19.8731 H   0  0  0  0  0  0
  -25.1259  -36.1977   25.0832 H   0  0  0  0  0  0
  -20.9913  -28.3257   24.1446 H   0  0  0  0  0  0
  -20.5672  -26.2295   23.3598 H   0  0  0  0  0  0
  -21.6625  -26.7485   22.1205 H   0  0  0  0  0  0
  -19.6914  -25.6300   21.1234 H   0  0  0  0  0  0
  -19.6678  -27.3210   20.6737 H   0  0  0  0  0  0
  -17.4186  -26.6685   21.4015 H   0  0  0  0  0  0
  -18.0314  -26.0070   22.8995 H   0  0  0  0  0  0
  -19.7917  -30.7250   24.2309 H   0  0  0  0  0  0
  -17.5001  -31.6276   24.5183 H   0  0  0  0  0  0
  -15.5331  -30.3005   23.7668 H   0  0  0  0  0  0
  -15.8633  -28.0829   22.7095 H   0  0  0  0  0  0
  -24.5930  -30.6952   25.7785 H   0  0  0  0  0  0
  -24.8870  -32.2741   26.4962 H   0  0  0  0  0  0
  -25.8084  -30.8763   27.0205 H   0  0  0  0  0  0
  -26.2818  -29.6727   24.1256 H   0  0  0  0  0  0
  -27.4218  -29.7303   25.4512 H   0  0  0  0  0  0
  -27.8588  -30.4367   23.9126 H   0  0  0  0  0  0
  -27.2726  -33.3619   26.2039 H   0  0  0  0  0  0
  -28.3855  -32.6803   25.0262 H   0  0  0  0  0  0
  -28.0735  -31.8407   26.5380 H   0  0  0  0  0  0
  -28.2595  -38.0096   24.7510 H   0  0  0  0  0  0
  -28.1063  -36.2617   24.6303 H   0  0  0  0  0  0
  -27.2284  -37.1463   25.8876 H   0  0  0  0  0  0
  -20.9356  -29.8744   21.6906 H   0  0  0  0  0  0
  -26.0181  -38.2863   24.1392 H   0  0  0  0  0  0
  -29.1910  -20.6225   22.3251 H   0  0  0  0  0  0
  -28.9062  -17.7984   18.1948 H   0  0  0  0  0  0
  -29.2013  -19.1642   17.1274 H   0  0  0  0  0  0
  -27.5637  -18.8192   17.6840 H   0  0  0  0  0  0
  -29.5963  -22.7509   17.9370 H   0  0  0  0  0  0
  -27.8415  -22.4908   17.8358 H   0  0  0  0  0  0
  -28.9546  -21.4317   16.9946 H   0  0  0  0  0  0
  -28.0674  -24.8710   22.9650 H   0  0  0  0  0  0
  -26.7019  -25.5853   22.1170 H   0  0  0  0  0  0
  -27.9943  -26.6084   22.7440 H   0  0  0  0  0  0
  -28.0566  -17.4046   20.6251 H   0  0  0  0  0  0
  -28.7526  -17.9061   22.1349 H   0  0  0  0  0  0
  -27.2628  -23.8953   20.2093 H   0  0  0  0  0  0
  -28.6302  -24.2680   19.1977 H   0  0  0  0  0  0
  -28.9310  -22.9811   21.9618 H   0  0  0  0  0  0
  -30.2159  -23.2321   20.8269 H   0  0  0  0  0  0
  -30.5103  -17.1308   19.7429 H   0  0  0  0  0  0
  -31.0259  -17.3040   21.3996 H   0  0  0  0  0  0
  -29.6007  -25.5555   21.1895 H   0  0  0  0  0  0
  -29.0108  -15.2981   21.3558 H   0  0  0  0  0  0
  1 25  1  0  0  0
  1 30  2  0  0  0
  1 84  1  0  0  0
  2  3  1  0  0  0
  2 25  1  0  0  0
  2 85  1  0  0  0
  2 86  1  0  0  0
  3  4  1  0  0  0
  3 87  1  0  0  0
  3 88  1  0  0  0
  4  5  1  0  0  0
  4 89  1  0  0  0
  4 90  1  0  0  0
  5  6  1  0  0  0
  5 26  1  0  0  0
  5 91  1  0  0  0
  6 25  1  0  0  0
  6 92  1  0  0  0
  6 93  1  0  0  0
  7  8  2  0  0  0
  7 26  1  0  0  0
  7 29  1  0  0  0
  8  9  1  0  0  0
  8 22  1  0  0  0
  9 10  1  0  0  0
  9 27  2  0  0  0
 10 11  2  0  0  0
 10 15  1  0  0  0
 11 12  1  0  0  0
 11 94  1  0  0  0
 12 13  2  0  0  0
 12 95  1  0  0  0
 13 14  1  0  0  0
 13 31  1  0  0  0
 14 15  2  0  0  0
 14 96  1  0  0  0
 15 97  1  0  0  0
 16 17  2  0  0  0
 16 21  1  0  0  0
 16 31  1  0  0  0
 17 18  1  0  0  0
 17 98  1  0  0  0
 18 19  2  0  0  0
 18 99  1  0  0  0
 19 20  1  0  0  0
 19 24  1  0  0  0
 20 21  2  0  0  0
 20100  1  0  0  0
 21 23  1  0  0  0
 22 28  1  0  0  0
 22 32  2  0  0  0
 26 27  1  0  0  0
 28101  1  0  0  0
 28102  1  0  0  0
 29103  1  0  0  0
 29104  1  0  0  0
 33 34  1  0  0  0
 33 66  1  0  0  0
 33 70  2  0  0  0
 34 36  1  0  0  0
 34 59  1  0  0  0
 34105  1  0  0  0
 35 44  2  0  0  0
 35 45  1  0  0  0
 35 68  1  0  0  0
 36 56  1  0  0  0
 36106  1  0  0  0
 37 39  1  0  0  0
 37 47  1  0  0  0
 37 66  1  0  0  0
 37107  1  0  0  0
 38 43  2  0  0  0
 38 46  1  0  0  0
 38 47  1  0  0  0
 39 64  1  0  0  0
 39 67  2  0  0  0
 40 52  1  0  0  0
 40 53  2  0  0  0
 40 58  1  0  0  0
 41108  1  0  0  0
 41109  1  0  0  0
 41110  1  0  0  0
 41 48  1  0  0  0
 42 43  1  0  0  0
 42 66  1  0  0  0
 42111  1  0  0  0
 42112  1  0  0  0
 43 44  1  0  0  0
 44113  1  0  0  0
 45 46  2  0  0  0
 45114  1  0  0  0
 46115  1  0  0  0
 47116  1  0  0  0
 47117  1  0  0  0
 48 56  1  0  0  0
 48 65  1  0  0  0
 48118  1  0  0  0
 49 50  1  0  0  0
 49 53  1  0  0  0
 49 64  1  0  0  0
 49119  1  0  0  0
 50 51  1  0  0  0
 50120  1  0  0  0
 50121  1  0  0  0
 51 52  1  0  0  0
 51122  1  0  0  0
 51123  1  0  0  0
 52124  1  0  0  0
 52125  1  0  0  0
 53 54  1  0  0  0
 54 55  2  0  0  0
 54126  1  0  0  0
 55 57  1  0  0  0
 55127  1  0  0  0
 56 69  2  0  0  0
 57 58  2  0  0  0
 57128  1  0  0  0
 58129  1  0  0  0
 59 60  1  0  0  0
 59 61  1  0  0  0
 59 62  1  0  0  0
 60130  1  0  0  0
 60131  1  0  0  0
 60132  1  0  0  0
 61133  1  0  0  0
 61134  1  0  0  0
 61135  1  0  0  0
 62136  1  0  0  0
 62137  1  0  0  0
 62138  1  0  0  0
 63 65  1  0  0  0
 63139  1  0  0  0
 63140  1  0  0  0
 63141  1  0  0  0
 64142  1  0  0  0
 65143  1  0  0  0
 68 82  1  0  0  0
 71 72  2  0  0  0
 71 83  1  0  0  0
 71144  1  0  0  0
 72 73  1  0  0  0
 72 78  1  0  0  0
 73 74  2  0  0  0
 73 75  1  0  0  0
 74 76  1  0  0  0
 74 83  1  0  0  0
 75145  1  0  0  0
 75146  1  0  0  0
 75147  1  0  0  0
 76148  1  0  0  0
 76149  1  0  0  0
 76150  1  0  0  0
 77151  1  0  0  0
 77152  1  0  0  0
 77153  1  0  0  0
 77 82  1  0  0  0
 78 81  1  0  0  0
 78154  1  0  0  0
 78155  1  0  0  0
 79 80  1  0  0  0
 79 82  1  0  0  0
 79156  1  0  0  0
 79157  1  0  0  0
 80 83  1  0  0  0
 80158  1  0  0  0
 80159  1  0  0  0
 81 84  1  0  0  0
 81160  1  0  0  0
 81161  1  0  0  0
 82162  1  0  0  0
 84163  1  0  0  0
M  ISO  4   1 100  68 101  82 101  84 100
M  END
> <chiral flag>
0

> <version>
0

> <s_m_source_file>
/data/baiqing/PycharmProjects/Reinvent-master-3.2/result/LINK_invent/BTK/process_docking_weight1_custom_sum_contain_oxygen_bond_distance_aromatic_linkinvent_7_9_3/rearranged_h_0098.sdf

> <i_m_source_file_index>
84

> <r_mmod_Potential_Energy-OPLS-2005>
-99.3776931762695

> <r_mmod_Stretch_Energy-OPLS-2005>
43.8959732055664

> <r_mmod_Bend_Energy-OPLS-2005>
117.056632995605

> <r_mmod_Torsional_Energy-OPLS-2005>
239.633041381836

> <r_mmod_Improper_Torsional_Energy-OPLS-2005>
5.54000234603882

> <r_mmod_Van_der_Waal_Energy-OPLS-2005>
119.956764221191

> <r_mmod_Electrostatic_Energy-OPLS-2005>
-429.920867919922

> <r_mmod_Solvation_Energy-OPLS-2005>
-211.433319091797

> <b_mmod_Minimization_Converged-OPLS-2005>
0

> <r_mmod_RMS_Derivative-OPLS-2005>
2.78488683700562

$$$$
88
                    3D
 Structure written by MMmdl.
169177  0  0  1  0            999 V2000
  -30.6489  -14.7242   20.5371 C   0  0  0  0  0  0
  -30.4518  -12.4605   19.4895 C   0  0  0  0  0  0
  -29.5293  -12.5176   18.2509 C   0  0  0  0  0  0
  -28.0527  -12.3407   18.6573 C   0  0  0  0  0  0
  -27.6517  -13.2290   19.8639 C   0  0  2  0  0  0
  -28.6934  -13.1264   20.9973 C   0  0  0  0  0  0
  -25.2524  -13.8197   20.5720 C   0  0  0  0  0  0
  -24.1784  -13.0427   20.9186 C   0  0  0  0  0  0
  -24.6386  -11.6919   20.8718 C   0  0  0  0  0  0
  -23.9054  -10.4295   21.0386 C   0  0  0  0  0  0
  -24.3603   -9.4214   21.9167 C   0  0  0  0  0  0
  -23.6280   -8.2244   22.0755 C   0  0  0  0  0  0
  -22.4263   -8.0268   21.3544 C   0  0  0  0  0  0
  -21.9898   -9.0230   20.4651 C   0  0  0  0  0  0
  -22.7220  -10.2116   20.3062 C   0  0  0  0  0  0
  -21.6808   -6.0731   22.5284 C   0  0  0  0  0  0
  -21.3993   -6.5637   23.8226 C   0  0  0  0  0  0
  -21.3677   -5.6785   24.9182 C   0  0  0  0  0  0
  -21.6044   -4.3054   24.7235 C   0  0  0  0  0  0
  -21.8817   -3.8155   23.4351 C   0  0  0  0  0  0
  -21.9171   -4.6965   22.3406 C   0  0  0  0  0  0
  -22.7802  -13.5212   21.1834 C   0  0  0  0  0  0
  -22.1624   -4.2151   21.0976 F   0  0  0  0  0  0
  -21.5660   -3.4548   25.7750 F   0  0  0  0  0  0
  -30.0004  -13.5072   20.4407 N   0  0  0  0  0  0
  -26.2973  -12.9382   20.3333 N   0  0  0  0  0  0
  -25.9320  -11.6528   20.5737 N   0  0  0  0  0  0
  -22.0440  -12.8197   22.0416 N   0  0  0  0  0  0
  -25.4184  -15.1926   20.4187 N   0  0  0  0  0  0
  -31.7890  -14.8337   20.0761 O   0  0  0  0  0  0
  -21.6606   -6.8869   21.4258 O   0  0  0  0  0  0
  -22.3470  -14.5487   20.6655 O   0  0  0  0  0  0
  -24.6277  -31.8555   23.1985 C   0  0  0  0  0  0
  -25.9091  -32.4774   23.8323 C   0  0  1  0  0  0
  -27.2197  -27.2673   20.1457 C   0  0  0  0  0  0
  -25.5871  -33.8574   24.2229 N   0  0  0  0  0  0
  -23.4253  -30.4733   21.5483 C   0  0  2  0  0  0
  -24.8705  -28.9187   20.1240 C   0  0  0  0  0  0
  -22.7512  -29.4554   22.5004 C   0  0  0  0  0  0
  -18.0277  -28.1332   22.8543 C   0  0  0  0  0  0
  -24.1463  -36.7324   23.2636 C   0  0  0  0  0  0
  -25.9693  -30.7737   21.3720 C   0  0  0  0  0  0
  -26.0454  -29.3936   20.7212 C   0  0  0  0  0  0
  -27.2258  -28.5842   20.7120 C   0  0  0  0  0  0
  -26.0166  -26.8540   19.5273 C   0  0  0  0  0  0
  -24.8598  -27.6527   19.5201 C   0  0  0  0  0  0
  -23.6412  -29.8015   20.1677 C   0  0  0  0  0  0
  -25.4094  -36.3087   24.0311 C   0  0  1  0  0  0
  -20.5877  -28.3624   23.1353 C   0  0  2  0  0  0
  -20.6748  -26.9353   22.5448 C   0  0  0  0  0  0
  -19.5717  -26.6348   21.5255 C   0  0  0  0  0  0
  -18.1898  -26.7883   22.1662 C   0  0  0  0  0  0
  -19.1517  -28.8802   23.2939 C   0  0  0  0  0  0
  -18.9432  -30.1410   23.8941 C   0  0  0  0  0  0
  -17.6418  -30.6570   24.0535 C   0  0  0  0  0  0
  -25.9036  -34.9464   23.5087 C   0  0  0  0  0  0
  -16.5328  -29.9051   23.6307 C   0  0  0  0  0  0
  -16.7245  -28.6439   23.0405 C   0  0  0  0  0  0
  -26.4449  -31.6623   25.0736 C   0  0  0  0  0  0
  -25.3672  -31.3792   26.1469 C   0  0  0  0  0  0
  -27.0225  -30.3026   24.6194 C   0  0  0  0  0  0
  -27.5983  -32.4386   25.7514 C   0  0  0  0  0  0
  -27.5568  -37.1805   24.8455 C   0  0  0  0  0  0
  -21.4218  -29.2985   22.3764 N   0  0  0  0  0  0
  -26.4273  -37.3786   23.9407 N   0  0  0  0  0  0
  -24.6942  -31.0506   22.0974 N   0  0  0  0  0  0
  -23.4223  -28.8101   23.3100 O   0  0  0  0  0  0
  -28.3164  -26.3793   20.2179 O   0  0  0  0  0  0
  -26.5649  -34.8937   22.4684 O   0  0  0  0  0  0
  -23.5437  -32.1352   23.7309 O   0  0  0  0  0  0
  -31.1496  -21.7882   19.1654 C   0  0  0  0  0  0
  -32.2436  -20.9020   19.1113 C   0  0  0  0  0  0
  -30.1425  -21.2754   19.9282 C   0  0  0  0  0  0
  -31.8593  -19.7775   19.7867 C   0  0  0  0  0  0
  -32.7501  -18.6135   20.1233 C   0  0  0  0  0  0
  -33.9738  -22.6883   18.6881 C   0  0  0  0  0  0
  -33.6740  -20.8020   17.0061 C   0  0  0  0  0  0
  -29.6395  -16.0793   22.3164 C   0  0  0  0  0  0
  -28.9276  -22.2048   20.2890 C   0  0  0  0  0  0
  -29.2021  -23.8144   20.4638 C   0  0  0  0  0  0
  -29.7822  -18.6799   20.7848 C   0  0  0  0  0  0
  -29.9649  -17.1909   20.1080 C   0  0  0  0  0  0
  -28.0437  -24.9016   20.1962 C   0  0  0  0  0  0
  -33.5933  -21.2112   18.4877 C   0  0  0  0  0  0
  -30.4993  -19.8742   20.1544 N   0  0  0  0  0  0
  -29.9384  -15.8735   20.8975 N   0  0  0  0  0  0
  -31.4913  -12.5966   19.1855 H   0  0  0  0  0  0
  -30.4138  -11.4802   19.9663 H   0  0  0  0  0  0
  -29.8189  -11.7436   17.5389 H   0  0  0  0  0  0
  -29.6594  -13.4698   17.7343 H   0  0  0  0  0  0
  -27.9044  -11.2899   18.9078 H   0  0  0  0  0  0
  -27.4028  -12.5462   17.8083 H   0  0  0  0  0  0
  -27.6549  -14.2584   19.5052 H   0  0  0  0  0  0
  -28.7383  -12.1082   21.3900 H   0  0  0  0  0  0
  -28.3980  -13.7539   21.8347 H   0  0  0  0  0  0
  -25.2744   -9.5654   22.4752 H   0  0  0  0  0  0
  -23.9961   -7.4630   22.7486 H   0  0  0  0  0  0
  -21.0826   -8.8744   19.8960 H   0  0  0  0  0  0
  -22.3665  -10.9637   19.6189 H   0  0  0  0  0  0
  -21.1959   -7.6151   23.9715 H   0  0  0  0  0  0
  -21.1510   -6.0528   25.9074 H   0  0  0  0  0  0
  -22.0584   -2.7614   23.2846 H   0  0  0  0  0  0
  -22.4001  -11.9871   22.4864 H   0  0  0  0  0  0
  -21.1075  -13.1275   22.2621 H   0  0  0  0  0  0
  -24.6612  -15.8522   20.5590 H   0  0  0  0  0  0
  -26.2785  -15.6343   20.1189 H   0  0  0  0  0  0
  -26.7166  -32.5427   23.1069 H   0  0  0  0  0  0
  -24.9897  -33.9703   25.0292 H   0  0  0  0  0  0
  -22.7172  -31.2931   21.4026 H   0  0  0  0  0  0
  -23.3707  -35.9672   23.3292 H   0  0  0  0  0  0
  -24.3533  -36.8979   22.2051 H   0  0  0  0  0  0
  -23.7242  -37.6532   23.6684 H   0  0  0  0  0  0
  -26.0905  -31.5209   20.5876 H   0  0  0  0  0  0
  -26.8553  -30.8376   21.9913 H   0  0  0  0  0  0
  -28.1324  -28.9375   21.1842 H   0  0  0  0  0  0
  -25.9278  -25.8821   19.0677 H   0  0  0  0  0  0
  -23.9546  -27.2668   19.0696 H   0  0  0  0  0  0
  -23.7703  -30.5741   19.4099 H   0  0  0  0  0  0
  -22.7574  -29.2368   19.8644 H   0  0  0  0  0  0
  -25.1266  -36.1920   25.0800 H   0  0  0  0  0  0
  -20.9947  -28.3147   24.1483 H   0  0  0  0  0  0
  -20.5659  -26.2216   23.3637 H   0  0  0  0  0  0
  -21.6612  -26.7390   22.1236 H   0  0  0  0  0  0
  -19.6866  -25.6268   21.1266 H   0  0  0  0  0  0
  -19.6634  -27.3176   20.6807 H   0  0  0  0  0  0
  -17.4185  -26.6689   21.4048 H   0  0  0  0  0  0
  -18.0252  -25.9989   22.9014 H   0  0  0  0  0  0
  -19.7885  -30.7221   24.2373 H   0  0  0  0  0  0
  -17.4951  -31.6260   24.5090 H   0  0  0  0  0  0
  -15.5314  -30.2954   23.7585 H   0  0  0  0  0  0
  -15.8658  -28.0720   22.7182 H   0  0  0  0  0  0
  -24.5853  -30.7107   25.7837 H   0  0  0  0  0  0
  -24.8829  -32.2963   26.4844 H   0  0  0  0  0  0
  -25.7992  -30.9036   27.0287 H   0  0  0  0  0  0
  -26.2754  -29.6875   24.1157 H   0  0  0  0  0  0
  -27.3809  -29.7194   25.4686 H   0  0  0  0  0  0
  -27.8694  -30.4263   23.9439 H   0  0  0  0  0  0
  -27.2551  -33.3696   26.2046 H   0  0  0  0  0  0
  -28.3818  -32.6969   25.0375 H   0  0  0  0  0  0
  -28.0627  -31.8561   26.5488 H   0  0  0  0  0  0
  -28.2588  -38.0098   24.7491 H   0  0  0  0  0  0
  -28.1057  -36.2633   24.6265 H   0  0  0  0  0  0
  -27.2298  -37.1454   25.8863 H   0  0  0  0  0  0
  -20.9408  -29.8683   21.6957 H   0  0  0  0  0  0
  -26.0150  -38.2861   24.1403 H   0  0  0  0  0  0
  -31.1559  -22.7753   18.7310 H   0  0  0  0  0  0
  -32.8399  -17.9311   19.2776 H   0  0  0  0  0  0
  -32.4173  -18.0662   21.0042 H   0  0  0  0  0  0
  -33.7578  -18.9571   20.3504 H   0  0  0  0  0  0
  -33.9327  -22.9610   19.7435 H   0  0  0  0  0  0
  -33.3099  -23.3644   18.1469 H   0  0  0  0  0  0
  -34.9889  -22.8836   18.3403 H   0  0  0  0  0  0
  -33.4776  -19.7370   16.8648 H   0  0  0  0  0  0
  -34.6727  -20.9951   16.6098 H   0  0  0  0  0  0
  -32.9673  -21.3534   16.3854 H   0  0  0  0  0  0
  -29.6144  -15.1590   22.8968 H   0  0  0  0  0  0
  -28.6819  -16.5889   22.4391 H   0  0  0  0  0  0
  -30.4120  -16.6897   22.7825 H   0  0  0  0  0  0
  -28.4158  -21.8198   21.1726 H   0  0  0  0  0  0
  -28.2091  -22.1120   19.4768 H   0  0  0  0  0  0
  -30.0014  -24.1206   19.7966 H   0  0  0  0  0  0
  -29.6132  -23.9875   21.4614 H   0  0  0  0  0  0
  -30.1055  -18.6638   21.8225 H   0  0  0  0  0  0
  -28.7191  -18.9150   20.8322 H   0  0  0  0  0  0
  -30.8488  -17.1552   19.4845 H   0  0  0  0  0  0
  -29.1674  -17.0954   19.3721 H   0  0  0  0  0  0
  -27.2472  -24.7110   20.9172 H   0  0  0  0  0  0
  -27.6372  -24.6643   19.2148 H   0  0  0  0  0  0
  -34.3367  -20.6274   19.0263 H   0  0  0  0  0  0
  1 25  1  0  0  0
  1 30  2  0  0  0
  1 86  1  0  0  0
  2  3  1  0  0  0
  2 25  1  0  0  0
  2 87  1  0  0  0
  2 88  1  0  0  0
  3  4  1  0  0  0
  3 89  1  0  0  0
  3 90  1  0  0  0
  4  5  1  0  0  0
  4 91  1  0  0  0
  4 92  1  0  0  0
  5  6  1  0  0  0
  5 26  1  0  0  0
  5 93  1  0  0  0
  6 25  1  0  0  0
  6 94  1  0  0  0
  6 95  1  0  0  0
  7  8  2  0  0  0
  7 26  1  0  0  0
  7 29  1  0  0  0
  8  9  1  0  0  0
  8 22  1  0  0  0
  9 10  1  0  0  0
  9 27  2  0  0  0
 10 11  2  0  0  0
 10 15  1  0  0  0
 11 12  1  0  0  0
 11 96  1  0  0  0
 12 13  2  0  0  0
 12 97  1  0  0  0
 13 14  1  0  0  0
 13 31  1  0  0  0
 14 15  2  0  0  0
 14 98  1  0  0  0
 15 99  1  0  0  0
 16 17  2  0  0  0
 16 21  1  0  0  0
 16 31  1  0  0  0
 17 18  1  0  0  0
 17100  1  0  0  0
 18 19  2  0  0  0
 18101  1  0  0  0
 19 20  1  0  0  0
 19 24  1  0  0  0
 20 21  2  0  0  0
 20102  1  0  0  0
 21 23  1  0  0  0
 22 28  1  0  0  0
 22 32  2  0  0  0
 26 27  1  0  0  0
 28103  1  0  0  0
 28104  1  0  0  0
 29105  1  0  0  0
 29106  1  0  0  0
 33 34  1  0  0  0
 33 66  1  0  0  0
 33 70  2  0  0  0
 34 36  1  0  0  0
 34 59  1  0  0  0
 34107  1  0  0  0
 35 44  2  0  0  0
 35 45  1  0  0  0
 35 68  1  0  0  0
 36 56  1  0  0  0
 36108  1  0  0  0
 37 39  1  0  0  0
 37 47  1  0  0  0
 37 66  1  0  0  0
 37109  1  0  0  0
 38 43  2  0  0  0
 38 46  1  0  0  0
 38 47  1  0  0  0
 39 64  1  0  0  0
 39 67  2  0  0  0
 40 52  1  0  0  0
 40 53  2  0  0  0
 40 58  1  0  0  0
 41110  1  0  0  0
 41111  1  0  0  0
 41112  1  0  0  0
 41 48  1  0  0  0
 42 43  1  0  0  0
 42 66  1  0  0  0
 42113  1  0  0  0
 42114  1  0  0  0
 43 44  1  0  0  0
 44115  1  0  0  0
 45 46  2  0  0  0
 45116  1  0  0  0
 46117  1  0  0  0
 47118  1  0  0  0
 47119  1  0  0  0
 48 56  1  0  0  0
 48 65  1  0  0  0
 48120  1  0  0  0
 49 50  1  0  0  0
 49 53  1  0  0  0
 49 64  1  0  0  0
 49121  1  0  0  0
 50 51  1  0  0  0
 50122  1  0  0  0
 50123  1  0  0  0
 51 52  1  0  0  0
 51124  1  0  0  0
 51125  1  0  0  0
 52126  1  0  0  0
 52127  1  0  0  0
 53 54  1  0  0  0
 54 55  2  0  0  0
 54128  1  0  0  0
 55 57  1  0  0  0
 55129  1  0  0  0
 56 69  2  0  0  0
 57 58  2  0  0  0
 57130  1  0  0  0
 58131  1  0  0  0
 59 60  1  0  0  0
 59 61  1  0  0  0
 59 62  1  0  0  0
 60132  1  0  0  0
 60133  1  0  0  0
 60134  1  0  0  0
 61135  1  0  0  0
 61136  1  0  0  0
 61137  1  0  0  0
 62138  1  0  0  0
 62139  1  0  0  0
 62140  1  0  0  0
 63 65  1  0  0  0
 63141  1  0  0  0
 63142  1  0  0  0
 63143  1  0  0  0
 64144  1  0  0  0
 65145  1  0  0  0
 68 83  1  0  0  0
 71 72  1  0  0  0
 71 73  2  0  0  0
 71146  1  0  0  0
 72 74  2  0  0  0
 72 84  1  0  0  0
 73 79  1  0  0  0
 73 85  1  0  0  0
 74 75  1  0  0  0
 74 85  1  0  0  0
 75147  1  0  0  0
 75148  1  0  0  0
 75149  1  0  0  0
 76150  1  0  0  0
 76151  1  0  0  0
 76152  1  0  0  0
 76 84  1  0  0  0
 77 84  1  0  0  0
 77153  1  0  0  0
 77154  1  0  0  0
 77155  1  0  0  0
 78 86  1  0  0  0
 78156  1  0  0  0
 78157  1  0  0  0
 78158  1  0  0  0
 79 80  1  0  0  0
 79159  1  0  0  0
 79160  1  0  0  0
 80 83  1  0  0  0
 80161  1  0  0  0
 80162  1  0  0  0
 81 82  1  0  0  0
 81 85  1  0  0  0
 81163  1  0  0  0
 81164  1  0  0  0
 82 86  1  0  0  0
 82165  1  0  0  0
 82166  1  0  0  0
 83167  1  0  0  0
 83168  1  0  0  0
 84169  1  0  0  0
M  ISO  4   1 100  68 101  83 101  86 100
M  END
> <chiral flag>
0

> <version>
0

> <s_m_source_file>
/data/baiqing/PycharmProjects/Reinvent-master-3.2/result/LINK_invent/BTK/process_docking_weight1_custom_sum_contain_oxygen_bond_distance_aromatic_linkinvent_7_9_3/rearranged_h_0098.sdf

> <i_m_source_file_index>
85

> <r_mmod_Potential_Energy-OPLS-2005>
332.542358398438

> <r_mmod_Stretch_Energy-OPLS-2005>
145.00927734375

> <r_mmod_Bend_Energy-OPLS-2005>
207.858505249023

> <r_mmod_Torsional_Energy-OPLS-2005>
312.461364746094

> <r_mmod_Improper_Torsional_Energy-OPLS-2005>
8.80032444000244

> <r_mmod_Van_der_Waal_Energy-OPLS-2005>
134.248092651367

> <r_mmod_Electrostatic_Energy-OPLS-2005>
-358.436126708984

> <r_mmod_Solvation_Energy-OPLS-2005>
-194.597900390625

> <b_mmod_Minimization_Converged-OPLS-2005>
0

> <r_mmod_RMS_Derivative-OPLS-2005>
4.91735124588013

$$$$
89
                    3D
 Structure written by MMmdl.
169177  0  0  1  0            999 V2000
  -30.5942  -14.8103   20.3846 C   0  0  0  0  0  0
  -30.4505  -12.4963   19.4255 C   0  0  0  0  0  0
  -29.5118  -12.4608   18.1993 C   0  0  0  0  0  0
  -28.0378  -12.2885   18.6205 C   0  0  0  0  0  0
  -27.6269  -13.2227   19.7894 C   0  0  2  0  0  0
  -28.6782  -13.2159   20.9028 C   0  0  0  0  0  0
  -25.2555  -13.8195   20.5578 C   0  0  0  0  0  0
  -24.1835  -13.0412   20.9191 C   0  0  0  0  0  0
  -24.6424  -11.6915   20.8755 C   0  0  0  0  0  0
  -23.9070  -10.4312   21.0471 C   0  0  0  0  0  0
  -24.3614   -9.4234   21.9230 C   0  0  0  0  0  0
  -23.6304   -8.2251   22.0798 C   0  0  0  0  0  0
  -22.4279   -8.0291   21.3561 C   0  0  0  0  0  0
  -21.9894   -9.0287   20.4676 C   0  0  0  0  0  0
  -22.7248  -10.2173   20.3118 C   0  0  0  0  0  0
  -21.6855   -6.0748   22.5271 C   0  0  0  0  0  0
  -21.4019   -6.5646   23.8206 C   0  0  0  0  0  0
  -21.3653   -5.6807   24.9169 C   0  0  0  0  0  0
  -21.6026   -4.3064   24.7220 C   0  0  0  0  0  0
  -21.8829   -3.8148   23.4339 C   0  0  0  0  0  0
  -21.9201   -4.6976   22.3393 C   0  0  0  0  0  0
  -22.7873  -13.5279   21.1868 C   0  0  0  0  0  0
  -22.1669   -4.2127   21.0984 F   0  0  0  0  0  0
  -21.5620   -3.4556   25.7755 F   0  0  0  0  0  0
  -29.9645  -13.5844   20.2987 N   0  0  0  0  0  0
  -26.2892  -12.9334   20.2997 N   0  0  0  0  0  0
  -25.9311  -11.6485   20.5542 N   0  0  0  0  0  0
  -22.0463  -12.8287   22.0444 N   0  0  0  0  0  0
  -25.4201  -15.1916   20.4137 N   0  0  0  0  0  0
  -31.8194  -14.8691   20.2923 O   0  0  0  0  0  0
  -21.6656   -6.8859   21.4226 O   0  0  0  0  0  0
  -22.3516  -14.5529   20.6690 O   0  0  0  0  0  0
  -24.6328  -31.8538   23.1879 C   0  0  0  0  0  0
  -25.9107  -32.4721   23.8235 C   0  0  1  0  0  0
  -27.2547  -27.2592   20.0793 C   0  0  0  0  0  0
  -25.5914  -33.8524   24.2188 N   0  0  0  0  0  0
  -23.4263  -30.4685   21.5319 C   0  0  2  0  0  0
  -24.8793  -28.8984   20.1075 C   0  0  0  0  0  0
  -22.7443  -29.4619   22.4881 C   0  0  0  0  0  0
  -18.0290  -28.1364   22.8293 C   0  0  0  0  0  0
  -24.1505  -36.7259   23.2630 C   0  0  0  0  0  0
  -25.9755  -30.7571   21.3732 C   0  0  0  0  0  0
  -26.0474  -29.3757   20.7148 C   0  0  0  0  0  0
  -27.2301  -28.5619   20.6963 C   0  0  0  0  0  0
  -26.0523  -26.8459   19.4669 C   0  0  0  0  0  0
  -24.8852  -27.6431   19.4775 C   0  0  0  0  0  0
  -23.6472  -29.7847   20.1542 C   0  0  0  0  0  0
  -25.4119  -36.3064   24.0337 C   0  0  1  0  0  0
  -20.5849  -28.3825   23.1225 C   0  0  2  0  0  0
  -20.6742  -26.9475   22.5612 C   0  0  0  0  0  0
  -19.5881  -26.6462   21.5297 C   0  0  0  0  0  0
  -18.2078  -26.7787   22.1689 C   0  0  0  0  0  0
  -19.1468  -28.8927   23.2766 C   0  0  0  0  0  0
  -18.9223  -30.1427   23.8892 C   0  0  0  0  0  0
  -17.6147  -30.6314   24.0556 C   0  0  0  0  0  0
  -25.9081  -34.9430   23.5083 C   0  0  0  0  0  0
  -16.5174  -29.8834   23.6177 C   0  0  0  0  0  0
  -16.7220  -28.6331   23.0103 C   0  0  0  0  0  0
  -26.4489  -31.6543   25.0620 C   0  0  0  0  0  0
  -25.3726  -31.3691   26.1344 C   0  0  0  0  0  0
  -27.0395  -30.2984   24.6104 C   0  0  0  0  0  0
  -27.6057  -32.4287   25.7371 C   0  0  0  0  0  0
  -27.5586  -37.1777   24.8474 C   0  0  0  0  0  0
  -21.4203  -29.2967   22.3393 N   0  0  0  0  0  0
  -26.4297  -37.3755   23.9423 N   0  0  0  0  0  0
  -24.6949  -31.0505   22.0852 N   0  0  0  0  0  0
  -23.4006  -28.8381   23.3276 O   0  0  0  0  0  0
  -28.3880  -26.4057   20.1274 O   0  0  0  0  0  0
  -26.5646  -34.8929   22.4658 O   0  0  0  0  0  0
  -23.5467  -32.1400   23.7123 O   0  0  0  0  0  0
  -28.8999  -19.1432   21.6681 C   0  0  0  0  0  0
  -28.6729  -18.2171   22.6400 C   0  0  0  0  0  0
  -29.3994  -17.0493   22.2681 C   0  0  0  0  0  0
  -29.6728  -17.1536   20.9209 C   0  0  0  0  0  0
  -29.6838  -15.9157   23.2161 C   0  0  0  0  0  0
  -26.7175  -17.2912   23.8944 C   0  0  0  0  0  0
  -27.2261  -19.7751   24.0426 C   0  0  0  0  0  0
  -27.4607  -23.6392   21.0327 C   0  0  0  0  0  0
  -28.9250  -20.8784   19.1401 C   0  0  0  0  0  0
  -29.3154  -22.3705   19.6982 C   0  0  0  0  0  0
  -29.7692  -19.4752   19.3685 C   0  0  0  0  0  0
  -28.5986  -25.1619   19.2983 C   0  0  0  0  0  0
  -27.8241  -18.3698   23.8919 C   0  0  0  0  0  0
  -28.2330  -23.6177   19.7099 C   0  0  2  0  0  0
  -29.4663  -18.5579   20.5473 N   0  0  0  0  0  0
  -29.8285  -15.9629   20.1775 N   0  0  0  0  0  0
  -31.4779  -12.6626   19.0914 H   0  0  0  0  0  0
  -30.4451  -11.5417   19.9553 H   0  0  0  0  0  0
  -29.8101  -11.6550   17.5257 H   0  0  0  0  0  0
  -29.6156  -13.3849   17.6214 H   0  0  0  0  0  0
  -27.8975  -11.2464   18.8971 H   0  0  0  0  0  0
  -27.3854  -12.4445   17.7639 H   0  0  0  0  0  0
  -27.5950  -14.2271   19.3661 H   0  0  0  0  0  0
  -28.7347  -12.2392   21.3820 H   0  0  0  0  0  0
  -28.3565  -13.9290   21.6507 H   0  0  0  0  0  0
  -25.2773   -9.5688   22.4779 H   0  0  0  0  0  0
  -24.0009   -7.4635   22.7549 H   0  0  0  0  0  0
  -21.0776   -8.8812   19.9003 H   0  0  0  0  0  0
  -22.3709  -10.9701   19.6196 H   0  0  0  0  0  0
  -21.2031   -7.6156   23.9678 H   0  0  0  0  0  0
  -21.1444   -6.0552   25.9049 H   0  0  0  0  0  0
  -22.0614   -2.7601   23.2872 H   0  0  0  0  0  0
  -22.4068  -11.9972   22.4849 H   0  0  0  0  0  0
  -21.1075  -13.1324   22.2620 H   0  0  0  0  0  0
  -24.6445  -15.8271   20.5666 H   0  0  0  0  0  0
  -26.2771  -15.6638   20.1506 H   0  0  0  0  0  0
  -26.7169  -32.5385   23.0976 H   0  0  0  0  0  0
  -25.0084  -33.9651   25.0334 H   0  0  0  0  0  0
  -22.7218  -31.2890   21.3694 H   0  0  0  0  0  0
  -23.3801  -35.9573   23.3297 H   0  0  0  0  0  0
  -24.3601  -36.8879   22.2059 H   0  0  0  0  0  0
  -23.7253  -37.6446   23.6659 H   0  0  0  0  0  0
  -26.1209  -31.5172   20.6073 H   0  0  0  0  0  0
  -26.8474  -30.8066   22.0108 H   0  0  0  0  0  0
  -28.1237  -28.9233   21.1807 H   0  0  0  0  0  0
  -25.9922  -25.8743   19.0056 H   0  0  0  0  0  0
  -23.9877  -27.2656   19.0073 H   0  0  0  0  0  0
  -23.7792  -30.5555   19.3961 H   0  0  0  0  0  0
  -22.7673  -29.2260   19.8332 H   0  0  0  0  0  0
  -25.1312  -36.1892   25.0834 H   0  0  0  0  0  0
  -20.9840  -28.3496   24.1364 H   0  0  0  0  0  0
  -20.5278  -26.2460   23.3819 H   0  0  0  0  0  0
  -21.6732  -26.7249   22.1898 H   0  0  0  0  0  0
  -19.6802  -27.3428   20.7005 H   0  0  0  0  0  0
  -19.7236  -25.6491   21.1174 H   0  0  0  0  0  0
  -17.4301  -26.6270   21.4180 H   0  0  0  0  0  0
  -18.0668  -26.0090   22.9233 H   0  0  0  0  0  0
  -19.7501  -30.7259   24.2558 H   0  0  0  0  0  0
  -17.4392  -31.5783   24.5403 H   0  0  0  0  0  0
  -15.5143  -30.2482   23.7493 H   0  0  0  0  0  0
  -15.8691  -28.0507   22.6877 H   0  0  0  0  0  0
  -24.5883  -30.7055   25.7657 H   0  0  0  0  0  0
  -24.8901  -32.2868   26.4742 H   0  0  0  0  0  0
  -25.8030  -30.8871   27.0118 H   0  0  0  0  0  0
  -26.2995  -29.6663   24.1169 H   0  0  0  0  0  0
  -27.4204  -29.7285   25.4575 H   0  0  0  0  0  0
  -27.8799  -30.4328   23.9280 H   0  0  0  0  0  0
  -27.2694  -33.3605   26.1908 H   0  0  0  0  0  0
  -28.3852  -32.6800   25.0168 H   0  0  0  0  0  0
  -28.0745  -31.8428   26.5295 H   0  0  0  0  0  0
  -28.2592  -38.0076   24.7517 H   0  0  0  0  0  0
  -28.1100  -36.2610   24.6322 H   0  0  0  0  0  0
  -27.2295  -37.1429   25.8867 H   0  0  0  0  0  0
  -20.9486  -29.7922   21.5956 H   0  0  0  0  0  0
  -26.0193  -38.2831   24.1413 H   0  0  0  0  0  0
  -28.6507  -20.1921   21.6593 H   0  0  0  0  0  0
  -29.6776  -16.2831   24.2436 H   0  0  0  0  0  0
  -30.6669  -15.4926   23.0276 H   0  0  0  0  0  0
  -28.9465  -15.1238   23.1755 H   0  0  0  0  0  0
  -27.1335  -16.2795   23.8631 H   0  0  0  0  0  0
  -26.0694  -17.3937   23.0249 H   0  0  0  0  0  0
  -26.0843  -17.3277   24.7802 H   0  0  0  0  0  0
  -28.0180  -20.5328   24.0987 H   0  0  0  0  0  0
  -26.6475  -19.8491   24.9685 H   0  0  0  0  0  0
  -26.5497  -20.0146   23.2163 H   0  0  0  0  0  0
  -28.1094  -23.9559   21.8503 H   0  0  0  0  0  0
  -27.0390  -22.6652   21.2748 H   0  0  0  0  0  0
  -26.6384  -24.3515   20.9734 H   0  0  0  0  0  0
  -28.9611  -21.0174   18.0539 H   0  0  0  0  0  0
  -27.8739  -20.6793   19.3319 H   0  0  0  0  0  0
  -30.1820  -22.6938   19.1158 H   0  0  0  0  0  0
  -29.6977  -22.2401   20.7127 H   0  0  0  0  0  0
  -30.8303  -19.7274   19.4135 H   0  0  0  0  0  0
  -29.6804  -18.8630   18.4728 H   0  0  0  0  0  0
  -28.1399  -25.3511   18.3291 H   0  0  0  0  0  0
  -29.6627  -25.1807   19.0663 H   0  0  0  0  0  0
  -28.4750  -18.1895   24.7469 H   0  0  0  0  0  0
  -27.5036  -23.3186   18.9530 H   0  0  0  0  0  0
  -28.9561  -15.6795   19.7611 H   0  0  0  0  0  0
  1 25  1  0  0  0
  1 30  2  0  0  0
  1 86  1  0  0  0
  2  3  1  0  0  0
  2 25  1  0  0  0
  2 87  1  0  0  0
  2 88  1  0  0  0
  3  4  1  0  0  0
  3 89  1  0  0  0
  3 90  1  0  0  0
  4  5  1  0  0  0
  4 91  1  0  0  0
  4 92  1  0  0  0
  5  6  1  0  0  0
  5 26  1  0  0  0
  5 93  1  0  0  0
  6 25  1  0  0  0
  6 94  1  0  0  0
  6 95  1  0  0  0
  7  8  2  0  0  0
  7 26  1  0  0  0
  7 29  1  0  0  0
  8  9  1  0  0  0
  8 22  1  0  0  0
  9 10  1  0  0  0
  9 27  2  0  0  0
 10 11  2  0  0  0
 10 15  1  0  0  0
 11 12  1  0  0  0
 11 96  1  0  0  0
 12 13  2  0  0  0
 12 97  1  0  0  0
 13 14  1  0  0  0
 13 31  1  0  0  0
 14 15  2  0  0  0
 14 98  1  0  0  0
 15 99  1  0  0  0
 16 17  2  0  0  0
 16 21  1  0  0  0
 16 31  1  0  0  0
 17 18  1  0  0  0
 17100  1  0  0  0
 18 19  2  0  0  0
 18101  1  0  0  0
 19 20  1  0  0  0
 19 24  1  0  0  0
 20 21  2  0  0  0
 20102  1  0  0  0
 21 23  1  0  0  0
 22 28  1  0  0  0
 22 32  2  0  0  0
 26 27  1  0  0  0
 28103  1  0  0  0
 28104  1  0  0  0
 29105  1  0  0  0
 29106  1  0  0  0
 33 34  1  0  0  0
 33 66  1  0  0  0
 33 70  2  0  0  0
 34 36  1  0  0  0
 34 59  1  0  0  0
 34107  1  0  0  0
 35 44  2  0  0  0
 35 45  1  0  0  0
 35 68  1  0  0  0
 36 56  1  0  0  0
 36108  1  0  0  0
 37 39  1  0  0  0
 37 47  1  0  0  0
 37 66  1  0  0  0
 37109  1  0  0  0
 38 43  2  0  0  0
 38 46  1  0  0  0
 38 47  1  0  0  0
 39 64  1  0  0  0
 39 67  2  0  0  0
 40 52  1  0  0  0
 40 53  2  0  0  0
 40 58  1  0  0  0
 41110  1  0  0  0
 41111  1  0  0  0
 41112  1  0  0  0
 41 48  1  0  0  0
 42 43  1  0  0  0
 42 66  1  0  0  0
 42113  1  0  0  0
 42114  1  0  0  0
 43 44  1  0  0  0
 44115  1  0  0  0
 45 46  2  0  0  0
 45116  1  0  0  0
 46117  1  0  0  0
 47118  1  0  0  0
 47119  1  0  0  0
 48 56  1  0  0  0
 48 65  1  0  0  0
 48120  1  0  0  0
 49 50  1  0  0  0
 49 53  1  0  0  0
 49 64  1  0  0  0
 49121  1  0  0  0
 50 51  1  0  0  0
 50122  1  0  0  0
 50123  1  0  0  0
 51 52  1  0  0  0
 51124  1  0  0  0
 51125  1  0  0  0
 52126  1  0  0  0
 52127  1  0  0  0
 53 54  1  0  0  0
 54 55  2  0  0  0
 54128  1  0  0  0
 55 57  1  0  0  0
 55129  1  0  0  0
 56 69  2  0  0  0
 57 58  2  0  0  0
 57130  1  0  0  0
 58131  1  0  0  0
 59 60  1  0  0  0
 59 61  1  0  0  0
 59 62  1  0  0  0
 60132  1  0  0  0
 60133  1  0  0  0
 60134  1  0  0  0
 61135  1  0  0  0
 61136  1  0  0  0
 61137  1  0  0  0
 62138  1  0  0  0
 62139  1  0  0  0
 62140  1  0  0  0
 63 65  1  0  0  0
 63141  1  0  0  0
 63142  1  0  0  0
 63143  1  0  0  0
 64144  1  0  0  0
 65145  1  0  0  0
 68 82  1  0  0  0
 71 72  2  0  0  0
 71 85  1  0  0  0
 71146  1  0  0  0
 72 73  1  0  0  0
 72 83  1  0  0  0
 73 74  2  0  0  0
 73 75  1  0  0  0
 74 85  1  0  0  0
 74 86  1  0  0  0
 75147  1  0  0  0
 75148  1  0  0  0
 75149  1  0  0  0
 76150  1  0  0  0
 76151  1  0  0  0
 76152  1  0  0  0
 76 83  1  0  0  0
 77 83  1  0  0  0
 77153  1  0  0  0
 77154  1  0  0  0
 77155  1  0  0  0
 78156  1  0  0  0
 78157  1  0  0  0
 78158  1  0  0  0
 78 84  1  0  0  0
 79 80  1  0  0  0
 79 81  1  0  0  0
 79159  1  0  0  0
 79160  1  0  0  0
 80 84  1  0  0  0
 80161  1  0  0  0
 80162  1  0  0  0
 81 85  1  0  0  0
 81163  1  0  0  0
 81164  1  0  0  0
 82 84  1  0  0  0
 82165  1  0  0  0
 82166  1  0  0  0
 83167  1  0  0  0
 84168  1  0  0  0
 86169  1  0  0  0
M  ISO  4   1 100  68 101  82 101  86 100
M  END
> <chiral flag>
0

> <version>
0

> <s_m_source_file>
/data/baiqing/PycharmProjects/Reinvent-master-3.2/result/LINK_invent/BTK/process_docking_weight1_custom_sum_contain_oxygen_bond_distance_aromatic_linkinvent_7_9_3/rearranged_h_0098.sdf

> <i_m_source_file_index>
86

> <r_mmod_Potential_Energy-OPLS-2005>
398.753814697266

> <r_mmod_Stretch_Energy-OPLS-2005>
162.256378173828

> <r_mmod_Bend_Energy-OPLS-2005>
272.957458496094

> <r_mmod_Torsional_Energy-OPLS-2005>
340.490661621094

> <r_mmod_Improper_Torsional_Energy-OPLS-2005>
15.9635496139526

> <r_mmod_Van_der_Waal_Energy-OPLS-2005>
109.036140441895

> <r_mmod_Electrostatic_Energy-OPLS-2005>
-419.566741943359

> <r_mmod_Solvation_Energy-OPLS-2005>
-195.909027099609

> <b_mmod_Minimization_Converged-OPLS-2005>
0

> <r_mmod_RMS_Derivative-OPLS-2005>
12.1350507736206

$$$$
90
                    3D
 Structure written by MMmdl.
170178  0  0  1  0            999 V2000
  -30.6117  -14.6661   20.4885 C   0  0  0  0  0  0
  -30.4359  -12.4028   19.4723 C   0  0  0  0  0  0
  -29.5028  -12.4985   18.2419 C   0  0  0  0  0  0
  -28.0287  -12.3247   18.6611 C   0  0  0  0  0  0
  -27.6508  -13.2158   19.8724 C   0  0  2  0  0  0
  -28.6925  -13.0882   21.0054 C   0  0  0  0  0  0
  -25.2553  -13.8175   20.5743 C   0  0  0  0  0  0
  -24.1824  -13.0462   20.9216 C   0  0  0  0  0  0
  -24.6370  -11.6908   20.8784 C   0  0  0  0  0  0
  -23.9046  -10.4301   21.0463 C   0  0  0  0  0  0
  -24.3611   -9.4187   21.9216 C   0  0  0  0  0  0
  -23.6283   -8.2215   22.0751 C   0  0  0  0  0  0
  -22.4257   -8.0274   21.3542 C   0  0  0  0  0  0
  -21.9915   -9.0250   20.4643 C   0  0  0  0  0  0
  -22.7242  -10.2135   20.3077 C   0  0  0  0  0  0
  -21.6865   -6.0750   22.5278 C   0  0  0  0  0  0
  -21.4002   -6.5648   23.8222 C   0  0  0  0  0  0
  -21.3651   -5.6796   24.9176 C   0  0  0  0  0  0
  -21.6054   -4.3067   24.7225 C   0  0  0  0  0  0
  -21.8812   -3.8162   23.4349 C   0  0  0  0  0  0
  -21.9170   -4.6968   22.3405 C   0  0  0  0  0  0
  -22.7853  -13.5238   21.1921 C   0  0  0  0  0  0
  -22.1663   -4.2163   21.0991 F   0  0  0  0  0  0
  -21.5630   -3.4541   25.7745 F   0  0  0  0  0  0
  -30.0052  -13.4377   20.4392 N   0  0  0  0  0  0
  -26.2969  -12.9350   20.3401 N   0  0  0  0  0  0
  -25.9297  -11.6501   20.5806 N   0  0  0  0  0  0
  -22.0478  -12.8200   22.0445 N   0  0  0  0  0  0
  -25.4279  -15.1905   20.4140 N   0  0  0  0  0  0
  -31.7798  -14.8064   20.1119 O   0  0  0  0  0  0
  -21.6622   -6.8878   21.4240 O   0  0  0  0  0  0
  -22.3517  -14.5535   20.6758 O   0  0  0  0  0  0
  -24.6237  -31.8647   23.2065 C   0  0  0  0  0  0
  -25.9058  -32.4804   23.8384 C   0  0  1  0  0  0
  -27.1917  -27.2960   20.1507 C   0  0  0  0  0  0
  -25.5855  -33.8608   24.2311 N   0  0  0  0  0  0
  -23.4151  -30.4908   21.5507 C   0  0  2  0  0  0
  -24.8634  -28.9537   20.1107 C   0  0  0  0  0  0
  -22.7444  -29.4601   22.4920 C   0  0  0  0  0  0
  -18.0287  -28.1350   22.8543 C   0  0  0  0  0  0
  -24.1456  -36.7273   23.2656 C   0  0  0  0  0  0
  -25.9602  -30.7864   21.3884 C   0  0  0  0  0  0
  -26.0341  -29.4166   20.7259 C   0  0  0  0  0  0
  -27.2048  -28.5987   20.7385 C   0  0  0  0  0  0
  -26.0146  -26.9026   19.4763 C   0  0  0  0  0  0
  -24.8559  -27.6999   19.4789 C   0  0  0  0  0  0
  -23.6325  -29.8418   20.1621 C   0  0  0  0  0  0
  -25.4086  -36.3112   24.0365 C   0  0  1  0  0  0
  -20.5895  -28.3622   23.1303 C   0  0  2  0  0  0
  -20.6752  -26.9337   22.5423 C   0  0  0  0  0  0
  -19.5711  -26.6345   21.5239 C   0  0  0  0  0  0
  -18.1901  -26.7900   22.1680 C   0  0  0  0  0  0
  -19.1554  -28.8803   23.2921 C   0  0  0  0  0  0
  -18.9477  -30.1414   23.8914 C   0  0  0  0  0  0
  -17.6478  -30.6569   24.0554 C   0  0  0  0  0  0
  -25.9026  -34.9474   23.5153 C   0  0  0  0  0  0
  -16.5355  -29.9054   23.6372 C   0  0  0  0  0  0
  -16.7274  -28.6469   23.0399 C   0  0  0  0  0  0
  -26.4446  -31.6647   25.0782 C   0  0  0  0  0  0
  -25.3625  -31.3811   26.1465 C   0  0  0  0  0  0
  -27.0357  -30.3100   24.6287 C   0  0  0  0  0  0
  -27.6028  -32.4363   25.7511 C   0  0  0  0  0  0
  -27.5582  -37.1796   24.8489 C   0  0  0  0  0  0
  -21.4148  -29.2983   22.3697 N   0  0  0  0  0  0
  -26.4300  -37.3792   23.9433 N   0  0  0  0  0  0
  -24.6840  -31.0624   22.1052 N   0  0  0  0  0  0
  -23.4195  -28.8163   23.2990 O   0  0  0  0  0  0
  -28.2350  -26.3622   20.2543 O   0  0  0  0  0  0
  -26.5631  -34.8966   22.4744 O   0  0  0  0  0  0
  -23.5400  -32.1415   23.7388 O   0  0  0  0  0  0
  -29.2330  -21.1389   20.9368 C   0  0  0  0  0  0
  -28.7559  -22.3645   20.3165 C   0  0  0  0  0  0
  -28.2562  -22.1694   18.9791 C   0  0  0  0  0  0
  -29.1775  -19.8512   20.3046 C   0  0  0  0  0  0
  -28.3267  -20.8632   18.3852 C   0  0  0  0  0  0
  -27.6049  -23.3169   18.2122 C   0  0  0  0  0  0
  -28.5636  -21.2801   15.8158 C   0  0  0  0  0  0
  -26.4231  -20.1878   16.8104 C   0  0  0  0  0  0
  -30.2772  -24.3434   20.8059 C   0  0  0  0  0  0
  -28.7793  -23.5146   22.6195 C   0  0  0  0  0  0
  -29.3991  -18.4472   21.0087 C   0  0  0  0  0  0
  -29.9588  -17.1795   20.1797 C   0  0  0  0  0  0
  -27.8350  -25.0339   20.8229 C   0  0  0  0  0  0
  -27.9264  -20.4709   16.9545 C   0  0  0  0  0  0
  -28.8692  -23.7934   21.0823 C   0  0  0  0  0  0
  -28.7241  -19.7680   19.0545 N   0  0  0  0  0  0
  -29.8098  -15.7597   20.7248 N   0  0  0  0  0  0
  -31.4731  -12.5362   19.1612 H   0  0  0  0  0  0
  -30.3876  -11.4103   19.9268 H   0  0  0  0  0  0
  -29.7760  -11.7447   17.4992 H   0  0  0  0  0  0
  -29.6321  -13.4694   17.7608 H   0  0  0  0  0  0
  -27.8785  -11.2742   18.9200 H   0  0  0  0  0  0
  -27.3690  -12.5294   17.8182 H   0  0  0  0  0  0
  -27.6685  -14.2478   19.5192 H   0  0  0  0  0  0
  -28.7063  -12.0701   21.3898 H   0  0  0  0  0  0
  -28.4343  -13.7201   21.8557 H   0  0  0  0  0  0
  -25.2742   -9.5678   22.4808 H   0  0  0  0  0  0
  -24.0005   -7.4610   22.7459 H   0  0  0  0  0  0
  -21.0856   -8.8770   19.8953 H   0  0  0  0  0  0
  -22.3695  -10.9684   19.6209 H   0  0  0  0  0  0
  -21.1996   -7.6154   23.9728 H   0  0  0  0  0  0
  -21.1499   -6.0533   25.9091 H   0  0  0  0  0  0
  -22.0592   -2.7615   23.2838 H   0  0  0  0  0  0
  -22.4076  -11.9813   22.4768 H   0  0  0  0  0  0
  -21.1105  -13.1240   22.2734 H   0  0  0  0  0  0
  -24.6703  -15.8474   20.5476 H   0  0  0  0  0  0
  -26.2620  -15.6165   20.0345 H   0  0  0  0  0  0
  -26.7104  -32.5484   23.1109 H   0  0  0  0  0  0
  -24.9934  -33.9755   25.0410 H   0  0  0  0  0  0
  -22.7016  -31.3071   21.4200 H   0  0  0  0  0  0
  -23.3777  -35.9549   23.3336 H   0  0  0  0  0  0
  -24.3538  -36.8873   22.2067 H   0  0  0  0  0  0
  -23.7146  -37.6465   23.6649 H   0  0  0  0  0  0
  -26.1076  -31.5476   20.6201 H   0  0  0  0  0  0
  -26.8221  -30.8143   22.0389 H   0  0  0  0  0  0
  -28.0916  -28.9399   21.2537 H   0  0  0  0  0  0
  -25.9693  -25.9474   18.9742 H   0  0  0  0  0  0
  -23.9505  -27.3392   19.0117 H   0  0  0  0  0  0
  -23.7638  -30.6260   19.4129 H   0  0  0  0  0  0
  -22.7340  -29.2939   19.8724 H   0  0  0  0  0  0
  -25.1271  -36.1995   25.0867 H   0  0  0  0  0  0
  -21.0018  -28.3168   24.1406 H   0  0  0  0  0  0
  -20.5626  -26.2215   23.3606 H   0  0  0  0  0  0
  -21.6615  -26.7309   22.1234 H   0  0  0  0  0  0
  -19.6824  -25.6256   21.1252 H   0  0  0  0  0  0
  -19.6668  -27.3175   20.6792 H   0  0  0  0  0  0
  -17.4165  -26.6698   21.4060 H   0  0  0  0  0  0
  -18.0258  -25.9996   22.9044 H   0  0  0  0  0  0
  -19.7929  -30.7248   24.2272 H   0  0  0  0  0  0
  -17.5015  -31.6272   24.5088 H   0  0  0  0  0  0
  -15.5344  -30.2960   23.7648 H   0  0  0  0  0  0
  -15.8680  -28.0768   22.7129 H   0  0  0  0  0  0
  -24.5733  -30.7264   25.7749 H   0  0  0  0  0  0
  -24.8861  -32.2994   26.4911 H   0  0  0  0  0  0
  -25.7824  -30.8919   27.0251 H   0  0  0  0  0  0
  -26.3035  -29.6769   24.1262 H   0  0  0  0  0  0
  -27.4046  -29.7442   25.4847 H   0  0  0  0  0  0
  -27.8861  -30.4458   23.9594 H   0  0  0  0  0  0
  -27.2710  -33.3665   26.2123 H   0  0  0  0  0  0
  -28.3793  -32.6910   25.0288 H   0  0  0  0  0  0
  -28.0737  -31.8453   26.5374 H   0  0  0  0  0  0
  -28.2646  -38.0060   24.7540 H   0  0  0  0  0  0
  -28.1049  -36.2607   24.6310 H   0  0  0  0  0  0
  -27.2315  -37.1432   25.8903 H   0  0  0  0  0  0
  -20.9249  -29.8734   21.6985 H   0  0  0  0  0  0
  -26.0218  -38.2901   24.1405 H   0  0  0  0  0  0
  -29.6313  -21.1408   21.9388 H   0  0  0  0  0  0
  -26.7267  -23.6502   18.7401 H   0  0  0  0  0  0
  -27.1730  -23.0225   17.2644 H   0  0  0  0  0  0
  -28.2737  -24.1604   18.0433 H   0  0  0  0  0  0
  -29.6324  -21.3892   15.9871 H   0  0  0  0  0  0
  -28.1349  -22.2635   15.6622 H   0  0  0  0  0  0
  -28.4515  -20.7580   14.8677 H   0  0  0  0  0  0
  -25.8143  -21.0499   17.0697 H   0  0  0  0  0  0
  -26.1650  -19.8645   15.7999 H   0  0  0  0  0  0
  -26.1484  -19.3783   17.4861 H   0  0  0  0  0  0
  -30.3925  -24.5606   19.7437 H   0  0  0  0  0  0
  -31.0476  -23.6313   21.1047 H   0  0  0  0  0  0
  -30.4741  -25.2773   21.3364 H   0  0  0  0  0  0
  -28.7826  -24.4239   23.2255 H   0  0  0  0  0  0
  -29.6069  -22.9304   23.0118 H   0  0  0  0  0  0
  -27.8653  -22.9669   22.8570 H   0  0  0  0  0  0
  -28.4281  -18.1858   21.4323 H   0  0  0  0  0  0
  -30.0594  -18.6270   21.8566 H   0  0  0  0  0  0
  -30.9939  -17.3749   19.9015 H   0  0  0  0  0  0
  -29.4294  -17.1528   19.2255 H   0  0  0  0  0  0
  -27.4963  -25.3619   21.8046 H   0  0  0  0  0  0
  -26.8859  -24.6645   20.4540 H   0  0  0  0  0  0
  -28.3766  -19.4869   16.7885 H   0  0  0  0  0  0
  -28.8846  -15.5220   21.0591 H   0  0  0  0  0  0
  1 25  1  0  0  0
  1 30  2  0  0  0
  1 87  1  0  0  0
  2  3  1  0  0  0
  2 25  1  0  0  0
  2 88  1  0  0  0
  2 89  1  0  0  0
  3  4  1  0  0  0
  3 90  1  0  0  0
  3 91  1  0  0  0
  4  5  1  0  0  0
  4 92  1  0  0  0
  4 93  1  0  0  0
  5  6  1  0  0  0
  5 26  1  0  0  0
  5 94  1  0  0  0
  6 25  1  0  0  0
  6 95  1  0  0  0
  6 96  1  0  0  0
  7  8  2  0  0  0
  7 26  1  0  0  0
  7 29  1  0  0  0
  8  9  1  0  0  0
  8 22  1  0  0  0
  9 10  1  0  0  0
  9 27  2  0  0  0
 10 11  2  0  0  0
 10 15  1  0  0  0
 11 12  1  0  0  0
 11 97  1  0  0  0
 12 13  2  0  0  0
 12 98  1  0  0  0
 13 14  1  0  0  0
 13 31  1  0  0  0
 14 15  2  0  0  0
 14 99  1  0  0  0
 15100  1  0  0  0
 16 17  2  0  0  0
 16 21  1  0  0  0
 16 31  1  0  0  0
 17 18  1  0  0  0
 17101  1  0  0  0
 18 19  2  0  0  0
 18102  1  0  0  0
 19 20  1  0  0  0
 19 24  1  0  0  0
 20 21  2  0  0  0
 20103  1  0  0  0
 21 23  1  0  0  0
 22 28  1  0  0  0
 22 32  2  0  0  0
 26 27  1  0  0  0
 28104  1  0  0  0
 28105  1  0  0  0
 29106  1  0  0  0
 29107  1  0  0  0
 33 34  1  0  0  0
 33 66  1  0  0  0
 33 70  2  0  0  0
 34 36  1  0  0  0
 34 59  1  0  0  0
 34108  1  0  0  0
 35 44  2  0  0  0
 35 45  1  0  0  0
 35 68  1  0  0  0
 36 56  1  0  0  0
 36109  1  0  0  0
 37 39  1  0  0  0
 37 47  1  0  0  0
 37 66  1  0  0  0
 37110  1  0  0  0
 38 43  2  0  0  0
 38 46  1  0  0  0
 38 47  1  0  0  0
 39 64  1  0  0  0
 39 67  2  0  0  0
 40 52  1  0  0  0
 40 53  2  0  0  0
 40 58  1  0  0  0
 41111  1  0  0  0
 41112  1  0  0  0
 41113  1  0  0  0
 41 48  1  0  0  0
 42 43  1  0  0  0
 42 66  1  0  0  0
 42114  1  0  0  0
 42115  1  0  0  0
 43 44  1  0  0  0
 44116  1  0  0  0
 45 46  2  0  0  0
 45117  1  0  0  0
 46118  1  0  0  0
 47119  1  0  0  0
 47120  1  0  0  0
 48 56  1  0  0  0
 48 65  1  0  0  0
 48121  1  0  0  0
 49 50  1  0  0  0
 49 53  1  0  0  0
 49 64  1  0  0  0
 49122  1  0  0  0
 50 51  1  0  0  0
 50123  1  0  0  0
 50124  1  0  0  0
 51 52  1  0  0  0
 51125  1  0  0  0
 51126  1  0  0  0
 52127  1  0  0  0
 52128  1  0  0  0
 53 54  1  0  0  0
 54 55  2  0  0  0
 54129  1  0  0  0
 55 57  1  0  0  0
 55130  1  0  0  0
 56 69  2  0  0  0
 57 58  2  0  0  0
 57131  1  0  0  0
 58132  1  0  0  0
 59 60  1  0  0  0
 59 61  1  0  0  0
 59 62  1  0  0  0
 60133  1  0  0  0
 60134  1  0  0  0
 60135  1  0  0  0
 61136  1  0  0  0
 61137  1  0  0  0
 61138  1  0  0  0
 62139  1  0  0  0
 62140  1  0  0  0
 62141  1  0  0  0
 63 65  1  0  0  0
 63142  1  0  0  0
 63143  1  0  0  0
 63144  1  0  0  0
 64145  1  0  0  0
 65146  1  0  0  0
 68 83  1  0  0  0
 71 72  2  0  0  0
 71 74  1  0  0  0
 71147  1  0  0  0
 72 73  1  0  0  0
 72 85  1  0  0  0
 73 75  2  0  0  0
 73 76  1  0  0  0
 74 81  1  0  0  0
 74 86  2  0  0  0
 75 84  1  0  0  0
 75 86  1  0  0  0
 76148  1  0  0  0
 76149  1  0  0  0
 76150  1  0  0  0
 77151  1  0  0  0
 77152  1  0  0  0
 77153  1  0  0  0
 77 84  1  0  0  0
 78 84  1  0  0  0
 78154  1  0  0  0
 78155  1  0  0  0
 78156  1  0  0  0
 79157  1  0  0  0
 79158  1  0  0  0
 79159  1  0  0  0
 79 85  1  0  0  0
 80 85  1  0  0  0
 80160  1  0  0  0
 80161  1  0  0  0
 80162  1  0  0  0
 81 82  1  0  0  0
 81163  1  0  0  0
 81164  1  0  0  0
 82 87  1  0  0  0
 82165  1  0  0  0
 82166  1  0  0  0
 83 85  1  0  0  0
 83167  1  0  0  0
 83168  1  0  0  0
 84169  1  0  0  0
 87170  1  0  0  0
M  ISO  4   1 100  68 101  83 101  87 100
M  END
> <chiral flag>
0

> <version>
0

> <s_m_source_file>
/data/baiqing/PycharmProjects/Reinvent-master-3.2/result/LINK_invent/BTK/process_docking_weight1_custom_sum_contain_oxygen_bond_distance_aromatic_linkinvent_7_9_3/rearranged_h_0098.sdf

> <i_m_source_file_index>
87

> <r_mmod_Potential_Energy-OPLS-2005>
48.1015663146973

> <r_mmod_Stretch_Energy-OPLS-2005>
124.486015319824

> <r_mmod_Bend_Energy-OPLS-2005>
202.686294555664

> <r_mmod_Torsional_Energy-OPLS-2005>
249.022201538086

> <r_mmod_Improper_Torsional_Energy-OPLS-2005>
7.93439817428589

> <r_mmod_Van_der_Waal_Energy-OPLS-2005>
165.226654052734

> <r_mmod_Electrostatic_Energy-OPLS-2005>
-559.717651367188

> <r_mmod_Solvation_Energy-OPLS-2005>
-210.535461425781

> <b_mmod_Minimization_Converged-OPLS-2005>
0

> <r_mmod_RMS_Derivative-OPLS-2005>
8.24409103393555

$$$$
91
                    3D
 Structure written by MMmdl.
167175  0  0  1  0            999 V2000
  -30.6305  -14.7128   20.4776 C   0  0  0  0  0  0
  -30.4365  -12.4322   19.4662 C   0  0  0  0  0  0
  -29.5121  -12.5111   18.2321 C   0  0  0  0  0  0
  -28.0370  -12.3423   18.6490 C   0  0  0  0  0  0
  -27.6518  -13.2275   19.8658 C   0  0  2  0  0  0
  -28.7014  -13.1385   20.9951 C   0  0  0  0  0  0
  -25.2537  -13.8182   20.5707 C   0  0  0  0  0  0
  -24.1845  -13.0460   20.9212 C   0  0  0  0  0  0
  -24.6429  -11.6906   20.8785 C   0  0  0  0  0  0
  -23.9097  -10.4310   21.0436 C   0  0  0  0  0  0
  -24.3638   -9.4210   21.9204 C   0  0  0  0  0  0
  -23.6307   -8.2252   22.0776 C   0  0  0  0  0  0
  -22.4291   -8.0308   21.3567 C   0  0  0  0  0  0
  -21.9930   -9.0283   20.4664 C   0  0  0  0  0  0
  -22.7264  -10.2153   20.3076 C   0  0  0  0  0  0
  -21.6852   -6.0739   22.5277 C   0  0  0  0  0  0
  -21.4020   -6.5651   23.8213 C   0  0  0  0  0  0
  -21.3658   -5.6808   24.9173 C   0  0  0  0  0  0
  -21.6035   -4.3071   24.7222 C   0  0  0  0  0  0
  -21.8818   -3.8156   23.4355 C   0  0  0  0  0  0
  -21.9194   -4.6967   22.3403 C   0  0  0  0  0  0
  -22.7854  -13.5225   21.1842 C   0  0  0  0  0  0
  -22.1665   -4.2153   21.0981 F   0  0  0  0  0  0
  -21.5619   -3.4553   25.7740 F   0  0  0  0  0  0
  -30.0002  -13.4917   20.4054 N   0  0  0  0  0  0
  -26.3009  -12.9390   20.3377 N   0  0  0  0  0  0
  -25.9369  -11.6532   20.5820 N   0  0  0  0  0  0
  -22.0492  -12.8259   22.0412 N   0  0  0  0  0  0
  -25.4187  -15.1902   20.4062 N   0  0  0  0  0  0
  -31.8101  -14.8268   20.1376 O   0  0  0  0  0  0
  -21.6661   -6.8885   21.4252 O   0  0  0  0  0  0
  -22.3553  -14.5532   20.6642 O   0  0  0  0  0  0
  -24.6352  -31.8505   23.1916 C   0  0  0  0  0  0
  -25.9198  -32.4716   23.8256 C   0  0  1  0  0  0
  -27.2226  -27.2534   20.1281 C   0  0  0  0  0  0
  -25.5977  -33.8512   24.2190 N   0  0  0  0  0  0
  -23.4334  -30.4759   21.5294 C   0  0  2  0  0  0
  -24.8814  -28.9156   20.1077 C   0  0  0  0  0  0
  -22.7484  -29.4662   22.4820 C   0  0  0  0  0  0
  -18.0338  -28.1442   22.8477 C   0  0  0  0  0  0
  -24.1531  -36.7247   23.2633 C   0  0  0  0  0  0
  -25.9755  -30.7643   21.3701 C   0  0  0  0  0  0
  -26.0506  -29.3822   20.7225 C   0  0  0  0  0  0
  -27.2202  -28.5616   20.7225 C   0  0  0  0  0  0
  -26.0363  -26.8561   19.4774 C   0  0  0  0  0  0
  -24.8788  -27.6607   19.4786 C   0  0  0  0  0  0
  -23.6531  -29.7998   20.1505 C   0  0  0  0  0  0
  -25.4171  -36.3027   24.0299 C   0  0  1  0  0  0
  -20.5928  -28.3789   23.1237 C   0  0  2  0  0  0
  -20.6860  -26.9504   22.5418 C   0  0  0  0  0  0
  -19.5834  -26.6438   21.5232 C   0  0  0  0  0  0
  -18.1999  -26.7988   22.1630 C   0  0  0  0  0  0
  -19.1585  -28.8903   23.2887 C   0  0  0  0  0  0
  -18.9512  -30.1504   23.8894 C   0  0  0  0  0  0
  -17.6516  -30.6616   24.0614 C   0  0  0  0  0  0
  -25.9114  -34.9408   23.5051 C   0  0  0  0  0  0
  -16.5410  -29.9144   23.6327 C   0  0  0  0  0  0
  -16.7325  -28.6565   23.0342 C   0  0  0  0  0  0
  -26.4544  -31.6551   25.0641 C   0  0  0  0  0  0
  -25.3731  -31.3770   26.1324 C   0  0  0  0  0  0
  -27.0396  -30.2960   24.6155 C   0  0  0  0  0  0
  -27.6066  -32.4274   25.7468 C   0  0  0  0  0  0
  -27.5598  -37.1772   24.8464 C   0  0  0  0  0  0
  -21.4194  -29.3098   22.3536 N   0  0  0  0  0  0
  -26.4333  -37.3738   23.9377 N   0  0  0  0  0  0
  -24.7020  -31.0470   22.0888 N   0  0  0  0  0  0
  -23.4159  -28.8202   23.2947 O   0  0  0  0  0  0
  -28.3449  -26.3942   20.1926 O   0  0  0  0  0  0
  -26.5665  -34.8914   22.4604 O   0  0  0  0  0  0
  -23.5493  -32.1332   23.7206 O   0  0  0  0  0  0
  -29.2390  -21.2624   20.5213 C   0  0  0  0  0  0
  -28.4528  -22.0119   22.6693 C   0  0  0  0  0  0
  -28.8269  -22.3911   21.3583 C   0  0  0  0  0  0
  -29.2309  -19.8914   21.0361 C   0  0  0  0  0  0
  -28.4843  -20.6776   23.0965 C   0  0  0  0  0  0
  -30.0072  -25.5212   22.9049 C   0  0  0  0  0  0
  -29.6278  -20.0626   25.2214 C   0  0  0  0  0  0
  -27.2691  -19.1587   24.7274 C   0  0  0  0  0  0
  -29.4398  -18.5042   20.2810 C   0  0  0  0  0  0
  -30.2060  -24.5732   21.7045 C   0  0  0  0  0  0
  -30.2603  -17.2890   20.9925 C   0  0  0  0  0  0
  -28.2916  -24.8994   19.9736 C   0  0  0  0  0  0
  -28.8702  -23.9973   21.1722 C   0  0  1  0  0  0
  -28.2655  -20.3227   24.5571 C   0  0  0  0  0  0
  -28.8512  -19.6601   22.3019 N   0  0  0  0  0  0
  -29.8634  -15.8313   20.7492 N   0  0  0  0  0  0
  -31.4809  -12.5456   19.1646 H   0  0  0  0  0  0
  -30.3724  -11.4483   19.9362 H   0  0  0  0  0  0
  -29.7867  -11.7389   17.5122 H   0  0  0  0  0  0
  -29.6563  -13.4717   17.7371 H   0  0  0  0  0  0
  -27.8859  -11.2908   18.9025 H   0  0  0  0  0  0
  -27.3813  -12.5540   17.8045 H   0  0  0  0  0  0
  -27.6635  -14.2577   19.5108 H   0  0  0  0  0  0
  -28.7345  -12.1372   21.4250 H   0  0  0  0  0  0
  -28.4475  -13.8125   21.8148 H   0  0  0  0  0  0
  -25.2773   -9.5682   22.4792 H   0  0  0  0  0  0
  -24.0000   -7.4644   22.7510 H   0  0  0  0  0  0
  -21.0841   -8.8800   19.8990 H   0  0  0  0  0  0
  -22.3709  -10.9702   19.6202 H   0  0  0  0  0  0
  -21.2024   -7.6160   23.9705 H   0  0  0  0  0  0
  -21.1477   -6.0545   25.9065 H   0  0  0  0  0  0
  -22.0592   -2.7623   23.2854 H   0  0  0  0  0  0
  -22.4100  -11.9940   22.4847 H   0  0  0  0  0  0
  -21.1110  -13.1300   22.2569 H   0  0  0  0  0  0
  -24.6378  -15.8284   20.5058 H   0  0  0  0  0  0
  -26.2426  -15.6388   20.0297 H   0  0  0  0  0  0
  -26.7222  -32.5389   23.0949 H   0  0  0  0  0  0
  -25.0066  -33.9630   25.0303 H   0  0  0  0  0  0
  -22.7370  -31.3001   21.3721 H   0  0  0  0  0  0
  -23.3798  -35.9574   23.3299 H   0  0  0  0  0  0
  -24.3613  -36.8872   22.2045 H   0  0  0  0  0  0
  -23.7316  -37.6456   23.6671 H   0  0  0  0  0  0
  -26.0979  -31.5201   20.5930 H   0  0  0  0  0  0
  -26.8573  -30.8237   21.9956 H   0  0  0  0  0  0
  -28.1162  -28.9131   21.2126 H   0  0  0  0  0  0
  -25.9698  -25.9141   18.9531 H   0  0  0  0  0  0
  -23.9837  -27.3021   18.9841 H   0  0  0  0  0  0
  -23.7784  -30.5667   19.3846 H   0  0  0  0  0  0
  -22.7736  -29.2228   19.8528 H   0  0  0  0  0  0
  -25.1372  -36.1823   25.0790 H   0  0  0  0  0  0
  -21.0080  -28.3444   24.1332 H   0  0  0  0  0  0
  -20.5853  -26.2388   23.3633 H   0  0  0  0  0  0
  -21.6705  -26.7572   22.1136 H   0  0  0  0  0  0
  -19.7011  -25.6342   21.1266 H   0  0  0  0  0  0
  -19.6763  -27.3238   20.6749 H   0  0  0  0  0  0
  -17.4271  -26.6750   21.4024 H   0  0  0  0  0  0
  -18.0404  -26.0123   22.9024 H   0  0  0  0  0  0
  -19.7992  -30.7319   24.2270 H   0  0  0  0  0  0
  -17.5095  -31.6306   24.5220 H   0  0  0  0  0  0
  -15.5416  -30.3066   23.7670 H   0  0  0  0  0  0
  -15.8729  -28.0929   22.6996 H   0  0  0  0  0  0
  -24.5911  -30.7114   25.7639 H   0  0  0  0  0  0
  -24.8913  -32.2984   26.4611 H   0  0  0  0  0  0
  -25.8005  -30.9024   27.0171 H   0  0  0  0  0  0
  -26.3004  -29.6664   24.1171 H   0  0  0  0  0  0
  -27.4075  -29.7243   25.4692 H   0  0  0  0  0  0
  -27.8876  -30.4198   23.9414 H   0  0  0  0  0  0
  -27.2659  -33.3573   26.2044 H   0  0  0  0  0  0
  -28.3951  -32.6823   25.0366 H   0  0  0  0  0  0
  -28.0670  -31.8380   26.5414 H   0  0  0  0  0  0
  -28.2595  -38.0082   24.7522 H   0  0  0  0  0  0
  -28.1109  -36.2607   24.6297 H   0  0  0  0  0  0
  -27.2272  -37.1417   25.8851 H   0  0  0  0  0  0
  -20.9372  -29.8689   21.6621 H   0  0  0  0  0  0
  -26.0189  -38.2797   24.1372 H   0  0  0  0  0  0
  -29.5517  -21.4407   19.5010 H   0  0  0  0  0  0
  -28.2004  -22.7649   23.3998 H   0  0  0  0  0  0
  -30.9585  -25.8881   23.2858 H   0  0  0  0  0  0
  -29.5081  -25.0146   23.7301 H   0  0  0  0  0  0
  -29.4012  -26.3822   22.6286 H   0  0  0  0  0  0
  -30.2549  -20.9514   25.1468 H   0  0  0  0  0  0
  -30.1701  -19.2560   24.7271 H   0  0  0  0  0  0
  -29.5321  -19.8187   26.2770 H   0  0  0  0  0  0
  -26.3203  -19.3860   24.2425 H   0  0  0  0  0  0
  -27.0558  -18.9714   25.7785 H   0  0  0  0  0  0
  -27.6402  -18.2312   24.2896 H   0  0  0  0  0  0
  -29.9011  -18.7136   19.3184 H   0  0  0  0  0  0
  -28.4379  -18.1462   20.0395 H   0  0  0  0  0  0
  -30.8712  -23.7616   22.0009 H   0  0  0  0  0  0
  -30.7275  -25.1092   20.9105 H   0  0  0  0  0  0
  -30.1806  -17.4018   22.0761 H   0  0  0  0  0  0
  -31.3259  -17.4145   20.8030 H   0  0  0  0  0  0
  -28.8814  -24.6840   19.0821 H   0  0  0  0  0  0
  -27.2836  -24.5385   19.7701 H   0  0  0  0  0  0
  -28.1252  -24.2941   21.9145 H   0  0  0  0  0  0
  -27.8195  -21.1879   25.0477 H   0  0  0  0  0  0
  -28.8980  -15.6307   20.9636 H   0  0  0  0  0  0
  1 25  1  0  0  0
  1 30  2  0  0  0
  1 86  1  0  0  0
  2  3  1  0  0  0
  2 25  1  0  0  0
  2 87  1  0  0  0
  2 88  1  0  0  0
  3  4  1  0  0  0
  3 89  1  0  0  0
  3 90  1  0  0  0
  4  5  1  0  0  0
  4 91  1  0  0  0
  4 92  1  0  0  0
  5  6  1  0  0  0
  5 26  1  0  0  0
  5 93  1  0  0  0
  6 25  1  0  0  0
  6 94  1  0  0  0
  6 95  1  0  0  0
  7  8  2  0  0  0
  7 26  1  0  0  0
  7 29  1  0  0  0
  8  9  1  0  0  0
  8 22  1  0  0  0
  9 10  1  0  0  0
  9 27  2  0  0  0
 10 11  2  0  0  0
 10 15  1  0  0  0
 11 12  1  0  0  0
 11 96  1  0  0  0
 12 13  2  0  0  0
 12 97  1  0  0  0
 13 14  1  0  0  0
 13 31  1  0  0  0
 14 15  2  0  0  0
 14 98  1  0  0  0
 15 99  1  0  0  0
 16 17  2  0  0  0
 16 21  1  0  0  0
 16 31  1  0  0  0
 17 18  1  0  0  0
 17100  1  0  0  0
 18 19  2  0  0  0
 18101  1  0  0  0
 19 20  1  0  0  0
 19 24  1  0  0  0
 20 21  2  0  0  0
 20102  1  0  0  0
 21 23  1  0  0  0
 22 28  1  0  0  0
 22 32  2  0  0  0
 26 27  1  0  0  0
 28103  1  0  0  0
 28104  1  0  0  0
 29105  1  0  0  0
 29106  1  0  0  0
 33 34  1  0  0  0
 33 66  1  0  0  0
 33 70  2  0  0  0
 34 36  1  0  0  0
 34 59  1  0  0  0
 34107  1  0  0  0
 35 44  2  0  0  0
 35 45  1  0  0  0
 35 68  1  0  0  0
 36 56  1  0  0  0
 36108  1  0  0  0
 37 39  1  0  0  0
 37 47  1  0  0  0
 37 66  1  0  0  0
 37109  1  0  0  0
 38 43  2  0  0  0
 38 46  1  0  0  0
 38 47  1  0  0  0
 39 64  1  0  0  0
 39 67  2  0  0  0
 40 52  1  0  0  0
 40 53  2  0  0  0
 40 58  1  0  0  0
 41110  1  0  0  0
 41111  1  0  0  0
 41112  1  0  0  0
 41 48  1  0  0  0
 42 43  1  0  0  0
 42 66  1  0  0  0
 42113  1  0  0  0
 42114  1  0  0  0
 43 44  1  0  0  0
 44115  1  0  0  0
 45 46  2  0  0  0
 45116  1  0  0  0
 46117  1  0  0  0
 47118  1  0  0  0
 47119  1  0  0  0
 48 56  1  0  0  0
 48 65  1  0  0  0
 48120  1  0  0  0
 49 50  1  0  0  0
 49 53  1  0  0  0
 49 64  1  0  0  0
 49121  1  0  0  0
 50 51  1  0  0  0
 50122  1  0  0  0
 50123  1  0  0  0
 51 52  1  0  0  0
 51124  1  0  0  0
 51125  1  0  0  0
 52126  1  0  0  0
 52127  1  0  0  0
 53 54  1  0  0  0
 54 55  2  0  0  0
 54128  1  0  0  0
 55 57  1  0  0  0
 55129  1  0  0  0
 56 69  2  0  0  0
 57 58  2  0  0  0
 57130  1  0  0  0
 58131  1  0  0  0
 59 60  1  0  0  0
 59 61  1  0  0  0
 59 62  1  0  0  0
 60132  1  0  0  0
 60133  1  0  0  0
 60134  1  0  0  0
 61135  1  0  0  0
 61136  1  0  0  0
 61137  1  0  0  0
 62138  1  0  0  0
 62139  1  0  0  0
 62140  1  0  0  0
 63 65  1  0  0  0
 63141  1  0  0  0
 63142  1  0  0  0
 63143  1  0  0  0
 64144  1  0  0  0
 65145  1  0  0  0
 68 82  1  0  0  0
 71 73  2  0  0  0
 71 74  1  0  0  0
 71146  1  0  0  0
 72 73  1  0  0  0
 72 75  2  0  0  0
 72147  1  0  0  0
 73 83  1  0  0  0
 74 79  1  0  0  0
 74 85  2  0  0  0
 75 84  1  0  0  0
 75 85  1  0  0  0
 76 80  1  0  0  0
 76148  1  0  0  0
 76149  1  0  0  0
 76150  1  0  0  0
 77151  1  0  0  0
 77152  1  0  0  0
 77153  1  0  0  0
 77 84  1  0  0  0
 78 84  1  0  0  0
 78154  1  0  0  0
 78155  1  0  0  0
 78156  1  0  0  0
 79 81  1  0  0  0
 79157  1  0  0  0
 79158  1  0  0  0
 80159  1  0  0  0
 80160  1  0  0  0
 80 83  1  0  0  0
 81 86  1  0  0  0
 81161  1  0  0  0
 81162  1  0  0  0
 82 83  1  0  0  0
 82163  1  0  0  0
 82164  1  0  0  0
 83165  1  0  0  0
 84166  1  0  0  0
 86167  1  0  0  0
M  ISO  4   1 100  68 101  82 101  86 100
M  END
> <chiral flag>
0

> <version>
0

> <s_m_source_file>
/data/baiqing/PycharmProjects/Reinvent-master-3.2/result/LINK_invent/BTK/process_docking_weight1_custom_sum_contain_oxygen_bond_distance_aromatic_linkinvent_7_9_3/rearranged_h_0098.sdf

> <i_m_source_file_index>
88

> <r_mmod_Potential_Energy-OPLS-2005>
85.6962051391602

> <r_mmod_Stretch_Energy-OPLS-2005>
130.554931640625

> <r_mmod_Bend_Energy-OPLS-2005>
222.225631713867

> <r_mmod_Torsional_Energy-OPLS-2005>
217.270538330078

> <r_mmod_Improper_Torsional_Energy-OPLS-2005>
6.37089824676514

> <r_mmod_Van_der_Waal_Energy-OPLS-2005>
142.437728881836

> <r_mmod_Electrostatic_Energy-OPLS-2005>
-503.897369384766

> <r_mmod_Solvation_Energy-OPLS-2005>
-206.417449951172

> <b_mmod_Minimization_Converged-OPLS-2005>
0

> <r_mmod_RMS_Derivative-OPLS-2005>
6.57866907119751

$$$$
92
                    3D
 Structure written by MMmdl.
162170  0  0  1  0            999 V2000
  -30.5558  -15.0109   20.4052 C   0  0  0  0  0  0
  -30.4378  -12.6349   19.4877 C   0  0  0  0  0  0
  -29.5146  -12.5328   18.2530 C   0  0  0  0  0  0
  -28.0558  -12.3037   18.6821 C   0  0  0  0  0  0
  -27.6222  -13.2561   19.8266 C   0  0  2  0  0  0
  -28.6733  -13.3262   20.9545 C   0  0  0  0  0  0
  -25.2441  -13.8233   20.5722 C   0  0  0  0  0  0
  -24.1773  -13.0443   20.9233 C   0  0  0  0  0  0
  -24.6378  -11.6931   20.8728 C   0  0  0  0  0  0
  -23.9070  -10.4283   21.0381 C   0  0  0  0  0  0
  -24.3624   -9.4205   21.9177 C   0  0  0  0  0  0
  -23.6285   -8.2261   22.0746 C   0  0  0  0  0  0
  -22.4273   -8.0277   21.3542 C   0  0  0  0  0  0
  -21.9912   -9.0246   20.4648 C   0  0  0  0  0  0
  -22.7231  -10.2125   20.3041 C   0  0  0  0  0  0
  -21.6848   -6.0728   22.5273 C   0  0  0  0  0  0
  -21.4012   -6.5620   23.8211 C   0  0  0  0  0  0
  -21.3676   -5.6781   24.9182 C   0  0  0  0  0  0
  -21.6063   -4.3048   24.7234 C   0  0  0  0  0  0
  -21.8817   -3.8133   23.4351 C   0  0  0  0  0  0
  -21.9207   -4.6956   22.3407 C   0  0  0  0  0  0
  -22.7794  -13.5198   21.1888 C   0  0  0  0  0  0
  -22.1655   -4.2144   21.0981 F   0  0  0  0  0  0
  -21.5647   -3.4521   25.7745 F   0  0  0  0  0  0
  -29.9330  -13.7573   20.3340 N   0  0  0  0  0  0
  -26.2867  -12.9481   20.3252 N   0  0  0  0  0  0
  -25.9316  -11.6601   20.5729 N   0  0  0  0  0  0
  -22.0454  -12.8174   22.0450 N   0  0  0  0  0  0
  -25.4084  -15.1963   20.4135 N   0  0  0  0  0  0
  -31.7759  -15.0193   20.2118 O   0  0  0  0  0  0
  -21.6654   -6.8855   21.4226 O   0  0  0  0  0  0
  -22.3457  -14.5487   20.6718 O   0  0  0  0  0  0
  -24.6442  -31.8377   23.1805 C   0  0  0  0  0  0
  -25.9194  -32.4676   23.8229 C   0  0  1  0  0  0
  -27.2376  -27.0988   20.1425 C   0  0  0  0  0  0
  -25.5933  -33.8478   24.2170 N   0  0  0  0  0  0
  -23.4533  -30.4494   21.5274 C   0  0  2  0  0  0
  -24.9068  -28.8631   20.1072 C   0  0  0  0  0  0
  -22.7594  -29.4482   22.4835 C   0  0  0  0  0  0
  -18.0304  -28.1368   22.8469 C   0  0  0  0  0  0
  -24.1500  -36.7234   23.2640 C   0  0  0  0  0  0
  -26.0095  -30.6972   21.3857 C   0  0  0  0  0  0
  -26.0818  -29.3026   20.7278 C   0  0  0  0  0  0
  -27.2415  -28.4353   20.7281 C   0  0  0  0  0  0
  -26.0342  -26.7664   19.4819 C   0  0  0  0  0  0
  -24.8990  -27.6112   19.4691 C   0  0  0  0  0  0
  -23.6825  -29.7665   20.1502 C   0  0  0  0  0  0
  -25.4128  -36.3016   24.0322 C   0  0  1  0  0  0
  -20.5917  -28.3692   23.1222 C   0  0  2  0  0  0
  -20.6773  -26.9390   22.5397 C   0  0  0  0  0  0
  -19.5758  -26.6357   21.5192 C   0  0  0  0  0  0
  -18.1941  -26.7905   22.1608 C   0  0  0  0  0  0
  -19.1571  -28.8845   23.2839 C   0  0  0  0  0  0
  -18.9481  -30.1446   23.8870 C   0  0  0  0  0  0
  -17.6482  -30.6570   24.0529 C   0  0  0  0  0  0
  -25.9086  -34.9397   23.5053 C   0  0  0  0  0  0
  -16.5375  -29.9063   23.6326 C   0  0  0  0  0  0
  -16.7286  -28.6473   23.0363 C   0  0  0  0  0  0
  -26.4516  -31.6551   25.0685 C   0  0  0  0  0  0
  -25.3708  -31.3716   26.1390 C   0  0  0  0  0  0
  -27.0368  -30.2943   24.6259 C   0  0  0  0  0  0
  -27.6043  -32.4321   25.7463 C   0  0  0  0  0  0
  -27.5583  -37.1775   24.8465 C   0  0  0  0  0  0
  -21.4278  -29.3038   22.3624 N   0  0  0  0  0  0
  -26.4278  -37.3741   23.9436 N   0  0  0  0  0  0
  -24.7225  -31.0191   22.0859 N   0  0  0  0  0  0
  -23.4235  -28.8026   23.2986 O   0  0  0  0  0  0
  -28.3151  -26.1314   20.2540 O   0  0  0  0  0  0
  -26.5673  -34.8891   22.4648 O   0  0  0  0  0  0
  -23.5550  -32.1273   23.7016 O   0  0  0  0  0  0
  -28.9125  -20.2900   20.5956 C   0  0  0  0  0  0
  -29.2973  -21.7300   20.3780 C   0  0  0  0  0  0
  -29.9373  -19.3025   20.4519 C   0  0  0  0  0  0
  -30.6439  -21.5570   20.0979 C   0  0  0  0  0  0
  -28.4890  -23.5250   22.1212 C   0  0  0  0  0  0
  -31.7492  -23.7607   20.8811 C   0  0  0  0  0  0
  -31.9318  -23.0195   18.4550 C   0  0  0  0  0  0
  -30.3365  -17.7155   20.8750 C   0  0  0  0  0  0
  -28.3975  -24.6368   19.7477 C   0  0  0  0  0  0
  -28.4361  -23.1689   20.6324 C   0  0  1  0  0  0
  -31.7702  -22.5669   19.9119 C   0  0  0  0  0  0
  -30.9670  -20.1695   20.0481 N   0  0  0  0  0  0
  -32.2584  -19.7105   19.7040 N   0  0  0  0  0  0
  -29.8344  -16.2489   20.4959 N   0  0  0  0  0  0
  -31.4649  -12.7950   19.1598 H   0  0  0  0  0  0
  -30.4463  -11.6935   20.0428 H   0  0  0  0  0  0
  -29.8385  -11.7269   17.5949 H   0  0  0  0  0  0
  -29.5827  -13.4549   17.6717 H   0  0  0  0  0  0
  -27.9710  -11.2669   19.0094 H   0  0  0  0  0  0
  -27.3889  -12.4063   17.8246 H   0  0  0  0  0  0
  -27.5705  -14.2470   19.3755 H   0  0  0  0  0  0
  -28.7881  -12.3601   21.4498 H   0  0  0  0  0  0
  -28.3654  -14.0370   21.7240 H   0  0  0  0  0  0
  -25.2773   -9.5703   22.4760 H   0  0  0  0  0  0
  -24.0019   -7.4646   22.7435 H   0  0  0  0  0  0
  -21.0869   -8.8727   19.8917 H   0  0  0  0  0  0
  -22.3665  -10.9665   19.6148 H   0  0  0  0  0  0
  -21.1970   -7.6123   23.9697 H   0  0  0  0  0  0
  -21.1499   -6.0518   25.9079 H   0  0  0  0  0  0
  -22.0585   -2.7589   23.2858 H   0  0  0  0  0  0
  -22.4069  -11.9839   22.4864 H   0  0  0  0  0  0
  -21.1067  -13.1155   22.2622 H   0  0  0  0  0  0
  -24.6400  -15.8494   20.5273 H   0  0  0  0  0  0
  -26.2553  -15.6402   20.0833 H   0  0  0  0  0  0
  -26.7239  -32.5290   23.0932 H   0  0  0  0  0  0
  -25.0073  -33.9593   25.0310 H   0  0  0  0  0  0
  -22.7587  -31.2761   21.3658 H   0  0  0  0  0  0
  -23.3795  -35.9528   23.3247 H   0  0  0  0  0  0
  -24.3583  -36.8924   22.2063 H   0  0  0  0  0  0
  -23.7220  -37.6398   23.6714 H   0  0  0  0  0  0
  -26.1694  -31.4487   20.6122 H   0  0  0  0  0  0
  -26.8773  -30.7529   22.0301 H   0  0  0  0  0  0
  -28.1347  -28.7685   21.2363 H   0  0  0  0  0  0
  -25.9357  -25.8072   18.9981 H   0  0  0  0  0  0
  -24.0000  -27.2698   18.9748 H   0  0  0  0  0  0
  -23.8222  -30.5369   19.3920 H   0  0  0  0  0  0
  -22.7995  -29.2030   19.8414 H   0  0  0  0  0  0
  -25.1318  -36.1813   25.0805 H   0  0  0  0  0  0
  -21.0005  -28.3256   24.1346 H   0  0  0  0  0  0
  -20.5608  -26.2316   23.3621 H   0  0  0  0  0  0
  -21.6641  -26.7345   22.1233 H   0  0  0  0  0  0
  -19.6913  -25.6263   21.1234 H   0  0  0  0  0  0
  -19.6682  -27.3153   20.6714 H   0  0  0  0  0  0
  -17.4206  -26.6640   21.4012 H   0  0  0  0  0  0
  -18.0339  -26.0043   22.8998 H   0  0  0  0  0  0
  -19.7966  -30.7251   24.2242 H   0  0  0  0  0  0
  -17.5042  -31.6261   24.5120 H   0  0  0  0  0  0
  -15.5376  -30.2954   23.7662 H   0  0  0  0  0  0
  -15.8685  -28.0764   22.7119 H   0  0  0  0  0  0
  -24.5939  -30.6986   25.7731 H   0  0  0  0  0  0
  -24.8826  -32.2870   26.4736 H   0  0  0  0  0  0
  -25.8009  -30.8975   27.0226 H   0  0  0  0  0  0
  -26.2954  -29.6680   24.1270 H   0  0  0  0  0  0
  -27.3998  -29.7207   25.4806 H   0  0  0  0  0  0
  -27.8866  -30.4190   23.9540 H   0  0  0  0  0  0
  -27.2654  -33.3681   26.1903 H   0  0  0  0  0  0
  -28.3904  -32.6779   25.0314 H   0  0  0  0  0  0
  -28.0642  -31.8534   26.5487 H   0  0  0  0  0  0
  -28.2559  -38.0116   24.7573 H   0  0  0  0  0  0
  -28.1127  -36.2654   24.6212 H   0  0  0  0  0  0
  -27.2313  -37.1313   25.8867 H   0  0  0  0  0  0
  -20.9500  -29.8800   21.6827 H   0  0  0  0  0  0
  -26.0137  -38.2792   24.1492 H   0  0  0  0  0  0
  -27.9287  -20.0161   20.9507 H   0  0  0  0  0  0
  -28.2452  -22.6637   22.7416 H   0  0  0  0  0  0
  -27.7756  -24.3163   22.3577 H   0  0  0  0  0  0
  -29.4705  -23.8804   22.4213 H   0  0  0  0  0  0
  -31.7417  -23.4233   21.9194 H   0  0  0  0  0  0
  -30.8986  -24.4149   20.7257 H   0  0  0  0  0  0
  -32.6382  -24.3802   20.7574 H   0  0  0  0  0  0
  -32.0064  -22.1592   17.7887 H   0  0  0  0  0  0
  -32.8406  -23.6081   18.3262 H   0  0  0  0  0  0
  -31.0958  -23.6336   18.1269 H   0  0  0  0  0  0
  -30.2498  -17.7053   21.9617 H   0  0  0  0  0  0
  -31.4120  -17.6149   20.7389 H   0  0  0  0  0  0
  -27.6462  -24.5092   18.9710 H   0  0  0  0  0  0
  -29.3109  -24.6465   19.1582 H   0  0  0  0  0  0
  -27.4178  -22.8018   20.4939 H   0  0  0  0  0  0
  -32.7169  -22.0914   20.1697 H   0  0  0  0  0  0
  -32.1523  -18.8938   19.1164 H   0  0  0  0  0  0
  -32.7213  -19.4171   20.5535 H   0  0  0  0  0  0
  -28.8315  -16.1374   20.5231 H   0  0  0  0  0  0
  1 25  1  0  0  0
  1 30  2  0  0  0
  1 84  1  0  0  0
  2  3  1  0  0  0
  2 25  1  0  0  0
  2 85  1  0  0  0
  2 86  1  0  0  0
  3  4  1  0  0  0
  3 87  1  0  0  0
  3 88  1  0  0  0
  4  5  1  0  0  0
  4 89  1  0  0  0
  4 90  1  0  0  0
  5  6  1  0  0  0
  5 26  1  0  0  0
  5 91  1  0  0  0
  6 25  1  0  0  0
  6 92  1  0  0  0
  6 93  1  0  0  0
  7  8  2  0  0  0
  7 26  1  0  0  0
  7 29  1  0  0  0
  8  9  1  0  0  0
  8 22  1  0  0  0
  9 10  1  0  0  0
  9 27  2  0  0  0
 10 11  2  0  0  0
 10 15  1  0  0  0
 11 12  1  0  0  0
 11 94  1  0  0  0
 12 13  2  0  0  0
 12 95  1  0  0  0
 13 14  1  0  0  0
 13 31  1  0  0  0
 14 15  2  0  0  0
 14 96  1  0  0  0
 15 97  1  0  0  0
 16 17  2  0  0  0
 16 21  1  0  0  0
 16 31  1  0  0  0
 17 18  1  0  0  0
 17 98  1  0  0  0
 18 19  2  0  0  0
 18 99  1  0  0  0
 19 20  1  0  0  0
 19 24  1  0  0  0
 20 21  2  0  0  0
 20100  1  0  0  0
 21 23  1  0  0  0
 22 28  1  0  0  0
 22 32  2  0  0  0
 26 27  1  0  0  0
 28101  1  0  0  0
 28102  1  0  0  0
 29103  1  0  0  0
 29104  1  0  0  0
 33 34  1  0  0  0
 33 66  1  0  0  0
 33 70  2  0  0  0
 34 36  1  0  0  0
 34 59  1  0  0  0
 34105  1  0  0  0
 35 44  2  0  0  0
 35 45  1  0  0  0
 35 68  1  0  0  0
 36 56  1  0  0  0
 36106  1  0  0  0
 37 39  1  0  0  0
 37 47  1  0  0  0
 37 66  1  0  0  0
 37107  1  0  0  0
 38 43  2  0  0  0
 38 46  1  0  0  0
 38 47  1  0  0  0
 39 64  1  0  0  0
 39 67  2  0  0  0
 40 52  1  0  0  0
 40 53  2  0  0  0
 40 58  1  0  0  0
 41108  1  0  0  0
 41109  1  0  0  0
 41110  1  0  0  0
 41 48  1  0  0  0
 42 43  1  0  0  0
 42 66  1  0  0  0
 42111  1  0  0  0
 42112  1  0  0  0
 43 44  1  0  0  0
 44113  1  0  0  0
 45 46  2  0  0  0
 45114  1  0  0  0
 46115  1  0  0  0
 47116  1  0  0  0
 47117  1  0  0  0
 48 56  1  0  0  0
 48 65  1  0  0  0
 48118  1  0  0  0
 49 50  1  0  0  0
 49 53  1  0  0  0
 49 64  1  0  0  0
 49119  1  0  0  0
 50 51  1  0  0  0
 50120  1  0  0  0
 50121  1  0  0  0
 51 52  1  0  0  0
 51122  1  0  0  0
 51123  1  0  0  0
 52124  1  0  0  0
 52125  1  0  0  0
 53 54  1  0  0  0
 54 55  2  0  0  0
 54126  1  0  0  0
 55 57  1  0  0  0
 55127  1  0  0  0
 56 69  2  0  0  0
 57 58  2  0  0  0
 57128  1  0  0  0
 58129  1  0  0  0
 59 60  1  0  0  0
 59 61  1  0  0  0
 59 62  1  0  0  0
 60130  1  0  0  0
 60131  1  0  0  0
 60132  1  0  0  0
 61133  1  0  0  0
 61134  1  0  0  0
 61135  1  0  0  0
 62136  1  0  0  0
 62137  1  0  0  0
 62138  1  0  0  0
 63 65  1  0  0  0
 63139  1  0  0  0
 63140  1  0  0  0
 63141  1  0  0  0
 64142  1  0  0  0
 65143  1  0  0  0
 68 79  1  0  0  0
 71 72  1  0  0  0
 71 73  2  0  0  0
 71144  1  0  0  0
 72 74  2  0  0  0
 72 80  1  0  0  0
 73 78  1  0  0  0
 73 82  1  0  0  0
 74 81  1  0  0  0
 74 82  1  0  0  0
 75145  1  0  0  0
 75146  1  0  0  0
 75147  1  0  0  0
 75 80  1  0  0  0
 76148  1  0  0  0
 76149  1  0  0  0
 76150  1  0  0  0
 76 81  1  0  0  0
 77 81  1  0  0  0
 77151  1  0  0  0
 77152  1  0  0  0
 77153  1  0  0  0
 78 84  1  0  0  0
 78154  1  0  0  0
 78155  1  0  0  0
 79 80  1  0  0  0
 79156  1  0  0  0
 79157  1  0  0  0
 80158  1  0  0  0
 81159  1  0  0  0
 82 83  1  0  0  0
 83160  1  0  0  0
 83161  1  0  0  0
 84162  1  0  0  0
M  ISO  4   1 100  68 101  79 101  84 100
M  END
> <chiral flag>
0

> <version>
0

> <s_m_source_file>
/data/baiqing/PycharmProjects/Reinvent-master-3.2/result/LINK_invent/BTK/process_docking_weight1_custom_sum_contain_oxygen_bond_distance_aromatic_linkinvent_7_9_3/rearranged_h_0098.sdf

> <i_m_source_file_index>
89

> <r_mmod_Potential_Energy-OPLS-2005>
639.197875976562

> <r_mmod_Stretch_Energy-OPLS-2005>
323.126373291016

> <r_mmod_Bend_Energy-OPLS-2005>
356.198608398438

> <r_mmod_Torsional_Energy-OPLS-2005>
245.397079467773

> <r_mmod_Improper_Torsional_Energy-OPLS-2005>
14.0730466842651

> <r_mmod_Van_der_Waal_Energy-OPLS-2005>
116.509696960449

> <r_mmod_Electrostatic_Energy-OPLS-2005>
-439.809417724609

> <r_mmod_Solvation_Energy-OPLS-2005>
-207.137802124023

> <b_mmod_Minimization_Converged-OPLS-2005>
0

> <r_mmod_RMS_Derivative-OPLS-2005>
3.92665481567383

$$$$
93
                    3D
 Structure written by MMmdl.
159166  0  0  1  0            999 V2000
  -30.5694  -14.8808   20.5196 C   0  0  0  0  0  0
  -30.4432  -12.5607   19.4896 C   0  0  0  0  0  0
  -29.5164  -12.5579   18.2489 C   0  0  0  0  0  0
  -28.0430  -12.3466   18.6506 C   0  0  0  0  0  0
  -27.6386  -13.2341   19.8548 C   0  0  2  0  0  0
  -28.6855  -13.1331   20.9824 C   0  0  0  0  0  0
  -25.2434  -13.8170   20.5622 C   0  0  0  0  0  0
  -24.1761  -13.0411   20.9191 C   0  0  0  0  0  0
  -24.6384  -11.6900   20.8751 C   0  0  0  0  0  0
  -23.9073  -10.4278   21.0412 C   0  0  0  0  0  0
  -24.3623   -9.4192   21.9187 C   0  0  0  0  0  0
  -23.6294   -8.2230   22.0754 C   0  0  0  0  0  0
  -22.4272   -8.0277   21.3546 C   0  0  0  0  0  0
  -21.9915   -9.0247   20.4641 C   0  0  0  0  0  0
  -22.7249  -10.2122   20.3054 C   0  0  0  0  0  0
  -21.6851   -6.0737   22.5280 C   0  0  0  0  0  0
  -21.4014   -6.5644   23.8214 C   0  0  0  0  0  0
  -21.3654   -5.6793   24.9174 C   0  0  0  0  0  0
  -21.6041   -4.3057   24.7222 C   0  0  0  0  0  0
  -21.8819   -3.8151   23.4343 C   0  0  0  0  0  0
  -21.9190   -4.6967   22.3400 C   0  0  0  0  0  0
  -22.7783  -13.5185   21.1861 C   0  0  0  0  0  0
  -22.1658   -4.2158   21.0978 F   0  0  0  0  0  0
  -21.5624   -3.4538   25.7732 F   0  0  0  0  0  0
  -29.9664  -13.6170   20.4371 N   0  0  0  0  0  0
  -26.2900  -12.9400   20.3266 N   0  0  0  0  0  0
  -25.9317  -11.6538   20.5755 N   0  0  0  0  0  0
  -22.0447  -12.8173   22.0432 N   0  0  0  0  0  0
  -25.4003  -15.1886   20.3923 N   0  0  0  0  0  0
  -31.7132  -14.9427   20.0537 O   0  0  0  0  0  0
  -21.6635   -6.8878   21.4243 O   0  0  0  0  0  0
  -22.3457  -14.5488   20.6713 O   0  0  0  0  0  0
  -24.6398  -31.8479   23.1887 C   0  0  0  0  0  0
  -25.9185  -32.4712   23.8283 C   0  0  1  0  0  0
  -27.2229  -27.1765   20.1525 C   0  0  0  0  0  0
  -25.5947  -33.8516   24.2212 N   0  0  0  0  0  0
  -23.4419  -30.4684   21.5316 C   0  0  2  0  0  0
  -24.8921  -28.8968   20.1129 C   0  0  0  0  0  0
  -22.7558  -29.4581   22.4841 C   0  0  0  0  0  0
  -18.0310  -28.1404   22.8473 C   0  0  0  0  0  0
  -24.1494  -36.7263   23.2643 C   0  0  0  0  0  0
  -25.9958  -30.7350   21.3803 C   0  0  0  0  0  0
  -26.0674  -29.3476   20.7275 C   0  0  0  0  0  0
  -27.2359  -28.5040   20.7292 C   0  0  0  0  0  0
  -26.0257  -26.8174   19.4963 C   0  0  0  0  0  0
  -24.8816  -27.6420   19.4836 C   0  0  0  0  0  0
  -23.6664  -29.7942   20.1521 C   0  0  0  0  0  0
  -25.4120  -36.3036   24.0323 C   0  0  1  0  0  0
  -20.5926  -28.3723   23.1232 C   0  0  2  0  0  0
  -20.6806  -26.9429   22.5398 C   0  0  0  0  0  0
  -19.5772  -26.6384   21.5215 C   0  0  0  0  0  0
  -18.1946  -26.7947   22.1619 C   0  0  0  0  0  0
  -19.1568  -28.8878   23.2853 C   0  0  0  0  0  0
  -18.9484  -30.1477   23.8877 C   0  0  0  0  0  0
  -17.6478  -30.6596   24.0562 C   0  0  0  0  0  0
  -25.9064  -34.9416   23.5072 C   0  0  0  0  0  0
  -16.5369  -29.9091   23.6331 C   0  0  0  0  0  0
  -16.7293  -28.6512   23.0345 C   0  0  0  0  0  0
  -26.4512  -31.6565   25.0707 C   0  0  0  0  0  0
  -25.3698  -31.3748   26.1398 C   0  0  0  0  0  0
  -27.0385  -30.2977   24.6254 C   0  0  0  0  0  0
  -27.6053  -32.4318   25.7488 C   0  0  0  0  0  0
  -27.5573  -37.1789   24.8465 C   0  0  0  0  0  0
  -21.4249  -29.3064   22.3608 N   0  0  0  0  0  0
  -26.4280  -37.3750   23.9407 N   0  0  0  0  0  0
  -24.7121  -31.0385   22.0886 N   0  0  0  0  0  0
  -23.4232  -28.8120   23.2960 O   0  0  0  0  0  0
  -28.2979  -26.2303   20.1698 O   0  0  0  0  0  0
  -26.5658  -34.8910   22.4652 O   0  0  0  0  0  0
  -23.5519  -32.1313   23.7126 O   0  0  0  0  0  0
  -28.6281  -16.1623   21.8479 C   0  0  0  0  0  0
  -30.9917  -16.6569   22.2845 C   0  0  0  0  0  0
  -27.3266  -21.7347   21.1418 C   0  0  0  0  0  0
  -29.3326  -19.1969   20.8480 C   0  0  0  0  0  0
  -29.9016  -17.7328   20.2537 C   0  0  0  0  0  0
  -29.3389  -20.6763   20.0636 C   0  0  0  0  0  0
  -28.8696  -23.3979   20.0194 C   0  0  0  0  0  0
  -28.0650  -24.7572   20.5733 C   0  0  0  0  0  0
  -29.9912  -16.3204   21.1534 C   0  0  0  0  0  0
  -28.7233  -21.9796   20.7116 N   0  3  1  0  0  0
  -31.4757  -12.7141   19.1734 H   0  0  0  0  0  0
  -30.4434  -11.5809   19.9696 H   0  0  0  0  0  0
  -29.8272  -11.7867   17.5436 H   0  0  0  0  0  0
  -29.6145  -13.5102   17.7250 H   0  0  0  0  0  0
  -27.9142  -11.2943   18.9081 H   0  0  0  0  0  0
  -27.3855  -12.5338   17.8006 H   0  0  0  0  0  0
  -27.6360  -14.2593   19.4854 H   0  0  0  0  0  0
  -28.7734  -12.0932   21.3023 H   0  0  0  0  0  0
  -28.3657  -13.6425   21.8811 H   0  0  0  0  0  0
  -25.2765   -9.5665   22.4765 H   0  0  0  0  0  0
  -23.9998   -7.4619   22.7471 H   0  0  0  0  0  0
  -21.0851   -8.8763   19.8945 H   0  0  0  0  0  0
  -22.3709  -10.9659   19.6163 H   0  0  0  0  0  0
  -21.2015   -7.6155   23.9721 H   0  0  0  0  0  0
  -21.1470   -6.0522   25.9074 H   0  0  0  0  0  0
  -22.0604   -2.7618   23.2837 H   0  0  0  0  0  0
  -22.4071  -11.9832   22.4806 H   0  0  0  0  0  0
  -21.1065  -13.1187   22.2653 H   0  0  0  0  0  0
  -24.6269  -15.8363   20.4960 H   0  0  0  0  0  0
  -26.2448  -15.6324   20.0569 H   0  0  0  0  0  0
  -26.7258  -32.5332   23.1026 H   0  0  0  0  0  0
  -25.0090  -33.9651   25.0349 H   0  0  0  0  0  0
  -22.7429  -31.2933   21.3754 H   0  0  0  0  0  0
  -23.3760  -35.9593   23.3285 H   0  0  0  0  0  0
  -24.3585  -36.8900   22.2060 H   0  0  0  0  0  0
  -23.7254  -37.6455   23.6683 H   0  0  0  0  0  0
  -26.1476  -31.4879   20.6051 H   0  0  0  0  0  0
  -26.8703  -30.7868   22.0175 H   0  0  0  0  0  0
  -28.1364  -28.8479   21.2180 H   0  0  0  0  0  0
  -25.9587  -25.8643   18.9898 H   0  0  0  0  0  0
  -23.9847  -27.2937   18.9892 H   0  0  0  0  0  0
  -23.7986  -30.5657   19.3918 H   0  0  0  0  0  0
  -22.7827  -29.2312   19.8445 H   0  0  0  0  0  0
  -25.1308  -36.1864   25.0816 H   0  0  0  0  0  0
  -21.0023  -28.3309   24.1349 H   0  0  0  0  0  0
  -20.5706  -26.2337   23.3617 H   0  0  0  0  0  0
  -21.6670  -26.7444   22.1186 H   0  0  0  0  0  0
  -19.6937  -25.6291   21.1248 H   0  0  0  0  0  0
  -19.6713  -27.3196   20.6751 H   0  0  0  0  0  0
  -17.4223  -26.6684   21.4015 H   0  0  0  0  0  0
  -18.0337  -26.0107   22.9032 H   0  0  0  0  0  0
  -19.7961  -30.7305   24.2226 H   0  0  0  0  0  0
  -17.5034  -31.6270   24.5182 H   0  0  0  0  0  0
  -15.5370  -30.2994   23.7675 H   0  0  0  0  0  0
  -15.8691  -28.0840   22.7061 H   0  0  0  0  0  0
  -24.5897  -30.7073   25.7712 H   0  0  0  0  0  0
  -24.8867  -32.2929   26.4747 H   0  0  0  0  0  0
  -25.7981  -30.8967   27.0223 H   0  0  0  0  0  0
  -26.3002  -29.6693   24.1259 H   0  0  0  0  0  0
  -27.4031  -29.7269   25.4811 H   0  0  0  0  0  0
  -27.8889  -30.4240   23.9553 H   0  0  0  0  0  0
  -27.2670  -33.3650   26.2004 H   0  0  0  0  0  0
  -28.3902  -32.6823   25.0333 H   0  0  0  0  0  0
  -28.0686  -31.8480   26.5450 H   0  0  0  0  0  0
  -28.2578  -38.0096   24.7520 H   0  0  0  0  0  0
  -28.1084  -36.2631   24.6279 H   0  0  0  0  0  0
  -27.2303  -37.1419   25.8872 H   0  0  0  0  0  0
  -20.9439  -29.8777   21.6795 H   0  0  0  0  0  0
  -26.0143  -38.2815   24.1406 H   0  0  0  0  0  0
  -28.2717  -17.1044   22.2605 H   0  0  0  0  0  0
  -28.6865  -15.4969   22.7073 H   0  0  0  0  0  0
  -27.8647  -15.8142   21.1597 H   0  0  0  0  0  0
  -30.6300  -17.4599   22.9267 H   0  0  0  0  0  0
  -31.9549  -16.9743   21.8825 H   0  0  0  0  0  0
  -31.1796  -15.7973   22.9300 H   0  0  0  0  0  0
  -27.2528  -20.8545   21.7789 H   0  0  0  0  0  0
  -26.6697  -21.5905   20.2842 H   0  0  0  0  0  0
  -26.9387  -22.5624   21.7329 H   0  0  0  0  0  0
  -29.8326  -19.3634   21.8013 H   0  0  0  0  0  0
  -28.2932  -19.0083   21.1086 H   0  0  0  0  0  0
  -30.9020  -17.9200   19.8617 H   0  0  0  0  0  0
  -29.3105  -17.5006   19.3670 H   0  0  0  0  0  0
  -28.8391  -20.5397   19.1044 H   0  0  0  0  0  0
  -30.3731  -20.9103   19.8109 H   0  0  0  0  0  0
  -29.9358  -23.6258   20.0120 H   0  0  0  0  0  0
  -28.5991  -23.2719   18.9719 H   0  0  0  0  0  0
  -28.2126  -24.7647   21.6530 H   0  0  0  0  0  0
  -27.0031  -24.5458   20.4606 H   0  0  0  0  0  0
  -29.2342  -22.0817   21.5774 H   0  0  0  0  0  0
  1 25  1  0  0  0
  1 30  2  0  0  0
  1 79  1  0  0  0
  2  3  1  0  0  0
  2 25  1  0  0  0
  2 81  1  0  0  0
  2 82  1  0  0  0
  3  4  1  0  0  0
  3 83  1  0  0  0
  3 84  1  0  0  0
  4  5  1  0  0  0
  4 85  1  0  0  0
  4 86  1  0  0  0
  5  6  1  0  0  0
  5 26  1  0  0  0
  5 87  1  0  0  0
  6 25  1  0  0  0
  6 88  1  0  0  0
  6 89  1  0  0  0
  7  8  2  0  0  0
  7 26  1  0  0  0
  7 29  1  0  0  0
  8  9  1  0  0  0
  8 22  1  0  0  0
  9 10  1  0  0  0
  9 27  2  0  0  0
 10 11  2  0  0  0
 10 15  1  0  0  0
 11 12  1  0  0  0
 11 90  1  0  0  0
 12 13  2  0  0  0
 12 91  1  0  0  0
 13 14  1  0  0  0
 13 31  1  0  0  0
 14 15  2  0  0  0
 14 92  1  0  0  0
 15 93  1  0  0  0
 16 17  2  0  0  0
 16 21  1  0  0  0
 16 31  1  0  0  0
 17 18  1  0  0  0
 17 94  1  0  0  0
 18 19  2  0  0  0
 18 95  1  0  0  0
 19 20  1  0  0  0
 19 24  1  0  0  0
 20 21  2  0  0  0
 20 96  1  0  0  0
 21 23  1  0  0  0
 22 28  1  0  0  0
 22 32  2  0  0  0
 26 27  1  0  0  0
 28 97  1  0  0  0
 28 98  1  0  0  0
 29 99  1  0  0  0
 29100  1  0  0  0
 33 34  1  0  0  0
 33 66  1  0  0  0
 33 70  2  0  0  0
 34 36  1  0  0  0
 34 59  1  0  0  0
 34101  1  0  0  0
 35 44  2  0  0  0
 35 45  1  0  0  0
 35 68  1  0  0  0
 36 56  1  0  0  0
 36102  1  0  0  0
 37 39  1  0  0  0
 37 47  1  0  0  0
 37 66  1  0  0  0
 37103  1  0  0  0
 38 43  2  0  0  0
 38 46  1  0  0  0
 38 47  1  0  0  0
 39 64  1  0  0  0
 39 67  2  0  0  0
 40 52  1  0  0  0
 40 53  2  0  0  0
 40 58  1  0  0  0
 41104  1  0  0  0
 41105  1  0  0  0
 41106  1  0  0  0
 41 48  1  0  0  0
 42 43  1  0  0  0
 42 66  1  0  0  0
 42107  1  0  0  0
 42108  1  0  0  0
 43 44  1  0  0  0
 44109  1  0  0  0
 45 46  2  0  0  0
 45110  1  0  0  0
 46111  1  0  0  0
 47112  1  0  0  0
 47113  1  0  0  0
 48 56  1  0  0  0
 48 65  1  0  0  0
 48114  1  0  0  0
 49 50  1  0  0  0
 49 53  1  0  0  0
 49 64  1  0  0  0
 49115  1  0  0  0
 50 51  1  0  0  0
 50116  1  0  0  0
 50117  1  0  0  0
 51 52  1  0  0  0
 51118  1  0  0  0
 51119  1  0  0  0
 52120  1  0  0  0
 52121  1  0  0  0
 53 54  1  0  0  0
 54 55  2  0  0  0
 54122  1  0  0  0
 55 57  1  0  0  0
 55123  1  0  0  0
 56 69  2  0  0  0
 57 58  2  0  0  0
 57124  1  0  0  0
 58125  1  0  0  0
 59 60  1  0  0  0
 59 61  1  0  0  0
 59 62  1  0  0  0
 60126  1  0  0  0
 60127  1  0  0  0
 60128  1  0  0  0
 61129  1  0  0  0
 61130  1  0  0  0
 61131  1  0  0  0
 62132  1  0  0  0
 62133  1  0  0  0
 62134  1  0  0  0
 63 65  1  0  0  0
 63135  1  0  0  0
 63136  1  0  0  0
 63137  1  0  0  0
 64138  1  0  0  0
 65139  1  0  0  0
 68 78  1  0  0  0
 71140  1  0  0  0
 71141  1  0  0  0
 71142  1  0  0  0
 71 79  1  0  0  0
 72 79  1  0  0  0
 72143  1  0  0  0
 72144  1  0  0  0
 72145  1  0  0  0
 73146  1  0  0  0
 73147  1  0  0  0
 73148  1  0  0  0
 73 80  1  0  0  0
 74 75  1  0  0  0
 74 76  1  0  0  0
 74149  1  0  0  0
 74150  1  0  0  0
 75 79  1  0  0  0
 75151  1  0  0  0
 75152  1  0  0  0
 76 80  1  0  0  0
 76153  1  0  0  0
 76154  1  0  0  0
 77 78  1  0  0  0
 77 80  1  0  0  0
 77155  1  0  0  0
 77156  1  0  0  0
 78157  1  0  0  0
 78158  1  0  0  0
 80159  1  0  0  0
M  CHG  1  80   1
M  ISO  4   1 100  68 101  78 101  79 100
M  END
> <chiral flag>
0

> <version>
0

> <s_m_source_file>
/data/baiqing/PycharmProjects/Reinvent-master-3.2/result/LINK_invent/BTK/process_docking_weight1_custom_sum_contain_oxygen_bond_distance_aromatic_linkinvent_7_9_3/rearranged_h_0098.sdf

> <i_m_source_file_index>
90

> <r_mmod_Potential_Energy-OPLS-2005>
418.275421142578

> <r_mmod_Stretch_Energy-OPLS-2005>
251.380935668945

> <r_mmod_Bend_Energy-OPLS-2005>
263.201873779297

> <r_mmod_Torsional_Energy-OPLS-2005>
212.517440795898

> <r_mmod_Improper_Torsional_Energy-OPLS-2005>
1.71156537532806

> <r_mmod_Van_der_Waal_Energy-OPLS-2005>
127.78101348877

> <r_mmod_Electrostatic_Energy-OPLS-2005>
-166.12841796875

> <r_mmod_Solvation_Energy-OPLS-2005>
-411.123443603516

> <b_mmod_Minimization_Converged-OPLS-2005>
0

> <r_mmod_RMS_Derivative-OPLS-2005>
1.64751553535461

$$$$
94
                    3D
 Structure written by MMmdl.
159167  0  0  1  0            999 V2000
  -30.5686  -14.7722   20.4663 C   0  0  0  0  0  0
  -30.4403  -12.4796   19.4578 C   0  0  0  0  0  0
  -29.5082  -12.5086   18.2259 C   0  0  0  0  0  0
  -28.0350  -12.3226   18.6435 C   0  0  0  0  0  0
  -27.6357  -13.2254   19.8407 C   0  0  2  0  0  0
  -28.6812  -13.1573   20.9717 C   0  0  0  0  0  0
  -25.2492  -13.8170   20.5665 C   0  0  0  0  0  0
  -24.1790  -13.0420   20.9211 C   0  0  0  0  0  0
  -24.6383  -11.6899   20.8760 C   0  0  0  0  0  0
  -23.9065  -10.4278   21.0416 C   0  0  0  0  0  0
  -24.3621   -9.4195   21.9187 C   0  0  0  0  0  0
  -23.6293   -8.2230   22.0758 C   0  0  0  0  0  0
  -22.4274   -8.0275   21.3542 C   0  0  0  0  0  0
  -21.9909   -9.0248   20.4643 C   0  0  0  0  0  0
  -22.7242  -10.2124   20.3054 C   0  0  0  0  0  0
  -21.6849   -6.0736   22.5282 C   0  0  0  0  0  0
  -21.4009   -6.5640   23.8215 C   0  0  0  0  0  0
  -21.3657   -5.6794   24.9179 C   0  0  0  0  0  0
  -21.6043   -4.3055   24.7225 C   0  0  0  0  0  0
  -21.8820   -3.8146   23.4344 C   0  0  0  0  0  0
  -21.9192   -4.6966   22.3402 C   0  0  0  0  0  0
  -22.7813  -13.5203   21.1879 C   0  0  0  0  0  0
  -22.1661   -4.2147   21.0974 F   0  0  0  0  0  0
  -21.5631   -3.4537   25.7736 F   0  0  0  0  0  0
  -29.9722  -13.5351   20.3834 N   0  0  0  0  0  0
  -26.2903  -12.9361   20.3224 N   0  0  0  0  0  0
  -25.9302  -11.6516   20.5725 N   0  0  0  0  0  0
  -22.0471  -12.8184   22.0434 N   0  0  0  0  0  0
  -25.4172  -15.1892   20.4041 N   0  0  0  0  0  0
  -31.7718  -14.8954   20.2183 O   0  0  0  0  0  0
  -21.6638   -6.8875   21.4239 O   0  0  0  0  0  0
  -22.3493  -14.5509   20.6728 O   0  0  0  0  0  0
  -24.6310  -31.8535   23.1939 C   0  0  0  0  0  0
  -25.9129  -32.4763   23.8290 C   0  0  1  0  0  0
  -27.2250  -27.2604   20.1307 C   0  0  0  0  0  0
  -25.5921  -33.8559   24.2220 N   0  0  0  0  0  0
  -23.4290  -30.4732   21.5386 C   0  0  2  0  0  0
  -24.8756  -28.9114   20.1142 C   0  0  0  0  0  0
  -22.7505  -29.4603   22.4920 C   0  0  0  0  0  0
  -18.0280  -28.1408   22.8475 C   0  0  0  0  0  0
  -24.1487  -36.7283   23.2640 C   0  0  0  0  0  0
  -25.9732  -30.7681   21.3691 C   0  0  0  0  0  0
  -26.0476  -29.3871   20.7164 C   0  0  0  0  0  0
  -27.2279  -28.5770   20.7043 C   0  0  0  0  0  0
  -26.0295  -26.8417   19.5136 C   0  0  0  0  0  0
  -24.8711  -27.6467   19.5019 C   0  0  0  0  0  0
  -23.6461  -29.7995   20.1572 C   0  0  0  0  0  0
  -25.4108  -36.3070   24.0322 C   0  0  1  0  0  0
  -20.5886  -28.3714   23.1275 C   0  0  2  0  0  0
  -20.6780  -26.9435   22.5418 C   0  0  0  0  0  0
  -19.5758  -26.6392   21.5232 C   0  0  0  0  0  0
  -18.1926  -26.7944   22.1616 C   0  0  0  0  0  0
  -19.1534  -28.8871   23.2865 C   0  0  0  0  0  0
  -18.9466  -30.1474   23.8887 C   0  0  0  0  0  0
  -17.6471  -30.6605   24.0575 C   0  0  0  0  0  0
  -25.9052  -34.9450   23.5076 C   0  0  0  0  0  0
  -16.5356  -29.9112   23.6336 C   0  0  0  0  0  0
  -16.7265  -28.6533   23.0348 C   0  0  0  0  0  0
  -26.4482  -31.6600   25.0691 C   0  0  0  0  0  0
  -25.3683  -31.3777   26.1406 C   0  0  0  0  0  0
  -27.0339  -30.3021   24.6183 C   0  0  0  0  0  0
  -27.6034  -32.4347   25.7453 C   0  0  0  0  0  0
  -27.5579  -37.1778   24.8448 C   0  0  0  0  0  0
  -21.4207  -29.3065   22.3683 N   0  0  0  0  0  0
  -26.4267  -37.3788   23.9425 N   0  0  0  0  0  0
  -24.6979  -31.0494   22.0916 N   0  0  0  0  0  0
  -23.4205  -28.8159   23.3025 O   0  0  0  0  0  0
  -28.3360  -26.3906   20.1111 O   0  0  0  0  0  0
  -26.5646  -34.8943   22.4664 O   0  0  0  0  0  0
  -23.5453  -32.1358   23.7224 O   0  0  0  0  0  0
  -27.4434  -18.8426   20.0613 C   0  0  0  0  0  0
  -26.8405  -20.8994   20.0703 C   0  0  0  0  0  0
  -28.2190  -20.9151   20.2257 C   0  0  0  0  0  0
  -25.8579  -22.0322   20.0166 C   0  0  0  0  0  0
  -29.8644  -24.1052   18.8555 C   0  0  0  0  0  0
  -29.0546  -22.2362   20.4290 C   0  0  0  0  0  0
  -29.8884  -18.6900   20.2623 C   0  0  0  0  0  0
  -30.0303  -17.3085   21.1309 C   0  0  0  0  0  0
  -28.2097  -24.9689   20.5963 C   0  0  0  0  0  0
  -28.6699  -23.6729   19.7203 C   0  0  1  0  0  0
  -26.3650  -19.6007   19.9601 N   0  0  0  0  0  0
  -28.6006  -19.4938   20.2325 N   0  0  0  0  0  0
  -29.7435  -15.8801   20.6445 N   0  0  0  0  0  0
  -31.4754  -12.6383   19.1503 H   0  0  0  0  0  0
  -30.4153  -11.5037   19.9449 H   0  0  0  0  0  0
  -29.7968  -11.7338   17.5147 H   0  0  0  0  0  0
  -29.6210  -13.4598   17.7044 H   0  0  0  0  0  0
  -27.8994  -11.2743   18.9114 H   0  0  0  0  0  0
  -27.3747  -12.5044   17.7950 H   0  0  0  0  0  0
  -27.6266  -14.2445   19.4558 H   0  0  0  0  0  0
  -28.7298  -12.1533   21.3959 H   0  0  0  0  0  0
  -28.4101  -13.8224   21.7938 H   0  0  0  0  0  0
  -25.2773   -9.5666   22.4752 H   0  0  0  0  0  0
  -24.0003   -7.4615   22.7475 H   0  0  0  0  0  0
  -21.0844   -8.8762   19.8944 H   0  0  0  0  0  0
  -22.3712  -10.9658   19.6158 H   0  0  0  0  0  0
  -21.1997   -7.6150   23.9717 H   0  0  0  0  0  0
  -21.1478   -6.0523   25.9078 H   0  0  0  0  0  0
  -22.0600   -2.7607   23.2843 H   0  0  0  0  0  0
  -22.4097  -11.9837   22.4799 H   0  0  0  0  0  0
  -21.1092  -13.1196   22.2658 H   0  0  0  0  0  0
  -24.6396  -15.8348   20.4934 H   0  0  0  0  0  0
  -26.2385  -15.6162   19.9989 H   0  0  0  0  0  0
  -26.7197  -32.5425   23.1030 H   0  0  0  0  0  0
  -25.0067  -33.9689   25.0364 H   0  0  0  0  0  0
  -22.7271  -31.2946   21.3873 H   0  0  0  0  0  0
  -23.3781  -35.9585   23.3257 H   0  0  0  0  0  0
  -24.3598  -36.8950   22.2068 H   0  0  0  0  0  0
  -23.7200  -37.6448   23.6700 H   0  0  0  0  0  0
  -26.1048  -31.5270   20.5961 H   0  0  0  0  0  0
  -26.8528  -30.8231   21.9985 H   0  0  0  0  0  0
  -28.1346  -28.9440   21.1649 H   0  0  0  0  0  0
  -25.9888  -25.8710   19.0399 H   0  0  0  0  0  0
  -23.9733  -27.2771   19.0264 H   0  0  0  0  0  0
  -23.7708  -30.5716   19.3971 H   0  0  0  0  0  0
  -22.7642  -29.2311   19.8556 H   0  0  0  0  0  0
  -25.1297  -36.1885   25.0812 H   0  0  0  0  0  0
  -20.9940  -28.3289   24.1405 H   0  0  0  0  0  0
  -20.5720  -26.2336   23.3628 H   0  0  0  0  0  0
  -21.6649  -26.7494   22.1191 H   0  0  0  0  0  0
  -19.6947  -25.6306   21.1260 H   0  0  0  0  0  0
  -19.6689  -27.3203   20.6766 H   0  0  0  0  0  0
  -17.4212  -26.6696   21.4005 H   0  0  0  0  0  0
  -18.0296  -26.0090   22.9009 H   0  0  0  0  0  0
  -19.7962  -30.7284   24.2241 H   0  0  0  0  0  0
  -17.5047  -31.6281   24.5195 H   0  0  0  0  0  0
  -15.5369  -30.3038   23.7682 H   0  0  0  0  0  0
  -15.8655  -28.0874   22.7064 H   0  0  0  0  0  0
  -24.5830  -30.7165   25.7730 H   0  0  0  0  0  0
  -24.8908  -32.2974   26.4810 H   0  0  0  0  0  0
  -25.7964  -30.8951   27.0202 H   0  0  0  0  0  0
  -26.2932  -29.6760   24.1207 H   0  0  0  0  0  0
  -27.4042  -29.7292   25.4693 H   0  0  0  0  0  0
  -27.8790  -30.4321   23.9418 H   0  0  0  0  0  0
  -27.2640  -33.3677   26.1974 H   0  0  0  0  0  0
  -28.3863  -32.6864   25.0282 H   0  0  0  0  0  0
  -28.0684  -31.8505   26.5407 H   0  0  0  0  0  0
  -28.2544  -38.0132   24.7598 H   0  0  0  0  0  0
  -28.1128  -36.2676   24.6135 H   0  0  0  0  0  0
  -27.2325  -37.1241   25.8853 H   0  0  0  0  0  0
  -20.9410  -29.8789   21.6877 H   0  0  0  0  0  0
  -26.0139  -38.2844   24.1510 H   0  0  0  0  0  0
  -27.3884  -17.7668   19.9871 H   0  0  0  0  0  0
  -26.1089  -22.8143   20.7302 H   0  0  0  0  0  0
  -24.8471  -21.7019   20.2555 H   0  0  0  0  0  0
  -25.8180  -22.4788   19.0225 H   0  0  0  0  0  0
  -30.2240  -23.2887   18.2284 H   0  0  0  0  0  0
  -30.6958  -24.4433   19.4754 H   0  0  0  0  0  0
  -29.5903  -24.9238   18.1881 H   0  0  0  0  0  0
  -30.0830  -21.9907   20.1630 H   0  0  0  0  0  0
  -29.1140  -22.4191   21.5016 H   0  0  0  0  0  0
  -30.1721  -18.4870   19.2302 H   0  0  0  0  0  0
  -30.6490  -19.3796   20.6332 H   0  0  0  0  0  0
  -29.4587  -17.4401   22.0503 H   0  0  0  0  0  0
  -31.0652  -17.2827   21.4741 H   0  0  0  0  0  0
  -28.8078  -24.9507   21.5082 H   0  0  0  0  0  0
  -27.1900  -24.8093   20.9462 H   0  0  0  0  0  0
  -27.8771  -23.4819   19.0008 H   0  0  0  0  0  0
  -28.7689  -15.6254   20.6893 H   0  0  0  0  0  0
  1 25  1  0  0  0
  1 30  2  0  0  0
  1 83  1  0  0  0
  2  3  1  0  0  0
  2 25  1  0  0  0
  2 84  1  0  0  0
  2 85  1  0  0  0
  3  4  1  0  0  0
  3 86  1  0  0  0
  3 87  1  0  0  0
  4  5  1  0  0  0
  4 88  1  0  0  0
  4 89  1  0  0  0
  5  6  1  0  0  0
  5 26  1  0  0  0
  5 90  1  0  0  0
  6 25  1  0  0  0
  6 91  1  0  0  0
  6 92  1  0  0  0
  7  8  2  0  0  0
  7 26  1  0  0  0
  7 29  1  0  0  0
  8  9  1  0  0  0
  8 22  1  0  0  0
  9 10  1  0  0  0
  9 27  2  0  0  0
 10 11  2  0  0  0
 10 15  1  0  0  0
 11 12  1  0  0  0
 11 93  1  0  0  0
 12 13  2  0  0  0
 12 94  1  0  0  0
 13 14  1  0  0  0
 13 31  1  0  0  0
 14 15  2  0  0  0
 14 95  1  0  0  0
 15 96  1  0  0  0
 16 17  2  0  0  0
 16 21  1  0  0  0
 16 31  1  0  0  0
 17 18  1  0  0  0
 17 97  1  0  0  0
 18 19  2  0  0  0
 18 98  1  0  0  0
 19 20  1  0  0  0
 19 24  1  0  0  0
 20 21  2  0  0  0
 20 99  1  0  0  0
 21 23  1  0  0  0
 22 28  1  0  0  0
 22 32  2  0  0  0
 26 27  1  0  0  0
 28100  1  0  0  0
 28101  1  0  0  0
 29102  1  0  0  0
 29103  1  0  0  0
 33 34  1  0  0  0
 33 66  1  0  0  0
 33 70  2  0  0  0
 34 36  1  0  0  0
 34 59  1  0  0  0
 34104  1  0  0  0
 35 44  2  0  0  0
 35 45  1  0  0  0
 35 68  1  0  0  0
 36 56  1  0  0  0
 36105  1  0  0  0
 37 39  1  0  0  0
 37 47  1  0  0  0
 37 66  1  0  0  0
 37106  1  0  0  0
 38 43  2  0  0  0
 38 46  1  0  0  0
 38 47  1  0  0  0
 39 64  1  0  0  0
 39 67  2  0  0  0
 40 52  1  0  0  0
 40 53  2  0  0  0
 40 58  1  0  0  0
 41107  1  0  0  0
 41108  1  0  0  0
 41109  1  0  0  0
 41 48  1  0  0  0
 42 43  1  0  0  0
 42 66  1  0  0  0
 42110  1  0  0  0
 42111  1  0  0  0
 43 44  1  0  0  0
 44112  1  0  0  0
 45 46  2  0  0  0
 45113  1  0  0  0
 46114  1  0  0  0
 47115  1  0  0  0
 47116  1  0  0  0
 48 56  1  0  0  0
 48 65  1  0  0  0
 48117  1  0  0  0
 49 50  1  0  0  0
 49 53  1  0  0  0
 49 64  1  0  0  0
 49118  1  0  0  0
 50 51  1  0  0  0
 50119  1  0  0  0
 50120  1  0  0  0
 51 52  1  0  0  0
 51121  1  0  0  0
 51122  1  0  0  0
 52123  1  0  0  0
 52124  1  0  0  0
 53 54  1  0  0  0
 54 55  2  0  0  0
 54125  1  0  0  0
 55 57  1  0  0  0
 55126  1  0  0  0
 56 69  2  0  0  0
 57 58  2  0  0  0
 57127  1  0  0  0
 58128  1  0  0  0
 59 60  1  0  0  0
 59 61  1  0  0  0
 59 62  1  0  0  0
 60129  1  0  0  0
 60130  1  0  0  0
 60131  1  0  0  0
 61132  1  0  0  0
 61133  1  0  0  0
 61134  1  0  0  0
 62135  1  0  0  0
 62136  1  0  0  0
 62137  1  0  0  0
 63 65  1  0  0  0
 63138  1  0  0  0
 63139  1  0  0  0
 63140  1  0  0  0
 64141  1  0  0  0
 65142  1  0  0  0
 68 79  1  0  0  0
 71 81  2  0  0  0
 71 82  1  0  0  0
 71143  1  0  0  0
 72 73  2  0  0  0
 72 74  1  0  0  0
 72 81  1  0  0  0
 73 76  1  0  0  0
 73 82  1  0  0  0
 74144  1  0  0  0
 74145  1  0  0  0
 74146  1  0  0  0
 75147  1  0  0  0
 75148  1  0  0  0
 75149  1  0  0  0
 75 80  1  0  0  0
 76 80  1  0  0  0
 76150  1  0  0  0
 76151  1  0  0  0
 77 78  1  0  0  0
 77 82  1  0  0  0
 77152  1  0  0  0
 77153  1  0  0  0
 78 83  1  0  0  0
 78154  1  0  0  0
 78155  1  0  0  0
 79 80  1  0  0  0
 79156  1  0  0  0
 79157  1  0  0  0
 80158  1  0  0  0
 83159  1  0  0  0
M  ISO  4   1 100  68 101  79 101  83 100
M  END
> <chiral flag>
0

> <version>
0

> <s_m_source_file>
/data/baiqing/PycharmProjects/Reinvent-master-3.2/result/LINK_invent/BTK/process_docking_weight1_custom_sum_contain_oxygen_bond_distance_aromatic_linkinvent_7_9_3/rearranged_h_0098.sdf

> <i_m_source_file_index>
91

> <r_mmod_Potential_Energy-OPLS-2005>
212.38655090332

> <r_mmod_Stretch_Energy-OPLS-2005>
145.418930053711

> <r_mmod_Bend_Energy-OPLS-2005>
219.486785888672

> <r_mmod_Torsional_Energy-OPLS-2005>
258.148040771484

> <r_mmod_Improper_Torsional_Energy-OPLS-2005>
5.68321943283081

> <r_mmod_Van_der_Waal_Energy-OPLS-2005>
107.13362121582

> <r_mmod_Electrostatic_Energy-OPLS-2005>
-390.122467041016

> <r_mmod_Solvation_Energy-OPLS-2005>
-225.174819946289

> <b_mmod_Minimization_Converged-OPLS-2005>
0

> <r_mmod_RMS_Derivative-OPLS-2005>
2.32489800453186

$$$$
95
                    3D
 Structure written by MMmdl.
178186  0  0  1  0            999 V2000
  -30.6805  -14.5093   20.4400 C   0  0  0  0  0  0
  -30.4258  -12.2583   19.4921 C   0  0  0  0  0  0
  -29.5294  -12.4077   18.2416 C   0  0  0  0  0  0
  -28.0297  -12.3476   18.6162 C   0  0  0  0  0  0
  -27.6549  -13.2073   19.8567 C   0  0  2  0  0  0
  -28.6954  -13.0400   20.9877 C   0  0  0  0  0  0
  -25.2526  -13.8084   20.5718 C   0  0  0  0  0  0
  -24.1810  -13.0362   20.9182 C   0  0  0  0  0  0
  -24.6394  -11.6845   20.8703 C   0  0  0  0  0  0
  -23.9056  -10.4264   21.0399 C   0  0  0  0  0  0
  -24.3597   -9.4184   21.9191 C   0  0  0  0  0  0
  -23.6261   -8.2243   22.0790 C   0  0  0  0  0  0
  -22.4255   -8.0291   21.3567 C   0  0  0  0  0  0
  -21.9904   -9.0245   20.4636 C   0  0  0  0  0  0
  -22.7239  -10.2117   20.3027 C   0  0  0  0  0  0
  -21.6869   -6.0720   22.5289 C   0  0  0  0  0  0
  -21.4026   -6.5623   23.8213 C   0  0  0  0  0  0
  -21.3645   -5.6785   24.9176 C   0  0  0  0  0  0
  -21.6034   -4.3048   24.7233 C   0  0  0  0  0  0
  -21.8819   -3.8131   23.4362 C   0  0  0  0  0  0
  -21.9210   -4.6947   22.3414 C   0  0  0  0  0  0
  -22.7809  -13.5139   21.1854 C   0  0  0  0  0  0
  -22.1676   -4.2122   21.0992 F   0  0  0  0  0  0
  -21.5613   -3.4525   25.7749 F   0  0  0  0  0  0
  -30.0359  -13.3070   20.4436 N   0  0  0  0  0  0
  -26.2979  -12.9306   20.3250 N   0  0  0  0  0  0
  -25.9310  -11.6466   20.5686 N   0  0  0  0  0  0
  -22.0455  -12.8148   22.0419 N   0  0  0  0  0  0
  -25.4139  -15.1810   20.4316 N   0  0  0  0  0  0
  -31.8818  -14.6033   20.1738 O   0  0  0  0  0  0
  -21.6646   -6.8878   21.4271 O   0  0  0  0  0  0
  -22.3481  -14.5457   20.6718 O   0  0  0  0  0  0
  -24.6136  -31.8690   23.2108 C   0  0  0  0  0  0
  -25.9037  -32.4820   23.8408 C   0  0  1  0  0  0
  -27.2495  -27.4508   20.0690 C   0  0  0  0  0  0
  -25.5904  -33.8618   24.2327 N   0  0  0  0  0  0
  -23.4033  -30.4926   21.5492 C   0  0  2  0  0  0
  -24.8544  -28.9619   20.1136 C   0  0  0  0  0  0
  -22.7400  -29.4670   22.4961 C   0  0  0  0  0  0
  -18.0281  -28.1397   22.8489 C   0  0  0  0  0  0
  -24.1490  -36.7311   23.2638 C   0  0  0  0  0  0
  -25.9323  -30.8347   21.3695 C   0  0  0  0  0  0
  -26.0119  -29.4689   20.7150 C   0  0  0  0  0  0
  -27.2081  -28.7144   20.7031 C   0  0  0  0  0  0
  -26.0615  -26.9436   19.4914 C   0  0  0  0  0  0
  -24.8718  -27.6946   19.5057 C   0  0  0  0  0  0
  -23.6140  -29.8250   20.1633 C   0  0  0  0  0  0
  -25.4114  -36.3102   24.0329 C   0  0  1  0  0  0
  -20.5864  -28.3693   23.1301 C   0  0  2  0  0  0
  -20.6778  -26.9431   22.5402 C   0  0  0  0  0  0
  -19.5742  -26.6397   21.5214 C   0  0  0  0  0  0
  -18.1923  -26.7943   22.1626 C   0  0  0  0  0  0
  -19.1526  -28.8864   23.2899 C   0  0  0  0  0  0
  -18.9455  -30.1468   23.8912 C   0  0  0  0  0  0
  -17.6462  -30.6598   24.0571 C   0  0  0  0  0  0
  -25.9048  -34.9468   23.5123 C   0  0  0  0  0  0
  -16.5354  -29.9106   23.6328 C   0  0  0  0  0  0
  -16.7269  -28.6521   23.0352 C   0  0  0  0  0  0
  -26.4474  -31.6594   25.0728 C   0  0  0  0  0  0
  -25.3724  -31.3663   26.1445 C   0  0  0  0  0  0
  -27.0352  -30.3046   24.6124 C   0  0  0  0  0  0
  -27.5996  -32.4339   25.7554 C   0  0  0  0  0  0
  -27.5578  -37.1820   24.8455 C   0  0  0  0  0  0
  -21.4122  -29.3053   22.3698 N   0  0  0  0  0  0
  -26.4289  -37.3791   23.9406 N   0  0  0  0  0  0
  -24.6675  -31.0785   22.1020 N   0  0  0  0  0  0
  -23.4163  -28.8221   23.3022 O   0  0  0  0  0  0
  -28.4209  -26.7176   20.0684 O   0  0  0  0  0  0
  -26.5604  -34.8915   22.4681 O   0  0  0  0  0  0
  -23.5318  -32.1450   23.7481 O   0  0  0  0  0  0
  -31.1256  -19.2391   22.8321 C   0  0  0  0  0  0
  -30.6628  -18.0635   23.4504 C   0  0  0  0  0  0
  -30.9941  -18.1272   20.6798 C   0  0  0  0  0  0
  -31.2567  -19.2892   21.4326 C   0  0  0  0  0  0
  -30.2674  -16.9465   22.6852 C   0  0  0  0  0  0
  -30.4199  -16.9676   21.2694 C   0  0  0  0  0  0
  -29.6585  -15.7578   23.4170 C   0  0  0  0  0  0
  -29.1736  -17.8154   17.0070 C   0  0  0  0  0  0
  -27.3353  -17.1608   18.6268 C   0  0  0  0  0  0
  -28.5465  -23.0430   18.4443 C   0  0  0  0  0  0
  -31.6041  -20.6058   20.7365 C   0  0  0  0  0  0
  -30.3469  -21.4255   20.3461 C   0  0  0  0  0  0
  -29.7020  -16.1985   18.8705 C   0  0  0  0  0  0
  -30.6744  -22.7899   19.6773 C   0  0  0  0  0  0
  -29.9344  -25.0557   18.9865 C   0  0  0  0  0  0
  -28.8236  -26.1339   18.8218 C   0  0  0  0  0  0
  -29.8476  -15.8267   20.3867 C   0  0  1  0  0  0
  -28.8352  -17.4138   18.4533 C   0  0  0  0  0  0
  -29.4958  -23.6784   19.3987 N   0  3  1  0  0  0
  -31.4841  -12.2967   19.2279 H   0  0  0  0  0  0
  -30.2736  -11.2786   19.9495 H   0  0  0  0  0  0
  -29.7585  -11.6098   17.5329 H   0  0  0  0  0  0
  -29.7672  -13.3360   17.7254 H   0  0  0  0  0  0
  -27.7824  -11.3021   18.8067 H   0  0  0  0  0  0
  -27.4231  -12.6439   17.7602 H   0  0  0  0  0  0
  -27.6623  -14.2411   19.5254 H   0  0  0  0  0  0
  -28.6574  -12.0204   21.3713 H   0  0  0  0  0  0
  -28.4681  -13.6798   21.8393 H   0  0  0  0  0  0
  -25.2745   -9.5663   22.4746 H   0  0  0  0  0  0
  -23.9942   -7.4649   22.7526 H   0  0  0  0  0  0
  -21.0853   -8.8771   19.8926 H   0  0  0  0  0  0
  -22.3723  -10.9653   19.6118 H   0  0  0  0  0  0
  -21.2035   -7.6132   23.9684 H   0  0  0  0  0  0
  -21.1458   -6.0535   25.9065 H   0  0  0  0  0  0
  -22.0616   -2.7589   23.2883 H   0  0  0  0  0  0
  -22.4087  -11.9820   22.4816 H   0  0  0  0  0  0
  -21.1066  -13.1204   22.2633 H   0  0  0  0  0  0
  -24.6433  -15.8249   20.5699 H   0  0  0  0  0  0
  -26.2538  -15.6372   20.1036 H   0  0  0  0  0  0
  -26.7118  -32.5548   23.1186 H   0  0  0  0  0  0
  -25.0058  -33.9799   25.0476 H   0  0  0  0  0  0
  -22.6913  -31.3086   21.4071 H   0  0  0  0  0  0
  -23.3752  -35.9640   23.3267 H   0  0  0  0  0  0
  -24.3582  -36.8969   22.2059 H   0  0  0  0  0  0
  -23.7236  -37.6499   23.6689 H   0  0  0  0  0  0
  -26.0477  -31.6067   20.6071 H   0  0  0  0  0  0
  -26.8181  -30.8828   21.9903 H   0  0  0  0  0  0
  -28.1020  -29.1043   21.1725 H   0  0  0  0  0  0
  -26.0335  -25.9634   19.0402 H   0  0  0  0  0  0
  -23.9769  -27.2900   19.0526 H   0  0  0  0  0  0
  -23.7215  -30.6010   19.4045 H   0  0  0  0  0  0
  -22.7404  -29.2433   19.8655 H   0  0  0  0  0  0
  -25.1288  -36.1960   25.0821 H   0  0  0  0  0  0
  -20.9970  -28.3283   24.1414 H   0  0  0  0  0  0
  -20.5731  -26.2302   23.3588 H   0  0  0  0  0  0
  -21.6646  -26.7499   22.1168 H   0  0  0  0  0  0
  -19.6909  -25.6307   21.1251 H   0  0  0  0  0  0
  -19.6676  -27.3198   20.6736 H   0  0  0  0  0  0
  -17.4190  -26.6693   21.4030 H   0  0  0  0  0  0
  -18.0323  -26.0088   22.9025 H   0  0  0  0  0  0
  -19.7942  -30.7287   24.2274 H   0  0  0  0  0  0
  -17.5025  -31.6280   24.5189 H   0  0  0  0  0  0
  -15.5360  -30.3031   23.7641 H   0  0  0  0  0  0
  -15.8666  -28.0865   22.7045 H   0  0  0  0  0  0
  -24.5875  -30.7062   25.7730 H   0  0  0  0  0  0
  -24.8948  -32.2813   26.4961 H   0  0  0  0  0  0
  -25.8055  -30.8743   27.0164 H   0  0  0  0  0  0
  -26.2942  -29.6792   24.1123 H   0  0  0  0  0  0
  -27.4073  -29.7283   25.4609 H   0  0  0  0  0  0
  -27.8785  -30.4377   23.9337 H   0  0  0  0  0  0
  -27.2556  -33.3618   26.2139 H   0  0  0  0  0  0
  -28.3839  -32.6936   25.0434 H   0  0  0  0  0  0
  -28.0628  -31.8463   26.5490 H   0  0  0  0  0  0
  -28.2537  -38.0175   24.7557 H   0  0  0  0  0  0
  -28.1132  -36.2694   24.6225 H   0  0  0  0  0  0
  -27.2280  -37.1394   25.8851 H   0  0  0  0  0  0
  -20.9285  -29.8779   21.6918 H   0  0  0  0  0  0
  -26.0156  -38.2856   24.1426 H   0  0  0  0  0  0
  -31.3593  -20.1037   23.4387 H   0  0  0  0  0  0
  -30.5641  -18.0437   24.5279 H   0  0  0  0  0  0
  -31.1575  -18.1863   19.6142 H   0  0  0  0  0  0
  -29.6715  -15.9032   24.4984 H   0  0  0  0  0  0
  -30.2172  -14.8451   23.2134 H   0  0  0  0  0  0
  -28.6198  -15.6078   23.1242 H   0  0  0  0  0  0
  -28.5920  -18.6786   16.6857 H   0  0  0  0  0  0
  -28.9801  -17.0029   16.3052 H   0  0  0  0  0  0
  -30.2271  -18.0863   16.9109 H   0  0  0  0  0  0
  -26.7491  -18.0078   18.2658 H   0  0  0  0  0  0
  -27.1076  -17.0511   19.6866 H   0  0  0  0  0  0
  -27.0027  -16.2681   18.0939 H   0  0  0  0  0  0
  -28.1592  -22.1055   18.8398 H   0  0  0  0  0  0
  -29.0229  -22.8253   17.4862 H   0  0  0  0  0  0
  -27.6634  -23.6504   18.2585 H   0  0  0  0  0  0
  -32.2015  -20.4001   19.8480 H   0  0  0  0  0  0
  -32.2393  -21.1932   21.3995 H   0  0  0  0  0  0
  -29.7412  -21.5855   21.2381 H   0  0  0  0  0  0
  -29.7512  -20.8126   19.6711 H   0  0  0  0  0  0
  -29.3101  -15.3407   18.3286 H   0  0  0  0  0  0
  -30.7042  -16.3339   18.4607 H   0  0  0  0  0  0
  -31.2062  -22.6077   18.7420 H   0  0  0  0  0  0
  -31.3741  -23.3235   20.3212 H   0  0  0  0  0  0
  -30.6645  -25.4400   19.7008 H   0  0  0  0  0  0
  -30.4625  -24.9760   18.0335 H   0  0  0  0  0  0
  -28.0010  -25.7628   18.2185 H   0  0  0  0  0  0
  -29.2431  -26.9544   18.2372 H   0  0  0  0  0  0
  -28.8468  -15.6557   20.7735 H   0  0  0  0  0  0
  -29.0568  -18.2791   19.0709 H   0  0  0  0  0  0
  -28.9947  -23.7941   20.2689 H   0  0  0  0  0  0
  1 25  1  0  0  0
  1 30  2  0  0  0
  1 87  1  0  0  0
  2  3  1  0  0  0
  2 25  1  0  0  0
  2 90  1  0  0  0
  2 91  1  0  0  0
  3  4  1  0  0  0
  3 92  1  0  0  0
  3 93  1  0  0  0
  4  5  1  0  0  0
  4 94  1  0  0  0
  4 95  1  0  0  0
  5  6  1  0  0  0
  5 26  1  0  0  0
  5 96  1  0  0  0
  6 25  1  0  0  0
  6 97  1  0  0  0
  6 98  1  0  0  0
  7  8  2  0  0  0
  7 26  1  0  0  0
  7 29  1  0  0  0
  8  9  1  0  0  0
  8 22  1  0  0  0
  9 10  1  0  0  0
  9 27  2  0  0  0
 10 11  2  0  0  0
 10 15  1  0  0  0
 11 12  1  0  0  0
 11 99  1  0  0  0
 12 13  2  0  0  0
 12100  1  0  0  0
 13 14  1  0  0  0
 13 31  1  0  0  0
 14 15  2  0  0  0
 14101  1  0  0  0
 15102  1  0  0  0
 16 17  2  0  0  0
 16 21  1  0  0  0
 16 31  1  0  0  0
 17 18  1  0  0  0
 17103  1  0  0  0
 18 19  2  0  0  0
 18104  1  0  0  0
 19 20  1  0  0  0
 19 24  1  0  0  0
 20 21  2  0  0  0
 20105  1  0  0  0
 21 23  1  0  0  0
 22 28  1  0  0  0
 22 32  2  0  0  0
 26 27  1  0  0  0
 28106  1  0  0  0
 28107  1  0  0  0
 29108  1  0  0  0
 29109  1  0  0  0
 33 34  1  0  0  0
 33 66  1  0  0  0
 33 70  2  0  0  0
 34 36  1  0  0  0
 34 59  1  0  0  0
 34110  1  0  0  0
 35 44  2  0  0  0
 35 45  1  0  0  0
 35 68  1  0  0  0
 36 56  1  0  0  0
 36111  1  0  0  0
 37 39  1  0  0  0
 37 47  1  0  0  0
 37 66  1  0  0  0
 37112  1  0  0  0
 38 43  2  0  0  0
 38 46  1  0  0  0
 38 47  1  0  0  0
 39 64  1  0  0  0
 39 67  2  0  0  0
 40 52  1  0  0  0
 40 53  2  0  0  0
 40 58  1  0  0  0
 41113  1  0  0  0
 41114  1  0  0  0
 41115  1  0  0  0
 41 48  1  0  0  0
 42 43  1  0  0  0
 42 66  1  0  0  0
 42116  1  0  0  0
 42117  1  0  0  0
 43 44  1  0  0  0
 44118  1  0  0  0
 45 46  2  0  0  0
 45119  1  0  0  0
 46120  1  0  0  0
 47121  1  0  0  0
 47122  1  0  0  0
 48 56  1  0  0  0
 48 65  1  0  0  0
 48123  1  0  0  0
 49 50  1  0  0  0
 49 53  1  0  0  0
 49 64  1  0  0  0
 49124  1  0  0  0
 50 51  1  0  0  0
 50125  1  0  0  0
 50126  1  0  0  0
 51 52  1  0  0  0
 51127  1  0  0  0
 51128  1  0  0  0
 52129  1  0  0  0
 52130  1  0  0  0
 53 54  1  0  0  0
 54 55  2  0  0  0
 54131  1  0  0  0
 55 57  1  0  0  0
 55132  1  0  0  0
 56 69  2  0  0  0
 57 58  2  0  0  0
 57133  1  0  0  0
 58134  1  0  0  0
 59 60  1  0  0  0
 59 61  1  0  0  0
 59 62  1  0  0  0
 60135  1  0  0  0
 60136  1  0  0  0
 60137  1  0  0  0
 61138  1  0  0  0
 61139  1  0  0  0
 61140  1  0  0  0
 62141  1  0  0  0
 62142  1  0  0  0
 62143  1  0  0  0
 63 65  1  0  0  0
 63144  1  0  0  0
 63145  1  0  0  0
 63146  1  0  0  0
 64147  1  0  0  0
 65148  1  0  0  0
 68 86  1  0  0  0
 71 72  2  0  0  0
 71 74  1  0  0  0
 71149  1  0  0  0
 72 75  1  0  0  0
 72150  1  0  0  0
 73 74  2  0  0  0
 73 76  1  0  0  0
 73151  1  0  0  0
 74 81  1  0  0  0
 75 76  2  0  0  0
 75 77  1  0  0  0
 76 87  1  0  0  0
 77152  1  0  0  0
 77153  1  0  0  0
 77154  1  0  0  0
 78155  1  0  0  0
 78156  1  0  0  0
 78157  1  0  0  0
 78 88  1  0  0  0
 79 88  1  0  0  0
 79158  1  0  0  0
 79159  1  0  0  0
 79160  1  0  0  0
 80161  1  0  0  0
 80162  1  0  0  0
 80163  1  0  0  0
 80 89  1  0  0  0
 81 82  1  0  0  0
 81164  1  0  0  0
 81165  1  0  0  0
 82 84  1  0  0  0
 82166  1  0  0  0
 82167  1  0  0  0
 83 88  1  0  0  0
 83168  1  0  0  0
 83169  1  0  0  0
 83 87  1  0  0  0
 84 89  1  0  0  0
 84170  1  0  0  0
 84171  1  0  0  0
 85 86  1  0  0  0
 85 89  1  0  0  0
 85172  1  0  0  0
 85173  1  0  0  0
 86174  1  0  0  0
 86175  1  0  0  0
 87176  1  0  0  0
 88177  1  0  0  0
 89178  1  0  0  0
M  CHG  1  89   1
M  ISO  4   1 100  68 101  86 101  87 100
M  END
> <chiral flag>
0

> <version>
0

> <s_m_source_file>
/data/baiqing/PycharmProjects/Reinvent-master-3.2/result/LINK_invent/BTK/process_docking_weight1_custom_sum_contain_oxygen_bond_distance_aromatic_linkinvent_7_9_3/rearranged_h_0098.sdf

> <i_m_source_file_index>
92

> <r_mmod_Potential_Energy-OPLS-2005>
13.9931449890137

> <r_mmod_Stretch_Energy-OPLS-2005>
46.5609436035156

> <r_mmod_Bend_Energy-OPLS-2005>
114.154724121094

> <r_mmod_Torsional_Energy-OPLS-2005>
232.818344116211

> <r_mmod_Improper_Torsional_Energy-OPLS-2005>
9.65095901489258

> <r_mmod_Van_der_Waal_Energy-OPLS-2005>
150.133651733398

> <r_mmod_Electrostatic_Energy-OPLS-2005>
-160.368133544922

> <r_mmod_Solvation_Energy-OPLS-2005>
-402.580291748047

> <b_mmod_Minimization_Converged-OPLS-2005>
0

> <r_mmod_RMS_Derivative-OPLS-2005>
3.77283430099487

$$$$
