0
                    3D
 Structure written by MMmdl.
156164  0  0  1  0            999 V2000
  -30.5186  -15.0744   20.3212 C   0  0  0  0  0  0
  -30.4460  -12.6579   19.4886 C   0  0  0  0  0  0
  -29.5220  -12.4722   18.2613 C   0  0  0  0  0  0
  -28.0603  -12.2502   18.6982 C   0  0  0  0  0  0
  -27.6141  -13.2158   19.8236 C   0  0  2  0  0  0
  -28.6701  -13.3684   20.9399 C   0  0  0  0  0  0
  -25.2478  -13.8123   20.5811 C   0  0  0  0  0  0
  -24.1756  -13.0388   20.9289 C   0  0  0  0  0  0
  -24.6342  -11.6868   20.8821 C   0  0  0  0  0  0
  -23.9028  -10.4263   21.0447 C   0  0  0  0  0  0
  -24.3597   -9.4178   21.9204 C   0  0  0  0  0  0
  -23.6281   -8.2213   22.0763 C   0  0  0  0  0  0
  -22.4266   -8.0260   21.3547 C   0  0  0  0  0  0
  -21.9894   -9.0236   20.4655 C   0  0  0  0  0  0
  -22.7220  -10.2115   20.3076 C   0  0  0  0  0  0
  -21.6834   -6.0729   22.5280 C   0  0  0  0  0  0
  -21.3995   -6.5635   23.8214 C   0  0  0  0  0  0
  -21.3661   -5.6793   24.9177 C   0  0  0  0  0  0
  -21.6045   -4.3057   24.7229 C   0  0  0  0  0  0
  -21.8820   -3.8146   23.4351 C   0  0  0  0  0  0
  -21.9192   -4.6959   22.3405 C   0  0  0  0  0  0
  -22.7786  -13.5202   21.1924 C   0  0  0  0  0  0
  -22.1660   -4.2147   21.0983 F   0  0  0  0  0  0
  -21.5640   -3.4545   25.7744 F   0  0  0  0  0  0
  -29.9203  -13.8005   20.2953 N   0  0  0  0  0  0
  -26.2837  -12.9263   20.3328 N   0  0  0  0  0  0
  -25.9260  -11.6438   20.5839 N   0  0  0  0  0  0
  -22.0418  -12.8187   22.0461 N   0  0  0  0  0  0
  -25.4210  -15.1848   20.4270 N   0  0  0  0  0  0
  -31.7542  -15.0822   20.2686 O   0  0  0  0  0  0
  -21.6623   -6.8867   21.4241 O   0  0  0  0  0  0
  -22.3497  -14.5519   20.6776 O   0  0  0  0  0  0
  -24.6477  -31.8401   23.1849 C   0  0  0  0  0  0
  -25.9230  -32.4681   23.8246 C   0  0  1  0  0  0
  -27.2207  -27.0939   20.1562 C   0  0  0  0  0  0
  -25.5958  -33.8487   24.2160 N   0  0  0  0  0  0
  -23.4547  -30.4588   21.5313 C   0  0  2  0  0  0
  -24.9058  -28.8797   20.1122 C   0  0  0  0  0  0
  -22.7593  -29.4526   22.4841 C   0  0  0  0  0  0
  -18.0303  -28.1401   22.8474 C   0  0  0  0  0  0
  -24.1486  -36.7240   23.2644 C   0  0  0  0  0  0
  -26.0148  -30.7007   21.3917 C   0  0  0  0  0  0
  -26.0862  -29.3083   20.7325 C   0  0  0  0  0  0
  -27.2435  -28.4339   20.7346 C   0  0  0  0  0  0
  -26.0109  -26.7803   19.4950 C   0  0  0  0  0  0
  -24.8836  -27.6306   19.4768 C   0  0  0  0  0  0
  -23.6854  -29.7881   20.1516 C   0  0  0  0  0  0
  -25.4125  -36.3020   24.0306 C   0  0  1  0  0  0
  -20.5924  -28.3731   23.1228 C   0  0  2  0  0  0
  -20.6793  -26.9428   22.5411 C   0  0  0  0  0  0
  -19.5768  -26.6380   21.5221 C   0  0  0  0  0  0
  -18.1942  -26.7937   22.1619 C   0  0  0  0  0  0
  -19.1562  -28.8882   23.2841 C   0  0  0  0  0  0
  -18.9478  -30.1478   23.8872 C   0  0  0  0  0  0
  -17.6477  -30.6601   24.0558 C   0  0  0  0  0  0
  -25.9081  -34.9400   23.5045 C   0  0  0  0  0  0
  -16.5366  -29.9096   23.6337 C   0  0  0  0  0  0
  -16.7287  -28.6512   23.0359 C   0  0  0  0  0  0
  -26.4530  -31.6571   25.0712 C   0  0  0  0  0  0
  -25.3691  -31.3786   26.1392 C   0  0  0  0  0  0
  -27.0409  -30.2956   24.6347 C   0  0  0  0  0  0
  -27.6046  -32.4355   25.7501 C   0  0  0  0  0  0
  -27.5571  -37.1781   24.8466 C   0  0  0  0  0  0
  -21.4278  -29.3052   22.3593 N   0  0  0  0  0  0
  -26.4281  -37.3741   23.9410 N   0  0  0  0  0  0
  -24.7258  -31.0223   22.0901 N   0  0  0  0  0  0
  -23.4209  -28.8063   23.3005 O   0  0  0  0  0  0
  -28.2591  -26.0770   20.2265 O   0  0  0  0  0  0
  -26.5681  -34.8910   22.4635 O   0  0  0  0  0  0
  -23.5586  -32.1294   23.7044 O   0  0  0  0  0  0
  -31.0377  -22.4343   20.4966 C   0  0  0  0  0  0
  -28.9430  -23.2180   20.2875 C   0  0  0  0  0  0
  -29.4607  -20.8353   20.3702 C   0  0  0  0  0  0
  -27.7560  -18.9952   19.8428 C   0  0  0  0  0  0
  -28.7872  -19.0687   22.1000 C   0  0  0  0  0  0
  -28.9097  -16.2358   18.9270 C   0  0  0  0  0  0
  -27.9265  -24.5361   20.1126 C   0  0  0  0  0  0
  -30.1383  -17.8766   20.2603 C   0  0  0  0  0  0
  -29.0817  -19.2113   20.5971 C   0  0  0  0  0  0
  -30.2364  -23.4984   20.3887 N   0  0  0  0  0  0
  -30.7439  -21.1299   20.5077 N   0  0  0  0  0  0
  -28.5210  -21.8774   20.2968 N   0  0  0  0  0  0
  -29.7620  -16.3060   20.1276 N   0  0  0  0  0  0
  -31.4671  -12.8424   19.1509 H   0  0  0  0  0  0
  -30.4877  -11.7467   20.0879 H   0  0  0  0  0  0
  -29.8580  -11.6222   17.6653 H   0  0  0  0  0  0
  -29.5906  -13.3375   17.6029 H   0  0  0  0  0  0
  -27.9815  -11.2217   19.0519 H   0  0  0  0  0  0
  -27.3898  -12.3274   17.8406 H   0  0  0  0  0  0
  -27.5097  -14.1615   19.3168 H   0  0  0  0  0  0
  -28.8047  -12.4363   21.4905 H   0  0  0  0  0  0
  -28.3504  -14.1199   21.6638 H   0  0  0  0  0  0
  -25.2741   -9.5657   22.4777 H   0  0  0  0  0  0
  -23.9991   -7.4600   22.7473 H   0  0  0  0  0  0
  -21.0829   -8.8763   19.8951 H   0  0  0  0  0  0
  -22.3690  -10.9664   19.6193 H   0  0  0  0  0  0
  -21.1967   -7.6141   23.9709 H   0  0  0  0  0  0
  -21.1483   -6.0527   25.9078 H   0  0  0  0  0  0
  -22.0598   -2.7610   23.2854 H   0  0  0  0  0  0
  -22.4009  -11.9830   22.4828 H   0  0  0  0  0  0
  -21.1039  -13.1222   22.2664 H   0  0  0  0  0  0
  -24.6633  -15.8457   20.5600 H   0  0  0  0  0  0
  -26.2892  -15.6250   20.1550 H   0  0  0  0  0  0
  -26.7296  -32.5280   23.0972 H   0  0  0  0  0  0
  -25.0070  -33.9596   25.0281 H   0  0  0  0  0  0
  -22.7603  -31.2864   21.3740 H   0  0  0  0  0  0
  -23.3761  -35.9558   23.3291 H   0  0  0  0  0  0
  -24.3559  -36.8899   22.2061 H   0  0  0  0  0  0
  -23.7231  -37.6422   23.6701 H   0  0  0  0  0  0
  -26.1810  -31.4538   20.6203 H   0  0  0  0  0  0
  -26.8806  -30.7491   22.0401 H   0  0  0  0  0  0
  -28.1414  -28.7589   21.2413 H   0  0  0  0  0  0
  -25.8943  -25.8301   18.9985 H   0  0  0  0  0  0
  -23.9838  -27.3001   18.9760 H   0  0  0  0  0  0
  -23.8287  -30.5627   19.3970 H   0  0  0  0  0  0
  -22.7995  -29.2345   19.8364 H   0  0  0  0  0  0
  -25.1321  -36.1832   25.0797 H   0  0  0  0  0  0
  -21.0007  -28.3323   24.1355 H   0  0  0  0  0  0
  -20.5684  -26.2342   23.3632 H   0  0  0  0  0  0
  -21.6657  -26.7434   22.1212 H   0  0  0  0  0  0
  -19.6931  -25.6282   21.1274 H   0  0  0  0  0  0
  -19.6709  -27.3166   20.6732 H   0  0  0  0  0  0
  -17.4215  -26.6674   21.4018 H   0  0  0  0  0  0
  -18.0336  -26.0087   22.9021 H   0  0  0  0  0  0
  -19.7955  -30.7300   24.2225 H   0  0  0  0  0  0
  -17.5034  -31.6280   24.5163 H   0  0  0  0  0  0
  -15.5367  -30.2996   23.7694 H   0  0  0  0  0  0
  -15.8677  -28.0838   22.7092 H   0  0  0  0  0  0
  -24.5863  -30.7151   25.7702 H   0  0  0  0  0  0
  -24.8884  -32.2977   26.4749 H   0  0  0  0  0  0
  -25.7936  -30.8987   27.0219 H   0  0  0  0  0  0
  -26.3046  -29.6666   24.1332 H   0  0  0  0  0  0
  -27.3973  -29.7283   25.4956 H   0  0  0  0  0  0
  -27.8972  -30.4177   23.9713 H   0  0  0  0  0  0
  -27.2627  -33.3687   26.1993 H   0  0  0  0  0  0
  -28.3892  -32.6874   25.0353 H   0  0  0  0  0  0
  -28.0672  -31.8539   26.5489 H   0  0  0  0  0  0
  -28.2588  -38.0080   24.7524 H   0  0  0  0  0  0
  -28.1069  -36.2612   24.6282 H   0  0  0  0  0  0
  -27.2293  -37.1426   25.8872 H   0  0  0  0  0  0
  -20.9493  -29.8750   21.6757 H   0  0  0  0  0  0
  -26.0139  -38.2801   24.1428 H   0  0  0  0  0  0
  -32.0873  -22.6640   20.6009 H   0  0  0  0  0  0
  -27.0216  -19.7593   20.0969 H   0  0  0  0  0  0
  -27.2874  -18.0527   20.1115 H   0  0  0  0  0  0
  -27.8985  -19.0358   18.7632 H   0  0  0  0  0  0
  -28.0191  -19.7709   22.4256 H   0  0  0  0  0  0
  -29.6836  -19.2752   22.6855 H   0  0  0  0  0  0
  -28.4495  -18.0632   22.3510 H   0  0  0  0  0  0
  -27.8588  -16.2249   19.1977 H   0  0  0  0  0  0
  -29.1017  -15.3695   18.2959 H   0  0  0  0  0  0
  -29.0521  -17.0780   18.2505 H   0  0  0  0  0  0
  -27.0999  -24.3575   20.8016 H   0  0  0  0  0  0
  -27.5059  -24.3934   19.1186 H   0  0  0  0  0  0
  -30.9462  -17.9219   20.9919 H   0  0  0  0  0  0
  -30.6519  -18.1334   19.3331 H   0  0  0  0  0  0
  1 25  1  0  0  0
  1 30  2  0  0  0
  1 83  1  0  0  0
  2  3  1  0  0  0
  2 25  1  0  0  0
  2 84  1  0  0  0
  2 85  1  0  0  0
  3  4  1  0  0  0
  3 86  1  0  0  0
  3 87  1  0  0  0
  4  5  1  0  0  0
  4 88  1  0  0  0
  4 89  1  0  0  0
  5  6  1  0  0  0
  5 26  1  0  0  0
  5 90  1  0  0  0
  6 25  1  0  0  0
  6 91  1  0  0  0
  6 92  1  0  0  0
  7  8  2  0  0  0
  7 26  1  0  0  0
  7 29  1  0  0  0
  8  9  1  0  0  0
  8 22  1  0  0  0
  9 10  1  0  0  0
  9 27  2  0  0  0
 10 11  2  0  0  0
 10 15  1  0  0  0
 11 12  1  0  0  0
 11 93  1  0  0  0
 12 13  2  0  0  0
 12 94  1  0  0  0
 13 14  1  0  0  0
 13 31  1  0  0  0
 14 15  2  0  0  0
 14 95  1  0  0  0
 15 96  1  0  0  0
 16 17  2  0  0  0
 16 21  1  0  0  0
 16 31  1  0  0  0
 17 18  1  0  0  0
 17 97  1  0  0  0
 18 19  2  0  0  0
 18 98  1  0  0  0
 19 20  1  0  0  0
 19 24  1  0  0  0
 20 21  2  0  0  0
 20 99  1  0  0  0
 21 23  1  0  0  0
 22 28  1  0  0  0
 22 32  2  0  0  0
 26 27  1  0  0  0
 28100  1  0  0  0
 28101  1  0  0  0
 29102  1  0  0  0
 29103  1  0  0  0
 33 34  1  0  0  0
 33 66  1  0  0  0
 33 70  2  0  0  0
 34 36  1  0  0  0
 34 59  1  0  0  0
 34104  1  0  0  0
 35 44  2  0  0  0
 35 45  1  0  0  0
 35 68  1  0  0  0
 36 56  1  0  0  0
 36105  1  0  0  0
 37 39  1  0  0  0
 37 47  1  0  0  0
 37 66  1  0  0  0
 37106  1  0  0  0
 38 43  2  0  0  0
 38 46  1  0  0  0
 38 47  1  0  0  0
 39 64  1  0  0  0
 39 67  2  0  0  0
 40 52  1  0  0  0
 40 53  2  0  0  0
 40 58  1  0  0  0
 41107  1  0  0  0
 41108  1  0  0  0
 41109  1  0  0  0
 41 48  1  0  0  0
 42 43  1  0  0  0
 42 66  1  0  0  0
 42110  1  0  0  0
 42111  1  0  0  0
 43 44  1  0  0  0
 44112  1  0  0  0
 45 46  2  0  0  0
 45113  1  0  0  0
 46114  1  0  0  0
 47115  1  0  0  0
 47116  1  0  0  0
 48 56  1  0  0  0
 48 65  1  0  0  0
 48117  1  0  0  0
 49 50  1  0  0  0
 49 53  1  0  0  0
 49 64  1  0  0  0
 49118  1  0  0  0
 50 51  1  0  0  0
 50119  1  0  0  0
 50120  1  0  0  0
 51 52  1  0  0  0
 51121  1  0  0  0
 51122  1  0  0  0
 52123  1  0  0  0
 52124  1  0  0  0
 53 54  1  0  0  0
 54 55  2  0  0  0
 54125  1  0  0  0
 55 57  1  0  0  0
 55126  1  0  0  0
 56 69  2  0  0  0
 57 58  2  0  0  0
 57127  1  0  0  0
 58128  1  0  0  0
 59 60  1  0  0  0
 59 61  1  0  0  0
 59 62  1  0  0  0
 60129  1  0  0  0
 60130  1  0  0  0
 60131  1  0  0  0
 61132  1  0  0  0
 61133  1  0  0  0
 61134  1  0  0  0
 62135  1  0  0  0
 62136  1  0  0  0
 62137  1  0  0  0
 63 65  1  0  0  0
 63138  1  0  0  0
 63139  1  0  0  0
 63140  1  0  0  0
 64141  1  0  0  0
 65142  1  0  0  0
 68 77  1  0  0  0
 71 80  2  0  0  0
 71 81  1  0  0  0
 71143  1  0  0  0
 72 77  1  0  0  0
 72 80  1  0  0  0
 72 82  2  0  0  0
 73 79  1  0  0  0
 73 81  2  0  0  0
 73 82  1  0  0  0
 74144  1  0  0  0
 74145  1  0  0  0
 74146  1  0  0  0
 74 79  1  0  0  0
 75 79  1  0  0  0
 75147  1  0  0  0
 75148  1  0  0  0
 75149  1  0  0  0
 76 83  1  0  0  0
 76150  1  0  0  0
 76151  1  0  0  0
 76152  1  0  0  0
 77153  1  0  0  0
 77154  1  0  0  0
 78 79  1  0  0  0
 78 83  1  0  0  0
 78155  1  0  0  0
 78156  1  0  0  0
M  ISO  4   1 100  68 101  77 101  83 100
M  END
> <chiral flag>
0

> <version>
0

> <s_m_source_file>
/data/baiqing/PycharmProjects/Reinvent-master-3.2/result/LINK_invent/BTK/process_docking_weight1_custom_sum_contain_oxygen_bond_distance_aromatic_linkinvent_7_9_3/rearranged_h_0060.sdf

> <i_m_source_file_index>
1

> <r_mmod_Potential_Energy-OPLS-2005>
204.759994506836

> <r_mmod_Stretch_Energy-OPLS-2005>
336.799102783203

> <r_mmod_Bend_Energy-OPLS-2005>
297.976501464844

> <r_mmod_Torsional_Energy-OPLS-2005>
288.456176757812

> <r_mmod_Improper_Torsional_Energy-OPLS-2005>
11.5136022567749

> <r_mmod_Van_der_Waal_Energy-OPLS-2005>
161.086669921875

> <r_mmod_Electrostatic_Energy-OPLS-2005>
-934.598693847656

> <r_mmod_Solvation_Energy-OPLS-2005>
-230.033432006836

> <b_mmod_Minimization_Converged-OPLS-2005>
0

> <r_mmod_RMS_Derivative-OPLS-2005>
1.272132396698

$$$$
1
                    3D
 Structure written by MMmdl.
158166  0  0  1  0            999 V2000
  -30.7031  -14.5651   20.4262 C   0  0  0  0  0  0
  -30.4364  -12.3068   19.4626 C   0  0  0  0  0  0
  -29.5092  -12.3392   18.2292 C   0  0  0  0  0  0
  -28.0200  -12.2865   18.6373 C   0  0  0  0  0  0
  -27.6448  -13.1958   19.8405 C   0  0  2  0  0  0
  -28.6963  -13.1279   20.9649 C   0  0  0  0  0  0
  -25.2590  -13.8149   20.5710 C   0  0  0  0  0  0
  -24.1834  -13.0454   20.9209 C   0  0  0  0  0  0
  -24.6356  -11.6891   20.8749 C   0  0  0  0  0  0
  -23.9019  -10.4289   21.0431 C   0  0  0  0  0  0
  -24.3582   -9.4209   21.9199 C   0  0  0  0  0  0
  -23.6280   -8.2244   22.0767 C   0  0  0  0  0  0
  -22.4267   -8.0268   21.3554 C   0  0  0  0  0  0
  -21.9883   -9.0251   20.4656 C   0  0  0  0  0  0
  -22.7204  -10.2132   20.3079 C   0  0  0  0  0  0
  -21.6850   -6.0724   22.5284 C   0  0  0  0  0  0
  -21.4025   -6.5644   23.8209 C   0  0  0  0  0  0
  -21.3661   -5.6797   24.9177 C   0  0  0  0  0  0
  -21.6052   -4.3065   24.7231 C   0  0  0  0  0  0
  -21.8811   -3.8143   23.4358 C   0  0  0  0  0  0
  -21.9193   -4.6955   22.3404 C   0  0  0  0  0  0
  -22.7844  -13.5250   21.1855 C   0  0  0  0  0  0
  -22.1659   -4.2137   21.0979 F   0  0  0  0  0  0
  -21.5620   -3.4547   25.7746 F   0  0  0  0  0  0
  -30.0160  -13.3859   20.3694 N   0  0  0  0  0  0
  -26.2952  -12.9264   20.3244 N   0  0  0  0  0  0
  -25.9272  -11.6442   20.5765 N   0  0  0  0  0  0
  -22.0463  -12.8274   22.0406 N   0  0  0  0  0  0
  -25.4397  -15.1875   20.4142 N   0  0  0  0  0  0
  -31.9251  -14.6272   20.2697 O   0  0  0  0  0  0
  -21.6645   -6.8872   21.4239 O   0  0  0  0  0  0
  -22.3515  -14.5570   20.6684 O   0  0  0  0  0  0
  -24.6192  -31.8675   23.2118 C   0  0  0  0  0  0
  -25.9090  -32.4819   23.8401 C   0  0  1  0  0  0
  -27.2231  -27.3945   20.0833 C   0  0  0  0  0  0
  -25.5934  -33.8613   24.2336 N   0  0  0  0  0  0
  -23.4052  -30.4941   21.5556 C   0  0  2  0  0  0
  -24.8484  -28.9667   20.1133 C   0  0  0  0  0  0
  -22.7416  -29.4648   22.5016 C   0  0  0  0  0  0
  -18.0267  -28.1349   22.8490 C   0  0  0  0  0  0
  -24.1490  -36.7322   23.2630 C   0  0  0  0  0  0
  -25.9406  -30.8185   21.3731 C   0  0  0  0  0  0
  -26.0140  -29.4500   20.7197 C   0  0  0  0  0  0
  -27.1993  -28.6696   20.7081 C   0  0  0  0  0  0
  -26.0333  -26.9568   19.4448 C   0  0  0  0  0  0
  -24.8534  -27.7194   19.4758 C   0  0  0  0  0  0
  -23.6145  -29.8379   20.1665 C   0  0  0  0  0  0
  -25.4108  -36.3115   24.0328 C   0  0  1  0  0  0
  -20.5863  -28.3659   23.1311 C   0  0  2  0  0  0
  -20.6770  -26.9399   22.5415 C   0  0  0  0  0  0
  -19.5755  -26.6369   21.5205 C   0  0  0  0  0  0
  -18.1926  -26.7900   22.1618 C   0  0  0  0  0  0
  -19.1525  -28.8825   23.2900 C   0  0  0  0  0  0
  -18.9444  -30.1421   23.8912 C   0  0  0  0  0  0
  -17.6451  -30.6562   24.0553 C   0  0  0  0  0  0
  -25.9042  -34.9477   23.5140 C   0  0  0  0  0  0
  -16.5338  -29.9057   23.6315 C   0  0  0  0  0  0
  -16.7256  -28.6473   23.0342 C   0  0  0  0  0  0
  -26.4490  -31.6596   25.0734 C   0  0  0  0  0  0
  -25.3743  -31.3718   26.1479 C   0  0  0  0  0  0
  -27.0303  -30.3033   24.6114 C   0  0  0  0  0  0
  -27.6062  -32.4295   25.7500 C   0  0  0  0  0  0
  -27.5592  -37.1822   24.8463 C   0  0  0  0  0  0
  -21.4159  -29.3018   22.3732 N   0  0  0  0  0  0
  -26.4308  -37.3799   23.9391 N   0  0  0  0  0  0
  -24.6737  -31.0735   22.1051 N   0  0  0  0  0  0
  -23.4203  -28.8163   23.3027 O   0  0  0  0  0  0
  -28.3749  -26.6087   20.1235 O   0  0  0  0  0  0
  -26.5574  -34.8916   22.4679 O   0  0  0  0  0  0
  -23.5368  -32.1447   23.7494 O   0  0  0  0  0  0
  -31.0491  -22.3203   20.9229 C   0  0  0  0  0  0
  -31.3973  -23.6712   20.8502 C   0  0  0  0  0  0
  -29.7449  -21.9712   20.5586 C   0  0  0  0  0  0
  -29.2894  -24.1998   20.1294 C   0  0  0  0  0  0
  -32.8081  -24.1120   21.1641 C   0  0  0  0  0  0
  -29.4279  -15.9575   18.9483 C   0  0  0  0  0  0
  -28.2622  -25.2400   19.6400 C   0  0  0  0  0  0
  -29.6916  -18.2970   20.4257 C   0  0  0  0  0  0
  -30.2737  -16.9669   21.0386 C   0  0  0  0  0  0
  -29.8895  -19.6056   21.2248 C   0  0  0  0  0  0
  -30.5129  -24.6124   20.4628 N   0  0  0  0  0  0
  -28.8812  -22.9230   20.1503 N   0  0  0  0  0  0
  -29.9551  -15.7014   20.2981 N   0  0  0  0  0  0
  -29.2383  -20.6834   20.5209 O   0  0  0  0  0  0
  -31.4800  -12.4120   19.1581 H   0  0  0  0  0  0
  -30.3696  -11.3463   19.9744 H   0  0  0  0  0  0
  -29.7333  -11.4724   17.6082 H   0  0  0  0  0  0
  -29.7283  -13.1885   17.5894 H   0  0  0  0  0  0
  -27.8108  -11.2514   18.8852 H   0  0  0  0  0  0
  -27.3863  -12.5065   17.7761 H   0  0  0  0  0  0
  -27.6278  -14.2053   19.4530 H   0  0  0  0  0  0
  -28.6764  -12.1573   21.4523 H   0  0  0  0  0  0
  -28.4605  -13.8601   21.7378 H   0  0  0  0  0  0
  -25.2727   -9.5708   22.4761 H   0  0  0  0  0  0
  -24.0008   -7.4640   22.7495 H   0  0  0  0  0  0
  -21.0810   -8.8767   19.8952 H   0  0  0  0  0  0
  -22.3672  -10.9677   19.6186 H   0  0  0  0  0  0
  -21.2028   -7.6150   23.9712 H   0  0  0  0  0  0
  -21.1494   -6.0529   25.9080 H   0  0  0  0  0  0
  -22.0587   -2.7604   23.2849 H   0  0  0  0  0  0
  -22.4090  -11.9948   22.4805 H   0  0  0  0  0  0
  -21.1083  -13.1288   22.2655 H   0  0  0  0  0  0
  -24.6866  -15.8552   20.5454 H   0  0  0  0  0  0
  -26.3106  -15.6199   20.1286 H   0  0  0  0  0  0
  -26.7164  -32.5516   23.1152 H   0  0  0  0  0  0
  -25.0152  -33.9790   25.0530 H   0  0  0  0  0  0
  -22.6971  -31.3143   21.4227 H   0  0  0  0  0  0
  -23.3747  -35.9678   23.3310 H   0  0  0  0  0  0
  -24.3596  -36.8912   22.2051 H   0  0  0  0  0  0
  -23.7265  -37.6536   23.6626 H   0  0  0  0  0  0
  -26.0561  -31.5823   20.6019 H   0  0  0  0  0  0
  -26.8294  -30.8739   21.9893 H   0  0  0  0  0  0
  -28.0887  -29.0369   21.1993 H   0  0  0  0  0  0
  -25.9690  -26.0243   18.9025 H   0  0  0  0  0  0
  -23.9610  -27.3451   18.9910 H   0  0  0  0  0  0
  -23.7291  -30.6187   19.4130 H   0  0  0  0  0  0
  -22.7363  -29.2632   19.8678 H   0  0  0  0  0  0
  -25.1294  -36.1996   25.0828 H   0  0  0  0  0  0
  -20.9936  -28.3202   24.1441 H   0  0  0  0  0  0
  -20.5663  -26.2253   23.3587 H   0  0  0  0  0  0
  -21.6633  -26.7424   22.1213 H   0  0  0  0  0  0
  -19.6898  -25.6277   21.1231 H   0  0  0  0  0  0
  -19.6679  -27.3184   20.6734 H   0  0  0  0  0  0
  -17.4188  -26.6649   21.4013 H   0  0  0  0  0  0
  -18.0320  -26.0030   22.9009 H   0  0  0  0  0  0
  -19.7923  -30.7227   24.2296 H   0  0  0  0  0  0
  -17.4997  -31.6238   24.5147 H   0  0  0  0  0  0
  -15.5344  -30.2952   23.7608 H   0  0  0  0  0  0
  -15.8664  -28.0777   22.7041 H   0  0  0  0  0  0
  -24.5919  -30.7054   25.7831 H   0  0  0  0  0  0
  -24.8920  -32.2869   26.4917 H   0  0  0  0  0  0
  -25.8086  -30.8906   27.0252 H   0  0  0  0  0  0
  -26.2852  -29.6811   24.1136 H   0  0  0  0  0  0
  -27.4037  -29.7249   25.4574 H   0  0  0  0  0  0
  -27.8705  -30.4345   23.9292 H   0  0  0  0  0  0
  -27.2698  -33.3585   26.2112 H   0  0  0  0  0  0
  -28.3860  -32.6868   25.0321 H   0  0  0  0  0  0
  -28.0743  -31.8393   26.5389 H   0  0  0  0  0  0
  -28.2618  -38.0116   24.7493 H   0  0  0  0  0  0
  -28.1077  -36.2635   24.6302 H   0  0  0  0  0  0
  -27.2301  -37.1496   25.8870 H   0  0  0  0  0  0
  -20.9306  -29.8791   21.7009 H   0  0  0  0  0  0
  -26.0195  -38.2884   24.1369 H   0  0  0  0  0  0
  -31.7937  -21.5972   21.2140 H   0  0  0  0  0  0
  -33.4031  -23.2491   21.4666 H   0  0  0  0  0  0
  -32.8283  -24.8345   21.9773 H   0  0  0  0  0  0
  -33.2801  -24.5488   20.2860 H   0  0  0  0  0  0
  -28.4116  -16.3506   18.9965 H   0  0  0  0  0  0
  -29.3908  -15.0856   18.3098 H   0  0  0  0  0  0
  -30.0627  -16.6464   18.3942 H   0  0  0  0  0  0
  -27.3055  -24.8143   19.9413 H   0  0  0  0  0  0
  -28.2860  -25.2559   18.5487 H   0  0  0  0  0  0
  -28.6234  -18.1754   20.2504 H   0  0  0  0  0  0
  -30.1597  -18.5021   19.4599 H   0  0  0  0  0  0
  -29.9241  -16.8631   22.0645 H   0  0  0  0  0  0
  -31.3545  -17.0731   21.1145 H   0  0  0  0  0  0
  -30.9599  -19.7387   21.3671 H   0  0  0  0  0  0
  -29.4197  -19.5160   22.2076 H   0  0  0  0  0  0
  1 25  1  0  0  0
  1 30  2  0  0  0
  1 83  1  0  0  0
  2  3  1  0  0  0
  2 25  1  0  0  0
  2 85  1  0  0  0
  2 86  1  0  0  0
  3  4  1  0  0  0
  3 87  1  0  0  0
  3 88  1  0  0  0
  4  5  1  0  0  0
  4 89  1  0  0  0
  4 90  1  0  0  0
  5  6  1  0  0  0
  5 26  1  0  0  0
  5 91  1  0  0  0
  6 25  1  0  0  0
  6 92  1  0  0  0
  6 93  1  0  0  0
  7  8  2  0  0  0
  7 26  1  0  0  0
  7 29  1  0  0  0
  8  9  1  0  0  0
  8 22  1  0  0  0
  9 10  1  0  0  0
  9 27  2  0  0  0
 10 11  2  0  0  0
 10 15  1  0  0  0
 11 12  1  0  0  0
 11 94  1  0  0  0
 12 13  2  0  0  0
 12 95  1  0  0  0
 13 14  1  0  0  0
 13 31  1  0  0  0
 14 15  2  0  0  0
 14 96  1  0  0  0
 15 97  1  0  0  0
 16 17  2  0  0  0
 16 21  1  0  0  0
 16 31  1  0  0  0
 17 18  1  0  0  0
 17 98  1  0  0  0
 18 19  2  0  0  0
 18 99  1  0  0  0
 19 20  1  0  0  0
 19 24  1  0  0  0
 20 21  2  0  0  0
 20100  1  0  0  0
 21 23  1  0  0  0
 22 28  1  0  0  0
 22 32  2  0  0  0
 26 27  1  0  0  0
 28101  1  0  0  0
 28102  1  0  0  0
 29103  1  0  0  0
 29104  1  0  0  0
 33 34  1  0  0  0
 33 66  1  0  0  0
 33 70  2  0  0  0
 34 36  1  0  0  0
 34 59  1  0  0  0
 34105  1  0  0  0
 35 44  2  0  0  0
 35 45  1  0  0  0
 35 68  1  0  0  0
 36 56  1  0  0  0
 36106  1  0  0  0
 37 39  1  0  0  0
 37 47  1  0  0  0
 37 66  1  0  0  0
 37107  1  0  0  0
 38 43  2  0  0  0
 38 46  1  0  0  0
 38 47  1  0  0  0
 39 64  1  0  0  0
 39 67  2  0  0  0
 40 52  1  0  0  0
 40 53  2  0  0  0
 40 58  1  0  0  0
 41108  1  0  0  0
 41109  1  0  0  0
 41110  1  0  0  0
 41 48  1  0  0  0
 42 43  1  0  0  0
 42 66  1  0  0  0
 42111  1  0  0  0
 42112  1  0  0  0
 43 44  1  0  0  0
 44113  1  0  0  0
 45 46  2  0  0  0
 45114  1  0  0  0
 46115  1  0  0  0
 47116  1  0  0  0
 47117  1  0  0  0
 48 56  1  0  0  0
 48 65  1  0  0  0
 48118  1  0  0  0
 49 50  1  0  0  0
 49 53  1  0  0  0
 49 64  1  0  0  0
 49119  1  0  0  0
 50 51  1  0  0  0
 50120  1  0  0  0
 50121  1  0  0  0
 51 52  1  0  0  0
 51122  1  0  0  0
 51123  1  0  0  0
 52124  1  0  0  0
 52125  1  0  0  0
 53 54  1  0  0  0
 54 55  2  0  0  0
 54126  1  0  0  0
 55 57  1  0  0  0
 55127  1  0  0  0
 56 69  2  0  0  0
 57 58  2  0  0  0
 57128  1  0  0  0
 58129  1  0  0  0
 59 60  1  0  0  0
 59 61  1  0  0  0
 59 62  1  0  0  0
 60130  1  0  0  0
 60131  1  0  0  0
 60132  1  0  0  0
 61133  1  0  0  0
 61134  1  0  0  0
 61135  1  0  0  0
 62136  1  0  0  0
 62137  1  0  0  0
 62138  1  0  0  0
 63 65  1  0  0  0
 63139  1  0  0  0
 63140  1  0  0  0
 63141  1  0  0  0
 64142  1  0  0  0
 65143  1  0  0  0
 68 77  1  0  0  0
 71 72  2  0  0  0
 71 73  1  0  0  0
 71144  1  0  0  0
 72 75  1  0  0  0
 72 81  1  0  0  0
 73 82  2  0  0  0
 73 84  1  0  0  0
 74 77  1  0  0  0
 74 81  2  0  0  0
 74 82  1  0  0  0
 75145  1  0  0  0
 75146  1  0  0  0
 75147  1  0  0  0
 76 83  1  0  0  0
 76148  1  0  0  0
 76149  1  0  0  0
 76150  1  0  0  0
 77151  1  0  0  0
 77152  1  0  0  0
 78 79  1  0  0  0
 78 80  1  0  0  0
 78153  1  0  0  0
 78154  1  0  0  0
 79 83  1  0  0  0
 79155  1  0  0  0
 79156  1  0  0  0
 80 84  1  0  0  0
 80157  1  0  0  0
 80158  1  0  0  0
M  ISO  4   1 100  68 101  77 101  83 100
M  END
> <chiral flag>
0

> <version>
0

> <s_m_source_file>
/data/baiqing/PycharmProjects/Reinvent-master-3.2/result/LINK_invent/BTK/process_docking_weight1_custom_sum_contain_oxygen_bond_distance_aromatic_linkinvent_7_9_3/rearranged_h_0060.sdf

> <i_m_source_file_index>
2

> <r_mmod_Potential_Energy-OPLS-2005>
-205.080551147461

> <r_mmod_Stretch_Energy-OPLS-2005>
49.8870086669922

> <r_mmod_Bend_Energy-OPLS-2005>
127.006797790527

> <r_mmod_Torsional_Energy-OPLS-2005>
298.688140869141

> <r_mmod_Improper_Torsional_Energy-OPLS-2005>
11.946722984314

> <r_mmod_Van_der_Waal_Energy-OPLS-2005>
186.228271484375

> <r_mmod_Electrostatic_Energy-OPLS-2005>
-694.620727539062

> <r_mmod_Solvation_Energy-OPLS-2005>
-228.119140625

> <b_mmod_Minimization_Converged-OPLS-2005>
0

> <r_mmod_RMS_Derivative-OPLS-2005>
7.22802925109863

$$$$
2
                    3D
 Structure written by MMmdl.
157165  0  0  1  0            999 V2000
  -30.5378  -14.8998   20.4442 C   0  0  0  0  0  0
  -30.4432  -12.5498   19.5207 C   0  0  0  0  0  0
  -29.5283  -12.5234   18.2720 C   0  0  0  0  0  0
  -28.0565  -12.3216   18.6803 C   0  0  0  0  0  0
  -27.6357  -13.2430   19.8559 C   0  0  2  0  0  0
  -28.6727  -13.2322   21.0009 C   0  0  0  0  0  0
  -25.2453  -13.8213   20.5711 C   0  0  0  0  0  0
  -24.1758  -13.0437   20.9215 C   0  0  0  0  0  0
  -24.6380  -11.6926   20.8771 C   0  0  0  0  0  0
  -23.9069  -10.4297   21.0433 C   0  0  0  0  0  0
  -24.3614   -9.4198   21.9197 C   0  0  0  0  0  0
  -23.6284   -8.2237   22.0761 C   0  0  0  0  0  0
  -22.4257   -8.0292   21.3561 C   0  0  0  0  0  0
  -21.9906   -9.0264   20.4663 C   0  0  0  0  0  0
  -22.7237  -10.2143   20.3079 C   0  0  0  0  0  0
  -21.6855   -6.0734   22.5282 C   0  0  0  0  0  0
  -21.4016   -6.5640   23.8213 C   0  0  0  0  0  0
  -21.3666   -5.6795   24.9177 C   0  0  0  0  0  0
  -21.6042   -4.3055   24.7226 C   0  0  0  0  0  0
  -21.8814   -3.8143   23.4347 C   0  0  0  0  0  0
  -21.9184   -4.6960   22.3402 C   0  0  0  0  0  0
  -22.7784  -13.5222   21.1879 C   0  0  0  0  0  0
  -22.1654   -4.2149   21.0981 F   0  0  0  0  0  0
  -21.5624   -3.4543   25.7735 F   0  0  0  0  0  0
  -29.9641  -13.6320   20.4250 N   0  0  0  0  0  0
  -26.2895  -12.9434   20.3299 N   0  0  0  0  0  0
  -25.9306  -11.6567   20.5765 N   0  0  0  0  0  0
  -22.0436  -12.8229   22.0453 N   0  0  0  0  0  0
  -25.4104  -15.1950   20.4106 N   0  0  0  0  0  0
  -31.7113  -15.0105   20.0716 O   0  0  0  0  0  0
  -21.6631   -6.8882   21.4248 O   0  0  0  0  0  0
  -22.3467  -14.5529   20.6719 O   0  0  0  0  0  0
  -24.6422  -31.8467   23.1936 C   0  0  0  0  0  0
  -25.9204  -32.4699   23.8316 C   0  0  1  0  0  0
  -27.2139  -27.1571   20.1363 C   0  0  0  0  0  0
  -25.5968  -33.8506   24.2240 N   0  0  0  0  0  0
  -23.4455  -30.4715   21.5356 C   0  0  2  0  0  0
  -24.8951  -28.9113   20.1055 C   0  0  0  0  0  0
  -22.7566  -29.4572   22.4835 C   0  0  0  0  0  0
  -18.0316  -28.1390   22.8477 C   0  0  0  0  0  0
  -24.1492  -36.7256   23.2637 C   0  0  0  0  0  0
  -26.0025  -30.7232   21.3964 C   0  0  0  0  0  0
  -26.0712  -29.3393   20.7343 C   0  0  0  0  0  0
  -27.2285  -28.4750   20.7439 C   0  0  0  0  0  0
  -26.0197  -26.8495   19.4399 C   0  0  0  0  0  0
  -24.8815  -27.6773   19.4444 C   0  0  0  0  0  0
  -23.6729  -29.8111   20.1513 C   0  0  0  0  0  0
  -25.4114  -36.3026   24.0326 C   0  0  1  0  0  0
  -20.5928  -28.3729   23.1216 C   0  0  2  0  0  0
  -20.6800  -26.9434   22.5386 C   0  0  0  0  0  0
  -19.5771  -26.6382   21.5200 C   0  0  0  0  0  0
  -18.1957  -26.7934   22.1616 C   0  0  0  0  0  0
  -19.1573  -28.8881   23.2844 C   0  0  0  0  0  0
  -18.9482  -30.1466   23.8883 C   0  0  0  0  0  0
  -17.6474  -30.6583   24.0567 C   0  0  0  0  0  0
  -25.9068  -34.9402   23.5081 C   0  0  0  0  0  0
  -16.5372  -29.9076   23.6324 C   0  0  0  0  0  0
  -16.7299  -28.6494   23.0362 C   0  0  0  0  0  0
  -26.4545  -31.6548   25.0747 C   0  0  0  0  0  0
  -25.3753  -31.3722   26.1458 C   0  0  0  0  0  0
  -27.0417  -30.2944   24.6320 C   0  0  0  0  0  0
  -27.6084  -32.4316   25.7507 C   0  0  0  0  0  0
  -27.5582  -37.1769   24.8459 C   0  0  0  0  0  0
  -21.4267  -29.3056   22.3580 N   0  0  0  0  0  0
  -26.4275  -37.3738   23.9419 N   0  0  0  0  0  0
  -24.7163  -31.0348   22.0958 N   0  0  0  0  0  0
  -23.4217  -28.8111   23.2980 O   0  0  0  0  0  0
  -28.2434  -26.1512   20.2406 O   0  0  0  0  0  0
  -26.5639  -34.8888   22.4652 O   0  0  0  0  0  0
  -23.5545  -32.1337   23.7157 O   0  0  0  0  0  0
  -28.3617  -21.2443   21.5743 C   0  0  0  0  0  0
  -29.2105  -20.3992   20.7665 C   0  0  0  0  0  0
  -29.4733  -22.4284   19.4643 C   0  0  0  0  0  0
  -28.6223  -23.2638   20.2885 C   0  0  0  0  0  0
  -30.0401  -22.9676   18.1657 C   0  0  0  0  0  0
  -28.7478  -18.4019   22.3768 C   0  0  0  0  0  0
  -31.0783  -18.9938   21.8066 C   0  0  0  0  0  0
  -27.9247  -24.6892   19.8402 C   0  0  0  0  0  0
  -29.7473  -17.5381   20.1992 C   0  0  0  0  0  0
  -29.6634  -18.8597   21.2152 C   0  0  0  0  0  0
  -28.0816  -22.5873   21.3521 N   0  0  0  0  0  0
  -29.7803  -21.0818   19.7125 N   0  0  0  0  0  0
  -29.7319  -16.0335   20.6792 N   0  0  0  0  0  0
  -31.4821  -12.7003   19.2241 H   0  0  0  0  0  0
  -30.4212  -11.5867   20.0347 H   0  0  0  0  0  0
  -29.8366  -11.7278   17.5915 H   0  0  0  0  0  0
  -29.6332  -13.4590   17.7209 H   0  0  0  0  0  0
  -27.9423  -11.2780   18.9761 H   0  0  0  0  0  0
  -27.3984  -12.4713   17.8253 H   0  0  0  0  0  0
  -27.6119  -14.2533   19.4470 H   0  0  0  0  0  0
  -28.7378  -12.2441   21.4583 H   0  0  0  0  0  0
  -28.3739  -13.9166   21.7958 H   0  0  0  0  0  0
  -25.2766   -9.5657   22.4764 H   0  0  0  0  0  0
  -23.9994   -7.4623   22.7466 H   0  0  0  0  0  0
  -21.0839   -8.8775   19.8978 H   0  0  0  0  0  0
  -22.3694  -10.9673   19.6183 H   0  0  0  0  0  0
  -21.2025   -7.6147   23.9723 H   0  0  0  0  0  0
  -21.1495   -6.0523   25.9082 H   0  0  0  0  0  0
  -22.0589   -2.7604   23.2843 H   0  0  0  0  0  0
  -22.4036  -11.9891   22.4857 H   0  0  0  0  0  0
  -21.1064  -13.1276   22.2677 H   0  0  0  0  0  0
  -24.6325  -15.8380   20.5065 H   0  0  0  0  0  0
  -26.2448  -15.6383   20.0492 H   0  0  0  0  0  0
  -26.7281  -32.5312   23.1057 H   0  0  0  0  0  0
  -25.0142  -33.9629   25.0405 H   0  0  0  0  0  0
  -22.7469  -31.2974   21.3850 H   0  0  0  0  0  0
  -23.3758  -35.9579   23.3255 H   0  0  0  0  0  0
  -24.3595  -36.8927   22.2062 H   0  0  0  0  0  0
  -23.7234  -37.6436   23.6696 H   0  0  0  0  0  0
  -26.1661  -31.4808   20.6286 H   0  0  0  0  0  0
  -26.8699  -30.7646   22.0433 H   0  0  0  0  0  0
  -28.1161  -28.7902   21.2744 H   0  0  0  0  0  0
  -25.9145  -25.9281   18.8889 H   0  0  0  0  0  0
  -23.9895  -27.3520   18.9271 H   0  0  0  0  0  0
  -23.8144  -30.5908   19.4016 H   0  0  0  0  0  0
  -22.7875  -29.2566   19.8344 H   0  0  0  0  0  0
  -25.1286  -36.1863   25.0814 H   0  0  0  0  0  0
  -21.0033  -28.3328   24.1330 H   0  0  0  0  0  0
  -20.5686  -26.2353   23.3613 H   0  0  0  0  0  0
  -21.6668  -26.7430   22.1191 H   0  0  0  0  0  0
  -19.6934  -25.6285   21.1253 H   0  0  0  0  0  0
  -19.6705  -27.3176   20.6719 H   0  0  0  0  0  0
  -17.4222  -26.6688   21.4023 H   0  0  0  0  0  0
  -18.0358  -26.0073   22.9010 H   0  0  0  0  0  0
  -19.7953  -30.7295   24.2251 H   0  0  0  0  0  0
  -17.5021  -31.6255   24.5177 H   0  0  0  0  0  0
  -15.5373  -30.2978   23.7634 H   0  0  0  0  0  0
  -15.8705  -28.0791   22.7098 H   0  0  0  0  0  0
  -24.5926  -30.7076   25.7781 H   0  0  0  0  0  0
  -24.8969  -32.2906   26.4867 H   0  0  0  0  0  0
  -25.8067  -30.8903   27.0245 H   0  0  0  0  0  0
  -26.3040  -29.6649   24.1340 H   0  0  0  0  0  0
  -27.4047  -29.7245   25.4883 H   0  0  0  0  0  0
  -27.8939  -30.4171   23.9636 H   0  0  0  0  0  0
  -27.2688  -33.3637   26.2024 H   0  0  0  0  0  0
  -28.3914  -32.6839   25.0348 H   0  0  0  0  0  0
  -28.0736  -31.8494   26.5470 H   0  0  0  0  0  0
  -28.2553  -38.0108   24.7535 H   0  0  0  0  0  0
  -28.1123  -36.2641   24.6233 H   0  0  0  0  0  0
  -27.2318  -37.1349   25.8863 H   0  0  0  0  0  0
  -20.9473  -29.8786   21.6778 H   0  0  0  0  0  0
  -26.0148  -38.2796   24.1445 H   0  0  0  0  0  0
  -27.8850  -20.8587   22.4617 H   0  0  0  0  0  0
  -29.2964  -22.8839   17.3722 H   0  0  0  0  0  0
  -30.9286  -22.4148   17.8587 H   0  0  0  0  0  0
  -30.3194  -24.0163   18.2642 H   0  0  0  0  0  0
  -28.8110  -19.0637   23.2410 H   0  0  0  0  0  0
  -29.0191  -17.4165   22.7542 H   0  0  0  0  0  0
  -27.7046  -18.3543   22.0649 H   0  0  0  0  0  0
  -31.1096  -19.7264   22.6134 H   0  0  0  0  0  0
  -31.7894  -19.3207   21.0474 H   0  0  0  0  0  0
  -31.4411  -18.0482   22.2103 H   0  0  0  0  0  0
  -26.8932  -24.5173   20.1462 H   0  0  0  0  0  0
  -27.9023  -24.6804   18.7508 H   0  0  0  0  0  0
  -30.5973  -17.6676   19.5281 H   0  0  0  0  0  0
  -28.8769  -17.6164   19.5476 H   0  0  0  0  0  0
  -28.8293  -15.7683   21.0456 H   0  0  0  0  0  0
  1 25  1  0  0  0
  1 30  2  0  0  0
  1 83  1  0  0  0
  2  3  1  0  0  0
  2 25  1  0  0  0
  2 84  1  0  0  0
  2 85  1  0  0  0
  3  4  1  0  0  0
  3 86  1  0  0  0
  3 87  1  0  0  0
  4  5  1  0  0  0
  4 88  1  0  0  0
  4 89  1  0  0  0
  5  6  1  0  0  0
  5 26  1  0  0  0
  5 90  1  0  0  0
  6 25  1  0  0  0
  6 91  1  0  0  0
  6 92  1  0  0  0
  7  8  2  0  0  0
  7 26  1  0  0  0
  7 29  1  0  0  0
  8  9  1  0  0  0
  8 22  1  0  0  0
  9 10  1  0  0  0
  9 27  2  0  0  0
 10 11  2  0  0  0
 10 15  1  0  0  0
 11 12  1  0  0  0
 11 93  1  0  0  0
 12 13  2  0  0  0
 12 94  1  0  0  0
 13 14  1  0  0  0
 13 31  1  0  0  0
 14 15  2  0  0  0
 14 95  1  0  0  0
 15 96  1  0  0  0
 16 17  2  0  0  0
 16 21  1  0  0  0
 16 31  1  0  0  0
 17 18  1  0  0  0
 17 97  1  0  0  0
 18 19  2  0  0  0
 18 98  1  0  0  0
 19 20  1  0  0  0
 19 24  1  0  0  0
 20 21  2  0  0  0
 20 99  1  0  0  0
 21 23  1  0  0  0
 22 28  1  0  0  0
 22 32  2  0  0  0
 26 27  1  0  0  0
 28100  1  0  0  0
 28101  1  0  0  0
 29102  1  0  0  0
 29103  1  0  0  0
 33 34  1  0  0  0
 33 66  1  0  0  0
 33 70  2  0  0  0
 34 36  1  0  0  0
 34 59  1  0  0  0
 34104  1  0  0  0
 35 44  2  0  0  0
 35 45  1  0  0  0
 35 68  1  0  0  0
 36 56  1  0  0  0
 36105  1  0  0  0
 37 39  1  0  0  0
 37 47  1  0  0  0
 37 66  1  0  0  0
 37106  1  0  0  0
 38 43  2  0  0  0
 38 46  1  0  0  0
 38 47  1  0  0  0
 39 64  1  0  0  0
 39 67  2  0  0  0
 40 52  1  0  0  0
 40 53  2  0  0  0
 40 58  1  0  0  0
 41107  1  0  0  0
 41108  1  0  0  0
 41109  1  0  0  0
 41 48  1  0  0  0
 42 43  1  0  0  0
 42 66  1  0  0  0
 42110  1  0  0  0
 42111  1  0  0  0
 43 44  1  0  0  0
 44112  1  0  0  0
 45 46  2  0  0  0
 45113  1  0  0  0
 46114  1  0  0  0
 47115  1  0  0  0
 47116  1  0  0  0
 48 56  1  0  0  0
 48 65  1  0  0  0
 48117  1  0  0  0
 49 50  1  0  0  0
 49 53  1  0  0  0
 49 64  1  0  0  0
 49118  1  0  0  0
 50 51  1  0  0  0
 50119  1  0  0  0
 50120  1  0  0  0
 51 52  1  0  0  0
 51121  1  0  0  0
 51122  1  0  0  0
 52123  1  0  0  0
 52124  1  0  0  0
 53 54  1  0  0  0
 54 55  2  0  0  0
 54125  1  0  0  0
 55 57  1  0  0  0
 55126  1  0  0  0
 56 69  2  0  0  0
 57 58  2  0  0  0
 57127  1  0  0  0
 58128  1  0  0  0
 59 60  1  0  0  0
 59 61  1  0  0  0
 59 62  1  0  0  0
 60129  1  0  0  0
 60130  1  0  0  0
 60131  1  0  0  0
 61132  1  0  0  0
 61133  1  0  0  0
 61134  1  0  0  0
 62135  1  0  0  0
 62136  1  0  0  0
 62137  1  0  0  0
 63 65  1  0  0  0
 63138  1  0  0  0
 63139  1  0  0  0
 63140  1  0  0  0
 64141  1  0  0  0
 65142  1  0  0  0
 68 78  1  0  0  0
 71 72  2  0  0  0
 71 81  1  0  0  0
 71143  1  0  0  0
 72 80  1  0  0  0
 72 82  1  0  0  0
 73 74  1  0  0  0
 73 75  1  0  0  0
 73 82  2  0  0  0
 74 78  1  0  0  0
 74 81  2  0  0  0
 75144  1  0  0  0
 75145  1  0  0  0
 75146  1  0  0  0
 76147  1  0  0  0
 76148  1  0  0  0
 76149  1  0  0  0
 76 80  1  0  0  0
 77 80  1  0  0  0
 77150  1  0  0  0
 77151  1  0  0  0
 77152  1  0  0  0
 78153  1  0  0  0
 78154  1  0  0  0
 79 80  1  0  0  0
 79 83  1  0  0  0
 79155  1  0  0  0
 79156  1  0  0  0
 83157  1  0  0  0
M  ISO  4   1 100  68 101  78 101  83 100
M  END
> <chiral flag>
0

> <version>
0

> <s_m_source_file>
/data/baiqing/PycharmProjects/Reinvent-master-3.2/result/LINK_invent/BTK/process_docking_weight1_custom_sum_contain_oxygen_bond_distance_aromatic_linkinvent_7_9_3/rearranged_h_0060.sdf

> <i_m_source_file_index>
3

> <r_mmod_Potential_Energy-OPLS-2005>
494.455780029297

> <r_mmod_Stretch_Energy-OPLS-2005>
229.617004394531

> <r_mmod_Bend_Energy-OPLS-2005>
262.131927490234

> <r_mmod_Torsional_Energy-OPLS-2005>
224.554779052734

> <r_mmod_Improper_Torsional_Energy-OPLS-2005>
9.99784755706787

> <r_mmod_Van_der_Waal_Energy-OPLS-2005>
146.583023071289

> <r_mmod_Electrostatic_Energy-OPLS-2005>
-325.506256103516

> <r_mmod_Solvation_Energy-OPLS-2005>
-225.758453369141

> <b_mmod_Minimization_Converged-OPLS-2005>
0

> <r_mmod_RMS_Derivative-OPLS-2005>
2.43481373786926

$$$$
3
                    3D
 Structure written by MMmdl.
167175  0  0  1  0            999 V2000
  -30.6686  -14.8623   20.4360 C   0  0  0  0  0  0
  -30.4413  -12.5660   19.4153 C   0  0  0  0  0  0
  -29.4813  -12.5284   18.2078 C   0  0  0  0  0  0
  -28.0202  -12.3249   18.6615 C   0  0  0  0  0  0
  -27.6346  -13.1980   19.8853 C   0  0  2  0  0  0
  -28.7420  -13.1659   20.9713 C   0  0  0  0  0  0
  -25.2220  -13.7883   20.5384 C   0  0  0  0  0  0
  -24.1653  -13.0227   20.9234 C   0  0  0  0  0  0
  -24.6347  -11.6755   20.8966 C   0  0  0  0  0  0
  -23.9020  -10.4197   21.0547 C   0  0  0  0  0  0
  -24.3584   -9.4108   21.9280 C   0  0  0  0  0  0
  -23.6255   -8.2161   22.0795 C   0  0  0  0  0  0
  -22.4254   -8.0234   21.3551 C   0  0  0  0  0  0
  -21.9903   -9.0224   20.4661 C   0  0  0  0  0  0
  -22.7232  -10.2094   20.3117 C   0  0  0  0  0  0
  -21.6859   -6.0699   22.5275 C   0  0  0  0  0  0
  -21.3999   -6.5604   23.8195 C   0  0  0  0  0  0
  -21.3659   -5.6776   24.9173 C   0  0  0  0  0  0
  -21.6062   -4.3037   24.7253 C   0  0  0  0  0  0
  -21.8830   -3.8110   23.4377 C   0  0  0  0  0  0
  -21.9199   -4.6920   22.3421 C   0  0  0  0  0  0
  -22.7686  -13.5065   21.1837 C   0  0  0  0  0  0
  -22.1688   -4.2097   21.1012 F   0  0  0  0  0  0
  -21.5643   -3.4525   25.7777 F   0  0  0  0  0  0
  -29.9752  -13.6517   20.3235 N   0  0  0  0  0  0
  -26.2897  -12.9174   20.3662 N   0  0  0  0  0  0
  -25.9329  -11.6359   20.6233 N   0  0  0  0  0  0
  -22.0382  -12.8132   22.0482 N   0  0  0  0  0  0
  -25.3249  -15.1474   20.2812 N   0  0  0  0  0  0
  -31.8878  -14.8006   20.2529 O   0  0  0  0  0  0
  -21.6621   -6.8833   21.4232 O   0  0  0  0  0  0
  -22.3364  -14.5380   20.6683 O   0  0  0  0  0  0
  -24.6312  -31.8566   23.1959 C   0  0  0  0  0  0
  -25.9126  -32.4779   23.8332 C   0  0  1  0  0  0
  -27.2486  -27.2756   20.1365 C   0  0  0  0  0  0
  -25.5918  -33.8576   24.2270 N   0  0  0  0  0  0
  -23.4301  -30.4738   21.5406 C   0  0  2  0  0  0
  -24.8834  -28.9175   20.1178 C   0  0  0  0  0  0
  -22.7506  -29.4614   22.4938 C   0  0  0  0  0  0
  -18.0293  -28.1393   22.8482 C   0  0  0  0  0  0
  -24.1491  -36.7300   23.2638 C   0  0  0  0  0  0
  -25.9732  -30.7774   21.3700 C   0  0  0  0  0  0
  -26.0536  -29.3958   20.7209 C   0  0  0  0  0  0
  -27.2377  -28.5898   20.7147 C   0  0  0  0  0  0
  -26.0526  -26.8637   19.5034 C   0  0  0  0  0  0
  -24.8876  -27.6582   19.4982 C   0  0  0  0  0  0
  -23.6501  -29.7995   20.1602 C   0  0  0  0  0  0
  -25.4118  -36.3093   24.0332 C   0  0  1  0  0  0
  -20.5888  -28.3715   23.1273 C   0  0  2  0  0  0
  -20.6786  -26.9440   22.5410 C   0  0  0  0  0  0
  -19.5759  -26.6391   21.5218 C   0  0  0  0  0  0
  -18.1934  -26.7939   22.1625 C   0  0  0  0  0  0
  -19.1538  -28.8875   23.2868 C   0  0  0  0  0  0
  -18.9463  -30.1467   23.8889 C   0  0  0  0  0  0
  -17.6462  -30.6593   24.0566 C   0  0  0  0  0  0
  -25.9051  -34.9456   23.5106 C   0  0  0  0  0  0
  -16.5355  -29.9091   23.6329 C   0  0  0  0  0  0
  -16.7277  -28.6509   23.0353 C   0  0  0  0  0  0
  -26.4479  -31.6582   25.0708 C   0  0  0  0  0  0
  -25.3700  -31.3712   26.1423 C   0  0  0  0  0  0
  -27.0311  -30.3008   24.6156 C   0  0  0  0  0  0
  -27.6050  -32.4299   25.7484 C   0  0  0  0  0  0
  -27.5588  -37.1808   24.8464 C   0  0  0  0  0  0
  -21.4214  -29.3055   22.3666 N   0  0  0  0  0  0
  -26.4299  -37.3788   23.9405 N   0  0  0  0  0  0
  -24.6979  -31.0529   22.0942 N   0  0  0  0  0  0
  -23.4203  -28.8162   23.3054 O   0  0  0  0  0  0
  -28.3709  -26.4091   20.1561 O   0  0  0  0  0  0
  -26.5633  -34.8929   22.4681 O   0  0  0  0  0  0
  -23.5460  -32.1382   23.7246 O   0  0  0  0  0  0
  -29.7494  -20.9930   20.3384 C   0  0  0  0  0  0
  -30.4928  -18.9106   20.3436 C   0  0  0  0  0  0
  -30.1808  -20.0290   24.9557 C   0  0  0  0  0  0
  -28.2262  -16.4296   18.8442 C   0  0  0  0  0  0
  -27.7448  -16.3360   21.5156 C   0  0  0  0  0  0
  -28.9340  -22.2940   20.7271 C   0  0  0  0  0  0
  -30.9428  -17.4362   20.7822 C   0  0  0  0  0  0
  -30.5347  -20.3037   23.4923 C   0  0  0  0  0  0
  -29.2841  -23.7956   20.2236 C   0  0  0  0  0  0
  -29.4912  -19.7228   22.5275 C   0  0  0  0  0  0
  -28.1731  -24.9513   20.4759 C   0  0  0  0  0  0
  -28.6788  -16.5685   20.3161 C   0  0  0  0  0  0
  -30.2144  -20.7299   19.1081 N   0  0  0  0  0  0
  -30.7011  -19.4162   19.1183 N   0  0  0  0  0  0
  -29.8987  -19.8735   21.1419 N   0  0  0  0  0  0
  -30.0866  -16.1630   20.5441 N   0  0  0  0  0  0
  -31.4580  -12.7285   19.0549 H   0  0  0  0  0  0
  -30.4657  -11.5972   19.9179 H   0  0  0  0  0  0
  -29.7677  -11.7360   17.5155 H   0  0  0  0  0  0
  -29.5656  -13.4613   17.6486 H   0  0  0  0  0  0
  -27.8932  -11.2716   18.9112 H   0  0  0  0  0  0
  -27.3395  -12.5222   17.8338 H   0  0  0  0  0  0
  -27.5689  -14.2006   19.5156 H   0  0  0  0  0  0
  -28.8709  -12.1415   21.3236 H   0  0  0  0  0  0
  -28.5339  -13.7182   21.8818 H   0  0  0  0  0  0
  -25.2754   -9.5599   22.4807 H   0  0  0  0  0  0
  -23.9973   -7.4558   22.7521 H   0  0  0  0  0  0
  -21.0843   -8.8770   19.8943 H   0  0  0  0  0  0
  -22.3763  -10.9642   19.6200 H   0  0  0  0  0  0
  -21.1973   -7.6111   23.9666 H   0  0  0  0  0  0
  -21.1475   -6.0529   25.9066 H   0  0  0  0  0  0
  -22.0611   -2.7566   23.2925 H   0  0  0  0  0  0
  -22.4037  -11.9820   22.4881 H   0  0  0  0  0  0
  -21.1010  -13.1162   22.2706 H   0  0  0  0  0  0
  -24.5208  -15.7638   20.2909 H   0  0  0  0  0  0
  -26.1712  -15.5899   19.9469 H   0  0  0  0  0  0
  -26.7213  -32.5447   23.1102 H   0  0  0  0  0  0
  -25.0054  -33.9718   25.0408 H   0  0  0  0  0  0
  -22.7278  -31.2953   21.3891 H   0  0  0  0  0  0
  -23.3758  -35.9623   23.3284 H   0  0  0  0  0  0
  -24.3589  -36.8936   22.2056 H   0  0  0  0  0  0
  -23.7225  -37.6492   23.6665 H   0  0  0  0  0  0
  -26.0949  -31.5347   20.5938 H   0  0  0  0  0  0
  -26.8568  -30.8434   21.9932 H   0  0  0  0  0  0
  -28.1348  -28.9595   21.1915 H   0  0  0  0  0  0
  -25.9999  -25.9106   19.0002 H   0  0  0  0  0  0
  -23.9948  -27.2869   19.0150 H   0  0  0  0  0  0
  -23.7706  -30.5722   19.4007 H   0  0  0  0  0  0
  -22.7727  -29.2256   19.8582 H   0  0  0  0  0  0
  -25.1298  -36.1955   25.0826 H   0  0  0  0  0  0
  -20.9976  -28.3294   24.1393 H   0  0  0  0  0  0
  -20.5700  -26.2336   23.3614 H   0  0  0  0  0  0
  -21.6654  -26.7472   22.1192 H   0  0  0  0  0  0
  -19.6925  -25.6292   21.1268 H   0  0  0  0  0  0
  -19.6687  -27.3187   20.6733 H   0  0  0  0  0  0
  -17.4210  -26.6685   21.4021 H   0  0  0  0  0  0
  -18.0329  -26.0077   22.9017 H   0  0  0  0  0  0
  -19.7935  -30.7290   24.2259 H   0  0  0  0  0  0
  -17.5010  -31.6268   24.5176 H   0  0  0  0  0  0
  -15.5352  -30.2996   23.7643 H   0  0  0  0  0  0
  -15.8682  -28.0824   22.7077 H   0  0  0  0  0  0
  -24.5878  -30.7074   25.7724 H   0  0  0  0  0  0
  -24.8881  -32.2871   26.4859 H   0  0  0  0  0  0
  -25.8004  -30.8865   27.0195 H   0  0  0  0  0  0
  -26.2875  -29.6768   24.1192 H   0  0  0  0  0  0
  -27.4021  -29.7259   25.4648 H   0  0  0  0  0  0
  -27.8737  -30.4297   23.9363 H   0  0  0  0  0  0
  -27.2688  -33.3610   26.2060 H   0  0  0  0  0  0
  -28.3863  -32.6838   25.0308 H   0  0  0  0  0  0
  -28.0713  -31.8413   26.5397 H   0  0  0  0  0  0
  -28.2604  -38.0112   24.7528 H   0  0  0  0  0  0
  -28.1092  -36.2643   24.6274 H   0  0  0  0  0  0
  -27.2306  -37.1442   25.8869 H   0  0  0  0  0  0
  -20.9417  -29.8782   21.6858 H   0  0  0  0  0  0
  -26.0186  -38.2869   24.1389 H   0  0  0  0  0  0
  -30.9013  -20.4989   25.6251 H   0  0  0  0  0  0
  -30.1838  -18.9587   25.1648 H   0  0  0  0  0  0
  -29.1911  -20.4155   25.2036 H   0  0  0  0  0  0
  -28.6056  -17.2693   18.2600 H   0  0  0  0  0  0
  -27.1450  -16.4481   18.7230 H   0  0  0  0  0  0
  -28.6272  -15.5496   18.3443 H   0  0  0  0  0  0
  -26.8614  -16.9740   21.4393 H   0  0  0  0  0  0
  -28.2371  -16.6139   22.4474 H   0  0  0  0  0  0
  -27.3883  -15.3290   21.6517 H   0  0  0  0  0  0
  -28.8943  -22.3450   21.8141 H   0  0  0  0  0  0
  -27.9074  -22.0903   20.4254 H   0  0  0  0  0  0
  -31.1823  -17.4655   21.8443 H   0  0  0  0  0  0
  -31.9067  -17.2832   20.2950 H   0  0  0  0  0  0
  -31.5160  -19.8781   23.2744 H   0  0  0  0  0  0
  -30.6273  -21.3802   23.3380 H   0  0  0  0  0  0
  -29.4805  -23.7554   19.1530 H   0  0  0  0  0  0
  -30.2267  -24.0970   20.6814 H   0  0  0  0  0  0
  -28.5241  -20.2055   22.6674 H   0  0  0  0  0  0
  -29.3300  -18.6653   22.7352 H   0  0  0  0  0  0
  -27.9226  -24.9297   21.5366 H   0  0  0  0  0  0
  -27.2786  -24.5839   19.9821 H   0  0  0  0  0  0
  -28.5713  -17.6407   20.3754 H   0  0  0  0  0  0
  1 25  1  0  0  0
  1 30  2  0  0  0
  1 86  1  0  0  0
  2  3  1  0  0  0
  2 25  1  0  0  0
  2 87  1  0  0  0
  2 88  1  0  0  0
  3  4  1  0  0  0
  3 89  1  0  0  0
  3 90  1  0  0  0
  4  5  1  0  0  0
  4 91  1  0  0  0
  4 92  1  0  0  0
  5  6  1  0  0  0
  5 26  1  0  0  0
  5 93  1  0  0  0
  6 25  1  0  0  0
  6 94  1  0  0  0
  6 95  1  0  0  0
  7  8  2  0  0  0
  7 26  1  0  0  0
  7 29  1  0  0  0
  8  9  1  0  0  0
  8 22  1  0  0  0
  9 10  1  0  0  0
  9 27  2  0  0  0
 10 11  2  0  0  0
 10 15  1  0  0  0
 11 12  1  0  0  0
 11 96  1  0  0  0
 12 13  2  0  0  0
 12 97  1  0  0  0
 13 14  1  0  0  0
 13 31  1  0  0  0
 14 15  2  0  0  0
 14 98  1  0  0  0
 15 99  1  0  0  0
 16 17  2  0  0  0
 16 21  1  0  0  0
 16 31  1  0  0  0
 17 18  1  0  0  0
 17100  1  0  0  0
 18 19  2  0  0  0
 18101  1  0  0  0
 19 20  1  0  0  0
 19 24  1  0  0  0
 20 21  2  0  0  0
 20102  1  0  0  0
 21 23  1  0  0  0
 22 28  1  0  0  0
 22 32  2  0  0  0
 26 27  1  0  0  0
 28103  1  0  0  0
 28104  1  0  0  0
 29105  1  0  0  0
 29106  1  0  0  0
 33 34  1  0  0  0
 33 66  1  0  0  0
 33 70  2  0  0  0
 34 36  1  0  0  0
 34 59  1  0  0  0
 34107  1  0  0  0
 35 44  2  0  0  0
 35 45  1  0  0  0
 35 68  1  0  0  0
 36 56  1  0  0  0
 36108  1  0  0  0
 37 39  1  0  0  0
 37 47  1  0  0  0
 37 66  1  0  0  0
 37109  1  0  0  0
 38 43  2  0  0  0
 38 46  1  0  0  0
 38 47  1  0  0  0
 39 64  1  0  0  0
 39 67  2  0  0  0
 40 52  1  0  0  0
 40 53  2  0  0  0
 40 58  1  0  0  0
 41110  1  0  0  0
 41111  1  0  0  0
 41112  1  0  0  0
 41 48  1  0  0  0
 42 43  1  0  0  0
 42 66  1  0  0  0
 42113  1  0  0  0
 42114  1  0  0  0
 43 44  1  0  0  0
 44115  1  0  0  0
 45 46  2  0  0  0
 45116  1  0  0  0
 46117  1  0  0  0
 47118  1  0  0  0
 47119  1  0  0  0
 48 56  1  0  0  0
 48 65  1  0  0  0
 48120  1  0  0  0
 49 50  1  0  0  0
 49 53  1  0  0  0
 49 64  1  0  0  0
 49121  1  0  0  0
 50 51  1  0  0  0
 50122  1  0  0  0
 50123  1  0  0  0
 51 52  1  0  0  0
 51124  1  0  0  0
 51125  1  0  0  0
 52126  1  0  0  0
 52127  1  0  0  0
 53 54  1  0  0  0
 54 55  2  0  0  0
 54128  1  0  0  0
 55 57  1  0  0  0
 55129  1  0  0  0
 56 69  2  0  0  0
 57 58  2  0  0  0
 57130  1  0  0  0
 58131  1  0  0  0
 59 60  1  0  0  0
 59 61  1  0  0  0
 59 62  1  0  0  0
 60132  1  0  0  0
 60133  1  0  0  0
 60134  1  0  0  0
 61135  1  0  0  0
 61136  1  0  0  0
 61137  1  0  0  0
 62138  1  0  0  0
 62139  1  0  0  0
 62140  1  0  0  0
 63 65  1  0  0  0
 63141  1  0  0  0
 63142  1  0  0  0
 63143  1  0  0  0
 64144  1  0  0  0
 65145  1  0  0  0
 68 81  1  0  0  0
 71 76  1  0  0  0
 71 83  2  0  0  0
 71 85  1  0  0  0
 72 77  1  0  0  0
 72 84  2  0  0  0
 72 85  1  0  0  0
 73 78  1  0  0  0
 73146  1  0  0  0
 73147  1  0  0  0
 73148  1  0  0  0
 74149  1  0  0  0
 74150  1  0  0  0
 74151  1  0  0  0
 74 82  1  0  0  0
 75 82  1  0  0  0
 75152  1  0  0  0
 75153  1  0  0  0
 75154  1  0  0  0
 76 79  1  0  0  0
 76155  1  0  0  0
 76156  1  0  0  0
 77 86  1  0  0  0
 77157  1  0  0  0
 77158  1  0  0  0
 78 80  1  0  0  0
 78159  1  0  0  0
 78160  1  0  0  0
 79 81  1  0  0  0
 79161  1  0  0  0
 79162  1  0  0  0
 80 85  1  0  0  0
 80163  1  0  0  0
 80164  1  0  0  0
 81165  1  0  0  0
 81166  1  0  0  0
 82 86  1  0  0  0
 82167  1  0  0  0
 83 84  1  0  0  0
M  ISO  4   1 100  68 101  81 101  86 100
M  END
> <chiral flag>
0

> <version>
0

> <s_m_source_file>
/data/baiqing/PycharmProjects/Reinvent-master-3.2/result/LINK_invent/BTK/process_docking_weight1_custom_sum_contain_oxygen_bond_distance_aromatic_linkinvent_7_9_3/rearranged_h_0060.sdf

> <i_m_source_file_index>
4

> <r_mmod_Potential_Energy-OPLS-2005>
420.399932861328

> <r_mmod_Stretch_Energy-OPLS-2005>
153.302963256836

> <r_mmod_Bend_Energy-OPLS-2005>
269.965362548828

> <r_mmod_Torsional_Energy-OPLS-2005>
291.073822021484

> <r_mmod_Improper_Torsional_Energy-OPLS-2005>
5.58722400665283

> <r_mmod_Van_der_Waal_Energy-OPLS-2005>
144.504470825195

> <r_mmod_Electrostatic_Energy-OPLS-2005>
-334.8720703125

> <r_mmod_Solvation_Energy-OPLS-2005>
-222.152160644531

> <b_mmod_Minimization_Converged-OPLS-2005>
0

> <r_mmod_RMS_Derivative-OPLS-2005>
2.86290502548218

$$$$
5
                    3D
 Structure written by MMmdl.
151159  0  0  1  0            999 V2000
  -30.4474  -15.2336   20.4061 C   0  0  0  0  0  0
  -30.4461  -12.7981   19.4896 C   0  0  0  0  0  0
  -29.5196  -12.5787   18.2649 C   0  0  0  0  0  0
  -28.0642  -12.3165   18.6940 C   0  0  0  0  0  0
  -27.6172  -13.2615   19.8381 C   0  0  2  0  0  0
  -28.6759  -13.3333   20.9588 C   0  0  0  0  0  0
  -25.2343  -13.8176   20.5712 C   0  0  0  0  0  0
  -24.1707  -13.0381   20.9230 C   0  0  0  0  0  0
  -24.6386  -11.6892   20.8757 C   0  0  0  0  0  0
  -23.9090  -10.4266   21.0404 C   0  0  0  0  0  0
  -24.3631   -9.4195   21.9190 C   0  0  0  0  0  0
  -23.6301   -8.2235   22.0754 C   0  0  0  0  0  0
  -22.4285   -8.0277   21.3545 C   0  0  0  0  0  0
  -21.9932   -9.0251   20.4643 C   0  0  0  0  0  0
  -22.7260  -10.2126   20.3057 C   0  0  0  0  0  0
  -21.6850   -6.0737   22.5280 C   0  0  0  0  0  0
  -21.3996   -6.5629   23.8215 C   0  0  0  0  0  0
  -21.3663   -5.6781   24.9174 C   0  0  0  0  0  0
  -21.6054   -4.3045   24.7222 C   0  0  0  0  0  0
  -21.8815   -3.8144   23.4336 C   0  0  0  0  0  0
  -21.9196   -4.6964   22.3399 C   0  0  0  0  0  0
  -22.7724  -13.5137   21.1881 C   0  0  0  0  0  0
  -22.1663   -4.2155   21.0974 F   0  0  0  0  0  0
  -21.5654   -3.4529   25.7734 F   0  0  0  0  0  0
  -29.8832  -13.9184   20.3372 N   0  0  0  0  0  0
  -26.2836  -12.9466   20.3313 N   0  0  0  0  0  0
  -25.9332  -11.6578   20.5775 N   0  0  0  0  0  0
  -22.0389  -12.8145   22.0454 N   0  0  0  0  0  0
  -25.3836  -15.1902   20.4060 N   0  0  0  0  0  0
  -31.6649  -15.2213   20.1630 O   0  0  0  0  0  0
  -21.6639   -6.8884   21.4248 O   0  0  0  0  0  0
  -22.3398  -14.5445   20.6730 O   0  0  0  0  0  0
  -24.6638  -31.8258   23.1700 C   0  0  0  0  0  0
  -25.9327  -32.4599   23.8157 C   0  0  1  0  0  0
  -27.2099  -26.9454   20.1804 C   0  0  0  0  0  0
  -25.5996  -33.8405   24.2070 N   0  0  0  0  0  0
  -23.4744  -30.4410   21.5215 C   0  0  2  0  0  0
  -24.9224  -28.8314   20.1073 C   0  0  0  0  0  0
  -22.7661  -29.4472   22.4794 C   0  0  0  0  0  0
  -18.0318  -28.1420   22.8453 C   0  0  0  0  0  0
  -24.1479  -36.7219   23.2651 C   0  0  0  0  0  0
  -26.0425  -30.6357   21.3932 C   0  0  0  0  0  0
  -26.1066  -29.2276   20.7405 C   0  0  0  0  0  0
  -27.2461  -28.3066   20.7535 C   0  0  0  0  0  0
  -25.9959  -26.6979   19.4967 C   0  0  0  0  0  0
  -24.8919  -27.5858   19.4617 C   0  0  0  0  0  0
  -23.7074  -29.7590   20.1458 C   0  0  0  0  0  0
  -25.4117  -36.2984   24.0312 C   0  0  1  0  0  0
  -20.5939  -28.3768   23.1176 C   0  0  2  0  0  0
  -20.6794  -26.9455   22.5388 C   0  0  0  0  0  0
  -19.5771  -26.6389   21.5202 C   0  0  0  0  0  0
  -18.1951  -26.7950   22.1612 C   0  0  0  0  0  0
  -19.1581  -28.8913   23.2800 C   0  0  0  0  0  0
  -18.9507  -30.1493   23.8851 C   0  0  0  0  0  0
  -17.6505  -30.6607   24.0558 C   0  0  0  0  0  0
  -25.9092  -34.9370   23.5012 C   0  0  0  0  0  0
  -16.5387  -29.9099   23.6356 C   0  0  0  0  0  0
  -16.7302  -28.6521   23.0363 C   0  0  0  0  0  0
  -26.4569  -31.6534   25.0677 C   0  0  0  0  0  0
  -25.3700  -31.3777   26.1341 C   0  0  0  0  0  0
  -27.0465  -30.2918   24.6364 C   0  0  0  0  0  0
  -27.6075  -32.4333   25.7470 C   0  0  0  0  0  0
  -27.5559  -37.1765   24.8477 C   0  0  0  0  0  0
  -21.4332  -29.3064   22.3545 N   0  0  0  0  0  0
  -26.4265  -37.3721   23.9426 N   0  0  0  0  0  0
  -24.7490  -30.9937   22.0826 N   0  0  0  0  0  0
  -23.4220  -28.8025   23.3017 O   0  0  0  0  0  0
  -28.2027  -25.8388   20.2671 O   0  0  0  0  0  0
  -26.5699  -34.8917   22.4605 O   0  0  0  0  0  0
  -23.5714  -32.1220   23.6818 O   0  0  0  0  0  0
  -29.4763  -20.6298   19.1728 C   0  0  0  0  0  0
  -29.4450  -19.6854   20.2852 C   0  0  0  0  0  0
  -28.6114  -21.7693   21.4021 C   0  0  0  0  0  0
  -28.6412  -22.7139   20.2763 C   0  0  0  0  0  0
  -28.0755  -22.2546   22.7331 C   0  0  0  0  0  0
  -28.3172  -16.6029   20.8990 C   0  0  0  0  0  0
  -30.1916  -18.1077   20.2916 C   0  0  0  0  0  0
  -27.8255  -24.2534   20.1235 C   0  0  0  0  0  0
  -29.0913  -22.0023   19.1620 N   0  0  0  0  0  0
  -29.0058  -20.3908   21.4096 N   0  0  0  0  0  0
  -29.7209  -16.5382   20.5023 N   0  0  0  0  0  0
  -31.4488  -13.0288   19.1270 H   0  0  0  0  0  0
  -30.5619  -11.8746   20.0608 H   0  0  0  0  0  0
  -29.8827  -11.7540   17.6485 H   0  0  0  0  0  0
  -29.5477  -13.4664   17.6321 H   0  0  0  0  0  0
  -27.9946  -11.2797   19.0249 H   0  0  0  0  0  0
  -27.3926  -12.4049   17.8387 H   0  0  0  0  0  0
  -27.5515  -14.2498   19.3836 H   0  0  0  0  0  0
  -28.8662  -12.3331   21.3514 H   0  0  0  0  0  0
  -28.3391  -13.8924   21.8260 H   0  0  0  0  0  0
  -25.2769   -9.5685   22.4774 H   0  0  0  0  0  0
  -24.0014   -7.4633   22.7475 H   0  0  0  0  0  0
  -21.0872   -8.8779   19.8936 H   0  0  0  0  0  0
  -22.3723  -10.9679   19.6181 H   0  0  0  0  0  0
  -21.1946   -7.6128   23.9718 H   0  0  0  0  0  0
  -21.1501   -6.0505   25.9085 H   0  0  0  0  0  0
  -22.0584   -2.7606   23.2829 H   0  0  0  0  0  0
  -22.3983  -11.9790   22.4832 H   0  0  0  0  0  0
  -21.1032  -13.1199   22.2698 H   0  0  0  0  0  0
  -24.6069  -15.8339   20.5113 H   0  0  0  0  0  0
  -26.2324  -15.6395   20.0930 H   0  0  0  0  0  0
  -26.7398  -32.5130   23.0869 H   0  0  0  0  0  0
  -25.0132  -33.9461   25.0219 H   0  0  0  0  0  0
  -22.7889  -31.2744   21.3562 H   0  0  0  0  0  0
  -23.3757  -35.9540   23.3294 H   0  0  0  0  0  0
  -24.3565  -36.8871   22.2073 H   0  0  0  0  0  0
  -23.7215  -37.6398   23.6700 H   0  0  0  0  0  0
  -26.2140  -31.3675   20.6028 H   0  0  0  0  0  0
  -26.9097  -30.6953   22.0388 H   0  0  0  0  0  0
  -28.1398  -28.6058   21.2819 H   0  0  0  0  0  0
  -25.8515  -25.7488   19.0023 H   0  0  0  0  0  0
  -23.9946  -27.2738   18.9442 H   0  0  0  0  0  0
  -23.8544  -30.5284   19.3871 H   0  0  0  0  0  0
  -22.8131  -29.2158   19.8333 H   0  0  0  0  0  0
  -25.1303  -36.1796   25.0802 H   0  0  0  0  0  0
  -21.0027  -28.3371   24.1297 H   0  0  0  0  0  0
  -20.5688  -26.2391   23.3627 H   0  0  0  0  0  0
  -21.6657  -26.7431   22.1191 H   0  0  0  0  0  0
  -19.6941  -25.6295   21.1248 H   0  0  0  0  0  0
  -19.6704  -27.3183   20.6715 H   0  0  0  0  0  0
  -17.4218  -26.6691   21.4013 H   0  0  0  0  0  0
  -18.0350  -26.0099   22.9020 H   0  0  0  0  0  0
  -19.7987  -30.7306   24.2202 H   0  0  0  0  0  0
  -17.5066  -31.6283   24.5173 H   0  0  0  0  0  0
  -15.5392  -30.2997   23.7708 H   0  0  0  0  0  0
  -15.8692  -28.0827   22.7115 H   0  0  0  0  0  0
  -24.5900  -30.7103   25.7651 H   0  0  0  0  0  0
  -24.8871  -32.2969   26.4661 H   0  0  0  0  0  0
  -25.7936  -30.9016   27.0190 H   0  0  0  0  0  0
  -26.3125  -29.6601   24.1346 H   0  0  0  0  0  0
  -27.4013  -29.7263   25.4987 H   0  0  0  0  0  0
  -27.9042  -30.4140   23.9751 H   0  0  0  0  0  0
  -27.2679  -33.3714   26.1870 H   0  0  0  0  0  0
  -28.3962  -32.6753   25.0336 H   0  0  0  0  0  0
  -28.0639  -31.8562   26.5519 H   0  0  0  0  0  0
  -28.2573  -38.0064   24.7520 H   0  0  0  0  0  0
  -28.1049  -36.2593   24.6294 H   0  0  0  0  0  0
  -27.2286  -37.1408   25.8882 H   0  0  0  0  0  0
  -20.9608  -29.8774   21.6681 H   0  0  0  0  0  0
  -26.0121  -38.2786   24.1431 H   0  0  0  0  0  0
  -29.8674  -20.2738   18.2311 H   0  0  0  0  0  0
  -28.6025  -23.1575   23.0415 H   0  0  0  0  0  0
  -28.1970  -21.5098   23.5216 H   0  0  0  0  0  0
  -27.0145  -22.4877   22.6508 H   0  0  0  0  0  0
  -28.0452  -15.8862   21.6635 H   0  0  0  0  0  0
  -27.6902  -16.4831   20.0185 H   0  0  0  0  0  0
  -28.0607  -17.5657   21.3416 H   0  0  0  0  0  0
  -31.0196  -18.2225   20.9903 H   0  0  0  0  0  0
  -30.6847  -18.0790   19.3206 H   0  0  0  0  0  0
  -26.9460  -24.1372   20.7580 H   0  0  0  0  0  0
  -27.4282  -24.1832   19.1121 H   0  0  0  0  0  0
  1 25  1  0  0  0
  1 30  2  0  0  0
  1 81  1  0  0  0
  2  3  1  0  0  0
  2 25  1  0  0  0
  2 82  1  0  0  0
  2 83  1  0  0  0
  3  4  1  0  0  0
  3 84  1  0  0  0
  3 85  1  0  0  0
  4  5  1  0  0  0
  4 86  1  0  0  0
  4 87  1  0  0  0
  5  6  1  0  0  0
  5 26  1  0  0  0
  5 88  1  0  0  0
  6 25  1  0  0  0
  6 89  1  0  0  0
  6 90  1  0  0  0
  7  8  2  0  0  0
  7 26  1  0  0  0
  7 29  1  0  0  0
  8  9  1  0  0  0
  8 22  1  0  0  0
  9 10  1  0  0  0
  9 27  2  0  0  0
 10 11  2  0  0  0
 10 15  1  0  0  0
 11 12  1  0  0  0
 11 91  1  0  0  0
 12 13  2  0  0  0
 12 92  1  0  0  0
 13 14  1  0  0  0
 13 31  1  0  0  0
 14 15  2  0  0  0
 14 93  1  0  0  0
 15 94  1  0  0  0
 16 17  2  0  0  0
 16 21  1  0  0  0
 16 31  1  0  0  0
 17 18  1  0  0  0
 17 95  1  0  0  0
 18 19  2  0  0  0
 18 96  1  0  0  0
 19 20  1  0  0  0
 19 24  1  0  0  0
 20 21  2  0  0  0
 20 97  1  0  0  0
 21 23  1  0  0  0
 22 28  1  0  0  0
 22 32  2  0  0  0
 26 27  1  0  0  0
 28 98  1  0  0  0
 28 99  1  0  0  0
 29100  1  0  0  0
 29101  1  0  0  0
 33 34  1  0  0  0
 33 66  1  0  0  0
 33 70  2  0  0  0
 34 36  1  0  0  0
 34 59  1  0  0  0
 34102  1  0  0  0
 35 44  2  0  0  0
 35 45  1  0  0  0
 35 68  1  0  0  0
 36 56  1  0  0  0
 36103  1  0  0  0
 37 39  1  0  0  0
 37 47  1  0  0  0
 37 66  1  0  0  0
 37104  1  0  0  0
 38 43  2  0  0  0
 38 46  1  0  0  0
 38 47  1  0  0  0
 39 64  1  0  0  0
 39 67  2  0  0  0
 40 52  1  0  0  0
 40 53  2  0  0  0
 40 58  1  0  0  0
 41105  1  0  0  0
 41106  1  0  0  0
 41107  1  0  0  0
 41 48  1  0  0  0
 42 43  1  0  0  0
 42 66  1  0  0  0
 42108  1  0  0  0
 42109  1  0  0  0
 43 44  1  0  0  0
 44110  1  0  0  0
 45 46  2  0  0  0
 45111  1  0  0  0
 46112  1  0  0  0
 47113  1  0  0  0
 47114  1  0  0  0
 48 56  1  0  0  0
 48 65  1  0  0  0
 48115  1  0  0  0
 49 50  1  0  0  0
 49 53  1  0  0  0
 49 64  1  0  0  0
 49116  1  0  0  0
 50 51  1  0  0  0
 50117  1  0  0  0
 50118  1  0  0  0
 51 52  1  0  0  0
 51119  1  0  0  0
 51120  1  0  0  0
 52121  1  0  0  0
 52122  1  0  0  0
 53 54  1  0  0  0
 54 55  2  0  0  0
 54123  1  0  0  0
 55 57  1  0  0  0
 55124  1  0  0  0
 56 69  2  0  0  0
 57 58  2  0  0  0
 57125  1  0  0  0
 58126  1  0  0  0
 59 60  1  0  0  0
 59 61  1  0  0  0
 59 62  1  0  0  0
 60127  1  0  0  0
 60128  1  0  0  0
 60129  1  0  0  0
 61130  1  0  0  0
 61131  1  0  0  0
 61132  1  0  0  0
 62133  1  0  0  0
 62134  1  0  0  0
 62135  1  0  0  0
 63 65  1  0  0  0
 63136  1  0  0  0
 63137  1  0  0  0
 63138  1  0  0  0
 64139  1  0  0  0
 65140  1  0  0  0
 68 78  1  0  0  0
 71 72  2  0  0  0
 71 79  1  0  0  0
 71141  1  0  0  0
 72 77  1  0  0  0
 72 80  1  0  0  0
 73 74  1  0  0  0
 73 75  1  0  0  0
 73 80  2  0  0  0
 74 78  1  0  0  0
 74 79  2  0  0  0
 75142  1  0  0  0
 75143  1  0  0  0
 75144  1  0  0  0
 76 81  1  0  0  0
 76145  1  0  0  0
 76146  1  0  0  0
 76147  1  0  0  0
 77 81  1  0  0  0
 77148  1  0  0  0
 77149  1  0  0  0
 78150  1  0  0  0
 78151  1  0  0  0
M  ISO  4   1 100  68 101  78 101  81 100
M  END
> <chiral flag>
0

> <version>
0

> <s_m_source_file>
/data/baiqing/PycharmProjects/Reinvent-master-3.2/result/LINK_invent/BTK/process_docking_weight1_custom_sum_contain_oxygen_bond_distance_aromatic_linkinvent_7_9_3/rearranged_h_0060.sdf

> <i_m_source_file_index>
5

> <r_mmod_Potential_Energy-OPLS-2005>
1289.39392089844

> <r_mmod_Stretch_Energy-OPLS-2005>
504.321716308594

> <r_mmod_Bend_Energy-OPLS-2005>
438.552368164062

> <r_mmod_Torsional_Energy-OPLS-2005>
258.78564453125

> <r_mmod_Improper_Torsional_Energy-OPLS-2005>
9.79458045959473

> <r_mmod_Van_der_Waal_Energy-OPLS-2005>
139.395462036133

> <r_mmod_Electrostatic_Energy-OPLS-2005>
-250.357849121094

> <r_mmod_Solvation_Energy-OPLS-2005>
-227.442520141602

> <b_mmod_Minimization_Converged-OPLS-2005>
0

> <r_mmod_RMS_Derivative-OPLS-2005>
2.39137959480286

$$$$
6
                    3D
 Structure written by MMmdl.
153161  0  0  1  0            999 V2000
  -30.4656  -15.2565   20.3846 C   0  0  0  0  0  0
  -30.4462  -12.8119   19.5046 C   0  0  0  0  0  0
  -29.5305  -12.5862   18.2741 C   0  0  0  0  0  0
  -28.0761  -12.3142   18.6990 C   0  0  0  0  0  0
  -27.6163  -13.2672   19.8284 C   0  0  2  0  0  0
  -28.6654  -13.3891   20.9553 C   0  0  0  0  0  0
  -25.2320  -13.8174   20.5661 C   0  0  0  0  0  0
  -24.1722  -13.0363   20.9258 C   0  0  0  0  0  0
  -24.6410  -11.6879   20.8780 C   0  0  0  0  0  0
  -23.9101  -10.4252   21.0403 C   0  0  0  0  0  0
  -24.3651   -9.4166   21.9168 C   0  0  0  0  0  0
  -23.6316   -8.2208   22.0730 C   0  0  0  0  0  0
  -22.4290   -8.0265   21.3524 C   0  0  0  0  0  0
  -21.9935   -9.0241   20.4622 C   0  0  0  0  0  0
  -22.7279  -10.2107   20.3039 C   0  0  0  0  0  0
  -21.6860   -6.0731   22.5269 C   0  0  0  0  0  0
  -21.4025   -6.5640   23.8202 C   0  0  0  0  0  0
  -21.3650   -5.6795   24.9165 C   0  0  0  0  0  0
  -21.6037   -4.3057   24.7219 C   0  0  0  0  0  0
  -21.8826   -3.8147   23.4345 C   0  0  0  0  0  0
  -21.9198   -4.6960   22.3399 C   0  0  0  0  0  0
  -22.7736  -13.5109   21.1915 C   0  0  0  0  0  0
  -22.1672   -4.2144   21.0975 F   0  0  0  0  0  0
  -21.5608   -3.4539   25.7731 F   0  0  0  0  0  0
  -29.8875  -13.9467   20.3338 N   0  0  0  0  0  0
  -26.2827  -12.9485   20.3238 N   0  0  0  0  0  0
  -25.9357  -11.6589   20.5764 N   0  0  0  0  0  0
  -22.0430  -12.8087   22.0497 N   0  0  0  0  0  0
  -25.3707  -15.1892   20.3935 N   0  0  0  0  0  0
  -31.6742  -15.2396   20.1075 O   0  0  0  0  0  0
  -21.6644   -6.8872   21.4230 O   0  0  0  0  0  0
  -22.3386  -14.5402   20.6752 O   0  0  0  0  0  0
  -24.6625  -31.8212   23.1686 C   0  0  0  0  0  0
  -25.9311  -32.4547   23.8145 C   0  0  1  0  0  0
  -27.2241  -26.9374   20.1680 C   0  0  0  0  0  0
  -25.5975  -33.8364   24.2039 N   0  0  0  0  0  0
  -23.4773  -30.4333   21.5181 C   0  0  2  0  0  0
  -24.9321  -28.8249   20.1115 C   0  0  0  0  0  0
  -22.7673  -29.4406   22.4763 C   0  0  0  0  0  0
  -18.0325  -28.1374   22.8453 C   0  0  0  0  0  0
  -24.1506  -36.7206   23.2660 C   0  0  0  0  0  0
  -26.0497  -30.6254   21.4047 C   0  0  0  0  0  0
  -26.1181  -29.2201   20.7428 C   0  0  0  0  0  0
  -27.2585  -28.2983   20.7481 C   0  0  0  0  0  0
  -26.0031  -26.6930   19.4955 C   0  0  0  0  0  0
  -24.8981  -27.5780   19.4714 C   0  0  0  0  0  0
  -23.7196  -29.7529   20.1441 C   0  0  0  0  0  0
  -25.4141  -36.2931   24.0297 C   0  0  1  0  0  0
  -20.5951  -28.3709   23.1185 C   0  0  2  0  0  0
  -20.6790  -26.9384   22.5397 C   0  0  0  0  0  0
  -19.5765  -26.6337   21.5202 C   0  0  0  0  0  0
  -18.1947  -26.7906   22.1605 C   0  0  0  0  0  0
  -19.1584  -28.8863   23.2800 C   0  0  0  0  0  0
  -18.9507  -30.1460   23.8826 C   0  0  0  0  0  0
  -17.6499  -30.6571   24.0536 C   0  0  0  0  0  0
  -25.9107  -34.9326   23.4985 C   0  0  0  0  0  0
  -16.5385  -29.9048   23.6340 C   0  0  0  0  0  0
  -16.7305  -28.6466   23.0348 C   0  0  0  0  0  0
  -26.4558  -31.6508   25.0692 C   0  0  0  0  0  0
  -25.3682  -31.3767   26.1339 C   0  0  0  0  0  0
  -27.0478  -30.2863   24.6488 C   0  0  0  0  0  0
  -27.6017  -32.4374   25.7483 C   0  0  0  0  0  0
  -27.5569  -37.1746   24.8463 C   0  0  0  0  0  0
  -21.4336  -29.3012   22.3542 N   0  0  0  0  0  0
  -26.4276  -37.3667   23.9409 N   0  0  0  0  0  0
  -24.7509  -30.9876   22.0828 N   0  0  0  0  0  0
  -23.4223  -28.7961   23.2990 O   0  0  0  0  0  0
  -28.2201  -25.8275   20.2295 O   0  0  0  0  0  0
  -26.5726  -34.8863   22.4584 O   0  0  0  0  0  0
  -23.5694  -32.1197   23.6774 O   0  0  0  0  0  0
  -29.5688  -22.0593   21.0764 C   0  0  0  0  0  0
  -28.6298  -22.6732   20.1453 C   0  0  0  0  0  0
  -29.4312  -19.7138   20.2632 C   0  0  0  0  0  0
  -29.6340  -22.7003   23.5273 C   0  0  0  0  0  0
  -28.5159  -16.5875   21.2728 C   0  0  0  0  0  0
  -30.2417  -22.9089   22.1368 C   0  0  0  0  0  0
  -27.8351  -24.2380   20.0948 C   0  0  0  0  0  0
  -30.1405  -18.1226   20.1049 C   0  0  0  0  0  0
  -29.9436  -20.6803   21.1032 N   0  0  0  0  0  0
  -28.1675  -21.6282   19.3268 N   0  0  0  0  0  0
  -28.5518  -20.2692   19.3508 N   0  0  0  0  0  0
  -29.7418  -16.5588   20.4883 N   0  0  0  0  0  0
  -31.4539  -13.0304   19.1506 H   0  0  0  0  0  0
  -30.5447  -11.8985   20.0938 H   0  0  0  0  0  0
  -29.9042  -11.7618   17.6653 H   0  0  0  0  0  0
  -29.5613  -13.4723   17.6373 H   0  0  0  0  0  0
  -28.0164  -11.2821   19.0430 H   0  0  0  0  0  0
  -27.4083  -12.3879   17.8396 H   0  0  0  0  0  0
  -27.5388  -14.2437   19.3514 H   0  0  0  0  0  0
  -28.8478  -12.4171   21.4160 H   0  0  0  0  0  0
  -28.3016  -14.0178   21.7643 H   0  0  0  0  0  0
  -25.2792   -9.5634   22.4747 H   0  0  0  0  0  0
  -24.0024   -7.4582   22.7432 H   0  0  0  0  0  0
  -21.0870   -8.8775   19.8917 H   0  0  0  0  0  0
  -22.3748  -10.9659   19.6157 H   0  0  0  0  0  0
  -21.2042   -7.6151   23.9708 H   0  0  0  0  0  0
  -21.1450   -6.0519   25.9061 H   0  0  0  0  0  0
  -22.0614   -2.7608   23.2847 H   0  0  0  0  0  0
  -22.4140  -11.9837   22.4980 H   0  0  0  0  0  0
  -21.0992  -13.0990   22.2632 H   0  0  0  0  0  0
  -24.5819  -15.8181   20.4948 H   0  0  0  0  0  0
  -26.1970  -15.6444   20.0310 H   0  0  0  0  0  0
  -26.7376  -32.5066   23.0859 H   0  0  0  0  0  0
  -25.0052  -33.9440   25.0135 H   0  0  0  0  0  0
  -22.7900  -31.2633   21.3449 H   0  0  0  0  0  0
  -23.3756  -35.9548   23.3280 H   0  0  0  0  0  0
  -24.3594  -36.8895   22.2081 H   0  0  0  0  0  0
  -23.7286  -37.6392   23.6752 H   0  0  0  0  0  0
  -26.2446  -31.3686   20.6311 H   0  0  0  0  0  0
  -26.9044  -30.6670   22.0676 H   0  0  0  0  0  0
  -28.1554  -28.5962   21.2724 H   0  0  0  0  0  0
  -25.8531  -25.7455   18.9991 H   0  0  0  0  0  0
  -23.9966  -27.2617   18.9632 H   0  0  0  0  0  0
  -23.8804  -30.5223   19.3883 H   0  0  0  0  0  0
  -22.8297  -29.2096   19.8211 H   0  0  0  0  0  0
  -25.1334  -36.1709   25.0787 H   0  0  0  0  0  0
  -21.0039  -28.3295   24.1306 H   0  0  0  0  0  0
  -20.5639  -26.2311   23.3630 H   0  0  0  0  0  0
  -21.6650  -26.7319   22.1219 H   0  0  0  0  0  0
  -19.6924  -25.6232   21.1259 H   0  0  0  0  0  0
  -19.6730  -27.3121   20.6712 H   0  0  0  0  0  0
  -17.4219  -26.6658   21.4007 H   0  0  0  0  0  0
  -18.0336  -26.0046   22.9000 H   0  0  0  0  0  0
  -19.7986  -30.7292   24.2158 H   0  0  0  0  0  0
  -17.5048  -31.6251   24.5133 H   0  0  0  0  0  0
  -15.5379  -30.2921   23.7707 H   0  0  0  0  0  0
  -15.8706  -28.0776   22.7089 H   0  0  0  0  0  0
  -24.5893  -30.7077   25.7658 H   0  0  0  0  0  0
  -24.8845  -32.2968   26.4624 H   0  0  0  0  0  0
  -25.7912  -30.9033   27.0207 H   0  0  0  0  0  0
  -26.3167  -29.6493   24.1500 H   0  0  0  0  0  0
  -27.3974  -29.7267   25.5178 H   0  0  0  0  0  0
  -27.9110  -30.3999   23.9928 H   0  0  0  0  0  0
  -27.2541  -33.3730   26.1872 H   0  0  0  0  0  0
  -28.3892  -32.6866   25.0357 H   0  0  0  0  0  0
  -28.0608  -31.8651   26.5549 H   0  0  0  0  0  0
  -28.2528  -38.0086   24.7495 H   0  0  0  0  0  0
  -28.1110  -36.2608   24.6288 H   0  0  0  0  0  0
  -27.2295  -37.1379   25.8865 H   0  0  0  0  0  0
  -20.9580  -29.8755   21.6730 H   0  0  0  0  0  0
  -26.0113  -38.2718   24.1417 H   0  0  0  0  0  0
  -30.1439  -23.3195   24.2663 H   0  0  0  0  0  0
  -29.7240  -21.6614   23.8438 H   0  0  0  0  0  0
  -28.5770  -22.9657   23.5347 H   0  0  0  0  0  0
  -27.7481  -16.0147   20.7705 H   0  0  0  0  0  0
  -28.1188  -17.5928   21.4105 H   0  0  0  0  0  0
  -28.6858  -16.1732   22.2661 H   0  0  0  0  0  0
  -30.1796  -23.9613   21.8579 H   0  0  0  0  0  0
  -31.3045  -22.6640   22.1569 H   0  0  0  0  0  0
  -27.0057  -24.1142   20.7916 H   0  0  0  0  0  0
  -27.3677  -24.1936   19.1124 H   0  0  0  0  0  0
  -31.1210  -18.2453   20.5652 H   0  0  0  0  0  0
  -30.3722  -18.0663   19.0422 H   0  0  0  0  0  0
  1 25  1  0  0  0
  1 30  2  0  0  0
  1 82  1  0  0  0
  2  3  1  0  0  0
  2 25  1  0  0  0
  2 83  1  0  0  0
  2 84  1  0  0  0
  3  4  1  0  0  0
  3 85  1  0  0  0
  3 86  1  0  0  0
  4  5  1  0  0  0
  4 87  1  0  0  0
  4 88  1  0  0  0
  5  6  1  0  0  0
  5 26  1  0  0  0
  5 89  1  0  0  0
  6 25  1  0  0  0
  6 90  1  0  0  0
  6 91  1  0  0  0
  7  8  2  0  0  0
  7 26  1  0  0  0
  7 29  1  0  0  0
  8  9  1  0  0  0
  8 22  1  0  0  0
  9 10  1  0  0  0
  9 27  2  0  0  0
 10 11  2  0  0  0
 10 15  1  0  0  0
 11 12  1  0  0  0
 11 92  1  0  0  0
 12 13  2  0  0  0
 12 93  1  0  0  0
 13 14  1  0  0  0
 13 31  1  0  0  0
 14 15  2  0  0  0
 14 94  1  0  0  0
 15 95  1  0  0  0
 16 17  2  0  0  0
 16 21  1  0  0  0
 16 31  1  0  0  0
 17 18  1  0  0  0
 17 96  1  0  0  0
 18 19  2  0  0  0
 18 97  1  0  0  0
 19 20  1  0  0  0
 19 24  1  0  0  0
 20 21  2  0  0  0
 20 98  1  0  0  0
 21 23  1  0  0  0
 22 28  1  0  0  0
 22 32  2  0  0  0
 26 27  1  0  0  0
 28 99  1  0  0  0
 28100  1  0  0  0
 29101  1  0  0  0
 29102  1  0  0  0
 33 34  1  0  0  0
 33 66  1  0  0  0
 33 70  2  0  0  0
 34 36  1  0  0  0
 34 59  1  0  0  0
 34103  1  0  0  0
 35 44  2  0  0  0
 35 45  1  0  0  0
 35 68  1  0  0  0
 36 56  1  0  0  0
 36104  1  0  0  0
 37 39  1  0  0  0
 37 47  1  0  0  0
 37 66  1  0  0  0
 37105  1  0  0  0
 38 43  2  0  0  0
 38 46  1  0  0  0
 38 47  1  0  0  0
 39 64  1  0  0  0
 39 67  2  0  0  0
 40 52  1  0  0  0
 40 53  2  0  0  0
 40 58  1  0  0  0
 41106  1  0  0  0
 41107  1  0  0  0
 41108  1  0  0  0
 41 48  1  0  0  0
 42 43  1  0  0  0
 42 66  1  0  0  0
 42109  1  0  0  0
 42110  1  0  0  0
 43 44  1  0  0  0
 44111  1  0  0  0
 45 46  2  0  0  0
 45112  1  0  0  0
 46113  1  0  0  0
 47114  1  0  0  0
 47115  1  0  0  0
 48 56  1  0  0  0
 48 65  1  0  0  0
 48116  1  0  0  0
 49 50  1  0  0  0
 49 53  1  0  0  0
 49 64  1  0  0  0
 49117  1  0  0  0
 50 51  1  0  0  0
 50118  1  0  0  0
 50119  1  0  0  0
 51 52  1  0  0  0
 51120  1  0  0  0
 51121  1  0  0  0
 52122  1  0  0  0
 52123  1  0  0  0
 53 54  1  0  0  0
 54 55  2  0  0  0
 54124  1  0  0  0
 55 57  1  0  0  0
 55125  1  0  0  0
 56 69  2  0  0  0
 57 58  2  0  0  0
 57126  1  0  0  0
 58127  1  0  0  0
 59 60  1  0  0  0
 59 61  1  0  0  0
 59 62  1  0  0  0
 60128  1  0  0  0
 60129  1  0  0  0
 60130  1  0  0  0
 61131  1  0  0  0
 61132  1  0  0  0
 61133  1  0  0  0
 62134  1  0  0  0
 62135  1  0  0  0
 62136  1  0  0  0
 63 65  1  0  0  0
 63137  1  0  0  0
 63138  1  0  0  0
 63139  1  0  0  0
 64140  1  0  0  0
 65141  1  0  0  0
 68 77  1  0  0  0
 71 72  2  0  0  0
 71 76  1  0  0  0
 71 79  1  0  0  0
 72 77  1  0  0  0
 72 80  1  0  0  0
 73 78  1  0  0  0
 73 79  2  0  0  0
 73 81  1  0  0  0
 74 76  1  0  0  0
 74142  1  0  0  0
 74143  1  0  0  0
 74144  1  0  0  0
 75 82  1  0  0  0
 75145  1  0  0  0
 75146  1  0  0  0
 75147  1  0  0  0
 76148  1  0  0  0
 76149  1  0  0  0
 77150  1  0  0  0
 77151  1  0  0  0
 78 82  1  0  0  0
 78152  1  0  0  0
 78153  1  0  0  0
 80 81  2  0  0  0
M  ISO  4   1 100  68 101  77 101  82 100
M  END
> <chiral flag>
0

> <version>
0

> <s_m_source_file>
/data/baiqing/PycharmProjects/Reinvent-master-3.2/result/LINK_invent/BTK/process_docking_weight1_custom_sum_contain_oxygen_bond_distance_aromatic_linkinvent_7_9_3/rearranged_h_0060.sdf

> <i_m_source_file_index>
6

> <r_mmod_Potential_Energy-OPLS-2005>
1222.65783691406

> <r_mmod_Stretch_Energy-OPLS-2005>
519.089538574219

> <r_mmod_Bend_Energy-OPLS-2005>
464.381195068359

> <r_mmod_Torsional_Energy-OPLS-2005>
247.460296630859

> <r_mmod_Improper_Torsional_Energy-OPLS-2005>
9.59650325775146

> <r_mmod_Van_der_Waal_Energy-OPLS-2005>
138.831008911133

> <r_mmod_Electrostatic_Energy-OPLS-2005>
-357.732330322266

> <r_mmod_Solvation_Energy-OPLS-2005>
-236.235137939453

> <b_mmod_Minimization_Converged-OPLS-2005>
0

> <r_mmod_RMS_Derivative-OPLS-2005>
2.33171129226685

$$$$
7
                    3D
 Structure written by MMmdl.
166174  0  0  1  0            999 V2000
  -30.6683  -14.5618   20.5625 C   0  0  0  0  0  0
  -30.4133  -12.3669   19.4225 C   0  0  0  0  0  0
  -29.4890  -12.5258   18.1954 C   0  0  0  0  0  0
  -28.0099  -12.3614   18.5986 C   0  0  0  0  0  0
  -27.6428  -13.1980   19.8478 C   0  0  2  0  0  0
  -28.6876  -12.9784   20.9663 C   0  0  0  0  0  0
  -25.2492  -13.8161   20.5563 C   0  0  0  0  0  0
  -24.1780  -13.0419   20.9174 C   0  0  0  0  0  0
  -24.6341  -11.6917   20.8723 C   0  0  0  0  0  0
  -23.9038  -10.4317   21.0406 C   0  0  0  0  0  0
  -24.3627   -9.4238   21.9164 C   0  0  0  0  0  0
  -23.6293   -8.2277   22.0753 C   0  0  0  0  0  0
  -22.4255   -8.0313   21.3570 C   0  0  0  0  0  0
  -21.9913   -9.0277   20.4647 C   0  0  0  0  0  0
  -22.7239  -10.2156   20.3038 C   0  0  0  0  0  0
  -21.6871   -6.0754   22.5303 C   0  0  0  0  0  0
  -21.4024   -6.5653   23.8235 C   0  0  0  0  0  0
  -21.3628   -5.6798   24.9186 C   0  0  0  0  0  0
  -21.6032   -4.3070   24.7237 C   0  0  0  0  0  0
  -21.8828   -3.8159   23.4357 C   0  0  0  0  0  0
  -21.9200   -4.6973   22.3415 C   0  0  0  0  0  0
  -22.7808  -13.5223   21.1852 C   0  0  0  0  0  0
  -22.1678   -4.2159   21.0996 F   0  0  0  0  0  0
  -21.5600   -3.4555   25.7737 F   0  0  0  0  0  0
  -29.9982  -13.3687   20.4314 N   0  0  0  0  0  0
  -26.2888  -12.9300   20.3180 N   0  0  0  0  0  0
  -25.9228  -11.6485   20.5664 N   0  0  0  0  0  0
  -22.0470  -12.8197   22.0438 N   0  0  0  0  0  0
  -25.4075  -15.1869   20.3872 N   0  0  0  0  0  0
  -31.7994  -14.6494   20.0717 O   0  0  0  0  0  0
  -21.6640   -6.8893   21.4266 O   0  0  0  0  0  0
  -22.3478  -14.5516   20.6697 O   0  0  0  0  0  0
  -24.6254  -31.8675   23.2116 C   0  0  0  0  0  0
  -25.9125  -32.4842   23.8400 C   0  0  1  0  0  0
  -27.2037  -27.3751   20.0290 C   0  0  0  0  0  0
  -25.5968  -33.8637   24.2338 N   0  0  0  0  0  0
  -23.4106  -30.4982   21.5616 C   0  0  2  0  0  0
  -24.8392  -28.9578   20.1246 C   0  0  0  0  0  0
  -22.7468  -29.4678   22.5041 C   0  0  0  0  0  0
  -18.0285  -28.1376   22.8496 C   0  0  0  0  0  0
  -24.1504  -36.7334   23.2629 C   0  0  0  0  0  0
  -25.9509  -30.8030   21.3761 C   0  0  0  0  0  0
  -26.0147  -29.4322   20.7181 C   0  0  0  0  0  0
  -27.1976  -28.6417   20.6833 C   0  0  0  0  0  0
  -26.0043  -26.9599   19.4094 C   0  0  0  0  0  0
  -24.8276  -27.7149   19.4834 C   0  0  0  0  0  0
  -23.6168  -29.8439   20.1752 C   0  0  0  0  0  0
  -25.4122  -36.3131   24.0332 C   0  0  1  0  0  0
  -20.5877  -28.3681   23.1326 C   0  0  2  0  0  0
  -20.6790  -26.9421   22.5409 C   0  0  0  0  0  0
  -19.5768  -26.6394   21.5213 C   0  0  0  0  0  0
  -18.1939  -26.7926   22.1605 C   0  0  0  0  0  0
  -19.1536  -28.8842   23.2904 C   0  0  0  0  0  0
  -18.9456  -30.1440   23.8914 C   0  0  0  0  0  0
  -17.6453  -30.6581   24.0564 C   0  0  0  0  0  0
  -25.9057  -34.9495   23.5128 C   0  0  0  0  0  0
  -16.5349  -29.9081   23.6330 C   0  0  0  0  0  0
  -16.7272  -28.6491   23.0356 C   0  0  0  0  0  0
  -26.4501  -31.6620   25.0748 C   0  0  0  0  0  0
  -25.3740  -31.3761   26.1487 C   0  0  0  0  0  0
  -27.0322  -30.3060   24.6127 C   0  0  0  0  0  0
  -27.6072  -32.4328   25.7528 C   0  0  0  0  0  0
  -27.5608  -37.1824   24.8451 C   0  0  0  0  0  0
  -21.4187  -29.3059   22.3767 N   0  0  0  0  0  0
  -26.4307  -37.3820   23.9413 N   0  0  0  0  0  0
  -24.6818  -31.0700   22.1078 N   0  0  0  0  0  0
  -23.4220  -28.8179   23.3070 O   0  0  0  0  0  0
  -28.3470  -26.5793   19.9991 O   0  0  0  0  0  0
  -26.5598  -34.8940   22.4678 O   0  0  0  0  0  0
  -23.5434  -32.1478   23.7470 O   0  0  0  0  0  0
  -26.1300  -22.6161   19.5794 C   0  0  0  0  0  0
  -28.0923  -21.9399   20.3669 C   0  0  0  0  0  0
  -27.8483  -24.0415   19.5612 C   0  0  0  0  0  0
  -29.5529  -17.0177   18.9230 C   0  0  0  0  0  0
  -31.0226  -16.0519   22.4981 C   0  0  0  0  0  0
  -28.6706  -15.9660   21.7264 C   0  0  0  0  0  0
  -31.4803  -19.0993   21.3396 C   0  0  0  0  0  0
  -28.9068  -20.8341   21.0800 C   0  0  0  0  0  0
  -28.4282  -25.4162   19.1014 C   0  0  0  0  0  0
  -29.3473  -19.6039   20.2053 C   0  0  0  0  0  0
  -30.3432  -17.1712   20.2515 C   0  0  2  0  0  0
  -30.1394  -15.9158   21.2338 C   0  0  0  0  0  0
  -26.8275  -21.6288   20.1258 N   0  0  0  0  0  0
  -26.5732  -23.8200   19.2597 N   0  0  0  0  0  0
  -28.6687  -23.1274   20.1101 N   0  0  0  0  0  0
  -30.1678  -18.5382   20.9180 N   0  3  1  0  0  0
  -31.4558  -12.4664   19.1156 H   0  0  0  0  0  0
  -30.3295  -11.3555   19.8239 H   0  0  0  0  0  0
  -29.7512  -11.7965   17.4263 H   0  0  0  0  0  0
  -29.6391  -13.5088   17.7438 H   0  0  0  0  0  0
  -27.8303  -11.3035   18.7924 H   0  0  0  0  0  0
  -27.3614  -12.6378   17.7667 H   0  0  0  0  0  0
  -27.6774  -14.2253   19.5037 H   0  0  0  0  0  0
  -28.7064  -11.9200   21.2352 H   0  0  0  0  0  0
  -28.4228  -13.4604   21.8973 H   0  0  0  0  0  0
  -25.2797   -9.5717   22.4698 H   0  0  0  0  0  0
  -24.0034   -7.4665   22.7435 H   0  0  0  0  0  0
  -21.0875   -8.8786   19.8920 H   0  0  0  0  0  0
  -22.3735  -10.9668   19.6133 H   0  0  0  0  0  0
  -21.2059   -7.6169   23.9738 H   0  0  0  0  0  0
  -21.1401   -6.0526   25.9080 H   0  0  0  0  0  0
  -22.0624   -2.7623   23.2852 H   0  0  0  0  0  0
  -22.4116  -11.9879   22.4854 H   0  0  0  0  0  0
  -21.1028  -13.1116   22.2541 H   0  0  0  0  0  0
  -24.6330  -15.8328   20.4871 H   0  0  0  0  0  0
  -26.2379  -15.6294   20.0187 H   0  0  0  0  0  0
  -26.7193  -32.5517   23.1148 H   0  0  0  0  0  0
  -25.0197  -33.9790   25.0536 H   0  0  0  0  0  0
  -22.7014  -31.3172   21.4307 H   0  0  0  0  0  0
  -23.3775  -35.9655   23.3272 H   0  0  0  0  0  0
  -24.3602  -36.8974   22.2042 H   0  0  0  0  0  0
  -23.7234  -37.6527   23.6650 H   0  0  0  0  0  0
  -26.0653  -31.5612   20.5991 H   0  0  0  0  0  0
  -26.8421  -30.8610   21.9897 H   0  0  0  0  0  0
  -28.1063  -29.0062   21.1417 H   0  0  0  0  0  0
  -25.9336  -26.0618   18.8269 H   0  0  0  0  0  0
  -23.9223  -27.3458   19.0204 H   0  0  0  0  0  0
  -23.7521  -30.6264   19.4283 H   0  0  0  0  0  0
  -22.7325  -29.2858   19.8664 H   0  0  0  0  0  0
  -25.1289  -36.2002   25.0820 H   0  0  0  0  0  0
  -20.9935  -28.3221   24.1458 H   0  0  0  0  0  0
  -20.5734  -26.2274   23.3593 H   0  0  0  0  0  0
  -21.6667  -26.7494   22.1184 H   0  0  0  0  0  0
  -19.6936  -25.6310   21.1238 H   0  0  0  0  0  0
  -19.6702  -27.3206   20.6749 H   0  0  0  0  0  0
  -17.4227  -26.6713   21.3984 H   0  0  0  0  0  0
  -18.0301  -26.0044   22.8971 H   0  0  0  0  0  0
  -19.7929  -30.7253   24.2301 H   0  0  0  0  0  0
  -17.5010  -31.6261   24.5172 H   0  0  0  0  0  0
  -15.5349  -30.2981   23.7641 H   0  0  0  0  0  0
  -15.8674  -28.0804   22.7073 H   0  0  0  0  0  0
  -24.5845  -30.7196   25.7813 H   0  0  0  0  0  0
  -24.9009  -32.2949   26.4972 H   0  0  0  0  0  0
  -25.8051  -30.8868   27.0231 H   0  0  0  0  0  0
  -26.2865  -29.6847   24.1154 H   0  0  0  0  0  0
  -27.4078  -29.7274   25.4576 H   0  0  0  0  0  0
  -27.8712  -30.4404   23.9297 H   0  0  0  0  0  0
  -27.2672  -33.3578   26.2205 H   0  0  0  0  0  0
  -28.3837  -32.6982   25.0339 H   0  0  0  0  0  0
  -28.0799  -31.8395   26.5373 H   0  0  0  0  0  0
  -28.2603  -38.0147   24.7559 H   0  0  0  0  0  0
  -28.1129  -36.2690   24.6201 H   0  0  0  0  0  0
  -27.2339  -37.1388   25.8853 H   0  0  0  0  0  0
  -20.9358  -29.8841   21.7031 H   0  0  0  0  0  0
  -26.0210  -38.2902   24.1415 H   0  0  0  0  0  0
  -25.0924  -22.4106   19.3536 H   0  0  0  0  0  0
  -29.8067  -16.0871   18.4184 H   0  0  0  0  0  0
  -29.7942  -17.8138   18.2205 H   0  0  0  0  0  0
  -28.4728  -17.0171   19.0689 H   0  0  0  0  0  0
  -30.9113  -15.1771   23.1393 H   0  0  0  0  0  0
  -30.7618  -16.9164   23.1054 H   0  0  0  0  0  0
  -32.0828  -16.1216   22.2529 H   0  0  0  0  0  0
  -28.3710  -16.9707   22.0191 H   0  0  0  0  0  0
  -28.5018  -15.3673   22.6195 H   0  0  0  0  0  0
  -27.9625  -15.6793   20.9623 H   0  0  0  0  0  0
  -31.3672  -19.9083   22.0588 H   0  0  0  0  0  0
  -32.0365  -19.4841   20.4816 H   0  0  0  0  0  0
  -32.1146  -18.3612   21.8235 H   0  0  0  0  0  0
  -28.2865  -20.4670   21.9006 H   0  0  0  0  0  0
  -29.7631  -21.3150   21.5485 H   0  0  0  0  0  0
  -27.9862  -25.6668   18.1324 H   0  0  0  0  0  0
  -29.4801  -25.2591   18.8570 H   0  0  0  0  0  0
  -29.9117  -19.9732   19.3456 H   0  0  0  0  0  0
  -28.4280  -19.1731   19.8126 H   0  0  0  0  0  0
  -31.3855  -17.1452   19.9224 H   0  0  0  0  0  0
  -29.6654  -18.3356   21.7697 H   0  0  0  0  0  0
  1 25  1  0  0  0
  1 30  2  0  0  0
  1 82  1  0  0  0
  2  3  1  0  0  0
  2 25  1  0  0  0
  2 87  1  0  0  0
  2 88  1  0  0  0
  3  4  1  0  0  0
  3 89  1  0  0  0
  3 90  1  0  0  0
  4  5  1  0  0  0
  4 91  1  0  0  0
  4 92  1  0  0  0
  5  6  1  0  0  0
  5 26  1  0  0  0
  5 93  1  0  0  0
  6 25  1  0  0  0
  6 94  1  0  0  0
  6 95  1  0  0  0
  7  8  2  0  0  0
  7 26  1  0  0  0
  7 29  1  0  0  0
  8  9  1  0  0  0
  8 22  1  0  0  0
  9 10  1  0  0  0
  9 27  2  0  0  0
 10 11  2  0  0  0
 10 15  1  0  0  0
 11 12  1  0  0  0
 11 96  1  0  0  0
 12 13  2  0  0  0
 12 97  1  0  0  0
 13 14  1  0  0  0
 13 31  1  0  0  0
 14 15  2  0  0  0
 14 98  1  0  0  0
 15 99  1  0  0  0
 16 17  2  0  0  0
 16 21  1  0  0  0
 16 31  1  0  0  0
 17 18  1  0  0  0
 17100  1  0  0  0
 18 19  2  0  0  0
 18101  1  0  0  0
 19 20  1  0  0  0
 19 24  1  0  0  0
 20 21  2  0  0  0
 20102  1  0  0  0
 21 23  1  0  0  0
 22 28  1  0  0  0
 22 32  2  0  0  0
 26 27  1  0  0  0
 28103  1  0  0  0
 28104  1  0  0  0
 29105  1  0  0  0
 29106  1  0  0  0
 33 34  1  0  0  0
 33 66  1  0  0  0
 33 70  2  0  0  0
 34 36  1  0  0  0
 34 59  1  0  0  0
 34107  1  0  0  0
 35 44  2  0  0  0
 35 45  1  0  0  0
 35 68  1  0  0  0
 36 56  1  0  0  0
 36108  1  0  0  0
 37 39  1  0  0  0
 37 47  1  0  0  0
 37 66  1  0  0  0
 37109  1  0  0  0
 38 43  2  0  0  0
 38 46  1  0  0  0
 38 47  1  0  0  0
 39 64  1  0  0  0
 39 67  2  0  0  0
 40 52  1  0  0  0
 40 53  2  0  0  0
 40 58  1  0  0  0
 41110  1  0  0  0
 41111  1  0  0  0
 41112  1  0  0  0
 41 48  1  0  0  0
 42 43  1  0  0  0
 42 66  1  0  0  0
 42113  1  0  0  0
 42114  1  0  0  0
 43 44  1  0  0  0
 44115  1  0  0  0
 45 46  2  0  0  0
 45116  1  0  0  0
 46117  1  0  0  0
 47118  1  0  0  0
 47119  1  0  0  0
 48 56  1  0  0  0
 48 65  1  0  0  0
 48120  1  0  0  0
 49 50  1  0  0  0
 49 53  1  0  0  0
 49 64  1  0  0  0
 49121  1  0  0  0
 50 51  1  0  0  0
 50122  1  0  0  0
 50123  1  0  0  0
 51 52  1  0  0  0
 51124  1  0  0  0
 51125  1  0  0  0
 52126  1  0  0  0
 52127  1  0  0  0
 53 54  1  0  0  0
 54 55  2  0  0  0
 54128  1  0  0  0
 55 57  1  0  0  0
 55129  1  0  0  0
 56 69  2  0  0  0
 57 58  2  0  0  0
 57130  1  0  0  0
 58131  1  0  0  0
 59 60  1  0  0  0
 59 61  1  0  0  0
 59 62  1  0  0  0
 60132  1  0  0  0
 60133  1  0  0  0
 60134  1  0  0  0
 61135  1  0  0  0
 61136  1  0  0  0
 61137  1  0  0  0
 62138  1  0  0  0
 62139  1  0  0  0
 62140  1  0  0  0
 63 65  1  0  0  0
 63141  1  0  0  0
 63142  1  0  0  0
 63143  1  0  0  0
 64144  1  0  0  0
 65145  1  0  0  0
 68 79  1  0  0  0
 71 83  2  0  0  0
 71 84  1  0  0  0
 71146  1  0  0  0
 72 78  1  0  0  0
 72 83  1  0  0  0
 72 85  2  0  0  0
 73 79  1  0  0  0
 73 84  2  0  0  0
 73 85  1  0  0  0
 74147  1  0  0  0
 74148  1  0  0  0
 74149  1  0  0  0
 74 81  1  0  0  0
 75150  1  0  0  0
 75151  1  0  0  0
 75152  1  0  0  0
 75 82  1  0  0  0
 76 82  1  0  0  0
 76153  1  0  0  0
 76154  1  0  0  0
 76155  1  0  0  0
 77156  1  0  0  0
 77157  1  0  0  0
 77158  1  0  0  0
 77 86  1  0  0  0
 78 80  1  0  0  0
 78159  1  0  0  0
 78160  1  0  0  0
 79161  1  0  0  0
 79162  1  0  0  0
 80 86  1  0  0  0
 80163  1  0  0  0
 80164  1  0  0  0
 81 82  1  0  0  0
 81 86  1  0  0  0
 81165  1  0  0  0
 86166  1  0  0  0
M  CHG  1  86   1
M  ISO  4   1 100  68 101  79 101  82 100
M  END
> <chiral flag>
0

> <version>
0

> <s_m_source_file>
/data/baiqing/PycharmProjects/Reinvent-master-3.2/result/LINK_invent/BTK/process_docking_weight1_custom_sum_contain_oxygen_bond_distance_aromatic_linkinvent_7_9_3/rearranged_h_0060.sdf

> <i_m_source_file_index>
7

> <r_mmod_Potential_Energy-OPLS-2005>
-604.303527832031

> <r_mmod_Stretch_Energy-OPLS-2005>
75.813346862793

> <r_mmod_Bend_Energy-OPLS-2005>
165.083847045898

> <r_mmod_Torsional_Energy-OPLS-2005>
195.525253295898

> <r_mmod_Improper_Torsional_Energy-OPLS-2005>
2.78301167488098

> <r_mmod_Van_der_Waal_Energy-OPLS-2005>
198.532165527344

> <r_mmod_Electrostatic_Energy-OPLS-2005>
-834.412719726562

> <r_mmod_Solvation_Energy-OPLS-2005>
-436.085083007812

> <b_mmod_Minimization_Converged-OPLS-2005>
0

> <r_mmod_RMS_Derivative-OPLS-2005>
5.4943413734436

$$$$
9
                    3D
 Structure written by MMmdl.
160168  0  0  1  0            999 V2000
  -30.4116  -15.3703   20.3251 C   0  0  0  0  0  0
  -30.4232  -12.8780   19.5063 C   0  0  0  0  0  0
  -29.5162  -12.5762   18.2872 C   0  0  0  0  0  0
  -28.0721  -12.2969   18.7280 C   0  0  0  0  0  0
  -27.6003  -13.2886   19.8151 C   0  0  2  0  0  0
  -28.6369  -13.5184   20.9338 C   0  0  0  0  0  0
  -25.2314  -13.8286   20.5723 C   0  0  0  0  0  0
  -24.1703  -13.0450   20.9282 C   0  0  0  0  0  0
  -24.6403  -11.6961   20.8811 C   0  0  0  0  0  0
  -23.9118  -10.4300   21.0448 C   0  0  0  0  0  0
  -24.3664   -9.4206   21.9212 C   0  0  0  0  0  0
  -23.6336   -8.2239   22.0763 C   0  0  0  0  0  0
  -22.4303   -8.0292   21.3563 C   0  0  0  0  0  0
  -21.9955   -9.0275   20.4656 C   0  0  0  0  0  0
  -22.7295  -10.2151   20.3087 C   0  0  0  0  0  0
  -21.6865   -6.0761   22.5285 C   0  0  0  0  0  0
  -21.4013   -6.5667   23.8216 C   0  0  0  0  0  0
  -21.3660   -5.6817   24.9178 C   0  0  0  0  0  0
  -21.6045   -4.3077   24.7215 C   0  0  0  0  0  0
  -21.8816   -3.8174   23.4331 C   0  0  0  0  0  0
  -21.9183   -4.6994   22.3395 C   0  0  0  0  0  0
  -22.7719  -13.5179   21.1947 C   0  0  0  0  0  0
  -22.1658   -4.2180   21.0975 F   0  0  0  0  0  0
  -21.5618   -3.4554   25.7719 F   0  0  0  0  0  0
  -29.8489  -14.0488   20.2826 N   0  0  0  0  0  0
  -26.2768  -12.9596   20.3247 N   0  0  0  0  0  0
  -25.9337  -11.6693   20.5778 N   0  0  0  0  0  0
  -22.0423  -12.8134   22.0521 N   0  0  0  0  0  0
  -25.3917  -15.2004   20.4076 N   0  0  0  0  0  0
  -31.6440  -15.3301   20.1724 O   0  0  0  0  0  0
  -21.6657   -6.8893   21.4249 O   0  0  0  0  0  0
  -22.3385  -14.5489   20.6806 O   0  0  0  0  0  0
  -24.6710  -31.8163   23.1693 C   0  0  0  0  0  0
  -25.9353  -32.4568   23.8187 C   0  0  1  0  0  0
  -27.2227  -26.8483   20.1744 C   0  0  0  0  0  0
  -25.5989  -33.8392   24.2070 N   0  0  0  0  0  0
  -23.4909  -30.4248   21.5190 C   0  0  2  0  0  0
  -24.9461  -28.8021   20.1064 C   0  0  0  0  0  0
  -22.7692  -29.4394   22.4793 C   0  0  0  0  0  0
  -18.0313  -28.1399   22.8457 C   0  0  0  0  0  0
  -24.1468  -36.7170   23.2650 C   0  0  0  0  0  0
  -26.0631  -30.5921   21.4164 C   0  0  0  0  0  0
  -26.1284  -29.1751   20.7541 C   0  0  0  0  0  0
  -27.2522  -28.2192   20.7694 C   0  0  0  0  0  0
  -26.0120  -26.6532   19.4653 C   0  0  0  0  0  0
  -24.9182  -27.5632   19.4435 C   0  0  0  0  0  0
  -23.7372  -29.7424   20.1452 C   0  0  0  0  0  0
  -25.4122  -36.2953   24.0294 C   0  0  1  0  0  0
  -20.5931  -28.3763   23.1194 C   0  0  2  0  0  0
  -20.6793  -26.9430   22.5453 C   0  0  0  0  0  0
  -19.5784  -26.6319   21.5258 C   0  0  0  0  0  0
  -18.1963  -26.7907   22.1655 C   0  0  0  0  0  0
  -19.1568  -28.8895   23.2811 C   0  0  0  0  0  0
  -18.9486  -30.1461   23.8873 C   0  0  0  0  0  0
  -17.6495  -30.6597   24.0553 C   0  0  0  0  0  0
  -25.9094  -34.9341   23.4999 C   0  0  0  0  0  0
  -16.5380  -29.9090   23.6344 C   0  0  0  0  0  0
  -16.7297  -28.6506   23.0364 C   0  0  0  0  0  0
  -26.4567  -31.6570   25.0768 C   0  0  0  0  0  0
  -25.3662  -31.3885   26.1418 C   0  0  0  0  0  0
  -27.0474  -30.2924   24.6581 C   0  0  0  0  0  0
  -27.6056  -32.4394   25.7575 C   0  0  0  0  0  0
  -27.5550  -37.1749   24.8469 C   0  0  0  0  0  0
  -21.4343  -29.3046   22.3532 N   0  0  0  0  0  0
  -26.4257  -37.3708   23.9405 N   0  0  0  0  0  0
  -24.7631  -30.9731   22.0882 N   0  0  0  0  0  0
  -23.4182  -28.7982   23.3095 O   0  0  0  0  0  0
  -28.1907  -25.6901   20.3220 O   0  0  0  0  0  0
  -26.5716  -34.8889   22.4607 O   0  0  0  0  0  0
  -23.5749  -32.1188   23.6704 O   0  0  0  0  0  0
  -27.5670  -21.6512   20.9895 C   0  0  0  0  0  0
  -28.4430  -22.4297   20.2533 C   0  0  0  0  0  0
  -29.0336  -19.9149   20.3602 C   0  0  0  0  0  0
  -30.7630  -18.5111   18.8598 C   0  0  0  0  0  0
  -27.4447  -17.9101   21.9988 C   0  0  0  0  0  0
  -25.6589  -19.1856   20.8355 C   0  0  0  0  0  0
  -26.4824  -19.9196   23.0934 C   0  0  0  0  0  0
  -28.2356  -24.1230   19.6925 C   0  0  0  0  0  0
  -29.9629  -18.3632   20.1714 C   0  0  2  0  0  0
  -26.9146  -19.3274   21.7261 C   0  0  0  0  0  0
  -27.8850  -20.2546   21.0485 N   0  0  0  0  0  0
  -29.3210  -21.2668   19.8959 N   0  3  0  0  0  0
  -29.6641  -16.6824   20.3284 N   0  0  0  0  0  0
  -31.4290  -13.0973   19.1453 H   0  0  0  0  0  0
  -30.5279  -11.9932   20.1374 H   0  0  0  0  0  0
  -29.8984  -11.7269   17.7215 H   0  0  0  0  0  0
  -29.5275  -13.4280   17.6084 H   0  0  0  0  0  0
  -28.0333  -11.2778   19.1192 H   0  0  0  0  0  0
  -27.3951  -12.3166   17.8724 H   0  0  0  0  0  0
  -27.4984  -14.2411   19.2936 H   0  0  0  0  0  0
  -28.8260  -12.6038   21.4982 H   0  0  0  0  0  0
  -28.2627  -14.2549   21.6463 H   0  0  0  0  0  0
  -25.2773   -9.5679   22.4827 H   0  0  0  0  0  0
  -24.0032   -7.4615   22.7478 H   0  0  0  0  0  0
  -21.0877   -8.8821   19.8955 H   0  0  0  0  0  0
  -22.3747  -10.9720   19.6238 H   0  0  0  0  0  0
  -21.2033   -7.6178   23.9731 H   0  0  0  0  0  0
  -21.1485   -6.0545   25.9082 H   0  0  0  0  0  0
  -22.0593   -2.7631   23.2822 H   0  0  0  0  0  0
  -22.4085  -11.9753   22.4775 H   0  0  0  0  0  0
  -21.1090  -13.1190   22.2866 H   0  0  0  0  0  0
  -24.6175  -15.8475   20.5106 H   0  0  0  0  0  0
  -26.2167  -15.6288   20.0155 H   0  0  0  0  0  0
  -26.7437  -32.5078   23.0904 H   0  0  0  0  0  0
  -25.0102  -33.9484   25.0197 H   0  0  0  0  0  0
  -22.8083  -31.2590   21.3469 H   0  0  0  0  0  0
  -23.3767  -35.9464   23.3297 H   0  0  0  0  0  0
  -24.3527  -36.8835   22.2065 H   0  0  0  0  0  0
  -23.7191  -37.6336   23.6720 H   0  0  0  0  0  0
  -26.2567  -31.3323   20.6381 H   0  0  0  0  0  0
  -26.9175  -30.6450   22.0801 H   0  0  0  0  0  0
  -28.1374  -28.4989   21.3236 H   0  0  0  0  0  0
  -25.8535  -25.7098   18.9635 H   0  0  0  0  0  0
  -24.0195  -27.2744   18.9142 H   0  0  0  0  0  0
  -23.9135  -30.5180   19.4000 H   0  0  0  0  0  0
  -22.8416  -29.2138   19.8137 H   0  0  0  0  0  0
  -25.1316  -36.1743   25.0786 H   0  0  0  0  0  0
  -20.9957  -28.3400   24.1341 H   0  0  0  0  0  0
  -20.5630  -26.2406   23.3727 H   0  0  0  0  0  0
  -21.6685  -26.7363   22.1336 H   0  0  0  0  0  0
  -19.6952  -25.6189   21.1411 H   0  0  0  0  0  0
  -19.6737  -27.3021   20.6702 H   0  0  0  0  0  0
  -17.4205  -26.6561   21.4098 H   0  0  0  0  0  0
  -18.0403  -26.0111   22.9119 H   0  0  0  0  0  0
  -19.7983  -30.7233   24.2301 H   0  0  0  0  0  0
  -17.5056  -31.6280   24.5157 H   0  0  0  0  0  0
  -15.5383  -30.3013   23.7680 H   0  0  0  0  0  0
  -15.8654  -28.0825   22.7161 H   0  0  0  0  0  0
  -24.5865  -30.7186   25.7772 H   0  0  0  0  0  0
  -24.8827  -32.3111   26.4651 H   0  0  0  0  0  0
  -25.7876  -30.9222   27.0335 H   0  0  0  0  0  0
  -26.3174  -29.6600   24.1518 H   0  0  0  0  0  0
  -27.3884  -29.7311   25.5292 H   0  0  0  0  0  0
  -27.9166  -30.4107   24.0106 H   0  0  0  0  0  0
  -27.2630  -33.3757   26.2010 H   0  0  0  0  0  0
  -28.3960  -32.6862   25.0468 H   0  0  0  0  0  0
  -28.0626  -31.8621   26.5626 H   0  0  0  0  0  0
  -28.2563  -38.0050   24.7502 H   0  0  0  0  0  0
  -28.1039  -36.2572   24.6299 H   0  0  0  0  0  0
  -27.2260  -37.1400   25.8874 H   0  0  0  0  0  0
  -20.9598  -29.8714   21.6642 H   0  0  0  0  0  0
  -26.0087  -38.2751   24.1465 H   0  0  0  0  0  0
  -26.6582  -22.0198   21.4380 H   0  0  0  0  0  0
  -31.3357  -19.4385   18.8388 H   0  0  0  0  0  0
  -30.0952  -18.5183   17.9975 H   0  0  0  0  0  0
  -31.4786  -17.6991   18.7121 H   0  0  0  0  0  0
  -26.7935  -17.3663   22.6849 H   0  0  0  0  0  0
  -28.4412  -17.9049   22.4379 H   0  0  0  0  0  0
  -27.4298  -17.3246   21.0841 H   0  0  0  0  0  0
  -24.9323  -18.5102   21.2884 H   0  0  0  0  0  0
  -25.8975  -18.7855   19.8469 H   0  0  0  0  0  0
  -25.1550  -20.1401   20.6792 H   0  0  0  0  0  0
  -25.9068  -19.2006   23.6758 H   0  0  0  0  0  0
  -25.8318  -20.7888   22.9927 H   0  0  0  0  0  0
  -27.3449  -20.2198   23.6912 H   0  0  0  0  0  0
  -27.3269  -24.0656   19.0967 H   0  0  0  0  0  0
  -29.0110  -24.2256   18.9330 H   0  0  0  0  0  0
  -30.6895  -18.4939   20.9771 H   0  0  0  0  0  0
  -30.1150  -21.4286   19.2904 H   0  0  0  0  0  0
  -28.6744  -16.5065   20.3817 H   0  0  0  0  0  0
  1 25  1  0  0  0
  1 30  2  0  0  0
  1 83  1  0  0  0
  2  3  1  0  0  0
  2 25  1  0  0  0
  2 84  1  0  0  0
  2 85  1  0  0  0
  3  4  1  0  0  0
  3 86  1  0  0  0
  3 87  1  0  0  0
  4  5  1  0  0  0
  4 88  1  0  0  0
  4 89  1  0  0  0
  5  6  1  0  0  0
  5 26  1  0  0  0
  5 90  1  0  0  0
  6 25  1  0  0  0
  6 91  1  0  0  0
  6 92  1  0  0  0
  7  8  2  0  0  0
  7 26  1  0  0  0
  7 29  1  0  0  0
  8  9  1  0  0  0
  8 22  1  0  0  0
  9 10  1  0  0  0
  9 27  2  0  0  0
 10 11  2  0  0  0
 10 15  1  0  0  0
 11 12  1  0  0  0
 11 93  1  0  0  0
 12 13  2  0  0  0
 12 94  1  0  0  0
 13 14  1  0  0  0
 13 31  1  0  0  0
 14 15  2  0  0  0
 14 95  1  0  0  0
 15 96  1  0  0  0
 16 17  2  0  0  0
 16 21  1  0  0  0
 16 31  1  0  0  0
 17 18  1  0  0  0
 17 97  1  0  0  0
 18 19  2  0  0  0
 18 98  1  0  0  0
 19 20  1  0  0  0
 19 24  1  0  0  0
 20 21  2  0  0  0
 20 99  1  0  0  0
 21 23  1  0  0  0
 22 28  1  0  0  0
 22 32  2  0  0  0
 26 27  1  0  0  0
 28100  1  0  0  0
 28101  1  0  0  0
 29102  1  0  0  0
 29103  1  0  0  0
 33 34  1  0  0  0
 33 66  1  0  0  0
 33 70  2  0  0  0
 34 36  1  0  0  0
 34 59  1  0  0  0
 34104  1  0  0  0
 35 44  2  0  0  0
 35 45  1  0  0  0
 35 68  1  0  0  0
 36 56  1  0  0  0
 36105  1  0  0  0
 37 39  1  0  0  0
 37 47  1  0  0  0
 37 66  1  0  0  0
 37106  1  0  0  0
 38 43  2  0  0  0
 38 46  1  0  0  0
 38 47  1  0  0  0
 39 64  1  0  0  0
 39 67  2  0  0  0
 40 52  1  0  0  0
 40 53  2  0  0  0
 40 58  1  0  0  0
 41107  1  0  0  0
 41108  1  0  0  0
 41109  1  0  0  0
 41 48  1  0  0  0
 42 43  1  0  0  0
 42 66  1  0  0  0
 42110  1  0  0  0
 42111  1  0  0  0
 43 44  1  0  0  0
 44112  1  0  0  0
 45 46  2  0  0  0
 45113  1  0  0  0
 46114  1  0  0  0
 47115  1  0  0  0
 47116  1  0  0  0
 48 56  1  0  0  0
 48 65  1  0  0  0
 48117  1  0  0  0
 49 50  1  0  0  0
 49 53  1  0  0  0
 49 64  1  0  0  0
 49118  1  0  0  0
 50 51  1  0  0  0
 50119  1  0  0  0
 50120  1  0  0  0
 51 52  1  0  0  0
 51121  1  0  0  0
 51122  1  0  0  0
 52123  1  0  0  0
 52124  1  0  0  0
 53 54  1  0  0  0
 54 55  2  0  0  0
 54125  1  0  0  0
 55 57  1  0  0  0
 55126  1  0  0  0
 56 69  2  0  0  0
 57 58  2  0  0  0
 57127  1  0  0  0
 58128  1  0  0  0
 59 60  1  0  0  0
 59 61  1  0  0  0
 59 62  1  0  0  0
 60129  1  0  0  0
 60130  1  0  0  0
 60131  1  0  0  0
 61132  1  0  0  0
 61133  1  0  0  0
 61134  1  0  0  0
 62135  1  0  0  0
 62136  1  0  0  0
 62137  1  0  0  0
 63 65  1  0  0  0
 63138  1  0  0  0
 63139  1  0  0  0
 63140  1  0  0  0
 64141  1  0  0  0
 65142  1  0  0  0
 68 78  1  0  0  0
 71 72  2  0  0  0
 71 81  1  0  0  0
 71143  1  0  0  0
 72 78  1  0  0  0
 72 82  1  0  0  0
 73 79  1  0  0  0
 73 81  1  0  0  0
 73 82  2  0  0  0
 74144  1  0  0  0
 74145  1  0  0  0
 74146  1  0  0  0
 74 79  1  0  0  0
 75147  1  0  0  0
 75148  1  0  0  0
 75149  1  0  0  0
 75 80  1  0  0  0
 76 80  1  0  0  0
 76150  1  0  0  0
 76151  1  0  0  0
 76152  1  0  0  0
 77 80  1  0  0  0
 77153  1  0  0  0
 77154  1  0  0  0
 77155  1  0  0  0
 78156  1  0  0  0
 78157  1  0  0  0
 79 83  1  0  0  0
 79158  1  0  0  0
 80 81  1  0  0  0
 82159  1  0  0  0
 83160  1  0  0  0
M  CHG  1  82   1
M  ISO  4   1 100  68 101  78 101  83 100
M  END
> <chiral flag>
0

> <version>
0

> <s_m_source_file>
/data/baiqing/PycharmProjects/Reinvent-master-3.2/result/LINK_invent/BTK/process_docking_weight1_custom_sum_contain_oxygen_bond_distance_aromatic_linkinvent_7_9_3/rearranged_h_0060.sdf

> <i_m_source_file_index>
8

> <r_mmod_Potential_Energy-OPLS-2005>
1546.34033203125

> <r_mmod_Stretch_Energy-OPLS-2005>
737.060241699219

> <r_mmod_Bend_Energy-OPLS-2005>
547.1796875

> <r_mmod_Torsional_Energy-OPLS-2005>
262.688690185547

> <r_mmod_Improper_Torsional_Energy-OPLS-2005>
7.39118432998657

> <r_mmod_Van_der_Waal_Energy-OPLS-2005>
114.497833251953

> <r_mmod_Electrostatic_Energy-OPLS-2005>
-277.18310546875

> <r_mmod_Solvation_Energy-OPLS-2005>
-429.808197021484

> <b_mmod_Minimization_Converged-OPLS-2005>
0

> <r_mmod_RMS_Derivative-OPLS-2005>
4.39197778701782

$$$$
10
                    3D
 Structure written by MMmdl.
159167  0  0  1  0            999 V2000
  -30.5133  -15.0123   20.4789 C   0  0  0  0  0  0
  -30.4574  -12.6485   19.4974 C   0  0  0  0  0  0
  -29.5312  -12.5506   18.2602 C   0  0  0  0  0  0
  -28.0649  -12.3100   18.6736 C   0  0  0  0  0  0
  -27.6315  -13.2295   19.8446 C   0  0  2  0  0  0
  -28.6818  -13.1986   20.9743 C   0  0  0  0  0  0
  -25.2385  -13.8126   20.5576 C   0  0  0  0  0  0
  -24.1728  -13.0369   20.9224 C   0  0  0  0  0  0
  -24.6369  -11.6857   20.8761 C   0  0  0  0  0  0
  -23.9059  -10.4248   21.0400 C   0  0  0  0  0  0
  -24.3609   -9.4184   21.9188 C   0  0  0  0  0  0
  -23.6276   -8.2221   22.0755 C   0  0  0  0  0  0
  -22.4262   -8.0260   21.3557 C   0  0  0  0  0  0
  -21.9899   -9.0229   20.4644 C   0  0  0  0  0  0
  -22.7214  -10.2109   20.3044 C   0  0  0  0  0  0
  -21.6834   -6.0736   22.5288 C   0  0  0  0  0  0
  -21.4006   -6.5645   23.8235 C   0  0  0  0  0  0
  -21.3654   -5.6785   24.9193 C   0  0  0  0  0  0
  -21.6032   -4.3042   24.7215 C   0  0  0  0  0  0
  -21.8821   -3.8142   23.4335 C   0  0  0  0  0  0
  -21.9195   -4.6966   22.3403 C   0  0  0  0  0  0
  -22.7764  -13.5157   21.1845 C   0  0  0  0  0  0
  -22.1639   -4.2171   21.0966 F   0  0  0  0  0  0
  -21.5642   -3.4516   25.7723 F   0  0  0  0  0  0
  -29.9329  -13.7275   20.3976 N   0  0  0  0  0  0
  -26.2855  -12.9355   20.3230 N   0  0  0  0  0  0
  -25.9305  -11.6511   20.5788 N   0  0  0  0  0  0
  -22.0370  -12.8229   22.0435 N   0  0  0  0  0  0
  -25.3843  -15.1846   20.3749 N   0  0  0  0  0  0
  -31.6988  -15.0677   20.1317 O   0  0  0  0  0  0
  -21.6632   -6.8857   21.4244 O   0  0  0  0  0  0
  -22.3433  -14.5433   20.6624 O   0  0  0  0  0  0
  -24.6445  -31.8416   23.1833 C   0  0  0  0  0  0
  -25.9187  -32.4702   23.8258 C   0  0  1  0  0  0
  -27.2145  -27.1124   20.1874 C   0  0  0  0  0  0
  -25.5947  -33.8501   24.2191 N   0  0  0  0  0  0
  -23.4502  -30.4558   21.5277 C   0  0  2  0  0  0
  -24.9027  -28.8717   20.1136 C   0  0  0  0  0  0
  -22.7581  -29.4509   22.4828 C   0  0  0  0  0  0
  -18.0316  -28.1386   22.8480 C   0  0  0  0  0  0
  -24.1478  -36.7254   23.2638 C   0  0  0  0  0  0
  -26.0062  -30.7126   21.3791 C   0  0  0  0  0  0
  -26.0781  -29.3148   20.7370 C   0  0  0  0  0  0
  -27.2402  -28.4535   20.7486 C   0  0  0  0  0  0
  -26.0199  -26.7719   19.5248 C   0  0  0  0  0  0
  -24.8883  -27.6172   19.4829 C   0  0  0  0  0  0
  -23.6794  -29.7747   20.1513 C   0  0  0  0  0  0
  -25.4114  -36.3044   24.0320 C   0  0  1  0  0  0
  -20.5926  -28.3695   23.1221 C   0  0  2  0  0  0
  -20.6776  -26.9390   22.5382 C   0  0  0  0  0  0
  -19.5743  -26.6354   21.5195 C   0  0  0  0  0  0
  -18.1931  -26.7920   22.1613 C   0  0  0  0  0  0
  -19.1574  -28.8848   23.2838 C   0  0  0  0  0  0
  -18.9489  -30.1454   23.8837 C   0  0  0  0  0  0
  -17.6481  -30.6554   24.0557 C   0  0  0  0  0  0
  -25.9058  -34.9420   23.5061 C   0  0  0  0  0  0
  -16.5370  -29.9039   23.6335 C   0  0  0  0  0  0
  -16.7298  -28.6467   23.0340 C   0  0  0  0  0  0
  -26.4512  -31.6563   25.0692 C   0  0  0  0  0  0
  -25.3702  -31.3768   26.1397 C   0  0  0  0  0  0
  -27.0357  -30.2973   24.6215 C   0  0  0  0  0  0
  -27.6046  -32.4319   25.7452 C   0  0  0  0  0  0
  -27.5569  -37.1769   24.8468 C   0  0  0  0  0  0
  -21.4269  -29.3034   22.3610 N   0  0  0  0  0  0
  -26.4277  -37.3766   23.9425 N   0  0  0  0  0  0
  -24.7206  -31.0262   22.0860 N   0  0  0  0  0  0
  -23.4224  -28.8032   23.2964 O   0  0  0  0  0  0
  -28.2637  -26.1221   20.1976 O   0  0  0  0  0  0
  -26.5631  -34.8904   22.4624 O   0  0  0  0  0  0
  -23.5529  -32.1261   23.7000 O   0  0  0  0  0  0
  -31.2544  -20.8163   20.3845 C   0  0  0  0  0  0
  -30.5910  -22.8517   20.3348 C   0  0  0  0  0  0
  -29.8768  -20.7235   20.4327 C   0  0  0  0  0  0
  -27.7074  -23.0946   18.8257 C   0  0  0  0  0  0
  -27.0491  -22.3237   21.0912 C   0  0  0  0  0  0
  -28.5946  -16.2253   21.5667 C   0  0  0  0  0  0
  -29.2515  -19.2091   20.5384 C   0  0  0  0  0  0
  -30.1974  -17.7658   20.4216 C   0  0  0  0  0  0
  -28.0930  -24.7105   20.8481 C   0  0  0  0  0  0
  -28.1412  -23.0805   20.2979 C   0  0  0  0  0  0
  -31.6972  -22.1277   20.3240 N   0  0  0  0  0  0
  -29.4277  -22.1790   20.3975 N   0  0  0  0  0  0
  -29.7706  -16.2462   20.6976 N   0  0  0  0  0  0
  -31.4781  -12.8526   19.1719 H   0  0  0  0  0  0
  -30.5083  -11.6913   20.0164 H   0  0  0  0  0  0
  -29.8749  -11.7610   17.5907 H   0  0  0  0  0  0
  -29.5951  -13.4772   17.6880 H   0  0  0  0  0  0
  -27.9718  -11.2654   18.9757 H   0  0  0  0  0  0
  -27.4002  -12.4360   17.8177 H   0  0  0  0  0  0
  -27.6016  -14.2348   19.4241 H   0  0  0  0  0  0
  -28.8160  -12.1757   21.3235 H   0  0  0  0  0  0
  -28.3606  -13.7288   21.8645 H   0  0  0  0  0  0
  -25.2736   -9.5676   22.4792 H   0  0  0  0  0  0
  -23.9979   -7.4620   22.7474 H   0  0  0  0  0  0
  -21.0838   -8.8700   19.8962 H   0  0  0  0  0  0
  -22.3619  -10.9642   19.6163 H   0  0  0  0  0  0
  -21.1981   -7.6157   23.9728 H   0  0  0  0  0  0
  -21.1481   -6.0525   25.9107 H   0  0  0  0  0  0
  -22.0612   -2.7600   23.2822 H   0  0  0  0  0  0
  -22.3898  -11.9905   22.4920 H   0  0  0  0  0  0
  -21.0974  -13.1292   22.2523 H   0  0  0  0  0  0
  -24.5994  -15.8185   20.4742 H   0  0  0  0  0  0
  -26.2083  -15.6304   19.9929 H   0  0  0  0  0  0
  -26.7251  -32.5298   23.0984 H   0  0  0  0  0  0
  -25.0207  -33.9656   25.0418 H   0  0  0  0  0  0
  -22.7563  -31.2832   21.3666 H   0  0  0  0  0  0
  -23.3762  -35.9562   23.3274 H   0  0  0  0  0  0
  -24.3576  -36.8882   22.2054 H   0  0  0  0  0  0
  -23.7181  -37.6427   23.6677 H   0  0  0  0  0  0
  -26.1525  -31.4564   20.5937 H   0  0  0  0  0  0
  -26.8839  -30.7802   22.0108 H   0  0  0  0  0  0
  -28.1381  -28.7969   21.2430 H   0  0  0  0  0  0
  -25.9547  -25.8061   19.0427 H   0  0  0  0  0  0
  -23.9959  -27.2761   18.9739 H   0  0  0  0  0  0
  -23.8110  -30.5433   19.3900 H   0  0  0  0  0  0
  -22.7964  -29.2095   19.8489 H   0  0  0  0  0  0
  -25.1293  -36.1886   25.0814 H   0  0  0  0  0  0
  -21.0062  -28.3258   24.1322 H   0  0  0  0  0  0
  -20.5616  -26.2320   23.3608 H   0  0  0  0  0  0
  -21.6643  -26.7325   22.1202 H   0  0  0  0  0  0
  -19.6885  -25.6252   21.1222 H   0  0  0  0  0  0
  -19.6674  -27.3167   20.6719 H   0  0  0  0  0  0
  -17.4209  -26.6667   21.4016 H   0  0  0  0  0  0
  -18.0319  -26.0081   22.9015 H   0  0  0  0  0  0
  -19.7962  -30.7312   24.2150 H   0  0  0  0  0  0
  -17.5014  -31.6243   24.5166 H   0  0  0  0  0  0
  -15.5356  -30.2914   23.7671 H   0  0  0  0  0  0
  -15.8711  -28.0764   22.7054 H   0  0  0  0  0  0
  -24.5919  -30.7061   25.7759 H   0  0  0  0  0  0
  -24.8852  -32.2949   26.4714 H   0  0  0  0  0  0
  -25.7989  -30.9042   27.0245 H   0  0  0  0  0  0
  -26.2966  -29.6723   24.1195 H   0  0  0  0  0  0
  -27.4008  -29.7231   25.4742 H   0  0  0  0  0  0
  -27.8860  -30.4264   23.9516 H   0  0  0  0  0  0
  -27.2688  -33.3677   26.1938 H   0  0  0  0  0  0
  -28.3912  -32.6751   25.0299 H   0  0  0  0  0  0
  -28.0685  -31.8500   26.5432 H   0  0  0  0  0  0
  -28.2564  -38.0085   24.7563 H   0  0  0  0  0  0
  -28.1070  -36.2607   24.6243 H   0  0  0  0  0  0
  -27.2308  -37.1408   25.8877 H   0  0  0  0  0  0
  -20.9453  -29.8816   21.6857 H   0  0  0  0  0  0
  -26.0130  -38.2817   24.1467 H   0  0  0  0  0  0
  -31.9801  -20.0152   20.3857 H   0  0  0  0  0  0
  -30.6253  -23.9293   20.2746 H   0  0  0  0  0  0
  -26.7647  -23.6208   18.6955 H   0  0  0  0  0  0
  -27.5626  -22.0861   18.4394 H   0  0  0  0  0  0
  -28.4501  -23.5919   18.2044 H   0  0  0  0  0  0
  -26.0608  -22.7569   20.9315 H   0  0  0  0  0  0
  -27.2426  -22.3449   22.1645 H   0  0  0  0  0  0
  -26.9849  -21.2766   20.7992 H   0  0  0  0  0  0
  -28.1795  -17.1993   21.7997 H   0  0  0  0  0  0
  -28.8227  -15.7468   22.5199 H   0  0  0  0  0  0
  -27.7829  -15.7001   21.0822 H   0  0  0  0  0  0
  -28.4379  -19.1317   19.8177 H   0  0  0  0  0  0
  -28.7585  -19.1996   21.5099 H   0  0  0  0  0  0
  -31.0445  -17.9046   21.0932 H   0  0  0  0  0  0
  -30.6419  -17.7616   19.4258 H   0  0  0  0  0  0
  -28.7836  -24.7330   21.6906 H   0  0  0  0  0  0
  -27.1249  -24.8084   21.3428 H   0  0  0  0  0  0
  1 25  1  0  0  0
  1 30  2  0  0  0
  1 83  1  0  0  0
  2  3  1  0  0  0
  2 25  1  0  0  0
  2 84  1  0  0  0
  2 85  1  0  0  0
  3  4  1  0  0  0
  3 86  1  0  0  0
  3 87  1  0  0  0
  4  5  1  0  0  0
  4 88  1  0  0  0
  4 89  1  0  0  0
  5  6  1  0  0  0
  5 26  1  0  0  0
  5 90  1  0  0  0
  6 25  1  0  0  0
  6 91  1  0  0  0
  6 92  1  0  0  0
  7  8  2  0  0  0
  7 26  1  0  0  0
  7 29  1  0  0  0
  8  9  1  0  0  0
  8 22  1  0  0  0
  9 10  1  0  0  0
  9 27  2  0  0  0
 10 11  2  0  0  0
 10 15  1  0  0  0
 11 12  1  0  0  0
 11 93  1  0  0  0
 12 13  2  0  0  0
 12 94  1  0  0  0
 13 14  1  0  0  0
 13 31  1  0  0  0
 14 15  2  0  0  0
 14 95  1  0  0  0
 15 96  1  0  0  0
 16 17  2  0  0  0
 16 21  1  0  0  0
 16 31  1  0  0  0
 17 18  1  0  0  0
 17 97  1  0  0  0
 18 19  2  0  0  0
 18 98  1  0  0  0
 19 20  1  0  0  0
 19 24  1  0  0  0
 20 21  2  0  0  0
 20 99  1  0  0  0
 21 23  1  0  0  0
 22 28  1  0  0  0
 22 32  2  0  0  0
 26 27  1  0  0  0
 28100  1  0  0  0
 28101  1  0  0  0
 29102  1  0  0  0
 29103  1  0  0  0
 33 34  1  0  0  0
 33 66  1  0  0  0
 33 70  2  0  0  0
 34 36  1  0  0  0
 34 59  1  0  0  0
 34104  1  0  0  0
 35 44  2  0  0  0
 35 45  1  0  0  0
 35 68  1  0  0  0
 36 56  1  0  0  0
 36105  1  0  0  0
 37 39  1  0  0  0
 37 47  1  0  0  0
 37 66  1  0  0  0
 37106  1  0  0  0
 38 43  2  0  0  0
 38 46  1  0  0  0
 38 47  1  0  0  0
 39 64  1  0  0  0
 39 67  2  0  0  0
 40 52  1  0  0  0
 40 53  2  0  0  0
 40 58  1  0  0  0
 41107  1  0  0  0
 41108  1  0  0  0
 41109  1  0  0  0
 41 48  1  0  0  0
 42 43  1  0  0  0
 42 66  1  0  0  0
 42110  1  0  0  0
 42111  1  0  0  0
 43 44  1  0  0  0
 44112  1  0  0  0
 45 46  2  0  0  0
 45113  1  0  0  0
 46114  1  0  0  0
 47115  1  0  0  0
 47116  1  0  0  0
 48 56  1  0  0  0
 48 65  1  0  0  0
 48117  1  0  0  0
 49 50  1  0  0  0
 49 53  1  0  0  0
 49 64  1  0  0  0
 49118  1  0  0  0
 50 51  1  0  0  0
 50119  1  0  0  0
 50120  1  0  0  0
 51 52  1  0  0  0
 51121  1  0  0  0
 51122  1  0  0  0
 52123  1  0  0  0
 52124  1  0  0  0
 53 54  1  0  0  0
 54 55  2  0  0  0
 54125  1  0  0  0
 55 57  1  0  0  0
 55126  1  0  0  0
 56 69  2  0  0  0
 57 58  2  0  0  0
 57127  1  0  0  0
 58128  1  0  0  0
 59 60  1  0  0  0
 59 61  1  0  0  0
 59 62  1  0  0  0
 60129  1  0  0  0
 60130  1  0  0  0
 60131  1  0  0  0
 61132  1  0  0  0
 61133  1  0  0  0
 61134  1  0  0  0
 62135  1  0  0  0
 62136  1  0  0  0
 62137  1  0  0  0
 63 65  1  0  0  0
 63138  1  0  0  0
 63139  1  0  0  0
 63140  1  0  0  0
 64141  1  0  0  0
 65142  1  0  0  0
 68 79  1  0  0  0
 71 73  2  0  0  0
 71 81  1  0  0  0
 71143  1  0  0  0
 72 81  2  0  0  0
 72 82  1  0  0  0
 72144  1  0  0  0
 73 77  1  0  0  0
 73 82  1  0  0  0
 74145  1  0  0  0
 74146  1  0  0  0
 74147  1  0  0  0
 74 80  1  0  0  0
 75 80  1  0  0  0
 75148  1  0  0  0
 75149  1  0  0  0
 75150  1  0  0  0
 76 83  1  0  0  0
 76151  1  0  0  0
 76152  1  0  0  0
 76153  1  0  0  0
 77 78  1  0  0  0
 77154  1  0  0  0
 77155  1  0  0  0
 78 83  1  0  0  0
 78156  1  0  0  0
 78157  1  0  0  0
 79 80  1  0  0  0
 79158  1  0  0  0
 79159  1  0  0  0
 80 82  1  0  0  0
M  ISO  4   1 100  68 101  79 101  83 100
M  END
> <chiral flag>
0

> <version>
0

> <s_m_source_file>
/data/baiqing/PycharmProjects/Reinvent-master-3.2/result/LINK_invent/BTK/process_docking_weight1_custom_sum_contain_oxygen_bond_distance_aromatic_linkinvent_7_9_3/rearranged_h_0060.sdf

> <i_m_source_file_index>
9

> <r_mmod_Potential_Energy-OPLS-2005>
858.435546875

> <r_mmod_Stretch_Energy-OPLS-2005>
340.438598632812

> <r_mmod_Bend_Energy-OPLS-2005>
362.648864746094

> <r_mmod_Torsional_Energy-OPLS-2005>
321.1796875

> <r_mmod_Improper_Torsional_Energy-OPLS-2005>
6.67646312713623

> <r_mmod_Van_der_Waal_Energy-OPLS-2005>
121.704345703125

> <r_mmod_Electrostatic_Energy-OPLS-2005>
-290.452239990234

> <r_mmod_Solvation_Energy-OPLS-2005>
-220.959701538086

> <b_mmod_Minimization_Converged-OPLS-2005>
0

> <r_mmod_RMS_Derivative-OPLS-2005>
4.88180446624756

$$$$
11
                    3D
 Structure written by MMmdl.
150158  0  0  1  0            999 V2000
  -30.3887  -15.3012   20.3964 C   0  0  0  0  0  0
  -30.4504  -12.8259   19.5395 C   0  0  0  0  0  0
  -29.5481  -12.5951   18.2972 C   0  0  0  0  0  0
  -28.0940  -12.3092   18.7145 C   0  0  0  0  0  0
  -27.6168  -13.2761   19.8251 C   0  0  2  0  0  0
  -28.6466  -13.4335   20.9633 C   0  0  0  0  0  0
  -25.2417  -13.8250   20.5738 C   0  0  0  0  0  0
  -24.1761  -13.0439   20.9237 C   0  0  0  0  0  0
  -24.6412  -11.6935   20.8730 C   0  0  0  0  0  0
  -23.9099  -10.4295   21.0389 C   0  0  0  0  0  0
  -24.3644   -9.4213   21.9171 C   0  0  0  0  0  0
  -23.6314   -8.2250   22.0753 C   0  0  0  0  0  0
  -22.4294   -8.0288   21.3545 C   0  0  0  0  0  0
  -21.9931   -9.0261   20.4643 C   0  0  0  0  0  0
  -22.7265  -10.2135   20.3044 C   0  0  0  0  0  0
  -21.6859   -6.0741   22.5278 C   0  0  0  0  0  0
  -21.4020   -6.5643   23.8213 C   0  0  0  0  0  0
  -21.3663   -5.6795   24.9173 C   0  0  0  0  0  0
  -21.6046   -4.3057   24.7218 C   0  0  0  0  0  0
  -21.8818   -3.8149   23.4339 C   0  0  0  0  0  0
  -21.9197   -4.6969   22.3397 C   0  0  0  0  0  0
  -22.7779  -13.5193   21.1889 C   0  0  0  0  0  0
  -22.1665   -4.2158   21.0972 F   0  0  0  0  0  0
  -21.5629   -3.4534   25.7726 F   0  0  0  0  0  0
  -29.8865  -13.9604   20.3652 N   0  0  0  0  0  0
  -26.2844  -12.9521   20.3193 N   0  0  0  0  0  0
  -25.9352  -11.6624   20.5690 N   0  0  0  0  0  0
  -22.0439  -12.8177   22.0446 N   0  0  0  0  0  0
  -25.4064  -15.1989   20.4213 N   0  0  0  0  0  0
  -31.5840  -15.3357   20.0600 O   0  0  0  0  0  0
  -21.6654   -6.8889   21.4244 O   0  0  0  0  0  0
  -22.3450  -14.5490   20.6727 O   0  0  0  0  0  0
  -24.6652  -31.8199   23.1671 C   0  0  0  0  0  0
  -25.9320  -32.4566   23.8148 C   0  0  1  0  0  0
  -27.2269  -26.9066   20.1903 C   0  0  0  0  0  0
  -25.5976  -33.8383   24.2053 N   0  0  0  0  0  0
  -23.4815  -30.4292   21.5166 C   0  0  2  0  0  0
  -24.9368  -28.8082   20.1131 C   0  0  0  0  0  0
  -22.7676  -29.4426   22.4774 C   0  0  0  0  0  0
  -18.0325  -28.1413   22.8460 C   0  0  0  0  0  0
  -24.1495  -36.7204   23.2649 C   0  0  0  0  0  0
  -26.0513  -30.6193   21.4009 C   0  0  0  0  0  0
  -26.1201  -29.2064   20.7474 C   0  0  0  0  0  0
  -27.2576  -28.2770   20.7597 C   0  0  0  0  0  0
  -26.0142  -26.6631   19.5072 C   0  0  0  0  0  0
  -24.9105  -27.5583   19.4722 C   0  0  0  0  0  0
  -23.7231  -29.7388   20.1448 C   0  0  0  0  0  0
  -25.4137  -36.2956   24.0297 C   0  0  1  0  0  0
  -20.5948  -28.3760   23.1182 C   0  0  2  0  0  0
  -20.6801  -26.9440   22.5402 C   0  0  0  0  0  0
  -19.5776  -26.6378   21.5213 C   0  0  0  0  0  0
  -18.1957  -26.7944   22.1620 C   0  0  0  0  0  0
  -19.1586  -28.8908   23.2805 C   0  0  0  0  0  0
  -18.9495  -30.1496   23.8841 C   0  0  0  0  0  0
  -17.6488  -30.6599   24.0557 C   0  0  0  0  0  0
  -25.9101  -34.9340   23.4999 C   0  0  0  0  0  0
  -16.5378  -29.9085   23.6349 C   0  0  0  0  0  0
  -16.7307  -28.6512   23.0358 C   0  0  0  0  0  0
  -26.4561  -31.6524   25.0691 C   0  0  0  0  0  0
  -25.3678  -31.3784   26.1342 C   0  0  0  0  0  0
  -27.0467  -30.2888   24.6450 C   0  0  0  0  0  0
  -27.6044  -32.4344   25.7493 C   0  0  0  0  0  0
  -27.5570  -37.1758   24.8464 C   0  0  0  0  0  0
  -21.4344  -29.3043   22.3524 N   0  0  0  0  0  0
  -26.4279  -37.3697   23.9403 N   0  0  0  0  0  0
  -24.7539  -30.9839   22.0819 N   0  0  0  0  0  0
  -23.4207  -28.8009   23.3039 O   0  0  0  0  0  0
  -28.2357  -25.8015   20.2794 O   0  0  0  0  0  0
  -26.5718  -34.8885   22.4600 O   0  0  0  0  0  0
  -23.5717  -32.1183   23.6751 O   0  0  0  0  0  0
  -29.2350  -19.7470   21.0863 C   0  0  0  0  0  0
  -29.0840  -20.9422   20.2632 C   0  0  0  0  0  0
  -30.9597  -17.3360   22.9727 C   0  0  0  0  0  0
  -29.0634  -22.7045   20.4960 C   0  0  0  0  0  0
  -29.6271  -16.8161   22.4017 C   0  0  0  0  0  0
  -28.0476  -24.1564   20.0836 C   0  0  0  0  0  0
  -29.5473  -16.7994   20.8550 C   0  0  1  0  0  0
  -29.2991  -20.2606   19.0286 N   0  0  0  0  0  0
  -29.4786  -18.9128   19.1030 N   0  0  0  0  0  0
  -29.5221  -18.4423   20.3971 N   0  0  0  0  0  0
  -31.4687  -13.0387   19.2113 H   0  0  0  0  0  0
  -30.5250  -11.9150   20.1353 H   0  0  0  0  0  0
  -29.9350  -11.7725   17.6939 H   0  0  0  0  0  0
  -29.5778  -13.4826   17.6632 H   0  0  0  0  0  0
  -28.0508  -11.2825   19.0798 H   0  0  0  0  0  0
  -27.4294  -12.3562   17.8509 H   0  0  0  0  0  0
  -27.5373  -14.2481   19.3370 H   0  0  0  0  0  0
  -28.8138  -12.4868   21.4798 H   0  0  0  0  0  0
  -28.2694  -14.1293   21.7128 H   0  0  0  0  0  0
  -25.2787   -9.5697   22.4744 H   0  0  0  0  0  0
  -24.0029   -7.4644   22.7473 H   0  0  0  0  0  0
  -21.0863   -8.8777   19.8947 H   0  0  0  0  0  0
  -22.3720  -10.9675   19.6152 H   0  0  0  0  0  0
  -21.2017   -7.6153   23.9716 H   0  0  0  0  0  0
  -21.1488   -6.0524   25.9078 H   0  0  0  0  0  0
  -22.0594   -2.7612   23.2831 H   0  0  0  0  0  0
  -22.4086  -11.9867   22.4860 H   0  0  0  0  0  0
  -21.1042  -13.1173   22.2630 H   0  0  0  0  0  0
  -24.6365  -15.8483   20.5407 H   0  0  0  0  0  0
  -26.2511  -15.6453   20.0894 H   0  0  0  0  0  0
  -26.7394  -32.5094   23.0866 H   0  0  0  0  0  0
  -25.0061  -33.9450   25.0161 H   0  0  0  0  0  0
  -22.7977  -31.2621   21.3416 H   0  0  0  0  0  0
  -23.3766  -35.9525   23.3276 H   0  0  0  0  0  0
  -24.3580  -36.8887   22.2074 H   0  0  0  0  0  0
  -23.7247  -37.6379   23.6732 H   0  0  0  0  0  0
  -26.2337  -31.3583   20.6196 H   0  0  0  0  0  0
  -26.9105  -30.6786   22.0568 H   0  0  0  0  0  0
  -28.1521  -28.5806   21.2851 H   0  0  0  0  0  0
  -25.8881  -25.7062   19.0213 H   0  0  0  0  0  0
  -24.0121  -27.2463   18.9576 H   0  0  0  0  0  0
  -23.8807  -30.5044   19.3841 H   0  0  0  0  0  0
  -22.8324  -29.1931   19.8278 H   0  0  0  0  0  0
  -25.1340  -36.1749   25.0789 H   0  0  0  0  0  0
  -21.0033  -28.3370   24.1306 H   0  0  0  0  0  0
  -20.5681  -26.2379   23.3644 H   0  0  0  0  0  0
  -21.6665  -26.7414   22.1210 H   0  0  0  0  0  0
  -19.6936  -25.6273   21.1282 H   0  0  0  0  0  0
  -19.6716  -27.3157   20.6715 H   0  0  0  0  0  0
  -17.4226  -26.6678   21.4027 H   0  0  0  0  0  0
  -18.0356  -26.0098   22.9029 H   0  0  0  0  0  0
  -19.7968  -30.7327   24.2183 H   0  0  0  0  0  0
  -17.5040  -31.6274   24.5168 H   0  0  0  0  0  0
  -15.5377  -30.2970   23.7706 H   0  0  0  0  0  0
  -15.8706  -28.0816   22.7097 H   0  0  0  0  0  0
  -24.5857  -30.7145   25.7640 H   0  0  0  0  0  0
  -24.8873  -32.2991   26.4664 H   0  0  0  0  0  0
  -25.7899  -30.9004   27.0192 H   0  0  0  0  0  0
  -26.3145  -29.6546   24.1444 H   0  0  0  0  0  0
  -27.3974  -29.7278   25.5123 H   0  0  0  0  0  0
  -27.9095  -30.4064   23.9891 H   0  0  0  0  0  0
  -27.2604  -33.3683   26.1954 H   0  0  0  0  0  0
  -28.3915  -32.6848   25.0365 H   0  0  0  0  0  0
  -28.0652  -31.8552   26.5505 H   0  0  0  0  0  0
  -28.2564  -38.0075   24.7516 H   0  0  0  0  0  0
  -28.1089  -36.2603   24.6285 H   0  0  0  0  0  0
  -27.2288  -37.1395   25.8866 H   0  0  0  0  0  0
  -20.9607  -29.8719   21.6635 H   0  0  0  0  0  0
  -26.0124  -38.2753   24.1406 H   0  0  0  0  0  0
  -29.1838  -19.7259   22.1676 H   0  0  0  0  0  0
  -30.9547  -17.2885   24.0621 H   0  0  0  0  0  0
  -31.1476  -18.3726   22.6951 H   0  0  0  0  0  0
  -31.8059  -16.7433   22.6237 H   0  0  0  0  0  0
  -30.0347  -23.0136   20.1104 H   0  0  0  0  0  0
  -29.1919  -22.8222   21.5712 H   0  0  0  0  0  0
  -28.8055  -17.4123   22.7986 H   0  0  0  0  0  0
  -29.4582  -15.8130   22.7944 H   0  0  0  0  0  0
  -27.0785  -23.9545   20.5403 H   0  0  0  0  0  0
  -27.8620  -24.0583   19.0140 H   0  0  0  0  0  0
  -28.5262  -16.4962   20.6241 H   0  0  0  0  0  0
  1 25  1  0  0  0
  1 30  2  0  0  0
  1 77  1  0  0  0
  2  3  1  0  0  0
  2 25  1  0  0  0
  2 81  1  0  0  0
  2 82  1  0  0  0
  3  4  1  0  0  0
  3 83  1  0  0  0
  3 84  1  0  0  0
  4  5  1  0  0  0
  4 85  1  0  0  0
  4 86  1  0  0  0
  5  6  1  0  0  0
  5 26  1  0  0  0
  5 87  1  0  0  0
  6 25  1  0  0  0
  6 88  1  0  0  0
  6 89  1  0  0  0
  7  8  2  0  0  0
  7 26  1  0  0  0
  7 29  1  0  0  0
  8  9  1  0  0  0
  8 22  1  0  0  0
  9 10  1  0  0  0
  9 27  2  0  0  0
 10 11  2  0  0  0
 10 15  1  0  0  0
 11 12  1  0  0  0
 11 90  1  0  0  0
 12 13  2  0  0  0
 12 91  1  0  0  0
 13 14  1  0  0  0
 13 31  1  0  0  0
 14 15  2  0  0  0
 14 92  1  0  0  0
 15 93  1  0  0  0
 16 17  2  0  0  0
 16 21  1  0  0  0
 16 31  1  0  0  0
 17 18  1  0  0  0
 17 94  1  0  0  0
 18 19  2  0  0  0
 18 95  1  0  0  0
 19 20  1  0  0  0
 19 24  1  0  0  0
 20 21  2  0  0  0
 20 96  1  0  0  0
 21 23  1  0  0  0
 22 28  1  0  0  0
 22 32  2  0  0  0
 26 27  1  0  0  0
 28 97  1  0  0  0
 28 98  1  0  0  0
 29 99  1  0  0  0
 29100  1  0  0  0
 33 34  1  0  0  0
 33 66  1  0  0  0
 33 70  2  0  0  0
 34 36  1  0  0  0
 34 59  1  0  0  0
 34101  1  0  0  0
 35 44  2  0  0  0
 35 45  1  0  0  0
 35 68  1  0  0  0
 36 56  1  0  0  0
 36102  1  0  0  0
 37 39  1  0  0  0
 37 47  1  0  0  0
 37 66  1  0  0  0
 37103  1  0  0  0
 38 43  2  0  0  0
 38 46  1  0  0  0
 38 47  1  0  0  0
 39 64  1  0  0  0
 39 67  2  0  0  0
 40 52  1  0  0  0
 40 53  2  0  0  0
 40 58  1  0  0  0
 41104  1  0  0  0
 41105  1  0  0  0
 41106  1  0  0  0
 41 48  1  0  0  0
 42 43  1  0  0  0
 42 66  1  0  0  0
 42107  1  0  0  0
 42108  1  0  0  0
 43 44  1  0  0  0
 44109  1  0  0  0
 45 46  2  0  0  0
 45110  1  0  0  0
 46111  1  0  0  0
 47112  1  0  0  0
 47113  1  0  0  0
 48 56  1  0  0  0
 48 65  1  0  0  0
 48114  1  0  0  0
 49 50  1  0  0  0
 49 53  1  0  0  0
 49 64  1  0  0  0
 49115  1  0  0  0
 50 51  1  0  0  0
 50116  1  0  0  0
 50117  1  0  0  0
 51 52  1  0  0  0
 51118  1  0  0  0
 51119  1  0  0  0
 52120  1  0  0  0
 52121  1  0  0  0
 53 54  1  0  0  0
 54 55  2  0  0  0
 54122  1  0  0  0
 55 57  1  0  0  0
 55123  1  0  0  0
 56 69  2  0  0  0
 57 58  2  0  0  0
 57124  1  0  0  0
 58125  1  0  0  0
 59 60  1  0  0  0
 59 61  1  0  0  0
 59 62  1  0  0  0
 60126  1  0  0  0
 60127  1  0  0  0
 60128  1  0  0  0
 61129  1  0  0  0
 61130  1  0  0  0
 61131  1  0  0  0
 62132  1  0  0  0
 62133  1  0  0  0
 62134  1  0  0  0
 63 65  1  0  0  0
 63135  1  0  0  0
 63136  1  0  0  0
 63137  1  0  0  0
 64138  1  0  0  0
 65139  1  0  0  0
 68 76  1  0  0  0
 71 72  2  0  0  0
 71 80  1  0  0  0
 71140  1  0  0  0
 72 74  1  0  0  0
 72 78  1  0  0  0
 73 75  1  0  0  0
 73141  1  0  0  0
 73142  1  0  0  0
 73143  1  0  0  0
 74 76  1  0  0  0
 74144  1  0  0  0
 74145  1  0  0  0
 75146  1  0  0  0
 75147  1  0  0  0
 75 77  1  0  0  0
 76148  1  0  0  0
 76149  1  0  0  0
 77 80  1  0  0  0
 77150  1  0  0  0
 78 79  2  0  0  0
 79 80  1  0  0  0
M  ISO  4   1 100  68 101  76 101  77 100
M  END
> <chiral flag>
0

> <version>
0

> <s_m_source_file>
/data/baiqing/PycharmProjects/Reinvent-master-3.2/result/LINK_invent/BTK/process_docking_weight1_custom_sum_contain_oxygen_bond_distance_aromatic_linkinvent_7_9_3/rearranged_h_0060.sdf

> <i_m_source_file_index>
10

> <r_mmod_Potential_Energy-OPLS-2005>
1438.24792480469

> <r_mmod_Stretch_Energy-OPLS-2005>
638.827941894531

> <r_mmod_Bend_Energy-OPLS-2005>
490.988647460938

> <r_mmod_Torsional_Energy-OPLS-2005>
195.924011230469

> <r_mmod_Improper_Torsional_Energy-OPLS-2005>
4.4546856880188

> <r_mmod_Van_der_Waal_Energy-OPLS-2005>
102.498321533203

> <r_mmod_Electrostatic_Energy-OPLS-2005>
-265.752960205078

> <r_mmod_Solvation_Energy-OPLS-2005>
-219.352981567383

> <b_mmod_Minimization_Converged-OPLS-2005>
0

> <r_mmod_RMS_Derivative-OPLS-2005>
0.862765789031982

$$$$
12
                    3D
 Structure written by MMmdl.
150158  0  0  1  0            999 V2000
  -30.5076  -15.0402   20.4061 C   0  0  0  0  0  0
  -30.4402  -12.6507   19.5076 C   0  0  0  0  0  0
  -29.5283  -12.5406   18.2625 C   0  0  0  0  0  0
  -28.0613  -12.3193   18.6786 C   0  0  0  0  0  0
  -27.6235  -13.2612   19.8320 C   0  0  2  0  0  0
  -28.6621  -13.3309   20.9693 C   0  0  0  0  0  0
  -25.2433  -13.8247   20.5733 C   0  0  0  0  0  0
  -24.1769  -13.0449   20.9257 C   0  0  0  0  0  0
  -24.6412  -11.6944   20.8765 C   0  0  0  0  0  0
  -23.9107  -10.4301   21.0406 C   0  0  0  0  0  0
  -24.3649   -9.4210   21.9178 C   0  0  0  0  0  0
  -23.6317   -8.2252   22.0743 C   0  0  0  0  0  0
  -22.4293   -8.0296   21.3538 C   0  0  0  0  0  0
  -21.9933   -9.0278   20.4644 C   0  0  0  0  0  0
  -22.7275  -10.2150   20.3059 C   0  0  0  0  0  0
  -21.6863   -6.0750   22.5275 C   0  0  0  0  0  0
  -21.4017   -6.5641   23.8213 C   0  0  0  0  0  0
  -21.3669   -5.6783   24.9165 C   0  0  0  0  0  0
  -21.6049   -4.3051   24.7198 C   0  0  0  0  0  0
  -21.8818   -3.8150   23.4316 C   0  0  0  0  0  0
  -21.9191   -4.6975   22.3380 C   0  0  0  0  0  0
  -22.7781  -13.5203   21.1908 C   0  0  0  0  0  0
  -22.1659   -4.2169   21.0950 F   0  0  0  0  0  0
  -21.5631   -3.4530   25.7702 F   0  0  0  0  0  0
  -29.9246  -13.7657   20.3615 N   0  0  0  0  0  0
  -26.2865  -12.9513   20.3222 N   0  0  0  0  0  0
  -25.9343  -11.6630   20.5717 N   0  0  0  0  0  0
  -22.0433  -12.8206   22.0479 N   0  0  0  0  0  0
  -25.4061  -15.1977   20.4139 N   0  0  0  0  0  0
  -31.7193  -15.0875   20.1709 O   0  0  0  0  0  0
  -21.6646   -6.8899   21.4240 O   0  0  0  0  0  0
  -22.3466  -14.5502   20.6743 O   0  0  0  0  0  0
  -24.6522  -31.8392   23.1861 C   0  0  0  0  0  0
  -25.9254  -32.4687   23.8288 C   0  0  1  0  0  0
  -27.2020  -27.0594   20.1599 C   0  0  0  0  0  0
  -25.5981  -33.8496   24.2209 N   0  0  0  0  0  0
  -23.4607  -30.4592   21.5320 C   0  0  2  0  0  0
  -24.9089  -28.8808   20.1095 C   0  0  0  0  0  0
  -22.7624  -29.4509   22.4812 C   0  0  0  0  0  0
  -18.0316  -28.1409   22.8479 C   0  0  0  0  0  0
  -24.1478  -36.7213   23.2651 C   0  0  0  0  0  0
  -26.0255  -30.6848   21.4028 C   0  0  0  0  0  0
  -26.0904  -29.2921   20.7398 C   0  0  0  0  0  0
  -27.2376  -28.3991   20.7471 C   0  0  0  0  0  0
  -25.9923  -26.7736   19.4857 C   0  0  0  0  0  0
  -24.8776  -27.6377   19.4652 C   0  0  0  0  0  0
  -23.6935  -29.7966   20.1492 C   0  0  0  0  0  0
  -25.4119  -36.3023   24.0330 C   0  0  1  0  0  0
  -20.5938  -28.3735   23.1212 C   0  0  2  0  0  0
  -20.6797  -26.9428   22.5395 C   0  0  0  0  0  0
  -19.5759  -26.6382   21.5218 C   0  0  0  0  0  0
  -18.1944  -26.7943   22.1634 C   0  0  0  0  0  0
  -19.1578  -28.8890   23.2842 C   0  0  0  0  0  0
  -18.9493  -30.1483   23.8871 C   0  0  0  0  0  0
  -17.6489  -30.6599   24.0557 C   0  0  0  0  0  0
  -25.9081  -34.9402   23.5073 C   0  0  0  0  0  0
  -16.5377  -29.9087   23.6352 C   0  0  0  0  0  0
  -16.7297  -28.6509   23.0366 C   0  0  0  0  0  0
  -26.4554  -31.6583   25.0762 C   0  0  0  0  0  0
  -25.3726  -31.3782   26.1453 C   0  0  0  0  0  0
  -27.0451  -30.2974   24.6413 C   0  0  0  0  0  0
  -27.6083  -32.4355   25.7539 C   0  0  0  0  0  0
  -27.5555  -37.1781   24.8485 C   0  0  0  0  0  0
  -21.4301  -29.3054   22.3576 N   0  0  0  0  0  0
  -26.4276  -37.3736   23.9409 N   0  0  0  0  0  0
  -24.7335  -31.0169   22.0941 N   0  0  0  0  0  0
  -23.4240  -28.8048   23.2977 O   0  0  0  0  0  0
  -28.2090  -26.0031   20.2408 O   0  0  0  0  0  0
  -26.5647  -34.8889   22.4640 O   0  0  0  0  0  0
  -23.5615  -32.1305   23.7017 O   0  0  0  0  0  0
  -30.1155  -22.8158   20.2929 C   0  0  0  0  0  0
  -30.3458  -21.4388   20.3636 C   0  0  0  0  0  0
  -28.7030  -23.0587   20.2516 C   0  0  0  0  0  0
  -27.8220  -18.8069   21.4498 C   0  0  0  0  0  0
  -27.8207  -24.4785   20.0359 C   0  0  0  0  0  0
  -30.0414  -17.8252   20.4371 C   0  0  0  0  0  0
  -28.8904  -19.1056   20.3857 C   0  0  2  0  0  0
  -28.1775  -21.7502   20.2941 N   0  0  0  0  0  0
  -29.1642  -20.7034   20.3751 N   0  0  0  0  0  0
  -29.7236  -16.2454   20.5088 N   0  0  0  0  0  0
  -31.4720  -12.8219   19.1969 H   0  0  0  0  0  0
  -30.4532  -11.7091   20.0597 H   0  0  0  0  0  0
  -29.8583  -11.7230   17.6195 H   0  0  0  0  0  0
  -29.6144  -13.4533   17.6712 H   0  0  0  0  0  0
  -27.9714  -11.2815   18.9994 H   0  0  0  0  0  0
  -27.3990  -12.4307   17.8185 H   0  0  0  0  0  0
  -27.5720  -14.2549   19.3878 H   0  0  0  0  0  0
  -28.7712  -12.3674   21.4671 H   0  0  0  0  0  0
  -28.3467  -14.0434   21.7343 H   0  0  0  0  0  0
  -25.2789   -9.5688   22.4763 H   0  0  0  0  0  0
  -24.0027   -7.4631   22.7450 H   0  0  0  0  0  0
  -21.0864   -8.8808   19.8945 H   0  0  0  0  0  0
  -22.3734  -10.9699   19.6178 H   0  0  0  0  0  0
  -21.2021   -7.6148   23.9732 H   0  0  0  0  0  0
  -21.1501   -6.0497   25.9074 H   0  0  0  0  0  0
  -22.0596   -2.7618   23.2791 H   0  0  0  0  0  0
  -22.4026  -11.9869   22.4902 H   0  0  0  0  0  0
  -21.1051  -13.1244   22.2664 H   0  0  0  0  0  0
  -24.6282  -15.8405   20.5106 H   0  0  0  0  0  0
  -26.2409  -15.6438   20.0582 H   0  0  0  0  0  0
  -26.7324  -32.5259   23.1014 H   0  0  0  0  0  0
  -25.0165  -33.9623   25.0385 H   0  0  0  0  0  0
  -22.7691  -31.2899   21.3766 H   0  0  0  0  0  0
  -23.3755  -35.9529   23.3345 H   0  0  0  0  0  0
  -24.3552  -36.8799   22.2055 H   0  0  0  0  0  0
  -23.7215  -37.6414   23.6659 H   0  0  0  0  0  0
  -26.2028  -31.4355   20.6321 H   0  0  0  0  0  0
  -26.8883  -30.7274   22.0552 H   0  0  0  0  0  0
  -28.1315  -28.7016   21.2739 H   0  0  0  0  0  0
  -25.8528  -25.8270   18.9871 H   0  0  0  0  0  0
  -23.9800  -27.3185   18.9535 H   0  0  0  0  0  0
  -23.8476  -30.5775   19.4030 H   0  0  0  0  0  0
  -22.8060  -29.2527   19.8234 H   0  0  0  0  0  0
  -25.1310  -36.1861   25.0824 H   0  0  0  0  0  0
  -21.0047  -28.3321   24.1326 H   0  0  0  0  0  0
  -20.5694  -26.2351   23.3623 H   0  0  0  0  0  0
  -21.6659  -26.7418   22.1190 H   0  0  0  0  0  0
  -19.6911  -25.6290   21.1255 H   0  0  0  0  0  0
  -19.6685  -27.3189   20.6742 H   0  0  0  0  0  0
  -17.4212  -26.6691   21.4034 H   0  0  0  0  0  0
  -18.0329  -26.0102   22.9044 H   0  0  0  0  0  0
  -19.7966  -30.7302   24.2235 H   0  0  0  0  0  0
  -17.5038  -31.6278   24.5155 H   0  0  0  0  0  0
  -15.5375  -30.2976   23.7694 H   0  0  0  0  0  0
  -15.8698  -28.0813   22.7102 H   0  0  0  0  0  0
  -24.5912  -30.7125   25.7773 H   0  0  0  0  0  0
  -24.8911  -32.2964   26.4826 H   0  0  0  0  0  0
  -25.8005  -30.8997   27.0271 H   0  0  0  0  0  0
  -26.3112  -29.6670   24.1383 H   0  0  0  0  0  0
  -27.4001  -29.7309   25.5032 H   0  0  0  0  0  0
  -27.9044  -30.4208   23.9817 H   0  0  0  0  0  0
  -27.2705  -33.3698   26.2025 H   0  0  0  0  0  0
  -28.3940  -32.6836   25.0397 H   0  0  0  0  0  0
  -28.0700  -31.8540   26.5527 H   0  0  0  0  0  0
  -28.2624  -38.0030   24.7481 H   0  0  0  0  0  0
  -28.1002  -36.2560   24.6392 H   0  0  0  0  0  0
  -27.2266  -37.1525   25.8890 H   0  0  0  0  0  0
  -20.9528  -29.8794   21.6765 H   0  0  0  0  0  0
  -26.0147  -38.2805   24.1397 H   0  0  0  0  0  0
  -30.8853  -23.5736   20.2447 H   0  0  0  0  0  0
  -31.2889  -20.9114   20.3902 H   0  0  0  0  0  0
  -26.9746  -19.4880   21.3701 H   0  0  0  0  0  0
  -28.2291  -18.8989   22.4562 H   0  0  0  0  0  0
  -27.4312  -17.7959   21.3362 H   0  0  0  0  0  0
  -26.8958  -24.3506   20.6006 H   0  0  0  0  0  0
  -27.5075  -24.4372   18.9931 H   0  0  0  0  0  0
  -30.6891  -17.9501   19.5678 H   0  0  0  0  0  0
  -30.6860  -18.0239   21.2931 H   0  0  0  0  0  0
  -28.3867  -18.9461   19.4332 H   0  0  0  0  0  0
  -28.7408  -16.0537   20.6227 H   0  0  0  0  0  0
  1 25  1  0  0  0
  1 30  2  0  0  0
  1 80  1  0  0  0
  2  3  1  0  0  0
  2 25  1  0  0  0
  2 81  1  0  0  0
  2 82  1  0  0  0
  3  4  1  0  0  0
  3 83  1  0  0  0
  3 84  1  0  0  0
  4  5  1  0  0  0
  4 85  1  0  0  0
  4 86  1  0  0  0
  5  6  1  0  0  0
  5 26  1  0  0  0
  5 87  1  0  0  0
  6 25  1  0  0  0
  6 88  1  0  0  0
  6 89  1  0  0  0
  7  8  2  0  0  0
  7 26  1  0  0  0
  7 29  1  0  0  0
  8  9  1  0  0  0
  8 22  1  0  0  0
  9 10  1  0  0  0
  9 27  2  0  0  0
 10 11  2  0  0  0
 10 15  1  0  0  0
 11 12  1  0  0  0
 11 90  1  0  0  0
 12 13  2  0  0  0
 12 91  1  0  0  0
 13 14  1  0  0  0
 13 31  1  0  0  0
 14 15  2  0  0  0
 14 92  1  0  0  0
 15 93  1  0  0  0
 16 17  2  0  0  0
 16 21  1  0  0  0
 16 31  1  0  0  0
 17 18  1  0  0  0
 17 94  1  0  0  0
 18 19  2  0  0  0
 18 95  1  0  0  0
 19 20  1  0  0  0
 19 24  1  0  0  0
 20 21  2  0  0  0
 20 96  1  0  0  0
 21 23  1  0  0  0
 22 28  1  0  0  0
 22 32  2  0  0  0
 26 27  1  0  0  0
 28 97  1  0  0  0
 28 98  1  0  0  0
 29 99  1  0  0  0
 29100  1  0  0  0
 33 34  1  0  0  0
 33 66  1  0  0  0
 33 70  2  0  0  0
 34 36  1  0  0  0
 34 59  1  0  0  0
 34101  1  0  0  0
 35 44  2  0  0  0
 35 45  1  0  0  0
 35 68  1  0  0  0
 36 56  1  0  0  0
 36102  1  0  0  0
 37 39  1  0  0  0
 37 47  1  0  0  0
 37 66  1  0  0  0
 37103  1  0  0  0
 38 43  2  0  0  0
 38 46  1  0  0  0
 38 47  1  0  0  0
 39 64  1  0  0  0
 39 67  2  0  0  0
 40 52  1  0  0  0
 40 53  2  0  0  0
 40 58  1  0  0  0
 41104  1  0  0  0
 41105  1  0  0  0
 41106  1  0  0  0
 41 48  1  0  0  0
 42 43  1  0  0  0
 42 66  1  0  0  0
 42107  1  0  0  0
 42108  1  0  0  0
 43 44  1  0  0  0
 44109  1  0  0  0
 45 46  2  0  0  0
 45110  1  0  0  0
 46111  1  0  0  0
 47112  1  0  0  0
 47113  1  0  0  0
 48 56  1  0  0  0
 48 65  1  0  0  0
 48114  1  0  0  0
 49 50  1  0  0  0
 49 53  1  0  0  0
 49 64  1  0  0  0
 49115  1  0  0  0
 50 51  1  0  0  0
 50116  1  0  0  0
 50117  1  0  0  0
 51 52  1  0  0  0
 51118  1  0  0  0
 51119  1  0  0  0
 52120  1  0  0  0
 52121  1  0  0  0
 53 54  1  0  0  0
 54 55  2  0  0  0
 54122  1  0  0  0
 55 57  1  0  0  0
 55123  1  0  0  0
 56 69  2  0  0  0
 57 58  2  0  0  0
 57124  1  0  0  0
 58125  1  0  0  0
 59 60  1  0  0  0
 59 61  1  0  0  0
 59 62  1  0  0  0
 60126  1  0  0  0
 60127  1  0  0  0
 60128  1  0  0  0
 61129  1  0  0  0
 61130  1  0  0  0
 61131  1  0  0  0
 62132  1  0  0  0
 62133  1  0  0  0
 62134  1  0  0  0
 63 65  1  0  0  0
 63135  1  0  0  0
 63136  1  0  0  0
 63137  1  0  0  0
 64138  1  0  0  0
 65139  1  0  0  0
 68 75  1  0  0  0
 71 72  2  0  0  0
 71 73  1  0  0  0
 71140  1  0  0  0
 72 79  1  0  0  0
 72141  1  0  0  0
 73 75  1  0  0  0
 73 78  2  0  0  0
 74142  1  0  0  0
 74143  1  0  0  0
 74144  1  0  0  0
 74 77  1  0  0  0
 75145  1  0  0  0
 75146  1  0  0  0
 76 77  1  0  0  0
 76 80  1  0  0  0
 76147  1  0  0  0
 76148  1  0  0  0
 77 79  1  0  0  0
 77149  1  0  0  0
 78 79  1  0  0  0
 80150  1  0  0  0
M  ISO  4   1 100  68 101  75 101  80 100
M  END
> <chiral flag>
0

> <version>
0

> <s_m_source_file>
/data/baiqing/PycharmProjects/Reinvent-master-3.2/result/LINK_invent/BTK/process_docking_weight1_custom_sum_contain_oxygen_bond_distance_aromatic_linkinvent_7_9_3/rearranged_h_0060.sdf

> <i_m_source_file_index>
11

> <r_mmod_Potential_Energy-OPLS-2005>
658.483764648438

> <r_mmod_Stretch_Energy-OPLS-2005>
337.543670654297

> <r_mmod_Bend_Energy-OPLS-2005>
299.659576416016

> <r_mmod_Torsional_Energy-OPLS-2005>
236.328689575195

> <r_mmod_Improper_Torsional_Energy-OPLS-2005>
4.81428813934326

> <r_mmod_Van_der_Waal_Energy-OPLS-2005>
109.294036865234

> <r_mmod_Electrostatic_Energy-OPLS-2005>
-372.272338867188

> <r_mmod_Solvation_Energy-OPLS-2005>
-228.45295715332

> <b_mmod_Minimization_Converged-OPLS-2005>
0

> <r_mmod_RMS_Derivative-OPLS-2005>
2.42285251617432

$$$$
13
                    3D
 Structure written by MMmdl.
155163  0  0  1  0            999 V2000
  -30.6267  -14.7913   20.4184 C   0  0  0  0  0  0
  -30.4320  -12.4767   19.4746 C   0  0  0  0  0  0
  -29.5114  -12.4752   18.2353 C   0  0  0  0  0  0
  -28.0368  -12.3067   18.6537 C   0  0  0  0  0  0
  -27.6332  -13.2230   19.8402 C   0  0  2  0  0  0
  -28.6859  -13.2231   20.9688 C   0  0  0  0  0  0
  -25.2537  -13.8160   20.5739 C   0  0  0  0  0  0
  -24.1809  -13.0420   20.9211 C   0  0  0  0  0  0
  -24.6386  -11.6894   20.8751 C   0  0  0  0  0  0
  -23.9061  -10.4283   21.0407 C   0  0  0  0  0  0
  -24.3614   -9.4207   21.9185 C   0  0  0  0  0  0
  -23.6291   -8.2240   22.0758 C   0  0  0  0  0  0
  -22.4272   -8.0282   21.3550 C   0  0  0  0  0  0
  -21.9901   -9.0255   20.4650 C   0  0  0  0  0  0
  -22.7229  -10.2130   20.3062 C   0  0  0  0  0  0
  -21.6858   -6.0734   22.5273 C   0  0  0  0  0  0
  -21.4015   -6.5632   23.8206 C   0  0  0  0  0  0
  -21.3662   -5.6786   24.9167 C   0  0  0  0  0  0
  -21.6045   -4.3050   24.7218 C   0  0  0  0  0  0
  -21.8823   -3.8141   23.4342 C   0  0  0  0  0  0
  -21.9199   -4.6961   22.3400 C   0  0  0  0  0  0
  -22.7844  -13.5232   21.1861 C   0  0  0  0  0  0
  -22.1677   -4.2148   21.0979 F   0  0  0  0  0  0
  -21.5629   -3.4542   25.7734 F   0  0  0  0  0  0
  -29.9736  -13.5746   20.3599 N   0  0  0  0  0  0
  -26.2928  -12.9332   20.3302 N   0  0  0  0  0  0
  -25.9314  -11.6489   20.5768 N   0  0  0  0  0  0
  -22.0478  -12.8230   22.0409 N   0  0  0  0  0  0
  -25.4249  -15.1887   20.4192 N   0  0  0  0  0  0
  -31.8464  -14.8060   20.2310 O   0  0  0  0  0  0
  -21.6644   -6.8874   21.4236 O   0  0  0  0  0  0
  -22.3542  -14.5540   20.6709 O   0  0  0  0  0  0
  -24.6326  -31.8528   23.1961 C   0  0  0  0  0  0
  -25.9142  -32.4745   23.8316 C   0  0  1  0  0  0
  -27.2219  -27.2383   20.1368 C   0  0  0  0  0  0
  -25.5934  -33.8548   24.2241 N   0  0  0  0  0  0
  -23.4302  -30.4731   21.5397 C   0  0  2  0  0  0
  -24.8771  -28.9149   20.1093 C   0  0  0  0  0  0
  -22.7503  -29.4583   22.4909 C   0  0  0  0  0  0
  -18.0291  -28.1388   22.8484 C   0  0  0  0  0  0
  -24.1491  -36.7272   23.2635 C   0  0  0  0  0  0
  -25.9767  -30.7596   21.3784 C   0  0  0  0  0  0
  -26.0475  -29.3805   20.7191 C   0  0  0  0  0  0
  -27.2182  -28.5545   20.7198 C   0  0  0  0  0  0
  -26.0227  -26.8392   19.5049 C   0  0  0  0  0  0
  -24.8710  -27.6542   19.4919 C   0  0  0  0  0  0
  -23.6485  -29.8045   20.1566 C   0  0  0  0  0  0
  -25.4120  -36.3064   24.0322 C   0  0  1  0  0  0
  -20.5893  -28.3697   23.1274 C   0  0  2  0  0  0
  -20.6785  -26.9410   22.5411 C   0  0  0  0  0  0
  -19.5760  -26.6376   21.5221 C   0  0  0  0  0  0
  -18.1936  -26.7930   22.1624 C   0  0  0  0  0  0
  -19.1544  -28.8860   23.2872 C   0  0  0  0  0  0
  -18.9464  -30.1465   23.8882 C   0  0  0  0  0  0
  -17.6462  -30.6588   24.0558 C   0  0  0  0  0  0
  -25.9060  -34.9434   23.5083 C   0  0  0  0  0  0
  -16.5354  -29.9080   23.6337 C   0  0  0  0  0  0
  -16.7278  -28.6501   23.0354 C   0  0  0  0  0  0
  -26.4495  -31.6590   25.0728 C   0  0  0  0  0  0
  -25.3700  -31.3764   26.1440 C   0  0  0  0  0  0
  -27.0347  -30.2997   24.6254 C   0  0  0  0  0  0
  -27.6038  -32.4337   25.7508 C   0  0  0  0  0  0
  -27.5579  -37.1791   24.8458 C   0  0  0  0  0  0
  -21.4206  -29.3034   22.3652 N   0  0  0  0  0  0
  -26.4291  -37.3768   23.9404 N   0  0  0  0  0  0
  -24.6990  -31.0478   22.0940 N   0  0  0  0  0  0
  -23.4198  -28.8134   23.3022 O   0  0  0  0  0  0
  -28.3375  -26.3669   20.2371 O   0  0  0  0  0  0
  -26.5632  -34.8907   22.4654 O   0  0  0  0  0  0
  -23.5474  -32.1353   23.7253 O   0  0  0  0  0  0
  -28.0976  -20.2800   21.3879 C   0  0  0  0  0  0
  -29.4177  -18.6853   20.9342 C   0  0  0  0  0  0
  -31.7154  -17.6261   21.2837 C   0  0  0  0  0  0
  -29.1792  -16.2971   19.1602 C   0  0  0  0  0  0
  -28.4950  -23.5865   20.5739 C   0  0  0  0  0  0
  -28.9997  -22.2048   19.8578 C   0  0  0  0  0  0
  -28.4173  -24.9594   19.6874 C   0  0  0  0  0  0
  -30.2107  -17.3146   21.1463 C   0  0  2  0  0  0
  -28.3132  -18.9874   21.6916 N   0  0  0  0  0  0
  -29.8208  -19.7578   20.1888 N   0  0  0  0  0  0
  -28.9705  -20.8237   20.5316 N   0  0  0  0  0  0
  -29.8952  -15.9944   20.4043 N   0  0  0  0  0  0
  -31.4719  -12.5976   19.1665 H   0  0  0  0  0  0
  -30.3840  -11.5178   19.9927 H   0  0  0  0  0  0
  -29.7962  -11.6689   17.5580 H   0  0  0  0  0  0
  -29.6415  -13.3989   17.6715 H   0  0  0  0  0  0
  -27.8980  -11.2626   18.9358 H   0  0  0  0  0  0
  -27.3798  -12.4812   17.8013 H   0  0  0  0  0  0
  -27.5905  -14.2247   19.4264 H   0  0  0  0  0  0
  -28.7416  -12.2481   21.4555 H   0  0  0  0  0  0
  -28.4208  -13.9472   21.7420 H   0  0  0  0  0  0
  -25.2757   -9.5696   22.4761 H   0  0  0  0  0  0
  -24.0013   -7.4628   22.7474 H   0  0  0  0  0  0
  -21.0837   -8.8770   19.8945 H   0  0  0  0  0  0
  -22.3688  -10.9677   19.6182 H   0  0  0  0  0  0
  -21.2005   -7.6137   23.9710 H   0  0  0  0  0  0
  -21.1485   -6.0516   25.9073 H   0  0  0  0  0  0
  -22.0600   -2.7607   23.2840 H   0  0  0  0  0  0
  -22.4094  -11.9891   22.4804 H   0  0  0  0  0  0
  -21.1097  -13.1270   22.2589 H   0  0  0  0  0  0
  -24.6649  -15.8473   20.5479 H   0  0  0  0  0  0
  -26.2926  -15.6318   20.1469 H   0  0  0  0  0  0
  -26.7209  -32.5382   23.1053 H   0  0  0  0  0  0
  -25.0087  -33.9690   25.0393 H   0  0  0  0  0  0
  -22.7280  -31.2967   21.3930 H   0  0  0  0  0  0
  -23.3764  -35.9590   23.3288 H   0  0  0  0  0  0
  -24.3579  -36.8908   22.2049 H   0  0  0  0  0  0
  -23.7233  -37.6461   23.6674 H   0  0  0  0  0  0
  -26.1207  -31.5222   20.6121 H   0  0  0  0  0  0
  -26.8511  -30.8053   22.0158 H   0  0  0  0  0  0
  -28.1140  -28.9055   21.2113 H   0  0  0  0  0  0
  -25.9258  -25.8690   19.0453 H   0  0  0  0  0  0
  -23.9699  -27.2899   19.0177 H   0  0  0  0  0  0
  -23.7722  -30.5797   19.3996 H   0  0  0  0  0  0
  -22.7661  -29.2383   19.8530 H   0  0  0  0  0  0
  -25.1309  -36.1896   25.0815 H   0  0  0  0  0  0
  -20.9993  -28.3278   24.1393 H   0  0  0  0  0  0
  -20.5703  -26.2299   23.3616 H   0  0  0  0  0  0
  -21.6653  -26.7444   22.1196 H   0  0  0  0  0  0
  -19.6921  -25.6282   21.1261 H   0  0  0  0  0  0
  -19.6707  -27.3179   20.6745 H   0  0  0  0  0  0
  -17.4212  -26.6677   21.4022 H   0  0  0  0  0  0
  -18.0328  -26.0077   22.9022 H   0  0  0  0  0  0
  -19.7937  -30.7288   24.2243 H   0  0  0  0  0  0
  -17.5012  -31.6269   24.5153 H   0  0  0  0  0  0
  -15.5355  -30.2973   23.7676 H   0  0  0  0  0  0
  -15.8678  -28.0819   22.7075 H   0  0  0  0  0  0
  -24.5874  -30.7119   25.7762 H   0  0  0  0  0  0
  -24.8898  -32.2946   26.4827 H   0  0  0  0  0  0
  -25.7994  -30.8957   27.0239 H   0  0  0  0  0  0
  -26.2953  -29.6743   24.1239 H   0  0  0  0  0  0
  -27.3957  -29.7269   25.4806 H   0  0  0  0  0  0
  -27.8860  -30.4250   23.9558 H   0  0  0  0  0  0
  -27.2638  -33.3634   26.2076 H   0  0  0  0  0  0
  -28.3858  -32.6900   25.0351 H   0  0  0  0  0  0
  -28.0698  -31.8473   26.5433 H   0  0  0  0  0  0
  -28.2585  -38.0100   24.7528 H   0  0  0  0  0  0
  -28.1092  -36.2632   24.6268 H   0  0  0  0  0  0
  -27.2298  -37.1416   25.8861 H   0  0  0  0  0  0
  -20.9396  -29.8726   21.6827 H   0  0  0  0  0  0
  -26.0163  -38.2835   24.1424 H   0  0  0  0  0  0
  -27.2685  -20.8433   21.7953 H   0  0  0  0  0  0
  -31.8688  -18.4701   21.9567 H   0  0  0  0  0  0
  -32.1560  -17.8927   20.3232 H   0  0  0  0  0  0
  -32.2833  -16.7967   21.7021 H   0  0  0  0  0  0
  -28.1410  -16.5514   19.3713 H   0  0  0  0  0  0
  -29.1878  -15.4781   18.4412 H   0  0  0  0  0  0
  -29.6357  -17.1463   18.6491 H   0  0  0  0  0  0
  -29.1490  -23.7721   21.4262 H   0  0  0  0  0  0
  -27.5077  -23.4110   21.0018 H   0  0  0  0  0  0
  -30.0266  -22.3675   19.5302 H   0  0  0  0  0  0
  -28.4241  -22.0953   18.9392 H   0  0  0  0  0  0
  -27.6922  -24.8091   18.8916 H   0  0  0  0  0  0
  -29.3612  -24.9789   19.1439 H   0  0  0  0  0  0
  -29.9285  -17.0279   22.1599 H   0  0  0  0  0  0
  1 25  1  0  0  0
  1 30  2  0  0  0
  1 82  1  0  0  0
  2  3  1  0  0  0
  2 25  1  0  0  0
  2 83  1  0  0  0
  2 84  1  0  0  0
  3  4  1  0  0  0
  3 85  1  0  0  0
  3 86  1  0  0  0
  4  5  1  0  0  0
  4 87  1  0  0  0
  4 88  1  0  0  0
  5  6  1  0  0  0
  5 26  1  0  0  0
  5 89  1  0  0  0
  6 25  1  0  0  0
  6 90  1  0  0  0
  6 91  1  0  0  0
  7  8  2  0  0  0
  7 26  1  0  0  0
  7 29  1  0  0  0
  8  9  1  0  0  0
  8 22  1  0  0  0
  9 10  1  0  0  0
  9 27  2  0  0  0
 10 11  2  0  0  0
 10 15  1  0  0  0
 11 12  1  0  0  0
 11 92  1  0  0  0
 12 13  2  0  0  0
 12 93  1  0  0  0
 13 14  1  0  0  0
 13 31  1  0  0  0
 14 15  2  0  0  0
 14 94  1  0  0  0
 15 95  1  0  0  0
 16 17  2  0  0  0
 16 21  1  0  0  0
 16 31  1  0  0  0
 17 18  1  0  0  0
 17 96  1  0  0  0
 18 19  2  0  0  0
 18 97  1  0  0  0
 19 20  1  0  0  0
 19 24  1  0  0  0
 20 21  2  0  0  0
 20 98  1  0  0  0
 21 23  1  0  0  0
 22 28  1  0  0  0
 22 32  2  0  0  0
 26 27  1  0  0  0
 28 99  1  0  0  0
 28100  1  0  0  0
 29101  1  0  0  0
 29102  1  0  0  0
 33 34  1  0  0  0
 33 66  1  0  0  0
 33 70  2  0  0  0
 34 36  1  0  0  0
 34 59  1  0  0  0
 34103  1  0  0  0
 35 44  2  0  0  0
 35 45  1  0  0  0
 35 68  1  0  0  0
 36 56  1  0  0  0
 36104  1  0  0  0
 37 39  1  0  0  0
 37 47  1  0  0  0
 37 66  1  0  0  0
 37105  1  0  0  0
 38 43  2  0  0  0
 38 46  1  0  0  0
 38 47  1  0  0  0
 39 64  1  0  0  0
 39 67  2  0  0  0
 40 52  1  0  0  0
 40 53  2  0  0  0
 40 58  1  0  0  0
 41106  1  0  0  0
 41107  1  0  0  0
 41108  1  0  0  0
 41 48  1  0  0  0
 42 43  1  0  0  0
 42 66  1  0  0  0
 42109  1  0  0  0
 42110  1  0  0  0
 43 44  1  0  0  0
 44111  1  0  0  0
 45 46  2  0  0  0
 45112  1  0  0  0
 46113  1  0  0  0
 47114  1  0  0  0
 47115  1  0  0  0
 48 56  1  0  0  0
 48 65  1  0  0  0
 48116  1  0  0  0
 49 50  1  0  0  0
 49 53  1  0  0  0
 49 64  1  0  0  0
 49117  1  0  0  0
 50 51  1  0  0  0
 50118  1  0  0  0
 50119  1  0  0  0
 51 52  1  0  0  0
 51120  1  0  0  0
 51121  1  0  0  0
 52122  1  0  0  0
 52123  1  0  0  0
 53 54  1  0  0  0
 54 55  2  0  0  0
 54124  1  0  0  0
 55 57  1  0  0  0
 55125  1  0  0  0
 56 69  2  0  0  0
 57 58  2  0  0  0
 57126  1  0  0  0
 58127  1  0  0  0
 59 60  1  0  0  0
 59 61  1  0  0  0
 59 62  1  0  0  0
 60128  1  0  0  0
 60129  1  0  0  0
 60130  1  0  0  0
 61131  1  0  0  0
 61132  1  0  0  0
 61133  1  0  0  0
 62134  1  0  0  0
 62135  1  0  0  0
 62136  1  0  0  0
 63 65  1  0  0  0
 63137  1  0  0  0
 63138  1  0  0  0
 63139  1  0  0  0
 64140  1  0  0  0
 65141  1  0  0  0
 68 77  1  0  0  0
 71 79  2  0  0  0
 71 81  1  0  0  0
 71142  1  0  0  0
 72 78  1  0  0  0
 72 79  1  0  0  0
 72 80  2  0  0  0
 73143  1  0  0  0
 73144  1  0  0  0
 73145  1  0  0  0
 73 78  1  0  0  0
 74 82  1  0  0  0
 74146  1  0  0  0
 74147  1  0  0  0
 74148  1  0  0  0
 75 76  1  0  0  0
 75 77  1  0  0  0
 75149  1  0  0  0
 75150  1  0  0  0
 76 81  1  0  0  0
 76151  1  0  0  0
 76152  1  0  0  0
 77153  1  0  0  0
 77154  1  0  0  0
 78 82  1  0  0  0
 78155  1  0  0  0
 80 81  1  0  0  0
M  ISO  4   1 100  68 101  77 101  82 100
M  END
> <chiral flag>
0

> <version>
0

> <s_m_source_file>
/data/baiqing/PycharmProjects/Reinvent-master-3.2/result/LINK_invent/BTK/process_docking_weight1_custom_sum_contain_oxygen_bond_distance_aromatic_linkinvent_7_9_3/rearranged_h_0060.sdf

> <i_m_source_file_index>
12

> <r_mmod_Potential_Energy-OPLS-2005>
320.802276611328

> <r_mmod_Stretch_Energy-OPLS-2005>
148.071395874023

> <r_mmod_Bend_Energy-OPLS-2005>
218.106079101562

> <r_mmod_Torsional_Energy-OPLS-2005>
292.055358886719

> <r_mmod_Improper_Torsional_Energy-OPLS-2005>
10.2111225128174

> <r_mmod_Van_der_Waal_Energy-OPLS-2005>
118.149169921875

> <r_mmod_Electrostatic_Energy-OPLS-2005>
-355.213073730469

> <r_mmod_Solvation_Energy-OPLS-2005>
-217.269195556641

> <b_mmod_Minimization_Converged-OPLS-2005>
0

> <r_mmod_RMS_Derivative-OPLS-2005>
1.47229266166687

$$$$
14
                    3D
 Structure written by MMmdl.
157165  0  0  1  0            999 V2000
  -30.4723  -15.3407   20.3804 C   0  0  0  0  0  0
  -30.4068  -12.8843   19.4834 C   0  0  0  0  0  0
  -29.5102  -12.5898   18.2596 C   0  0  0  0  0  0
  -28.0574  -12.3293   18.6853 C   0  0  0  0  0  0
  -27.5948  -13.2914   19.8081 C   0  0  2  0  0  0
  -28.6399  -13.5220   20.9189 C   0  0  0  0  0  0
  -25.2347  -13.8296   20.5796 C   0  0  0  0  0  0
  -24.1729  -13.0471   20.9293 C   0  0  0  0  0  0
  -24.6415  -11.6964   20.8802 C   0  0  0  0  0  0
  -23.9126  -10.4327   21.0405 C   0  0  0  0  0  0
  -24.3669   -9.4235   21.9177 C   0  0  0  0  0  0
  -23.6343   -8.2271   22.0750 C   0  0  0  0  0  0
  -22.4321   -8.0298   21.3539 C   0  0  0  0  0  0
  -21.9976   -9.0275   20.4633 C   0  0  0  0  0  0
  -22.7298  -10.2154   20.3042 C   0  0  0  0  0  0
  -21.6882   -6.0754   22.5261 C   0  0  0  0  0  0
  -21.4028   -6.5655   23.8187 C   0  0  0  0  0  0
  -21.3686   -5.6807   24.9153 C   0  0  0  0  0  0
  -21.6053   -4.3074   24.7203 C   0  0  0  0  0  0
  -21.8824   -3.8155   23.4326 C   0  0  0  0  0  0
  -21.9218   -4.6986   22.3378 C   0  0  0  0  0  0
  -22.7739  -13.5183   21.1916 C   0  0  0  0  0  0
  -22.1673   -4.2164   21.0964 F   0  0  0  0  0  0
  -21.5645   -3.4560   25.7727 F   0  0  0  0  0  0
  -29.8243  -14.0717   20.2321 N   0  0  0  0  0  0
  -26.2772  -12.9600   20.3241 N   0  0  0  0  0  0
  -25.9350  -11.6698   20.5740 N   0  0  0  0  0  0
  -22.0432  -12.8127   22.0456 N   0  0  0  0  0  0
  -25.4019  -15.2031   20.4235 N   0  0  0  0  0  0
  -31.7034  -15.1555   20.3375 O   0  0  0  0  0  0
  -21.6668   -6.8900   21.4222 O   0  0  0  0  0  0
  -22.3424  -14.5499   20.6777 O   0  0  0  0  0  0
  -24.6666  -31.8249   23.1622 C   0  0  0  0  0  0
  -25.9301  -32.4626   23.8151 C   0  0  1  0  0  0
  -27.2111  -26.8364   20.1995 C   0  0  0  0  0  0
  -25.5954  -33.8443   24.2077 N   0  0  0  0  0  0
  -23.4882  -30.4243   21.5217 C   0  0  2  0  0  0
  -24.9415  -28.7952   20.1170 C   0  0  0  0  0  0
  -22.7708  -29.4397   22.4832 C   0  0  0  0  0  0
  -18.0321  -28.1396   22.8484 C   0  0  0  0  0  0
  -24.1496  -36.7216   23.2644 C   0  0  0  0  0  0
  -26.0631  -30.5951   21.4108 C   0  0  0  0  0  0
  -26.1290  -29.1732   20.7576 C   0  0  0  0  0  0
  -27.2546  -28.2178   20.7720 C   0  0  0  0  0  0
  -25.9972  -26.6368   19.5038 C   0  0  0  0  0  0
  -24.9073  -27.5497   19.4692 C   0  0  0  0  0  0
  -23.7294  -29.7327   20.1524 C   0  0  0  0  0  0
  -25.4146  -36.3020   24.0307 C   0  0  1  0  0  0
  -20.5957  -28.3745   23.1202 C   0  0  2  0  0  0
  -20.6807  -26.9424   22.5421 C   0  0  0  0  0  0
  -19.5774  -26.6358   21.5247 C   0  0  0  0  0  0
  -18.1951  -26.7934   22.1631 C   0  0  0  0  0  0
  -19.1587  -28.8895   23.2820 C   0  0  0  0  0  0
  -18.9484  -30.1487   23.8862 C   0  0  0  0  0  0
  -17.6477  -30.6596   24.0544 C   0  0  0  0  0  0
  -25.9114  -34.9392   23.5029 C   0  0  0  0  0  0
  -16.5369  -29.9074   23.6342 C   0  0  0  0  0  0
  -16.7300  -28.6472   23.0400 C   0  0  0  0  0  0
  -26.4504  -31.6580   25.0704 C   0  0  0  0  0  0
  -25.3549  -31.3843   26.1292 C   0  0  0  0  0  0
  -27.0427  -30.2953   24.6488 C   0  0  0  0  0  0
  -27.6039  -32.4357   25.7479 C   0  0  0  0  0  0
  -27.5615  -37.1763   24.8455 C   0  0  0  0  0  0
  -21.4379  -29.3018   22.3567 N   0  0  0  0  0  0
  -26.4318  -37.3740   23.9408 N   0  0  0  0  0  0
  -24.7624  -30.9778   22.0839 N   0  0  0  0  0  0
  -23.4215  -28.8010   23.3128 O   0  0  0  0  0  0
  -28.1848  -25.6780   20.2796 O   0  0  0  0  0  0
  -26.5767  -34.8918   22.4651 O   0  0  0  0  0  0
  -23.5702  -32.1277   23.6610 O   0  0  0  0  0  0
  -30.5886  -20.2482   21.0241 C   0  0  0  0  0  0
  -29.3711  -19.8569   20.4407 C   0  0  0  0  0  0
  -28.8577  -22.5116   20.3779 C   0  0  0  0  0  0
  -30.1453  -22.6121   20.9817 C   0  0  0  0  0  0
  -32.2251  -24.0445   21.4485 C   0  0  0  0  0  0
  -30.1223  -24.2606   22.8771 C   0  0  0  0  0  0
  -30.8818  -17.2900   18.9679 C   0  0  0  0  0  0
  -29.0921  -18.0977   20.4537 C   0  0  0  0  0  0
  -27.8984  -24.0121   20.1285 C   0  0  0  0  0  0
  -30.6852  -23.9509   21.4800 C   0  0  0  0  0  0
  -30.9349  -21.5365   21.2971 N   0  0  0  0  0  0
  -28.5206  -21.0607   20.1406 N   0  0  0  0  0  0
  -29.9888  -16.7333   19.9970 N   0  0  0  0  0  0
  -31.4181  -13.0840   19.1242 H   0  0  0  0  0  0
  -30.4957  -12.0036   20.1223 H   0  0  0  0  0  0
  -29.8910  -11.7361   17.6954 H   0  0  0  0  0  0
  -29.5402  -13.4469   17.5859 H   0  0  0  0  0  0
  -27.9818  -11.2928   19.0161 H   0  0  0  0  0  0
  -27.3940  -12.4230   17.8233 H   0  0  0  0  0  0
  -27.4900  -14.2509   19.3012 H   0  0  0  0  0  0
  -28.8560  -12.6045   21.4716 H   0  0  0  0  0  0
  -28.2685  -14.2471   21.6453 H   0  0  0  0  0  0
  -25.2812   -9.5729   22.4752 H   0  0  0  0  0  0
  -24.0085   -7.4665   22.7462 H   0  0  0  0  0  0
  -21.0932   -8.8775   19.8913 H   0  0  0  0  0  0
  -22.3747  -10.9697   19.6154 H   0  0  0  0  0  0
  -21.1983   -7.6154   23.9698 H   0  0  0  0  0  0
  -21.1516   -6.0525   25.9056 H   0  0  0  0  0  0
  -22.0581   -2.7622   23.2801 H   0  0  0  0  0  0
  -22.4150  -11.9770   22.4744 H   0  0  0  0  0  0
  -21.0996  -13.0998   22.2643 H   0  0  0  0  0  0
  -24.6375  -15.8603   20.5295 H   0  0  0  0  0  0
  -26.2560  -15.6397   20.1049 H   0  0  0  0  0  0
  -26.7394  -32.5139   23.0893 H   0  0  0  0  0  0
  -25.0000  -33.9537   25.0162 H   0  0  0  0  0  0
  -22.7996  -31.2541   21.3495 H   0  0  0  0  0  0
  -23.3837  -35.9469   23.3245 H   0  0  0  0  0  0
  -24.3574  -36.8927   22.2070 H   0  0  0  0  0  0
  -23.7150  -37.6336   23.6740 H   0  0  0  0  0  0
  -26.2578  -31.3270   20.6258 H   0  0  0  0  0  0
  -26.9159  -30.6605   22.0737 H   0  0  0  0  0  0
  -28.1495  -28.5090   21.3029 H   0  0  0  0  0  0
  -25.8557  -25.6901   19.0034 H   0  0  0  0  0  0
  -24.0071  -27.2509   18.9510 H   0  0  0  0  0  0
  -23.8809  -30.5013   19.3951 H   0  0  0  0  0  0
  -22.8360  -29.1894   19.8385 H   0  0  0  0  0  0
  -25.1335  -36.1876   25.0803 H   0  0  0  0  0  0
  -21.0021  -28.3362   24.1339 H   0  0  0  0  0  0
  -20.5743  -26.2365   23.3666 H   0  0  0  0  0  0
  -21.6661  -26.7437   22.1203 H   0  0  0  0  0  0
  -19.6947  -25.6258   21.1309 H   0  0  0  0  0  0
  -19.6715  -27.3137   20.6749 H   0  0  0  0  0  0
  -17.4238  -26.6710   21.4006 H   0  0  0  0  0  0
  -18.0305  -26.0084   22.9018 H   0  0  0  0  0  0
  -19.7959  -30.7308   24.2228 H   0  0  0  0  0  0
  -17.5018  -31.6273   24.5140 H   0  0  0  0  0  0
  -15.5360  -30.2949   23.7683 H   0  0  0  0  0  0
  -15.8702  -28.0739   22.7194 H   0  0  0  0  0  0
  -24.5761  -30.7224   25.7493 H   0  0  0  0  0  0
  -24.8679  -32.3034   26.4542 H   0  0  0  0  0  0
  -25.7630  -30.9050   27.0193 H   0  0  0  0  0  0
  -26.3115  -29.6609   24.1477 H   0  0  0  0  0  0
  -27.3947  -29.7346   25.5153 H   0  0  0  0  0  0
  -27.9049  -30.4163   23.9940 H   0  0  0  0  0  0
  -27.2713  -33.3744   26.1904 H   0  0  0  0  0  0
  -28.3882  -32.6766   25.0301 H   0  0  0  0  0  0
  -28.0682  -31.8582   26.5474 H   0  0  0  0  0  0
  -28.2566  -38.0128   24.7622 H   0  0  0  0  0  0
  -28.1199  -36.2672   24.6168 H   0  0  0  0  0  0
  -27.2346  -37.1243   25.8856 H   0  0  0  0  0  0
  -20.9691  -29.8630   21.6607 H   0  0  0  0  0  0
  -26.0212  -38.2825   24.1405 H   0  0  0  0  0  0
  -31.2805  -19.4893   21.3636 H   0  0  0  0  0  0
  -32.6230  -23.7498   20.4753 H   0  0  0  0  0  0
  -32.6854  -23.4101   22.2095 H   0  0  0  0  0  0
  -32.5525  -25.0670   21.6379 H   0  0  0  0  0  0
  -29.0404  -24.3902   22.8468 H   0  0  0  0  0  0
  -30.5488  -25.1726   23.2965 H   0  0  0  0  0  0
  -30.3260  -23.4441   23.5695 H   0  0  0  0  0  0
  -31.8265  -17.6061   19.4140 H   0  0  0  0  0  0
  -30.4665  -18.1479   18.4405 H   0  0  0  0  0  0
  -31.1093  -16.5459   18.2012 H   0  0  0  0  0  0
  -28.1291  -17.9720   19.9607 H   0  0  0  0  0  0
  -28.8830  -17.8930   21.5031 H   0  0  0  0  0  0
  -27.0289  -23.8530   20.7660 H   0  0  0  0  0  0
  -27.5123  -23.8938   19.1169 H   0  0  0  0  0  0
  -30.3532  -24.7186   20.7854 H   0  0  0  0  0  0
  1 25  1  0  0  0
  1 30  2  0  0  0
  1 83  1  0  0  0
  2  3  1  0  0  0
  2 25  1  0  0  0
  2 84  1  0  0  0
  2 85  1  0  0  0
  3  4  1  0  0  0
  3 86  1  0  0  0
  3 87  1  0  0  0
  4  5  1  0  0  0
  4 88  1  0  0  0
  4 89  1  0  0  0
  5  6  1  0  0  0
  5 26  1  0  0  0
  5 90  1  0  0  0
  6 25  1  0  0  0
  6 91  1  0  0  0
  6 92  1  0  0  0
  7  8  2  0  0  0
  7 26  1  0  0  0
  7 29  1  0  0  0
  8  9  1  0  0  0
  8 22  1  0  0  0
  9 10  1  0  0  0
  9 27  2  0  0  0
 10 11  2  0  0  0
 10 15  1  0  0  0
 11 12  1  0  0  0
 11 93  1  0  0  0
 12 13  2  0  0  0
 12 94  1  0  0  0
 13 14  1  0  0  0
 13 31  1  0  0  0
 14 15  2  0  0  0
 14 95  1  0  0  0
 15 96  1  0  0  0
 16 17  2  0  0  0
 16 21  1  0  0  0
 16 31  1  0  0  0
 17 18  1  0  0  0
 17 97  1  0  0  0
 18 19  2  0  0  0
 18 98  1  0  0  0
 19 20  1  0  0  0
 19 24  1  0  0  0
 20 21  2  0  0  0
 20 99  1  0  0  0
 21 23  1  0  0  0
 22 28  1  0  0  0
 22 32  2  0  0  0
 26 27  1  0  0  0
 28100  1  0  0  0
 28101  1  0  0  0
 29102  1  0  0  0
 29103  1  0  0  0
 33 34  1  0  0  0
 33 66  1  0  0  0
 33 70  2  0  0  0
 34 36  1  0  0  0
 34 59  1  0  0  0
 34104  1  0  0  0
 35 44  2  0  0  0
 35 45  1  0  0  0
 35 68  1  0  0  0
 36 56  1  0  0  0
 36105  1  0  0  0
 37 39  1  0  0  0
 37 47  1  0  0  0
 37 66  1  0  0  0
 37106  1  0  0  0
 38 43  2  0  0  0
 38 46  1  0  0  0
 38 47  1  0  0  0
 39 64  1  0  0  0
 39 67  2  0  0  0
 40 52  1  0  0  0
 40 53  2  0  0  0
 40 58  1  0  0  0
 41107  1  0  0  0
 41108  1  0  0  0
 41109  1  0  0  0
 41 48  1  0  0  0
 42 43  1  0  0  0
 42 66  1  0  0  0
 42110  1  0  0  0
 42111  1  0  0  0
 43 44  1  0  0  0
 44112  1  0  0  0
 45 46  2  0  0  0
 45113  1  0  0  0
 46114  1  0  0  0
 47115  1  0  0  0
 47116  1  0  0  0
 48 56  1  0  0  0
 48 65  1  0  0  0
 48117  1  0  0  0
 49 50  1  0  0  0
 49 53  1  0  0  0
 49 64  1  0  0  0
 49118  1  0  0  0
 50 51  1  0  0  0
 50119  1  0  0  0
 50120  1  0  0  0
 51 52  1  0  0  0
 51121  1  0  0  0
 51122  1  0  0  0
 52123  1  0  0  0
 52124  1  0  0  0
 53 54  1  0  0  0
 54 55  2  0  0  0
 54125  1  0  0  0
 55 57  1  0  0  0
 55126  1  0  0  0
 56 69  2  0  0  0
 57 58  2  0  0  0
 57127  1  0  0  0
 58128  1  0  0  0
 59 60  1  0  0  0
 59 61  1  0  0  0
 59 62  1  0  0  0
 60129  1  0  0  0
 60130  1  0  0  0
 60131  1  0  0  0
 61132  1  0  0  0
 61133  1  0  0  0
 61134  1  0  0  0
 62135  1  0  0  0
 62136  1  0  0  0
 62137  1  0  0  0
 63 65  1  0  0  0
 63138  1  0  0  0
 63139  1  0  0  0
 63140  1  0  0  0
 64141  1  0  0  0
 65142  1  0  0  0
 68 79  1  0  0  0
 71 72  2  0  0  0
 71 81  1  0  0  0
 71143  1  0  0  0
 72 78  1  0  0  0
 72 82  1  0  0  0
 73 74  1  0  0  0
 73 79  1  0  0  0
 73 82  2  0  0  0
 74 80  1  0  0  0
 74 81  2  0  0  0
 75144  1  0  0  0
 75145  1  0  0  0
 75146  1  0  0  0
 75 80  1  0  0  0
 76 80  1  0  0  0
 76147  1  0  0  0
 76148  1  0  0  0
 76149  1  0  0  0
 77 83  1  0  0  0
 77150  1  0  0  0
 77151  1  0  0  0
 77152  1  0  0  0
 78 83  1  0  0  0
 78153  1  0  0  0
 78154  1  0  0  0
 79155  1  0  0  0
 79156  1  0  0  0
 80157  1  0  0  0
M  ISO  4   1 100  68 101  79 101  83 100
M  END
> <chiral flag>
0

> <version>
0

> <s_m_source_file>
/data/baiqing/PycharmProjects/Reinvent-master-3.2/result/LINK_invent/BTK/process_docking_weight1_custom_sum_contain_oxygen_bond_distance_aromatic_linkinvent_7_9_3/rearranged_h_0060.sdf

> <i_m_source_file_index>
13

> <r_mmod_Potential_Energy-OPLS-2005>
1811.5712890625

> <r_mmod_Stretch_Energy-OPLS-2005>
734.557250976562

> <r_mmod_Bend_Energy-OPLS-2005>
533.377807617188

> <r_mmod_Torsional_Energy-OPLS-2005>
275.641723632812

> <r_mmod_Improper_Torsional_Energy-OPLS-2005>
27.6549510955811

> <r_mmod_Van_der_Waal_Energy-OPLS-2005>
137.20036315918

> <r_mmod_Electrostatic_Energy-OPLS-2005>
-246.631729125977

> <r_mmod_Solvation_Energy-OPLS-2005>
-216.092987060547

> <b_mmod_Minimization_Converged-OPLS-2005>
0

> <r_mmod_RMS_Derivative-OPLS-2005>
4.31813335418701

$$$$
15
                    3D
 Structure written by MMmdl.
163171  0  0  1  0            999 V2000
  -30.6796  -14.5220   20.6090 C   0  0  0  0  0  0
  -30.4324  -12.3516   19.4229 C   0  0  0  0  0  0
  -29.4964  -12.5263   18.2086 C   0  0  0  0  0  0
  -28.0165  -12.3793   18.6193 C   0  0  0  0  0  0
  -27.6616  -13.2095   19.8829 C   0  0  2  0  0  0
  -28.7068  -12.9714   20.9942 C   0  0  0  0  0  0
  -25.2586  -13.8168   20.5702 C   0  0  0  0  0  0
  -24.1836  -13.0444   20.9195 C   0  0  0  0  0  0
  -24.6394  -11.6913   20.8750 C   0  0  0  0  0  0
  -23.9056  -10.4296   21.0415 C   0  0  0  0  0  0
  -24.3603   -9.4206   21.9191 C   0  0  0  0  0  0
  -23.6284   -8.2243   22.0752 C   0  0  0  0  0  0
  -22.4272   -8.0286   21.3538 C   0  0  0  0  0  0
  -21.9906   -9.0263   20.4646 C   0  0  0  0  0  0
  -22.7230  -10.2143   20.3060 C   0  0  0  0  0  0
  -21.6850   -6.0739   22.5286 C   0  0  0  0  0  0
  -21.4013   -6.5643   23.8218 C   0  0  0  0  0  0
  -21.3656   -5.6796   24.9178 C   0  0  0  0  0  0
  -21.6043   -4.3060   24.7228 C   0  0  0  0  0  0
  -21.8816   -3.8151   23.4348 C   0  0  0  0  0  0
  -21.9189   -4.6969   22.3405 C   0  0  0  0  0  0
  -22.7857  -13.5248   21.1870 C   0  0  0  0  0  0
  -22.1659   -4.2149   21.0982 F   0  0  0  0  0  0
  -21.5625   -3.4546   25.7740 F   0  0  0  0  0  0
  -30.0233  -13.3313   20.4459 N   0  0  0  0  0  0
  -26.3030  -12.9343   20.3414 N   0  0  0  0  0  0
  -25.9317  -11.6499   20.5788 N   0  0  0  0  0  0
  -22.0479  -12.8235   22.0408 N   0  0  0  0  0  0
  -25.4332  -15.1881   20.4086 N   0  0  0  0  0  0
  -31.7956  -14.6886   20.1020 O   0  0  0  0  0  0
  -21.6637   -6.8878   21.4242 O   0  0  0  0  0  0
  -22.3540  -14.5552   20.6722 O   0  0  0  0  0  0
  -24.6156  -31.8654   23.2057 C   0  0  0  0  0  0
  -25.9043  -32.4807   23.8368 C   0  0  1  0  0  0
  -27.2302  -27.4111   20.1135 C   0  0  0  0  0  0
  -25.5889  -33.8600   24.2292 N   0  0  0  0  0  0
  -23.4065  -30.4876   21.5454 C   0  0  2  0  0  0
  -24.8550  -28.9475   20.1129 C   0  0  0  0  0  0
  -22.7437  -29.4637   22.4961 C   0  0  0  0  0  0
  -18.0287  -28.1361   22.8493 C   0  0  0  0  0  0
  -24.1489  -36.7306   23.2639 C   0  0  0  0  0  0
  -25.9371  -30.8267   21.3606 C   0  0  0  0  0  0
  -26.0163  -29.4595   20.7063 C   0  0  0  0  0  0
  -27.2135  -28.7022   20.6953 C   0  0  0  0  0  0
  -26.0563  -26.9163   19.5130 C   0  0  0  0  0  0
  -24.8707  -27.6786   19.5083 C   0  0  0  0  0  0
  -23.6171  -29.8166   20.1604 C   0  0  0  0  0  0
  -25.4107  -36.3100   24.0331 C   0  0  1  0  0  0
  -20.5875  -28.3635   23.1311 C   0  0  2  0  0  0
  -20.6768  -26.9362   22.5419 C   0  0  0  0  0  0
  -19.5744  -26.6362   21.5216 C   0  0  0  0  0  0
  -18.1923  -26.7913   22.1622 C   0  0  0  0  0  0
  -19.1532  -28.8819   23.2908 C   0  0  0  0  0  0
  -18.9463  -30.1430   23.8906 C   0  0  0  0  0  0
  -17.6467  -30.6559   24.0545 C   0  0  0  0  0  0
  -25.9035  -34.9461   23.5115 C   0  0  0  0  0  0
  -16.5357  -29.9054   23.6325 C   0  0  0  0  0  0
  -16.7281  -28.6472   23.0350 C   0  0  0  0  0  0
  -26.4470  -31.6600   25.0710 C   0  0  0  0  0  0
  -25.3753  -31.3724   26.1477 C   0  0  0  0  0  0
  -27.0300  -30.3039   24.6109 C   0  0  0  0  0  0
  -27.6040  -32.4328   25.7486 C   0  0  0  0  0  0
  -27.5580  -37.1806   24.8472 C   0  0  0  0  0  0
  -21.4158  -29.3012   22.3726 N   0  0  0  0  0  0
  -26.4294  -37.3787   23.9411 N   0  0  0  0  0  0
  -24.6714  -31.0758   22.0951 N   0  0  0  0  0  0
  -23.4212  -28.8172   23.2997 O   0  0  0  0  0  0
  -28.3708  -26.6331   20.1097 O   0  0  0  0  0  0
  -26.5613  -34.8917   22.4683 O   0  0  0  0  0  0
  -23.5338  -32.1392   23.7449 O   0  0  0  0  0  0
  -30.3817  -18.7318   19.5360 C   0  0  0  0  0  0
  -29.0470  -18.0739   21.1190 C   0  0  0  0  0  0
  -29.3062  -19.1919   20.3534 C   0  0  0  0  0  0
  -30.8187  -15.8864   22.7522 C   0  0  0  0  0  0
  -27.3277  -20.5099   21.1870 C   0  0  0  0  0  0
  -28.1594  -20.8433   18.8565 C   0  0  0  0  0  0
  -28.3911  -24.0308   20.3722 C   0  0  0  0  0  0
  -29.5964  -23.0099   20.2323 C   0  0  0  0  0  0
  -28.3559  -25.4846   21.0014 C   0  0  0  0  0  0
  -30.0500  -15.7118   21.4302 C   0  0  1  0  0  0
  -28.5958  -20.5678   20.3139 C   0  0  0  0  0  0
  -30.7619  -17.4850   19.8063 N   0  0  0  0  0  0
  -29.9187  -17.0436   20.7711 N   0  0  0  0  0  0
  -29.4777  -21.6484   20.8727 N   0  3  0  0  0  0
  -31.4728  -12.4704   19.1150 H   0  0  0  0  0  0
  -30.3617  -11.3385   19.8220 H   0  0  0  0  0  0
  -29.7439  -11.7993   17.4348 H   0  0  0  0  0  0
  -29.6551  -13.5112   17.7658 H   0  0  0  0  0  0
  -27.8280  -11.3217   18.8078 H   0  0  0  0  0  0
  -27.3646  -12.6595   17.7905 H   0  0  0  0  0  0
  -27.7107  -14.2618   19.6015 H   0  0  0  0  0  0
  -28.7082  -11.9179   21.2790 H   0  0  0  0  0  0
  -28.4520  -13.4934   21.9151 H   0  0  0  0  0  0
  -25.2747   -9.5690   22.4765 H   0  0  0  0  0  0
  -24.0001   -7.4628   22.7467 H   0  0  0  0  0  0
  -21.0832   -8.8776   19.8943 H   0  0  0  0  0  0
  -22.3686  -10.9684   19.6167 H   0  0  0  0  0  0
  -21.2009   -7.6152   23.9722 H   0  0  0  0  0  0
  -21.1479   -6.0526   25.9078 H   0  0  0  0  0  0
  -22.0596   -2.7615   23.2853 H   0  0  0  0  0  0
  -22.4080  -11.9884   22.4788 H   0  0  0  0  0  0
  -21.1097  -13.1266   22.2614 H   0  0  0  0  0  0
  -24.6680  -15.8461   20.5075 H   0  0  0  0  0  0
  -26.2828  -15.6183   20.0671 H   0  0  0  0  0  0
  -26.7111  -32.5510   23.1123 H   0  0  0  0  0  0
  -25.0065  -33.9773   25.0462 H   0  0  0  0  0  0
  -22.6960  -31.3049   21.4018 H   0  0  0  0  0  0
  -23.3746  -35.9651   23.3330 H   0  0  0  0  0  0
  -24.3595  -36.8914   22.2057 H   0  0  0  0  0  0
  -23.7253  -37.6518   23.6653 H   0  0  0  0  0  0
  -26.0608  -31.5931   20.5941 H   0  0  0  0  0  0
  -26.8206  -30.8775   21.9841 H   0  0  0  0  0  0
  -28.1112  -29.0936   21.1522 H   0  0  0  0  0  0
  -26.0602  -25.9382   19.0547 H   0  0  0  0  0  0
  -23.9780  -27.2794   19.0462 H   0  0  0  0  0  0
  -23.7325  -30.5923   19.4014 H   0  0  0  0  0  0
  -22.7413  -29.2417   19.8593 H   0  0  0  0  0  0
  -25.1296  -36.1958   25.0826 H   0  0  0  0  0  0
  -20.9992  -28.3179   24.1420 H   0  0  0  0  0  0
  -20.5666  -26.2228   23.3596 H   0  0  0  0  0  0
  -21.6633  -26.7392   22.1205 H   0  0  0  0  0  0
  -19.6894  -25.6287   21.1214 H   0  0  0  0  0  0
  -19.6673  -27.3200   20.6760 H   0  0  0  0  0  0
  -17.4199  -26.6683   21.4011 H   0  0  0  0  0  0
  -18.0295  -26.0052   22.9006 H   0  0  0  0  0  0
  -19.7945  -30.7250   24.2260 H   0  0  0  0  0  0
  -17.5013  -31.6249   24.5142 H   0  0  0  0  0  0
  -15.5350  -30.2945   23.7637 H   0  0  0  0  0  0
  -15.8687  -28.0783   22.7045 H   0  0  0  0  0  0
  -24.5907  -30.7086   25.7839 H   0  0  0  0  0  0
  -24.8963  -32.2892   26.4939 H   0  0  0  0  0  0
  -25.8103  -30.8899   27.0232 H   0  0  0  0  0  0
  -26.2838  -29.6808   24.1167 H   0  0  0  0  0  0
  -27.4094  -29.7275   25.4559 H   0  0  0  0  0  0
  -27.8660  -30.4376   23.9232 H   0  0  0  0  0  0
  -27.2651  -33.3621   26.2069 H   0  0  0  0  0  0
  -28.3834  -32.6905   25.0307 H   0  0  0  0  0  0
  -28.0719  -31.8461   26.5411 H   0  0  0  0  0  0
  -28.2597  -38.0097   24.7507 H   0  0  0  0  0  0
  -28.1065  -36.2628   24.6304 H   0  0  0  0  0  0
  -27.2312  -37.1487   25.8880 H   0  0  0  0  0  0
  -20.9308  -29.8763   21.6978 H   0  0  0  0  0  0
  -26.0181  -38.2868   24.1408 H   0  0  0  0  0  0
  -30.9025  -19.2722   18.7573 H   0  0  0  0  0  0
  -28.3061  -17.9230   21.8920 H   0  0  0  0  0  0
  -30.2490  -16.4914   23.4584 H   0  0  0  0  0  0
  -31.7798  -16.3759   22.5890 H   0  0  0  0  0  0
  -31.0122  -14.9270   23.2320 H   0  0  0  0  0  0
  -26.6472  -19.7258   20.8528 H   0  0  0  0  0  0
  -26.7776  -21.4494   21.1617 H   0  0  0  0  0  0
  -27.5654  -20.3068   22.2333 H   0  0  0  0  0  0
  -27.5272  -20.0349   18.4886 H   0  0  0  0  0  0
  -29.0074  -20.9169   18.1761 H   0  0  0  0  0  0
  -27.5738  -21.7588   18.7664 H   0  0  0  0  0  0
  -29.0343  -24.5772   19.6810 H   0  0  0  0  0  0
  -28.4295  -23.7489   21.4252 H   0  0  0  0  0  0
  -30.4873  -23.4603   20.6767 H   0  0  0  0  0  0
  -29.8690  -22.8595   19.1853 H   0  0  0  0  0  0
  -27.4835  -25.5604   21.6594 H   0  0  0  0  0  0
  -29.2099  -25.6245   21.6694 H   0  0  0  0  0  0
  -29.0297  -15.4528   21.6922 H   0  0  0  0  0  0
  -29.2555  -21.7632   21.8482 H   0  0  0  0  0  0
  -30.4112  -21.2714   20.8584 H   0  0  0  0  0  0
  1 25  1  0  0  0
  1 30  2  0  0  0
  1 80  1  0  0  0
  2  3  1  0  0  0
  2 25  1  0  0  0
  2 85  1  0  0  0
  2 86  1  0  0  0
  3  4  1  0  0  0
  3 87  1  0  0  0
  3 88  1  0  0  0
  4  5  1  0  0  0
  4 89  1  0  0  0
  4 90  1  0  0  0
  5  6  1  0  0  0
  5 26  1  0  0  0
  5 91  1  0  0  0
  6 25  1  0  0  0
  6 92  1  0  0  0
  6 93  1  0  0  0
  7  8  2  0  0  0
  7 26  1  0  0  0
  7 29  1  0  0  0
  8  9  1  0  0  0
  8 22  1  0  0  0
  9 10  1  0  0  0
  9 27  2  0  0  0
 10 11  2  0  0  0
 10 15  1  0  0  0
 11 12  1  0  0  0
 11 94  1  0  0  0
 12 13  2  0  0  0
 12 95  1  0  0  0
 13 14  1  0  0  0
 13 31  1  0  0  0
 14 15  2  0  0  0
 14 96  1  0  0  0
 15 97  1  0  0  0
 16 17  2  0  0  0
 16 21  1  0  0  0
 16 31  1  0  0  0
 17 18  1  0  0  0
 17 98  1  0  0  0
 18 19  2  0  0  0
 18 99  1  0  0  0
 19 20  1  0  0  0
 19 24  1  0  0  0
 20 21  2  0  0  0
 20100  1  0  0  0
 21 23  1  0  0  0
 22 28  1  0  0  0
 22 32  2  0  0  0
 26 27  1  0  0  0
 28101  1  0  0  0
 28102  1  0  0  0
 29103  1  0  0  0
 29104  1  0  0  0
 33 34  1  0  0  0
 33 66  1  0  0  0
 33 70  2  0  0  0
 34 36  1  0  0  0
 34 59  1  0  0  0
 34105  1  0  0  0
 35 44  2  0  0  0
 35 45  1  0  0  0
 35 68  1  0  0  0
 36 56  1  0  0  0
 36106  1  0  0  0
 37 39  1  0  0  0
 37 47  1  0  0  0
 37 66  1  0  0  0
 37107  1  0  0  0
 38 43  2  0  0  0
 38 46  1  0  0  0
 38 47  1  0  0  0
 39 64  1  0  0  0
 39 67  2  0  0  0
 40 52  1  0  0  0
 40 53  2  0  0  0
 40 58  1  0  0  0
 41108  1  0  0  0
 41109  1  0  0  0
 41110  1  0  0  0
 41 48  1  0  0  0
 42 43  1  0  0  0
 42 66  1  0  0  0
 42111  1  0  0  0
 42112  1  0  0  0
 43 44  1  0  0  0
 44113  1  0  0  0
 45 46  2  0  0  0
 45114  1  0  0  0
 46115  1  0  0  0
 47116  1  0  0  0
 47117  1  0  0  0
 48 56  1  0  0  0
 48 65  1  0  0  0
 48118  1  0  0  0
 49 50  1  0  0  0
 49 53  1  0  0  0
 49 64  1  0  0  0
 49119  1  0  0  0
 50 51  1  0  0  0
 50120  1  0  0  0
 50121  1  0  0  0
 51 52  1  0  0  0
 51122  1  0  0  0
 51123  1  0  0  0
 52124  1  0  0  0
 52125  1  0  0  0
 53 54  1  0  0  0
 54 55  2  0  0  0
 54126  1  0  0  0
 55 57  1  0  0  0
 55127  1  0  0  0
 56 69  2  0  0  0
 57 58  2  0  0  0
 57128  1  0  0  0
 58129  1  0  0  0
 59 60  1  0  0  0
 59 61  1  0  0  0
 59 62  1  0  0  0
 60130  1  0  0  0
 60131  1  0  0  0
 60132  1  0  0  0
 61133  1  0  0  0
 61134  1  0  0  0
 61135  1  0  0  0
 62136  1  0  0  0
 62137  1  0  0  0
 62138  1  0  0  0
 63 65  1  0  0  0
 63139  1  0  0  0
 63140  1  0  0  0
 63141  1  0  0  0
 64142  1  0  0  0
 65143  1  0  0  0
 68 79  1  0  0  0
 71 73  1  0  0  0
 71 82  2  0  0  0
 71144  1  0  0  0
 72 73  2  0  0  0
 72 83  1  0  0  0
 72145  1  0  0  0
 73 81  1  0  0  0
 74146  1  0  0  0
 74147  1  0  0  0
 74148  1  0  0  0
 74 80  1  0  0  0
 75149  1  0  0  0
 75150  1  0  0  0
 75151  1  0  0  0
 75 81  1  0  0  0
 76 81  1  0  0  0
 76152  1  0  0  0
 76153  1  0  0  0
 76154  1  0  0  0
 77 78  1  0  0  0
 77 79  1  0  0  0
 77155  1  0  0  0
 77156  1  0  0  0
 78 84  1  0  0  0
 78157  1  0  0  0
 78158  1  0  0  0
 79159  1  0  0  0
 79160  1  0  0  0
 80 83  1  0  0  0
 80161  1  0  0  0
 81 84  1  0  0  0
 82 83  1  0  0  0
 84162  1  0  0  0
 84163  1  0  0  0
M  CHG  1  84   1
M  ISO  4   1 100  68 101  79 101  80 100
M  END
> <chiral flag>
0

> <version>
0

> <s_m_source_file>
/data/baiqing/PycharmProjects/Reinvent-master-3.2/result/LINK_invent/BTK/process_docking_weight1_custom_sum_contain_oxygen_bond_distance_aromatic_linkinvent_7_9_3/rearranged_h_0060.sdf

> <i_m_source_file_index>
14

> <r_mmod_Potential_Energy-OPLS-2005>
149.873733520508

> <r_mmod_Stretch_Energy-OPLS-2005>
56.8656692504883

> <r_mmod_Bend_Energy-OPLS-2005>
356.084442138672

> <r_mmod_Torsional_Energy-OPLS-2005>
234.301528930664

> <r_mmod_Improper_Torsional_Energy-OPLS-2005>
2.28054285049438

> <r_mmod_Van_der_Waal_Energy-OPLS-2005>
138.125549316406

> <r_mmod_Electrostatic_Energy-OPLS-2005>
-177.880584716797

> <r_mmod_Solvation_Energy-OPLS-2005>
-476.938232421875

> <b_mmod_Minimization_Converged-OPLS-2005>
0

> <r_mmod_RMS_Derivative-OPLS-2005>
2.75729489326477

$$$$
16
                    3D
 Structure written by MMmdl.
152160  0  0  1  0            999 V2000
  -30.5950  -14.7960   20.4123 C   0  0  0  0  0  0
  -30.4377  -12.4775   19.4721 C   0  0  0  0  0  0
  -29.5127  -12.4651   18.2354 C   0  0  0  0  0  0
  -28.0358  -12.3107   18.6548 C   0  0  0  0  0  0
  -27.6341  -13.2269   19.8428 C   0  0  2  0  0  0
  -28.6860  -13.2086   20.9709 C   0  0  0  0  0  0
  -25.2512  -13.8177   20.5734 C   0  0  0  0  0  0
  -24.1795  -13.0433   20.9219 C   0  0  0  0  0  0
  -24.6381  -11.6902   20.8769 C   0  0  0  0  0  0
  -23.9061  -10.4289   21.0420 C   0  0  0  0  0  0
  -24.3619   -9.4205   21.9192 C   0  0  0  0  0  0
  -23.6297   -8.2239   22.0757 C   0  0  0  0  0  0
  -22.4279   -8.0283   21.3544 C   0  0  0  0  0  0
  -21.9912   -9.0258   20.4649 C   0  0  0  0  0  0
  -22.7238  -10.2138   20.3062 C   0  0  0  0  0  0
  -21.6855   -6.0739   22.5277 C   0  0  0  0  0  0
  -21.4015   -6.5639   23.8211 C   0  0  0  0  0  0
  -21.3657   -5.6792   24.9171 C   0  0  0  0  0  0
  -21.6039   -4.3053   24.7223 C   0  0  0  0  0  0
  -21.8818   -3.8147   23.4343 C   0  0  0  0  0  0
  -21.9197   -4.6968   22.3401 C   0  0  0  0  0  0
  -22.7820  -13.5221   21.1865 C   0  0  0  0  0  0
  -22.1663   -4.2150   21.0982 F   0  0  0  0  0  0
  -21.5631   -3.4538   25.7738 F   0  0  0  0  0  0
  -29.9733  -13.5643   20.3635 N   0  0  0  0  0  0
  -26.2916  -12.9360   20.3301 N   0  0  0  0  0  0
  -25.9310  -11.6510   20.5788 N   0  0  0  0  0  0
  -22.0466  -12.8218   22.0420 N   0  0  0  0  0  0
  -25.4231  -15.1912   20.4186 N   0  0  0  0  0  0
  -31.8165  -14.8635   20.2448 O   0  0  0  0  0  0
  -21.6637   -6.8885   21.4241 O   0  0  0  0  0  0
  -22.3514  -14.5530   20.6711 O   0  0  0  0  0  0
  -24.6337  -31.8543   23.1965 C   0  0  0  0  0  0
  -25.9154  -32.4751   23.8317 C   0  0  1  0  0  0
  -27.2157  -27.2347   20.1391 C   0  0  0  0  0  0
  -25.5942  -33.8552   24.2242 N   0  0  0  0  0  0
  -23.4307  -30.4774   21.5422 C   0  0  2  0  0  0
  -24.8770  -28.9218   20.1122 C   0  0  0  0  0  0
  -22.7515  -29.4601   22.4915 C   0  0  0  0  0  0
  -18.0294  -28.1392   22.8478 C   0  0  0  0  0  0
  -24.1491  -36.7281   23.2637 C   0  0  0  0  0  0
  -25.9792  -30.7601   21.3788 C   0  0  0  0  0  0
  -26.0518  -29.3802   20.7215 C   0  0  0  0  0  0
  -27.2245  -28.5524   20.7193 C   0  0  0  0  0  0
  -26.0148  -26.8554   19.4959 C   0  0  0  0  0  0
  -24.8661  -27.6688   19.4855 C   0  0  0  0  0  0
  -23.6492  -29.8116   20.1590 C   0  0  0  0  0  0
  -25.4119  -36.3064   24.0319 C   0  0  1  0  0  0
  -20.5898  -28.3705   23.1265 C   0  0  2  0  0  0
  -20.6783  -26.9422   22.5404 C   0  0  0  0  0  0
  -19.5758  -26.6385   21.5211 C   0  0  0  0  0  0
  -18.1941  -26.7931   22.1624 C   0  0  0  0  0  0
  -19.1547  -28.8867   23.2864 C   0  0  0  0  0  0
  -18.9467  -30.1468   23.8884 C   0  0  0  0  0  0
  -17.6465  -30.6591   24.0562 C   0  0  0  0  0  0
  -25.9064  -34.9437   23.5086 C   0  0  0  0  0  0
  -16.5357  -29.9086   23.6334 C   0  0  0  0  0  0
  -16.7280  -28.6504   23.0353 C   0  0  0  0  0  0
  -26.4507  -31.6579   25.0717 C   0  0  0  0  0  0
  -25.3716  -31.3740   26.1429 C   0  0  0  0  0  0
  -27.0358  -30.2991   24.6219 C   0  0  0  0  0  0
  -27.6053  -32.4325   25.7498 C   0  0  0  0  0  0
  -27.5577  -37.1799   24.8465 C   0  0  0  0  0  0
  -21.4218  -29.3048   22.3653 N   0  0  0  0  0  0
  -26.4291  -37.3765   23.9405 N   0  0  0  0  0  0
  -24.7009  -31.0489   22.0953 N   0  0  0  0  0  0
  -23.4206  -28.8143   23.3026 O   0  0  0  0  0  0
  -28.3002  -26.3155   20.1982 O   0  0  0  0  0  0
  -26.5636  -34.8915   22.4657 O   0  0  0  0  0  0
  -23.5484  -32.1372   23.7257 O   0  0  0  0  0  0
  -31.2739  -18.9363   19.8533 C   0  0  0  0  0  0
  -30.8605  -21.2226   19.7002 C   0  0  0  0  0  0
  -30.0446  -18.7051   20.5095 C   0  0  0  0  0  0
  -29.5994  -21.0932   20.3369 C   0  0  0  0  0  0
  -29.4501  -16.2640   18.8530 C   0  0  0  0  0  0
  -29.7512  -17.2328   21.0832 C   0  0  0  0  0  0
  -28.0095  -24.8238   20.2515 C   0  0  0  0  0  0
  -29.1383  -23.6490   20.3329 C   0  0  0  0  0  0
  -31.6790  -20.1673   19.4532 N   0  0  0  0  0  0
  -29.2054  -19.8075   20.7416 N   0  0  0  0  0  0
  -29.8108  -15.9470   20.2400 N   0  0  0  0  0  0
  -28.7288  -22.2122   20.5546 O   0  0  0  0  0  0
  -31.4744  -12.6166   19.1618 H   0  0  0  0  0  0
  -30.4039  -11.5180   19.9907 H   0  0  0  0  0  0
  -29.7922  -11.6487   17.5685 H   0  0  0  0  0  0
  -29.6493  -13.3757   17.6536 H   0  0  0  0  0  0
  -27.8915  -11.2669   18.9372 H   0  0  0  0  0  0
  -27.3786  -12.4853   17.8016 H   0  0  0  0  0  0
  -27.6007  -14.2373   19.4430 H   0  0  0  0  0  0
  -28.7394  -12.2280   21.4455 H   0  0  0  0  0  0
  -28.4214  -13.9227   21.7527 H   0  0  0  0  0  0
  -25.2765   -9.5679   22.4761 H   0  0  0  0  0  0
  -24.0006   -7.4626   22.7473 H   0  0  0  0  0  0
  -21.0843   -8.8778   19.8955 H   0  0  0  0  0  0
  -22.3700  -10.9681   19.6172 H   0  0  0  0  0  0
  -21.2002   -7.6144   23.9715 H   0  0  0  0  0  0
  -21.1479   -6.0521   25.9077 H   0  0  0  0  0  0
  -22.0602   -2.7609   23.2842 H   0  0  0  0  0  0
  -22.4081  -11.9881   22.4812 H   0  0  0  0  0  0
  -21.1078  -13.1241   22.2613 H   0  0  0  0  0  0
  -24.6619  -15.8496   20.5446 H   0  0  0  0  0  0
  -26.2848  -15.6338   20.1250 H   0  0  0  0  0  0
  -26.7223  -32.5399   23.1057 H   0  0  0  0  0  0
  -25.0079  -33.9681   25.0383 H   0  0  0  0  0  0
  -22.7272  -31.3000   21.3961 H   0  0  0  0  0  0
  -23.3753  -35.9617   23.3301 H   0  0  0  0  0  0
  -24.3575  -36.8907   22.2051 H   0  0  0  0  0  0
  -23.7251  -37.6483   23.6667 H   0  0  0  0  0  0
  -26.1191  -31.5189   20.6076 H   0  0  0  0  0  0
  -26.8563  -30.8112   22.0122 H   0  0  0  0  0  0
  -28.1217  -28.9003   21.2117 H   0  0  0  0  0  0
  -25.9232  -25.9051   18.9961 H   0  0  0  0  0  0
  -23.9688  -27.3133   18.9979 H   0  0  0  0  0  0
  -23.7751  -30.5879   19.4029 H   0  0  0  0  0  0
  -22.7666  -29.2461   19.8541 H   0  0  0  0  0  0
  -25.1305  -36.1902   25.0811 H   0  0  0  0  0  0
  -20.9985  -28.3288   24.1389 H   0  0  0  0  0  0
  -20.5692  -26.2318   23.3612 H   0  0  0  0  0  0
  -21.6654  -26.7454   22.1197 H   0  0  0  0  0  0
  -19.6926  -25.6294   21.1252 H   0  0  0  0  0  0
  -19.6697  -27.3186   20.6734 H   0  0  0  0  0  0
  -17.4209  -26.6670   21.4029 H   0  0  0  0  0  0
  -18.0347  -26.0078   22.9026 H   0  0  0  0  0  0
  -19.7947  -30.7287   24.2246 H   0  0  0  0  0  0
  -17.5023  -31.6270   24.5167 H   0  0  0  0  0  0
  -15.5360  -30.2986   23.7669 H   0  0  0  0  0  0
  -15.8678  -28.0822   22.7074 H   0  0  0  0  0  0
  -24.5893  -30.7090   25.7750 H   0  0  0  0  0  0
  -24.8905  -32.2917   26.4826 H   0  0  0  0  0  0
  -25.8019  -30.8930   27.0222 H   0  0  0  0  0  0
  -26.2950  -29.6736   24.1224 H   0  0  0  0  0  0
  -27.4010  -29.7257   25.4747 H   0  0  0  0  0  0
  -27.8838  -30.4257   23.9486 H   0  0  0  0  0  0
  -27.2653  -33.3630   26.2054 H   0  0  0  0  0  0
  -28.3876  -32.6878   25.0338 H   0  0  0  0  0  0
  -28.0706  -31.8464   26.5432 H   0  0  0  0  0  0
  -28.2598  -38.0091   24.7506 H   0  0  0  0  0  0
  -28.1072  -36.2623   24.6305 H   0  0  0  0  0  0
  -27.2293  -37.1463   25.8867 H   0  0  0  0  0  0
  -20.9411  -29.8761   21.6841 H   0  0  0  0  0  0
  -26.0167  -38.2841   24.1399 H   0  0  0  0  0  0
  -31.9627  -18.1224   19.6803 H   0  0  0  0  0  0
  -31.2355  -22.1777   19.3677 H   0  0  0  0  0  0
  -28.6481  -17.0018   18.8082 H   0  0  0  0  0  0
  -29.1028  -15.3977   18.2959 H   0  0  0  0  0  0
  -30.3102  -16.6659   18.3157 H   0  0  0  0  0  0
  -30.4272  -17.0925   21.9280 H   0  0  0  0  0  0
  -28.7547  -17.2614   21.5249 H   0  0  0  0  0  0
  -27.3397  -24.6777   21.1003 H   0  0  0  0  0  0
  -27.4318  -24.5573   19.3701 H   0  0  0  0  0  0
  -29.8284  -23.8999   21.1388 H   0  0  0  0  0  0
  -29.7144  -23.7178   19.4121 H   0  0  0  0  0  0
  1 25  1  0  0  0
  1 30  2  0  0  0
  1 81  1  0  0  0
  2  3  1  0  0  0
  2 25  1  0  0  0
  2 83  1  0  0  0
  2 84  1  0  0  0
  3  4  1  0  0  0
  3 85  1  0  0  0
  3 86  1  0  0  0
  4  5  1  0  0  0
  4 87  1  0  0  0
  4 88  1  0  0  0
  5  6  1  0  0  0
  5 26  1  0  0  0
  5 89  1  0  0  0
  6 25  1  0  0  0
  6 90  1  0  0  0
  6 91  1  0  0  0
  7  8  2  0  0  0
  7 26  1  0  0  0
  7 29  1  0  0  0
  8  9  1  0  0  0
  8 22  1  0  0  0
  9 10  1  0  0  0
  9 27  2  0  0  0
 10 11  2  0  0  0
 10 15  1  0  0  0
 11 12  1  0  0  0
 11 92  1  0  0  0
 12 13  2  0  0  0
 12 93  1  0  0  0
 13 14  1  0  0  0
 13 31  1  0  0  0
 14 15  2  0  0  0
 14 94  1  0  0  0
 15 95  1  0  0  0
 16 17  2  0  0  0
 16 21  1  0  0  0
 16 31  1  0  0  0
 17 18  1  0  0  0
 17 96  1  0  0  0
 18 19  2  0  0  0
 18 97  1  0  0  0
 19 20  1  0  0  0
 19 24  1  0  0  0
 20 21  2  0  0  0
 20 98  1  0  0  0
 21 23  1  0  0  0
 22 28  1  0  0  0
 22 32  2  0  0  0
 26 27  1  0  0  0
 28 99  1  0  0  0
 28100  1  0  0  0
 29101  1  0  0  0
 29102  1  0  0  0
 33 34  1  0  0  0
 33 66  1  0  0  0
 33 70  2  0  0  0
 34 36  1  0  0  0
 34 59  1  0  0  0
 34103  1  0  0  0
 35 44  2  0  0  0
 35 45  1  0  0  0
 35 68  1  0  0  0
 36 56  1  0  0  0
 36104  1  0  0  0
 37 39  1  0  0  0
 37 47  1  0  0  0
 37 66  1  0  0  0
 37105  1  0  0  0
 38 43  2  0  0  0
 38 46  1  0  0  0
 38 47  1  0  0  0
 39 64  1  0  0  0
 39 67  2  0  0  0
 40 52  1  0  0  0
 40 53  2  0  0  0
 40 58  1  0  0  0
 41106  1  0  0  0
 41107  1  0  0  0
 41108  1  0  0  0
 41 48  1  0  0  0
 42 43  1  0  0  0
 42 66  1  0  0  0
 42109  1  0  0  0
 42110  1  0  0  0
 43 44  1  0  0  0
 44111  1  0  0  0
 45 46  2  0  0  0
 45112  1  0  0  0
 46113  1  0  0  0
 47114  1  0  0  0
 47115  1  0  0  0
 48 56  1  0  0  0
 48 65  1  0  0  0
 48116  1  0  0  0
 49 50  1  0  0  0
 49 53  1  0  0  0
 49 64  1  0  0  0
 49117  1  0  0  0
 50 51  1  0  0  0
 50118  1  0  0  0
 50119  1  0  0  0
 51 52  1  0  0  0
 51120  1  0  0  0
 51121  1  0  0  0
 52122  1  0  0  0
 52123  1  0  0  0
 53 54  1  0  0  0
 54 55  2  0  0  0
 54124  1  0  0  0
 55 57  1  0  0  0
 55125  1  0  0  0
 56 69  2  0  0  0
 57 58  2  0  0  0
 57126  1  0  0  0
 58127  1  0  0  0
 59 60  1  0  0  0
 59 61  1  0  0  0
 59 62  1  0  0  0
 60128  1  0  0  0
 60129  1  0  0  0
 60130  1  0  0  0
 61131  1  0  0  0
 61132  1  0  0  0
 61133  1  0  0  0
 62134  1  0  0  0
 62135  1  0  0  0
 62136  1  0  0  0
 63 65  1  0  0  0
 63137  1  0  0  0
 63138  1  0  0  0
 63139  1  0  0  0
 64140  1  0  0  0
 65141  1  0  0  0
 68 77  1  0  0  0
 71 73  2  0  0  0
 71 79  1  0  0  0
 71142  1  0  0  0
 72 74  1  0  0  0
 72 79  2  0  0  0
 72143  1  0  0  0
 73 76  1  0  0  0
 73 80  1  0  0  0
 74 80  2  0  0  0
 74 82  1  0  0  0
 75 81  1  0  0  0
 75144  1  0  0  0
 75145  1  0  0  0
 75146  1  0  0  0
 76 81  1  0  0  0
 76147  1  0  0  0
 76148  1  0  0  0
 77 78  1  0  0  0
 77149  1  0  0  0
 77150  1  0  0  0
 78 82  1  0  0  0
 78151  1  0  0  0
 78152  1  0  0  0
M  ISO  4   1 100  68 101  77 101  81 100
M  END
> <chiral flag>
0

> <version>
0

> <s_m_source_file>
/data/baiqing/PycharmProjects/Reinvent-master-3.2/result/LINK_invent/BTK/process_docking_weight1_custom_sum_contain_oxygen_bond_distance_aromatic_linkinvent_7_9_3/rearranged_h_0060.sdf

> <i_m_source_file_index>
15

> <r_mmod_Potential_Energy-OPLS-2005>
424.193084716797

> <r_mmod_Stretch_Energy-OPLS-2005>
150.681274414062

> <r_mmod_Bend_Energy-OPLS-2005>
187.266479492188

> <r_mmod_Torsional_Energy-OPLS-2005>
290.177093505859

> <r_mmod_Improper_Torsional_Energy-OPLS-2005>
13.5371971130371

> <r_mmod_Van_der_Waal_Energy-OPLS-2005>
142.18766784668

> <r_mmod_Electrostatic_Energy-OPLS-2005>
-257.195434570312

> <r_mmod_Solvation_Energy-OPLS-2005>
-214.447937011719

> <b_mmod_Minimization_Converged-OPLS-2005>
0

> <r_mmod_RMS_Derivative-OPLS-2005>
1.2491170167923

$$$$
17
                    3D
 Structure written by MMmdl.
172180  0  0  1  0            999 V2000
  -30.6660  -14.6419   20.5170 C   0  0  0  0  0  0
  -30.4402  -12.4079   19.4266 C   0  0  0  0  0  0
  -29.4943  -12.4481   18.2060 C   0  0  0  0  0  0
  -28.0322  -12.2050   18.6368 C   0  0  0  0  0  0
  -27.6326  -13.1115   19.8169 C   0  0  2  0  0  0
  -28.6972  -13.0462   20.9545 C   0  0  0  0  0  0
  -25.2571  -13.7820   20.5726 C   0  0  0  0  0  0
  -24.1781  -13.0221   20.9244 C   0  0  0  0  0  0
  -24.6258  -11.6684   20.8764 C   0  0  0  0  0  0
  -23.8925  -10.4158   21.0448 C   0  0  0  0  0  0
  -24.3522   -9.4107   21.9225 C   0  0  0  0  0  0
  -23.6213   -8.2149   22.0757 C   0  0  0  0  0  0
  -22.4198   -8.0216   21.3540 C   0  0  0  0  0  0
  -21.9820   -9.0181   20.4641 C   0  0  0  0  0  0
  -22.7126  -10.2056   20.3070 C   0  0  0  0  0  0
  -21.6827   -6.0703   22.5284 C   0  0  0  0  0  0
  -21.4000   -6.5616   23.8218 C   0  0  0  0  0  0
  -21.3653   -5.6777   24.9185 C   0  0  0  0  0  0
  -21.6050   -4.3044   24.7248 C   0  0  0  0  0  0
  -21.8824   -3.8127   23.4374 C   0  0  0  0  0  0
  -21.9184   -4.6934   22.3419 C   0  0  0  0  0  0
  -22.7848  -13.5148   21.1907 C   0  0  0  0  0  0
  -22.1662   -4.2119   21.1001 F   0  0  0  0  0  0
  -21.5621   -3.4532   25.7769 F   0  0  0  0  0  0
  -29.9901  -13.4461   20.3807 N   0  0  0  0  0  0
  -26.2855  -12.8812   20.3126 N   0  0  0  0  0  0
  -25.9126  -11.6085   20.5705 N   0  0  0  0  0  0
  -22.0451  -12.8206   22.0475 N   0  0  0  0  0  0
  -25.4185  -15.1544   20.4337 N   0  0  0  0  0  0
  -31.8637  -14.6949   20.2203 O   0  0  0  0  0  0
  -21.6580   -6.8821   21.4237 O   0  0  0  0  0  0
  -22.3598  -14.5475   20.6738 O   0  0  0  0  0  0
  -24.6178  -31.8680   23.2090 C   0  0  0  0  0  0
  -25.9058  -32.4827   23.8421 C   0  0  1  0  0  0
  -27.2633  -27.4370   20.1152 C   0  0  0  0  0  0
  -25.5906  -33.8619   24.2355 N   0  0  0  0  0  0
  -23.4098  -30.4887   21.5480 C   0  0  2  0  0  0
  -24.8682  -28.9500   20.1222 C   0  0  0  0  0  0
  -22.7467  -29.4644   22.4975 C   0  0  0  0  0  0
  -18.0279  -28.1389   22.8477 C   0  0  0  0  0  0
  -24.1493  -36.7327   23.2642 C   0  0  0  0  0  0
  -25.9396  -30.8315   21.3698 C   0  0  0  0  0  0
  -26.0231  -29.4603   20.7313 C   0  0  0  0  0  0
  -27.2213  -28.7072   20.7379 C   0  0  0  0  0  0
  -26.0960  -26.9447   19.4940 C   0  0  0  0  0  0
  -24.8985  -27.6872   19.5046 C   0  0  0  0  0  0
  -23.6294  -29.8190   20.1636 C   0  0  0  0  0  0
  -25.4104  -36.3123   24.0353 C   0  0  1  0  0  0
  -20.5880  -28.3675   23.1308 C   0  0  2  0  0  0
  -20.6771  -26.9409   22.5413 C   0  0  0  0  0  0
  -19.5744  -26.6386   21.5213 C   0  0  0  0  0  0
  -18.1923  -26.7932   22.1618 C   0  0  0  0  0  0
  -19.1530  -28.8846   23.2894 C   0  0  0  0  0  0
  -18.9452  -30.1445   23.8922 C   0  0  0  0  0  0
  -17.6450  -30.6585   24.0560 C   0  0  0  0  0  0
  -25.9028  -34.9479   23.5152 C   0  0  0  0  0  0
  -16.5342  -29.9097   23.6305 C   0  0  0  0  0  0
  -16.7268  -28.6514   23.0328 C   0  0  0  0  0  0
  -26.4470  -31.6582   25.0739 C   0  0  0  0  0  0
  -25.3715  -31.3685   26.1468 C   0  0  0  0  0  0
  -27.0285  -30.3018   24.6104 C   0  0  0  0  0  0
  -27.6058  -32.4281   25.7493 C   0  0  0  0  0  0
  -27.5590  -37.1822   24.8469 C   0  0  0  0  0  0
  -21.4185  -29.3032   22.3732 N   0  0  0  0  0  0
  -26.4294  -37.3799   23.9415 N   0  0  0  0  0  0
  -24.6729  -31.0786   22.1005 N   0  0  0  0  0  0
  -23.4226  -28.8186   23.3029 O   0  0  0  0  0  0
  -28.4001  -26.6567   20.0435 O   0  0  0  0  0  0
  -26.5593  -34.8925   22.4715 O   0  0  0  0  0  0
  -23.5351  -32.1441   23.7461 O   0  0  0  0  0  0
  -30.2167  -20.6811   22.6076 C   0  0  0  0  0  0
  -30.4324  -19.7941   21.5178 C   0  0  0  0  0  0
  -30.3716  -21.6212   20.0738 C   0  0  0  0  0  0
  -29.9486  -22.4636   21.1423 C   0  0  0  0  0  0
  -30.0841  -20.1912   24.0375 C   0  0  0  0  0  0
  -31.9353  -21.8826   18.0850 C   0  0  0  0  0  0
  -27.1722  -16.8564   18.3672 C   0  0  0  0  0  0
  -30.5157  -22.0983   18.6343 C   0  0  0  0  0  0
  -29.1980  -23.7945   20.9343 C   0  0  0  0  0  0
  -29.9278  -18.3446   21.5811 C   0  0  0  0  0  0
  -28.5546  -16.4639   18.9047 C   0  0  0  0  0  0
  -29.9814  -25.1094   21.1583 C   0  0  0  0  0  0
  -30.7706  -17.1045   21.0815 C   0  0  0  0  0  0
  -28.6136  -16.1117   20.4172 C   0  0  0  0  0  0
  -29.0750  -26.3704   21.2730 C   0  0  0  0  0  0
  -29.9725  -22.0042   22.4193 N   0  0  0  0  0  0
  -30.5889  -20.2912   20.2639 N   0  0  0  0  0  0
  -30.0022  -15.8215   20.8398 N   0  0  0  0  0  0
  -31.4712  -12.5501   19.0988 H   0  0  0  0  0  0
  -30.4234  -11.4219   19.8928 H   0  0  0  0  0  0
  -29.7931  -11.6937   17.4772 H   0  0  0  0  0  0
  -29.5813  -13.4113   17.6996 H   0  0  0  0  0  0
  -27.9263  -11.1569   18.9230 H   0  0  0  0  0  0
  -27.3604  -12.3575   17.7918 H   0  0  0  0  0  0
  -27.5922  -14.0593   19.3029 H   0  0  0  0  0  0
  -28.7634  -12.0269   21.3356 H   0  0  0  0  0  0
  -28.4351  -13.6487   21.8253 H   0  0  0  0  0  0
  -25.2661   -9.5595   22.4806 H   0  0  0  0  0  0
  -23.9931   -7.4525   22.7457 H   0  0  0  0  0  0
  -21.0764   -8.8705   19.8919 H   0  0  0  0  0  0
  -22.3615  -10.9622   19.6199 H   0  0  0  0  0  0
  -21.1983   -7.6125   23.9720 H   0  0  0  0  0  0
  -21.1476   -6.0508   25.9087 H   0  0  0  0  0  0
  -22.0606   -2.7590   23.2895 H   0  0  0  0  0  0
  -22.4014  -11.9847   22.4871 H   0  0  0  0  0  0
  -21.1076  -13.1273   22.2645 H   0  0  0  0  0  0
  -24.6562  -15.8013   20.5991 H   0  0  0  0  0  0
  -26.2614  -15.6031   20.0992 H   0  0  0  0  0  0
  -26.7150  -32.5560   23.1215 H   0  0  0  0  0  0
  -25.0056  -33.9767   25.0504 H   0  0  0  0  0  0
  -22.6982  -31.3042   21.4045 H   0  0  0  0  0  0
  -23.3747  -35.9670   23.3294 H   0  0  0  0  0  0
  -24.3622  -36.8941   22.2064 H   0  0  0  0  0  0
  -23.7243  -37.6534   23.6645 H   0  0  0  0  0  0
  -26.0509  -31.5918   20.5940 H   0  0  0  0  0  0
  -26.8273  -30.8966   21.9873 H   0  0  0  0  0  0
  -28.1111  -29.1079   21.2024 H   0  0  0  0  0  0
  -26.1177  -25.9788   19.0079 H   0  0  0  0  0  0
  -24.0138  -27.2870   19.0276 H   0  0  0  0  0  0
  -23.7492  -30.5966   19.4087 H   0  0  0  0  0  0
  -22.7554  -29.2448   19.8539 H   0  0  0  0  0  0
  -25.1273  -36.1996   25.0846 H   0  0  0  0  0  0
  -20.9941  -28.3223   24.1432 H   0  0  0  0  0  0
  -20.5673  -26.2286   23.3606 H   0  0  0  0  0  0
  -21.6647  -26.7437   22.1198 H   0  0  0  0  0  0
  -19.6898  -25.6288   21.1260 H   0  0  0  0  0  0
  -19.6688  -27.3187   20.6732 H   0  0  0  0  0  0
  -17.4198  -26.6686   21.4011 H   0  0  0  0  0  0
  -18.0297  -26.0075   22.9008 H   0  0  0  0  0  0
  -19.7927  -30.7256   24.2318 H   0  0  0  0  0  0
  -17.4998  -31.6259   24.5174 H   0  0  0  0  0  0
  -15.5344  -30.3007   23.7596 H   0  0  0  0  0  0
  -15.8671  -28.0842   22.7007 H   0  0  0  0  0  0
  -24.5898  -30.7027   25.7788 H   0  0  0  0  0  0
  -24.8887  -32.2832   26.4913 H   0  0  0  0  0  0
  -25.8030  -30.8848   27.0238 H   0  0  0  0  0  0
  -26.2820  -29.6800   24.1138 H   0  0  0  0  0  0
  -27.4039  -29.7228   25.4554 H   0  0  0  0  0  0
  -27.8675  -30.4339   23.9266 H   0  0  0  0  0  0
  -27.2700  -33.3575   26.2104 H   0  0  0  0  0  0
  -28.3842  -32.6835   25.0290 H   0  0  0  0  0  0
  -28.0758  -31.8378   26.5374 H   0  0  0  0  0  0
  -28.2593  -38.0128   24.7507 H   0  0  0  0  0  0
  -28.1087  -36.2654   24.6274 H   0  0  0  0  0  0
  -27.2330  -37.1471   25.8879 H   0  0  0  0  0  0
  -20.9374  -29.8772   21.6947 H   0  0  0  0  0  0
  -26.0190  -38.2886   24.1391 H   0  0  0  0  0  0
  -30.7666  -19.3627   24.2238 H   0  0  0  0  0  0
  -29.0675  -19.8510   24.2390 H   0  0  0  0  0  0
  -30.3294  -20.9812   24.7475 H   0  0  0  0  0  0
  -32.0178  -22.2510   17.0629 H   0  0  0  0  0  0
  -32.2013  -20.8246   18.0736 H   0  0  0  0  0  0
  -32.6747  -22.4068   18.6915 H   0  0  0  0  0  0
  -27.2657  -17.3728   17.4114 H   0  0  0  0  0  0
  -26.6400  -17.5247   19.0452 H   0  0  0  0  0  0
  -26.5492  -15.9831   18.1840 H   0  0  0  0  0  0
  -30.2884  -23.1608   18.5584 H   0  0  0  0  0  0
  -29.7868  -21.5803   18.0110 H   0  0  0  0  0  0
  -28.3499  -23.7801   21.6209 H   0  0  0  0  0  0
  -28.7288  -23.8112   19.9512 H   0  0  0  0  0  0
  -29.0782  -18.5210   20.9295 H   0  0  0  0  0  0
  -29.5057  -18.1188   22.5595 H   0  0  0  0  0  0
  -29.2271  -17.3001   18.7106 H   0  0  0  0  0  0
  -28.9425  -15.6420   18.3015 H   0  0  0  0  0  0
  -30.7200  -25.2406   20.3672 H   0  0  0  0  0  0
  -30.5441  -25.0183   22.0877 H   0  0  0  0  0  0
  -31.5789  -16.9174   21.7913 H   0  0  0  0  0  0
  -31.2500  -17.3783   20.1411 H   0  0  0  0  0  0
  -27.9424  -15.3530   20.7377 H   0  0  0  0  0  0
  -28.0979  -16.8511   21.0120 H   0  0  0  0  0  0
  -29.6825  -27.2318   21.5552 H   0  0  0  0  0  0
  -28.3511  -26.2259   22.0774 H   0  0  0  0  0  0
  1 25  1  0  0  0
  1 30  2  0  0  0
  1 88  1  0  0  0
  2  3  1  0  0  0
  2 25  1  0  0  0
  2 89  1  0  0  0
  2 90  1  0  0  0
  3  4  1  0  0  0
  3 91  1  0  0  0
  3 92  1  0  0  0
  4  5  1  0  0  0
  4 93  1  0  0  0
  4 94  1  0  0  0
  5  6  1  0  0  0
  5 26  1  0  0  0
  5 95  1  0  0  0
  6 25  1  0  0  0
  6 96  1  0  0  0
  6 97  1  0  0  0
  7  8  2  0  0  0
  7 26  1  0  0  0
  7 29  1  0  0  0
  8  9  1  0  0  0
  8 22  1  0  0  0
  9 10  1  0  0  0
  9 27  2  0  0  0
 10 11  2  0  0  0
 10 15  1  0  0  0
 11 12  1  0  0  0
 11 98  1  0  0  0
 12 13  2  0  0  0
 12 99  1  0  0  0
 13 14  1  0  0  0
 13 31  1  0  0  0
 14 15  2  0  0  0
 14100  1  0  0  0
 15101  1  0  0  0
 16 17  2  0  0  0
 16 21  1  0  0  0
 16 31  1  0  0  0
 17 18  1  0  0  0
 17102  1  0  0  0
 18 19  2  0  0  0
 18103  1  0  0  0
 19 20  1  0  0  0
 19 24  1  0  0  0
 20 21  2  0  0  0
 20104  1  0  0  0
 21 23  1  0  0  0
 22 28  1  0  0  0
 22 32  2  0  0  0
 26 27  1  0  0  0
 28105  1  0  0  0
 28106  1  0  0  0
 29107  1  0  0  0
 29108  1  0  0  0
 33 34  1  0  0  0
 33 66  1  0  0  0
 33 70  2  0  0  0
 34 36  1  0  0  0
 34 59  1  0  0  0
 34109  1  0  0  0
 35 44  2  0  0  0
 35 45  1  0  0  0
 35 68  1  0  0  0
 36 56  1  0  0  0
 36110  1  0  0  0
 37 39  1  0  0  0
 37 47  1  0  0  0
 37 66  1  0  0  0
 37111  1  0  0  0
 38 43  2  0  0  0
 38 46  1  0  0  0
 38 47  1  0  0  0
 39 64  1  0  0  0
 39 67  2  0  0  0
 40 52  1  0  0  0
 40 53  2  0  0  0
 40 58  1  0  0  0
 41112  1  0  0  0
 41113  1  0  0  0
 41114  1  0  0  0
 41 48  1  0  0  0
 42 43  1  0  0  0
 42 66  1  0  0  0
 42115  1  0  0  0
 42116  1  0  0  0
 43 44  1  0  0  0
 44117  1  0  0  0
 45 46  2  0  0  0
 45118  1  0  0  0
 46119  1  0  0  0
 47120  1  0  0  0
 47121  1  0  0  0
 48 56  1  0  0  0
 48 65  1  0  0  0
 48122  1  0  0  0
 49 50  1  0  0  0
 49 53  1  0  0  0
 49 64  1  0  0  0
 49123  1  0  0  0
 50 51  1  0  0  0
 50124  1  0  0  0
 50125  1  0  0  0
 51 52  1  0  0  0
 51126  1  0  0  0
 51127  1  0  0  0
 52128  1  0  0  0
 52129  1  0  0  0
 53 54  1  0  0  0
 54 55  2  0  0  0
 54130  1  0  0  0
 55 57  1  0  0  0
 55131  1  0  0  0
 56 69  2  0  0  0
 57 58  2  0  0  0
 57132  1  0  0  0
 58133  1  0  0  0
 59 60  1  0  0  0
 59 61  1  0  0  0
 59 62  1  0  0  0
 60134  1  0  0  0
 60135  1  0  0  0
 60136  1  0  0  0
 61137  1  0  0  0
 61138  1  0  0  0
 61139  1  0  0  0
 62140  1  0  0  0
 62141  1  0  0  0
 62142  1  0  0  0
 63 65  1  0  0  0
 63143  1  0  0  0
 63144  1  0  0  0
 63145  1  0  0  0
 64146  1  0  0  0
 65147  1  0  0  0
 68 85  1  0  0  0
 71 72  2  0  0  0
 71 75  1  0  0  0
 71 86  1  0  0  0
 72 80  1  0  0  0
 72 87  1  0  0  0
 73 74  1  0  0  0
 73 78  1  0  0  0
 73 87  2  0  0  0
 74 79  1  0  0  0
 74 86  2  0  0  0
 75148  1  0  0  0
 75149  1  0  0  0
 75150  1  0  0  0
 76 78  1  0  0  0
 76151  1  0  0  0
 76152  1  0  0  0
 76153  1  0  0  0
 77 81  1  0  0  0
 77154  1  0  0  0
 77155  1  0  0  0
 77156  1  0  0  0
 78157  1  0  0  0
 78158  1  0  0  0
 79 82  1  0  0  0
 79159  1  0  0  0
 79160  1  0  0  0
 80 83  1  0  0  0
 80161  1  0  0  0
 80162  1  0  0  0
 81 84  1  0  0  0
 81163  1  0  0  0
 81164  1  0  0  0
 82 85  1  0  0  0
 82165  1  0  0  0
 82166  1  0  0  0
 83 88  1  0  0  0
 83167  1  0  0  0
 83168  1  0  0  0
 84 88  1  0  0  0
 84169  1  0  0  0
 84170  1  0  0  0
 85171  1  0  0  0
 85172  1  0  0  0
M  ISO  4   1 100  68 101  85 101  88 100
M  END
> <chiral flag>
0

> <version>
0

> <s_m_source_file>
/data/baiqing/PycharmProjects/Reinvent-master-3.2/result/LINK_invent/BTK/process_docking_weight1_custom_sum_contain_oxygen_bond_distance_aromatic_linkinvent_7_9_3/rearranged_h_0060.sdf

> <i_m_source_file_index>
16

> <r_mmod_Potential_Energy-OPLS-2005>
289.498321533203

> <r_mmod_Stretch_Energy-OPLS-2005>
61.8132286071777

> <r_mmod_Bend_Energy-OPLS-2005>
165.46337890625

> <r_mmod_Torsional_Energy-OPLS-2005>
315.129272460938

> <r_mmod_Improper_Torsional_Energy-OPLS-2005>
12.192063331604

> <r_mmod_Van_der_Waal_Energy-OPLS-2005>
187.449768066406

> <r_mmod_Electrostatic_Energy-OPLS-2005>
-290.259857177734

> <r_mmod_Solvation_Energy-OPLS-2005>
-202.594680786133

> <b_mmod_Minimization_Converged-OPLS-2005>
0

> <r_mmod_RMS_Derivative-OPLS-2005>
2.70262002944946

$$$$
18
                    3D
 Structure written by MMmdl.
149157  0  0  1  0            999 V2000
  -30.5359  -15.0513   20.4319 C   0  0  0  0  0  0
  -30.4430  -12.6641   19.5132 C   0  0  0  0  0  0
  -29.5294  -12.5448   18.2711 C   0  0  0  0  0  0
  -28.0614  -12.3255   18.6824 C   0  0  0  0  0  0
  -27.6266  -13.2642   19.8395 C   0  0  2  0  0  0
  -28.6703  -13.3431   20.9744 C   0  0  0  0  0  0
  -25.2432  -13.8268   20.5736 C   0  0  0  0  0  0
  -24.1774  -13.0455   20.9236 C   0  0  0  0  0  0
  -24.6418  -11.6950   20.8781 C   0  0  0  0  0  0
  -23.9094  -10.4303   21.0400 C   0  0  0  0  0  0
  -24.3639   -9.4211   21.9173 C   0  0  0  0  0  0
  -23.6307   -8.2251   22.0759 C   0  0  0  0  0  0
  -22.4285   -8.0287   21.3547 C   0  0  0  0  0  0
  -21.9909   -9.0265   20.4651 C   0  0  0  0  0  0
  -22.7255  -10.2132   20.3053 C   0  0  0  0  0  0
  -21.6862   -6.0715   22.5270 C   0  0  0  0  0  0
  -21.4010   -6.5632   23.8191 C   0  0  0  0  0  0
  -21.3661   -5.6790   24.9162 C   0  0  0  0  0  0
  -21.6058   -4.3061   24.7220 C   0  0  0  0  0  0
  -21.8835   -3.8134   23.4359 C   0  0  0  0  0  0
  -21.9205   -4.6943   22.3402 C   0  0  0  0  0  0
  -22.7786  -13.5210   21.1864 C   0  0  0  0  0  0
  -22.1678   -4.2123   21.0982 F   0  0  0  0  0  0
  -21.5621   -3.4545   25.7735 F   0  0  0  0  0  0
  -29.9316  -13.7840   20.3667 N   0  0  0  0  0  0
  -26.2885  -12.9536   20.3288 N   0  0  0  0  0  0
  -25.9363  -11.6650   20.5776 N   0  0  0  0  0  0
  -22.0424  -12.8207   22.0414 N   0  0  0  0  0  0
  -25.4076  -15.2004   20.4170 N   0  0  0  0  0  0
  -31.7425  -15.0762   20.1720 O   0  0  0  0  0  0
  -21.6672   -6.8872   21.4229 O   0  0  0  0  0  0
  -22.3474  -14.5510   20.6706 O   0  0  0  0  0  0
  -24.6529  -31.8356   23.1768 C   0  0  0  0  0  0
  -25.9232  -32.4673   23.8227 C   0  0  1  0  0  0
  -27.2280  -27.0516   20.1779 C   0  0  0  0  0  0
  -25.5934  -33.8484   24.2129 N   0  0  0  0  0  0
  -23.4641  -30.4475   21.5252 C   0  0  2  0  0  0
  -24.9187  -28.8560   20.1101 C   0  0  0  0  0  0
  -22.7629  -29.4474   22.4811 C   0  0  0  0  0  0
  -18.0317  -28.1392   22.8473 C   0  0  0  0  0  0
  -24.1474  -36.7261   23.2651 C   0  0  0  0  0  0
  -26.0249  -30.6808   21.3919 C   0  0  0  0  0  0
  -26.0953  -29.2827   20.7376 C   0  0  0  0  0  0
  -27.2481  -28.3981   20.7512 C   0  0  0  0  0  0
  -26.0276  -26.7459   19.5037 C   0  0  0  0  0  0
  -24.9022  -27.6042   19.4735 C   0  0  0  0  0  0
  -23.6963  -29.7642   20.1493 C   0  0  0  0  0  0
  -25.4111  -36.3036   24.0318 C   0  0  1  0  0  0
  -20.5941  -28.3731   23.1204 C   0  0  2  0  0  0
  -20.6806  -26.9423   22.5408 C   0  0  0  0  0  0
  -19.5772  -26.6359   21.5231 C   0  0  0  0  0  0
  -18.1943  -26.7928   22.1622 C   0  0  0  0  0  0
  -19.1580  -28.8876   23.2826 C   0  0  0  0  0  0
  -18.9488  -30.1462   23.8873 C   0  0  0  0  0  0
  -17.6488  -30.6589   24.0549 C   0  0  0  0  0  0
  -25.9076  -34.9414   23.5040 C   0  0  0  0  0  0
  -16.5376  -29.9080   23.6346 C   0  0  0  0  0  0
  -16.7299  -28.6487   23.0382 C   0  0  0  0  0  0
  -26.4513  -31.6611   25.0739 C   0  0  0  0  0  0
  -25.3622  -31.3866   26.1384 C   0  0  0  0  0  0
  -27.0433  -30.3012   24.6410 C   0  0  0  0  0  0
  -27.6035  -32.4425   25.7512 C   0  0  0  0  0  0
  -27.5566  -37.1784   24.8462 C   0  0  0  0  0  0
  -21.4313  -29.3036   22.3575 N   0  0  0  0  0  0
  -26.4275  -37.3747   23.9405 N   0  0  0  0  0  0
  -24.7343  -31.0135   22.0854 N   0  0  0  0  0  0
  -23.4223  -28.8031   23.3008 O   0  0  0  0  0  0
  -28.2640  -26.0234   20.2639 O   0  0  0  0  0  0
  -26.5677  -34.8922   22.4632 O   0  0  0  0  0  0
  -23.5618  -32.1266   23.6913 O   0  0  0  0  0  0
  -27.8141  -20.7198   20.6702 C   0  0  0  0  0  0
  -29.3931  -19.2444   20.5583 C   0  0  0  0  0  0
  -30.9670  -17.9208   22.1052 C   0  0  0  0  0  0
  -29.0899  -23.1369   20.5083 C   0  0  0  0  0  0
  -28.0140  -24.4489   20.1550 C   0  0  0  0  0  0
  -30.2655  -17.8199   20.7310 C   0  0  2  0  0  0
  -28.0346  -19.3710   20.7422 N   0  0  0  0  0  0
  -29.9280  -20.5263   20.4028 N   0  0  0  0  0  0
  -28.8816  -21.5209   20.4657 N   0  0  0  0  0  0
  -29.8036  -16.2828   20.6036 N   0  0  0  0  0  0
  -31.4696  -12.8437   19.1883 H   0  0  0  0  0  0
  -30.4707  -11.7282   20.0747 H   0  0  0  0  0  0
  -29.8662  -11.7245   17.6345 H   0  0  0  0  0  0
  -29.6116  -13.4537   17.6729 H   0  0  0  0  0  0
  -27.9591  -11.2847   18.9936 H   0  0  0  0  0  0
  -27.4062  -12.4539   17.8197 H   0  0  0  0  0  0
  -27.5736  -14.2605   19.4005 H   0  0  0  0  0  0
  -28.7853  -12.3877   21.4862 H   0  0  0  0  0  0
  -28.3530  -14.0605   21.7309 H   0  0  0  0  0  0
  -25.2779   -9.5696   22.4760 H   0  0  0  0  0  0
  -24.0012   -7.4658   22.7510 H   0  0  0  0  0  0
  -21.0819   -8.8822   19.8975 H   0  0  0  0  0  0
  -22.3726  -10.9691   19.6188 H   0  0  0  0  0  0
  -21.1990   -7.6137   23.9679 H   0  0  0  0  0  0
  -21.1463   -6.0520   25.9056 H   0  0  0  0  0  0
  -22.0604   -2.7590   23.2873 H   0  0  0  0  0  0
  -22.4091  -11.9930   22.4871 H   0  0  0  0  0  0
  -21.1022  -13.1229   22.2591 H   0  0  0  0  0  0
  -24.6434  -15.8536   20.5503 H   0  0  0  0  0  0
  -26.2445  -15.6452   20.0617 H   0  0  0  0  0  0
  -26.7314  -32.5249   23.0976 H   0  0  0  0  0  0
  -25.0099  -33.9605   25.0283 H   0  0  0  0  0  0
  -22.7712  -31.2745   21.3565 H   0  0  0  0  0  0
  -23.3763  -35.9574   23.3320 H   0  0  0  0  0  0
  -24.3549  -36.8894   22.2067 H   0  0  0  0  0  0
  -23.7204  -37.6444   23.6690 H   0  0  0  0  0  0
  -26.1976  -31.4248   20.6121 H   0  0  0  0  0  0
  -26.8885  -30.7331   22.0425 H   0  0  0  0  0  0
  -28.1390  -28.7168   21.2741 H   0  0  0  0  0  0
  -25.9326  -25.7914   19.0099 H   0  0  0  0  0  0
  -24.0098  -27.2729   18.9646 H   0  0  0  0  0  0
  -23.8264  -30.5307   19.3834 H   0  0  0  0  0  0
  -22.8127  -29.1990   19.8475 H   0  0  0  0  0  0
  -25.1298  -36.1891   25.0817 H   0  0  0  0  0  0
  -21.0034  -28.3332   24.1321 H   0  0  0  0  0  0
  -20.5719  -26.2331   23.3634 H   0  0  0  0  0  0
  -21.6654  -26.7414   22.1178 H   0  0  0  0  0  0
  -19.6942  -25.6257   21.1281 H   0  0  0  0  0  0
  -19.6726  -27.3150   20.6749 H   0  0  0  0  0  0
  -17.4231  -26.6704   21.4011 H   0  0  0  0  0  0
  -18.0298  -26.0064   22.9000 H   0  0  0  0  0  0
  -19.7961  -30.7270   24.2245 H   0  0  0  0  0  0
  -17.5039  -31.6271   24.5139 H   0  0  0  0  0  0
  -15.5371  -30.2970   23.7673 H   0  0  0  0  0  0
  -15.8693  -28.0776   22.7150 H   0  0  0  0  0  0
  -24.5744  -30.7322   25.7631 H   0  0  0  0  0  0
  -24.8883  -32.3091   26.4768 H   0  0  0  0  0  0
  -25.7781  -30.8997   27.0208 H   0  0  0  0  0  0
  -26.3107  -29.6712   24.1357 H   0  0  0  0  0  0
  -27.3964  -29.7367   25.5044 H   0  0  0  0  0  0
  -27.9024  -30.4283   23.9817 H   0  0  0  0  0  0
  -27.2617  -33.3746   26.2034 H   0  0  0  0  0  0
  -28.3840  -32.6977   25.0329 H   0  0  0  0  0  0
  -28.0711  -31.8613   26.5473 H   0  0  0  0  0  0
  -28.2585  -38.0081   24.7510 H   0  0  0  0  0  0
  -28.1056  -36.2611   24.6281 H   0  0  0  0  0  0
  -27.2284  -37.1423   25.8865 H   0  0  0  0  0  0
  -20.9560  -29.8731   21.6721 H   0  0  0  0  0  0
  -26.0170  -38.2829   24.1410 H   0  0  0  0  0  0
  -26.8264  -21.1352   20.8111 H   0  0  0  0  0  0
  -30.2464  -17.9676   22.9231 H   0  0  0  0  0  0
  -31.5822  -18.8187   22.1719 H   0  0  0  0  0  0
  -31.6242  -17.0717   22.2998 H   0  0  0  0  0  0
  -29.4287  -23.3325   21.5257 H   0  0  0  0  0  0
  -29.9762  -23.3202   19.9017 H   0  0  0  0  0  0
  -27.1215  -24.2632   20.7529 H   0  0  0  0  0  0
  -27.6904  -24.2844   19.1269 H   0  0  0  0  0  0
  -31.0548  -17.8954   19.9828 H   0  0  0  0  0  0
  -28.8114  -16.1567   20.7219 H   0  0  0  0  0  0
  1 25  1  0  0  0
  1 30  2  0  0  0
  1 80  1  0  0  0
  2  3  1  0  0  0
  2 25  1  0  0  0
  2 81  1  0  0  0
  2 82  1  0  0  0
  3  4  1  0  0  0
  3 83  1  0  0  0
  3 84  1  0  0  0
  4  5  1  0  0  0
  4 85  1  0  0  0
  4 86  1  0  0  0
  5  6  1  0  0  0
  5 26  1  0  0  0
  5 87  1  0  0  0
  6 25  1  0  0  0
  6 88  1  0  0  0
  6 89  1  0  0  0
  7  8  2  0  0  0
  7 26  1  0  0  0
  7 29  1  0  0  0
  8  9  1  0  0  0
  8 22  1  0  0  0
  9 10  1  0  0  0
  9 27  2  0  0  0
 10 11  2  0  0  0
 10 15  1  0  0  0
 11 12  1  0  0  0
 11 90  1  0  0  0
 12 13  2  0  0  0
 12 91  1  0  0  0
 13 14  1  0  0  0
 13 31  1  0  0  0
 14 15  2  0  0  0
 14 92  1  0  0  0
 15 93  1  0  0  0
 16 17  2  0  0  0
 16 21  1  0  0  0
 16 31  1  0  0  0
 17 18  1  0  0  0
 17 94  1  0  0  0
 18 19  2  0  0  0
 18 95  1  0  0  0
 19 20  1  0  0  0
 19 24  1  0  0  0
 20 21  2  0  0  0
 20 96  1  0  0  0
 21 23  1  0  0  0
 22 28  1  0  0  0
 22 32  2  0  0  0
 26 27  1  0  0  0
 28 97  1  0  0  0
 28 98  1  0  0  0
 29 99  1  0  0  0
 29100  1  0  0  0
 33 34  1  0  0  0
 33 66  1  0  0  0
 33 70  2  0  0  0
 34 36  1  0  0  0
 34 59  1  0  0  0
 34101  1  0  0  0
 35 44  2  0  0  0
 35 45  1  0  0  0
 35 68  1  0  0  0
 36 56  1  0  0  0
 36102  1  0  0  0
 37 39  1  0  0  0
 37 47  1  0  0  0
 37 66  1  0  0  0
 37103  1  0  0  0
 38 43  2  0  0  0
 38 46  1  0  0  0
 38 47  1  0  0  0
 39 64  1  0  0  0
 39 67  2  0  0  0
 40 52  1  0  0  0
 40 53  2  0  0  0
 40 58  1  0  0  0
 41104  1  0  0  0
 41105  1  0  0  0
 41106  1  0  0  0
 41 48  1  0  0  0
 42 43  1  0  0  0
 42 66  1  0  0  0
 42107  1  0  0  0
 42108  1  0  0  0
 43 44  1  0  0  0
 44109  1  0  0  0
 45 46  2  0  0  0
 45110  1  0  0  0
 46111  1  0  0  0
 47112  1  0  0  0
 47113  1  0  0  0
 48 56  1  0  0  0
 48 65  1  0  0  0
 48114  1  0  0  0
 49 50  1  0  0  0
 49 53  1  0  0  0
 49 64  1  0  0  0
 49115  1  0  0  0
 50 51  1  0  0  0
 50116  1  0  0  0
 50117  1  0  0  0
 51 52  1  0  0  0
 51118  1  0  0  0
 51119  1  0  0  0
 52120  1  0  0  0
 52121  1  0  0  0
 53 54  1  0  0  0
 54 55  2  0  0  0
 54122  1  0  0  0
 55 57  1  0  0  0
 55123  1  0  0  0
 56 69  2  0  0  0
 57 58  2  0  0  0
 57124  1  0  0  0
 58125  1  0  0  0
 59 60  1  0  0  0
 59 61  1  0  0  0
 59 62  1  0  0  0
 60126  1  0  0  0
 60127  1  0  0  0
 60128  1  0  0  0
 61129  1  0  0  0
 61130  1  0  0  0
 61131  1  0  0  0
 62132  1  0  0  0
 62133  1  0  0  0
 62134  1  0  0  0
 63 65  1  0  0  0
 63135  1  0  0  0
 63136  1  0  0  0
 63137  1  0  0  0
 64138  1  0  0  0
 65139  1  0  0  0
 68 75  1  0  0  0
 71 77  2  0  0  0
 71 79  1  0  0  0
 71140  1  0  0  0
 72 76  1  0  0  0
 72 77  1  0  0  0
 72 78  2  0  0  0
 73141  1  0  0  0
 73142  1  0  0  0
 73143  1  0  0  0
 73 76  1  0  0  0
 74 75  1  0  0  0
 74 79  1  0  0  0
 74144  1  0  0  0
 74145  1  0  0  0
 75146  1  0  0  0
 75147  1  0  0  0
 76 80  1  0  0  0
 76148  1  0  0  0
 78 79  1  0  0  0
 80149  1  0  0  0
M  ISO  4   1 100  68 101  75 101  80 100
M  END
> <chiral flag>
0

> <version>
0

> <s_m_source_file>
/data/baiqing/PycharmProjects/Reinvent-master-3.2/result/LINK_invent/BTK/process_docking_weight1_custom_sum_contain_oxygen_bond_distance_aromatic_linkinvent_7_9_3/rearranged_h_0060.sdf

> <i_m_source_file_index>
17

> <r_mmod_Potential_Energy-OPLS-2005>
560.000305175781

> <r_mmod_Stretch_Energy-OPLS-2005>
356.999603271484

> <r_mmod_Bend_Energy-OPLS-2005>
312.674255371094

> <r_mmod_Torsional_Energy-OPLS-2005>
201.407012939453

> <r_mmod_Improper_Torsional_Energy-OPLS-2005>
5.0224142074585

> <r_mmod_Van_der_Waal_Energy-OPLS-2005>
106.471069335938

> <r_mmod_Electrostatic_Energy-OPLS-2005>
-462.056274414062

> <r_mmod_Solvation_Energy-OPLS-2005>
-233.871612548828

> <b_mmod_Minimization_Converged-OPLS-2005>
0

> <r_mmod_RMS_Derivative-OPLS-2005>
3.61974143981934

$$$$
19
                    3D
 Structure written by MMmdl.
158166  0  0  1  0            999 V2000
  -30.7092  -14.5015   20.5940 C   0  0  0  0  0  0
  -30.4297  -12.3350   19.4290 C   0  0  0  0  0  0
  -29.4998  -12.5201   18.2109 C   0  0  0  0  0  0
  -28.0223  -12.3685   18.6228 C   0  0  0  0  0  0
  -27.6620  -13.2136   19.8731 C   0  0  2  0  0  0
  -28.7054  -13.0105   20.9973 C   0  0  0  0  0  0
  -25.2545  -13.8148   20.5640 C   0  0  0  0  0  0
  -24.1827  -13.0411   20.9171 C   0  0  0  0  0  0
  -24.6408  -11.6892   20.8729 C   0  0  0  0  0  0
  -23.9075  -10.4279   21.0394 C   0  0  0  0  0  0
  -24.3629   -9.4198   21.9176 C   0  0  0  0  0  0
  -23.6297   -8.2242   22.0751 C   0  0  0  0  0  0
  -22.4276   -8.0286   21.3550 C   0  0  0  0  0  0
  -21.9908   -9.0248   20.4641 C   0  0  0  0  0  0
  -22.7241  -10.2124   20.3044 C   0  0  0  0  0  0
  -21.6856   -6.0735   22.5279 C   0  0  0  0  0  0
  -21.4012   -6.5635   23.8213 C   0  0  0  0  0  0
  -21.3660   -5.6785   24.9174 C   0  0  0  0  0  0
  -21.6052   -4.3052   24.7222 C   0  0  0  0  0  0
  -21.8823   -3.8146   23.4343 C   0  0  0  0  0  0
  -21.9189   -4.6965   22.3398 C   0  0  0  0  0  0
  -22.7850  -13.5202   21.1849 C   0  0  0  0  0  0
  -22.1664   -4.2157   21.0973 F   0  0  0  0  0  0
  -21.5632   -3.4528   25.7730 F   0  0  0  0  0  0
  -30.0376  -13.3226   20.4493 N   0  0  0  0  0  0
  -26.3022  -12.9352   20.3337 N   0  0  0  0  0  0
  -25.9343  -11.6504   20.5757 N   0  0  0  0  0  0
  -22.0500  -12.8194   22.0419 N   0  0  0  0  0  0
  -25.4150  -15.1862   20.3995 N   0  0  0  0  0  0
  -31.8172  -14.7036   20.0932 O   0  0  0  0  0  0
  -21.6645   -6.8882   21.4241 O   0  0  0  0  0  0
  -22.3522  -14.5506   20.6699 O   0  0  0  0  0  0
  -24.6203  -31.8668   23.2100 C   0  0  0  0  0  0
  -25.9082  -32.4820   23.8403 C   0  0  1  0  0  0
  -27.2242  -27.3935   20.1016 C   0  0  0  0  0  0
  -25.5927  -33.8616   24.2334 N   0  0  0  0  0  0
  -23.4095  -30.4951   21.5512 C   0  0  2  0  0  0
  -24.8542  -28.9671   20.1108 C   0  0  0  0  0  0
  -22.7439  -29.4672   22.4962 C   0  0  0  0  0  0
  -18.0284  -28.1386   22.8485 C   0  0  0  0  0  0
  -24.1491  -36.7313   23.2634 C   0  0  0  0  0  0
  -25.9459  -30.8217   21.3709 C   0  0  0  0  0  0
  -26.0210  -29.4571   20.7110 C   0  0  0  0  0  0
  -27.2100  -28.6806   20.7009 C   0  0  0  0  0  0
  -26.0331  -26.9459   19.4757 C   0  0  0  0  0  0
  -24.8580  -27.7127   19.4872 C   0  0  0  0  0  0
  -23.6191  -29.8369   20.1637 C   0  0  0  0  0  0
  -25.4109  -36.3109   24.0336 C   0  0  1  0  0  0
  -20.5879  -28.3687   23.1291 C   0  0  2  0  0  0
  -20.6778  -26.9418   22.5404 C   0  0  0  0  0  0
  -19.5753  -26.6388   21.5208 C   0  0  0  0  0  0
  -18.1932  -26.7930   22.1622 C   0  0  0  0  0  0
  -19.1532  -28.8849   23.2889 C   0  0  0  0  0  0
  -18.9460  -30.1452   23.8907 C   0  0  0  0  0  0
  -17.6460  -30.6589   24.0566 C   0  0  0  0  0  0
  -25.9040  -34.9474   23.5129 C   0  0  0  0  0  0
  -16.5352  -29.9089   23.6328 C   0  0  0  0  0  0
  -16.7271  -28.6507   23.0346 C   0  0  0  0  0  0
  -26.4485  -31.6604   25.0745 C   0  0  0  0  0  0
  -25.3737  -31.3727   26.1483 C   0  0  0  0  0  0
  -27.0321  -30.3040   24.6151 C   0  0  0  0  0  0
  -27.6063  -32.4321   25.7508 C   0  0  0  0  0  0
  -27.5581  -37.1812   24.8462 C   0  0  0  0  0  0
  -21.4163  -29.3055   22.3694 N   0  0  0  0  0  0
  -26.4295  -37.3793   23.9404 N   0  0  0  0  0  0
  -24.6772  -31.0750   22.1021 N   0  0  0  0  0  0
  -23.4196  -28.8199   23.3009 O   0  0  0  0  0  0
  -28.3555  -26.5804   20.1606 O   0  0  0  0  0  0
  -26.5589  -34.8922   22.4685 O   0  0  0  0  0  0
  -23.5381  -32.1436   23.7470 O   0  0  0  0  0  0
  -30.5883  -21.2676   21.0942 C   0  0  0  0  0  0
  -29.6780  -19.3999   20.8622 C   0  0  0  0  0  0
  -29.5775  -17.6763   19.0592 C   0  0  0  0  0  0
  -27.9842  -17.5541   21.0102 C   0  0  0  0  0  0
  -29.1552  -24.1160   20.5497 C   0  0  0  0  0  0
  -28.4742  -22.7234   20.7506 C   0  0  0  0  0  0
  -30.3885  -16.9290   21.3460 C   0  0  0  0  0  0
  -28.0805  -25.1538   20.1064 C   0  0  0  0  0  0
  -29.4270  -17.9076   20.5745 C   0  0  0  0  0  0
  -30.9074  -19.9657   21.0882 N   0  0  0  0  0  0
  -28.7043  -20.2990   20.6539 N   0  0  0  0  0  0
  -29.3026  -21.5087   20.8230 N   0  0  0  0  0  0
  -30.0337  -15.4865   21.2205 N   0  0  0  0  0  0
  -31.4734  -12.4384   19.1274 H   0  0  0  0  0  0
  -30.3362  -11.3251   19.8323 H   0  0  0  0  0  0
  -29.7455  -11.7953   17.4341 H   0  0  0  0  0  0
  -29.6597  -13.5057   17.7705 H   0  0  0  0  0  0
  -27.8401  -11.3124   18.8241 H   0  0  0  0  0  0
  -27.3706  -12.6363   17.7897 H   0  0  0  0  0  0
  -27.6992  -14.2592   19.5681 H   0  0  0  0  0  0
  -28.6902  -11.9774   21.3453 H   0  0  0  0  0  0
  -28.4557  -13.6128   21.8715 H   0  0  0  0  0  0
  -25.2776   -9.5679   22.4747 H   0  0  0  0  0  0
  -24.0008   -7.4631   22.7468 H   0  0  0  0  0  0
  -21.0837   -8.8759   19.8946 H   0  0  0  0  0  0
  -22.3693  -10.9665   19.6160 H   0  0  0  0  0  0
  -21.2009   -7.6145   23.9715 H   0  0  0  0  0  0
  -21.1481   -6.0519   25.9076 H   0  0  0  0  0  0
  -22.0605   -2.7611   23.2833 H   0  0  0  0  0  0
  -22.4110  -11.9844   22.4795 H   0  0  0  0  0  0
  -21.1131  -13.1243   22.2651 H   0  0  0  0  0  0
  -24.6387  -15.8306   20.5024 H   0  0  0  0  0  0
  -26.2545  -15.6298   20.0514 H   0  0  0  0  0  0
  -26.7162  -32.5518   23.1170 H   0  0  0  0  0  0
  -25.0103  -33.9781   25.0495 H   0  0  0  0  0  0
  -22.7012  -31.3147   21.4142 H   0  0  0  0  0  0
  -23.3751  -35.9649   23.3304 H   0  0  0  0  0  0
  -24.3593  -36.8917   22.2049 H   0  0  0  0  0  0
  -23.7243  -37.6521   23.6643 H   0  0  0  0  0  0
  -26.0671  -31.5893   20.6055 H   0  0  0  0  0  0
  -26.8306  -30.8699   21.9936 H   0  0  0  0  0  0
  -28.1050  -29.0493   21.1823 H   0  0  0  0  0  0
  -25.9712  -25.9910   18.9766 H   0  0  0  0  0  0
  -23.9630  -27.3315   19.0145 H   0  0  0  0  0  0
  -23.7319  -30.6160   19.4086 H   0  0  0  0  0  0
  -22.7417  -29.2614   19.8632 H   0  0  0  0  0  0
  -25.1288  -36.1975   25.0830 H   0  0  0  0  0  0
  -20.9978  -28.3260   24.1409 H   0  0  0  0  0  0
  -20.5692  -26.2299   23.3598 H   0  0  0  0  0  0
  -21.6648  -26.7462   22.1191 H   0  0  0  0  0  0
  -19.6919  -25.6297   21.1240 H   0  0  0  0  0  0
  -19.6692  -27.3198   20.6738 H   0  0  0  0  0  0
  -17.4203  -26.6672   21.4026 H   0  0  0  0  0  0
  -18.0340  -26.0071   22.9018 H   0  0  0  0  0  0
  -19.7936  -30.7262   24.2286 H   0  0  0  0  0  0
  -17.5017  -31.6270   24.5164 H   0  0  0  0  0  0
  -15.5354  -30.2997   23.7642 H   0  0  0  0  0  0
  -15.8671  -28.0830   22.7056 H   0  0  0  0  0  0
  -24.5900  -30.7092   25.7811 H   0  0  0  0  0  0
  -24.8941  -32.2893   26.4934 H   0  0  0  0  0  0
  -25.8070  -30.8883   27.0242 H   0  0  0  0  0  0
  -26.2883  -29.6803   24.1180 H   0  0  0  0  0  0
  -27.4050  -29.7282   25.4632 H   0  0  0  0  0  0
  -27.8739  -30.4351   23.9347 H   0  0  0  0  0  0
  -27.2691  -33.3611   26.2116 H   0  0  0  0  0  0
  -28.3858  -32.6892   25.0326 H   0  0  0  0  0  0
  -28.0749  -31.8424   26.5396 H   0  0  0  0  0  0
  -28.2601  -38.0106   24.7515 H   0  0  0  0  0  0
  -28.1078  -36.2643   24.6288 H   0  0  0  0  0  0
  -27.2306  -37.1459   25.8866 H   0  0  0  0  0  0
  -20.9324  -29.8791   21.6923 H   0  0  0  0  0  0
  -26.0187  -38.2873   24.1403 H   0  0  0  0  0  0
  -31.3024  -22.0580   21.2844 H   0  0  0  0  0  0
  -28.8920  -18.3115   18.4971 H   0  0  0  0  0  0
  -29.3719  -16.6440   18.7778 H   0  0  0  0  0  0
  -30.5885  -17.9179   18.7294 H   0  0  0  0  0  0
  -27.2417  -18.1534   20.4831 H   0  0  0  0  0  0
  -27.8449  -17.7225   22.0785 H   0  0  0  0  0  0
  -27.7368  -16.5168   20.8053 H   0  0  0  0  0  0
  -29.9400  -24.0563   19.7961 H   0  0  0  0  0  0
  -29.6275  -24.4309   21.4806 H   0  0  0  0  0  0
  -27.7727  -22.5687   19.9287 H   0  0  0  0  0  0
  -27.8656  -22.7551   21.6555 H   0  0  0  0  0  0
  -30.3624  -17.1751   22.4086 H   0  0  0  0  0  0
  -31.4193  -17.0994   21.0316 H   0  0  0  0  0  0
  -27.2032  -24.9625   20.7283 H   0  0  0  0  0  0
  -27.8064  -24.8978   19.0820 H   0  0  0  0  0  0
  -29.1390  -15.2169   21.5999 H   0  0  0  0  0  0
  1 25  1  0  0  0
  1 30  2  0  0  0
  1 83  1  0  0  0
  2  3  1  0  0  0
  2 25  1  0  0  0
  2 84  1  0  0  0
  2 85  1  0  0  0
  3  4  1  0  0  0
  3 86  1  0  0  0
  3 87  1  0  0  0
  4  5  1  0  0  0
  4 88  1  0  0  0
  4 89  1  0  0  0
  5  6  1  0  0  0
  5 26  1  0  0  0
  5 90  1  0  0  0
  6 25  1  0  0  0
  6 91  1  0  0  0
  6 92  1  0  0  0
  7  8  2  0  0  0
  7 26  1  0  0  0
  7 29  1  0  0  0
  8  9  1  0  0  0
  8 22  1  0  0  0
  9 10  1  0  0  0
  9 27  2  0  0  0
 10 11  2  0  0  0
 10 15  1  0  0  0
 11 12  1  0  0  0
 11 93  1  0  0  0
 12 13  2  0  0  0
 12 94  1  0  0  0
 13 14  1  0  0  0
 13 31  1  0  0  0
 14 15  2  0  0  0
 14 95  1  0  0  0
 15 96  1  0  0  0
 16 17  2  0  0  0
 16 21  1  0  0  0
 16 31  1  0  0  0
 17 18  1  0  0  0
 17 97  1  0  0  0
 18 19  2  0  0  0
 18 98  1  0  0  0
 19 20  1  0  0  0
 19 24  1  0  0  0
 20 21  2  0  0  0
 20 99  1  0  0  0
 21 23  1  0  0  0
 22 28  1  0  0  0
 22 32  2  0  0  0
 26 27  1  0  0  0
 28100  1  0  0  0
 28101  1  0  0  0
 29102  1  0  0  0
 29103  1  0  0  0
 33 34  1  0  0  0
 33 66  1  0  0  0
 33 70  2  0  0  0
 34 36  1  0  0  0
 34 59  1  0  0  0
 34104  1  0  0  0
 35 44  2  0  0  0
 35 45  1  0  0  0
 35 68  1  0  0  0
 36 56  1  0  0  0
 36105  1  0  0  0
 37 39  1  0  0  0
 37 47  1  0  0  0
 37 66  1  0  0  0
 37106  1  0  0  0
 38 43  2  0  0  0
 38 46  1  0  0  0
 38 47  1  0  0  0
 39 64  1  0  0  0
 39 67  2  0  0  0
 40 52  1  0  0  0
 40 53  2  0  0  0
 40 58  1  0  0  0
 41107  1  0  0  0
 41108  1  0  0  0
 41109  1  0  0  0
 41 48  1  0  0  0
 42 43  1  0  0  0
 42 66  1  0  0  0
 42110  1  0  0  0
 42111  1  0  0  0
 43 44  1  0  0  0
 44112  1  0  0  0
 45 46  2  0  0  0
 45113  1  0  0  0
 46114  1  0  0  0
 47115  1  0  0  0
 47116  1  0  0  0
 48 56  1  0  0  0
 48 65  1  0  0  0
 48117  1  0  0  0
 49 50  1  0  0  0
 49 53  1  0  0  0
 49 64  1  0  0  0
 49118  1  0  0  0
 50 51  1  0  0  0
 50119  1  0  0  0
 50120  1  0  0  0
 51 52  1  0  0  0
 51121  1  0  0  0
 51122  1  0  0  0
 52123  1  0  0  0
 52124  1  0  0  0
 53 54  1  0  0  0
 54 55  2  0  0  0
 54125  1  0  0  0
 55 57  1  0  0  0
 55126  1  0  0  0
 56 69  2  0  0  0
 57 58  2  0  0  0
 57127  1  0  0  0
 58128  1  0  0  0
 59 60  1  0  0  0
 59 61  1  0  0  0
 59 62  1  0  0  0
 60129  1  0  0  0
 60130  1  0  0  0
 60131  1  0  0  0
 61132  1  0  0  0
 61133  1  0  0  0
 61134  1  0  0  0
 62135  1  0  0  0
 62136  1  0  0  0
 62137  1  0  0  0
 63 65  1  0  0  0
 63138  1  0  0  0
 63139  1  0  0  0
 63140  1  0  0  0
 64141  1  0  0  0
 65142  1  0  0  0
 68 78  1  0  0  0
 71 80  2  0  0  0
 71 82  1  0  0  0
 71143  1  0  0  0
 72 79  1  0  0  0
 72 80  1  0  0  0
 72 81  2  0  0  0
 73144  1  0  0  0
 73145  1  0  0  0
 73146  1  0  0  0
 73 79  1  0  0  0
 74 79  1  0  0  0
 74147  1  0  0  0
 74148  1  0  0  0
 74149  1  0  0  0
 75 76  1  0  0  0
 75 78  1  0  0  0
 75150  1  0  0  0
 75151  1  0  0  0
 76 82  1  0  0  0
 76152  1  0  0  0
 76153  1  0  0  0
 77 79  1  0  0  0
 77 83  1  0  0  0
 77154  1  0  0  0
 77155  1  0  0  0
 78156  1  0  0  0
 78157  1  0  0  0
 81 82  1  0  0  0
 83158  1  0  0  0
M  ISO  4   1 100  68 101  78 101  83 100
M  END
> <chiral flag>
0

> <version>
0

> <s_m_source_file>
/data/baiqing/PycharmProjects/Reinvent-master-3.2/result/LINK_invent/BTK/process_docking_weight1_custom_sum_contain_oxygen_bond_distance_aromatic_linkinvent_7_9_3/rearranged_h_0060.sdf

> <i_m_source_file_index>
18

> <r_mmod_Potential_Energy-OPLS-2005>
-98.2643508911133

> <r_mmod_Stretch_Energy-OPLS-2005>
49.4653167724609

> <r_mmod_Bend_Energy-OPLS-2005>
124.095199584961

> <r_mmod_Torsional_Energy-OPLS-2005>
207.368835449219

> <r_mmod_Improper_Torsional_Energy-OPLS-2005>
4.32429838180542

> <r_mmod_Van_der_Waal_Energy-OPLS-2005>
137.711135864258

> <r_mmod_Electrostatic_Energy-OPLS-2005>
-415.488494873047

> <r_mmod_Solvation_Energy-OPLS-2005>
-225.994552612305

> <b_mmod_Minimization_Converged-OPLS-2005>
0

> <r_mmod_RMS_Derivative-OPLS-2005>
1.20445835590363

$$$$
20
                    3D
 Structure written by MMmdl.
158166  0  0  1  0            999 V2000
  -30.5197  -15.0329   20.4011 C   0  0  0  0  0  0
  -30.4409  -12.6446   19.5078 C   0  0  0  0  0  0
  -29.5228  -12.5170   18.2694 C   0  0  0  0  0  0
  -28.0660  -12.2780   18.7043 C   0  0  0  0  0  0
  -27.6216  -13.2479   19.8284 C   0  0  2  0  0  0
  -28.6610  -13.3370   20.9650 C   0  0  0  0  0  0
  -25.2434  -13.8203   20.5719 C   0  0  0  0  0  0
  -24.1754  -13.0431   20.9253 C   0  0  0  0  0  0
  -24.6376  -11.6919   20.8780 C   0  0  0  0  0  0
  -23.9058  -10.4288   21.0421 C   0  0  0  0  0  0
  -24.3617   -9.4193   21.9193 C   0  0  0  0  0  0
  -23.6296   -8.2220   22.0744 C   0  0  0  0  0  0
  -22.4274   -8.0266   21.3538 C   0  0  0  0  0  0
  -21.9910   -9.0238   20.4648 C   0  0  0  0  0  0
  -22.7230  -10.2123   20.3067 C   0  0  0  0  0  0
  -21.6847   -6.0726   22.5283 C   0  0  0  0  0  0
  -21.4009   -6.5644   23.8212 C   0  0  0  0  0  0
  -21.3664   -5.6797   24.9180 C   0  0  0  0  0  0
  -21.6043   -4.3053   24.7236 C   0  0  0  0  0  0
  -21.8819   -3.8144   23.4352 C   0  0  0  0  0  0
  -21.9185   -4.6955   22.3404 C   0  0  0  0  0  0
  -22.7781  -13.5191   21.1914 C   0  0  0  0  0  0
  -22.1657   -4.2144   21.0982 F   0  0  0  0  0  0
  -21.5630   -3.4538   25.7745 F   0  0  0  0  0  0
  -29.9265  -13.7646   20.3543 N   0  0  0  0  0  0
  -26.2846  -12.9436   20.3216 N   0  0  0  0  0  0
  -25.9299  -11.6567   20.5743 N   0  0  0  0  0  0
  -22.0445  -12.8172   22.0492 N   0  0  0  0  0  0
  -25.4108  -15.1930   20.4144 N   0  0  0  0  0  0
  -31.7335  -15.0727   20.1693 O   0  0  0  0  0  0
  -21.6633   -6.8864   21.4241 O   0  0  0  0  0  0
  -22.3462  -14.5493   20.6764 O   0  0  0  0  0  0
  -24.6511  -31.8406   23.1867 C   0  0  0  0  0  0
  -25.9255  -32.4691   23.8267 C   0  0  1  0  0  0
  -27.2062  -27.0686   20.1516 C   0  0  0  0  0  0
  -25.6002  -33.8507   24.2187 N   0  0  0  0  0  0
  -23.4574  -30.4641   21.5322 C   0  0  2  0  0  0
  -24.9062  -28.8867   20.1085 C   0  0  0  0  0  0
  -22.7619  -29.4552   22.4818 C   0  0  0  0  0  0
  -18.0319  -28.1417   22.8485 C   0  0  0  0  0  0
  -24.1477  -36.7247   23.2640 C   0  0  0  0  0  0
  -26.0207  -30.6918   21.3967 C   0  0  0  0  0  0
  -26.0877  -29.2971   20.7384 C   0  0  0  0  0  0
  -27.2370  -28.4050   20.7463 C   0  0  0  0  0  0
  -25.9959  -26.7932   19.4682 C   0  0  0  0  0  0
  -24.8772  -27.6499   19.4570 C   0  0  0  0  0  0
  -23.6891  -29.8006   20.1501 C   0  0  0  0  0  0
  -25.4115  -36.3032   24.0312 C   0  0  1  0  0  0
  -20.5943  -28.3750   23.1219 C   0  0  2  0  0  0
  -20.6796  -26.9438   22.5425 C   0  0  0  0  0  0
  -19.5772  -26.6378   21.5237 C   0  0  0  0  0  0
  -18.1944  -26.7966   22.1616 C   0  0  0  0  0  0
  -19.1582  -28.8900   23.2847 C   0  0  0  0  0  0
  -18.9495  -30.1492   23.8884 C   0  0  0  0  0  0
  -17.6484  -30.6610   24.0573 C   0  0  0  0  0  0
  -25.9069  -34.9411   23.5041 C   0  0  0  0  0  0
  -16.5371  -29.9109   23.6345 C   0  0  0  0  0  0
  -16.7303  -28.6520   23.0373 C   0  0  0  0  0  0
  -26.4533  -31.6588   25.0735 C   0  0  0  0  0  0
  -25.3699  -31.3911   26.1442 C   0  0  0  0  0  0
  -27.0327  -30.2937   24.6375 C   0  0  0  0  0  0
  -27.6077  -32.4348   25.7504 C   0  0  0  0  0  0
  -27.5569  -37.1780   24.8459 C   0  0  0  0  0  0
  -21.4297  -29.3069   22.3585 N   0  0  0  0  0  0
  -26.4275  -37.3752   23.9414 N   0  0  0  0  0  0
  -24.7301  -31.0219   22.0930 N   0  0  0  0  0  0
  -23.4248  -28.8078   23.2963 O   0  0  0  0  0  0
  -28.2055  -26.0014   20.2296 O   0  0  0  0  0  0
  -26.5629  -34.8913   22.4607 O   0  0  0  0  0  0
  -23.5605  -32.1307   23.7051 O   0  0  0  0  0  0
  -29.0268  -20.7723   20.2840 C   0  0  0  0  0  0
  -28.5579  -23.0502   20.1963 C   0  0  0  0  0  0
  -25.8548  -21.7159   21.3747 C   0  0  0  0  0  0
  -26.1359  -20.0479   19.5431 C   0  0  0  0  0  0
  -25.8223  -22.3894   18.9346 C   0  0  0  0  0  0
  -28.9229  -19.0875   20.3236 C   0  0  0  0  0  0
  -27.7361  -24.5066   20.0141 C   0  0  0  0  0  0
  -30.0755  -17.8240   20.4664 C   0  0  0  0  0  0
  -26.5043  -21.4813   19.9955 C   0  0  0  0  0  0
  -30.1681  -21.4767   20.4289 N   0  0  0  0  0  0
  -29.8830  -22.8752   20.3703 N   0  0  0  0  0  0
  -27.9783  -21.7400   20.1185 N   0  0  0  0  0  0
  -29.7478  -16.2443   20.4997 N   0  0  0  0  0  0
  -31.4701  -12.8153   19.1899 H   0  0  0  0  0  0
  -30.4572  -11.7120   20.0737 H   0  0  0  0  0  0
  -29.8611  -11.6983   17.6321 H   0  0  0  0  0  0
  -29.5840  -13.4240   17.6663 H   0  0  0  0  0  0
  -28.0038  -11.2517   19.0701 H   0  0  0  0  0  0
  -27.3897  -12.3364   17.8507 H   0  0  0  0  0  0
  -27.5677  -14.2307   19.3593 H   0  0  0  0  0  0
  -28.7704  -12.3825   21.4804 H   0  0  0  0  0  0
  -28.3401  -14.0604   21.7163 H   0  0  0  0  0  0
  -25.2756   -9.5663   22.4765 H   0  0  0  0  0  0
  -24.0010   -7.4596   22.7452 H   0  0  0  0  0  0
  -21.0831   -8.8749   19.8953 H   0  0  0  0  0  0
  -22.3674  -10.9664   19.6182 H   0  0  0  0  0  0
  -21.2003   -7.6153   23.9718 H   0  0  0  0  0  0
  -21.1488   -6.0526   25.9084 H   0  0  0  0  0  0
  -22.0591   -2.7605   23.2845 H   0  0  0  0  0  0
  -22.4091  -11.9839   22.4864 H   0  0  0  0  0  0
  -21.1067  -13.1181   22.2734 H   0  0  0  0  0  0
  -24.6390  -15.8403   20.5238 H   0  0  0  0  0  0
  -26.2476  -15.6324   20.0553 H   0  0  0  0  0  0
  -26.7330  -32.5263   23.0998 H   0  0  0  0  0  0
  -25.0243  -33.9624   25.0396 H   0  0  0  0  0  0
  -22.7636  -31.2939   21.3799 H   0  0  0  0  0  0
  -23.3732  -35.9583   23.3322 H   0  0  0  0  0  0
  -24.3565  -36.8855   22.2050 H   0  0  0  0  0  0
  -23.7220  -37.6453   23.6646 H   0  0  0  0  0  0
  -26.1832  -31.4392   20.6193 H   0  0  0  0  0  0
  -26.8897  -30.7470   22.0408 H   0  0  0  0  0  0
  -28.1286  -28.7117   21.2748 H   0  0  0  0  0  0
  -25.8513  -25.8646   18.9418 H   0  0  0  0  0  0
  -23.9799  -27.3357   18.9413 H   0  0  0  0  0  0
  -23.8378  -30.5799   19.4017 H   0  0  0  0  0  0
  -22.8006  -29.2549   19.8276 H   0  0  0  0  0  0
  -25.1296  -36.1866   25.0799 H   0  0  0  0  0  0
  -21.0035  -28.3333   24.1340 H   0  0  0  0  0  0
  -20.5669  -26.2370   23.3662 H   0  0  0  0  0  0
  -21.6658  -26.7426   22.1231 H   0  0  0  0  0  0
  -19.6914  -25.6273   21.1304 H   0  0  0  0  0  0
  -19.6721  -27.3163   20.6749 H   0  0  0  0  0  0
  -17.4236  -26.6769   21.3986 H   0  0  0  0  0  0
  -18.0283  -26.0103   22.8990 H   0  0  0  0  0  0
  -19.7968  -30.7320   24.2228 H   0  0  0  0  0  0
  -17.5046  -31.6290   24.5173 H   0  0  0  0  0  0
  -15.5378  -30.3017   23.7666 H   0  0  0  0  0  0
  -15.8703  -28.0840   22.7098 H   0  0  0  0  0  0
  -24.5919  -30.7162   25.7865 H   0  0  0  0  0  0
  -24.8828  -32.3141   26.4598 H   0  0  0  0  0  0
  -25.7965  -30.9351   27.0379 H   0  0  0  0  0  0
  -26.2923  -29.6729   24.1318 H   0  0  0  0  0  0
  -27.3798  -29.7213   25.4983 H   0  0  0  0  0  0
  -27.8922  -30.4117   23.9776 H   0  0  0  0  0  0
  -27.2678  -33.3688   26.2001 H   0  0  0  0  0  0
  -28.3918  -32.6848   25.0343 H   0  0  0  0  0  0
  -28.0698  -31.8523   26.5486 H   0  0  0  0  0  0
  -28.2603  -38.0059   24.7460 H   0  0  0  0  0  0
  -28.1032  -36.2584   24.6297 H   0  0  0  0  0  0
  -27.2312  -37.1471   25.8873 H   0  0  0  0  0  0
  -20.9494  -29.8861   21.6841 H   0  0  0  0  0  0
  -26.0134  -38.2812   24.1437 H   0  0  0  0  0  0
  -24.7791  -21.5393   21.3498 H   0  0  0  0  0  0
  -25.9993  -22.7322   21.7361 H   0  0  0  0  0  0
  -26.2770  -21.0518   22.1294 H   0  0  0  0  0  0
  -25.0684  -19.9535   19.3392 H   0  0  0  0  0  0
  -26.3170  -19.2945   20.3057 H   0  0  0  0  0  0
  -26.6418  -19.7745   18.6177 H   0  0  0  0  0  0
  -24.8910  -21.9657   18.5566 H   0  0  0  0  0  0
  -26.4581  -22.5496   18.0636 H   0  0  0  0  0  0
  -25.5119  -23.3541   19.3284 H   0  0  0  0  0  0
  -28.4177  -18.8206   19.3999 H   0  0  0  0  0  0
  -28.2232  -18.8828   21.1316 H   0  0  0  0  0  0
  -26.8519  -24.4220   20.6403 H   0  0  0  0  0  0
  -27.4209  -24.4858   18.9743 H   0  0  0  0  0  0
  -30.6271  -18.0160   21.3869 H   0  0  0  0  0  0
  -30.8117  -17.9638   19.6736 H   0  0  0  0  0  0
  -28.7624  -16.0517   20.6086 H   0  0  0  0  0  0
  1 25  1  0  0  0
  1 30  2  0  0  0
  1 83  1  0  0  0
  2  3  1  0  0  0
  2 25  1  0  0  0
  2 84  1  0  0  0
  2 85  1  0  0  0
  3  4  1  0  0  0
  3 86  1  0  0  0
  3 87  1  0  0  0
  4  5  1  0  0  0
  4 88  1  0  0  0
  4 89  1  0  0  0
  5  6  1  0  0  0
  5 26  1  0  0  0
  5 90  1  0  0  0
  6 25  1  0  0  0
  6 91  1  0  0  0
  6 92  1  0  0  0
  7  8  2  0  0  0
  7 26  1  0  0  0
  7 29  1  0  0  0
  8  9  1  0  0  0
  8 22  1  0  0  0
  9 10  1  0  0  0
  9 27  2  0  0  0
 10 11  2  0  0  0
 10 15  1  0  0  0
 11 12  1  0  0  0
 11 93  1  0  0  0
 12 13  2  0  0  0
 12 94  1  0  0  0
 13 14  1  0  0  0
 13 31  1  0  0  0
 14 15  2  0  0  0
 14 95  1  0  0  0
 15 96  1  0  0  0
 16 17  2  0  0  0
 16 21  1  0  0  0
 16 31  1  0  0  0
 17 18  1  0  0  0
 17 97  1  0  0  0
 18 19  2  0  0  0
 18 98  1  0  0  0
 19 20  1  0  0  0
 19 24  1  0  0  0
 20 21  2  0  0  0
 20 99  1  0  0  0
 21 23  1  0  0  0
 22 28  1  0  0  0
 22 32  2  0  0  0
 26 27  1  0  0  0
 28100  1  0  0  0
 28101  1  0  0  0
 29102  1  0  0  0
 29103  1  0  0  0
 33 34  1  0  0  0
 33 66  1  0  0  0
 33 70  2  0  0  0
 34 36  1  0  0  0
 34 59  1  0  0  0
 34104  1  0  0  0
 35 44  2  0  0  0
 35 45  1  0  0  0
 35 68  1  0  0  0
 36 56  1  0  0  0
 36105  1  0  0  0
 37 39  1  0  0  0
 37 47  1  0  0  0
 37 66  1  0  0  0
 37106  1  0  0  0
 38 43  2  0  0  0
 38 46  1  0  0  0
 38 47  1  0  0  0
 39 64  1  0  0  0
 39 67  2  0  0  0
 40 52  1  0  0  0
 40 53  2  0  0  0
 40 58  1  0  0  0
 41107  1  0  0  0
 41108  1  0  0  0
 41109  1  0  0  0
 41 48  1  0  0  0
 42 43  1  0  0  0
 42 66  1  0  0  0
 42110  1  0  0  0
 42111  1  0  0  0
 43 44  1  0  0  0
 44112  1  0  0  0
 45 46  2  0  0  0
 45113  1  0  0  0
 46114  1  0  0  0
 47115  1  0  0  0
 47116  1  0  0  0
 48 56  1  0  0  0
 48 65  1  0  0  0
 48117  1  0  0  0
 49 50  1  0  0  0
 49 53  1  0  0  0
 49 64  1  0  0  0
 49118  1  0  0  0
 50 51  1  0  0  0
 50119  1  0  0  0
 50120  1  0  0  0
 51 52  1  0  0  0
 51121  1  0  0  0
 51122  1  0  0  0
 52123  1  0  0  0
 52124  1  0  0  0
 53 54  1  0  0  0
 54 55  2  0  0  0
 54125  1  0  0  0
 55 57  1  0  0  0
 55126  1  0  0  0
 56 69  2  0  0  0
 57 58  2  0  0  0
 57127  1  0  0  0
 58128  1  0  0  0
 59 60  1  0  0  0
 59 61  1  0  0  0
 59 62  1  0  0  0
 60129  1  0  0  0
 60130  1  0  0  0
 60131  1  0  0  0
 61132  1  0  0  0
 61133  1  0  0  0
 61134  1  0  0  0
 62135  1  0  0  0
 62136  1  0  0  0
 62137  1  0  0  0
 63 65  1  0  0  0
 63138  1  0  0  0
 63139  1  0  0  0
 63140  1  0  0  0
 64141  1  0  0  0
 65142  1  0  0  0
 68 77  1  0  0  0
 71 76  1  0  0  0
 71 80  2  0  0  0
 71 82  1  0  0  0
 72 77  1  0  0  0
 72 81  2  0  0  0
 72 82  1  0  0  0
 73143  1  0  0  0
 73144  1  0  0  0
 73145  1  0  0  0
 73 79  1  0  0  0
 74 79  1  0  0  0
 74146  1  0  0  0
 74147  1  0  0  0
 74148  1  0  0  0
 75 79  1  0  0  0
 75149  1  0  0  0
 75150  1  0  0  0
 75151  1  0  0  0
 76 78  1  0  0  0
 76152  1  0  0  0
 76153  1  0  0  0
 77154  1  0  0  0
 77155  1  0  0  0
 78 83  1  0  0  0
 78156  1  0  0  0
 78157  1  0  0  0
 79 82  1  0  0  0
 80 81  1  0  0  0
 83158  1  0  0  0
M  ISO  4   1 100  68 101  77 101  83 100
M  END
> <chiral flag>
0

> <version>
0

> <s_m_source_file>
/data/baiqing/PycharmProjects/Reinvent-master-3.2/result/LINK_invent/BTK/process_docking_weight1_custom_sum_contain_oxygen_bond_distance_aromatic_linkinvent_7_9_3/rearranged_h_0060.sdf

> <i_m_source_file_index>
19

> <r_mmod_Potential_Energy-OPLS-2005>
788.268920898438

> <r_mmod_Stretch_Energy-OPLS-2005>
355.768585205078

> <r_mmod_Bend_Energy-OPLS-2005>
345.697113037109

> <r_mmod_Torsional_Energy-OPLS-2005>
250.728851318359

> <r_mmod_Improper_Torsional_Energy-OPLS-2005>
4.70543670654297

> <r_mmod_Van_der_Waal_Energy-OPLS-2005>
134.290588378906

> <r_mmod_Electrostatic_Energy-OPLS-2005>
-311.828704833984

> <r_mmod_Solvation_Energy-OPLS-2005>
-258.071990966797

> <b_mmod_Minimization_Converged-OPLS-2005>
0

> <r_mmod_RMS_Derivative-OPLS-2005>
2.16426277160645

$$$$
21
                    3D
 Structure written by MMmdl.
150158  0  0  1  0            999 V2000
  -30.5141  -15.0453   20.4635 C   0  0  0  0  0  0
  -30.4533  -12.6686   19.5019 C   0  0  0  0  0  0
  -29.5300  -12.5662   18.2615 C   0  0  0  0  0  0
  -28.0615  -12.3381   18.6710 C   0  0  0  0  0  0
  -27.6342  -13.2499   19.8488 C   0  0  2  0  0  0
  -28.6817  -13.2284   20.9782 C   0  0  0  0  0  0
  -25.2447  -13.8206   20.5679 C   0  0  0  0  0  0
  -24.1775  -13.0431   20.9223 C   0  0  0  0  0  0
  -24.6406  -11.6922   20.8757 C   0  0  0  0  0  0
  -23.9086  -10.4296   21.0413 C   0  0  0  0  0  0
  -24.3632   -9.4208   21.9186 C   0  0  0  0  0  0
  -23.6297   -8.2245   22.0754 C   0  0  0  0  0  0
  -22.4277   -8.0284   21.3546 C   0  0  0  0  0  0
  -21.9921   -9.0265   20.4650 C   0  0  0  0  0  0
  -22.7262  -10.2137   20.3060 C   0  0  0  0  0  0
  -21.6859   -6.0733   22.5273 C   0  0  0  0  0  0
  -21.4017   -6.5635   23.8207 C   0  0  0  0  0  0
  -21.3662   -5.6787   24.9169 C   0  0  0  0  0  0
  -21.6053   -4.3050   24.7222 C   0  0  0  0  0  0
  -21.8818   -3.8142   23.4342 C   0  0  0  0  0  0
  -21.9192   -4.6959   22.3398 C   0  0  0  0  0  0
  -22.7792  -13.5197   21.1879 C   0  0  0  0  0  0
  -22.1661   -4.2144   21.0977 F   0  0  0  0  0  0
  -21.5632   -3.4533   25.7734 F   0  0  0  0  0  0
  -29.9343  -13.7558   20.3990 N   0  0  0  0  0  0
  -26.2904  -12.9446   20.3274 N   0  0  0  0  0  0
  -25.9344  -11.6576   20.5750 N   0  0  0  0  0  0
  -22.0444  -12.8191   22.0443 N   0  0  0  0  0  0
  -25.4057  -15.1929   20.4037 N   0  0  0  0  0  0
  -31.6908  -15.0989   20.0823 O   0  0  0  0  0  0
  -21.6645   -6.8879   21.4236 O   0  0  0  0  0  0
  -22.3470  -14.5498   20.6721 O   0  0  0  0  0  0
  -24.6504  -31.8379   23.1835 C   0  0  0  0  0  0
  -25.9250  -32.4661   23.8242 C   0  0  1  0  0  0
  -27.2210  -27.0741   20.1525 C   0  0  0  0  0  0
  -25.5975  -33.8468   24.2158 N   0  0  0  0  0  0
  -23.4571  -30.4567   21.5298 C   0  0  2  0  0  0
  -24.9090  -28.8748   20.1106 C   0  0  0  0  0  0
  -22.7606  -29.4517   22.4827 C   0  0  0  0  0  0
  -18.0312  -28.1399   22.8473 C   0  0  0  0  0  0
  -24.1488  -36.7242   23.2643 C   0  0  0  0  0  0
  -26.0192  -30.6915   21.3934 C   0  0  0  0  0  0
  -26.0901  -29.2968   20.7345 C   0  0  0  0  0  0
  -27.2446  -28.4141   20.7386 C   0  0  0  0  0  0
  -26.0096  -26.7756   19.4856 C   0  0  0  0  0  0
  -24.8860  -27.6293   19.4697 C   0  0  0  0  0  0
  -23.6883  -29.7842   20.1509 C   0  0  0  0  0  0
  -25.4123  -36.3008   24.0311 C   0  0  1  0  0  0
  -20.5931  -28.3731   23.1213 C   0  0  2  0  0  0
  -20.6790  -26.9426   22.5397 C   0  0  0  0  0  0
  -19.5763  -26.6379   21.5208 C   0  0  0  0  0  0
  -18.1948  -26.7937   22.1622 C   0  0  0  0  0  0
  -19.1574  -28.8882   23.2833 C   0  0  0  0  0  0
  -18.9487  -30.1478   23.8859 C   0  0  0  0  0  0
  -17.6482  -30.6590   24.0558 C   0  0  0  0  0  0
  -25.9083  -34.9387   23.5042 C   0  0  0  0  0  0
  -16.5370  -29.9084   23.6337 C   0  0  0  0  0  0
  -16.7298  -28.6505   23.0355 C   0  0  0  0  0  0
  -26.4544  -31.6553   25.0713 C   0  0  0  0  0  0
  -25.3712  -31.3775   26.1399 C   0  0  0  0  0  0
  -27.0426  -30.2936   24.6356 C   0  0  0  0  0  0
  -27.6051  -32.4341   25.7514 C   0  0  0  0  0  0
  -27.5569  -37.1778   24.8468 C   0  0  0  0  0  0
  -21.4289  -29.3053   22.3583 N   0  0  0  0  0  0
  -26.4279  -37.3730   23.9410 N   0  0  0  0  0  0
  -24.7289  -31.0181   22.0899 N   0  0  0  0  0  0
  -23.4221  -28.8068   23.3000 O   0  0  0  0  0  0
  -28.2469  -26.0357   20.2220 O   0  0  0  0  0  0
  -26.5669  -34.8896   22.4622 O   0  0  0  0  0  0
  -23.5604  -32.1286   23.7009 O   0  0  0  0  0  0
  -30.2118  -22.8713   20.0141 C   0  0  0  0  0  0
  -30.4691  -21.5024   20.1207 C   0  0  0  0  0  0
  -28.8084  -23.1059   20.1939 C   0  0  0  0  0  0
  -28.8098  -16.2520   21.8142 C   0  0  0  0  0  0
  -27.8822  -24.5042   20.0403 C   0  0  0  0  0  0
  -29.0814  -19.2006   20.6579 C   0  0  0  0  0  0
  -30.0540  -17.8184   20.2845 C   0  0  0  0  0  0
  -28.3130  -21.7997   20.3882 N   0  0  0  0  0  0
  -29.3087  -20.7636   20.3346 N   0  0  0  0  0  0
  -29.7744  -16.2797   20.7114 N   0  0  0  0  0  0
  -31.4768  -12.8587   19.1752 H   0  0  0  0  0  0
  -30.5000  -11.7143   20.0285 H   0  0  0  0  0  0
  -29.8656  -11.7617   17.6053 H   0  0  0  0  0  0
  -29.6060  -13.4858   17.6792 H   0  0  0  0  0  0
  -27.9598  -11.2922   18.9629 H   0  0  0  0  0  0
  -27.4002  -12.4832   17.8161 H   0  0  0  0  0  0
  -27.6063  -14.2651   19.4507 H   0  0  0  0  0  0
  -28.8151  -12.2106   21.3478 H   0  0  0  0  0  0
  -28.3366  -13.7756   21.8486 H   0  0  0  0  0  0
  -25.2777   -9.5680   22.4758 H   0  0  0  0  0  0
  -24.0008   -7.4637   22.7466 H   0  0  0  0  0  0
  -21.0855   -8.8797   19.8949 H   0  0  0  0  0  0
  -22.3736  -10.9676   19.6166 H   0  0  0  0  0  0
  -21.2014   -7.6144   23.9708 H   0  0  0  0  0  0
  -21.1484   -6.0517   25.9070 H   0  0  0  0  0  0
  -22.0597   -2.7602   23.2843 H   0  0  0  0  0  0
  -22.4061  -11.9867   22.4858 H   0  0  0  0  0  0
  -21.1049  -13.1202   22.2622 H   0  0  0  0  0  0
  -24.6353  -15.8425   20.5149 H   0  0  0  0  0  0
  -26.2504  -15.6351   20.0648 H   0  0  0  0  0  0
  -26.7317  -32.5243   23.0966 H   0  0  0  0  0  0
  -25.0110  -33.9572   25.0298 H   0  0  0  0  0  0
  -22.7623  -31.2842   21.3703 H   0  0  0  0  0  0
  -23.3753  -35.9570   23.3290 H   0  0  0  0  0  0
  -24.3572  -36.8893   22.2059 H   0  0  0  0  0  0
  -23.7241  -37.6431   23.6696 H   0  0  0  0  0  0
  -26.1837  -31.4411   20.6179 H   0  0  0  0  0  0
  -26.8858  -30.7425   22.0407 H   0  0  0  0  0  0
  -28.1390  -28.7323   21.2553 H   0  0  0  0  0  0
  -25.8818  -25.8304   18.9821 H   0  0  0  0  0  0
  -23.9883  -27.3014   18.9648 H   0  0  0  0  0  0
  -23.8300  -30.5571   19.3941 H   0  0  0  0  0  0
  -22.8017  -29.2296   19.8379 H   0  0  0  0  0  0
  -25.1310  -36.1821   25.0801 H   0  0  0  0  0  0
  -21.0021  -28.3325   24.1334 H   0  0  0  0  0  0
  -20.5667  -26.2350   23.3626 H   0  0  0  0  0  0
  -21.6656  -26.7412   22.1202 H   0  0  0  0  0  0
  -19.6920  -25.6283   21.1257 H   0  0  0  0  0  0
  -19.6695  -27.3170   20.6722 H   0  0  0  0  0  0
  -17.4211  -26.6673   21.4034 H   0  0  0  0  0  0
  -18.0351  -26.0089   22.9027 H   0  0  0  0  0  0
  -19.7962  -30.7306   24.2210 H   0  0  0  0  0  0
  -17.5034  -31.6266   24.5169 H   0  0  0  0  0  0
  -15.5370  -30.2971   23.7685 H   0  0  0  0  0  0
  -15.8699  -28.0812   22.7086 H   0  0  0  0  0  0
  -24.5894  -30.7117   25.7730 H   0  0  0  0  0  0
  -24.8904  -32.2969   26.4744 H   0  0  0  0  0  0
  -25.7978  -30.9006   27.0230 H   0  0  0  0  0  0
  -26.3069  -29.6641   24.1338 H   0  0  0  0  0  0
  -27.3981  -29.7258   25.4965 H   0  0  0  0  0  0
  -27.8996  -30.4153   23.9732 H   0  0  0  0  0  0
  -27.2623  -33.3667   26.2009 H   0  0  0  0  0  0
  -28.3910  -32.6863   25.0382 H   0  0  0  0  0  0
  -28.0667  -31.8526   26.5504 H   0  0  0  0  0  0
  -28.2575  -38.0083   24.7502 H   0  0  0  0  0  0
  -28.1073  -36.2609   24.6302 H   0  0  0  0  0  0
  -27.2290  -37.1431   25.8872 H   0  0  0  0  0  0
  -20.9511  -29.8781   21.6763 H   0  0  0  0  0  0
  -26.0138  -38.2793   24.1412 H   0  0  0  0  0  0
  -30.9594  -23.6275   19.8165 H   0  0  0  0  0  0
  -31.4178  -20.9862   20.0603 H   0  0  0  0  0  0
  -29.1487  -15.5952   22.6162 H   0  0  0  0  0  0
  -27.8318  -15.9275   21.4662 H   0  0  0  0  0  0
  -28.6705  -17.2089   22.3036 H   0  0  0  0  0  0
  -27.0017  -24.3566   20.6662 H   0  0  0  0  0  0
  -27.5034  -24.4504   19.0209 H   0  0  0  0  0  0
  -28.9738  -19.2063   21.7408 H   0  0  0  0  0  0
  -28.0815  -18.9740   20.2866 H   0  0  0  0  0  0
  -31.0570  -18.0376   20.6516 H   0  0  0  0  0  0
  -30.1612  -17.7969   19.1998 H   0  0  0  0  0  0
  1 25  1  0  0  0
  1 30  2  0  0  0
  1 80  1  0  0  0
  2  3  1  0  0  0
  2 25  1  0  0  0
  2 81  1  0  0  0
  2 82  1  0  0  0
  3  4  1  0  0  0
  3 83  1  0  0  0
  3 84  1  0  0  0
  4  5  1  0  0  0
  4 85  1  0  0  0
  4 86  1  0  0  0
  5  6  1  0  0  0
  5 26  1  0  0  0
  5 87  1  0  0  0
  6 25  1  0  0  0
  6 88  1  0  0  0
  6 89  1  0  0  0
  7  8  2  0  0  0
  7 26  1  0  0  0
  7 29  1  0  0  0
  8  9  1  0  0  0
  8 22  1  0  0  0
  9 10  1  0  0  0
  9 27  2  0  0  0
 10 11  2  0  0  0
 10 15  1  0  0  0
 11 12  1  0  0  0
 11 90  1  0  0  0
 12 13  2  0  0  0
 12 91  1  0  0  0
 13 14  1  0  0  0
 13 31  1  0  0  0
 14 15  2  0  0  0
 14 92  1  0  0  0
 15 93  1  0  0  0
 16 17  2  0  0  0
 16 21  1  0  0  0
 16 31  1  0  0  0
 17 18  1  0  0  0
 17 94  1  0  0  0
 18 19  2  0  0  0
 18 95  1  0  0  0
 19 20  1  0  0  0
 19 24  1  0  0  0
 20 21  2  0  0  0
 20 96  1  0  0  0
 21 23  1  0  0  0
 22 28  1  0  0  0
 22 32  2  0  0  0
 26 27  1  0  0  0
 28 97  1  0  0  0
 28 98  1  0  0  0
 29 99  1  0  0  0
 29100  1  0  0  0
 33 34  1  0  0  0
 33 66  1  0  0  0
 33 70  2  0  0  0
 34 36  1  0  0  0
 34 59  1  0  0  0
 34101  1  0  0  0
 35 44  2  0  0  0
 35 45  1  0  0  0
 35 68  1  0  0  0
 36 56  1  0  0  0
 36102  1  0  0  0
 37 39  1  0  0  0
 37 47  1  0  0  0
 37 66  1  0  0  0
 37103  1  0  0  0
 38 43  2  0  0  0
 38 46  1  0  0  0
 38 47  1  0  0  0
 39 64  1  0  0  0
 39 67  2  0  0  0
 40 52  1  0  0  0
 40 53  2  0  0  0
 40 58  1  0  0  0
 41104  1  0  0  0
 41105  1  0  0  0
 41106  1  0  0  0
 41 48  1  0  0  0
 42 43  1  0  0  0
 42 66  1  0  0  0
 42107  1  0  0  0
 42108  1  0  0  0
 43 44  1  0  0  0
 44109  1  0  0  0
 45 46  2  0  0  0
 45110  1  0  0  0
 46111  1  0  0  0
 47112  1  0  0  0
 47113  1  0  0  0
 48 56  1  0  0  0
 48 65  1  0  0  0
 48114  1  0  0  0
 49 50  1  0  0  0
 49 53  1  0  0  0
 49 64  1  0  0  0
 49115  1  0  0  0
 50 51  1  0  0  0
 50116  1  0  0  0
 50117  1  0  0  0
 51 52  1  0  0  0
 51118  1  0  0  0
 51119  1  0  0  0
 52120  1  0  0  0
 52121  1  0  0  0
 53 54  1  0  0  0
 54 55  2  0  0  0
 54122  1  0  0  0
 55 57  1  0  0  0
 55123  1  0  0  0
 56 69  2  0  0  0
 57 58  2  0  0  0
 57124  1  0  0  0
 58125  1  0  0  0
 59 60  1  0  0  0
 59 61  1  0  0  0
 59 62  1  0  0  0
 60126  1  0  0  0
 60127  1  0  0  0
 60128  1  0  0  0
 61129  1  0  0  0
 61130  1  0  0  0
 61131  1  0  0  0
 62132  1  0  0  0
 62133  1  0  0  0
 62134  1  0  0  0
 63 65  1  0  0  0
 63135  1  0  0  0
 63136  1  0  0  0
 63137  1  0  0  0
 64138  1  0  0  0
 65139  1  0  0  0
 68 75  1  0  0  0
 71 72  2  0  0  0
 71 73  1  0  0  0
 71140  1  0  0  0
 72 79  1  0  0  0
 72141  1  0  0  0
 73 75  1  0  0  0
 73 78  2  0  0  0
 74 80  1  0  0  0
 74142  1  0  0  0
 74143  1  0  0  0
 74144  1  0  0  0
 75145  1  0  0  0
 75146  1  0  0  0
 76 77  1  0  0  0
 76 79  1  0  0  0
 76147  1  0  0  0
 76148  1  0  0  0
 77 80  1  0  0  0
 77149  1  0  0  0
 77150  1  0  0  0
 78 79  1  0  0  0
M  ISO  4   1 100  68 101  75 101  80 100
M  END
> <chiral flag>
0

> <version>
0

> <s_m_source_file>
/data/baiqing/PycharmProjects/Reinvent-master-3.2/result/LINK_invent/BTK/process_docking_weight1_custom_sum_contain_oxygen_bond_distance_aromatic_linkinvent_7_9_3/rearranged_h_0060.sdf

> <i_m_source_file_index>
20

> <r_mmod_Potential_Energy-OPLS-2005>
832.927185058594

> <r_mmod_Stretch_Energy-OPLS-2005>
352.943664550781

> <r_mmod_Bend_Energy-OPLS-2005>
320.769378662109

> <r_mmod_Torsional_Energy-OPLS-2005>
278.903900146484

> <r_mmod_Improper_Torsional_Energy-OPLS-2005>
6.97753381729126

> <r_mmod_Van_der_Waal_Energy-OPLS-2005>
125.21070098877

> <r_mmod_Electrostatic_Energy-OPLS-2005>
-279.622406005859

> <r_mmod_Solvation_Energy-OPLS-2005>
-223.227844238281

> <b_mmod_Minimization_Converged-OPLS-2005>
0

> <r_mmod_RMS_Derivative-OPLS-2005>
1.05408263206482

$$$$
22
                    3D
 Structure written by MMmdl.
152160  0  0  1  0            999 V2000
  -30.3968  -15.4245   20.3582 C   0  0  0  0  0  0
  -30.4309  -12.9202   19.5519 C   0  0  0  0  0  0
  -29.5470  -12.6152   18.3123 C   0  0  0  0  0  0
  -28.1029  -12.3048   18.7409 C   0  0  0  0  0  0
  -27.6058  -13.2935   19.8235 C   0  0  2  0  0  0
  -28.6295  -13.5358   20.9578 C   0  0  0  0  0  0
  -25.2354  -13.8258   20.5756 C   0  0  0  0  0  0
  -24.1724  -13.0428   20.9244 C   0  0  0  0  0  0
  -24.6410  -11.6934   20.8752 C   0  0  0  0  0  0
  -23.9118  -10.4282   21.0385 C   0  0  0  0  0  0
  -24.3636   -9.4201   21.9178 C   0  0  0  0  0  0
  -23.6304   -8.2241   22.0750 C   0  0  0  0  0  0
  -22.4281   -8.0284   21.3545 C   0  0  0  0  0  0
  -21.9932   -9.0262   20.4644 C   0  0  0  0  0  0
  -22.7278  -10.2132   20.3047 C   0  0  0  0  0  0
  -21.6860   -6.0736   22.5279 C   0  0  0  0  0  0
  -21.4027   -6.5641   23.8219 C   0  0  0  0  0  0
  -21.3654   -5.6790   24.9174 C   0  0  0  0  0  0
  -21.6037   -4.3056   24.7220 C   0  0  0  0  0  0
  -21.8820   -3.8147   23.4346 C   0  0  0  0  0  0
  -21.9190   -4.6962   22.3407 C   0  0  0  0  0  0
  -22.7738  -13.5178   21.1869 C   0  0  0  0  0  0
  -22.1652   -4.2146   21.0981 F   0  0  0  0  0  0
  -21.5622   -3.4535   25.7729 F   0  0  0  0  0  0
  -29.8430  -14.0915   20.3295 N   0  0  0  0  0  0
  -26.2806  -12.9576   20.3239 N   0  0  0  0  0  0
  -25.9349  -11.6658   20.5703 N   0  0  0  0  0  0
  -22.0402  -12.8177   22.0439 N   0  0  0  0  0  0
  -25.3978  -15.1987   20.4188 N   0  0  0  0  0  0
  -31.6135  -15.3722   20.1148 O   0  0  0  0  0  0
  -21.6650   -6.8877   21.4238 O   0  0  0  0  0  0
  -22.3428  -14.5473   20.6693 O   0  0  0  0  0  0
  -24.6726  -31.8121   23.1639 C   0  0  0  0  0  0
  -25.9355  -32.4539   23.8131 C   0  0  1  0  0  0
  -27.2179  -26.8218   20.2058 C   0  0  0  0  0  0
  -25.5992  -33.8362   24.2041 N   0  0  0  0  0  0
  -23.4938  -30.4201   21.5126 C   0  0  2  0  0  0
  -24.9503  -28.7895   20.1110 C   0  0  0  0  0  0
  -22.7721  -29.4376   22.4735 C   0  0  0  0  0  0
  -18.0332  -28.1418   22.8472 C   0  0  0  0  0  0
  -24.1476  -36.7168   23.2654 C   0  0  0  0  0  0
  -26.0669  -30.5859   21.4089 C   0  0  0  0  0  0
  -26.1338  -29.1632   20.7598 C   0  0  0  0  0  0
  -27.2555  -28.2011   20.7840 C   0  0  0  0  0  0
  -26.0099  -26.6347   19.4904 C   0  0  0  0  0  0
  -24.9210  -27.5491   19.4534 C   0  0  0  0  0  0
  -23.7404  -29.7297   20.1418 C   0  0  0  0  0  0
  -25.4125  -36.2934   24.0301 C   0  0  1  0  0  0
  -20.5965  -28.3759   23.1168 C   0  0  2  0  0  0
  -20.6794  -26.9428   22.5402 C   0  0  0  0  0  0
  -19.5765  -26.6373   21.5221 C   0  0  0  0  0  0
  -18.1948  -26.7957   22.1626 C   0  0  0  0  0  0
  -19.1596  -28.8911   23.2805 C   0  0  0  0  0  0
  -18.9502  -30.1502   23.8837 C   0  0  0  0  0  0
  -17.6490  -30.6602   24.0558 C   0  0  0  0  0  0
  -25.9094  -34.9321   23.4985 C   0  0  0  0  0  0
  -16.5376  -29.9087   23.6354 C   0  0  0  0  0  0
  -16.7315  -28.6513   23.0372 C   0  0  0  0  0  0
  -26.4579  -31.6533   25.0695 C   0  0  0  0  0  0
  -25.3690  -31.3819   26.1343 C   0  0  0  0  0  0
  -27.0489  -30.2896   24.6486 C   0  0  0  0  0  0
  -27.6061  -32.4354   25.7505 C   0  0  0  0  0  0
  -27.5549  -37.1746   24.8477 C   0  0  0  0  0  0
  -21.4371  -29.3030   22.3500 N   0  0  0  0  0  0
  -26.4260  -37.3684   23.9418 N   0  0  0  0  0  0
  -24.7669  -30.9692   22.0820 N   0  0  0  0  0  0
  -23.4232  -28.7950   23.3006 O   0  0  0  0  0  0
  -28.1686  -25.6394   20.3264 O   0  0  0  0  0  0
  -26.5694  -34.8881   22.4572 O   0  0  0  0  0  0
  -23.5763  -32.1119   23.6672 O   0  0  0  0  0  0
  -28.6054  -22.4283   20.3926 C   0  0  0  0  0  0
  -29.1729  -20.0219   20.4063 C   0  0  0  0  0  0
  -31.4021  -18.6604   20.2137 C   0  0  0  0  0  0
  -29.6478  -18.3089   18.4897 C   0  0  0  0  0  0
  -29.2054  -19.9222   22.9326 C   0  0  0  0  0  0
  -27.8826  -24.0173   19.9302 C   0  0  0  0  0  0
  -29.8971  -18.4072   20.0060 C   0  0  0  0  0  0
  -28.9396  -21.2119   19.6089 N   0  0  0  0  0  0
  -28.6443  -21.9580   21.6580 N   0  0  0  0  0  0
  -29.0078  -20.5727   21.6494 N   0  0  0  0  0  0
  -29.6669  -16.7588   20.4587 N   0  0  0  0  0  0
  -31.4496  -13.1280   19.2197 H   0  0  0  0  0  0
  -30.5174  -12.0351   20.1854 H   0  0  0  0  0  0
  -29.9605  -11.7797   17.7455 H   0  0  0  0  0  0
  -29.5519  -13.4773   17.6431 H   0  0  0  0  0  0
  -28.0875  -11.2913   19.1428 H   0  0  0  0  0  0
  -27.4348  -12.3050   17.8792 H   0  0  0  0  0  0
  -27.5008  -14.2424   19.2959 H   0  0  0  0  0  0
  -28.8340  -12.6215   21.5166 H   0  0  0  0  0  0
  -28.2334  -14.2542   21.6782 H   0  0  0  0  0  0
  -25.2769   -9.5667   22.4768 H   0  0  0  0  0  0
  -23.9998   -7.4635   22.7487 H   0  0  0  0  0  0
  -21.0851   -8.8791   19.8965 H   0  0  0  0  0  0
  -22.3737  -10.9662   19.6153 H   0  0  0  0  0  0
  -21.2044   -7.6154   23.9716 H   0  0  0  0  0  0
  -21.1469   -6.0520   25.9072 H   0  0  0  0  0  0
  -22.0602   -2.7611   23.2841 H   0  0  0  0  0  0
  -22.4025  -11.9860   22.4851 H   0  0  0  0  0  0
  -21.1007  -13.1182   22.2611 H   0  0  0  0  0  0
  -24.6250  -15.8459   20.5262 H   0  0  0  0  0  0
  -26.2395  -15.6399   20.0716 H   0  0  0  0  0  0
  -26.7429  -32.5048   23.0848 H   0  0  0  0  0  0
  -25.0159  -33.9426   25.0210 H   0  0  0  0  0  0
  -22.8120  -31.2543   21.3347 H   0  0  0  0  0  0
  -23.3744  -35.9489   23.3297 H   0  0  0  0  0  0
  -24.3565  -36.8830   22.2073 H   0  0  0  0  0  0
  -23.7226  -37.6352   23.6714 H   0  0  0  0  0  0
  -26.2484  -31.3162   20.6185 H   0  0  0  0  0  0
  -26.9273  -30.6564   22.0626 H   0  0  0  0  0  0
  -28.1401  -28.4828   21.3388 H   0  0  0  0  0  0
  -25.8603  -25.6905   18.9878 H   0  0  0  0  0  0
  -24.0277  -27.2564   18.9194 H   0  0  0  0  0  0
  -23.9040  -30.4954   19.3827 H   0  0  0  0  0  0
  -22.8484  -29.1893   19.8217 H   0  0  0  0  0  0
  -25.1326  -36.1710   25.0793 H   0  0  0  0  0  0
  -21.0054  -28.3354   24.1293 H   0  0  0  0  0  0
  -20.5645  -26.2377   23.3652 H   0  0  0  0  0  0
  -21.6653  -26.7372   22.1215 H   0  0  0  0  0  0
  -19.6903  -25.6268   21.1283 H   0  0  0  0  0  0
  -19.6707  -27.3155   20.6730 H   0  0  0  0  0  0
  -17.4215  -26.6720   21.4022 H   0  0  0  0  0  0
  -18.0317  -26.0117   22.9031 H   0  0  0  0  0  0
  -19.7973  -30.7342   24.2165 H   0  0  0  0  0  0
  -17.5043  -31.6282   24.5157 H   0  0  0  0  0  0
  -15.5373  -30.2962   23.7722 H   0  0  0  0  0  0
  -15.8726  -28.0818   22.7108 H   0  0  0  0  0  0
  -24.5892  -30.7139   25.7664 H   0  0  0  0  0  0
  -24.8848  -32.3027   26.4599 H   0  0  0  0  0  0
  -25.7904  -30.9110   27.0233 H   0  0  0  0  0  0
  -26.3181  -29.6562   24.1441 H   0  0  0  0  0  0
  -27.3945  -29.7284   25.5177 H   0  0  0  0  0  0
  -27.9154  -30.4079   23.9980 H   0  0  0  0  0  0
  -27.2645  -33.3734   26.1905 H   0  0  0  0  0  0
  -28.3976  -32.6787   25.0400 H   0  0  0  0  0  0
  -28.0613  -31.8586   26.5572 H   0  0  0  0  0  0
  -28.2550  -38.0048   24.7487 H   0  0  0  0  0  0
  -28.1040  -36.2565   24.6321 H   0  0  0  0  0  0
  -27.2269  -37.1427   25.8881 H   0  0  0  0  0  0
  -20.9621  -29.8745   21.6651 H   0  0  0  0  0  0
  -26.0080  -38.2725   24.1429 H   0  0  0  0  0  0
  -31.7109  -19.5974   19.7491 H   0  0  0  0  0  0
  -32.0266  -17.8784   19.7847 H   0  0  0  0  0  0
  -31.6362  -18.7380   21.2739 H   0  0  0  0  0  0
  -30.0094  -19.1933   17.9643 H   0  0  0  0  0  0
  -28.5809  -18.2226   18.2792 H   0  0  0  0  0  0
  -30.1454  -17.4483   18.0420 H   0  0  0  0  0  0
  -28.9911  -18.8562   22.8543 H   0  0  0  0  0  0
  -28.5456  -20.3551   23.6871 H   0  0  0  0  0  0
  -30.2400  -20.0488   23.2498 H   0  0  0  0  0  0
  -26.8266  -23.8902   20.1673 H   0  0  0  0  0  0
  -27.8973  -24.0160   18.8406 H   0  0  0  0  0  0
  -28.7055  -16.5999   20.7275 H   0  0  0  0  0  0
  1 25  1  0  0  0
  1 30  2  0  0  0
  1 81  1  0  0  0
  2  3  1  0  0  0
  2 25  1  0  0  0
  2 82  1  0  0  0
  2 83  1  0  0  0
  3  4  1  0  0  0
  3 84  1  0  0  0
  3 85  1  0  0  0
  4  5  1  0  0  0
  4 86  1  0  0  0
  4 87  1  0  0  0
  5  6  1  0  0  0
  5 26  1  0  0  0
  5 88  1  0  0  0
  6 25  1  0  0  0
  6 89  1  0  0  0
  6 90  1  0  0  0
  7  8  2  0  0  0
  7 26  1  0  0  0
  7 29  1  0  0  0
  8  9  1  0  0  0
  8 22  1  0  0  0
  9 10  1  0  0  0
  9 27  2  0  0  0
 10 11  2  0  0  0
 10 15  1  0  0  0
 11 12  1  0  0  0
 11 91  1  0  0  0
 12 13  2  0  0  0
 12 92  1  0  0  0
 13 14  1  0  0  0
 13 31  1  0  0  0
 14 15  2  0  0  0
 14 93  1  0  0  0
 15 94  1  0  0  0
 16 17  2  0  0  0
 16 21  1  0  0  0
 16 31  1  0  0  0
 17 18  1  0  0  0
 17 95  1  0  0  0
 18 19  2  0  0  0
 18 96  1  0  0  0
 19 20  1  0  0  0
 19 24  1  0  0  0
 20 21  2  0  0  0
 20 97  1  0  0  0
 21 23  1  0  0  0
 22 28  1  0  0  0
 22 32  2  0  0  0
 26 27  1  0  0  0
 28 98  1  0  0  0
 28 99  1  0  0  0
 29100  1  0  0  0
 29101  1  0  0  0
 33 34  1  0  0  0
 33 66  1  0  0  0
 33 70  2  0  0  0
 34 36  1  0  0  0
 34 59  1  0  0  0
 34102  1  0  0  0
 35 44  2  0  0  0
 35 45  1  0  0  0
 35 68  1  0  0  0
 36 56  1  0  0  0
 36103  1  0  0  0
 37 39  1  0  0  0
 37 47  1  0  0  0
 37 66  1  0  0  0
 37104  1  0  0  0
 38 43  2  0  0  0
 38 46  1  0  0  0
 38 47  1  0  0  0
 39 64  1  0  0  0
 39 67  2  0  0  0
 40 52  1  0  0  0
 40 53  2  0  0  0
 40 58  1  0  0  0
 41105  1  0  0  0
 41106  1  0  0  0
 41107  1  0  0  0
 41 48  1  0  0  0
 42 43  1  0  0  0
 42 66  1  0  0  0
 42108  1  0  0  0
 42109  1  0  0  0
 43 44  1  0  0  0
 44110  1  0  0  0
 45 46  2  0  0  0
 45111  1  0  0  0
 46112  1  0  0  0
 47113  1  0  0  0
 47114  1  0  0  0
 48 56  1  0  0  0
 48 65  1  0  0  0
 48115  1  0  0  0
 49 50  1  0  0  0
 49 53  1  0  0  0
 49 64  1  0  0  0
 49116  1  0  0  0
 50 51  1  0  0  0
 50117  1  0  0  0
 50118  1  0  0  0
 51 52  1  0  0  0
 51119  1  0  0  0
 51120  1  0  0  0
 52121  1  0  0  0
 52122  1  0  0  0
 53 54  1  0  0  0
 54 55  2  0  0  0
 54123  1  0  0  0
 55 57  1  0  0  0
 55124  1  0  0  0
 56 69  2  0  0  0
 57 58  2  0  0  0
 57125  1  0  0  0
 58126  1  0  0  0
 59 60  1  0  0  0
 59 61  1  0  0  0
 59 62  1  0  0  0
 60127  1  0  0  0
 60128  1  0  0  0
 60129  1  0  0  0
 61130  1  0  0  0
 61131  1  0  0  0
 61132  1  0  0  0
 62133  1  0  0  0
 62134  1  0  0  0
 62135  1  0  0  0
 63 65  1  0  0  0
 63136  1  0  0  0
 63137  1  0  0  0
 63138  1  0  0  0
 64139  1  0  0  0
 65140  1  0  0  0
 68 76  1  0  0  0
 71 76  1  0  0  0
 71 78  1  0  0  0
 71 79  2  0  0  0
 72 77  1  0  0  0
 72 78  2  0  0  0
 72 80  1  0  0  0
 73141  1  0  0  0
 73142  1  0  0  0
 73143  1  0  0  0
 73 77  1  0  0  0
 74 77  1  0  0  0
 74144  1  0  0  0
 74145  1  0  0  0
 74146  1  0  0  0
 75 80  1  0  0  0
 75147  1  0  0  0
 75148  1  0  0  0
 75149  1  0  0  0
 76150  1  0  0  0
 76151  1  0  0  0
 77 81  1  0  0  0
 79 80  1  0  0  0
 81152  1  0  0  0
M  ISO  4   1 100  68 101  76 101  81 100
M  END
> <chiral flag>
0

> <version>
0

> <s_m_source_file>
/data/baiqing/PycharmProjects/Reinvent-master-3.2/result/LINK_invent/BTK/process_docking_weight1_custom_sum_contain_oxygen_bond_distance_aromatic_linkinvent_7_9_3/rearranged_h_0060.sdf

> <i_m_source_file_index>
21

> <r_mmod_Potential_Energy-OPLS-2005>
1706.69067382812

> <r_mmod_Stretch_Energy-OPLS-2005>
770.362854003906

> <r_mmod_Bend_Energy-OPLS-2005>
580.252868652344

> <r_mmod_Torsional_Energy-OPLS-2005>
210.918273925781

> <r_mmod_Improper_Torsional_Energy-OPLS-2005>
8.35218334197998

> <r_mmod_Van_der_Waal_Energy-OPLS-2005>
105.940872192383

> <r_mmod_Electrostatic_Energy-OPLS-2005>
-370.594482421875

> <r_mmod_Solvation_Energy-OPLS-2005>
-237.741439819336

> <b_mmod_Minimization_Converged-OPLS-2005>
0

> <r_mmod_RMS_Derivative-OPLS-2005>
2.38004088401794

$$$$
23
                    3D
 Structure written by MMmdl.
173181  0  0  1  0            999 V2000
  -30.8725  -14.3374   20.7450 C   0  0  0  0  0  0
  -30.3928  -12.3047   19.4161 C   0  0  0  0  0  0
  -29.4735  -12.5365   18.2049 C   0  0  0  0  0  0
  -28.0032  -12.3800   18.6145 C   0  0  0  0  0  0
  -27.6620  -13.2152   19.8714 C   0  0  2  0  0  0
  -28.6992  -13.0247   21.0012 C   0  0  0  0  0  0
  -25.2571  -13.8224   20.5603 C   0  0  0  0  0  0
  -24.1840  -13.0484   20.9156 C   0  0  0  0  0  0
  -24.6408  -11.6953   20.8740 C   0  0  0  0  0  0
  -23.9062  -10.4329   21.0398 C   0  0  0  0  0  0
  -24.3615   -9.4235   21.9161 C   0  0  0  0  0  0
  -23.6277   -8.2276   22.0746 C   0  0  0  0  0  0
  -22.4254   -8.0311   21.3553 C   0  0  0  0  0  0
  -21.9906   -9.0286   20.4641 C   0  0  0  0  0  0
  -22.7228  -10.2173   20.3040 C   0  0  0  0  0  0
  -21.6833   -6.0743   22.5278 C   0  0  0  0  0  0
  -21.4002   -6.5641   23.8213 C   0  0  0  0  0  0
  -21.3660   -5.6799   24.9179 C   0  0  0  0  0  0
  -21.6042   -4.3061   24.7229 C   0  0  0  0  0  0
  -21.8810   -3.8141   23.4346 C   0  0  0  0  0  0
  -21.9185   -4.6965   22.3402 C   0  0  0  0  0  0
  -22.7867  -13.5277   21.1852 C   0  0  0  0  0  0
  -22.1657   -4.2144   21.0987 F   0  0  0  0  0  0
  -21.5643   -3.4551   25.7750 F   0  0  0  0  0  0
  -30.0544  -13.2713   20.4808 N   0  0  0  0  0  0
  -26.3028  -12.9397   20.3344 N   0  0  0  0  0  0
  -25.9340  -11.6557   20.5785 N   0  0  0  0  0  0
  -22.0539  -12.8222   22.0413 N   0  0  0  0  0  0
  -25.4238  -15.1897   20.3829 N   0  0  0  0  0  0
  -31.7526  -14.6221   19.9258 O   0  0  0  0  0  0
  -21.6619   -6.8895   21.4242 O   0  0  0  0  0  0
  -22.3517  -14.5574   20.6721 O   0  0  0  0  0  0
  -24.6124  -31.8699   23.2134 C   0  0  0  0  0  0
  -25.9025  -32.4835   23.8422 C   0  0  1  0  0  0
  -27.2393  -27.4536   20.0888 C   0  0  0  0  0  0
  -25.5894  -33.8629   24.2353 N   0  0  0  0  0  0
  -23.4002  -30.4938   21.5515 C   0  0  2  0  0  0
  -24.8496  -28.9597   20.1196 C   0  0  0  0  0  0
  -22.7398  -29.4673   22.5000 C   0  0  0  0  0  0
  -18.0274  -28.1368   22.8495 C   0  0  0  0  0  0
  -24.1485  -36.7326   23.2635 C   0  0  0  0  0  0
  -25.9273  -30.8391   21.3666 C   0  0  0  0  0  0
  -26.0071  -29.4707   20.7216 C   0  0  0  0  0  0
  -27.2051  -28.7212   20.7144 C   0  0  0  0  0  0
  -26.0719  -26.9594   19.4731 C   0  0  0  0  0  0
  -24.8749  -27.7001   19.4968 C   0  0  0  0  0  0
  -23.6098  -29.8237   20.1673 C   0  0  0  0  0  0
  -25.4105  -36.3114   24.0343 C   0  0  1  0  0  0
  -20.5861  -28.3664   23.1324 C   0  0  2  0  0  0
  -20.6762  -26.9402   22.5422 C   0  0  0  0  0  0
  -19.5747  -26.6388   21.5211 C   0  0  0  0  0  0
  -18.1924  -26.7917   22.1618 C   0  0  0  0  0  0
  -19.1520  -28.8834   23.2901 C   0  0  0  0  0  0
  -18.9442  -30.1439   23.8909 C   0  0  0  0  0  0
  -17.6449  -30.6584   24.0566 C   0  0  0  0  0  0
  -25.9033  -34.9477   23.5144 C   0  0  0  0  0  0
  -16.5347  -29.9092   23.6316 C   0  0  0  0  0  0
  -16.7267  -28.6504   23.0344 C   0  0  0  0  0  0
  -26.4460  -31.6596   25.0729 C   0  0  0  0  0  0
  -25.3740  -31.3684   26.1487 C   0  0  0  0  0  0
  -27.0304  -30.3047   24.6090 C   0  0  0  0  0  0
  -27.6046  -32.4307   25.7485 C   0  0  0  0  0  0
  -27.5582  -37.1819   24.8464 C   0  0  0  0  0  0
  -21.4130  -29.3041   22.3727 N   0  0  0  0  0  0
  -26.4293  -37.3801   23.9409 N   0  0  0  0  0  0
  -24.6639  -31.0829   22.1017 N   0  0  0  0  0  0
  -23.4184  -28.8208   23.3026 O   0  0  0  0  0  0
  -28.3835  -26.6928   20.0282 O   0  0  0  0  0  0
  -26.5602  -34.8919   22.4709 O   0  0  0  0  0  0
  -23.5318  -32.1436   23.7537 O   0  0  0  0  0  0
  -28.2732  -18.5084   22.0244 C   0  0  0  0  0  0
  -27.8734  -17.2795   22.5594 C   0  0  0  0  0  0
  -29.5627  -18.5807   21.4841 C   0  0  0  0  0  0
  -29.9260  -16.3567   22.0539 C   0  0  0  0  0  0
  -26.5068  -17.1017   23.1821 C   0  0  0  0  0  0
  -30.5728  -24.8095   22.4287 C   0  0  0  0  0  0
  -30.5796  -14.1995   23.3272 C   0  0  0  0  0  0
  -28.3698  -23.7537   19.4219 C   0  0  0  0  0  0
  -30.1642  -19.8585   20.8937 C   0  0  0  0  0  0
  -29.3181  -21.1415   21.0667 C   0  0  0  0  0  0
  -30.0422  -22.4365   20.6178 C   0  0  0  0  0  0
  -28.7599  -26.1011   21.2705 C   0  0  0  0  0  0
  -29.7899  -24.9390   21.0971 C   0  0  2  0  0  0
  -30.8846  -15.1288   22.1052 C   0  0  2  0  0  0
  -32.3574  -15.6135   22.4190 C   0  0  0  0  0  0
  -28.7002  -16.2183   22.5719 N   0  0  0  0  0  0
  -30.3537  -17.4900   21.4808 N   0  0  0  0  0  0
  -29.1460  -23.6370   20.6832 N   0  3  1  0  0  0
  -32.4096  -16.2874   23.5740 F   0  0  0  0  0  0
  -33.1792  -14.5634   22.5485 F   0  0  0  0  0  0
  -32.9165  -16.4070   21.4987 F   0  0  0  0  0  0
  -31.4354  -12.3611   19.1037 H   0  0  0  0  0  0
  -30.2656  -11.2910   19.7982 H   0  0  0  0  0  0
  -29.7173  -11.8400   17.4016 H   0  0  0  0  0  0
  -29.6341  -13.5365   17.8010 H   0  0  0  0  0  0
  -27.8145  -11.3224   18.8011 H   0  0  0  0  0  0
  -27.3504  -12.6672   17.7904 H   0  0  0  0  0  0
  -27.7053  -14.2639   19.5746 H   0  0  0  0  0  0
  -28.6463  -12.0213   21.4256 H   0  0  0  0  0  0
  -28.4063  -13.7116   21.7844 H   0  0  0  0  0  0
  -25.2787   -9.5701   22.4713 H   0  0  0  0  0  0
  -23.9982   -7.4679   22.7481 H   0  0  0  0  0  0
  -21.0843   -8.8795   19.8946 H   0  0  0  0  0  0
  -22.3685  -10.9703   19.6130 H   0  0  0  0  0  0
  -21.1977   -7.6151   23.9698 H   0  0  0  0  0  0
  -21.1493   -6.0549   25.9087 H   0  0  0  0  0  0
  -22.0581   -2.7600   23.2843 H   0  0  0  0  0  0
  -22.4167  -11.9834   22.4693 H   0  0  0  0  0  0
  -21.1179  -13.1224   22.2748 H   0  0  0  0  0  0
  -24.6403  -15.8312   20.4182 H   0  0  0  0  0  0
  -26.2653  -15.6057   20.0058 H   0  0  0  0  0  0
  -26.7097  -32.5564   23.1196 H   0  0  0  0  0  0
  -25.0039  -33.9797   25.0493 H   0  0  0  0  0  0
  -22.6863  -31.3089   21.4138 H   0  0  0  0  0  0
  -23.3737  -35.9668   23.3298 H   0  0  0  0  0  0
  -24.3574  -36.8949   22.2047 H   0  0  0  0  0  0
  -23.7246  -37.6534   23.6657 H   0  0  0  0  0  0
  -26.0351  -31.6010   20.5916 H   0  0  0  0  0  0
  -26.8156  -30.8988   21.9832 H   0  0  0  0  0  0
  -28.1002  -29.1217   21.1711 H   0  0  0  0  0  0
  -26.0807  -26.0042   18.9713 H   0  0  0  0  0  0
  -23.9881  -27.3035   19.0234 H   0  0  0  0  0  0
  -23.7156  -30.5977   19.4060 H   0  0  0  0  0  0
  -22.7341  -29.2423   19.8741 H   0  0  0  0  0  0
  -25.1268  -36.1983   25.0839 H   0  0  0  0  0  0
  -20.9958  -28.3239   24.1440 H   0  0  0  0  0  0
  -20.5670  -26.2275   23.3608 H   0  0  0  0  0  0
  -21.6633  -26.7445   22.1225 H   0  0  0  0  0  0
  -19.6910  -25.6308   21.1227 H   0  0  0  0  0  0
  -19.6680  -27.3204   20.6746 H   0  0  0  0  0  0
  -17.4193  -26.6682   21.4009 H   0  0  0  0  0  0
  -18.0310  -26.0052   22.9004 H   0  0  0  0  0  0
  -19.7917  -30.7241   24.2291 H   0  0  0  0  0  0
  -17.5010  -31.6256   24.5178 H   0  0  0  0  0  0
  -15.5349  -30.2996   23.7624 H   0  0  0  0  0  0
  -15.8672  -28.0832   22.7045 H   0  0  0  0  0  0
  -24.5911  -30.7033   25.7826 H   0  0  0  0  0  0
  -24.8926  -32.2830   26.4959 H   0  0  0  0  0  0
  -25.8103  -30.8835   27.0230 H   0  0  0  0  0  0
  -26.2849  -29.6798   24.1158 H   0  0  0  0  0  0
  -27.4100  -29.7288   25.4540 H   0  0  0  0  0  0
  -27.8671  -30.4378   23.9230 H   0  0  0  0  0  0
  -27.2675  -33.3595   26.2104 H   0  0  0  0  0  0
  -28.3831  -32.6890   25.0290 H   0  0  0  0  0  0
  -28.0748  -31.8404   26.5360 H   0  0  0  0  0  0
  -28.2602  -38.0113   24.7506 H   0  0  0  0  0  0
  -28.1075  -36.2645   24.6287 H   0  0  0  0  0  0
  -27.2302  -37.1470   25.8868 H   0  0  0  0  0  0
  -20.9286  -29.8766   21.6951 H   0  0  0  0  0  0
  -26.0178  -38.2881   24.1406 H   0  0  0  0  0  0
  -27.5994  -19.3561   22.0418 H   0  0  0  0  0  0
  -25.7531  -17.6292   22.5973 H   0  0  0  0  0  0
  -26.5032  -17.5057   24.1951 H   0  0  0  0  0  0
  -26.2197  -16.0509   23.2263 H   0  0  0  0  0  0
  -30.8751  -25.7866   22.8068 H   0  0  0  0  0  0
  -31.5027  -24.2524   22.3245 H   0  0  0  0  0  0
  -29.9744  -24.3367   23.2068 H   0  0  0  0  0  0
  -30.8307  -14.6876   24.2670 H   0  0  0  0  0  0
  -31.1650  -13.2817   23.2727 H   0  0  0  0  0  0
  -29.5434  -13.9092   23.4503 H   0  0  0  0  0  0
  -27.9795  -22.7906   19.0944 H   0  0  0  0  0  0
  -28.9880  -24.1503   18.6143 H   0  0  0  0  0  0
  -27.5054  -24.3999   19.5418 H   0  0  0  0  0  0
  -30.3507  -19.6858   19.8328 H   0  0  0  0  0  0
  -31.1421  -20.0089   21.3547 H   0  0  0  0  0  0
  -29.0482  -21.2476   22.1189 H   0  0  0  0  0  0
  -28.3864  -21.0146   20.5165 H   0  0  0  0  0  0
  -30.4312  -22.3239   19.6044 H   0  0  0  0  0  0
  -30.9272  -22.5423   21.2383 H   0  0  0  0  0  0
  -29.1913  -26.9060   21.8671 H   0  0  0  0  0  0
  -27.8859  -25.7456   21.8215 H   0  0  0  0  0  0
  -30.5046  -25.2358   20.3273 H   0  0  0  0  0  0
  -28.4675  -23.4216   21.3993 H   0  0  0  0  0  0
  1 25  1  0  0  0
  1 30  2  0  0  0
  1 84  1  0  0  0
  2  3  1  0  0  0
  2 25  1  0  0  0
  2 92  1  0  0  0
  2 93  1  0  0  0
  3  4  1  0  0  0
  3 94  1  0  0  0
  3 95  1  0  0  0
  4  5  1  0  0  0
  4 96  1  0  0  0
  4 97  1  0  0  0
  5  6  1  0  0  0
  5 26  1  0  0  0
  5 98  1  0  0  0
  6 25  1  0  0  0
  6 99  1  0  0  0
  6100  1  0  0  0
  7  8  2  0  0  0
  7 26  1  0  0  0
  7 29  1  0  0  0
  8  9  1  0  0  0
  8 22  1  0  0  0
  9 10  1  0  0  0
  9 27  2  0  0  0
 10 11  2  0  0  0
 10 15  1  0  0  0
 11 12  1  0  0  0
 11101  1  0  0  0
 12 13  2  0  0  0
 12102  1  0  0  0
 13 14  1  0  0  0
 13 31  1  0  0  0
 14 15  2  0  0  0
 14103  1  0  0  0
 15104  1  0  0  0
 16 17  2  0  0  0
 16 21  1  0  0  0
 16 31  1  0  0  0
 17 18  1  0  0  0
 17105  1  0  0  0
 18 19  2  0  0  0
 18106  1  0  0  0
 19 20  1  0  0  0
 19 24  1  0  0  0
 20 21  2  0  0  0
 20107  1  0  0  0
 21 23  1  0  0  0
 22 28  1  0  0  0
 22 32  2  0  0  0
 26 27  1  0  0  0
 28108  1  0  0  0
 28109  1  0  0  0
 29110  1  0  0  0
 29111  1  0  0  0
 33 34  1  0  0  0
 33 66  1  0  0  0
 33 70  2  0  0  0
 34 36  1  0  0  0
 34 59  1  0  0  0
 34112  1  0  0  0
 35 44  2  0  0  0
 35 45  1  0  0  0
 35 68  1  0  0  0
 36 56  1  0  0  0
 36113  1  0  0  0
 37 39  1  0  0  0
 37 47  1  0  0  0
 37 66  1  0  0  0
 37114  1  0  0  0
 38 43  2  0  0  0
 38 46  1  0  0  0
 38 47  1  0  0  0
 39 64  1  0  0  0
 39 67  2  0  0  0
 40 52  1  0  0  0
 40 53  2  0  0  0
 40 58  1  0  0  0
 41115  1  0  0  0
 41116  1  0  0  0
 41117  1  0  0  0
 41 48  1  0  0  0
 42 43  1  0  0  0
 42 66  1  0  0  0
 42118  1  0  0  0
 42119  1  0  0  0
 43 44  1  0  0  0
 44120  1  0  0  0
 45 46  2  0  0  0
 45121  1  0  0  0
 46122  1  0  0  0
 47123  1  0  0  0
 47124  1  0  0  0
 48 56  1  0  0  0
 48 65  1  0  0  0
 48125  1  0  0  0
 49 50  1  0  0  0
 49 53  1  0  0  0
 49 64  1  0  0  0
 49126  1  0  0  0
 50 51  1  0  0  0
 50127  1  0  0  0
 50128  1  0  0  0
 51 52  1  0  0  0
 51129  1  0  0  0
 51130  1  0  0  0
 52131  1  0  0  0
 52132  1  0  0  0
 53 54  1  0  0  0
 54 55  2  0  0  0
 54133  1  0  0  0
 55 57  1  0  0  0
 55134  1  0  0  0
 56 69  2  0  0  0
 57 58  2  0  0  0
 57135  1  0  0  0
 58136  1  0  0  0
 59 60  1  0  0  0
 59 61  1  0  0  0
 59 62  1  0  0  0
 60137  1  0  0  0
 60138  1  0  0  0
 60139  1  0  0  0
 61140  1  0  0  0
 61141  1  0  0  0
 61142  1  0  0  0
 62143  1  0  0  0
 62144  1  0  0  0
 62145  1  0  0  0
 63 65  1  0  0  0
 63146  1  0  0  0
 63147  1  0  0  0
 63148  1  0  0  0
 64149  1  0  0  0
 65150  1  0  0  0
 68 82  1  0  0  0
 71 72  2  0  0  0
 71 73  1  0  0  0
 71151  1  0  0  0
 72 75  1  0  0  0
 72 86  1  0  0  0
 73 79  1  0  0  0
 73 87  2  0  0  0
 74 84  1  0  0  0
 74 86  2  0  0  0
 74 87  1  0  0  0
 75152  1  0  0  0
 75153  1  0  0  0
 75154  1  0  0  0
 76155  1  0  0  0
 76156  1  0  0  0
 76157  1  0  0  0
 76 83  1  0  0  0
 77158  1  0  0  0
 77159  1  0  0  0
 77160  1  0  0  0
 77 84  1  0  0  0
 78161  1  0  0  0
 78162  1  0  0  0
 78163  1  0  0  0
 78 88  1  0  0  0
 79 80  1  0  0  0
 79164  1  0  0  0
 79165  1  0  0  0
 80 81  1  0  0  0
 80166  1  0  0  0
 80167  1  0  0  0
 81 88  1  0  0  0
 81168  1  0  0  0
 81169  1  0  0  0
 82 83  1  0  0  0
 82170  1  0  0  0
 82171  1  0  0  0
 83 88  1  0  0  0
 83172  1  0  0  0
 84 85  1  0  0  0
 85 89  1  0  0  0
 85 90  1  0  0  0
 85 91  1  0  0  0
 88173  1  0  0  0
M  CHG  1  88   1
M  ISO  4   1 100  68 101  82 101  84 100
M  END
> <chiral flag>
0

> <version>
0

> <s_m_source_file>
/data/baiqing/PycharmProjects/Reinvent-master-3.2/result/LINK_invent/BTK/process_docking_weight1_custom_sum_contain_oxygen_bond_distance_aromatic_linkinvent_7_9_3/rearranged_h_0060.sdf

> <i_m_source_file_index>
22

> <r_mmod_Potential_Energy-OPLS-2005>
-219.254791259766

> <r_mmod_Stretch_Energy-OPLS-2005>
50.6709365844727

> <r_mmod_Bend_Energy-OPLS-2005>
126.515190124512

> <r_mmod_Torsional_Energy-OPLS-2005>
227.197448730469

> <r_mmod_Improper_Torsional_Energy-OPLS-2005>
3.45067000389099

> <r_mmod_Van_der_Waal_Energy-OPLS-2005>
173.565963745117

> <r_mmod_Electrostatic_Energy-OPLS-2005>
-408.132751464844

> <r_mmod_Solvation_Energy-OPLS-2005>
-404.618774414062

> <b_mmod_Minimization_Converged-OPLS-2005>
0

> <r_mmod_RMS_Derivative-OPLS-2005>
2.79207944869995

$$$$
24
                    3D
 Structure written by MMmdl.
170178  0  0  1  0            999 V2000
  -30.6959  -14.5760   20.5880 C   0  0  0  0  0  0
  -30.4173  -12.3731   19.4651 C   0  0  0  0  0  0
  -29.4995  -12.5128   18.2304 C   0  0  0  0  0  0
  -28.0238  -12.3534   18.6347 C   0  0  0  0  0  0
  -27.6485  -13.2205   19.8635 C   0  0  2  0  0  0
  -28.6825  -13.0778   21.0003 C   0  0  0  0  0  0
  -25.2536  -13.8194   20.5719 C   0  0  0  0  0  0
  -24.1778  -13.0444   20.9174 C   0  0  0  0  0  0
  -24.6365  -11.6928   20.8717 C   0  0  0  0  0  0
  -23.9027  -10.4314   21.0385 C   0  0  0  0  0  0
  -24.3602   -9.4239   21.9171 C   0  0  0  0  0  0
  -23.6301   -8.2254   22.0750 C   0  0  0  0  0  0
  -22.4269   -8.0285   21.3541 C   0  0  0  0  0  0
  -21.9889   -9.0246   20.4625 C   0  0  0  0  0  0
  -22.7194  -10.2140   20.3044 C   0  0  0  0  0  0
  -21.6836   -6.0750   22.5301 C   0  0  0  0  0  0
  -21.4008   -6.5661   23.8231 C   0  0  0  0  0  0
  -21.3669   -5.6808   24.9196 C   0  0  0  0  0  0
  -21.6038   -4.3076   24.7224 C   0  0  0  0  0  0
  -21.8825   -3.8168   23.4352 C   0  0  0  0  0  0
  -21.9196   -4.6989   22.3409 C   0  0  0  0  0  0
  -22.7815  -13.5241   21.1860 C   0  0  0  0  0  0
  -22.1667   -4.2187   21.0983 F   0  0  0  0  0  0
  -21.5628   -3.4560   25.7730 F   0  0  0  0  0  0
  -30.0121  -13.3947   20.4546 N   0  0  0  0  0  0
  -26.2952  -12.9376   20.3316 N   0  0  0  0  0  0
  -25.9285  -11.6524   20.5707 N   0  0  0  0  0  0
  -22.0466  -12.8198   22.0416 N   0  0  0  0  0  0
  -25.4294  -15.1914   20.4262 N   0  0  0  0  0  0
  -31.8047  -14.7232   20.0621 O   0  0  0  0  0  0
  -21.6619   -6.8897   21.4258 O   0  0  0  0  0  0
  -22.3491  -14.5560   20.6767 O   0  0  0  0  0  0
  -24.6156  -31.8642   23.2046 C   0  0  0  0  0  0
  -25.9014  -32.4802   23.8396 C   0  0  1  0  0  0
  -27.2673  -27.3929   20.1167 C   0  0  0  0  0  0
  -25.5844  -33.8614   24.2309 N   0  0  0  0  0  0
  -23.4070  -30.4839   21.5429 C   0  0  2  0  0  0
  -24.8610  -28.9302   20.1206 C   0  0  0  0  0  0
  -22.7414  -29.4658   22.4957 C   0  0  0  0  0  0
  -18.0259  -28.1380   22.8517 C   0  0  0  0  0  0
  -24.1466  -36.7307   23.2650 C   0  0  0  0  0  0
  -25.9383  -30.8158   21.3634 C   0  0  0  0  0  0
  -26.0197  -29.4444   20.7136 C   0  0  0  0  0  0
  -27.2155  -28.6864   20.7011 C   0  0  0  0  0  0
  -26.0770  -26.8880   19.5422 C   0  0  0  0  0  0
  -24.8874  -27.6511   19.5327 C   0  0  0  0  0  0
  -23.6209  -29.8004   20.1645 C   0  0  0  0  0  0
  -25.4093  -36.3110   24.0345 C   0  0  1  0  0  0
  -20.5868  -28.3680   23.1312 C   0  0  2  0  0  0
  -20.6753  -26.9413   22.5425 C   0  0  0  0  0  0
  -19.5740  -26.6396   21.5213 C   0  0  0  0  0  0
  -18.1907  -26.7924   22.1622 C   0  0  0  0  0  0
  -19.1520  -28.8839   23.2910 C   0  0  0  0  0  0
  -18.9444  -30.1441   23.8933 C   0  0  0  0  0  0
  -17.6455  -30.6594   24.0558 C   0  0  0  0  0  0
  -25.9024  -34.9472   23.5139 C   0  0  0  0  0  0
  -16.5350  -29.9100   23.6330 C   0  0  0  0  0  0
  -16.7251  -28.6503   23.0383 C   0  0  0  0  0  0
  -26.4465  -31.6616   25.0750 C   0  0  0  0  0  0
  -25.3733  -31.3694   26.1496 C   0  0  0  0  0  0
  -27.0340  -30.3065   24.6176 C   0  0  0  0  0  0
  -27.6057  -32.4371   25.7467 C   0  0  0  0  0  0
  -27.5581  -37.1792   24.8453 C   0  0  0  0  0  0
  -21.4136  -29.3050   22.3705 N   0  0  0  0  0  0
  -26.4271  -37.3816   23.9438 N   0  0  0  0  0  0
  -24.6720  -31.0703   22.0949 N   0  0  0  0  0  0
  -23.4182  -28.8211   23.3010 O   0  0  0  0  0  0
  -28.4869  -26.7209   20.1550 O   0  0  0  0  0  0
  -26.5633  -34.8930   22.4722 O   0  0  0  0  0  0
  -23.5334  -32.1425   23.7402 O   0  0  0  0  0  0
  -29.6756  -18.3169   21.0052 C   0  0  0  0  0  0
  -28.7679  -19.8165   22.1945 C   0  0  0  0  0  0
  -28.3817  -25.1394   18.1976 C   0  0  0  0  0  0
  -27.7057  -19.5157   24.4491 C   0  0  0  0  0  0
  -26.4654  -20.7009   22.6073 C   0  0  0  0  0  0
  -28.3570  -21.7959   23.8333 C   0  0  0  0  0  0
  -30.0022  -15.7431   22.5883 C   0  0  0  0  0  0
  -30.0292  -16.9591   20.3597 C   0  0  0  0  0  0
  -28.9930  -22.7362   20.1804 C   0  0  0  0  0  0
  -28.5785  -24.1876   20.6581 C   0  0  0  0  0  0
  -29.9377  -21.8824   21.1059 C   0  0  0  0  0  0
  -28.7895  -25.3836   19.6597 C   0  0  2  0  0  0
  -27.8503  -20.4632   23.2351 C   0  0  0  0  0  0
  -28.7394  -18.4906   21.9806 N   0  0  0  0  0  0
  -30.1856  -19.4758   20.5531 N   0  0  0  0  0  0
  -29.5772  -20.4498   21.3095 N   0  0  0  0  0  0
  -30.0415  -15.6562   21.1228 N   0  0  0  0  0  0
  -31.4648  -12.4678   19.1703 H   0  0  0  0  0  0
  -30.3248  -11.3779   19.9027 H   0  0  0  0  0  0
  -29.7645  -11.7727   17.4727 H   0  0  0  0  0  0
  -29.6504  -13.4883   17.7663 H   0  0  0  0  0  0
  -27.8592  -11.3009   18.8633 H   0  0  0  0  0  0
  -27.3736  -12.5910   17.7925 H   0  0  0  0  0  0
  -27.6683  -14.2546   19.5197 H   0  0  0  0  0  0
  -28.6754  -12.0658   21.4100 H   0  0  0  0  0  0
  -28.4052  -13.7346   21.8238 H   0  0  0  0  0  0
  -25.2770   -9.5731   22.4709 H   0  0  0  0  0  0
  -24.0043   -7.4652   22.7460 H   0  0  0  0  0  0
  -21.0839   -8.8730   19.8909 H   0  0  0  0  0  0
  -22.3661  -10.9662   19.6137 H   0  0  0  0  0  0
  -21.1988   -7.6168   23.9747 H   0  0  0  0  0  0
  -21.1479   -6.0531   25.9094 H   0  0  0  0  0  0
  -22.0588   -2.7631   23.2821 H   0  0  0  0  0  0
  -22.4100  -11.9858   22.4764 H   0  0  0  0  0  0
  -21.1090  -13.1196   22.2665 H   0  0  0  0  0  0
  -24.6807  -15.8587   20.5680 H   0  0  0  0  0  0
  -26.3087  -15.6321   20.1924 H   0  0  0  0  0  0
  -26.7054  -32.5473   23.1137 H   0  0  0  0  0  0
  -24.9927  -33.9817   25.0398 H   0  0  0  0  0  0
  -22.6968  -31.2998   21.3944 H   0  0  0  0  0  0
  -23.3759  -35.9596   23.3273 H   0  0  0  0  0  0
  -24.3556  -36.9006   22.2073 H   0  0  0  0  0  0
  -23.7190  -37.6485   23.6707 H   0  0  0  0  0  0
  -26.0575  -31.5825   20.5976 H   0  0  0  0  0  0
  -26.8213  -30.8718   21.9874 H   0  0  0  0  0  0
  -28.1109  -29.0961   21.1513 H   0  0  0  0  0  0
  -26.0425  -25.8995   19.1166 H   0  0  0  0  0  0
  -23.9931  -27.2415   19.0810 H   0  0  0  0  0  0
  -23.7234  -30.5700   19.3998 H   0  0  0  0  0  0
  -22.7473  -29.2174   19.8695 H   0  0  0  0  0  0
  -25.1266  -36.1979   25.0843 H   0  0  0  0  0  0
  -20.9948  -28.3230   24.1436 H   0  0  0  0  0  0
  -20.5633  -26.2299   23.3621 H   0  0  0  0  0  0
  -21.6627  -26.7436   22.1252 H   0  0  0  0  0  0
  -19.6925  -25.6302   21.1256 H   0  0  0  0  0  0
  -19.6675  -27.3186   20.6723 H   0  0  0  0  0  0
  -17.4197  -26.6690   21.4006 H   0  0  0  0  0  0
  -18.0296  -26.0034   22.8987 H   0  0  0  0  0  0
  -19.7919  -30.7228   24.2357 H   0  0  0  0  0  0
  -17.5014  -31.6281   24.5131 H   0  0  0  0  0  0
  -15.5360  -30.3012   23.7635 H   0  0  0  0  0  0
  -15.8644  -28.0802   22.7142 H   0  0  0  0  0  0
  -24.5854  -30.7128   25.7784 H   0  0  0  0  0  0
  -24.8960  -32.2828   26.5055 H   0  0  0  0  0  0
  -25.8083  -30.8748   27.0187 H   0  0  0  0  0  0
  -26.2909  -29.6769   24.1271 H   0  0  0  0  0  0
  -27.4156  -29.7393   25.4677 H   0  0  0  0  0  0
  -27.8706  -30.4424   23.9320 H   0  0  0  0  0  0
  -27.2700  -33.3655   26.2102 H   0  0  0  0  0  0
  -28.3784  -32.6997   25.0222 H   0  0  0  0  0  0
  -28.0801  -31.8470   26.5324 H   0  0  0  0  0  0
  -28.2583  -38.0117   24.7595 H   0  0  0  0  0  0
  -28.1124  -36.2680   24.6152 H   0  0  0  0  0  0
  -27.2330  -37.1274   25.8864 H   0  0  0  0  0  0
  -20.9287  -29.8714   21.6879 H   0  0  0  0  0  0
  -26.0162  -38.2889   24.1496 H   0  0  0  0  0  0
  -28.3368  -26.0747   17.6390 H   0  0  0  0  0  0
  -27.4238  -24.6329   18.1080 H   0  0  0  0  0  0
  -29.1185  -24.5054   17.7001 H   0  0  0  0  0  0
  -27.2370  -18.5706   24.1767 H   0  0  0  0  0  0
  -27.0964  -19.9506   25.2404 H   0  0  0  0  0  0
  -28.6789  -19.2830   24.8828 H   0  0  0  0  0  0
  -26.0399  -19.7755   22.2142 H   0  0  0  0  0  0
  -26.5234  -21.4093   21.7800 H   0  0  0  0  0  0
  -25.7623  -21.1065   23.3362 H   0  0  0  0  0  0
  -29.3899  -21.7199   24.1741 H   0  0  0  0  0  0
  -27.7619  -22.0899   24.6993 H   0  0  0  0  0  0
  -28.2702  -22.6279   23.1350 H   0  0  0  0  0  0
  -29.0181  -16.0542   22.9384 H   0  0  0  0  0  0
  -30.7425  -16.4587   22.9489 H   0  0  0  0  0  0
  -30.2166  -14.7903   23.0762 H   0  0  0  0  0  0
  -30.9963  -17.0881   19.8703 H   0  0  0  0  0  0
  -29.3269  -16.8144   19.5373 H   0  0  0  0  0  0
  -29.4918  -22.8070   19.2131 H   0  0  0  0  0  0
  -28.0818  -22.1726   19.9834 H   0  0  0  0  0  0
  -27.5305  -24.1696   20.9570 H   0  0  0  0  0  0
  -29.1309  -24.4275   21.5672 H   0  0  0  0  0  0
  -30.0937  -22.3552   22.0714 H   0  0  0  0  0  0
  -30.9409  -21.9104   20.6749 H   0  0  0  0  0  0
  -29.8750  -25.4528   19.5936 H   0  0  0  0  0  0
  1 25  1  0  0  0
  1 30  2  0  0  0
  1 87  1  0  0  0
  2  3  1  0  0  0
  2 25  1  0  0  0
  2 88  1  0  0  0
  2 89  1  0  0  0
  3  4  1  0  0  0
  3 90  1  0  0  0
  3 91  1  0  0  0
  4  5  1  0  0  0
  4 92  1  0  0  0
  4 93  1  0  0  0
  5  6  1  0  0  0
  5 26  1  0  0  0
  5 94  1  0  0  0
  6 25  1  0  0  0
  6 95  1  0  0  0
  6 96  1  0  0  0
  7  8  2  0  0  0
  7 26  1  0  0  0
  7 29  1  0  0  0
  8  9  1  0  0  0
  8 22  1  0  0  0
  9 10  1  0  0  0
  9 27  2  0  0  0
 10 11  2  0  0  0
 10 15  1  0  0  0
 11 12  1  0  0  0
 11 97  1  0  0  0
 12 13  2  0  0  0
 12 98  1  0  0  0
 13 14  1  0  0  0
 13 31  1  0  0  0
 14 15  2  0  0  0
 14 99  1  0  0  0
 15100  1  0  0  0
 16 17  2  0  0  0
 16 21  1  0  0  0
 16 31  1  0  0  0
 17 18  1  0  0  0
 17101  1  0  0  0
 18 19  2  0  0  0
 18102  1  0  0  0
 19 20  1  0  0  0
 19 24  1  0  0  0
 20 21  2  0  0  0
 20103  1  0  0  0
 21 23  1  0  0  0
 22 28  1  0  0  0
 22 32  2  0  0  0
 26 27  1  0  0  0
 28104  1  0  0  0
 28105  1  0  0  0
 29106  1  0  0  0
 29107  1  0  0  0
 33 34  1  0  0  0
 33 66  1  0  0  0
 33 70  2  0  0  0
 34 36  1  0  0  0
 34 59  1  0  0  0
 34108  1  0  0  0
 35 44  2  0  0  0
 35 45  1  0  0  0
 35 68  1  0  0  0
 36 56  1  0  0  0
 36109  1  0  0  0
 37 39  1  0  0  0
 37 47  1  0  0  0
 37 66  1  0  0  0
 37110  1  0  0  0
 38 43  2  0  0  0
 38 46  1  0  0  0
 38 47  1  0  0  0
 39 64  1  0  0  0
 39 67  2  0  0  0
 40 52  1  0  0  0
 40 53  2  0  0  0
 40 58  1  0  0  0
 41111  1  0  0  0
 41112  1  0  0  0
 41113  1  0  0  0
 41 48  1  0  0  0
 42 43  1  0  0  0
 42 66  1  0  0  0
 42114  1  0  0  0
 42115  1  0  0  0
 43 44  1  0  0  0
 44116  1  0  0  0
 45 46  2  0  0  0
 45117  1  0  0  0
 46118  1  0  0  0
 47119  1  0  0  0
 47120  1  0  0  0
 48 56  1  0  0  0
 48 65  1  0  0  0
 48121  1  0  0  0
 49 50  1  0  0  0
 49 53  1  0  0  0
 49 64  1  0  0  0
 49122  1  0  0  0
 50 51  1  0  0  0
 50123  1  0  0  0
 50124  1  0  0  0
 51 52  1  0  0  0
 51125  1  0  0  0
 51126  1  0  0  0
 52127  1  0  0  0
 52128  1  0  0  0
 53 54  1  0  0  0
 54 55  2  0  0  0
 54129  1  0  0  0
 55 57  1  0  0  0
 55130  1  0  0  0
 56 69  2  0  0  0
 57 58  2  0  0  0
 57131  1  0  0  0
 58132  1  0  0  0
 59 60  1  0  0  0
 59 61  1  0  0  0
 59 62  1  0  0  0
 60133  1  0  0  0
 60134  1  0  0  0
 60135  1  0  0  0
 61136  1  0  0  0
 61137  1  0  0  0
 61138  1  0  0  0
 62139  1  0  0  0
 62140  1  0  0  0
 62141  1  0  0  0
 63 65  1  0  0  0
 63142  1  0  0  0
 63143  1  0  0  0
 63144  1  0  0  0
 64145  1  0  0  0
 65146  1  0  0  0
 68 82  1  0  0  0
 71 78  1  0  0  0
 71 84  1  0  0  0
 71 85  2  0  0  0
 72 83  1  0  0  0
 72 84  2  0  0  0
 72 86  1  0  0  0
 73147  1  0  0  0
 73148  1  0  0  0
 73149  1  0  0  0
 73 82  1  0  0  0
 74150  1  0  0  0
 74151  1  0  0  0
 74152  1  0  0  0
 74 83  1  0  0  0
 75 83  1  0  0  0
 75153  1  0  0  0
 75154  1  0  0  0
 75155  1  0  0  0
 76 83  1  0  0  0
 76156  1  0  0  0
 76157  1  0  0  0
 76158  1  0  0  0
 77 87  1  0  0  0
 77159  1  0  0  0
 77160  1  0  0  0
 77161  1  0  0  0
 78 87  1  0  0  0
 78162  1  0  0  0
 78163  1  0  0  0
 79 80  1  0  0  0
 79 81  1  0  0  0
 79164  1  0  0  0
 79165  1  0  0  0
 80 82  1  0  0  0
 80166  1  0  0  0
 80167  1  0  0  0
 81 86  1  0  0  0
 81168  1  0  0  0
 81169  1  0  0  0
 82170  1  0  0  0
 85 86  1  0  0  0
M  ISO  4   1 100  68 101  82 101  87 100
M  END
> <chiral flag>
0

> <version>
0

> <s_m_source_file>
/data/baiqing/PycharmProjects/Reinvent-master-3.2/result/LINK_invent/BTK/process_docking_weight1_custom_sum_contain_oxygen_bond_distance_aromatic_linkinvent_7_9_3/rearranged_h_0060.sdf

> <i_m_source_file_index>
23

> <r_mmod_Potential_Energy-OPLS-2005>
111.057136535645

> <r_mmod_Stretch_Energy-OPLS-2005>
66.85888671875

> <r_mmod_Bend_Energy-OPLS-2005>
188.705825805664

> <r_mmod_Torsional_Energy-OPLS-2005>
295.184783935547

> <r_mmod_Improper_Torsional_Energy-OPLS-2005>
7.56195974349976

> <r_mmod_Van_der_Waal_Energy-OPLS-2005>
129.838409423828

> <r_mmod_Electrostatic_Energy-OPLS-2005>
-407.830596923828

> <r_mmod_Solvation_Energy-OPLS-2005>
-195.753280639648

> <b_mmod_Minimization_Converged-OPLS-2005>
0

> <r_mmod_RMS_Derivative-OPLS-2005>
3.91028332710266

$$$$
25
                    3D
 Structure written by MMmdl.
163171  0  0  1  0            999 V2000
  -30.6221  -14.5635   20.5267 C   0  0  0  0  0  0
  -30.4151  -12.3567   19.4311 C   0  0  0  0  0  0
  -29.4789  -12.4983   18.2112 C   0  0  0  0  0  0
  -28.0077  -12.3370   18.6358 C   0  0  0  0  0  0
  -27.6506  -13.1995   19.8731 C   0  0  2  0  0  0
  -28.6893  -13.0250   21.0017 C   0  0  0  0  0  0
  -25.2581  -13.8137   20.5724 C   0  0  0  0  0  0
  -24.1812  -13.0453   20.9226 C   0  0  0  0  0  0
  -24.6322  -11.6901   20.8755 C   0  0  0  0  0  0
  -23.9023  -10.4305   21.0410 C   0  0  0  0  0  0
  -24.3582   -9.4222   21.9194 C   0  0  0  0  0  0
  -23.6279   -8.2236   22.0768 C   0  0  0  0  0  0
  -22.4260   -8.0266   21.3549 C   0  0  0  0  0  0
  -21.9882   -9.0245   20.4643 C   0  0  0  0  0  0
  -22.7195  -10.2147   20.3071 C   0  0  0  0  0  0
  -21.6851   -6.0732   22.5287 C   0  0  0  0  0  0
  -21.3995   -6.5629   23.8219 C   0  0  0  0  0  0
  -21.3674   -5.6786   24.9184 C   0  0  0  0  0  0
  -21.6051   -4.3050   24.7228 C   0  0  0  0  0  0
  -21.8819   -3.8141   23.4345 C   0  0  0  0  0  0
  -21.9186   -4.6962   22.3398 C   0  0  0  0  0  0
  -22.7856  -13.5290   21.1879 C   0  0  0  0  0  0
  -22.1672   -4.2130   21.0978 F   0  0  0  0  0  0
  -21.5654   -3.4545   25.7749 F   0  0  0  0  0  0
  -30.0040  -13.3546   20.4349 N   0  0  0  0  0  0
  -26.2959  -12.9281   20.3356 N   0  0  0  0  0  0
  -25.9236  -11.6449   20.5777 N   0  0  0  0  0  0
  -22.0472  -12.8261   22.0407 N   0  0  0  0  0  0
  -25.4466  -15.1824   20.4136 N   0  0  0  0  0  0
  -31.7823  -14.7287   20.1329 O   0  0  0  0  0  0
  -21.6641   -6.8848   21.4243 O   0  0  0  0  0  0
  -22.3568  -14.5608   20.6716 O   0  0  0  0  0  0
  -24.6233  -31.8605   23.1979 C   0  0  0  0  0  0
  -25.9078  -32.4763   23.8358 C   0  0  1  0  0  0
  -27.2166  -27.3727   20.1497 C   0  0  0  0  0  0
  -25.5895  -33.8573   24.2247 N   0  0  0  0  0  0
  -23.4158  -30.4835   21.5364 C   0  0  2  0  0  0
  -24.8643  -28.9430   20.1110 C   0  0  0  0  0  0
  -22.7416  -29.4690   22.4924 C   0  0  0  0  0  0
  -18.0333  -28.1385   22.8363 C   0  0  0  0  0  0
  -24.1478  -36.7290   23.2627 C   0  0  0  0  0  0
  -25.9515  -30.8174   21.3613 C   0  0  0  0  0  0
  -26.0263  -29.4445   20.7154 C   0  0  0  0  0  0
  -27.2086  -28.6634   20.7328 C   0  0  0  0  0  0
  -26.0527  -26.9031   19.5139 C   0  0  0  0  0  0
  -24.8751  -27.6737   19.5043 C   0  0  0  0  0  0
  -23.6281  -29.8118   20.1542 C   0  0  0  0  0  0
  -25.4127  -36.3077   24.0307 C   0  0  1  0  0  0
  -20.5912  -28.3538   23.1221 C   0  0  2  0  0  0
  -20.6843  -26.9404   22.5005 C   0  0  0  0  0  0
  -19.5676  -26.6240   21.5030 C   0  0  0  0  0  0
  -18.1896  -26.7948   22.1430 C   0  0  0  0  0  0
  -19.1589  -28.8720   23.2854 C   0  0  0  0  0  0
  -18.9530  -30.1347   23.8950 C   0  0  0  0  0  0
  -17.6504  -30.6565   24.0509 C   0  0  0  0  0  0
  -25.9100  -34.9439   23.5097 C   0  0  0  0  0  0
  -16.5442  -29.9164   23.6113 C   0  0  0  0  0  0
  -16.7363  -28.6605   23.0097 C   0  0  0  0  0  0
  -26.4476  -31.6609   25.0736 C   0  0  0  0  0  0
  -25.3709  -31.3750   26.1452 C   0  0  0  0  0  0
  -27.0329  -30.3051   24.6179 C   0  0  0  0  0  0
  -27.6026  -32.4340   25.7526 C   0  0  0  0  0  0
  -27.5581  -37.1804   24.8466 C   0  0  0  0  0  0
  -21.4172  -29.3011   22.3686 N   0  0  0  0  0  0
  -26.4293  -37.3776   23.9409 N   0  0  0  0  0  0
  -24.6805  -31.0709   22.0880 N   0  0  0  0  0  0
  -23.4166  -28.8288   23.3036 O   0  0  0  0  0  0
  -28.3199  -26.5446   20.1981 O   0  0  0  0  0  0
  -26.5625  -34.8932   22.4641 O   0  0  0  0  0  0
  -23.5410  -32.1356   23.7352 O   0  0  0  0  0  0
  -29.6564  -18.8943   22.3206 C   0  0  0  0  0  0
  -29.3111  -18.2080   21.1501 C   0  0  0  0  0  0
  -28.2747  -18.8195   20.3904 C   0  0  0  0  0  0
  -28.0749  -20.5358   21.9579 C   0  0  0  0  0  0
  -25.8990  -21.9167   21.9763 C   0  0  0  0  0  0
  -27.1500  -21.5927   24.0316 C   0  0  0  0  0  0
  -30.2138  -17.0420   20.6555 C   0  0  0  0  0  0
  -27.8988  -24.1191   21.0606 C   0  0  0  0  0  0
  -28.1288  -23.1825   22.3116 C   0  0  0  0  0  0
  -28.3403  -25.6086   21.3128 C   0  0  0  0  0  0
  -27.8167  -18.2738   19.0258 C   0  0  0  0  0  0
  -27.3464  -21.8122   22.5055 C   0  0  0  0  0  0
  -29.0639  -20.0424   22.6990 N   0  0  0  0  0  0
  -27.6857  -19.9825   20.8138 N   0  0  0  0  0  0
  -29.8289  -15.6209   20.8628 N   0  0  0  0  0  0
  -27.7749  -16.9382   19.0242 F   0  0  0  0  0  0
  -26.6020  -18.7210   18.7152 F   0  0  0  0  0  0
  -28.6562  -18.6666   18.0687 F   0  0  0  0  0  0
  -31.4544  -12.4722   19.1207 H   0  0  0  0  0  0
  -30.3510  -11.3552   19.8555 H   0  0  0  0  0  0
  -29.7254  -11.7446   17.4631 H   0  0  0  0  0  0
  -29.6272  -13.4702   17.7282 H   0  0  0  0  0  0
  -27.8344  -11.2797   18.8494 H   0  0  0  0  0  0
  -27.3455  -12.5828   17.8050 H   0  0  0  0  0  0
  -27.6880  -14.2386   19.5474 H   0  0  0  0  0  0
  -28.6945  -11.9962   21.3706 H   0  0  0  0  0  0
  -28.4391  -13.6533   21.8573 H   0  0  0  0  0  0
  -25.2717   -9.5711   22.4795 H   0  0  0  0  0  0
  -23.9995   -7.4626   22.7470 H   0  0  0  0  0  0
  -21.0822   -8.8733   19.8930 H   0  0  0  0  0  0
  -22.3622  -10.9690   19.6200 H   0  0  0  0  0  0
  -21.1970   -7.6131   23.9706 H   0  0  0  0  0  0
  -21.1511   -6.0523   25.9080 H   0  0  0  0  0  0
  -22.0573   -2.7595   23.2857 H   0  0  0  0  0  0
  -22.4075  -11.9908   22.4758 H   0  0  0  0  0  0
  -21.1117  -13.1331   22.2665 H   0  0  0  0  0  0
  -24.6932  -15.8505   20.5248 H   0  0  0  0  0  0
  -26.2846  -15.5830   20.0128 H   0  0  0  0  0  0
  -26.7152  -32.5472   23.1134 H   0  0  0  0  0  0
  -25.0052  -33.9695   25.0406 H   0  0  0  0  0  0
  -22.7065  -31.2975   21.3796 H   0  0  0  0  0  0
  -23.3731  -35.9632   23.3316 H   0  0  0  0  0  0
  -24.3539  -36.8903   22.2032 H   0  0  0  0  0  0
  -23.7245  -37.6507   23.6659 H   0  0  0  0  0  0
  -26.0788  -31.5820   20.5914 H   0  0  0  0  0  0
  -26.8327  -30.8644   21.9926 H   0  0  0  0  0  0
  -28.1004  -29.0306   21.2217 H   0  0  0  0  0  0
  -26.0516  -25.9195   19.0621 H   0  0  0  0  0  0
  -23.9835  -27.2789   19.0327 H   0  0  0  0  0  0
  -23.7275  -30.5798   19.3821 H   0  0  0  0  0  0
  -22.7567  -29.2230   19.8622 H   0  0  0  0  0  0
  -25.1312  -36.1926   25.0794 H   0  0  0  0  0  0
  -21.0033  -28.2925   24.1306 H   0  0  0  0  0  0
  -20.6296  -26.1989   23.3009 H   0  0  0  0  0  0
  -21.6534  -26.7796   22.0262 H   0  0  0  0  0  0
  -19.6598  -27.2751   20.6291 H   0  0  0  0  0  0
  -19.6667  -25.6009   21.1499 H   0  0  0  0  0  0
  -17.4271  -26.6835   21.3731 H   0  0  0  0  0  0
  -18.0077  -26.0012   22.8671 H   0  0  0  0  0  0
  -19.8005  -30.7093   24.2465 H   0  0  0  0  0  0
  -17.5106  -31.6203   24.5103 H   0  0  0  0  0  0
  -15.5446  -30.3137   23.7330 H   0  0  0  0  0  0
  -15.8717  -28.1139   22.6656 H   0  0  0  0  0  0
  -24.5860  -30.7104   25.7794 H   0  0  0  0  0  0
  -24.8943  -32.2947   26.4888 H   0  0  0  0  0  0
  -25.8045  -30.8933   27.0232 H   0  0  0  0  0  0
  -26.2958  -29.6797   24.1129 H   0  0  0  0  0  0
  -27.3970  -29.7270   25.4682 H   0  0  0  0  0  0
  -27.8824  -30.4326   23.9453 H   0  0  0  0  0  0
  -27.2601  -33.3609   26.2151 H   0  0  0  0  0  0
  -28.3856  -32.6960   25.0383 H   0  0  0  0  0  0
  -28.0690  -31.8449   26.5441 H   0  0  0  0  0  0
  -28.2623  -38.0070   24.7505 H   0  0  0  0  0  0
  -28.1035  -36.2616   24.6316 H   0  0  0  0  0  0
  -27.2283  -37.1492   25.8852 H   0  0  0  0  0  0
  -20.9329  -29.8396   21.6624 H   0  0  0  0  0  0
  -26.0169  -38.2852   24.1398 H   0  0  0  0  0  0
  -30.4595  -18.5564   22.9589 H   0  0  0  0  0  0
  -25.8590  -21.9802   20.8896 H   0  0  0  0  0  0
  -25.4038  -22.7967   22.3819 H   0  0  0  0  0  0
  -25.2991  -21.0558   22.2708 H   0  0  0  0  0  0
  -26.6210  -20.6541   24.2175 H   0  0  0  0  0  0
  -26.5832  -22.3890   24.5143 H   0  0  0  0  0  0
  -28.1059  -21.5343   24.5573 H   0  0  0  0  0  0
  -31.1860  -17.1746   21.1387 H   0  0  0  0  0  0
  -30.4056  -17.1945   19.5891 H   0  0  0  0  0  0
  -28.4428  -23.7123   20.2088 H   0  0  0  0  0  0
  -26.8461  -24.1256   20.7777 H   0  0  0  0  0  0
  -27.8349  -23.8120   23.1540 H   0  0  0  0  0  0
  -29.1950  -23.0073   22.4549 H   0  0  0  0  0  0
  -29.3671  -25.5955   21.6837 H   0  0  0  0  0  0
  -27.7485  -26.0168   22.1351 H   0  0  0  0  0  0
  -28.8785  -15.4063   21.1366 H   0  0  0  0  0  0
  1 25  1  0  0  0
  1 30  2  0  0  0
  1 85  1  0  0  0
  2  3  1  0  0  0
  2 25  1  0  0  0
  2 89  1  0  0  0
  2 90  1  0  0  0
  3  4  1  0  0  0
  3 91  1  0  0  0
  3 92  1  0  0  0
  4  5  1  0  0  0
  4 93  1  0  0  0
  4 94  1  0  0  0
  5  6  1  0  0  0
  5 26  1  0  0  0
  5 95  1  0  0  0
  6 25  1  0  0  0
  6 96  1  0  0  0
  6 97  1  0  0  0
  7  8  2  0  0  0
  7 26  1  0  0  0
  7 29  1  0  0  0
  8  9  1  0  0  0
  8 22  1  0  0  0
  9 10  1  0  0  0
  9 27  2  0  0  0
 10 11  2  0  0  0
 10 15  1  0  0  0
 11 12  1  0  0  0
 11 98  1  0  0  0
 12 13  2  0  0  0
 12 99  1  0  0  0
 13 14  1  0  0  0
 13 31  1  0  0  0
 14 15  2  0  0  0
 14100  1  0  0  0
 15101  1  0  0  0
 16 17  2  0  0  0
 16 21  1  0  0  0
 16 31  1  0  0  0
 17 18  1  0  0  0
 17102  1  0  0  0
 18 19  2  0  0  0
 18103  1  0  0  0
 19 20  1  0  0  0
 19 24  1  0  0  0
 20 21  2  0  0  0
 20104  1  0  0  0
 21 23  1  0  0  0
 22 28  1  0  0  0
 22 32  2  0  0  0
 26 27  1  0  0  0
 28105  1  0  0  0
 28106  1  0  0  0
 29107  1  0  0  0
 29108  1  0  0  0
 33 34  1  0  0  0
 33 66  1  0  0  0
 33 70  2  0  0  0
 34 36  1  0  0  0
 34 59  1  0  0  0
 34109  1  0  0  0
 35 44  2  0  0  0
 35 45  1  0  0  0
 35 68  1  0  0  0
 36 56  1  0  0  0
 36110  1  0  0  0
 37 39  1  0  0  0
 37 47  1  0  0  0
 37 66  1  0  0  0
 37111  1  0  0  0
 38 43  2  0  0  0
 38 46  1  0  0  0
 38 47  1  0  0  0
 39 64  1  0  0  0
 39 67  2  0  0  0
 40 52  1  0  0  0
 40 53  2  0  0  0
 40 58  1  0  0  0
 41112  1  0  0  0
 41113  1  0  0  0
 41114  1  0  0  0
 41 48  1  0  0  0
 42 43  1  0  0  0
 42 66  1  0  0  0
 42115  1  0  0  0
 42116  1  0  0  0
 43 44  1  0  0  0
 44117  1  0  0  0
 45 46  2  0  0  0
 45118  1  0  0  0
 46119  1  0  0  0
 47120  1  0  0  0
 47121  1  0  0  0
 48 56  1  0  0  0
 48 65  1  0  0  0
 48122  1  0  0  0
 49 50  1  0  0  0
 49 53  1  0  0  0
 49 64  1  0  0  0
 49123  1  0  0  0
 50 51  1  0  0  0
 50124  1  0  0  0
 50125  1  0  0  0
 51 52  1  0  0  0
 51126  1  0  0  0
 51127  1  0  0  0
 52128  1  0  0  0
 52129  1  0  0  0
 53 54  1  0  0  0
 54 55  2  0  0  0
 54130  1  0  0  0
 55 57  1  0  0  0
 55131  1  0  0  0
 56 69  2  0  0  0
 57 58  2  0  0  0
 57132  1  0  0  0
 58133  1  0  0  0
 59 60  1  0  0  0
 59 61  1  0  0  0
 59 62  1  0  0  0
 60134  1  0  0  0
 60135  1  0  0  0
 60136  1  0  0  0
 61137  1  0  0  0
 61138  1  0  0  0
 61139  1  0  0  0
 62140  1  0  0  0
 62141  1  0  0  0
 62142  1  0  0  0
 63 65  1  0  0  0
 63143  1  0  0  0
 63144  1  0  0  0
 63145  1  0  0  0
 64146  1  0  0  0
 65147  1  0  0  0
 68 80  1  0  0  0
 71 72  2  0  0  0
 71 83  1  0  0  0
 71148  1  0  0  0
 72 73  1  0  0  0
 72 77  1  0  0  0
 73 81  1  0  0  0
 73 84  2  0  0  0
 74 82  1  0  0  0
 74 83  2  0  0  0
 74 84  1  0  0  0
 75149  1  0  0  0
 75150  1  0  0  0
 75151  1  0  0  0
 75 82  1  0  0  0
 76 82  1  0  0  0
 76152  1  0  0  0
 76153  1  0  0  0
 76154  1  0  0  0
 77 85  1  0  0  0
 77155  1  0  0  0
 77156  1  0  0  0
 78 79  1  0  0  0
 78 80  1  0  0  0
 78157  1  0  0  0
 78158  1  0  0  0
 79 82  1  0  0  0
 79159  1  0  0  0
 79160  1  0  0  0
 80161  1  0  0  0
 80162  1  0  0  0
 81 86  1  0  0  0
 81 87  1  0  0  0
 81 88  1  0  0  0
 85163  1  0  0  0
M  ISO  4   1 100  68 101  80 101  85 100
M  END
> <chiral flag>
0

> <version>
0

> <s_m_source_file>
/data/baiqing/PycharmProjects/Reinvent-master-3.2/result/LINK_invent/BTK/process_docking_weight1_custom_sum_contain_oxygen_bond_distance_aromatic_linkinvent_7_9_3/rearranged_h_0060.sdf

> <i_m_source_file_index>
24

> <r_mmod_Potential_Energy-OPLS-2005>
-245.507919311523

> <r_mmod_Stretch_Energy-OPLS-2005>
58.817081451416

> <r_mmod_Bend_Energy-OPLS-2005>
134.878890991211

> <r_mmod_Torsional_Energy-OPLS-2005>
244.129211425781

> <r_mmod_Improper_Torsional_Energy-OPLS-2005>
7.12221670150757

> <r_mmod_Van_der_Waal_Energy-OPLS-2005>
155.515075683594

> <r_mmod_Electrostatic_Energy-OPLS-2005>
-673.580932617188

> <r_mmod_Solvation_Energy-OPLS-2005>
-205.346160888672

> <b_mmod_Minimization_Converged-OPLS-2005>
0

> <r_mmod_RMS_Derivative-OPLS-2005>
9.26644611358643

$$$$
26
                    3D
 Structure written by MMmdl.
153161  0  0  1  0            999 V2000
  -30.6055  -14.7704   20.3695 C   0  0  0  0  0  0
  -30.4452  -12.4402   19.4743 C   0  0  0  0  0  0
  -29.5176  -12.3764   18.2392 C   0  0  0  0  0  0
  -28.0305  -12.2850   18.6509 C   0  0  0  0  0  0
  -27.6325  -13.2103   19.8352 C   0  0  2  0  0  0
  -28.6900  -13.2040   20.9577 C   0  0  0  0  0  0
  -25.2531  -13.8136   20.5730 C   0  0  0  0  0  0
  -24.1792  -13.0418   20.9221 C   0  0  0  0  0  0
  -24.6356  -11.6889   20.8780 C   0  0  0  0  0  0
  -23.9031  -10.4281   21.0430 C   0  0  0  0  0  0
  -24.3595   -9.4197   21.9198 C   0  0  0  0  0  0
  -23.6280   -8.2229   22.0756 C   0  0  0  0  0  0
  -22.4264   -8.0271   21.3543 C   0  0  0  0  0  0
  -21.9892   -9.0244   20.4648 C   0  0  0  0  0  0
  -22.7212  -10.2127   20.3069 C   0  0  0  0  0  0
  -21.6849   -6.0729   22.5277 C   0  0  0  0  0  0
  -21.4010   -6.5636   23.8209 C   0  0  0  0  0  0
  -21.3656   -5.6790   24.9172 C   0  0  0  0  0  0
  -21.6045   -4.3052   24.7224 C   0  0  0  0  0  0
  -21.8821   -3.8145   23.4347 C   0  0  0  0  0  0
  -21.9192   -4.6959   22.3402 C   0  0  0  0  0  0
  -22.7822  -13.5228   21.1866 C   0  0  0  0  0  0
  -22.1664   -4.2147   21.0979 F   0  0  0  0  0  0
  -21.5629   -3.4536   25.7737 F   0  0  0  0  0  0
  -29.9787  -13.5421   20.3417 N   0  0  0  0  0  0
  -26.2912  -12.9281   20.3303 N   0  0  0  0  0  0
  -25.9278  -11.6458   20.5817 N   0  0  0  0  0  0
  -22.0460  -12.8229   22.0423 N   0  0  0  0  0  0
  -25.4280  -15.1859   20.4171 N   0  0  0  0  0  0
  -31.8337  -14.8354   20.2701 O   0  0  0  0  0  0
  -21.6633   -6.8868   21.4237 O   0  0  0  0  0  0
  -22.3522  -14.5537   20.6708 O   0  0  0  0  0  0
  -24.6302  -31.8569   23.1996 C   0  0  0  0  0  0
  -25.9133  -32.4762   23.8337 C   0  0  1  0  0  0
  -27.2218  -27.2787   20.1310 C   0  0  0  0  0  0
  -25.5935  -33.8564   24.2263 N   0  0  0  0  0  0
  -23.4256  -30.4803   21.5430 C   0  0  2  0  0  0
  -24.8722  -28.9295   20.1133 C   0  0  0  0  0  0
  -22.7497  -29.4614   22.4921 C   0  0  0  0  0  0
  -18.0292  -28.1386   22.8486 C   0  0  0  0  0  0
  -24.1490  -36.7287   23.2640 C   0  0  0  0  0  0
  -25.9703  -30.7770   21.3758 C   0  0  0  0  0  0
  -26.0439  -29.4010   20.7183 C   0  0  0  0  0  0
  -27.2223  -28.5896   20.7124 C   0  0  0  0  0  0
  -26.0239  -26.8705   19.4999 C   0  0  0  0  0  0
  -24.8667  -27.6721   19.4930 C   0  0  0  0  0  0
  -23.6427  -29.8150   20.1591 C   0  0  0  0  0  0
  -25.4116  -36.3074   24.0327 C   0  0  1  0  0  0
  -20.5895  -28.3697   23.1272 C   0  0  2  0  0  0
  -20.6782  -26.9417   22.5408 C   0  0  0  0  0  0
  -19.5756  -26.6383   21.5214 C   0  0  0  0  0  0
  -18.1936  -26.7927   22.1626 C   0  0  0  0  0  0
  -19.1545  -28.8858   23.2874 C   0  0  0  0  0  0
  -18.9467  -30.1459   23.8890 C   0  0  0  0  0  0
  -17.6466  -30.6587   24.0562 C   0  0  0  0  0  0
  -25.9056  -34.9444   23.5095 C   0  0  0  0  0  0
  -16.5357  -29.9083   23.6331 C   0  0  0  0  0  0
  -16.7280  -28.6502   23.0351 C   0  0  0  0  0  0
  -26.4503  -31.6582   25.0721 C   0  0  0  0  0  0
  -25.3730  -31.3728   26.1444 C   0  0  0  0  0  0
  -27.0355  -30.3002   24.6200 C   0  0  0  0  0  0
  -27.6054  -32.4324   25.7500 C   0  0  0  0  0  0
  -27.5578  -37.1801   24.8465 C   0  0  0  0  0  0
  -21.4206  -29.3048   22.3664 N   0  0  0  0  0  0
  -26.4290  -37.3773   23.9408 N   0  0  0  0  0  0
  -24.6944  -31.0555   22.0961 N   0  0  0  0  0  0
  -23.4204  -28.8156   23.3018 O   0  0  0  0  0  0
  -28.3309  -26.4054   20.1780 O   0  0  0  0  0  0
  -26.5628  -34.8918   22.4665 O   0  0  0  0  0  0
  -23.5456  -32.1381   23.7303 O   0  0  0  0  0  0
  -28.6673  -21.8464   21.7280 C   0  0  0  0  0  0
  -29.2752  -20.0868   20.5471 C   0  0  0  0  0  0
  -29.5358  -21.2895   19.8710 C   0  0  0  0  0  0
  -29.2837  -16.0317   18.7977 C   0  0  0  0  0  0
  -29.2710  -18.5926   20.0460 C   0  0  0  0  0  0
  -29.3413  -23.9171   20.3288 C   0  0  0  0  0  0
  -30.0564  -17.3360   20.7297 C   0  0  0  0  0  0
  -28.0949  -24.9242   20.2441 C   0  0  0  0  0  0
  -28.6943  -20.4963   21.7562 N   0  0  0  0  0  0
  -29.1465  -22.4338   20.6135 N   0  0  0  0  0  0
  -29.8294  -15.9191   20.1611 N   0  0  0  0  0  0
  -30.0645  -21.3735   18.6264 F   0  0  0  0  0  0
  -31.4806  -12.5791   19.1582 H   0  0  0  0  0  0
  -30.4203  -11.4966   20.0214 H   0  0  0  0  0  0
  -29.7741  -11.4974   17.6459 H   0  0  0  0  0  0
  -29.6957  -13.2122   17.5680 H   0  0  0  0  0  0
  -27.8521  -11.2467   18.9328 H   0  0  0  0  0  0
  -27.3873  -12.4736   17.7906 H   0  0  0  0  0  0
  -27.5827  -14.2125   19.4264 H   0  0  0  0  0  0
  -28.7381  -12.2312   21.4490 H   0  0  0  0  0  0
  -28.4324  -13.9334   21.7280 H   0  0  0  0  0  0
  -25.2740   -9.5677   22.4772 H   0  0  0  0  0  0
  -23.9997   -7.4615   22.7464 H   0  0  0  0  0  0
  -21.0829   -8.8761   19.8947 H   0  0  0  0  0  0
  -22.3674  -10.9672   19.6183 H   0  0  0  0  0  0
  -21.2005   -7.6144   23.9711 H   0  0  0  0  0  0
  -21.1476   -6.0520   25.9074 H   0  0  0  0  0  0
  -22.0604   -2.7607   23.2845 H   0  0  0  0  0  0
  -22.4075  -11.9890   22.4812 H   0  0  0  0  0  0
  -21.1078  -13.1258   22.2625 H   0  0  0  0  0  0
  -24.6702  -15.8481   20.5423 H   0  0  0  0  0  0
  -26.2976  -15.6242   20.1411 H   0  0  0  0  0  0
  -26.7205  -32.5420   23.1085 H   0  0  0  0  0  0
  -25.0082  -33.9702   25.0407 H   0  0  0  0  0  0
  -22.7216  -31.3024   21.3979 H   0  0  0  0  0  0
  -23.3750  -35.9621   23.3301 H   0  0  0  0  0  0
  -24.3581  -36.8911   22.2055 H   0  0  0  0  0  0
  -23.7244  -37.6489   23.6665 H   0  0  0  0  0  0
  -26.1070  -31.5393   20.6076 H   0  0  0  0  0  0
  -26.8485  -30.8251   22.0080 H   0  0  0  0  0  0
  -28.1209  -28.9477   21.1952 H   0  0  0  0  0  0
  -25.9481  -25.9151   19.0060 H   0  0  0  0  0  0
  -23.9697  -27.3063   19.0124 H   0  0  0  0  0  0
  -23.7679  -30.5910   19.4031 H   0  0  0  0  0  0
  -22.7613  -29.2485   19.8537 H   0  0  0  0  0  0
  -25.1298  -36.1921   25.0819 H   0  0  0  0  0  0
  -20.9988  -28.3274   24.1392 H   0  0  0  0  0  0
  -20.5684  -26.2310   23.3613 H   0  0  0  0  0  0
  -21.6650  -26.7444   22.1201 H   0  0  0  0  0  0
  -19.6917  -25.6293   21.1248 H   0  0  0  0  0  0
  -19.6686  -27.3190   20.6741 H   0  0  0  0  0  0
  -17.4206  -26.6675   21.4029 H   0  0  0  0  0  0
  -18.0335  -26.0068   22.9022 H   0  0  0  0  0  0
  -19.7944  -30.7279   24.2253 H   0  0  0  0  0  0
  -17.5021  -31.6265   24.5168 H   0  0  0  0  0  0
  -15.5358  -30.2983   23.7656 H   0  0  0  0  0  0
  -15.8682  -28.0819   22.7065 H   0  0  0  0  0  0
  -24.5901  -30.7081   25.7772 H   0  0  0  0  0  0
  -24.8927  -32.2898   26.4870 H   0  0  0  0  0  0
  -25.8050  -30.8903   27.0222 H   0  0  0  0  0  0
  -26.2939  -29.6745   24.1220 H   0  0  0  0  0  0
  -27.4040  -29.7268   25.4716 H   0  0  0  0  0  0
  -27.8814  -30.4282   23.9441 H   0  0  0  0  0  0
  -27.2655  -33.3623   26.2072 H   0  0  0  0  0  0
  -28.3871  -32.6887   25.0335 H   0  0  0  0  0  0
  -28.0718  -31.8454   26.5423 H   0  0  0  0  0  0
  -28.2597  -38.0098   24.7511 H   0  0  0  0  0  0
  -28.1074  -36.2629   24.6291 H   0  0  0  0  0  0
  -27.2299  -37.1450   25.8870 H   0  0  0  0  0  0
  -20.9390  -29.8771   21.6869 H   0  0  0  0  0  0
  -26.0168  -38.2847   24.1403 H   0  0  0  0  0  0
  -28.2952  -22.4283   22.5600 H   0  0  0  0  0  0
  -28.2740  -16.4398   18.7981 H   0  0  0  0  0  0
  -29.2182  -15.0932   18.2643 H   0  0  0  0  0  0
  -29.9231  -16.6560   18.1732 H   0  0  0  0  0  0
  -29.5848  -18.6439   19.0046 H   0  0  0  0  0  0
  -28.2203  -18.3076   20.0010 H   0  0  0  0  0  0
  -30.0105  -24.2868   21.1058 H   0  0  0  0  0  0
  -29.9082  -23.9969   19.4015 H   0  0  0  0  0  0
  -29.7830  -17.2987   21.7844 H   0  0  0  0  0  0
  -31.1272  -17.5419   20.7106 H   0  0  0  0  0  0
  -27.4488  -24.7384   21.1030 H   0  0  0  0  0  0
  -27.5326  -24.6088   19.3672 H   0  0  0  0  0  0
  1 25  1  0  0  0
  1 30  2  0  0  0
  1 81  1  0  0  0
  2  3  1  0  0  0
  2 25  1  0  0  0
  2 83  1  0  0  0
  2 84  1  0  0  0
  3  4  1  0  0  0
  3 85  1  0  0  0
  3 86  1  0  0  0
  4  5  1  0  0  0
  4 87  1  0  0  0
  4 88  1  0  0  0
  5  6  1  0  0  0
  5 26  1  0  0  0
  5 89  1  0  0  0
  6 25  1  0  0  0
  6 90  1  0  0  0
  6 91  1  0  0  0
  7  8  2  0  0  0
  7 26  1  0  0  0
  7 29  1  0  0  0
  8  9  1  0  0  0
  8 22  1  0  0  0
  9 10  1  0  0  0
  9 27  2  0  0  0
 10 11  2  0  0  0
 10 15  1  0  0  0
 11 12  1  0  0  0
 11 92  1  0  0  0
 12 13  2  0  0  0
 12 93  1  0  0  0
 13 14  1  0  0  0
 13 31  1  0  0  0
 14 15  2  0  0  0
 14 94  1  0  0  0
 15 95  1  0  0  0
 16 17  2  0  0  0
 16 21  1  0  0  0
 16 31  1  0  0  0
 17 18  1  0  0  0
 17 96  1  0  0  0
 18 19  2  0  0  0
 18 97  1  0  0  0
 19 20  1  0  0  0
 19 24  1  0  0  0
 20 21  2  0  0  0
 20 98  1  0  0  0
 21 23  1  0  0  0
 22 28  1  0  0  0
 22 32  2  0  0  0
 26 27  1  0  0  0
 28 99  1  0  0  0
 28100  1  0  0  0
 29101  1  0  0  0
 29102  1  0  0  0
 33 34  1  0  0  0
 33 66  1  0  0  0
 33 70  2  0  0  0
 34 36  1  0  0  0
 34 59  1  0  0  0
 34103  1  0  0  0
 35 44  2  0  0  0
 35 45  1  0  0  0
 35 68  1  0  0  0
 36 56  1  0  0  0
 36104  1  0  0  0
 37 39  1  0  0  0
 37 47  1  0  0  0
 37 66  1  0  0  0
 37105  1  0  0  0
 38 43  2  0  0  0
 38 46  1  0  0  0
 38 47  1  0  0  0
 39 64  1  0  0  0
 39 67  2  0  0  0
 40 52  1  0  0  0
 40 53  2  0  0  0
 40 58  1  0  0  0
 41106  1  0  0  0
 41107  1  0  0  0
 41108  1  0  0  0
 41 48  1  0  0  0
 42 43  1  0  0  0
 42 66  1  0  0  0
 42109  1  0  0  0
 42110  1  0  0  0
 43 44  1  0  0  0
 44111  1  0  0  0
 45 46  2  0  0  0
 45112  1  0  0  0
 46113  1  0  0  0
 47114  1  0  0  0
 47115  1  0  0  0
 48 56  1  0  0  0
 48 65  1  0  0  0
 48116  1  0  0  0
 49 50  1  0  0  0
 49 53  1  0  0  0
 49 64  1  0  0  0
 49117  1  0  0  0
 50 51  1  0  0  0
 50118  1  0  0  0
 50119  1  0  0  0
 51 52  1  0  0  0
 51120  1  0  0  0
 51121  1  0  0  0
 52122  1  0  0  0
 52123  1  0  0  0
 53 54  1  0  0  0
 54 55  2  0  0  0
 54124  1  0  0  0
 55 57  1  0  0  0
 55125  1  0  0  0
 56 69  2  0  0  0
 57 58  2  0  0  0
 57126  1  0  0  0
 58127  1  0  0  0
 59 60  1  0  0  0
 59 61  1  0  0  0
 59 62  1  0  0  0
 60128  1  0  0  0
 60129  1  0  0  0
 60130  1  0  0  0
 61131  1  0  0  0
 61132  1  0  0  0
 61133  1  0  0  0
 62134  1  0  0  0
 62135  1  0  0  0
 62136  1  0  0  0
 63 65  1  0  0  0
 63137  1  0  0  0
 63138  1  0  0  0
 63139  1  0  0  0
 64140  1  0  0  0
 65141  1  0  0  0
 68 78  1  0  0  0
 71 79  2  0  0  0
 71 80  1  0  0  0
 71142  1  0  0  0
 72 73  2  0  0  0
 72 75  1  0  0  0
 72 79  1  0  0  0
 73 80  1  0  0  0
 73 82  1  0  0  0
 74 81  1  0  0  0
 74143  1  0  0  0
 74144  1  0  0  0
 74145  1  0  0  0
 75 77  1  0  0  0
 75146  1  0  0  0
 75147  1  0  0  0
 76 78  1  0  0  0
 76 80  1  0  0  0
 76148  1  0  0  0
 76149  1  0  0  0
 77 81  1  0  0  0
 77150  1  0  0  0
 77151  1  0  0  0
 78152  1  0  0  0
 78153  1  0  0  0
M  ISO  4   1 100  68 101  78 101  81 100
M  END
> <chiral flag>
0

> <version>
0

> <s_m_source_file>
/data/baiqing/PycharmProjects/Reinvent-master-3.2/result/LINK_invent/BTK/process_docking_weight1_custom_sum_contain_oxygen_bond_distance_aromatic_linkinvent_7_9_3/rearranged_h_0060.sdf

> <i_m_source_file_index>
25

> <r_mmod_Potential_Energy-OPLS-2005>
337.744049072266

> <r_mmod_Stretch_Energy-OPLS-2005>
116.28687286377

> <r_mmod_Bend_Energy-OPLS-2005>
184.198837280273

> <r_mmod_Torsional_Energy-OPLS-2005>
312.587707519531

> <r_mmod_Improper_Torsional_Energy-OPLS-2005>
13.4782104492188

> <r_mmod_Van_der_Waal_Energy-OPLS-2005>
130.775985717773

> <r_mmod_Electrostatic_Energy-OPLS-2005>
-305.168792724609

> <r_mmod_Solvation_Energy-OPLS-2005>
-212.473983764648

> <b_mmod_Minimization_Converged-OPLS-2005>
0

> <r_mmod_RMS_Derivative-OPLS-2005>
0.489348232746124

$$$$
27
                    3D
 Structure written by MMmdl.
157165  0  0  1  0            999 V2000
  -30.6282  -14.6895   20.4658 C   0  0  0  0  0  0
  -30.4297  -12.4122   19.4682 C   0  0  0  0  0  0
  -29.5020  -12.4707   18.2340 C   0  0  0  0  0  0
  -28.0362  -12.2963   18.6689 C   0  0  0  0  0  0
  -27.6471  -13.2169   19.8568 C   0  0  2  0  0  0
  -28.6914  -13.1434   20.9915 C   0  0  0  0  0  0
  -25.2590  -13.8167   20.5774 C   0  0  0  0  0  0
  -24.1868  -13.0448   20.9268 C   0  0  0  0  0  0
  -24.6426  -11.6910   20.8845 C   0  0  0  0  0  0
  -23.9087  -10.4303   21.0510 C   0  0  0  0  0  0
  -24.3638   -9.4220   21.9283 C   0  0  0  0  0  0
  -23.6295   -8.2259   22.0822 C   0  0  0  0  0  0
  -22.4282   -8.0322   21.3597 C   0  0  0  0  0  0
  -21.9961   -9.0306   20.4688 C   0  0  0  0  0  0
  -22.7300  -10.2175   20.3113 C   0  0  0  0  0  0
  -21.6852   -6.0775   22.5301 C   0  0  0  0  0  0
  -21.4026   -6.5675   23.8248 C   0  0  0  0  0  0
  -21.3624   -5.6837   24.9206 C   0  0  0  0  0  0
  -21.5999   -4.3095   24.7251 C   0  0  0  0  0  0
  -21.8810   -3.8183   23.4374 C   0  0  0  0  0  0
  -21.9208   -4.6990   22.3422 C   0  0  0  0  0  0
  -22.7888  -13.5240   21.1874 C   0  0  0  0  0  0
  -22.1685   -4.2176   21.1007 F   0  0  0  0  0  0
  -21.5573   -3.4578   25.7760 F   0  0  0  0  0  0
  -29.9933  -13.4739   20.3990 N   0  0  0  0  0  0
  -26.2998  -12.9356   20.3362 N   0  0  0  0  0  0
  -25.9357  -11.6515   20.5854 N   0  0  0  0  0  0
  -22.0509  -12.8216   22.0360 N   0  0  0  0  0  0
  -25.4300  -15.1892   20.4175 N   0  0  0  0  0  0
  -31.8187  -14.7894   20.1607 O   0  0  0  0  0  0
  -21.6626   -6.8931   21.4278 O   0  0  0  0  0  0
  -22.3603  -14.5564   20.6732 O   0  0  0  0  0  0
  -24.6293  -31.8574   23.1973 C   0  0  0  0  0  0
  -25.9136  -32.4757   23.8287 C   0  0  1  0  0  0
  -27.2086  -27.2670   20.1154 C   0  0  0  0  0  0
  -25.5952  -33.8557   24.2228 N   0  0  0  0  0  0
  -23.4214  -30.4808   21.5419 C   0  0  2  0  0  0
  -24.8679  -28.9303   20.1064 C   0  0  0  0  0  0
  -22.7469  -29.4626   22.4914 C   0  0  0  0  0  0
  -18.0293  -28.1374   22.8490 C   0  0  0  0  0  0
  -24.1520  -36.7292   23.2622 C   0  0  0  0  0  0
  -25.9682  -30.7728   21.3718 C   0  0  0  0  0  0
  -26.0405  -29.3938   20.7153 C   0  0  0  0  0  0
  -27.2148  -28.5725   20.7107 C   0  0  0  0  0  0
  -26.0133  -26.8768   19.4687 C   0  0  0  0  0  0
  -24.8581  -27.6812   19.4718 C   0  0  0  0  0  0
  -23.6347  -29.8121   20.1590 C   0  0  0  0  0  0
  -25.4133  -36.3059   24.0299 C   0  0  1  0  0  0
  -20.5897  -28.3691   23.1263 C   0  0  2  0  0  0
  -20.6785  -26.9415   22.5380 C   0  0  0  0  0  0
  -19.5759  -26.6394   21.5183 C   0  0  0  0  0  0
  -18.1935  -26.7916   22.1595 C   0  0  0  0  0  0
  -19.1551  -28.8843   23.2879 C   0  0  0  0  0  0
  -18.9466  -30.1444   23.8888 C   0  0  0  0  0  0
  -17.6477  -30.6578   24.0557 C   0  0  0  0  0  0
  -25.9077  -34.9433   23.5062 C   0  0  0  0  0  0
  -16.5362  -29.9080   23.6341 C   0  0  0  0  0  0
  -16.7282  -28.6500   23.0347 C   0  0  0  0  0  0
  -26.4515  -31.6562   25.0654 C   0  0  0  0  0  0
  -25.3721  -31.3652   26.1348 C   0  0  0  0  0  0
  -27.0366  -30.2983   24.6096 C   0  0  0  0  0  0
  -27.6070  -32.4290   25.7447 C   0  0  0  0  0  0
  -27.5584  -37.1783   24.8446 C   0  0  0  0  0  0
  -21.4186  -29.3067   22.3663 N   0  0  0  0  0  0
  -26.4292  -37.3765   23.9401 N   0  0  0  0  0  0
  -24.6925  -31.0534   22.0943 N   0  0  0  0  0  0
  -23.4180  -28.8129   23.2970 O   0  0  0  0  0  0
  -28.2975  -26.3663   20.1866 O   0  0  0  0  0  0
  -26.5652  -34.8907   22.4622 O   0  0  0  0  0  0
  -23.5454  -32.1403   23.7275 O   0  0  0  0  0  0
  -30.0162  -21.2672   20.8335 C   0  0  0  0  0  0
  -28.1419  -18.4758   21.2866 C   0  0  0  0  0  0
  -29.2015  -18.5495   19.0096 C   0  0  0  0  0  0
  -28.8967  -22.1980   20.2679 C   0  0  0  0  0  0
  -29.0853  -23.7968   20.5314 C   0  0  0  0  0  0
  -30.3686  -17.2351   20.8893 C   0  0  0  0  0  0
  -28.0461  -24.8962   19.9902 C   0  0  0  0  0  0
  -29.4855  -18.5642   20.5270 C   0  0  0  0  0  0
  -31.0919  -21.8674   21.3508 N   0  0  0  0  0  0
  -31.9165  -20.8663   21.7745 N   0  0  0  0  0  0
  -31.4036  -19.7110   21.5174 N   0  0  0  0  0  0
  -30.1922  -19.8765   20.9022 N   0  0  0  0  0  0
  -29.8645  -15.8143   20.6985 N   0  0  0  0  0  0
  -31.4774  -12.5110   19.1783 H   0  0  0  0  0  0
  -30.3546  -11.4360   19.9530 H   0  0  0  0  0  0
  -29.7697  -11.6847   17.5283 H   0  0  0  0  0  0
  -29.6321  -13.4173   17.7105 H   0  0  0  0  0  0
  -27.9175  -11.2515   18.9683 H   0  0  0  0  0  0
  -27.3636  -12.4507   17.8243 H   0  0  0  0  0  0
  -27.6493  -14.2348   19.4678 H   0  0  0  0  0  0
  -28.7145  -12.1504   21.4403 H   0  0  0  0  0  0
  -28.4387  -13.8297   21.8024 H   0  0  0  0  0  0
  -25.2818   -9.5626   22.4847 H   0  0  0  0  0  0
  -23.9989   -7.4611   22.7505 H   0  0  0  0  0  0
  -21.0941   -8.8821   19.8926 H   0  0  0  0  0  0
  -22.3854  -10.9713   19.6164 H   0  0  0  0  0  0
  -21.2036   -7.6190   23.9746 H   0  0  0  0  0  0
  -21.1427   -6.0591   25.9099 H   0  0  0  0  0  0
  -22.0601   -2.7639   23.2890 H   0  0  0  0  0  0
  -22.4174  -11.9845   22.4658 H   0  0  0  0  0  0
  -21.1099  -13.1213   22.2489 H   0  0  0  0  0  0
  -24.6594  -15.8379   20.5331 H   0  0  0  0  0  0
  -26.2509  -15.6170   20.0108 H   0  0  0  0  0  0
  -26.7177  -32.5418   23.1018 H   0  0  0  0  0  0
  -25.0086  -33.9704   25.0352 H   0  0  0  0  0  0
  -22.7169  -31.3023   21.3958 H   0  0  0  0  0  0
  -23.3781  -35.9621   23.3244 H   0  0  0  0  0  0
  -24.3614  -36.8994   22.2049 H   0  0  0  0  0  0
  -23.7303  -37.6469   23.6710 H   0  0  0  0  0  0
  -26.0936  -31.5306   20.5964 H   0  0  0  0  0  0
  -26.8504  -30.8331   21.9981 H   0  0  0  0  0  0
  -28.1141  -28.9084   21.2046 H   0  0  0  0  0  0
  -25.9349  -25.9249   18.9627 H   0  0  0  0  0  0
  -23.9604  -27.3272   18.9865 H   0  0  0  0  0  0
  -23.7448  -30.5839   19.3973 H   0  0  0  0  0  0
  -22.7528  -29.2405   19.8649 H   0  0  0  0  0  0
  -25.1334  -36.1867   25.0788 H   0  0  0  0  0  0
  -21.0002  -28.3284   24.1384 H   0  0  0  0  0  0
  -20.5734  -26.2279   23.3571 H   0  0  0  0  0  0
  -21.6642  -26.7487   22.1148 H   0  0  0  0  0  0
  -19.6929  -25.6322   21.1188 H   0  0  0  0  0  0
  -19.6684  -27.3214   20.6717 H   0  0  0  0  0  0
  -17.4209  -26.6696   21.3988 H   0  0  0  0  0  0
  -18.0333  -26.0033   22.8962 H   0  0  0  0  0  0
  -19.7946  -30.7243   24.2260 H   0  0  0  0  0  0
  -17.5037  -31.6255   24.5138 H   0  0  0  0  0  0
  -15.5362  -30.2960   23.7681 H   0  0  0  0  0  0
  -15.8678  -28.0809   22.7058 H   0  0  0  0  0  0
  -24.5967  -30.6947   25.7634 H   0  0  0  0  0  0
  -24.8802  -32.2777   26.4708 H   0  0  0  0  0  0
  -25.8018  -30.8866   27.0158 H   0  0  0  0  0  0
  -26.2919  -29.6693   24.1199 H   0  0  0  0  0  0
  -27.4172  -29.7283   25.4581 H   0  0  0  0  0  0
  -27.8747  -30.4271   23.9242 H   0  0  0  0  0  0
  -27.2716  -33.3651   26.1914 H   0  0  0  0  0  0
  -28.3941  -32.6740   25.0307 H   0  0  0  0  0  0
  -28.0646  -31.8450   26.5445 H   0  0  0  0  0  0
  -28.2545  -38.0143   24.7587 H   0  0  0  0  0  0
  -28.1176  -36.2672   24.6208 H   0  0  0  0  0  0
  -27.2302  -37.1347   25.8851 H   0  0  0  0  0  0
  -20.9332  -29.8806   21.6910 H   0  0  0  0  0  0
  -26.0166  -38.2828   24.1426 H   0  0  0  0  0  0
  -27.6509  -17.5130   21.1431 H   0  0  0  0  0  0
  -27.4359  -19.2389   20.9597 H   0  0  0  0  0  0
  -28.2813  -18.6118   22.3580 H   0  0  0  0  0  0
  -28.5463  -19.3701   18.7158 H   0  0  0  0  0  0
  -28.7177  -17.6211   18.6978 H   0  0  0  0  0  0
  -30.1217  -18.6408   18.4293 H   0  0  0  0  0  0
  -27.9436  -21.8699   20.6794 H   0  0  0  0  0  0
  -28.8372  -22.0189   19.1940 H   0  0  0  0  0  0
  -30.0545  -24.0715   20.1180 H   0  0  0  0  0  0
  -29.1738  -23.9423   21.6092 H   0  0  0  0  0  0
  -30.6295  -17.2884   21.9499 H   0  0  0  0  0  0
  -31.3160  -17.3073   20.3550 H   0  0  0  0  0  0
  -27.0860  -24.6406   20.4408 H   0  0  0  0  0  0
  -27.9241  -24.7274   18.9208 H   0  0  0  0  0  0
  -28.8804  -15.6521   20.8526 H   0  0  0  0  0  0
  1 25  1  0  0  0
  1 30  2  0  0  0
  1 83  1  0  0  0
  2  3  1  0  0  0
  2 25  1  0  0  0
  2 84  1  0  0  0
  2 85  1  0  0  0
  3  4  1  0  0  0
  3 86  1  0  0  0
  3 87  1  0  0  0
  4  5  1  0  0  0
  4 88  1  0  0  0
  4 89  1  0  0  0
  5  6  1  0  0  0
  5 26  1  0  0  0
  5 90  1  0  0  0
  6 25  1  0  0  0
  6 91  1  0  0  0
  6 92  1  0  0  0
  7  8  2  0  0  0
  7 26  1  0  0  0
  7 29  1  0  0  0
  8  9  1  0  0  0
  8 22  1  0  0  0
  9 10  1  0  0  0
  9 27  2  0  0  0
 10 11  2  0  0  0
 10 15  1  0  0  0
 11 12  1  0  0  0
 11 93  1  0  0  0
 12 13  2  0  0  0
 12 94  1  0  0  0
 13 14  1  0  0  0
 13 31  1  0  0  0
 14 15  2  0  0  0
 14 95  1  0  0  0
 15 96  1  0  0  0
 16 17  2  0  0  0
 16 21  1  0  0  0
 16 31  1  0  0  0
 17 18  1  0  0  0
 17 97  1  0  0  0
 18 19  2  0  0  0
 18 98  1  0  0  0
 19 20  1  0  0  0
 19 24  1  0  0  0
 20 21  2  0  0  0
 20 99  1  0  0  0
 21 23  1  0  0  0
 22 28  1  0  0  0
 22 32  2  0  0  0
 26 27  1  0  0  0
 28100  1  0  0  0
 28101  1  0  0  0
 29102  1  0  0  0
 29103  1  0  0  0
 33 34  1  0  0  0
 33 66  1  0  0  0
 33 70  2  0  0  0
 34 36  1  0  0  0
 34 59  1  0  0  0
 34104  1  0  0  0
 35 44  2  0  0  0
 35 45  1  0  0  0
 35 68  1  0  0  0
 36 56  1  0  0  0
 36105  1  0  0  0
 37 39  1  0  0  0
 37 47  1  0  0  0
 37 66  1  0  0  0
 37106  1  0  0  0
 38 43  2  0  0  0
 38 46  1  0  0  0
 38 47  1  0  0  0
 39 64  1  0  0  0
 39 67  2  0  0  0
 40 52  1  0  0  0
 40 53  2  0  0  0
 40 58  1  0  0  0
 41107  1  0  0  0
 41108  1  0  0  0
 41109  1  0  0  0
 41 48  1  0  0  0
 42 43  1  0  0  0
 42 66  1  0  0  0
 42110  1  0  0  0
 42111  1  0  0  0
 43 44  1  0  0  0
 44112  1  0  0  0
 45 46  2  0  0  0
 45113  1  0  0  0
 46114  1  0  0  0
 47115  1  0  0  0
 47116  1  0  0  0
 48 56  1  0  0  0
 48 65  1  0  0  0
 48117  1  0  0  0
 49 50  1  0  0  0
 49 53  1  0  0  0
 49 64  1  0  0  0
 49118  1  0  0  0
 50 51  1  0  0  0
 50119  1  0  0  0
 50120  1  0  0  0
 51 52  1  0  0  0
 51121  1  0  0  0
 51122  1  0  0  0
 52123  1  0  0  0
 52124  1  0  0  0
 53 54  1  0  0  0
 54 55  2  0  0  0
 54125  1  0  0  0
 55 57  1  0  0  0
 55126  1  0  0  0
 56 69  2  0  0  0
 57 58  2  0  0  0
 57127  1  0  0  0
 58128  1  0  0  0
 59 60  1  0  0  0
 59 61  1  0  0  0
 59 62  1  0  0  0
 60129  1  0  0  0
 60130  1  0  0  0
 60131  1  0  0  0
 61132  1  0  0  0
 61133  1  0  0  0
 61134  1  0  0  0
 62135  1  0  0  0
 62136  1  0  0  0
 62137  1  0  0  0
 63 65  1  0  0  0
 63138  1  0  0  0
 63139  1  0  0  0
 63140  1  0  0  0
 64141  1  0  0  0
 65142  1  0  0  0
 68 77  1  0  0  0
 71 74  1  0  0  0
 71 79  2  0  0  0
 71 82  1  0  0  0
 72143  1  0  0  0
 72144  1  0  0  0
 72145  1  0  0  0
 72 78  1  0  0  0
 73 78  1  0  0  0
 73146  1  0  0  0
 73147  1  0  0  0
 73148  1  0  0  0
 74 75  1  0  0  0
 74149  1  0  0  0
 74150  1  0  0  0
 75 77  1  0  0  0
 75151  1  0  0  0
 75152  1  0  0  0
 76 78  1  0  0  0
 76 83  1  0  0  0
 76153  1  0  0  0
 76154  1  0  0  0
 77155  1  0  0  0
 77156  1  0  0  0
 78 82  1  0  0  0
 79 80  1  0  0  0
 80 81  2  0  0  0
 81 82  1  0  0  0
 83157  1  0  0  0
M  ISO  4   1 100  68 101  77 101  83 100
M  END
> <chiral flag>
0

> <version>
0

> <s_m_source_file>
/data/baiqing/PycharmProjects/Reinvent-master-3.2/result/LINK_invent/BTK/process_docking_weight1_custom_sum_contain_oxygen_bond_distance_aromatic_linkinvent_7_9_3/rearranged_h_0060.sdf

> <i_m_source_file_index>
26

> <r_mmod_Potential_Energy-OPLS-2005>
123.178405761719

> <r_mmod_Stretch_Energy-OPLS-2005>
123.387519836426

> <r_mmod_Bend_Energy-OPLS-2005>
188.750411987305

> <r_mmod_Torsional_Energy-OPLS-2005>
249.763549804688

> <r_mmod_Improper_Torsional_Energy-OPLS-2005>
4.30051231384277

> <r_mmod_Van_der_Waal_Energy-OPLS-2005>
125.070320129395

> <r_mmod_Electrostatic_Energy-OPLS-2005>
-402.052307128906

> <r_mmod_Solvation_Energy-OPLS-2005>
-240.980072021484

> <b_mmod_Minimization_Converged-OPLS-2005>
0

> <r_mmod_RMS_Derivative-OPLS-2005>
5.48937940597534

$$$$
28
                    3D
 Structure written by MMmdl.
157165  0  0  1  0            999 V2000
  -30.7057  -14.4503   20.5510 C   0  0  0  0  0  0
  -30.4234  -12.2864   19.4207 C   0  0  0  0  0  0
  -29.4951  -12.4887   18.2048 C   0  0  0  0  0  0
  -28.0146  -12.3579   18.6175 C   0  0  0  0  0  0
  -27.6631  -13.2005   19.8728 C   0  0  2  0  0  0
  -28.7060  -12.9786   20.9919 C   0  0  0  0  0  0
  -25.2619  -13.8157   20.5684 C   0  0  0  0  0  0
  -24.1853  -13.0439   20.9173 C   0  0  0  0  0  0
  -24.6393  -11.6903   20.8741 C   0  0  0  0  0  0
  -23.9059  -10.4290   21.0416 C   0  0  0  0  0  0
  -24.3611   -9.4205   21.9192 C   0  0  0  0  0  0
  -23.6287   -8.2238   22.0756 C   0  0  0  0  0  0
  -22.4269   -8.0275   21.3541 C   0  0  0  0  0  0
  -21.9903   -9.0255   20.4650 C   0  0  0  0  0  0
  -22.7235  -10.2135   20.3064 C   0  0  0  0  0  0
  -21.6852   -6.0737   22.5278 C   0  0  0  0  0  0
  -21.4014   -6.5641   23.8213 C   0  0  0  0  0  0
  -21.3658   -5.6792   24.9175 C   0  0  0  0  0  0
  -21.6044   -4.3054   24.7225 C   0  0  0  0  0  0
  -21.8823   -3.8146   23.4344 C   0  0  0  0  0  0
  -21.9190   -4.6965   22.3401 C   0  0  0  0  0  0
  -22.7883  -13.5251   21.1829 C   0  0  0  0  0  0
  -22.1663   -4.2149   21.0980 F   0  0  0  0  0  0
  -21.5625   -3.4542   25.7739 F   0  0  0  0  0  0
  -30.0355  -13.2741   20.4361 N   0  0  0  0  0  0
  -26.3040  -12.9306   20.3365 N   0  0  0  0  0  0
  -25.9316  -11.6474   20.5772 N   0  0  0  0  0  0
  -22.0514  -12.8249   22.0389 N   0  0  0  0  0  0
  -25.4377  -15.1872   20.4126 N   0  0  0  0  0  0
  -31.8480  -14.6235   20.1265 O   0  0  0  0  0  0
  -21.6631   -6.8872   21.4235 O   0  0  0  0  0  0
  -22.3569  -14.5553   20.6667 O   0  0  0  0  0  0
  -24.6127  -31.8690   23.2121 C   0  0  0  0  0  0
  -25.9038  -32.4820   23.8399 C   0  0  1  0  0  0
  -27.2323  -27.4471   20.0858 C   0  0  0  0  0  0
  -25.5914  -33.8618   24.2339 N   0  0  0  0  0  0
  -23.3989  -30.4955   21.5505 C   0  0  2  0  0  0
  -24.8427  -28.9644   20.1143 C   0  0  0  0  0  0
  -22.7390  -29.4676   22.4975 C   0  0  0  0  0  0
  -18.0266  -28.1389   22.8495 C   0  0  0  0  0  0
  -24.1489  -36.7313   23.2633 C   0  0  0  0  0  0
  -25.9268  -30.8383   21.3627 C   0  0  0  0  0  0
  -26.0026  -29.4746   20.7092 C   0  0  0  0  0  0
  -27.1979  -28.7227   20.6932 C   0  0  0  0  0  0
  -26.0497  -26.9508   19.4855 C   0  0  0  0  0  0
  -24.8608  -27.7014   19.5009 C   0  0  0  0  0  0
  -23.6059  -29.8311   20.1632 C   0  0  0  0  0  0
  -25.4110  -36.3108   24.0337 C   0  0  1  0  0  0
  -20.5857  -28.3677   23.1320 C   0  0  2  0  0  0
  -20.6759  -26.9415   22.5417 C   0  0  0  0  0  0
  -19.5738  -26.6403   21.5208 C   0  0  0  0  0  0
  -18.1918  -26.7939   22.1622 C   0  0  0  0  0  0
  -19.1516  -28.8846   23.2910 C   0  0  0  0  0  0
  -18.9449  -30.1449   23.8929 C   0  0  0  0  0  0
  -17.6456  -30.6597   24.0574 C   0  0  0  0  0  0
  -25.9040  -34.9473   23.5131 C   0  0  0  0  0  0
  -16.5345  -29.9110   23.6320 C   0  0  0  0  0  0
  -16.7257  -28.6519   23.0349 C   0  0  0  0  0  0
  -26.4479  -31.6587   25.0716 C   0  0  0  0  0  0
  -25.3761  -31.3698   26.1475 C   0  0  0  0  0  0
  -27.0295  -30.3028   24.6082 C   0  0  0  0  0  0
  -27.6060  -32.4294   25.7487 C   0  0  0  0  0  0
  -27.5581  -37.1819   24.8471 C   0  0  0  0  0  0
  -21.4120  -29.3049   22.3723 N   0  0  0  0  0  0
  -26.4297  -37.3794   23.9406 N   0  0  0  0  0  0
  -24.6639  -31.0820   22.0999 N   0  0  0  0  0  0
  -23.4170  -28.8201   23.2995 O   0  0  0  0  0  0
  -28.4183  -26.7399   20.1055 O   0  0  0  0  0  0
  -26.5589  -34.8927   22.4685 O   0  0  0  0  0  0
  -23.5327  -32.1434   23.7534 O   0  0  0  0  0  0
  -29.8529  -17.5289   22.1372 C   0  0  0  0  0  0
  -29.6140  -16.0486   22.0807 C   0  0  0  0  0  0
  -28.8955  -22.2811   20.8417 C   0  0  0  0  0  0
  -29.5396  -23.6207   21.2684 C   0  0  0  0  0  0
  -29.8354  -21.3303   20.0666 C   0  0  0  0  0  0
  -29.6982  -24.6573   20.1323 C   0  0  0  0  0  0
  -30.8976  -20.6073   20.9275 C   0  0  0  0  0  0
  -28.3844  -25.3599   19.7343 C   0  0  0  0  0  0
  -29.5179  -18.3118   23.2050 N   0  0  0  0  0  0
  -30.3897  -18.2021   21.1267 N   0  0  0  0  0  0
  -29.8550  -19.5222   22.8874 N   0  0  0  0  0  0
  -30.3772  -19.4512   21.6426 N   0  0  0  0  0  0
  -29.9362  -15.5198   20.7618 N   0  0  0  0  0  0
  -31.4689  -12.3795   19.1203 H   0  0  0  0  0  0
  -30.3173  -11.2774   19.8225 H   0  0  0  0  0  0
  -29.7303  -11.7589   17.4288 H   0  0  0  0  0  0
  -29.6698  -13.4708   17.7638 H   0  0  0  0  0  0
  -27.8200  -11.3031   18.8161 H   0  0  0  0  0  0
  -27.3656  -12.6327   17.7850 H   0  0  0  0  0  0
  -27.7082  -14.2473   19.5722 H   0  0  0  0  0  0
  -28.6776  -11.9455   21.3411 H   0  0  0  0  0  0
  -28.4773  -13.5877   21.8649 H   0  0  0  0  0  0
  -25.2762   -9.5682   22.4756 H   0  0  0  0  0  0
  -24.0000   -7.4636   22.7477 H   0  0  0  0  0  0
  -21.0832   -8.8778   19.8960 H   0  0  0  0  0  0
  -22.3698  -10.9672   19.6168 H   0  0  0  0  0  0
  -21.2007   -7.6150   23.9716 H   0  0  0  0  0  0
  -21.1479   -6.0522   25.9077 H   0  0  0  0  0  0
  -22.0601   -2.7606   23.2848 H   0  0  0  0  0  0
  -22.4115  -11.9912   22.4786 H   0  0  0  0  0  0
  -21.1137  -13.1288   22.2588 H   0  0  0  0  0  0
  -24.6770  -15.8493   20.5232 H   0  0  0  0  0  0
  -26.3011  -15.6211   20.1087 H   0  0  0  0  0  0
  -26.7105  -32.5536   23.1154 H   0  0  0  0  0  0
  -25.0104  -33.9789   25.0511 H   0  0  0  0  0  0
  -22.6878  -31.3127   21.4137 H   0  0  0  0  0  0
  -23.3745  -35.9653   23.3308 H   0  0  0  0  0  0
  -24.3579  -36.8908   22.2043 H   0  0  0  0  0  0
  -23.7254  -37.6531   23.6631 H   0  0  0  0  0  0
  -26.0422  -31.6044   20.5948 H   0  0  0  0  0  0
  -26.8137  -30.8882   21.9822 H   0  0  0  0  0  0
  -28.0939  -29.1144   21.1537 H   0  0  0  0  0  0
  -26.0202  -25.9887   18.9955 H   0  0  0  0  0  0
  -23.9689  -27.3056   19.0344 H   0  0  0  0  0  0
  -23.7185  -30.6071   19.4048 H   0  0  0  0  0  0
  -22.7294  -29.2535   19.8631 H   0  0  0  0  0  0
  -25.1287  -36.1975   25.0832 H   0  0  0  0  0  0
  -20.9963  -28.3244   24.1433 H   0  0  0  0  0  0
  -20.5669  -26.2279   23.3599 H   0  0  0  0  0  0
  -21.6633  -26.7467   22.1206 H   0  0  0  0  0  0
  -19.6902  -25.6320   21.1221 H   0  0  0  0  0  0
  -19.6681  -27.3224   20.6746 H   0  0  0  0  0  0
  -17.4190  -26.6681   21.4025 H   0  0  0  0  0  0
  -18.0331  -26.0083   22.9022 H   0  0  0  0  0  0
  -19.7928  -30.7247   24.2328 H   0  0  0  0  0  0
  -17.5016  -31.6278   24.5170 H   0  0  0  0  0  0
  -15.5352  -30.3025   23.7636 H   0  0  0  0  0  0
  -15.8649  -28.0848   22.7062 H   0  0  0  0  0  0
  -24.5939  -30.7029   25.7833 H   0  0  0  0  0  0
  -24.8947  -32.2853   26.4919 H   0  0  0  0  0  0
  -25.8135  -30.8888   27.0232 H   0  0  0  0  0  0
  -26.2835  -29.6804   24.1125 H   0  0  0  0  0  0
  -27.4056  -29.7248   25.4533 H   0  0  0  0  0  0
  -27.8677  -30.4339   23.9234 H   0  0  0  0  0  0
  -27.2685  -33.3577   26.2107 H   0  0  0  0  0  0
  -28.3870  -32.6867   25.0322 H   0  0  0  0  0  0
  -28.0725  -31.8383   26.5378 H   0  0  0  0  0  0
  -28.2624  -38.0093   24.7500 H   0  0  0  0  0  0
  -28.1058  -36.2628   24.6323 H   0  0  0  0  0  0
  -27.2301  -37.1507   25.8878 H   0  0  0  0  0  0
  -20.9268  -29.8790   21.6971 H   0  0  0  0  0  0
  -26.0184  -38.2881   24.1384 H   0  0  0  0  0  0
  -28.5636  -15.8599   22.3001 H   0  0  0  0  0  0
  -30.2029  -15.5625   22.8605 H   0  0  0  0  0  0
  -28.0113  -22.4877   20.2372 H   0  0  0  0  0  0
  -28.5212  -21.7642   21.7262 H   0  0  0  0  0  0
  -28.9413  -24.0640   22.0657 H   0  0  0  0  0  0
  -30.5145  -23.4317   21.7170 H   0  0  0  0  0  0
  -30.3380  -21.8838   19.2735 H   0  0  0  0  0  0
  -29.2372  -20.5755   19.5534 H   0  0  0  0  0  0
  -30.1403  -24.1832   19.2557 H   0  0  0  0  0  0
  -30.4234  -25.4134   20.4392 H   0  0  0  0  0  0
  -31.3573  -21.2858   21.6462 H   0  0  0  0  0  0
  -31.7092  -20.2601   20.2868 H   0  0  0  0  0  0
  -28.2363  -25.2827   18.6563 H   0  0  0  0  0  0
  -27.5455  -24.8555   20.2165 H   0  0  0  0  0  0
  -30.2747  -16.3134   20.2306 H   0  0  0  0  0  0
  1 25  1  0  0  0
  1 30  2  0  0  0
  1 83  1  0  0  0
  2  3  1  0  0  0
  2 25  1  0  0  0
  2 84  1  0  0  0
  2 85  1  0  0  0
  3  4  1  0  0  0
  3 86  1  0  0  0
  3 87  1  0  0  0
  4  5  1  0  0  0
  4 88  1  0  0  0
  4 89  1  0  0  0
  5  6  1  0  0  0
  5 26  1  0  0  0
  5 90  1  0  0  0
  6 25  1  0  0  0
  6 91  1  0  0  0
  6 92  1  0  0  0
  7  8  2  0  0  0
  7 26  1  0  0  0
  7 29  1  0  0  0
  8  9  1  0  0  0
  8 22  1  0  0  0
  9 10  1  0  0  0
  9 27  2  0  0  0
 10 11  2  0  0  0
 10 15  1  0  0  0
 11 12  1  0  0  0
 11 93  1  0  0  0
 12 13  2  0  0  0
 12 94  1  0  0  0
 13 14  1  0  0  0
 13 31  1  0  0  0
 14 15  2  0  0  0
 14 95  1  0  0  0
 15 96  1  0  0  0
 16 17  2  0  0  0
 16 21  1  0  0  0
 16 31  1  0  0  0
 17 18  1  0  0  0
 17 97  1  0  0  0
 18 19  2  0  0  0
 18 98  1  0  0  0
 19 20  1  0  0  0
 19 24  1  0  0  0
 20 21  2  0  0  0
 20 99  1  0  0  0
 21 23  1  0  0  0
 22 28  1  0  0  0
 22 32  2  0  0  0
 26 27  1  0  0  0
 28100  1  0  0  0
 28101  1  0  0  0
 29102  1  0  0  0
 29103  1  0  0  0
 33 34  1  0  0  0
 33 66  1  0  0  0
 33 70  2  0  0  0
 34 36  1  0  0  0
 34 59  1  0  0  0
 34104  1  0  0  0
 35 44  2  0  0  0
 35 45  1  0  0  0
 35 68  1  0  0  0
 36 56  1  0  0  0
 36105  1  0  0  0
 37 39  1  0  0  0
 37 47  1  0  0  0
 37 66  1  0  0  0
 37106  1  0  0  0
 38 43  2  0  0  0
 38 46  1  0  0  0
 38 47  1  0  0  0
 39 64  1  0  0  0
 39 67  2  0  0  0
 40 52  1  0  0  0
 40 53  2  0  0  0
 40 58  1  0  0  0
 41107  1  0  0  0
 41108  1  0  0  0
 41109  1  0  0  0
 41 48  1  0  0  0
 42 43  1  0  0  0
 42 66  1  0  0  0
 42110  1  0  0  0
 42111  1  0  0  0
 43 44  1  0  0  0
 44112  1  0  0  0
 45 46  2  0  0  0
 45113  1  0  0  0
 46114  1  0  0  0
 47115  1  0  0  0
 47116  1  0  0  0
 48 56  1  0  0  0
 48 65  1  0  0  0
 48117  1  0  0  0
 49 50  1  0  0  0
 49 53  1  0  0  0
 49 64  1  0  0  0
 49118  1  0  0  0
 50 51  1  0  0  0
 50119  1  0  0  0
 50120  1  0  0  0
 51 52  1  0  0  0
 51121  1  0  0  0
 51122  1  0  0  0
 52123  1  0  0  0
 52124  1  0  0  0
 53 54  1  0  0  0
 54 55  2  0  0  0
 54125  1  0  0  0
 55 57  1  0  0  0
 55126  1  0  0  0
 56 69  2  0  0  0
 57 58  2  0  0  0
 57127  1  0  0  0
 58128  1  0  0  0
 59 60  1  0  0  0
 59 61  1  0  0  0
 59 62  1  0  0  0
 60129  1  0  0  0
 60130  1  0  0  0
 60131  1  0  0  0
 61132  1  0  0  0
 61133  1  0  0  0
 61134  1  0  0  0
 62135  1  0  0  0
 62136  1  0  0  0
 62137  1  0  0  0
 63 65  1  0  0  0
 63138  1  0  0  0
 63139  1  0  0  0
 63140  1  0  0  0
 64141  1  0  0  0
 65142  1  0  0  0
 68 78  1  0  0  0
 71 72  1  0  0  0
 71 79  1  0  0  0
 71 80  2  0  0  0
 72 83  1  0  0  0
 72143  1  0  0  0
 72144  1  0  0  0
 73 74  1  0  0  0
 73 75  1  0  0  0
 73145  1  0  0  0
 73146  1  0  0  0
 74 76  1  0  0  0
 74147  1  0  0  0
 74148  1  0  0  0
 75 77  1  0  0  0
 75149  1  0  0  0
 75150  1  0  0  0
 76 78  1  0  0  0
 76151  1  0  0  0
 76152  1  0  0  0
 77 82  1  0  0  0
 77153  1  0  0  0
 77154  1  0  0  0
 78155  1  0  0  0
 78156  1  0  0  0
 79 81  2  0  0  0
 80 82  1  0  0  0
 81 82  1  0  0  0
 83157  1  0  0  0
M  ISO  4   1 100  68 101  78 101  83 100
M  END
> <chiral flag>
0

> <version>
0

> <s_m_source_file>
/data/baiqing/PycharmProjects/Reinvent-master-3.2/result/LINK_invent/BTK/process_docking_weight1_custom_sum_contain_oxygen_bond_distance_aromatic_linkinvent_7_9_3/rearranged_h_0060.sdf

> <i_m_source_file_index>
27

> <r_mmod_Potential_Energy-OPLS-2005>
-127.572326660156

> <r_mmod_Stretch_Energy-OPLS-2005>
31.855525970459

> <r_mmod_Bend_Energy-OPLS-2005>
106.688163757324

> <r_mmod_Torsional_Energy-OPLS-2005>
281.289916992188

> <r_mmod_Improper_Torsional_Energy-OPLS-2005>
16.7859859466553

> <r_mmod_Van_der_Waal_Energy-OPLS-2005>
133.267074584961

> <r_mmod_Electrostatic_Energy-OPLS-2005>
-491.934600830078

> <r_mmod_Solvation_Energy-OPLS-2005>
-218.063430786133

> <b_mmod_Minimization_Converged-OPLS-2005>
0

> <r_mmod_RMS_Derivative-OPLS-2005>
1.40612685680389

$$$$
29
                    3D
 Structure written by MMmdl.
156164  0  0  1  0            999 V2000
  -30.5857  -14.7465   20.4700 C   0  0  0  0  0  0
  -30.4439  -12.4624   19.4592 C   0  0  0  0  0  0
  -29.5134  -12.5127   18.2265 C   0  0  0  0  0  0
  -28.0382  -12.3342   18.6387 C   0  0  0  0  0  0
  -27.6431  -13.2271   19.8452 C   0  0  2  0  0  0
  -28.6872  -13.1428   20.9788 C   0  0  0  0  0  0
  -25.2522  -13.8185   20.5663 C   0  0  0  0  0  0
  -24.1816  -13.0442   20.9198 C   0  0  0  0  0  0
  -24.6401  -11.6917   20.8732 C   0  0  0  0  0  0
  -23.9074  -10.4300   21.0396 C   0  0  0  0  0  0
  -24.3634   -9.4214   21.9169 C   0  0  0  0  0  0
  -23.6306   -8.2253   22.0747 C   0  0  0  0  0  0
  -22.4282   -8.0299   21.3548 C   0  0  0  0  0  0
  -21.9918   -9.0268   20.4644 C   0  0  0  0  0  0
  -22.7246  -10.2145   20.3044 C   0  0  0  0  0  0
  -21.6864   -6.0744   22.5277 C   0  0  0  0  0  0
  -21.4024   -6.5641   23.8212 C   0  0  0  0  0  0
  -21.3655   -5.6788   24.9169 C   0  0  0  0  0  0
  -21.6034   -4.3051   24.7212 C   0  0  0  0  0  0
  -21.8822   -3.8150   23.4332 C   0  0  0  0  0  0
  -21.9203   -4.6972   22.3394 C   0  0  0  0  0  0
  -22.7837  -13.5227   21.1858 C   0  0  0  0  0  0
  -22.1664   -4.2157   21.0970 F   0  0  0  0  0  0
  -21.5628   -3.4535   25.7723 F   0  0  0  0  0  0
  -29.9864  -13.5100   20.3989 N   0  0  0  0  0  0
  -26.2941  -12.9379   20.3224 N   0  0  0  0  0  0
  -25.9324  -11.6525   20.5707 N   0  0  0  0  0  0
  -22.0479  -12.8228   22.0417 N   0  0  0  0  0  0
  -25.4198  -15.1910   20.4085 N   0  0  0  0  0  0
  -31.7768  -14.8784   20.1736 O   0  0  0  0  0  0
  -21.6650   -6.8894   21.4245 O   0  0  0  0  0  0
  -22.3508  -14.5511   20.6678 O   0  0  0  0  0  0
  -24.6325  -31.8541   23.1984 C   0  0  0  0  0  0
  -25.9153  -32.4745   23.8323 C   0  0  1  0  0  0
  -27.2180  -27.2611   20.1260 C   0  0  0  0  0  0
  -25.5952  -33.8552   24.2245 N   0  0  0  0  0  0
  -23.4279  -30.4782   21.5428 C   0  0  2  0  0  0
  -24.8729  -28.9239   20.1120 C   0  0  0  0  0  0
  -22.7502  -29.4608   22.4925 C   0  0  0  0  0  0
  -18.0290  -28.1393   22.8483 C   0  0  0  0  0  0
  -24.1488  -36.7286   23.2641 C   0  0  0  0  0  0
  -25.9744  -30.7656   21.3787 C   0  0  0  0  0  0
  -26.0461  -29.3883   20.7213 C   0  0  0  0  0  0
  -27.2218  -28.5714   20.7148 C   0  0  0  0  0  0
  -26.0237  -26.8692   19.4810 C   0  0  0  0  0  0
  -24.8672  -27.6719   19.4803 C   0  0  0  0  0  0
  -23.6444  -29.8122   20.1587 C   0  0  0  0  0  0
  -25.4116  -36.3065   24.0321 C   0  0  1  0  0  0
  -20.5890  -28.3717   23.1257 C   0  0  2  0  0  0
  -20.6790  -26.9432   22.5412 C   0  0  0  0  0  0
  -19.5761  -26.6386   21.5220 C   0  0  0  0  0  0
  -18.1938  -26.7938   22.1621 C   0  0  0  0  0  0
  -19.1542  -28.8871   23.2865 C   0  0  0  0  0  0
  -18.9467  -30.1476   23.8888 C   0  0  0  0  0  0
  -17.6466  -30.6597   24.0563 C   0  0  0  0  0  0
  -25.9061  -34.9437   23.5080 C   0  0  0  0  0  0
  -16.5361  -29.9096   23.6327 C   0  0  0  0  0  0
  -16.7277  -28.6508   23.0354 C   0  0  0  0  0  0
  -26.4523  -31.6584   25.0724 C   0  0  0  0  0  0
  -25.3749  -31.3737   26.1445 C   0  0  0  0  0  0
  -27.0383  -30.2997   24.6230 C   0  0  0  0  0  0
  -27.6054  -32.4352   25.7504 C   0  0  0  0  0  0
  -27.5574  -37.1795   24.8462 C   0  0  0  0  0  0
  -21.4205  -29.3059   22.3649 N   0  0  0  0  0  0
  -26.4288  -37.3768   23.9403 N   0  0  0  0  0  0
  -24.6979  -31.0499   22.0967 N   0  0  0  0  0  0
  -23.4191  -28.8150   23.3030 O   0  0  0  0  0  0
  -28.3202  -26.3746   20.1430 O   0  0  0  0  0  0
  -26.5628  -34.8914   22.4646 O   0  0  0  0  0  0
  -23.5475  -32.1385   23.7275 O   0  0  0  0  0  0
  -29.2197  -21.1020   19.5527 C   0  0  0  0  0  0
  -29.1961  -20.4457   21.5914 C   0  0  0  0  0  0
  -29.1208  -22.2636   20.3412 C   0  0  0  0  0  0
  -27.7999  -18.0194   19.8433 C   0  0  0  0  0  0
  -29.8964  -18.3035   18.5351 C   0  0  0  0  0  0
  -29.2155  -23.8098   19.9742 C   0  0  0  0  0  0
  -30.0561  -17.3399   20.8646 C   0  0  0  0  0  0
  -28.0971  -24.8992   20.3876 C   0  0  0  0  0  0
  -29.2808  -18.4300   19.9405 C   0  0  0  0  0  0
  -29.1228  -21.7901   21.6594 N   0  0  0  0  0  0
  -29.2922  -19.9156   20.3564 N   0  0  0  0  0  0
  -29.7689  -15.8416   20.6917 N   0  0  0  0  0  0
  -31.4811  -12.6100   19.1526 H   0  0  0  0  0  0
  -30.4088  -11.4809   19.9336 H   0  0  0  0  0  0
  -29.7963  -11.7402   17.5103 H   0  0  0  0  0  0
  -29.6376  -13.4673   17.7106 H   0  0  0  0  0  0
  -27.8946  -11.2843   18.8947 H   0  0  0  0  0  0
  -27.3827  -12.5359   17.7900 H   0  0  0  0  0  0
  -27.6407  -14.2511   19.4710 H   0  0  0  0  0  0
  -28.7246  -12.1361   21.3984 H   0  0  0  0  0  0
  -28.4184  -13.8072   21.8016 H   0  0  0  0  0  0
  -25.2788   -9.5691   22.4729 H   0  0  0  0  0  0
  -24.0029   -7.4640   22.7455 H   0  0  0  0  0  0
  -21.0851   -8.8774   19.8948 H   0  0  0  0  0  0
  -22.3703  -10.9681   19.6148 H   0  0  0  0  0  0
  -21.2012   -7.6150   23.9715 H   0  0  0  0  0  0
  -21.1473   -6.0516   25.9073 H   0  0  0  0  0  0
  -22.0605   -2.7615   23.2819 H   0  0  0  0  0  0
  -22.4121  -11.9930   22.4855 H   0  0  0  0  0  0
  -21.1081  -13.1223   22.2591 H   0  0  0  0  0  0
  -24.6451  -15.8370   20.5138 H   0  0  0  0  0  0
  -26.2526  -15.6306   20.0412 H   0  0  0  0  0  0
  -26.7227  -32.5380   23.1067 H   0  0  0  0  0  0
  -25.0135  -33.9693   25.0413 H   0  0  0  0  0  0
  -22.7274  -31.3033   21.3986 H   0  0  0  0  0  0
  -23.3751  -35.9620   23.3304 H   0  0  0  0  0  0
  -24.3586  -36.8910   22.2058 H   0  0  0  0  0  0
  -23.7237  -37.6482   23.6679 H   0  0  0  0  0  0
  -26.1157  -31.5256   20.6093 H   0  0  0  0  0  0
  -26.8524  -30.8112   22.0123 H   0  0  0  0  0  0
  -28.1218  -28.9271   21.1984 H   0  0  0  0  0  0
  -25.9621  -25.9279   18.9580 H   0  0  0  0  0  0
  -23.9736  -27.3153   18.9864 H   0  0  0  0  0  0
  -23.7698  -30.5907   19.4049 H   0  0  0  0  0  0
  -22.7623  -29.2480   19.8490 H   0  0  0  0  0  0
  -25.1294  -36.1919   25.0815 H   0  0  0  0  0  0
  -20.9982  -28.3311   24.1372 H   0  0  0  0  0  0
  -20.5707  -26.2330   23.3627 H   0  0  0  0  0  0
  -21.6657  -26.7472   22.1191 H   0  0  0  0  0  0
  -19.6929  -25.6291   21.1259 H   0  0  0  0  0  0
  -19.6697  -27.3192   20.6743 H   0  0  0  0  0  0
  -17.4215  -26.6698   21.4014 H   0  0  0  0  0  0
  -18.0332  -26.0079   22.9011 H   0  0  0  0  0  0
  -19.7949  -30.7290   24.2252 H   0  0  0  0  0  0
  -17.5023  -31.6268   24.5188 H   0  0  0  0  0  0
  -15.5360  -30.2996   23.7658 H   0  0  0  0  0  0
  -15.8677  -28.0824   22.7075 H   0  0  0  0  0  0
  -24.5916  -30.7094   25.7778 H   0  0  0  0  0  0
  -24.8964  -32.2913   26.4875 H   0  0  0  0  0  0
  -25.8068  -30.8911   27.0220 H   0  0  0  0  0  0
  -26.2971  -29.6725   24.1263 H   0  0  0  0  0  0
  -27.4066  -29.7278   25.4759 H   0  0  0  0  0  0
  -27.8853  -30.4265   23.9482 H   0  0  0  0  0  0
  -27.2633  -33.3659   26.2046 H   0  0  0  0  0  0
  -28.3883  -32.6905   25.0350 H   0  0  0  0  0  0
  -28.0714  -31.8516   26.5454 H   0  0  0  0  0  0
  -28.2587  -38.0095   24.7504 H   0  0  0  0  0  0
  -28.1069  -36.2621   24.6294 H   0  0  0  0  0  0
  -27.2293  -37.1452   25.8865 H   0  0  0  0  0  0
  -20.9420  -29.8775   21.6833 H   0  0  0  0  0  0
  -26.0161  -38.2836   24.1420 H   0  0  0  0  0  0
  -29.2674  -21.0343   18.4745 H   0  0  0  0  0  0
  -29.1647  -19.8258   22.4750 H   0  0  0  0  0  0
  -27.6800  -17.0234   19.4181 H   0  0  0  0  0  0
  -27.2421  -18.7044   19.2036 H   0  0  0  0  0  0
  -27.3229  -18.0244   20.8244 H   0  0  0  0  0  0
  -29.9097  -17.2656   18.2014 H   0  0  0  0  0  0
  -30.9260  -18.6634   18.5266 H   0  0  0  0  0  0
  -29.3348  -18.8659   17.7888 H   0  0  0  0  0  0
  -29.3252  -23.8875   18.8924 H   0  0  0  0  0  0
  -30.1655  -24.1785   20.3602 H   0  0  0  0  0  0
  -29.8179  -17.5548   21.9072 H   0  0  0  0  0  0
  -31.1321  -17.5035   20.7829 H   0  0  0  0  0  0
  -27.9409  -24.8032   21.4618 H   0  0  0  0  0  0
  -27.1684  -24.5564   19.9396 H   0  0  0  0  0  0
  -28.8061  -15.5878   20.8511 H   0  0  0  0  0  0
  1 25  1  0  0  0
  1 30  2  0  0  0
  1 82  1  0  0  0
  2  3  1  0  0  0
  2 25  1  0  0  0
  2 83  1  0  0  0
  2 84  1  0  0  0
  3  4  1  0  0  0
  3 85  1  0  0  0
  3 86  1  0  0  0
  4  5  1  0  0  0
  4 87  1  0  0  0
  4 88  1  0  0  0
  5  6  1  0  0  0
  5 26  1  0  0  0
  5 89  1  0  0  0
  6 25  1  0  0  0
  6 90  1  0  0  0
  6 91  1  0  0  0
  7  8  2  0  0  0
  7 26  1  0  0  0
  7 29  1  0  0  0
  8  9  1  0  0  0
  8 22  1  0  0  0
  9 10  1  0  0  0
  9 27  2  0  0  0
 10 11  2  0  0  0
 10 15  1  0  0  0
 11 12  1  0  0  0
 11 92  1  0  0  0
 12 13  2  0  0  0
 12 93  1  0  0  0
 13 14  1  0  0  0
 13 31  1  0  0  0
 14 15  2  0  0  0
 14 94  1  0  0  0
 15 95  1  0  0  0
 16 17  2  0  0  0
 16 21  1  0  0  0
 16 31  1  0  0  0
 17 18  1  0  0  0
 17 96  1  0  0  0
 18 19  2  0  0  0
 18 97  1  0  0  0
 19 20  1  0  0  0
 19 24  1  0  0  0
 20 21  2  0  0  0
 20 98  1  0  0  0
 21 23  1  0  0  0
 22 28  1  0  0  0
 22 32  2  0  0  0
 26 27  1  0  0  0
 28 99  1  0  0  0
 28100  1  0  0  0
 29101  1  0  0  0
 29102  1  0  0  0
 33 34  1  0  0  0
 33 66  1  0  0  0
 33 70  2  0  0  0
 34 36  1  0  0  0
 34 59  1  0  0  0
 34103  1  0  0  0
 35 44  2  0  0  0
 35 45  1  0  0  0
 35 68  1  0  0  0
 36 56  1  0  0  0
 36104  1  0  0  0
 37 39  1  0  0  0
 37 47  1  0  0  0
 37 66  1  0  0  0
 37105  1  0  0  0
 38 43  2  0  0  0
 38 46  1  0  0  0
 38 47  1  0  0  0
 39 64  1  0  0  0
 39 67  2  0  0  0
 40 52  1  0  0  0
 40 53  2  0  0  0
 40 58  1  0  0  0
 41106  1  0  0  0
 41107  1  0  0  0
 41108  1  0  0  0
 41 48  1  0  0  0
 42 43  1  0  0  0
 42 66  1  0  0  0
 42109  1  0  0  0
 42110  1  0  0  0
 43 44  1  0  0  0
 44111  1  0  0  0
 45 46  2  0  0  0
 45112  1  0  0  0
 46113  1  0  0  0
 47114  1  0  0  0
 47115  1  0  0  0
 48 56  1  0  0  0
 48 65  1  0  0  0
 48116  1  0  0  0
 49 50  1  0  0  0
 49 53  1  0  0  0
 49 64  1  0  0  0
 49117  1  0  0  0
 50 51  1  0  0  0
 50118  1  0  0  0
 50119  1  0  0  0
 51 52  1  0  0  0
 51120  1  0  0  0
 51121  1  0  0  0
 52122  1  0  0  0
 52123  1  0  0  0
 53 54  1  0  0  0
 54 55  2  0  0  0
 54124  1  0  0  0
 55 57  1  0  0  0
 55125  1  0  0  0
 56 69  2  0  0  0
 57 58  2  0  0  0
 57126  1  0  0  0
 58127  1  0  0  0
 59 60  1  0  0  0
 59 61  1  0  0  0
 59 62  1  0  0  0
 60128  1  0  0  0
 60129  1  0  0  0
 60130  1  0  0  0
 61131  1  0  0  0
 61132  1  0  0  0
 61133  1  0  0  0
 62134  1  0  0  0
 62135  1  0  0  0
 62136  1  0  0  0
 63 65  1  0  0  0
 63137  1  0  0  0
 63138  1  0  0  0
 63139  1  0  0  0
 64140  1  0  0  0
 65141  1  0  0  0
 68 78  1  0  0  0
 71 73  2  0  0  0
 71 81  1  0  0  0
 71142  1  0  0  0
 72 80  2  0  0  0
 72 81  1  0  0  0
 72143  1  0  0  0
 73 76  1  0  0  0
 73 80  1  0  0  0
 74144  1  0  0  0
 74145  1  0  0  0
 74146  1  0  0  0
 74 79  1  0  0  0
 75 79  1  0  0  0
 75147  1  0  0  0
 75148  1  0  0  0
 75149  1  0  0  0
 76 78  1  0  0  0
 76150  1  0  0  0
 76151  1  0  0  0
 77 79  1  0  0  0
 77 82  1  0  0  0
 77152  1  0  0  0
 77153  1  0  0  0
 78154  1  0  0  0
 78155  1  0  0  0
 79 81  1  0  0  0
 82156  1  0  0  0
M  ISO  4   1 100  68 101  78 101  82 100
M  END
> <chiral flag>
0

> <version>
0

> <s_m_source_file>
/data/baiqing/PycharmProjects/Reinvent-master-3.2/result/LINK_invent/BTK/process_docking_weight1_custom_sum_contain_oxygen_bond_distance_aromatic_linkinvent_7_9_3/rearranged_h_0060.sdf

> <i_m_source_file_index>
28

> <r_mmod_Potential_Energy-OPLS-2005>
119.614311218262

> <r_mmod_Stretch_Energy-OPLS-2005>
124.600311279297

> <r_mmod_Bend_Energy-OPLS-2005>
174.013565063477

> <r_mmod_Torsional_Energy-OPLS-2005>
253.885025024414

> <r_mmod_Improper_Torsional_Energy-OPLS-2005>
5.9136061668396

> <r_mmod_Van_der_Waal_Energy-OPLS-2005>
113.439804077148

> <r_mmod_Electrostatic_Energy-OPLS-2005>
-408.923645019531

> <r_mmod_Solvation_Energy-OPLS-2005>
-228.197479248047

> <b_mmod_Minimization_Converged-OPLS-2005>
0

> <r_mmod_RMS_Derivative-OPLS-2005>
1.97709608078003

$$$$
30
                    3D
 Structure written by MMmdl.
156164  0  0  1  0            999 V2000
  -30.7374  -14.7712   20.5298 C   0  0  0  0  0  0
  -30.3862  -12.4927   19.5072 C   0  0  0  0  0  0
  -29.4785  -12.5420   18.2391 C   0  0  0  0  0  0
  -28.0030  -12.8723   18.5468 C   0  0  0  0  0  0
  -27.7040  -12.7589   20.0412 C   0  0  2  0  0  0
  -28.6598  -13.4452   21.0182 C   0  0  0  0  0  0
  -25.3069  -13.7592   20.6121 C   0  0  0  0  0  0
  -24.1698  -13.0402   20.9360 C   0  0  0  0  0  0
  -24.5579  -11.6693   20.8933 C   0  0  0  0  0  0
  -23.8340  -10.4220   21.0606 C   0  0  0  0  0  0
  -24.3167   -9.4203   21.9278 C   0  0  0  0  0  0
  -23.6099   -8.2124   22.0685 C   0  0  0  0  0  0
  -22.4125   -8.0128   21.3416 C   0  0  0  0  0  0
  -21.9638   -9.0041   20.4511 C   0  0  0  0  0  0
  -22.6737  -10.2041   20.3051 C   0  0  0  0  0  0
  -21.6800   -6.0717   22.5304 C   0  0  0  0  0  0
  -21.3993   -6.5635   23.8264 C   0  0  0  0  0  0
  -21.3661   -5.6759   24.9243 C   0  0  0  0  0  0
  -21.6002   -4.3012   24.7235 C   0  0  0  0  0  0
  -21.8777   -3.8140   23.4399 C   0  0  0  0  0  0
  -21.9195   -4.6956   22.3477 C   0  0  0  0  0  0
  -22.7798  -13.5579   21.1889 C   0  0  0  0  0  0
  -22.1629   -4.2169   21.1037 F   0  0  0  0  0  0
  -21.5641   -3.4486   25.7745 F   0  0  0  0  0  0
  -30.0068  -13.5977   20.4421 N   0  0  0  0  0  0
  -26.2963  -12.7879   20.4030 N   0  0  0  0  0  0
  -25.8200  -11.5479   20.5911 N   0  0  0  0  0  0
  -22.0371  -12.8684   22.0457 N   0  0  0  0  0  0
  -25.5535  -15.1122   20.4496 N   0  0  0  0  0  0
  -31.8747  -14.8119   20.0520 O   0  0  0  0  0  0
  -21.6495   -6.8753   21.4219 O   0  0  0  0  0  0
  -22.3648  -14.5941   20.6771 O   0  0  0  0  0  0
  -24.6336  -31.8533   23.1943 C   0  0  0  0  0  0
  -25.9204  -32.4733   23.8273 C   0  0  1  0  0  0
  -27.2266  -27.2629   20.0781 C   0  0  0  0  0  0
  -25.6024  -33.8510   24.2205 N   0  0  0  0  0  0
  -23.4275  -30.4754   21.5429 C   0  0  2  0  0  0
  -24.8664  -28.9194   20.1068 C   0  0  0  0  0  0
  -22.7509  -29.4579   22.4931 C   0  0  0  0  0  0
  -18.0297  -28.1404   22.8475 C   0  0  0  0  0  0
  -24.1512  -36.7258   23.2635 C   0  0  0  0  0  0
  -25.9738  -30.7660   21.3665 C   0  0  0  0  0  0
  -26.0452  -29.3884   20.6976 C   0  0  0  0  0  0
  -27.2237  -28.5741   20.6635 C   0  0  0  0  0  0
  -26.0165  -26.8505   19.4775 C   0  0  0  0  0  0
  -24.8559  -27.6500   19.4940 C   0  0  0  0  0  0
  -23.6399  -29.8122   20.1579 C   0  0  0  0  0  0
  -25.4140  -36.3029   24.0303 C   0  0  1  0  0  0
  -20.5893  -28.3688   23.1300 C   0  0  2  0  0  0
  -20.6793  -26.9419   22.5393 C   0  0  0  0  0  0
  -19.5767  -26.6407   21.5204 C   0  0  0  0  0  0
  -18.1953  -26.7953   22.1614 C   0  0  0  0  0  0
  -19.1537  -28.8873   23.2894 C   0  0  0  0  0  0
  -18.9458  -30.1487   23.8893 C   0  0  0  0  0  0
  -17.6461  -30.6601   24.0564 C   0  0  0  0  0  0
  -25.9095  -34.9416   23.5042 C   0  0  0  0  0  0
  -16.5357  -29.9090   23.6340 C   0  0  0  0  0  0
  -16.7286  -28.6516   23.0337 C   0  0  0  0  0  0
  -26.4565  -31.6534   25.0661 C   0  0  0  0  0  0
  -25.3784  -31.3669   26.1382 C   0  0  0  0  0  0
  -27.0398  -30.2935   24.6130 C   0  0  0  0  0  0
  -27.6135  -32.4249   25.7456 C   0  0  0  0  0  0
  -27.5559  -37.1796   24.8486 C   0  0  0  0  0  0
  -21.4207  -29.3032   22.3692 N   0  0  0  0  0  0
  -26.4306  -37.3726   23.9401 N   0  0  0  0  0  0
  -24.6994  -31.0496   22.0918 N   0  0  0  0  0  0
  -23.4205  -28.8118   23.3055 O   0  0  0  0  0  0
  -28.3513  -26.4025   20.1428 O   0  0  0  0  0  0
  -26.5642  -34.8897   22.4590 O   0  0  0  0  0  0
  -23.5512  -32.1395   23.7265 O   0  0  0  0  0  0
  -26.9354  -22.3836   21.3163 C   0  0  0  0  0  0
  -28.7914  -21.4227   20.4812 C   0  0  0  0  0  0
  -28.2839  -23.6764   20.0981 C   0  0  0  0  0  0
  -25.5674  -22.2816   21.9606 C   0  0  0  0  0  0
  -30.3002  -15.9503   22.5296 C   0  0  0  0  0  0
  -29.8024  -20.1787   20.4507 C   0  0  0  0  0  0
  -28.4973  -25.0969   19.3976 C   0  0  0  0  0  0
  -29.3621  -18.6201   20.7202 C   0  0  0  0  0  0
  -30.4103  -17.3633   20.5055 C   0  0  0  0  0  0
  -27.6925  -21.2840   21.2240 N   0  0  0  0  0  0
  -27.1719  -23.5864   20.8093 N   0  0  0  0  0  0
  -29.1238  -22.6106   19.8820 N   0  0  0  0  0  0
  -30.1714  -15.9372   21.0617 N   0  0  0  0  0  0
  -31.4284  -12.5547   19.1935 H   0  0  0  0  0  0
  -30.2882  -11.5266   20.0187 H   0  0  0  0  0  0
  -29.5340  -11.6091   17.6790 H   0  0  0  0  0  0
  -29.8548  -13.2908   17.5507 H   0  0  0  0  0  0
  -27.3148  -12.2894   17.9384 H   0  0  0  0  0  0
  -27.8118  -13.9114   18.2733 H   0  0  0  0  0  0
  -28.0031  -11.7184   20.2151 H   0  0  0  0  0  0
  -28.6823  -12.9496   21.9897 H   0  0  0  0  0  0
  -28.2505  -14.4304   21.2299 H   0  0  0  0  0  0
  -25.2200   -9.5866   22.4942 H   0  0  0  0  0  0
  -23.9888   -7.4615   22.7455 H   0  0  0  0  0  0
  -21.0548   -8.8516   19.8866 H   0  0  0  0  0  0
  -22.3110  -10.9674   19.6320 H   0  0  0  0  0  0
  -21.1923   -7.6135   23.9826 H   0  0  0  0  0  0
  -21.1532   -6.0479   25.9162 H   0  0  0  0  0  0
  -22.0571   -2.7641   23.2913 H   0  0  0  0  0  0
  -22.3682  -12.0234   22.4777 H   0  0  0  0  0  0
  -21.0952  -13.1848   22.2351 H   0  0  0  0  0  0
  -26.4401  -15.4814   20.1286 H   0  0  0  0  0  0
  -24.8535  -15.8329   20.5989 H   0  0  0  0  0  0
  -26.7277  -32.5314   23.1017 H   0  0  0  0  0  0
  -25.0237  -33.9612   25.0391 H   0  0  0  0  0  0
  -22.7240  -31.2950   21.4010 H   0  0  0  0  0  0
  -23.3748  -35.9619   23.3340 H   0  0  0  0  0  0
  -24.3589  -36.8846   22.2042 H   0  0  0  0  0  0
  -23.7305  -37.6477   23.6648 H   0  0  0  0  0  0
  -26.1193  -31.5341   20.6063 H   0  0  0  0  0  0
  -26.8498  -30.8020   22.0027 H   0  0  0  0  0  0
  -28.1306  -28.9517   21.1120 H   0  0  0  0  0  0
  -25.9341  -25.8797   19.0166 H   0  0  0  0  0  0
  -23.9482  -27.2684   19.0467 H   0  0  0  0  0  0
  -23.7697  -30.5942   19.4060 H   0  0  0  0  0  0
  -22.7517  -29.2592   19.8494 H   0  0  0  0  0  0
  -25.1336  -36.1857   25.0793 H   0  0  0  0  0  0
  -20.9991  -28.3272   24.1425 H   0  0  0  0  0  0
  -20.5733  -26.2306   23.3578 H   0  0  0  0  0  0
  -21.6664  -26.7503   22.1161 H   0  0  0  0  0  0
  -19.6938  -25.6329   21.1227 H   0  0  0  0  0  0
  -19.6705  -27.3230   20.6745 H   0  0  0  0  0  0
  -17.4219  -26.6701   21.4020 H   0  0  0  0  0  0
  -18.0354  -26.0104   22.9016 H   0  0  0  0  0  0
  -19.7926  -30.7310   24.2244 H   0  0  0  0  0  0
  -17.4998  -31.6259   24.5185 H   0  0  0  0  0  0
  -15.5347  -30.2978   23.7666 H   0  0  0  0  0  0
  -15.8686  -28.0832   22.7045 H   0  0  0  0  0  0
  -24.5959  -30.7051   25.7681 H   0  0  0  0  0  0
  -24.9000  -32.2833   26.4816 H   0  0  0  0  0  0
  -25.8099  -30.8803   27.0131 H   0  0  0  0  0  0
  -26.2941  -29.6672   24.1229 H   0  0  0  0  0  0
  -27.4169  -29.7222   25.4621 H   0  0  0  0  0  0
  -27.8804  -30.4202   23.9308 H   0  0  0  0  0  0
  -27.2774  -33.3555   26.2013 H   0  0  0  0  0  0
  -28.3977  -32.6759   25.0317 H   0  0  0  0  0  0
  -28.0770  -31.8365   26.5379 H   0  0  0  0  0  0
  -28.2646  -38.0021   24.7442 H   0  0  0  0  0  0
  -28.0995  -36.2549   24.6465 H   0  0  0  0  0  0
  -27.2266  -37.1636   25.8888 H   0  0  0  0  0  0
  -20.9395  -29.8721   21.6842 H   0  0  0  0  0  0
  -26.0175  -38.2807   24.1331 H   0  0  0  0  0  0
  -25.3705  -21.2756   22.3360 H   0  0  0  0  0  0
  -24.8010  -22.5339   21.2283 H   0  0  0  0  0  0
  -25.4389  -23.0129   22.7572 H   0  0  0  0  0  0
  -29.8976  -15.0600   23.0272 H   0  0  0  0  0  0
  -29.7866  -16.8000   22.9751 H   0  0  0  0  0  0
  -31.3558  -16.0114   22.8350 H   0  0  0  0  0  0
  -30.5621  -20.4402   21.1844 H   0  0  0  0  0  0
  -30.3079  -20.2184   19.4859 H   0  0  0  0  0  0
  -27.9234  -25.1331   18.4731 H   0  0  0  0  0  0
  -29.5311  -25.0760   19.0570 H   0  0  0  0  0  0
  -28.4880  -18.4137   20.0967 H   0  0  0  0  0  0
  -29.0123  -18.5813   21.7602 H   0  0  0  0  0  0
  -31.3608  -17.6617   20.9395 H   0  0  0  0  0  0
  -30.6208  -17.2726   19.4307 H   0  0  0  0  0  0
  1 25  1  0  0  0
  1 30  2  0  0  0
  1 83  1  0  0  0
  2  3  1  0  0  0
  2 25  1  0  0  0
  2 84  1  0  0  0
  2 85  1  0  0  0
  3  4  1  0  0  0
  3 86  1  0  0  0
  3 87  1  0  0  0
  4  5  1  0  0  0
  4 88  1  0  0  0
  4 89  1  0  0  0
  5  6  1  0  0  0
  5 26  1  0  0  0
  5 90  1  0  0  0
  6 25  1  0  0  0
  6 91  1  0  0  0
  6 92  1  0  0  0
  7  8  2  0  0  0
  7 26  1  0  0  0
  7 29  1  0  0  0
  8  9  1  0  0  0
  8 22  1  0  0  0
  9 10  1  0  0  0
  9 27  2  0  0  0
 10 11  2  0  0  0
 10 15  1  0  0  0
 11 12  1  0  0  0
 11 93  1  0  0  0
 12 13  2  0  0  0
 12 94  1  0  0  0
 13 14  1  0  0  0
 13 31  1  0  0  0
 14 15  2  0  0  0
 14 95  1  0  0  0
 15 96  1  0  0  0
 16 17  2  0  0  0
 16 21  1  0  0  0
 16 31  1  0  0  0
 17 18  1  0  0  0
 17 97  1  0  0  0
 18 19  2  0  0  0
 18 98  1  0  0  0
 19 20  1  0  0  0
 19 24  1  0  0  0
 20 21  2  0  0  0
 20 99  1  0  0  0
 21 23  1  0  0  0
 22 28  1  0  0  0
 22 32  2  0  0  0
 26 27  1  0  0  0
 28100  1  0  0  0
 28101  1  0  0  0
 29102  1  0  0  0
 29103  1  0  0  0
 33 34  1  0  0  0
 33 66  1  0  0  0
 33 70  2  0  0  0
 34 36  1  0  0  0
 34 59  1  0  0  0
 34104  1  0  0  0
 35 44  2  0  0  0
 35 45  1  0  0  0
 35 68  1  0  0  0
 36 56  1  0  0  0
 36105  1  0  0  0
 37 39  1  0  0  0
 37 47  1  0  0  0
 37 66  1  0  0  0
 37106  1  0  0  0
 38 43  2  0  0  0
 38 46  1  0  0  0
 38 47  1  0  0  0
 39 64  1  0  0  0
 39 67  2  0  0  0
 40 52  1  0  0  0
 40 53  2  0  0  0
 40 58  1  0  0  0
 41107  1  0  0  0
 41108  1  0  0  0
 41109  1  0  0  0
 41 48  1  0  0  0
 42 43  1  0  0  0
 42 66  1  0  0  0
 42110  1  0  0  0
 42111  1  0  0  0
 43 44  1  0  0  0
 44112  1  0  0  0
 45 46  2  0  0  0
 45113  1  0  0  0
 46114  1  0  0  0
 47115  1  0  0  0
 47116  1  0  0  0
 48 56  1  0  0  0
 48 65  1  0  0  0
 48117  1  0  0  0
 49 50  1  0  0  0
 49 53  1  0  0  0
 49 64  1  0  0  0
 49118  1  0  0  0
 50 51  1  0  0  0
 50119  1  0  0  0
 50120  1  0  0  0
 51 52  1  0  0  0
 51121  1  0  0  0
 51122  1  0  0  0
 52123  1  0  0  0
 52124  1  0  0  0
 53 54  1  0  0  0
 54 55  2  0  0  0
 54125  1  0  0  0
 55 57  1  0  0  0
 55126  1  0  0  0
 56 69  2  0  0  0
 57 58  2  0  0  0
 57127  1  0  0  0
 58128  1  0  0  0
 59 60  1  0  0  0
 59 61  1  0  0  0
 59 62  1  0  0  0
 60129  1  0  0  0
 60130  1  0  0  0
 60131  1  0  0  0
 61132  1  0  0  0
 61133  1  0  0  0
 61134  1  0  0  0
 62135  1  0  0  0
 62136  1  0  0  0
 62137  1  0  0  0
 63 65  1  0  0  0
 63138  1  0  0  0
 63139  1  0  0  0
 63140  1  0  0  0
 64141  1  0  0  0
 65142  1  0  0  0
 68 77  1  0  0  0
 71 74  1  0  0  0
 71 80  2  0  0  0
 71 81  1  0  0  0
 72 76  1  0  0  0
 72 80  1  0  0  0
 72 82  2  0  0  0
 73 77  1  0  0  0
 73 81  2  0  0  0
 73 82  1  0  0  0
 74143  1  0  0  0
 74144  1  0  0  0
 74145  1  0  0  0
 75 83  1  0  0  0
 75146  1  0  0  0
 75147  1  0  0  0
 75148  1  0  0  0
 76 78  1  0  0  0
 76149  1  0  0  0
 76150  1  0  0  0
 77151  1  0  0  0
 77152  1  0  0  0
 78 79  1  0  0  0
 78153  1  0  0  0
 78154  1  0  0  0
 79 83  1  0  0  0
 79155  1  0  0  0
 79156  1  0  0  0
M  ISO  4   1 100  68 101  77 101  83 100
M  END
> <chiral flag>
0

> <version>
0

> <s_m_source_file>
/data/baiqing/PycharmProjects/Reinvent-master-3.2/result/LINK_invent/BTK/process_docking_weight1_custom_sum_contain_oxygen_bond_distance_aromatic_linkinvent_7_9_3/rearranged_h_0060.sdf

> <i_m_source_file_index>
29

> <r_mmod_Potential_Energy-OPLS-2005>
-96.4004516601562

> <r_mmod_Stretch_Energy-OPLS-2005>
150.141326904297

> <r_mmod_Bend_Energy-OPLS-2005>
238.784088134766

> <r_mmod_Torsional_Energy-OPLS-2005>
293.355194091797

> <r_mmod_Improper_Torsional_Energy-OPLS-2005>
7.846351146698

> <r_mmod_Van_der_Waal_Energy-OPLS-2005>
163.457717895508

> <r_mmod_Electrostatic_Energy-OPLS-2005>
-889.48779296875

> <r_mmod_Solvation_Energy-OPLS-2005>
-223.773803710938

> <b_mmod_Minimization_Converged-OPLS-2005>
0

> <r_mmod_RMS_Derivative-OPLS-2005>
17.1867961883545

$$$$
31
                    3D
 Structure written by MMmdl.
157165  0  0  1  0            999 V2000
  -30.5653  -14.7338   20.4770 C   0  0  0  0  0  0
  -30.4382  -12.4610   19.4612 C   0  0  0  0  0  0
  -29.5071  -12.5159   18.2297 C   0  0  0  0  0  0
  -28.0326  -12.3424   18.6421 C   0  0  0  0  0  0
  -27.6414  -13.2234   19.8573 C   0  0  2  0  0  0
  -28.6804  -13.1332   20.9920 C   0  0  0  0  0  0
  -25.2516  -13.8197   20.5647 C   0  0  0  0  0  0
  -24.1806  -13.0450   20.9195 C   0  0  0  0  0  0
  -24.6384  -11.6912   20.8758 C   0  0  0  0  0  0
  -23.9054  -10.4311   21.0419 C   0  0  0  0  0  0
  -24.3616   -9.4222   21.9172 C   0  0  0  0  0  0
  -23.6302   -8.2247   22.0743 C   0  0  0  0  0  0
  -22.4288   -8.0284   21.3535 C   0  0  0  0  0  0
  -21.9914   -9.0254   20.4633 C   0  0  0  0  0  0
  -22.7234  -10.2140   20.3058 C   0  0  0  0  0  0
  -21.6879   -6.0735   22.5272 C   0  0  0  0  0  0
  -21.4015   -6.5625   23.8200 C   0  0  0  0  0  0
  -21.3662   -5.6790   24.9153 C   0  0  0  0  0  0
  -21.6060   -4.3061   24.7211 C   0  0  0  0  0  0
  -21.8828   -3.8135   23.4341 C   0  0  0  0  0  0
  -21.9213   -4.6960   22.3401 C   0  0  0  0  0  0
  -22.7836  -13.5234   21.1871 C   0  0  0  0  0  0
  -22.1688   -4.2152   21.0987 F   0  0  0  0  0  0
  -21.5630   -3.4537   25.7720 F   0  0  0  0  0  0
  -29.9786  -13.4944   20.4165 N   0  0  0  0  0  0
  -26.2924  -12.9372   20.3285 N   0  0  0  0  0  0
  -25.9296  -11.6529   20.5732 N   0  0  0  0  0  0
  -22.0529  -12.8153   22.0427 N   0  0  0  0  0  0
  -25.4221  -15.1890   20.3975 N   0  0  0  0  0  0
  -31.7509  -14.8728   20.1606 O   0  0  0  0  0  0
  -21.6666   -6.8871   21.4233 O   0  0  0  0  0  0
  -22.3499  -14.5551   20.6784 O   0  0  0  0  0  0
  -24.6317  -31.8583   23.1971 C   0  0  0  0  0  0
  -25.9128  -32.4775   23.8336 C   0  0  1  0  0  0
  -27.2197  -27.2659   20.1259 C   0  0  0  0  0  0
  -25.5910  -33.8570   24.2247 N   0  0  0  0  0  0
  -23.4251  -30.4766   21.5449 C   0  0  2  0  0  0
  -24.8684  -28.9087   20.1232 C   0  0  0  0  0  0
  -22.7464  -29.4652   22.4975 C   0  0  0  0  0  0
  -18.0258  -28.1417   22.8503 C   0  0  0  0  0  0
  -24.1454  -36.7292   23.2649 C   0  0  0  0  0  0
  -25.9714  -30.7659   21.3749 C   0  0  0  0  0  0
  -26.0419  -29.3866   20.7188 C   0  0  0  0  0  0
  -27.2243  -28.5829   20.6992 C   0  0  0  0  0  0
  -26.0221  -26.8355   19.5223 C   0  0  0  0  0  0
  -24.8624  -27.6393   19.5162 C   0  0  0  0  0  0
  -23.6407  -29.8008   20.1659 C   0  0  0  0  0  0
  -25.4092  -36.3072   24.0333 C   0  0  1  0  0  0
  -20.5862  -28.3711   23.1301 C   0  0  2  0  0  0
  -20.6771  -26.9439   22.5415 C   0  0  0  0  0  0
  -19.5743  -26.6398   21.5231 C   0  0  0  0  0  0
  -18.1916  -26.7963   22.1634 C   0  0  0  0  0  0
  -19.1522  -28.8870   23.2894 C   0  0  0  0  0  0
  -18.9459  -30.1482   23.8893 C   0  0  0  0  0  0
  -17.6467  -30.6618   24.0558 C   0  0  0  0  0  0
  -25.9056  -34.9463   23.5087 C   0  0  0  0  0  0
  -16.5347  -29.9117   23.6350 C   0  0  0  0  0  0
  -16.7265  -28.6538   23.0380 C   0  0  0  0  0  0
  -26.4478  -31.6628   25.0742 C   0  0  0  0  0  0
  -25.3717  -31.3800   26.1483 C   0  0  0  0  0  0
  -27.0369  -30.3037   24.6314 C   0  0  0  0  0  0
  -27.5984  -32.4450   25.7500 C   0  0  0  0  0  0
  -27.5584  -37.1777   24.8466 C   0  0  0  0  0  0
  -21.4190  -29.3044   22.3695 N   0  0  0  0  0  0
  -26.4263  -37.3778   23.9442 N   0  0  0  0  0  0
  -24.6946  -31.0533   22.0943 N   0  0  0  0  0  0
  -23.4166  -28.8252   23.3127 O   0  0  0  0  0  0
  -28.3544  -26.4405   20.0530 O   0  0  0  0  0  0
  -26.5636  -34.8935   22.4666 O   0  0  0  0  0  0
  -23.5467  -32.1447   23.7253 O   0  0  0  0  0  0
  -30.4597  -22.5144   19.9655 C   0  0  0  0  0  0
  -31.2592  -21.3640   19.9721 C   0  0  0  0  0  0
  -29.0703  -22.3701   20.0811 C   0  0  0  0  0  0
  -29.4333  -19.9924   20.2682 C   0  0  0  0  0  0
  -32.7523  -21.4445   19.7511 C   0  0  0  0  0  0
  -28.2371  -18.0698   19.0286 C   0  0  0  0  0  0
  -28.1659  -23.6656   19.8126 C   0  0  0  0  0  0
  -30.0747  -17.3177   20.6835 C   0  0  0  0  0  0
  -28.4070  -25.0516   20.6255 C   0  0  0  0  0  0
  -28.9567  -18.4577   20.3321 C   0  0  1  0  0  0
  -30.7419  -20.1323   20.1094 N   0  0  0  0  0  0
  -28.5770  -21.0720   20.2383 N   0  0  0  0  0  0
  -29.7390  -15.8224   20.7022 N   0  0  0  0  0  0
  -31.4713  -12.6253   19.1481 H   0  0  0  0  0  0
  -30.4140  -11.4783   19.9308 H   0  0  0  0  0  0
  -29.7866  -11.7427   17.5124 H   0  0  0  0  0  0
  -29.6332  -13.4716   17.7181 H   0  0  0  0  0  0
  -27.8724  -11.2895   18.8774 H   0  0  0  0  0  0
  -27.3813  -12.5663   17.7981 H   0  0  0  0  0  0
  -27.6447  -14.2506   19.4941 H   0  0  0  0  0  0
  -28.7151  -12.1357   21.4269 H   0  0  0  0  0  0
  -28.4109  -13.8067   21.8077 H   0  0  0  0  0  0
  -25.2774   -9.5709   22.4697 H   0  0  0  0  0  0
  -24.0068   -7.4630   22.7411 H   0  0  0  0  0  0
  -21.0887   -8.8750   19.8876 H   0  0  0  0  0  0
  -22.3717  -10.9672   19.6148 H   0  0  0  0  0  0
  -21.1989   -7.6126   23.9689 H   0  0  0  0  0  0
  -21.1483   -6.0515   25.9064 H   0  0  0  0  0  0
  -22.0609   -2.7601   23.2839 H   0  0  0  0  0  0
  -22.4253  -11.9859   22.4813 H   0  0  0  0  0  0
  -21.1100  -13.1043   22.2619 H   0  0  0  0  0  0
  -24.6381  -15.8291   20.4649 H   0  0  0  0  0  0
  -26.2437  -15.6146   19.9865 H   0  0  0  0  0  0
  -26.7201  -32.5376   23.1077 H   0  0  0  0  0  0
  -24.9975  -33.9699   25.0339 H   0  0  0  0  0  0
  -22.7227  -31.2989   21.3959 H   0  0  0  0  0  0
  -23.3719  -35.9610   23.3285 H   0  0  0  0  0  0
  -24.3573  -36.8973   22.2076 H   0  0  0  0  0  0
  -23.7207  -37.6476   23.6719 H   0  0  0  0  0  0
  -26.1177  -31.5218   20.6024 H   0  0  0  0  0  0
  -26.8455  -30.8113   22.0128 H   0  0  0  0  0  0
  -28.1385  -28.9595   21.1376 H   0  0  0  0  0  0
  -25.9831  -25.8656   19.0473 H   0  0  0  0  0  0
  -23.9578  -27.2710   19.0495 H   0  0  0  0  0  0
  -23.7665  -30.5749   19.4080 H   0  0  0  0  0  0
  -22.7528  -29.2416   19.8659 H   0  0  0  0  0  0
  -25.1257  -36.1893   25.0820 H   0  0  0  0  0  0
  -20.9938  -28.3286   24.1437 H   0  0  0  0  0  0
  -20.5719  -26.2322   23.3623 H   0  0  0  0  0  0
  -21.6646  -26.7517   22.1197 H   0  0  0  0  0  0
  -19.6920  -25.6301   21.1307 H   0  0  0  0  0  0
  -19.6694  -27.3160   20.6733 H   0  0  0  0  0  0
  -17.4202  -26.6711   21.4014 H   0  0  0  0  0  0
  -18.0296  -26.0095   22.9015 H   0  0  0  0  0  0
  -19.7927  -30.7298   24.2263 H   0  0  0  0  0  0
  -17.5024  -31.6303   24.5166 H   0  0  0  0  0  0
  -15.5355  -30.3023   23.7719 H   0  0  0  0  0  0
  -15.8658  -28.0869   22.7128 H   0  0  0  0  0  0
  -24.5783  -30.7282   25.7819 H   0  0  0  0  0  0
  -24.9016  -32.2979   26.5006 H   0  0  0  0  0  0
  -25.8015  -30.8880   27.0215 H   0  0  0  0  0  0
  -26.3018  -29.6731   24.1301 H   0  0  0  0  0  0
  -27.3977  -29.7351   25.4897 H   0  0  0  0  0  0
  -27.8897  -30.4282   23.9646 H   0  0  0  0  0  0
  -27.2519  -33.3707   26.2101 H   0  0  0  0  0  0
  -28.3731  -32.7150   25.0316 H   0  0  0  0  0  0
  -28.0744  -31.8639   26.5402 H   0  0  0  0  0  0
  -28.2543  -38.0114   24.7558 H   0  0  0  0  0  0
  -28.1137  -36.2665   24.6199 H   0  0  0  0  0  0
  -27.2365  -37.1341   25.8879 H   0  0  0  0  0  0
  -20.9408  -29.8709   21.6824 H   0  0  0  0  0  0
  -26.0139  -38.2843   24.1445 H   0  0  0  0  0  0
  -30.8988  -23.4906   19.8032 H   0  0  0  0  0  0
  -32.9517  -21.6325   18.6964 H   0  0  0  0  0  0
  -33.2483  -20.5143   20.0336 H   0  0  0  0  0  0
  -33.1897  -22.2551   20.3334 H   0  0  0  0  0  0
  -27.3110  -18.6354   18.9163 H   0  0  0  0  0  0
  -27.9753  -17.0113   19.0048 H   0  0  0  0  0  0
  -28.8669  -18.2759   18.1634 H   0  0  0  0  0  0
  -27.1171  -23.3841   19.9111 H   0  0  0  0  0  0
  -28.3014  -23.8869   18.7535 H   0  0  0  0  0  0
  -30.4946  -17.5632   21.6592 H   0  0  0  0  0  0
  -30.8938  -17.4313   19.9754 H   0  0  0  0  0  0
  -29.4422  -24.9959   20.9626 H   0  0  0  0  0  0
  -27.8288  -25.0292   21.5497 H   0  0  0  0  0  0
  -28.2147  -18.4206   21.1328 H   0  0  0  0  0  0
  -28.7796  -15.5896   20.9131 H   0  0  0  0  0  0
  1 25  1  0  0  0
  1 30  2  0  0  0
  1 83  1  0  0  0
  2  3  1  0  0  0
  2 25  1  0  0  0
  2 84  1  0  0  0
  2 85  1  0  0  0
  3  4  1  0  0  0
  3 86  1  0  0  0
  3 87  1  0  0  0
  4  5  1  0  0  0
  4 88  1  0  0  0
  4 89  1  0  0  0
  5  6  1  0  0  0
  5 26  1  0  0  0
  5 90  1  0  0  0
  6 25  1  0  0  0
  6 91  1  0  0  0
  6 92  1  0  0  0
  7  8  2  0  0  0
  7 26  1  0  0  0
  7 29  1  0  0  0
  8  9  1  0  0  0
  8 22  1  0  0  0
  9 10  1  0  0  0
  9 27  2  0  0  0
 10 11  2  0  0  0
 10 15  1  0  0  0
 11 12  1  0  0  0
 11 93  1  0  0  0
 12 13  2  0  0  0
 12 94  1  0  0  0
 13 14  1  0  0  0
 13 31  1  0  0  0
 14 15  2  0  0  0
 14 95  1  0  0  0
 15 96  1  0  0  0
 16 17  2  0  0  0
 16 21  1  0  0  0
 16 31  1  0  0  0
 17 18  1  0  0  0
 17 97  1  0  0  0
 18 19  2  0  0  0
 18 98  1  0  0  0
 19 20  1  0  0  0
 19 24  1  0  0  0
 20 21  2  0  0  0
 20 99  1  0  0  0
 21 23  1  0  0  0
 22 28  1  0  0  0
 22 32  2  0  0  0
 26 27  1  0  0  0
 28100  1  0  0  0
 28101  1  0  0  0
 29102  1  0  0  0
 29103  1  0  0  0
 33 34  1  0  0  0
 33 66  1  0  0  0
 33 70  2  0  0  0
 34 36  1  0  0  0
 34 59  1  0  0  0
 34104  1  0  0  0
 35 44  2  0  0  0
 35 45  1  0  0  0
 35 68  1  0  0  0
 36 56  1  0  0  0
 36105  1  0  0  0
 37 39  1  0  0  0
 37 47  1  0  0  0
 37 66  1  0  0  0
 37106  1  0  0  0
 38 43  2  0  0  0
 38 46  1  0  0  0
 38 47  1  0  0  0
 39 64  1  0  0  0
 39 67  2  0  0  0
 40 52  1  0  0  0
 40 53  2  0  0  0
 40 58  1  0  0  0
 41107  1  0  0  0
 41108  1  0  0  0
 41109  1  0  0  0
 41 48  1  0  0  0
 42 43  1  0  0  0
 42 66  1  0  0  0
 42110  1  0  0  0
 42111  1  0  0  0
 43 44  1  0  0  0
 44112  1  0  0  0
 45 46  2  0  0  0
 45113  1  0  0  0
 46114  1  0  0  0
 47115  1  0  0  0
 47116  1  0  0  0
 48 56  1  0  0  0
 48 65  1  0  0  0
 48117  1  0  0  0
 49 50  1  0  0  0
 49 53  1  0  0  0
 49 64  1  0  0  0
 49118  1  0  0  0
 50 51  1  0  0  0
 50119  1  0  0  0
 50120  1  0  0  0
 51 52  1  0  0  0
 51121  1  0  0  0
 51122  1  0  0  0
 52123  1  0  0  0
 52124  1  0  0  0
 53 54  1  0  0  0
 54 55  2  0  0  0
 54125  1  0  0  0
 55 57  1  0  0  0
 55126  1  0  0  0
 56 69  2  0  0  0
 57 58  2  0  0  0
 57127  1  0  0  0
 58128  1  0  0  0
 59 60  1  0  0  0
 59 61  1  0  0  0
 59 62  1  0  0  0
 60129  1  0  0  0
 60130  1  0  0  0
 60131  1  0  0  0
 61132  1  0  0  0
 61133  1  0  0  0
 61134  1  0  0  0
 62135  1  0  0  0
 62136  1  0  0  0
 62137  1  0  0  0
 63 65  1  0  0  0
 63138  1  0  0  0
 63139  1  0  0  0
 63140  1  0  0  0
 64141  1  0  0  0
 65142  1  0  0  0
 68 79  1  0  0  0
 71 72  2  0  0  0
 71 73  1  0  0  0
 71143  1  0  0  0
 72 75  1  0  0  0
 72 81  1  0  0  0
 73 77  1  0  0  0
 73 82  2  0  0  0
 74 80  1  0  0  0
 74 81  2  0  0  0
 74 82  1  0  0  0
 75144  1  0  0  0
 75145  1  0  0  0
 75146  1  0  0  0
 76147  1  0  0  0
 76148  1  0  0  0
 76149  1  0  0  0
 76 80  1  0  0  0
 77 79  1  0  0  0
 77150  1  0  0  0
 77151  1  0  0  0
 78 80  1  0  0  0
 78 83  1  0  0  0
 78152  1  0  0  0
 78153  1  0  0  0
 79154  1  0  0  0
 79155  1  0  0  0
 80156  1  0  0  0
 83157  1  0  0  0
M  ISO  4   1 100  68 101  79 101  83 100
M  END
> <chiral flag>
0

> <version>
0

> <s_m_source_file>
/data/baiqing/PycharmProjects/Reinvent-master-3.2/result/LINK_invent/BTK/process_docking_weight1_custom_sum_contain_oxygen_bond_distance_aromatic_linkinvent_7_9_3/rearranged_h_0060.sdf

> <i_m_source_file_index>
30

> <r_mmod_Potential_Energy-OPLS-2005>
-230.311370849609

> <r_mmod_Stretch_Energy-OPLS-2005>
126.042533874512

> <r_mmod_Bend_Energy-OPLS-2005>
182.064453125

> <r_mmod_Torsional_Energy-OPLS-2005>
228.922698974609

> <r_mmod_Improper_Torsional_Energy-OPLS-2005>
6.64250898361206

> <r_mmod_Van_der_Waal_Energy-OPLS-2005>
135.93376159668

> <r_mmod_Electrostatic_Energy-OPLS-2005>
-749.052856445312

> <r_mmod_Solvation_Energy-OPLS-2005>
-237.271896362305

> <b_mmod_Minimization_Converged-OPLS-2005>
0

> <r_mmod_RMS_Derivative-OPLS-2005>
4.52197742462158

$$$$
32
                    3D
 Structure written by MMmdl.
155163  0  0  1  0            999 V2000
  -30.3917  -15.4200   20.3471 C   0  0  0  0  0  0
  -30.4331  -12.9197   19.5424 C   0  0  0  0  0  0
  -29.5441  -12.6097   18.3090 C   0  0  0  0  0  0
  -28.1018  -12.3003   18.7415 C   0  0  0  0  0  0
  -27.6063  -13.2907   19.8226 C   0  0  2  0  0  0
  -28.6313  -13.5348   20.9534 C   0  0  0  0  0  0
  -25.2367  -13.8268   20.5762 C   0  0  0  0  0  0
  -24.1736  -13.0442   20.9274 C   0  0  0  0  0  0
  -24.6415  -11.6944   20.8778 C   0  0  0  0  0  0
  -23.9111  -10.4302   21.0415 C   0  0  0  0  0  0
  -24.3651   -9.4210   21.9189 C   0  0  0  0  0  0
  -23.6314   -8.2248   22.0759 C   0  0  0  0  0  0
  -22.4291   -8.0297   21.3555 C   0  0  0  0  0  0
  -21.9940   -9.0269   20.4649 C   0  0  0  0  0  0
  -22.7283  -10.2141   20.3056 C   0  0  0  0  0  0
  -21.6857   -6.0743   22.5277 C   0  0  0  0  0  0
  -21.4020   -6.5647   23.8211 C   0  0  0  0  0  0
  -21.3656   -5.6798   24.9175 C   0  0  0  0  0  0
  -21.6042   -4.3058   24.7223 C   0  0  0  0  0  0
  -21.8820   -3.8153   23.4345 C   0  0  0  0  0  0
  -21.9197   -4.6971   22.3405 C   0  0  0  0  0  0
  -22.7749  -13.5186   21.1909 C   0  0  0  0  0  0
  -22.1661   -4.2161   21.0984 F   0  0  0  0  0  0
  -21.5626   -3.4543   25.7736 F   0  0  0  0  0  0
  -29.8431  -14.0872   20.3185 N   0  0  0  0  0  0
  -26.2805  -12.9569   20.3239 N   0  0  0  0  0  0
  -25.9360  -11.6656   20.5726 N   0  0  0  0  0  0
  -22.0412  -12.8159   22.0453 N   0  0  0  0  0  0
  -25.3998  -15.2005   20.4177 N   0  0  0  0  0  0
  -31.6123  -15.3840   20.1221 O   0  0  0  0  0  0
  -21.6651   -6.8895   21.4243 O   0  0  0  0  0  0
  -22.3425  -14.5485   20.6749 O   0  0  0  0  0  0
  -24.6725  -31.8123   23.1619 C   0  0  0  0  0  0
  -25.9363  -32.4529   23.8114 C   0  0  1  0  0  0
  -27.2212  -26.8176   20.1992 C   0  0  0  0  0  0
  -25.5993  -33.8346   24.2017 N   0  0  0  0  0  0
  -23.4941  -30.4189   21.5121 C   0  0  2  0  0  0
  -24.9514  -28.7880   20.1095 C   0  0  0  0  0  0
  -22.7725  -29.4370   22.4730 C   0  0  0  0  0  0
  -18.0336  -28.1418   22.8458 C   0  0  0  0  0  0
  -24.1493  -36.7176   23.2649 C   0  0  0  0  0  0
  -26.0679  -30.5833   21.4108 C   0  0  0  0  0  0
  -26.1358  -29.1606   20.7576 C   0  0  0  0  0  0
  -27.2588  -28.1977   20.7797 C   0  0  0  0  0  0
  -26.0120  -26.6339   19.4851 C   0  0  0  0  0  0
  -24.9226  -27.5482   19.4511 C   0  0  0  0  0  0
  -23.7416  -29.7284   20.1411 C   0  0  0  0  0  0
  -25.4138  -36.2924   24.0291 C   0  0  1  0  0  0
  -20.5963  -28.3765   23.1162 C   0  0  2  0  0  0
  -20.6808  -26.9433   22.5407 C   0  0  0  0  0  0
  -19.5780  -26.6372   21.5219 C   0  0  0  0  0  0
  -18.1960  -26.7947   22.1617 C   0  0  0  0  0  0
  -19.1601  -28.8912   23.2793 C   0  0  0  0  0  0
  -18.9505  -30.1498   23.8833 C   0  0  0  0  0  0
  -17.6493  -30.6598   24.0548 C   0  0  0  0  0  0
  -25.9108  -34.9314   23.4980 C   0  0  0  0  0  0
  -16.5385  -29.9084   23.6347 C   0  0  0  0  0  0
  -16.7315  -28.6511   23.0356 C   0  0  0  0  0  0
  -26.4578  -31.6511   25.0688 C   0  0  0  0  0  0
  -25.3668  -31.3798   26.1319 C   0  0  0  0  0  0
  -27.0488  -30.2857   24.6502 C   0  0  0  0  0  0
  -27.6043  -32.4342   25.7502 C   0  0  0  0  0  0
  -27.5564  -37.1742   24.8469 C   0  0  0  0  0  0
  -21.4381  -29.3037   22.3495 N   0  0  0  0  0  0
  -26.4273  -37.3677   23.9411 N   0  0  0  0  0  0
  -24.7667  -30.9679   22.0812 N   0  0  0  0  0  0
  -23.4222  -28.7955   23.3021 O   0  0  0  0  0  0
  -28.1742  -25.6347   20.3197 O   0  0  0  0  0  0
  -26.5730  -34.8873   22.4584 O   0  0  0  0  0  0
  -23.5772  -32.1142   23.6647 O   0  0  0  0  0  0
  -28.6070  -22.4169   20.3692 C   0  0  0  0  0  0
  -29.1915  -20.0165   20.3816 C   0  0  0  0  0  0
  -30.1909  -18.3845   18.5364 C   0  0  0  0  0  0
  -27.4970  -19.8518   23.5673 C   0  0  0  0  0  0
  -29.9967  -20.2871   23.7919 C   0  0  0  0  0  0
  -27.9059  -24.0137   19.8965 C   0  0  0  0  0  0
  -29.9323  -18.3961   20.0510 C   0  0  2  0  0  0
  -28.8682  -19.7905   22.8744 C   0  0  0  0  0  0
  -29.0301  -21.2239   19.5898 N   0  0  0  0  0  0
  -28.5032  -21.9071   21.6160 N   0  0  0  0  0  0
  -28.8561  -20.5175   21.6083 N   0  0  0  0  0  0
  -29.6492  -16.7432   20.4224 N   0  0  0  0  0  0
  -31.4438  -13.1409   19.1999 H   0  0  0  0  0  0
  -30.5346  -12.0388   20.1783 H   0  0  0  0  0  0
  -29.9553  -11.7752   17.7403 H   0  0  0  0  0  0
  -29.5455  -13.4705   17.6388 H   0  0  0  0  0  0
  -28.0871  -11.2863   19.1428 H   0  0  0  0  0  0
  -27.4324  -12.3003   17.8805 H   0  0  0  0  0  0
  -27.5013  -14.2390   19.2944 H   0  0  0  0  0  0
  -28.8354  -12.6238   21.5176 H   0  0  0  0  0  0
  -28.2404  -14.2601   21.6679 H   0  0  0  0  0  0
  -25.2792   -9.5683   22.4770 H   0  0  0  0  0  0
  -24.0018   -7.4638   22.7477 H   0  0  0  0  0  0
  -21.0874   -8.8800   19.8944 H   0  0  0  0  0  0
  -22.3750  -10.9688   19.6167 H   0  0  0  0  0  0
  -21.2011   -7.6155   23.9721 H   0  0  0  0  0  0
  -21.1473   -6.0529   25.9083 H   0  0  0  0  0  0
  -22.0599   -2.7617   23.2846 H   0  0  0  0  0  0
  -22.4044  -11.9833   22.4849 H   0  0  0  0  0  0
  -21.1025  -13.1164   22.2654 H   0  0  0  0  0  0
  -24.6257  -15.8486   20.5171 H   0  0  0  0  0  0
  -26.2357  -15.6355   20.0504 H   0  0  0  0  0  0
  -26.7439  -32.5029   23.0825 H   0  0  0  0  0  0
  -25.0089  -33.9403   25.0133 H   0  0  0  0  0  0
  -22.8129  -31.2538   21.3339 H   0  0  0  0  0  0
  -23.3766  -35.9493   23.3275 H   0  0  0  0  0  0
  -24.3568  -36.8870   22.2071 H   0  0  0  0  0  0
  -23.7243  -37.6348   23.6739 H   0  0  0  0  0  0
  -26.2581  -31.3168   20.6257 H   0  0  0  0  0  0
  -26.9249  -30.6471   22.0693 H   0  0  0  0  0  0
  -28.1454  -28.4777   21.3310 H   0  0  0  0  0  0
  -25.8599  -25.6924   18.9777 H   0  0  0  0  0  0
  -24.0282  -27.2569   18.9180 H   0  0  0  0  0  0
  -23.9062  -30.4957   19.3833 H   0  0  0  0  0  0
  -22.8494  -29.1896   19.8177 H   0  0  0  0  0  0
  -25.1338  -36.1704   25.0781 H   0  0  0  0  0  0
  -21.0043  -28.3379   24.1287 H   0  0  0  0  0  0
  -20.5683  -26.2381   23.3657 H   0  0  0  0  0  0
  -21.6670  -26.7396   22.1211 H   0  0  0  0  0  0
  -19.6940  -25.6268   21.1284 H   0  0  0  0  0  0
  -19.6725  -27.3149   20.6720 H   0  0  0  0  0  0
  -17.4233  -26.6690   21.4015 H   0  0  0  0  0  0
  -18.0346  -26.0104   22.9027 H   0  0  0  0  0  0
  -19.7983  -30.7328   24.2169 H   0  0  0  0  0  0
  -17.5053  -31.6272   24.5161 H   0  0  0  0  0  0
  -15.5386  -30.2961   23.7717 H   0  0  0  0  0  0
  -15.8720  -28.0813   22.7097 H   0  0  0  0  0  0
  -24.5894  -30.7104   25.7626 H   0  0  0  0  0  0
  -24.8804  -32.3005   26.4540 H   0  0  0  0  0  0
  -25.7865  -30.9112   27.0227 H   0  0  0  0  0  0
  -26.3178  -29.6502   24.1493 H   0  0  0  0  0  0
  -27.3957  -29.7263   25.5198 H   0  0  0  0  0  0
  -27.9144  -30.4010   23.9977 H   0  0  0  0  0  0
  -27.2607  -33.3717   26.1886 H   0  0  0  0  0  0
  -28.3955  -32.6772   25.0399 H   0  0  0  0  0  0
  -28.0594  -31.8593   26.5579 H   0  0  0  0  0  0
  -28.2547  -38.0065   24.7510 H   0  0  0  0  0  0
  -28.1090  -36.2584   24.6301 H   0  0  0  0  0  0
  -27.2277  -37.1386   25.8872 H   0  0  0  0  0  0
  -20.9655  -29.8726   21.6607 H   0  0  0  0  0  0
  -26.0107  -38.2728   24.1430 H   0  0  0  0  0  0
  -30.7075  -19.2915   18.2222 H   0  0  0  0  0  0
  -29.2538  -18.3278   17.9822 H   0  0  0  0  0  0
  -30.8136  -17.5428   18.2353 H   0  0  0  0  0  0
  -27.4923  -19.2504   24.4763 H   0  0  0  0  0  0
  -26.7134  -19.4655   22.9148 H   0  0  0  0  0  0
  -27.2292  -20.8719   23.8430 H   0  0  0  0  0  0
  -30.9703  -20.1631   23.3171 H   0  0  0  0  0  0
  -30.0142  -19.7279   24.7278 H   0  0  0  0  0  0
  -29.8797  -21.3426   24.0392 H   0  0  0  0  0  0
  -26.8436  -23.8863   20.0995 H   0  0  0  0  0  0
  -27.9610  -24.0254   18.8085 H   0  0  0  0  0  0
  -30.9145  -18.5160   20.5112 H   0  0  0  0  0  0
  -29.0666  -18.7409   22.6505 H   0  0  0  0  0  0
  -28.6774  -16.5885   20.6480 H   0  0  0  0  0  0
  1 25  1  0  0  0
  1 30  2  0  0  0
  1 82  1  0  0  0
  2  3  1  0  0  0
  2 25  1  0  0  0
  2 83  1  0  0  0
  2 84  1  0  0  0
  3  4  1  0  0  0
  3 85  1  0  0  0
  3 86  1  0  0  0
  4  5  1  0  0  0
  4 87  1  0  0  0
  4 88  1  0  0  0
  5  6  1  0  0  0
  5 26  1  0  0  0
  5 89  1  0  0  0
  6 25  1  0  0  0
  6 90  1  0  0  0
  6 91  1  0  0  0
  7  8  2  0  0  0
  7 26  1  0  0  0
  7 29  1  0  0  0
  8  9  1  0  0  0
  8 22  1  0  0  0
  9 10  1  0  0  0
  9 27  2  0  0  0
 10 11  2  0  0  0
 10 15  1  0  0  0
 11 12  1  0  0  0
 11 92  1  0  0  0
 12 13  2  0  0  0
 12 93  1  0  0  0
 13 14  1  0  0  0
 13 31  1  0  0  0
 14 15  2  0  0  0
 14 94  1  0  0  0
 15 95  1  0  0  0
 16 17  2  0  0  0
 16 21  1  0  0  0
 16 31  1  0  0  0
 17 18  1  0  0  0
 17 96  1  0  0  0
 18 19  2  0  0  0
 18 97  1  0  0  0
 19 20  1  0  0  0
 19 24  1  0  0  0
 20 21  2  0  0  0
 20 98  1  0  0  0
 21 23  1  0  0  0
 22 28  1  0  0  0
 22 32  2  0  0  0
 26 27  1  0  0  0
 28 99  1  0  0  0
 28100  1  0  0  0
 29101  1  0  0  0
 29102  1  0  0  0
 33 34  1  0  0  0
 33 66  1  0  0  0
 33 70  2  0  0  0
 34 36  1  0  0  0
 34 59  1  0  0  0
 34103  1  0  0  0
 35 44  2  0  0  0
 35 45  1  0  0  0
 35 68  1  0  0  0
 36 56  1  0  0  0
 36104  1  0  0  0
 37 39  1  0  0  0
 37 47  1  0  0  0
 37 66  1  0  0  0
 37105  1  0  0  0
 38 43  2  0  0  0
 38 46  1  0  0  0
 38 47  1  0  0  0
 39 64  1  0  0  0
 39 67  2  0  0  0
 40 52  1  0  0  0
 40 53  2  0  0  0
 40 58  1  0  0  0
 41106  1  0  0  0
 41107  1  0  0  0
 41108  1  0  0  0
 41 48  1  0  0  0
 42 43  1  0  0  0
 42 66  1  0  0  0
 42109  1  0  0  0
 42110  1  0  0  0
 43 44  1  0  0  0
 44111  1  0  0  0
 45 46  2  0  0  0
 45112  1  0  0  0
 46113  1  0  0  0
 47114  1  0  0  0
 47115  1  0  0  0
 48 56  1  0  0  0
 48 65  1  0  0  0
 48116  1  0  0  0
 49 50  1  0  0  0
 49 53  1  0  0  0
 49 64  1  0  0  0
 49117  1  0  0  0
 50 51  1  0  0  0
 50118  1  0  0  0
 50119  1  0  0  0
 51 52  1  0  0  0
 51120  1  0  0  0
 51121  1  0  0  0
 52122  1  0  0  0
 52123  1  0  0  0
 53 54  1  0  0  0
 54 55  2  0  0  0
 54124  1  0  0  0
 55 57  1  0  0  0
 55125  1  0  0  0
 56 69  2  0  0  0
 57 58  2  0  0  0
 57126  1  0  0  0
 58127  1  0  0  0
 59 60  1  0  0  0
 59 61  1  0  0  0
 59 62  1  0  0  0
 60128  1  0  0  0
 60129  1  0  0  0
 60130  1  0  0  0
 61131  1  0  0  0
 61132  1  0  0  0
 61133  1  0  0  0
 62134  1  0  0  0
 62135  1  0  0  0
 62136  1  0  0  0
 63 65  1  0  0  0
 63137  1  0  0  0
 63138  1  0  0  0
 63139  1  0  0  0
 64140  1  0  0  0
 65141  1  0  0  0
 68 76  1  0  0  0
 71 76  1  0  0  0
 71 79  1  0  0  0
 71 80  2  0  0  0
 72 77  1  0  0  0
 72 79  2  0  0  0
 72 81  1  0  0  0
 73142  1  0  0  0
 73143  1  0  0  0
 73144  1  0  0  0
 73 77  1  0  0  0
 74145  1  0  0  0
 74146  1  0  0  0
 74147  1  0  0  0
 74 78  1  0  0  0
 75 78  1  0  0  0
 75148  1  0  0  0
 75149  1  0  0  0
 75150  1  0  0  0
 76151  1  0  0  0
 76152  1  0  0  0
 77 82  1  0  0  0
 77153  1  0  0  0
 78 81  1  0  0  0
 78154  1  0  0  0
 80 81  1  0  0  0
 82155  1  0  0  0
M  ISO  4   1 100  68 101  76 101  82 100
M  END
> <chiral flag>
0

> <version>
0

> <s_m_source_file>
/data/baiqing/PycharmProjects/Reinvent-master-3.2/result/LINK_invent/BTK/process_docking_weight1_custom_sum_contain_oxygen_bond_distance_aromatic_linkinvent_7_9_3/rearranged_h_0060.sdf

> <i_m_source_file_index>
31

> <r_mmod_Potential_Energy-OPLS-2005>
1707.54760742188

> <r_mmod_Stretch_Energy-OPLS-2005>
764.559204101562

> <r_mmod_Bend_Energy-OPLS-2005>
567.847595214844

> <r_mmod_Torsional_Energy-OPLS-2005>
237.921966552734

> <r_mmod_Improper_Torsional_Energy-OPLS-2005>
7.87537622451782

> <r_mmod_Van_der_Waal_Energy-OPLS-2005>
104.178329467773

> <r_mmod_Electrostatic_Energy-OPLS-2005>
-381.898040771484

> <r_mmod_Solvation_Energy-OPLS-2005>
-235.022750854492

> <b_mmod_Minimization_Converged-OPLS-2005>
0

> <r_mmod_RMS_Derivative-OPLS-2005>
1.54784154891968

$$$$
33
                    3D
 Structure written by MMmdl.
157165  0  0  1  0            999 V2000
  -30.5198  -15.0109   20.4067 C   0  0  0  0  0  0
  -30.4388  -12.6338   19.4839 C   0  0  0  0  0  0
  -29.5146  -12.5379   18.2477 C   0  0  0  0  0  0
  -28.0478  -12.3219   18.6687 C   0  0  0  0  0  0
  -27.6220  -13.2568   19.8301 C   0  0  2  0  0  0
  -28.6697  -13.3167   20.9610 C   0  0  0  0  0  0
  -25.2451  -13.8200   20.5730 C   0  0  0  0  0  0
  -24.1779  -13.0420   20.9230 C   0  0  0  0  0  0
  -24.6392  -11.6908   20.8743 C   0  0  0  0  0  0
  -23.9068  -10.4273   21.0403 C   0  0  0  0  0  0
  -24.3608   -9.4188   21.9201 C   0  0  0  0  0  0
  -23.6292   -8.2218   22.0774 C   0  0  0  0  0  0
  -22.4277   -8.0248   21.3555 C   0  0  0  0  0  0
  -21.9904   -9.0221   20.4658 C   0  0  0  0  0  0
  -22.7220  -10.2112   20.3070 C   0  0  0  0  0  0
  -21.6850   -6.0696   22.5243 C   0  0  0  0  0  0
  -21.4015   -6.5607   23.8168 C   0  0  0  0  0  0
  -21.3684   -5.6774   24.9133 C   0  0  0  0  0  0
  -21.6068   -4.3040   24.7193 C   0  0  0  0  0  0
  -21.8826   -3.8115   23.4314 C   0  0  0  0  0  0
  -21.9207   -4.6925   22.3367 C   0  0  0  0  0  0
  -22.7808  -13.5173   21.1905 C   0  0  0  0  0  0
  -22.1687   -4.2113   21.0949 F   0  0  0  0  0  0
  -21.5654   -3.4533   25.7715 F   0  0  0  0  0  0
  -29.9329  -13.7435   20.3487 N   0  0  0  0  0  0
  -26.2872  -12.9463   20.3256 N   0  0  0  0  0  0
  -25.9327  -11.6572   20.5721 N   0  0  0  0  0  0
  -22.0501  -12.8133   22.0467 N   0  0  0  0  0  0
  -25.4098  -15.1932   20.4116 N   0  0  0  0  0  0
  -31.7349  -15.0648   20.1861 O   0  0  0  0  0  0
  -21.6664   -6.8837   21.4206 O   0  0  0  0  0  0
  -22.3471  -14.5494   20.6774 O   0  0  0  0  0  0
  -24.6495  -31.8381   23.1855 C   0  0  0  0  0  0
  -25.9246  -32.4671   23.8273 C   0  0  1  0  0  0
  -27.2171  -27.0788   20.1650 C   0  0  0  0  0  0
  -25.5951  -33.8479   24.2180 N   0  0  0  0  0  0
  -23.4575  -30.4545   21.5291 C   0  0  2  0  0  0
  -24.9132  -28.8750   20.1091 C   0  0  0  0  0  0
  -22.7602  -29.4506   22.4832 C   0  0  0  0  0  0
  -18.0315  -28.1394   22.8503 C   0  0  0  0  0  0
  -24.1479  -36.7247   23.2642 C   0  0  0  0  0  0
  -26.0179  -30.6944   21.3958 C   0  0  0  0  0  0
  -26.0898  -29.2990   20.7391 C   0  0  0  0  0  0
  -27.2410  -28.4155   20.7519 C   0  0  0  0  0  0
  -26.0165  -26.7763   19.4849 C   0  0  0  0  0  0
  -24.8934  -27.6306   19.4642 C   0  0  0  0  0  0
  -23.6907  -29.7803   20.1499 C   0  0  0  0  0  0
  -25.4114  -36.3028   24.0323 C   0  0  1  0  0  0
  -20.5933  -28.3717   23.1235 C   0  0  2  0  0  0
  -20.6784  -26.9414   22.5406 C   0  0  0  0  0  0
  -19.5749  -26.6379   21.5222 C   0  0  0  0  0  0
  -18.1940  -26.7937   22.1640 C   0  0  0  0  0  0
  -19.1575  -28.8875   23.2861 C   0  0  0  0  0  0
  -18.9476  -30.1467   23.8894 C   0  0  0  0  0  0
  -17.6465  -30.6587   24.0560 C   0  0  0  0  0  0
  -25.9067  -34.9397   23.5068 C   0  0  0  0  0  0
  -16.5362  -29.9071   23.6337 C   0  0  0  0  0  0
  -16.7298  -28.6484   23.0388 C   0  0  0  0  0  0
  -26.4568  -31.6547   25.0718 C   0  0  0  0  0  0
  -25.3743  -31.3748   26.1394 C   0  0  0  0  0  0
  -27.0436  -30.2924   24.6350 C   0  0  0  0  0  0
  -27.6081  -32.4330   25.7528 C   0  0  0  0  0  0
  -27.5585  -37.1774   24.8474 C   0  0  0  0  0  0
  -21.4287  -29.3038   22.3592 N   0  0  0  0  0  0
  -26.4285  -37.3738   23.9421 N   0  0  0  0  0  0
  -24.7281  -31.0176   22.0925 N   0  0  0  0  0  0
  -23.4222  -28.8056   23.3003 O   0  0  0  0  0  0
  -28.2408  -26.0481   20.2598 O   0  0  0  0  0  0
  -26.5657  -34.8912   22.4648 O   0  0  0  0  0  0
  -23.5597  -32.1283   23.7031 O   0  0  0  0  0  0
  -30.0271  -23.3515   21.1465 C   0  0  0  0  0  0
  -30.7812  -22.2239   21.5256 C   0  0  0  0  0  0
  -28.8516  -23.1812   20.4077 C   0  0  0  0  0  0
  -29.3505  -20.7128   20.4930 C   0  0  0  0  0  0
  -32.0518  -22.4031   22.3284 C   0  0  0  0  0  0
  -28.8282  -18.9450   18.6828 C   0  0  0  0  0  0
  -27.6858  -18.7867   20.9299 C   0  0  0  0  0  0
  -27.9306  -24.5177   20.0022 C   0  0  0  0  0  0
  -30.0562  -17.7774   20.6128 C   0  0  0  0  0  0
  -29.0147  -19.0862   20.2059 C   0  0  0  0  0  0
  -30.4434  -20.9480   21.2117 N   0  0  0  0  0  0
  -28.5519  -21.8109   20.1060 N   0  0  0  0  0  0
  -29.7325  -16.2060   20.5057 N   0  0  0  0  0  0
  -31.4645  -12.8106   19.1558 H   0  0  0  0  0  0
  -30.4605  -11.6914   20.0341 H   0  0  0  0  0  0
  -29.8381  -11.7296   17.5908 H   0  0  0  0  0  0
  -29.5968  -13.4568   17.6639 H   0  0  0  0  0  0
  -27.9386  -11.2796   18.9694 H   0  0  0  0  0  0
  -27.3839  -12.4659   17.8144 H   0  0  0  0  0  0
  -27.5640  -14.2507   19.3855 H   0  0  0  0  0  0
  -28.7779  -12.3534   21.4607 H   0  0  0  0  0  0
  -28.3585  -14.0335   21.7251 H   0  0  0  0  0  0
  -25.2748   -9.5673   22.4775 H   0  0  0  0  0  0
  -24.0018   -7.4600   22.7482 H   0  0  0  0  0  0
  -21.0852   -8.8680   19.8941 H   0  0  0  0  0  0
  -22.3657  -10.9628   19.6168 H   0  0  0  0  0  0
  -21.1997   -7.6119   23.9636 H   0  0  0  0  0  0
  -21.1548   -6.0525   25.9036 H   0  0  0  0  0  0
  -22.0612   -2.7570   23.2804 H   0  0  0  0  0  0
  -22.4152  -11.9746   22.4744 H   0  0  0  0  0  0
  -21.1133  -13.1116   22.2760 H   0  0  0  0  0  0
  -24.6326  -15.8384   20.5023 H   0  0  0  0  0  0
  -26.2425  -15.6235   20.0341 H   0  0  0  0  0  0
  -26.7295  -32.5286   23.0986 H   0  0  0  0  0  0
  -25.0060  -33.9573   25.0306 H   0  0  0  0  0  0
  -22.7627  -31.2813   21.3673 H   0  0  0  0  0  0
  -23.3761  -35.9557   23.3281 H   0  0  0  0  0  0
  -24.3549  -36.8908   22.2059 H   0  0  0  0  0  0
  -23.7212  -37.6427   23.6688 H   0  0  0  0  0  0
  -26.1738  -31.4465   20.6215 H   0  0  0  0  0  0
  -26.8868  -30.7505   22.0410 H   0  0  0  0  0  0
  -28.1330  -28.7260   21.2793 H   0  0  0  0  0  0
  -25.9052  -25.8261   18.9847 H   0  0  0  0  0  0
  -23.9964  -27.3068   18.9550 H   0  0  0  0  0  0
  -23.8327  -30.5512   19.3922 H   0  0  0  0  0  0
  -22.8086  -29.2189   19.8380 H   0  0  0  0  0  0
  -25.1298  -36.1852   25.0814 H   0  0  0  0  0  0
  -21.0035  -28.3299   24.1350 H   0  0  0  0  0  0
  -20.5669  -26.2326   23.3625 H   0  0  0  0  0  0
  -21.6647  -26.7395   22.1203 H   0  0  0  0  0  0
  -19.6891  -25.6282   21.1266 H   0  0  0  0  0  0
  -19.6685  -27.3184   20.6749 H   0  0  0  0  0  0
  -17.4204  -26.6719   21.4043 H   0  0  0  0  0  0
  -18.0323  -26.0067   22.9024 H   0  0  0  0  0  0
  -19.7939  -30.7302   24.2277 H   0  0  0  0  0  0
  -17.5000  -31.6281   24.5146 H   0  0  0  0  0  0
  -15.5354  -30.2965   23.7650 H   0  0  0  0  0  0
  -15.8708  -28.0772   22.7134 H   0  0  0  0  0  0
  -24.5925  -30.7098   25.7702 H   0  0  0  0  0  0
  -24.8937  -32.2936   26.4757 H   0  0  0  0  0  0
  -25.8005  -30.8949   27.0211 H   0  0  0  0  0  0
  -26.3061  -29.6624   24.1357 H   0  0  0  0  0  0
  -27.4006  -29.7243   25.4955 H   0  0  0  0  0  0
  -27.9000  -30.4115   23.9709 H   0  0  0  0  0  0
  -27.2642  -33.3634   26.2060 H   0  0  0  0  0  0
  -28.3934  -32.6887   25.0401 H   0  0  0  0  0  0
  -28.0712  -31.8493   26.5493 H   0  0  0  0  0  0
  -28.2586  -38.0089   24.7531 H   0  0  0  0  0  0
  -28.1099  -36.2616   24.6280 H   0  0  0  0  0  0
  -27.2304  -37.1407   25.8878 H   0  0  0  0  0  0
  -20.9502  -29.8734   21.6763 H   0  0  0  0  0  0
  -26.0164  -38.2812   24.1413 H   0  0  0  0  0  0
  -30.3433  -24.3489   21.4263 H   0  0  0  0  0  0
  -31.9788  -23.2762   22.9771 H   0  0  0  0  0  0
  -32.8984  -22.5498   21.6565 H   0  0  0  0  0  0
  -32.2521  -21.5388   22.9618 H   0  0  0  0  0  0
  -28.0704  -19.6322   18.3032 H   0  0  0  0  0  0
  -28.5392  -17.9324   18.4008 H   0  0  0  0  0  0
  -29.7533  -19.1801   18.1589 H   0  0  0  0  0  0
  -26.8849  -19.4468   20.5907 H   0  0  0  0  0  0
  -27.7912  -18.9418   22.0032 H   0  0  0  0  0  0
  -27.3495  -17.7620   20.7747 H   0  0  0  0  0  0
  -26.9565  -24.3222   20.4524 H   0  0  0  0  0  0
  -27.7783  -24.4286   18.9263 H   0  0  0  0  0  0
  -30.3138  -17.9307   21.6617 H   0  0  0  0  0  0
  -31.0003  -17.9258   20.0876 H   0  0  0  0  0  0
  -28.7463  -16.0005   20.5554 H   0  0  0  0  0  0
  1 25  1  0  0  0
  1 30  2  0  0  0
  1 83  1  0  0  0
  2  3  1  0  0  0
  2 25  1  0  0  0
  2 84  1  0  0  0
  2 85  1  0  0  0
  3  4  1  0  0  0
  3 86  1  0  0  0
  3 87  1  0  0  0
  4  5  1  0  0  0
  4 88  1  0  0  0
  4 89  1  0  0  0
  5  6  1  0  0  0
  5 26  1  0  0  0
  5 90  1  0  0  0
  6 25  1  0  0  0
  6 91  1  0  0  0
  6 92  1  0  0  0
  7  8  2  0  0  0
  7 26  1  0  0  0
  7 29  1  0  0  0
  8  9  1  0  0  0
  8 22  1  0  0  0
  9 10  1  0  0  0
  9 27  2  0  0  0
 10 11  2  0  0  0
 10 15  1  0  0  0
 11 12  1  0  0  0
 11 93  1  0  0  0
 12 13  2  0  0  0
 12 94  1  0  0  0
 13 14  1  0  0  0
 13 31  1  0  0  0
 14 15  2  0  0  0
 14 95  1  0  0  0
 15 96  1  0  0  0
 16 17  2  0  0  0
 16 21  1  0  0  0
 16 31  1  0  0  0
 17 18  1  0  0  0
 17 97  1  0  0  0
 18 19  2  0  0  0
 18 98  1  0  0  0
 19 20  1  0  0  0
 19 24  1  0  0  0
 20 21  2  0  0  0
 20 99  1  0  0  0
 21 23  1  0  0  0
 22 28  1  0  0  0
 22 32  2  0  0  0
 26 27  1  0  0  0
 28100  1  0  0  0
 28101  1  0  0  0
 29102  1  0  0  0
 29103  1  0  0  0
 33 34  1  0  0  0
 33 66  1  0  0  0
 33 70  2  0  0  0
 34 36  1  0  0  0
 34 59  1  0  0  0
 34104  1  0  0  0
 35 44  2  0  0  0
 35 45  1  0  0  0
 35 68  1  0  0  0
 36 56  1  0  0  0
 36105  1  0  0  0
 37 39  1  0  0  0
 37 47  1  0  0  0
 37 66  1  0  0  0
 37106  1  0  0  0
 38 43  2  0  0  0
 38 46  1  0  0  0
 38 47  1  0  0  0
 39 64  1  0  0  0
 39 67  2  0  0  0
 40 52  1  0  0  0
 40 53  2  0  0  0
 40 58  1  0  0  0
 41107  1  0  0  0
 41108  1  0  0  0
 41109  1  0  0  0
 41 48  1  0  0  0
 42 43  1  0  0  0
 42 66  1  0  0  0
 42110  1  0  0  0
 42111  1  0  0  0
 43 44  1  0  0  0
 44112  1  0  0  0
 45 46  2  0  0  0
 45113  1  0  0  0
 46114  1  0  0  0
 47115  1  0  0  0
 47116  1  0  0  0
 48 56  1  0  0  0
 48 65  1  0  0  0
 48117  1  0  0  0
 49 50  1  0  0  0
 49 53  1  0  0  0
 49 64  1  0  0  0
 49118  1  0  0  0
 50 51  1  0  0  0
 50119  1  0  0  0
 50120  1  0  0  0
 51 52  1  0  0  0
 51121  1  0  0  0
 51122  1  0  0  0
 52123  1  0  0  0
 52124  1  0  0  0
 53 54  1  0  0  0
 54 55  2  0  0  0
 54125  1  0  0  0
 55 57  1  0  0  0
 55126  1  0  0  0
 56 69  2  0  0  0
 57 58  2  0  0  0
 57127  1  0  0  0
 58128  1  0  0  0
 59 60  1  0  0  0
 59 61  1  0  0  0
 59 62  1  0  0  0
 60129  1  0  0  0
 60130  1  0  0  0
 60131  1  0  0  0
 61132  1  0  0  0
 61133  1  0  0  0
 61134  1  0  0  0
 62135  1  0  0  0
 62136  1  0  0  0
 62137  1  0  0  0
 63 65  1  0  0  0
 63138  1  0  0  0
 63139  1  0  0  0
 63140  1  0  0  0
 64141  1  0  0  0
 65142  1  0  0  0
 68 78  1  0  0  0
 71 72  2  0  0  0
 71 73  1  0  0  0
 71143  1  0  0  0
 72 75  1  0  0  0
 72 81  1  0  0  0
 73 78  1  0  0  0
 73 82  2  0  0  0
 74 80  1  0  0  0
 74 81  2  0  0  0
 74 82  1  0  0  0
 75144  1  0  0  0
 75145  1  0  0  0
 75146  1  0  0  0
 76147  1  0  0  0
 76148  1  0  0  0
 76149  1  0  0  0
 76 80  1  0  0  0
 77 80  1  0  0  0
 77150  1  0  0  0
 77151  1  0  0  0
 77152  1  0  0  0
 78153  1  0  0  0
 78154  1  0  0  0
 79 80  1  0  0  0
 79 83  1  0  0  0
 79155  1  0  0  0
 79156  1  0  0  0
 83157  1  0  0  0
M  ISO  4   1 100  68 101  78 101  83 100
M  END
> <chiral flag>
0

> <version>
0

> <s_m_source_file>
/data/baiqing/PycharmProjects/Reinvent-master-3.2/result/LINK_invent/BTK/process_docking_weight1_custom_sum_contain_oxygen_bond_distance_aromatic_linkinvent_7_9_3/rearranged_h_0060.sdf

> <i_m_source_file_index>
32

> <r_mmod_Potential_Energy-OPLS-2005>
177.048751831055

> <r_mmod_Stretch_Energy-OPLS-2005>
320.50537109375

> <r_mmod_Bend_Energy-OPLS-2005>
276.638977050781

> <r_mmod_Torsional_Energy-OPLS-2005>
215.095596313477

> <r_mmod_Improper_Torsional_Energy-OPLS-2005>
4.61237859725952

> <r_mmod_Van_der_Waal_Energy-OPLS-2005>
128.49528503418

> <r_mmod_Electrostatic_Energy-OPLS-2005>
-780.548889160156

> <r_mmod_Solvation_Energy-OPLS-2005>
-236.055480957031

> <b_mmod_Minimization_Converged-OPLS-2005>
0

> <r_mmod_RMS_Derivative-OPLS-2005>
3.43978953361511

$$$$
34
                    3D
 Structure written by MMmdl.
156164  0  0  1  0            999 V2000
  -30.5189  -15.0176   20.4038 C   0  0  0  0  0  0
  -30.4375  -12.6317   19.5110 C   0  0  0  0  0  0
  -29.5232  -12.5353   18.2672 C   0  0  0  0  0  0
  -28.0600  -12.3079   18.6871 C   0  0  0  0  0  0
  -27.6252  -13.2536   19.8365 C   0  0  2  0  0  0
  -28.6649  -13.3169   20.9750 C   0  0  0  0  0  0
  -25.2437  -13.8219   20.5729 C   0  0  0  0  0  0
  -24.1761  -13.0438   20.9243 C   0  0  0  0  0  0
  -24.6380  -11.6926   20.8759 C   0  0  0  0  0  0
  -23.9069  -10.4291   21.0406 C   0  0  0  0  0  0
  -24.3618   -9.4209   21.9184 C   0  0  0  0  0  0
  -23.6294   -8.2240   22.0751 C   0  0  0  0  0  0
  -22.4279   -8.0274   21.3544 C   0  0  0  0  0  0
  -21.9915   -9.0245   20.4645 C   0  0  0  0  0  0
  -22.7236  -10.2126   20.3053 C   0  0  0  0  0  0
  -21.6855   -6.0735   22.5275 C   0  0  0  0  0  0
  -21.4015   -6.5640   23.8205 C   0  0  0  0  0  0
  -21.3663   -5.6793   24.9169 C   0  0  0  0  0  0
  -21.6044   -4.3057   24.7224 C   0  0  0  0  0  0
  -21.8820   -3.8146   23.4342 C   0  0  0  0  0  0
  -21.9193   -4.6961   22.3399 C   0  0  0  0  0  0
  -22.7783  -13.5203   21.1892 C   0  0  0  0  0  0
  -22.1663   -4.2145   21.0975 F   0  0  0  0  0  0
  -21.5630   -3.4539   25.7737 F   0  0  0  0  0  0
  -29.9330  -13.7458   20.3717 N   0  0  0  0  0  0
  -26.2860  -12.9464   20.3248 N   0  0  0  0  0  0
  -25.9313  -11.6588   20.5745 N   0  0  0  0  0  0
  -22.0444  -12.8176   22.0447 N   0  0  0  0  0  0
  -25.4113  -15.1947   20.4143 N   0  0  0  0  0  0
  -31.7243  -15.0679   20.1351 O   0  0  0  0  0  0
  -21.6644   -6.8874   21.4235 O   0  0  0  0  0  0
  -22.3458  -14.5509   20.6742 O   0  0  0  0  0  0
  -24.6500  -31.8385   23.1831 C   0  0  0  0  0  0
  -25.9240  -32.4667   23.8235 C   0  0  1  0  0  0
  -27.2099  -27.0692   20.1595 C   0  0  0  0  0  0
  -25.5968  -33.8476   24.2152 N   0  0  0  0  0  0
  -23.4567  -30.4580   21.5303 C   0  0  2  0  0  0
  -24.9052  -28.8755   20.1112 C   0  0  0  0  0  0
  -22.7604  -29.4536   22.4837 C   0  0  0  0  0  0
  -18.0308  -28.1418   22.8481 C   0  0  0  0  0  0
  -24.1488  -36.7238   23.2645 C   0  0  0  0  0  0
  -26.0188  -30.6920   21.3909 C   0  0  0  0  0  0
  -26.0866  -29.2961   20.7351 C   0  0  0  0  0  0
  -27.2398  -28.4121   20.7386 C   0  0  0  0  0  0
  -26.0007  -26.7727   19.4907 C   0  0  0  0  0  0
  -24.8793  -27.6294   19.4707 C   0  0  0  0  0  0
  -23.6866  -29.7869   20.1507 C   0  0  0  0  0  0
  -25.4127  -36.3014   24.0311 C   0  0  1  0  0  0
  -20.5925  -28.3742   23.1225 C   0  0  2  0  0  0
  -20.6803  -26.9440   22.5404 C   0  0  0  0  0  0
  -19.5768  -26.6389   21.5220 C   0  0  0  0  0  0
  -18.1946  -26.7956   22.1624 C   0  0  0  0  0  0
  -19.1568  -28.8898   23.2841 C   0  0  0  0  0  0
  -18.9490  -30.1493   23.8865 C   0  0  0  0  0  0
  -17.6484  -30.6610   24.0566 C   0  0  0  0  0  0
  -25.9083  -34.9397   23.5046 C   0  0  0  0  0  0
  -16.5375  -29.9107   23.6346 C   0  0  0  0  0  0
  -16.7290  -28.6524   23.0361 C   0  0  0  0  0  0
  -26.4540  -31.6553   25.0705 C   0  0  0  0  0  0
  -25.3707  -31.3767   26.1388 C   0  0  0  0  0  0
  -27.0417  -30.2946   24.6321 C   0  0  0  0  0  0
  -27.6055  -32.4333   25.7506 C   0  0  0  0  0  0
  -27.5567  -37.1778   24.8469 C   0  0  0  0  0  0
  -21.4289  -29.3063   22.3597 N   0  0  0  0  0  0
  -26.4271  -37.3749   23.9419 N   0  0  0  0  0  0
  -24.7294  -31.0192   22.0890 N   0  0  0  0  0  0
  -23.4216  -28.8083   23.3006 O   0  0  0  0  0  0
  -28.2378  -26.0348   20.2133 O   0  0  0  0  0  0
  -26.5676  -34.8915   22.4629 O   0  0  0  0  0  0
  -23.5600  -32.1276   23.7017 O   0  0  0  0  0  0
  -30.9172  -22.2855   19.7866 C   0  0  0  0  0  0
  -28.8701  -23.1374   20.2144 C   0  0  0  0  0  0
  -29.3499  -20.7420   20.2902 C   0  0  0  0  0  0
  -32.3570  -22.5505   19.3985 C   0  0  0  0  0  0
  -27.7530  -18.7873   19.7298 C   0  0  0  0  0  0
  -28.6431  -19.0070   22.0668 C   0  0  0  0  0  0
  -27.8714  -24.4876   20.2513 C   0  0  0  0  0  0
  -30.0607  -17.7868   20.3012 C   0  0  0  0  0  0
  -28.9962  -19.1146   20.5746 C   0  0  0  0  0  0
  -30.1379  -23.3676   19.8869 N   0  0  0  0  0  0
  -30.6119  -20.9979   19.9774 N   0  0  0  0  0  0
  -28.4441  -21.8106   20.4267 N   0  0  0  0  0  0
  -29.7448  -16.2224   20.5263 N   0  0  0  0  0  0
  -31.4702  -12.7937   19.1985 H   0  0  0  0  0  0
  -30.4410  -11.6907   20.0641 H   0  0  0  0  0  0
  -29.8551  -11.7276   17.6138 H   0  0  0  0  0  0
  -29.5982  -13.4546   17.6844 H   0  0  0  0  0  0
  -27.9698  -11.2715   19.0145 H   0  0  0  0  0  0
  -27.3946  -12.4153   17.8304 H   0  0  0  0  0  0
  -27.5769  -14.2473   19.3891 H   0  0  0  0  0  0
  -28.7681  -12.3503   21.4701 H   0  0  0  0  0  0
  -28.3528  -14.0270   21.7420 H   0  0  0  0  0  0
  -25.2756   -9.5689   22.4768 H   0  0  0  0  0  0
  -24.0008   -7.4629   22.7466 H   0  0  0  0  0  0
  -21.0853   -8.8750   19.8945 H   0  0  0  0  0  0
  -22.3685  -10.9662   19.6169 H   0  0  0  0  0  0
  -21.2005   -7.6147   23.9706 H   0  0  0  0  0  0
  -21.1491   -6.0527   25.9072 H   0  0  0  0  0  0
  -22.0599   -2.7607   23.2840 H   0  0  0  0  0  0
  -22.4082  -11.9835   22.4809 H   0  0  0  0  0  0
  -21.1060  -13.1179   22.2676 H   0  0  0  0  0  0
  -24.6391  -15.8447   20.5130 H   0  0  0  0  0  0
  -26.2470  -15.6265   20.0428 H   0  0  0  0  0  0
  -26.7310  -32.5250   23.0963 H   0  0  0  0  0  0
  -25.0118  -33.9587   25.0305 H   0  0  0  0  0  0
  -22.7627  -31.2857   21.3724 H   0  0  0  0  0  0
  -23.3757  -35.9560   23.3293 H   0  0  0  0  0  0
  -24.3567  -36.8880   22.2058 H   0  0  0  0  0  0
  -23.7235  -37.6425   23.6697 H   0  0  0  0  0  0
  -26.1820  -31.4394   20.6127 H   0  0  0  0  0  0
  -26.8885  -30.7454   22.0338 H   0  0  0  0  0  0
  -28.1387  -28.7315   21.2462 H   0  0  0  0  0  0
  -25.8765  -25.8331   18.9771 H   0  0  0  0  0  0
  -23.9806  -27.3057   18.9639 H   0  0  0  0  0  0
  -23.8313  -30.5611   19.3959 H   0  0  0  0  0  0
  -22.7989  -29.2356   19.8348 H   0  0  0  0  0  0
  -25.1316  -36.1826   25.0800 H   0  0  0  0  0  0
  -21.0017  -28.3343   24.1343 H   0  0  0  0  0  0
  -20.5719  -26.2357   23.3634 H   0  0  0  0  0  0
  -21.6668  -26.7460   22.1186 H   0  0  0  0  0  0
  -19.6931  -25.6293   21.1257 H   0  0  0  0  0  0
  -19.6705  -27.3207   20.6756 H   0  0  0  0  0  0
  -17.4224  -26.6702   21.4017 H   0  0  0  0  0  0
  -18.0326  -26.0115   22.9029 H   0  0  0  0  0  0
  -19.7965  -30.7321   24.2209 H   0  0  0  0  0  0
  -17.5043  -31.6278   24.5189 H   0  0  0  0  0  0
  -15.5376  -30.3006   23.7696 H   0  0  0  0  0  0
  -15.8687  -28.0843   22.7096 H   0  0  0  0  0  0
  -24.5909  -30.7085   25.7718 H   0  0  0  0  0  0
  -24.8874  -32.2956   26.4711 H   0  0  0  0  0  0
  -25.7981  -30.9013   27.0227 H   0  0  0  0  0  0
  -26.3047  -29.6665   24.1305 H   0  0  0  0  0  0
  -27.3994  -29.7251   25.4906 H   0  0  0  0  0  0
  -27.8972  -30.4170   23.9677 H   0  0  0  0  0  0
  -27.2634  -33.3670   26.1988 H   0  0  0  0  0  0
  -28.3931  -32.6836   25.0382 H   0  0  0  0  0  0
  -28.0658  -31.8515   26.5495 H   0  0  0  0  0  0
  -28.2583  -38.0080   24.7526 H   0  0  0  0  0  0
  -28.1057  -36.2610   24.6281 H   0  0  0  0  0  0
  -27.2282  -37.1413   25.8871 H   0  0  0  0  0  0
  -20.9519  -29.8759   21.6755 H   0  0  0  0  0  0
  -26.0115  -38.2803   24.1437 H   0  0  0  0  0  0
  -32.5002  -23.5758   19.0556 H   0  0  0  0  0  0
  -32.6656  -21.8861   18.5912 H   0  0  0  0  0  0
  -33.0130  -22.3833   20.2525 H   0  0  0  0  0  0
  -26.9312  -19.4685   19.9526 H   0  0  0  0  0  0
  -27.3947  -17.7749   19.9097 H   0  0  0  0  0  0
  -27.9740  -18.8783   18.6665 H   0  0  0  0  0  0
  -27.8522  -19.7064   22.3382 H   0  0  0  0  0  0
  -29.5131  -19.2388   22.6819 H   0  0  0  0  0  0
  -28.3041  -18.0060   22.3316 H   0  0  0  0  0  0
  -27.2527  -24.3565   21.1398 H   0  0  0  0  0  0
  -27.2043  -24.2983   19.4141 H   0  0  0  0  0  0
  -30.9659  -17.9887   20.8749 H   0  0  0  0  0  0
  -30.3807  -17.8650   19.2618 H   0  0  0  0  0  0
  -28.7759  -16.0342   20.7360 H   0  0  0  0  0  0
  1 25  1  0  0  0
  1 30  2  0  0  0
  1 83  1  0  0  0
  2  3  1  0  0  0
  2 25  1  0  0  0
  2 84  1  0  0  0
  2 85  1  0  0  0
  3  4  1  0  0  0
  3 86  1  0  0  0
  3 87  1  0  0  0
  4  5  1  0  0  0
  4 88  1  0  0  0
  4 89  1  0  0  0
  5  6  1  0  0  0
  5 26  1  0  0  0
  5 90  1  0  0  0
  6 25  1  0  0  0
  6 91  1  0  0  0
  6 92  1  0  0  0
  7  8  2  0  0  0
  7 26  1  0  0  0
  7 29  1  0  0  0
  8  9  1  0  0  0
  8 22  1  0  0  0
  9 10  1  0  0  0
  9 27  2  0  0  0
 10 11  2  0  0  0
 10 15  1  0  0  0
 11 12  1  0  0  0
 11 93  1  0  0  0
 12 13  2  0  0  0
 12 94  1  0  0  0
 13 14  1  0  0  0
 13 31  1  0  0  0
 14 15  2  0  0  0
 14 95  1  0  0  0
 15 96  1  0  0  0
 16 17  2  0  0  0
 16 21  1  0  0  0
 16 31  1  0  0  0
 17 18  1  0  0  0
 17 97  1  0  0  0
 18 19  2  0  0  0
 18 98  1  0  0  0
 19 20  1  0  0  0
 19 24  1  0  0  0
 20 21  2  0  0  0
 20 99  1  0  0  0
 21 23  1  0  0  0
 22 28  1  0  0  0
 22 32  2  0  0  0
 26 27  1  0  0  0
 28100  1  0  0  0
 28101  1  0  0  0
 29102  1  0  0  0
 29103  1  0  0  0
 33 34  1  0  0  0
 33 66  1  0  0  0
 33 70  2  0  0  0
 34 36  1  0  0  0
 34 59  1  0  0  0
 34104  1  0  0  0
 35 44  2  0  0  0
 35 45  1  0  0  0
 35 68  1  0  0  0
 36 56  1  0  0  0
 36105  1  0  0  0
 37 39  1  0  0  0
 37 47  1  0  0  0
 37 66  1  0  0  0
 37106  1  0  0  0
 38 43  2  0  0  0
 38 46  1  0  0  0
 38 47  1  0  0  0
 39 64  1  0  0  0
 39 67  2  0  0  0
 40 52  1  0  0  0
 40 53  2  0  0  0
 40 58  1  0  0  0
 41107  1  0  0  0
 41108  1  0  0  0
 41109  1  0  0  0
 41 48  1  0  0  0
 42 43  1  0  0  0
 42 66  1  0  0  0
 42110  1  0  0  0
 42111  1  0  0  0
 43 44  1  0  0  0
 44112  1  0  0  0
 45 46  2  0  0  0
 45113  1  0  0  0
 46114  1  0  0  0
 47115  1  0  0  0
 47116  1  0  0  0
 48 56  1  0  0  0
 48 65  1  0  0  0
 48117  1  0  0  0
 49 50  1  0  0  0
 49 53  1  0  0  0
 49 64  1  0  0  0
 49118  1  0  0  0
 50 51  1  0  0  0
 50119  1  0  0  0
 50120  1  0  0  0
 51 52  1  0  0  0
 51121  1  0  0  0
 51122  1  0  0  0
 52123  1  0  0  0
 52124  1  0  0  0
 53 54  1  0  0  0
 54 55  2  0  0  0
 54125  1  0  0  0
 55 57  1  0  0  0
 55126  1  0  0  0
 56 69  2  0  0  0
 57 58  2  0  0  0
 57127  1  0  0  0
 58128  1  0  0  0
 59 60  1  0  0  0
 59 61  1  0  0  0
 59 62  1  0  0  0
 60129  1  0  0  0
 60130  1  0  0  0
 60131  1  0  0  0
 61132  1  0  0  0
 61133  1  0  0  0
 61134  1  0  0  0
 62135  1  0  0  0
 62136  1  0  0  0
 62137  1  0  0  0
 63 65  1  0  0  0
 63138  1  0  0  0
 63139  1  0  0  0
 63140  1  0  0  0
 64141  1  0  0  0
 65142  1  0  0  0
 68 77  1  0  0  0
 71 74  1  0  0  0
 71 80  2  0  0  0
 71 81  1  0  0  0
 72 77  1  0  0  0
 72 80  1  0  0  0
 72 82  2  0  0  0
 73 79  1  0  0  0
 73 81  2  0  0  0
 73 82  1  0  0  0
 74143  1  0  0  0
 74144  1  0  0  0
 74145  1  0  0  0
 75146  1  0  0  0
 75147  1  0  0  0
 75148  1  0  0  0
 75 79  1  0  0  0
 76 79  1  0  0  0
 76149  1  0  0  0
 76150  1  0  0  0
 76151  1  0  0  0
 77152  1  0  0  0
 77153  1  0  0  0
 78 79  1  0  0  0
 78 83  1  0  0  0
 78154  1  0  0  0
 78155  1  0  0  0
 83156  1  0  0  0
M  ISO  4   1 100  68 101  77 101  83 100
M  END
> <chiral flag>
0

> <version>
0

> <s_m_source_file>
/data/baiqing/PycharmProjects/Reinvent-master-3.2/result/LINK_invent/BTK/process_docking_weight1_custom_sum_contain_oxygen_bond_distance_aromatic_linkinvent_7_9_3/rearranged_h_0060.sdf

> <i_m_source_file_index>
33

> <r_mmod_Potential_Energy-OPLS-2005>
-12.7734899520874

> <r_mmod_Stretch_Energy-OPLS-2005>
330.798065185547

> <r_mmod_Bend_Energy-OPLS-2005>
283.256958007812

> <r_mmod_Torsional_Energy-OPLS-2005>
210.309555053711

> <r_mmod_Improper_Torsional_Energy-OPLS-2005>
4.76609945297241

> <r_mmod_Van_der_Waal_Energy-OPLS-2005>
142.106994628906

> <r_mmod_Electrostatic_Energy-OPLS-2005>
-991.82421875

> <r_mmod_Solvation_Energy-OPLS-2005>
-243.111801147461

> <b_mmod_Minimization_Converged-OPLS-2005>
0

> <r_mmod_RMS_Derivative-OPLS-2005>
1.62765336036682

$$$$
35
                    3D
 Structure written by MMmdl.
161169  0  0  1  0            999 V2000
  -30.7395  -14.3895   20.6601 C   0  0  0  0  0  0
  -30.4201  -12.2897   19.4152 C   0  0  0  0  0  0
  -29.4850  -12.5054   18.2080 C   0  0  0  0  0  0
  -28.0077  -12.3585   18.6215 C   0  0  0  0  0  0
  -27.6623  -13.1958   19.8800 C   0  0  2  0  0  0
  -28.6969  -12.9496   21.0006 C   0  0  0  0  0  0
  -25.2590  -13.8163   20.5665 C   0  0  0  0  0  0
  -24.1810  -13.0440   20.9163 C   0  0  0  0  0  0
  -24.6352  -11.6917   20.8742 C   0  0  0  0  0  0
  -23.9014  -10.4291   21.0411 C   0  0  0  0  0  0
  -24.3588   -9.4202   21.9171 C   0  0  0  0  0  0
  -23.6276   -8.2235   22.0741 C   0  0  0  0  0  0
  -22.4257   -8.0266   21.3535 C   0  0  0  0  0  0
  -21.9877   -9.0238   20.4640 C   0  0  0  0  0  0
  -22.7198  -10.2123   20.3053 C   0  0  0  0  0  0
  -21.6845   -6.0728   22.5277 C   0  0  0  0  0  0
  -21.4007   -6.5637   23.8208 C   0  0  0  0  0  0
  -21.3658   -5.6790   24.9169 C   0  0  0  0  0  0
  -21.6041   -4.3056   24.7218 C   0  0  0  0  0  0
  -21.8821   -3.8145   23.4342 C   0  0  0  0  0  0
  -21.9191   -4.6958   22.3395 C   0  0  0  0  0  0
  -22.7844  -13.5254   21.1831 C   0  0  0  0  0  0
  -22.1657   -4.2142   21.0974 F   0  0  0  0  0  0
  -21.5630   -3.4543   25.7733 F   0  0  0  0  0  0
  -30.0395  -13.2431   20.4654 N   0  0  0  0  0  0
  -26.2995  -12.9300   20.3372 N   0  0  0  0  0  0
  -25.9267  -11.6467   20.5763 N   0  0  0  0  0  0
  -22.0500  -12.8250   22.0419 N   0  0  0  0  0  0
  -25.4387  -15.1865   20.4089 N   0  0  0  0  0  0
  -31.8147  -14.6301   20.1041 O   0  0  0  0  0  0
  -21.6630   -6.8868   21.4233 O   0  0  0  0  0  0
  -22.3523  -14.5546   20.6678 O   0  0  0  0  0  0
  -24.6130  -31.8695   23.2169 C   0  0  0  0  0  0
  -25.9055  -32.4826   23.8427 C   0  0  1  0  0  0
  -27.2231  -27.4478   20.1116 C   0  0  0  0  0  0
  -25.5915  -33.8617   24.2353 N   0  0  0  0  0  0
  -23.3992  -30.4995   21.5535 C   0  0  2  0  0  0
  -24.8450  -28.9792   20.1055 C   0  0  0  0  0  0
  -22.7419  -29.4658   22.4967 C   0  0  0  0  0  0
  -18.0282  -28.1369   22.8522 C   0  0  0  0  0  0
  -24.1467  -36.7307   23.2645 C   0  0  0  0  0  0
  -25.9299  -30.8430   21.3684 C   0  0  0  0  0  0
  -26.0052  -29.4839   20.7089 C   0  0  0  0  0  0
  -27.1974  -28.7267   20.7068 C   0  0  0  0  0  0
  -26.0544  -26.9768   19.4677 C   0  0  0  0  0  0
  -24.8666  -27.7262   19.4752 C   0  0  0  0  0  0
  -23.6053  -29.8407   20.1632 C   0  0  0  0  0  0
  -25.4087  -36.3116   24.0346 C   0  0  1  0  0  0
  -20.5882  -28.3645   23.1341 C   0  0  2  0  0  0
  -20.6752  -26.9376   22.5432 C   0  0  0  0  0  0
  -19.5719  -26.6366   21.5238 C   0  0  0  0  0  0
  -18.1903  -26.7919   22.1652 C   0  0  0  0  0  0
  -19.1536  -28.8823   23.2930 C   0  0  0  0  0  0
  -18.9452  -30.1439   23.8918 C   0  0  0  0  0  0
  -17.6449  -30.6578   24.0574 C   0  0  0  0  0  0
  -25.9018  -34.9479   23.5143 C   0  0  0  0  0  0
  -16.5346  -29.9068   23.6342 C   0  0  0  0  0  0
  -16.7266  -28.6491   23.0358 C   0  0  0  0  0  0
  -26.4475  -31.6617   25.0762 C   0  0  0  0  0  0
  -25.3756  -31.3741   26.1532 C   0  0  0  0  0  0
  -27.0324  -30.3059   24.6168 C   0  0  0  0  0  0
  -27.6053  -32.4337   25.7526 C   0  0  0  0  0  0
  -27.5560  -37.1825   24.8474 C   0  0  0  0  0  0
  -21.4144  -29.3017   22.3728 N   0  0  0  0  0  0
  -26.4278  -37.3794   23.9408 N   0  0  0  0  0  0
  -24.6657  -31.0840   22.1040 N   0  0  0  0  0  0
  -23.4218  -28.8183   23.2975 O   0  0  0  0  0  0
  -28.3713  -26.6889   20.1825 O   0  0  0  0  0  0
  -26.5566  -34.8923   22.4696 O   0  0  0  0  0  0
  -23.5342  -32.1420   23.7615 O   0  0  0  0  0  0
  -31.5114  -20.7961   21.0787 C   0  0  0  0  0  0
  -30.2613  -20.9968   21.7135 C   0  0  0  0  0  0
  -28.4818  -17.5191   20.4413 C   0  0  0  0  0  0
  -30.6237  -17.3494   19.1731 C   0  0  0  0  0  0
  -29.7500  -22.2875   22.2923 C   0  0  0  0  0  0
  -28.9399  -23.0802   21.2512 C   0  0  0  0  0  0
  -29.0272  -24.6149   21.3647 C   0  0  0  0  0  0
  -30.5572  -16.6850   21.6526 C   0  0  0  0  0  0
  -28.1775  -25.2699   20.2646 C   0  0  0  0  0  0
  -30.0175  -17.6633   20.5634 C   0  0  0  0  0  0
  -31.5952  -19.5756   20.6208 N   0  0  0  0  0  0
  -29.5658  -19.8851   21.6425 N   0  0  0  0  0  0
  -30.3776  -19.0479   20.9259 N   0  0  0  0  0  0
  -30.1424  -15.2880   21.4517 N   0  0  0  0  0  0
  -31.4611  -12.4040   19.1069 H   0  0  0  0  0  0
  -30.3329  -11.2707   19.7955 H   0  0  0  0  0  0
  -29.7231  -11.7931   17.4171 H   0  0  0  0  0  0
  -29.6493  -13.4971   17.7843 H   0  0  0  0  0  0
  -27.8197  -11.3019   18.8188 H   0  0  0  0  0  0
  -27.3516  -12.6313   17.7938 H   0  0  0  0  0  0
  -27.7177  -14.2444   19.5885 H   0  0  0  0  0  0
  -28.6572  -11.9073   21.3198 H   0  0  0  0  0  0
  -28.4424  -13.5285   21.8896 H   0  0  0  0  0  0
  -25.2743   -9.5689   22.4726 H   0  0  0  0  0  0
  -24.0002   -7.4626   22.7453 H   0  0  0  0  0  0
  -21.0810   -8.8748   19.8947 H   0  0  0  0  0  0
  -22.3651  -10.9655   19.6164 H   0  0  0  0  0  0
  -21.1996   -7.6148   23.9704 H   0  0  0  0  0  0
  -21.1481   -6.0525   25.9071 H   0  0  0  0  0  0
  -22.0602   -2.7605   23.2841 H   0  0  0  0  0  0
  -22.4132  -11.9924   22.4829 H   0  0  0  0  0  0
  -21.1111  -13.1261   22.2630 H   0  0  0  0  0  0
  -24.6902  -15.8593   20.5318 H   0  0  0  0  0  0
  -26.3051  -15.6115   20.1039 H   0  0  0  0  0  0
  -26.7154  -32.5554   23.1217 H   0  0  0  0  0  0
  -25.0135  -33.9761   25.0553 H   0  0  0  0  0  0
  -22.6848  -31.3155   21.4219 H   0  0  0  0  0  0
  -23.3718  -35.9658   23.3347 H   0  0  0  0  0  0
  -24.3576  -36.8867   22.2055 H   0  0  0  0  0  0
  -23.7218  -37.6526   23.6621 H   0  0  0  0  0  0
  -26.0516  -31.6188   20.6102 H   0  0  0  0  0  0
  -26.8156  -30.8842   21.9897 H   0  0  0  0  0  0
  -28.0881  -29.1074   21.1871 H   0  0  0  0  0  0
  -26.0455  -26.0252   18.9588 H   0  0  0  0  0  0
  -23.9834  -27.3378   18.9864 H   0  0  0  0  0  0
  -23.7086  -30.6190   19.4066 H   0  0  0  0  0  0
  -22.7289  -29.2588   19.8691 H   0  0  0  0  0  0
  -25.1270  -36.1992   25.0839 H   0  0  0  0  0  0
  -21.0009  -28.3204   24.1456 H   0  0  0  0  0  0
  -20.5666  -26.2245   23.3612 H   0  0  0  0  0  0
  -21.6610  -26.7390   22.1220 H   0  0  0  0  0  0
  -19.6851  -25.6285   21.1227 H   0  0  0  0  0  0
  -19.6656  -27.3223   20.6803 H   0  0  0  0  0  0
  -17.4179  -26.6732   21.4037 H   0  0  0  0  0  0
  -18.0268  -26.0042   22.9021 H   0  0  0  0  0  0
  -19.7917  -30.7265   24.2284 H   0  0  0  0  0  0
  -17.4990  -31.6269   24.5154 H   0  0  0  0  0  0
  -15.5345  -30.2962   23.7630 H   0  0  0  0  0  0
  -15.8676  -28.0800   22.7045 H   0  0  0  0  0  0
  -24.5926  -30.7069   25.7896 H   0  0  0  0  0  0
  -24.8955  -32.2915   26.4958 H   0  0  0  0  0  0
  -25.8141  -30.8942   27.0295 H   0  0  0  0  0  0
  -26.2901  -29.6813   24.1179 H   0  0  0  0  0  0
  -27.4043  -29.7296   25.4649 H   0  0  0  0  0  0
  -27.8750  -30.4362   23.9373 H   0  0  0  0  0  0
  -27.2668  -33.3624   26.2126 H   0  0  0  0  0  0
  -28.3864  -32.6909   25.0363 H   0  0  0  0  0  0
  -28.0719  -31.8444   26.5430 H   0  0  0  0  0  0
  -28.2631  -38.0068   24.7476 H   0  0  0  0  0  0
  -28.0999  -36.2609   24.6362 H   0  0  0  0  0  0
  -27.2294  -37.1563   25.8884 H   0  0  0  0  0  0
  -20.9280  -29.8770   21.6990 H   0  0  0  0  0  0
  -26.0171  -38.2879   24.1389 H   0  0  0  0  0  0
  -32.3100  -21.5059   20.9123 H   0  0  0  0  0  0
  -27.9825  -17.6797   21.3989 H   0  0  0  0  0  0
  -28.2047  -16.5267   20.0886 H   0  0  0  0  0  0
  -28.0736  -18.2334   19.7250 H   0  0  0  0  0  0
  -30.2097  -16.4398   18.7413 H   0  0  0  0  0  0
  -31.7072  -17.2291   19.2276 H   0  0  0  0  0  0
  -30.4249  -18.1569   18.4673 H   0  0  0  0  0  0
  -30.6007  -22.8832   22.6214 H   0  0  0  0  0  0
  -29.1481  -22.1135   23.1882 H   0  0  0  0  0  0
  -29.3052  -22.8187   20.2575 H   0  0  0  0  0  0
  -27.8998  -22.7515   21.2642 H   0  0  0  0  0  0
  -28.6798  -24.9488   22.3447 H   0  0  0  0  0  0
  -30.0653  -24.9336   21.2808 H   0  0  0  0  0  0
  -30.1844  -17.0004   22.6272 H   0  0  0  0  0  0
  -31.6442  -16.7525   21.7286 H   0  0  0  0  0  0
  -27.1507  -24.9878   20.5050 H   0  0  0  0  0  0
  -28.4000  -24.8384   19.2875 H   0  0  0  0  0  0
  -29.2891  -14.9898   21.9019 H   0  0  0  0  0  0
  1 25  1  0  0  0
  1 30  2  0  0  0
  1 84  1  0  0  0
  2  3  1  0  0  0
  2 25  1  0  0  0
  2 85  1  0  0  0
  2 86  1  0  0  0
  3  4  1  0  0  0
  3 87  1  0  0  0
  3 88  1  0  0  0
  4  5  1  0  0  0
  4 89  1  0  0  0
  4 90  1  0  0  0
  5  6  1  0  0  0
  5 26  1  0  0  0
  5 91  1  0  0  0
  6 25  1  0  0  0
  6 92  1  0  0  0
  6 93  1  0  0  0
  7  8  2  0  0  0
  7 26  1  0  0  0
  7 29  1  0  0  0
  8  9  1  0  0  0
  8 22  1  0  0  0
  9 10  1  0  0  0
  9 27  2  0  0  0
 10 11  2  0  0  0
 10 15  1  0  0  0
 11 12  1  0  0  0
 11 94  1  0  0  0
 12 13  2  0  0  0
 12 95  1  0  0  0
 13 14  1  0  0  0
 13 31  1  0  0  0
 14 15  2  0  0  0
 14 96  1  0  0  0
 15 97  1  0  0  0
 16 17  2  0  0  0
 16 21  1  0  0  0
 16 31  1  0  0  0
 17 18  1  0  0  0
 17 98  1  0  0  0
 18 19  2  0  0  0
 18 99  1  0  0  0
 19 20  1  0  0  0
 19 24  1  0  0  0
 20 21  2  0  0  0
 20100  1  0  0  0
 21 23  1  0  0  0
 22 28  1  0  0  0
 22 32  2  0  0  0
 26 27  1  0  0  0
 28101  1  0  0  0
 28102  1  0  0  0
 29103  1  0  0  0
 29104  1  0  0  0
 33 34  1  0  0  0
 33 66  1  0  0  0
 33 70  2  0  0  0
 34 36  1  0  0  0
 34 59  1  0  0  0
 34105  1  0  0  0
 35 44  2  0  0  0
 35 45  1  0  0  0
 35 68  1  0  0  0
 36 56  1  0  0  0
 36106  1  0  0  0
 37 39  1  0  0  0
 37 47  1  0  0  0
 37 66  1  0  0  0
 37107  1  0  0  0
 38 43  2  0  0  0
 38 46  1  0  0  0
 38 47  1  0  0  0
 39 64  1  0  0  0
 39 67  2  0  0  0
 40 52  1  0  0  0
 40 53  2  0  0  0
 40 58  1  0  0  0
 41108  1  0  0  0
 41109  1  0  0  0
 41110  1  0  0  0
 41 48  1  0  0  0
 42 43  1  0  0  0
 42 66  1  0  0  0
 42111  1  0  0  0
 42112  1  0  0  0
 43 44  1  0  0  0
 44113  1  0  0  0
 45 46  2  0  0  0
 45114  1  0  0  0
 46115  1  0  0  0
 47116  1  0  0  0
 47117  1  0  0  0
 48 56  1  0  0  0
 48 65  1  0  0  0
 48118  1  0  0  0
 49 50  1  0  0  0
 49 53  1  0  0  0
 49 64  1  0  0  0
 49119  1  0  0  0
 50 51  1  0  0  0
 50120  1  0  0  0
 50121  1  0  0  0
 51 52  1  0  0  0
 51122  1  0  0  0
 51123  1  0  0  0
 52124  1  0  0  0
 52125  1  0  0  0
 53 54  1  0  0  0
 54 55  2  0  0  0
 54126  1  0  0  0
 55 57  1  0  0  0
 55127  1  0  0  0
 56 69  2  0  0  0
 57 58  2  0  0  0
 57128  1  0  0  0
 58129  1  0  0  0
 59 60  1  0  0  0
 59 61  1  0  0  0
 59 62  1  0  0  0
 60130  1  0  0  0
 60131  1  0  0  0
 60132  1  0  0  0
 61133  1  0  0  0
 61134  1  0  0  0
 61135  1  0  0  0
 62136  1  0  0  0
 62137  1  0  0  0
 62138  1  0  0  0
 63 65  1  0  0  0
 63139  1  0  0  0
 63140  1  0  0  0
 63141  1  0  0  0
 64142  1  0  0  0
 65143  1  0  0  0
 68 79  1  0  0  0
 71 72  1  0  0  0
 71 81  2  0  0  0
 71144  1  0  0  0
 72 75  1  0  0  0
 72 82  2  0  0  0
 73145  1  0  0  0
 73146  1  0  0  0
 73147  1  0  0  0
 73 80  1  0  0  0
 74 80  1  0  0  0
 74148  1  0  0  0
 74149  1  0  0  0
 74150  1  0  0  0
 75 76  1  0  0  0
 75151  1  0  0  0
 75152  1  0  0  0
 76 77  1  0  0  0
 76153  1  0  0  0
 76154  1  0  0  0
 77 79  1  0  0  0
 77155  1  0  0  0
 77156  1  0  0  0
 78 80  1  0  0  0
 78 84  1  0  0  0
 78157  1  0  0  0
 78158  1  0  0  0
 79159  1  0  0  0
 79160  1  0  0  0
 80 83  1  0  0  0
 81 83  1  0  0  0
 82 83  1  0  0  0
 84161  1  0  0  0
M  ISO  4   1 100  68 101  79 101  84 100
M  END
> <chiral flag>
0

> <version>
0

> <s_m_source_file>
/data/baiqing/PycharmProjects/Reinvent-master-3.2/result/LINK_invent/BTK/process_docking_weight1_custom_sum_contain_oxygen_bond_distance_aromatic_linkinvent_7_9_3/rearranged_h_0060.sdf

> <i_m_source_file_index>
34

> <r_mmod_Potential_Energy-OPLS-2005>
-84.9663848876953

> <r_mmod_Stretch_Energy-OPLS-2005>
35.3187446594238

> <r_mmod_Bend_Energy-OPLS-2005>
102.776542663574

> <r_mmod_Torsional_Energy-OPLS-2005>
232.624053955078

> <r_mmod_Improper_Torsional_Energy-OPLS-2005>
2.33356094360352

> <r_mmod_Van_der_Waal_Energy-OPLS-2005>
142.745346069336

> <r_mmod_Electrostatic_Energy-OPLS-2005>
-400.614562988281

> <r_mmod_Solvation_Energy-OPLS-2005>
-211.737915039062

> <b_mmod_Minimization_Converged-OPLS-2005>
0

> <r_mmod_RMS_Derivative-OPLS-2005>
3.76698899269104

$$$$
36
                    3D
 Structure written by MMmdl.
158167  0  0  1  0            999 V2000
  -30.7061  -14.5755   20.4865 C   0  0  0  0  0  0
  -30.4098  -12.3499   19.4523 C   0  0  0  0  0  0
  -29.4962  -12.4996   18.2187 C   0  0  0  0  0  0
  -28.0198  -12.3520   18.6323 C   0  0  0  0  0  0
  -27.6494  -13.2255   19.8617 C   0  0  2  0  0  0
  -28.6965  -13.1025   20.9933 C   0  0  0  0  0  0
  -25.2528  -13.8186   20.5694 C   0  0  0  0  0  0
  -24.1802  -13.0444   20.9199 C   0  0  0  0  0  0
  -24.6381  -11.6914   20.8737 C   0  0  0  0  0  0
  -23.9053  -10.4290   21.0392 C   0  0  0  0  0  0
  -24.3602   -9.4220   21.9185 C   0  0  0  0  0  0
  -23.6285   -8.2248   22.0759 C   0  0  0  0  0  0
  -22.4275   -8.0270   21.3541 C   0  0  0  0  0  0
  -21.9902   -9.0233   20.4642 C   0  0  0  0  0  0
  -22.7219  -10.2120   20.3045 C   0  0  0  0  0  0
  -21.6856   -6.0722   22.5276 C   0  0  0  0  0  0
  -21.4013   -6.5631   23.8209 C   0  0  0  0  0  0
  -21.3662   -5.6786   24.9175 C   0  0  0  0  0  0
  -21.6046   -4.3051   24.7226 C   0  0  0  0  0  0
  -21.8816   -3.8136   23.4352 C   0  0  0  0  0  0
  -21.9196   -4.6949   22.3403 C   0  0  0  0  0  0
  -22.7826  -13.5232   21.1864 C   0  0  0  0  0  0
  -22.1659   -4.2133   21.0980 F   0  0  0  0  0  0
  -21.5637   -3.4539   25.7747 F   0  0  0  0  0  0
  -30.0155  -13.3960   20.4169 N   0  0  0  0  0  0
  -26.2973  -12.9388   20.3339 N   0  0  0  0  0  0
  -25.9320  -11.6537   20.5769 N   0  0  0  0  0  0
  -22.0459  -12.8201   22.0397 N   0  0  0  0  0  0
  -25.4232  -15.1903   20.4078 N   0  0  0  0  0  0
  -31.8888  -14.6110   20.1357 O   0  0  0  0  0  0
  -21.6648   -6.8858   21.4237 O   0  0  0  0  0  0
  -22.3514  -14.5553   20.6739 O   0  0  0  0  0  0
  -24.6188  -31.8641   23.2090 C   0  0  0  0  0  0
  -25.9063  -32.4803   23.8399 C   0  0  1  0  0  0
  -27.2170  -27.3806   20.1109 C   0  0  0  0  0  0
  -25.5928  -33.8607   24.2336 N   0  0  0  0  0  0
  -23.4097  -30.4880   21.5502 C   0  0  2  0  0  0
  -24.8581  -28.9571   20.1044 C   0  0  0  0  0  0
  -22.7446  -29.4620   22.4975 C   0  0  0  0  0  0
  -18.0265  -28.1346   22.8485 C   0  0  0  0  0  0
  -24.1482  -36.7276   23.2650 C   0  0  0  0  0  0
  -25.9449  -30.8147   21.3710 C   0  0  0  0  0  0
  -26.0228  -29.4481   20.7109 C   0  0  0  0  0  0
  -27.2104  -28.6674   20.7123 C   0  0  0  0  0  0
  -26.0442  -26.9337   19.4659 C   0  0  0  0  0  0
  -24.8677  -27.7031   19.4724 C   0  0  0  0  0  0
  -23.6197  -29.8254   20.1626 C   0  0  0  0  0  0
  -25.4108  -36.3096   24.0348 C   0  0  1  0  0  0
  -20.5865  -28.3635   23.1298 C   0  0  2  0  0  0
  -20.6752  -26.9366   22.5402 C   0  0  0  0  0  0
  -19.5733  -26.6353   21.5196 C   0  0  0  0  0  0
  -18.1903  -26.7897   22.1595 C   0  0  0  0  0  0
  -19.1523  -28.8808   23.2883 C   0  0  0  0  0  0
  -18.9456  -30.1418   23.8885 C   0  0  0  0  0  0
  -17.6461  -30.6562   24.0547 C   0  0  0  0  0  0
  -25.9039  -34.9463   23.5129 C   0  0  0  0  0  0
  -16.5346  -29.9054   23.6338 C   0  0  0  0  0  0
  -16.7254  -28.6467   23.0366 C   0  0  0  0  0  0
  -26.4496  -31.6590   25.0727 C   0  0  0  0  0  0
  -25.3771  -31.3617   26.1468 C   0  0  0  0  0  0
  -27.0375  -30.3058   24.6083 C   0  0  0  0  0  0
  -27.6039  -32.4349   25.7506 C   0  0  0  0  0  0
  -27.5570  -37.1811   24.8482 C   0  0  0  0  0  0
  -21.4165  -29.3017   22.3727 N   0  0  0  0  0  0
  -26.4284  -37.3788   23.9422 N   0  0  0  0  0  0
  -24.6764  -31.0703   22.1015 N   0  0  0  0  0  0
  -23.4207  -28.8154   23.3016 O   0  0  0  0  0  0
  -28.2827  -26.4972   20.2025 O   0  0  0  0  0  0
  -26.5578  -34.8916   22.4674 O   0  0  0  0  0  0
  -23.5367  -32.1402   23.7455 O   0  0  0  0  0  0
  -29.4044  -18.1403   20.5376 C   0  0  0  0  0  0
  -31.9847  -18.6893   19.8715 C   0  0  0  0  0  0
  -29.8306  -22.4168   21.4549 C   0  0  0  0  0  0
  -29.7110  -19.4972   20.1638 C   0  0  0  0  0  0
  -31.0529  -19.7335   19.7633 C   0  0  0  0  0  0
  -30.3864  -17.1008   20.5179 C   0  0  0  0  0  0
  -28.7248  -24.1015   20.9030 C   0  0  0  0  0  0
  -31.5427  -21.0434   19.1558 C   0  0  0  0  0  0
  -27.2523  -20.1895   20.6440 C   0  0  0  0  0  0
  -27.9601  -25.4116   21.1279 C   0  0  0  0  0  0
  -28.6117  -20.6157   20.0547 C   0  0  1  0  0  0
  -31.6651  -17.4374   20.2383 N   0  0  0  0  0  0
  -29.7794  -23.7304   21.6986 N   0  0  0  0  0  0
  -28.2200  -23.0937   20.1665 N   0  0  0  0  0  0
  -28.9465  -21.9864   20.5508 N   0  0  0  0  0  0
  -29.9976  -15.7163   20.7565 N   0  0  0  0  0  0
  -31.4581  -12.4147   19.1564 H   0  0  0  0  0  0
  -30.2901  -11.3606   19.8979 H   0  0  0  0  0  0
  -29.7506  -11.7531   17.4655 H   0  0  0  0  0  0
  -29.6541  -13.4730   17.7503 H   0  0  0  0  0  0
  -27.8500  -11.2993   18.8619 H   0  0  0  0  0  0
  -27.3657  -12.5861   17.7914 H   0  0  0  0  0  0
  -27.6635  -14.2594   19.5150 H   0  0  0  0  0  0
  -28.6910  -12.0961   21.4148 H   0  0  0  0  0  0
  -28.4627  -13.7762   21.8190 H   0  0  0  0  0  0
  -25.2735   -9.5732   22.4772 H   0  0  0  0  0  0
  -23.9999   -7.4662   22.7501 H   0  0  0  0  0  0
  -21.0831   -8.8731   19.8953 H   0  0  0  0  0  0
  -22.3658  -10.9651   19.6155 H   0  0  0  0  0  0
  -21.1984   -7.6136   23.9709 H   0  0  0  0  0  0
  -21.1489   -6.0518   25.9078 H   0  0  0  0  0  0
  -22.0587   -2.7596   23.2857 H   0  0  0  0  0  0
  -22.4057  -11.9828   22.4738 H   0  0  0  0  0  0
  -21.1077  -13.1218   22.2615 H   0  0  0  0  0  0
  -24.6517  -15.8416   20.5037 H   0  0  0  0  0  0
  -26.2650  -15.6271   20.0564 H   0  0  0  0  0  0
  -26.7124  -32.5484   23.1152 H   0  0  0  0  0  0
  -25.0219  -33.9790   25.0575 H   0  0  0  0  0  0
  -22.6992  -31.3056   21.4114 H   0  0  0  0  0  0
  -23.3768  -35.9586   23.3316 H   0  0  0  0  0  0
  -24.3593  -36.8875   22.2066 H   0  0  0  0  0  0
  -23.7195  -37.6464   23.6656 H   0  0  0  0  0  0
  -26.0655  -31.5821   20.6057 H   0  0  0  0  0  0
  -26.8307  -30.8650   21.9920 H   0  0  0  0  0  0
  -28.0986  -29.0268   21.2132 H   0  0  0  0  0  0
  -26.0253  -25.9614   18.9923 H   0  0  0  0  0  0
  -23.9747  -27.3228   18.9956 H   0  0  0  0  0  0
  -23.7267  -30.6046   19.4073 H   0  0  0  0  0  0
  -22.7426  -29.2470   19.8654 H   0  0  0  0  0  0
  -25.1282  -36.1963   25.0839 H   0  0  0  0  0  0
  -20.9933  -28.3175   24.1427 H   0  0  0  0  0  0
  -20.5619  -26.2242   23.3592 H   0  0  0  0  0  0
  -21.6626  -26.7385   22.1206 H   0  0  0  0  0  0
  -19.6902  -25.6267   21.1211 H   0  0  0  0  0  0
  -19.6673  -27.3179   20.6740 H   0  0  0  0  0  0
  -17.4182  -26.6672   21.3984 H   0  0  0  0  0  0
  -18.0276  -26.0007   22.8949 H   0  0  0  0  0  0
  -19.7938  -30.7236   24.2243 H   0  0  0  0  0  0
  -17.5015  -31.6254   24.5121 H   0  0  0  0  0  0
  -15.5350  -30.2960   23.7678 H   0  0  0  0  0  0
  -15.8644  -28.0784   22.7108 H   0  0  0  0  0  0
  -24.6050  -30.6838   25.7809 H   0  0  0  0  0  0
  -24.8835  -32.2710   26.4901 H   0  0  0  0  0  0
  -25.8171  -30.8852   27.0236 H   0  0  0  0  0  0
  -26.2931  -29.6783   24.1161 H   0  0  0  0  0  0
  -27.4221  -29.7313   25.4519 H   0  0  0  0  0  0
  -27.8718  -30.4440   23.9201 H   0  0  0  0  0  0
  -27.2645  -33.3682   26.2013 H   0  0  0  0  0  0
  -28.3888  -32.6861   25.0360 H   0  0  0  0  0  0
  -28.0655  -31.8515   26.5479 H   0  0  0  0  0  0
  -28.2593  -38.0105   24.7532 H   0  0  0  0  0  0
  -28.1061  -36.2635   24.6317 H   0  0  0  0  0  0
  -27.2278  -37.1449   25.8882 H   0  0  0  0  0  0
  -20.9322  -29.8802   21.7007 H   0  0  0  0  0  0
  -26.0160  -38.2860   24.1430 H   0  0  0  0  0  0
  -28.3910  -17.8690   20.7908 H   0  0  0  0  0  0
  -33.0200  -18.8457   19.6016 H   0  0  0  0  0  0
  -30.5185  -21.7491   21.9566 H   0  0  0  0  0  0
  -32.3456  -20.8517   18.4424 H   0  0  0  0  0  0
  -31.9483  -21.7077   19.9182 H   0  0  0  0  0  0
  -30.7627  -21.5686   18.6049 H   0  0  0  0  0  0
  -26.8556  -19.3092   20.1401 H   0  0  0  0  0  0
  -26.5042  -20.9727   20.5214 H   0  0  0  0  0  0
  -27.3325  -19.9734   21.7089 H   0  0  0  0  0  0
  -28.1681  -25.7656   22.1382 H   0  0  0  0  0  0
  -26.8984  -25.1611   21.1272 H   0  0  0  0  0  0
  -28.4483  -20.7275   18.9815 H   0  0  0  0  0  0
  -29.0355  -15.5694   21.0145 H   0  0  0  0  0  0
  1 25  1  0  0  0
  1 30  2  0  0  0
  1 86  1  0  0  0
  2  3  1  0  0  0
  2 25  1  0  0  0
  2 87  1  0  0  0
  2 88  1  0  0  0
  3  4  1  0  0  0
  3 89  1  0  0  0
  3 90  1  0  0  0
  4  5  1  0  0  0
  4 91  1  0  0  0
  4 92  1  0  0  0
  5  6  1  0  0  0
  5 26  1  0  0  0
  5 93  1  0  0  0
  6 25  1  0  0  0
  6 94  1  0  0  0
  6 95  1  0  0  0
  7  8  2  0  0  0
  7 26  1  0  0  0
  7 29  1  0  0  0
  8  9  1  0  0  0
  8 22  1  0  0  0
  9 10  1  0  0  0
  9 27  2  0  0  0
 10 11  2  0  0  0
 10 15  1  0  0  0
 11 12  1  0  0  0
 11 96  1  0  0  0
 12 13  2  0  0  0
 12 97  1  0  0  0
 13 14  1  0  0  0
 13 31  1  0  0  0
 14 15  2  0  0  0
 14 98  1  0  0  0
 15 99  1  0  0  0
 16 17  2  0  0  0
 16 21  1  0  0  0
 16 31  1  0  0  0
 17 18  1  0  0  0
 17100  1  0  0  0
 18 19  2  0  0  0
 18101  1  0  0  0
 19 20  1  0  0  0
 19 24  1  0  0  0
 20 21  2  0  0  0
 20102  1  0  0  0
 21 23  1  0  0  0
 22 28  1  0  0  0
 22 32  2  0  0  0
 26 27  1  0  0  0
 28103  1  0  0  0
 28104  1  0  0  0
 29105  1  0  0  0
 29106  1  0  0  0
 33 34  1  0  0  0
 33 66  1  0  0  0
 33 70  2  0  0  0
 34 36  1  0  0  0
 34 59  1  0  0  0
 34107  1  0  0  0
 35 44  2  0  0  0
 35 45  1  0  0  0
 35 68  1  0  0  0
 36 56  1  0  0  0
 36108  1  0  0  0
 37 39  1  0  0  0
 37 47  1  0  0  0
 37 66  1  0  0  0
 37109  1  0  0  0
 38 43  2  0  0  0
 38 46  1  0  0  0
 38 47  1  0  0  0
 39 64  1  0  0  0
 39 67  2  0  0  0
 40 52  1  0  0  0
 40 53  2  0  0  0
 40 58  1  0  0  0
 41110  1  0  0  0
 41111  1  0  0  0
 41112  1  0  0  0
 41 48  1  0  0  0
 42 43  1  0  0  0
 42 66  1  0  0  0
 42113  1  0  0  0
 42114  1  0  0  0
 43 44  1  0  0  0
 44115  1  0  0  0
 45 46  2  0  0  0
 45116  1  0  0  0
 46117  1  0  0  0
 47118  1  0  0  0
 47119  1  0  0  0
 48 56  1  0  0  0
 48 65  1  0  0  0
 48120  1  0  0  0
 49 50  1  0  0  0
 49 53  1  0  0  0
 49 64  1  0  0  0
 49121  1  0  0  0
 50 51  1  0  0  0
 50122  1  0  0  0
 50123  1  0  0  0
 51 52  1  0  0  0
 51124  1  0  0  0
 51125  1  0  0  0
 52126  1  0  0  0
 52127  1  0  0  0
 53 54  1  0  0  0
 54 55  2  0  0  0
 54128  1  0  0  0
 55 57  1  0  0  0
 55129  1  0  0  0
 56 69  2  0  0  0
 57 58  2  0  0  0
 57130  1  0  0  0
 58131  1  0  0  0
 59 60  1  0  0  0
 59 61  1  0  0  0
 59 62  1  0  0  0
 60132  1  0  0  0
 60133  1  0  0  0
 60134  1  0  0  0
 61135  1  0  0  0
 61136  1  0  0  0
 61137  1  0  0  0
 62138  1  0  0  0
 62139  1  0  0  0
 62140  1  0  0  0
 63 65  1  0  0  0
 63141  1  0  0  0
 63142  1  0  0  0
 63143  1  0  0  0
 64144  1  0  0  0
 65145  1  0  0  0
 68 80  1  0  0  0
 71 74  2  0  0  0
 71 76  1  0  0  0
 71146  1  0  0  0
 72 75  2  0  0  0
 72 82  1  0  0  0
 72147  1  0  0  0
 73 83  2  0  0  0
 73 85  1  0  0  0
 73148  1  0  0  0
 74 75  1  0  0  0
 74 81  1  0  0  0
 75 78  1  0  0  0
 76 82  2  0  0  0
 76 86  1  0  0  0
 77 80  1  0  0  0
 77 83  1  0  0  0
 77 84  2  0  0  0
 78149  1  0  0  0
 78150  1  0  0  0
 78151  1  0  0  0
 79152  1  0  0  0
 79153  1  0  0  0
 79154  1  0  0  0
 79 81  1  0  0  0
 80155  1  0  0  0
 80156  1  0  0  0
 81 85  1  0  0  0
 81157  1  0  0  0
 84 85  1  0  0  0
 86158  1  0  0  0
M  ISO  4   1 100  68 101  80 101  86 100
M  END
> <chiral flag>
0

> <version>
0

> <s_m_source_file>
/data/baiqing/PycharmProjects/Reinvent-master-3.2/result/LINK_invent/BTK/process_docking_weight1_custom_sum_contain_oxygen_bond_distance_aromatic_linkinvent_7_9_3/rearranged_h_0060.sdf

> <i_m_source_file_index>
35

> <r_mmod_Potential_Energy-OPLS-2005>
-38.674144744873

> <r_mmod_Stretch_Energy-OPLS-2005>
64.6492538452148

> <r_mmod_Bend_Energy-OPLS-2005>
130.18962097168

> <r_mmod_Torsional_Energy-OPLS-2005>
259.136535644531

> <r_mmod_Improper_Torsional_Energy-OPLS-2005>
8.3664026260376

> <r_mmod_Van_der_Waal_Energy-OPLS-2005>
155.34797668457

> <r_mmod_Electrostatic_Energy-OPLS-2005>
-441.027465820312

> <r_mmod_Solvation_Energy-OPLS-2005>
-254.379684448242

> <b_mmod_Minimization_Converged-OPLS-2005>
0

> <r_mmod_RMS_Derivative-OPLS-2005>
1.55588984489441

$$$$
37
                    3D
 Structure written by MMmdl.
150158  0  0  1  0            999 V2000
  -30.5361  -15.0125   20.3795 C   0  0  0  0  0  0
  -30.4481  -12.6249   19.4993 C   0  0  0  0  0  0
  -29.5284  -12.5285   18.2586 C   0  0  0  0  0  0
  -28.0647  -12.3094   18.6838 C   0  0  0  0  0  0
  -27.6298  -13.2600   19.8263 C   0  0  2  0  0  0
  -28.6733  -13.3364   20.9601 C   0  0  0  0  0  0
  -25.2481  -13.8226   20.5685 C   0  0  0  0  0  0
  -24.1810  -13.0419   20.9197 C   0  0  0  0  0  0
  -24.6459  -11.6919   20.8793 C   0  0  0  0  0  0
  -23.9144  -10.4275   21.0458 C   0  0  0  0  0  0
  -24.3682   -9.4162   21.9224 C   0  0  0  0  0  0
  -23.6313   -8.2231   22.0806 C   0  0  0  0  0  0
  -22.4306   -8.0296   21.3577 C   0  0  0  0  0  0
  -21.9961   -9.0293   20.4691 C   0  0  0  0  0  0
  -22.7329  -10.2148   20.3079 C   0  0  0  0  0  0
  -21.6847   -6.0756   22.5282 C   0  0  0  0  0  0
  -21.4007   -6.5657   23.8211 C   0  0  0  0  0  0
  -21.3662   -5.6815   24.9183 C   0  0  0  0  0  0
  -21.6010   -4.3061   24.7242 C   0  0  0  0  0  0
  -21.8811   -3.8162   23.4369 C   0  0  0  0  0  0
  -21.9178   -4.6980   22.3414 C   0  0  0  0  0  0
  -22.7825  -13.5190   21.1848 C   0  0  0  0  0  0
  -22.1659   -4.2172   21.0989 F   0  0  0  0  0  0
  -21.5632   -3.4532   25.7751 F   0  0  0  0  0  0
  -29.9444  -13.7459   20.3471 N   0  0  0  0  0  0
  -26.2926  -12.9474   20.3208 N   0  0  0  0  0  0
  -25.9387  -11.6592   20.5751 N   0  0  0  0  0  0
  -22.0475  -12.8196   22.0417 N   0  0  0  0  0  0
  -25.4047  -15.1943   20.4162 N   0  0  0  0  0  0
  -31.7474  -15.0566   20.1402 O   0  0  0  0  0  0
  -21.6634   -6.8907   21.4260 O   0  0  0  0  0  0
  -22.3472  -14.5455   20.6654 O   0  0  0  0  0  0
  -24.6513  -31.8406   23.1870 C   0  0  0  0  0  0
  -25.9229  -32.4713   23.8291 C   0  0  1  0  0  0
  -27.2030  -27.0732   20.1483 C   0  0  0  0  0  0
  -25.5944  -33.8527   24.2204 N   0  0  0  0  0  0
  -23.4571  -30.4595   21.5372 C   0  0  2  0  0  0
  -24.9042  -28.8880   20.1073 C   0  0  0  0  0  0
  -22.7623  -29.4500   22.4889 C   0  0  0  0  0  0
  -18.0306  -28.1383   22.8486 C   0  0  0  0  0  0
  -24.1478  -36.7254   23.2644 C   0  0  0  0  0  0
  -26.0202  -30.6958   21.3934 C   0  0  0  0  0  0
  -26.0880  -29.3006   20.7333 C   0  0  0  0  0  0
  -27.2369  -28.4088   20.7407 C   0  0  0  0  0  0
  -25.9957  -26.7915   19.4639 C   0  0  0  0  0  0
  -24.8780  -27.6510   19.4505 C   0  0  0  0  0  0
  -23.6830  -29.7952   20.1554 C   0  0  0  0  0  0
  -25.4116  -36.3072   24.0334 C   0  0  1  0  0  0
  -20.5935  -28.3705   23.1243 C   0  0  2  0  0  0
  -20.6804  -26.9402   22.5406 C   0  0  0  0  0  0
  -19.5754  -26.6369   21.5234 C   0  0  0  0  0  0
  -18.1942  -26.7925   22.1641 C   0  0  0  0  0  0
  -19.1566  -28.8871   23.2846 C   0  0  0  0  0  0
  -18.9465  -30.1477   23.8864 C   0  0  0  0  0  0
  -17.6456  -30.6580   24.0552 C   0  0  0  0  0  0
  -25.9067  -34.9446   23.5091 C   0  0  0  0  0  0
  -16.5354  -29.9054   23.6337 C   0  0  0  0  0  0
  -16.7288  -28.6474   23.0362 C   0  0  0  0  0  0
  -26.4511  -31.6605   25.0760 C   0  0  0  0  0  0
  -25.3666  -31.3783   26.1436 C   0  0  0  0  0  0
  -27.0367  -30.3026   24.6305 C   0  0  0  0  0  0
  -27.6077  -32.4332   25.7528 C   0  0  0  0  0  0
  -27.5578  -37.1790   24.8476 C   0  0  0  0  0  0
  -21.4316  -29.3034   22.3646 N   0  0  0  0  0  0
  -26.4293  -37.3775   23.9413 N   0  0  0  0  0  0
  -24.7303  -31.0193   22.0940 N   0  0  0  0  0  0
  -23.4249  -28.8061   23.3064 O   0  0  0  0  0  0
  -28.2097  -26.0189   20.2346 O   0  0  0  0  0  0
  -26.5654  -34.8939   22.4674 O   0  0  0  0  0  0
  -23.5610  -32.1322   23.7029 O   0  0  0  0  0  0
  -29.7517  -22.6267   21.0147 C   0  0  0  0  0  0
  -28.2369  -21.7285   19.8336 C   0  0  0  0  0  0
  -28.5996  -23.0439   20.2524 C   0  0  0  0  0  0
  -27.6220  -18.5973   20.8986 C   0  0  0  0  0  0
  -27.8125  -24.5112   19.9760 C   0  0  0  0  0  0
  -30.0630  -17.7867   20.4157 C   0  0  0  0  0  0
  -28.9029  -19.0193   20.1583 C   0  0  2  0  0  0
  -29.9978  -21.2767   21.0501 N   0  0  0  0  0  0
  -29.0590  -20.6245   20.2988 N   0  0  0  0  0  0
  -29.7545  -16.2103   20.4653 N   0  0  0  0  0  0
  -31.4793  -12.7853   19.1785 H   0  0  0  0  0  0
  -30.4531  -11.6883   20.0602 H   0  0  0  0  0  0
  -29.8558  -11.7147   17.6092 H   0  0  0  0  0  0
  -29.6069  -13.4431   17.6675 H   0  0  0  0  0  0
  -27.9785  -11.2790   19.0200 H   0  0  0  0  0  0
  -27.3988  -12.4088   17.8236 H   0  0  0  0  0  0
  -27.5718  -14.2517   19.3712 H   0  0  0  0  0  0
  -28.7700  -12.3804   21.4783 H   0  0  0  0  0  0
  -28.3683  -14.0727   21.7041 H   0  0  0  0  0  0
  -25.2857   -9.5574   22.4811 H   0  0  0  0  0  0
  -23.9965   -7.4624   22.7565 H   0  0  0  0  0  0
  -21.0858   -8.8842   19.9044 H   0  0  0  0  0  0
  -22.3817  -10.9694   19.6188 H   0  0  0  0  0  0
  -21.1995   -7.6162   23.9691 H   0  0  0  0  0  0
  -21.1502   -6.0577   25.9072 H   0  0  0  0  0  0
  -22.0590   -2.7643   23.2857 H   0  0  0  0  0  0
  -22.4083  -11.9834   22.4758 H   0  0  0  0  0  0
  -21.1134  -13.1294   22.2674 H   0  0  0  0  0  0
  -24.6210  -15.8302   20.5287 H   0  0  0  0  0  0
  -26.2272  -15.6444   20.0416 H   0  0  0  0  0  0
  -26.7317  -32.5301   23.1032 H   0  0  0  0  0  0
  -25.0089  -33.9639   25.0356 H   0  0  0  0  0  0
  -22.7623  -31.2884   21.3851 H   0  0  0  0  0  0
  -23.3782  -35.9543   23.3304 H   0  0  0  0  0  0
  -24.3570  -36.8872   22.2058 H   0  0  0  0  0  0
  -23.7173  -37.6431   23.6665 H   0  0  0  0  0  0
  -26.1738  -31.4425   20.6146 H   0  0  0  0  0  0
  -26.8927  -30.7549   22.0317 H   0  0  0  0  0  0
  -28.1314  -28.7139   21.2631 H   0  0  0  0  0  0
  -25.8645  -25.8569   18.9404 H   0  0  0  0  0  0
  -23.9833  -27.3346   18.9334 H   0  0  0  0  0  0
  -23.8166  -30.5699   19.4011 H   0  0  0  0  0  0
  -22.7959  -29.2393   19.8491 H   0  0  0  0  0  0
  -25.1297  -36.1936   25.0827 H   0  0  0  0  0  0
  -21.0001  -28.3274   24.1378 H   0  0  0  0  0  0
  -20.5732  -26.2288   23.3610 H   0  0  0  0  0  0
  -21.6658  -26.7420   22.1183 H   0  0  0  0  0  0
  -19.6905  -25.6277   21.1266 H   0  0  0  0  0  0
  -19.6704  -27.3180   20.6761 H   0  0  0  0  0  0
  -17.4233  -26.6686   21.4016 H   0  0  0  0  0  0
  -18.0327  -26.0058   22.9030 H   0  0  0  0  0  0
  -19.7931  -30.7313   24.2226 H   0  0  0  0  0  0
  -17.4983  -31.6263   24.5131 H   0  0  0  0  0  0
  -15.5343  -30.2928   23.7660 H   0  0  0  0  0  0
  -15.8707  -28.0766   22.7089 H   0  0  0  0  0  0
  -24.5880  -30.7093   25.7734 H   0  0  0  0  0  0
  -24.8801  -32.2947   26.4787 H   0  0  0  0  0  0
  -25.7934  -30.9010   27.0266 H   0  0  0  0  0  0
  -26.2985  -29.6779   24.1268 H   0  0  0  0  0  0
  -27.3965  -29.7298   25.4855 H   0  0  0  0  0  0
  -27.8898  -30.4315   23.9648 H   0  0  0  0  0  0
  -27.2739  -33.3671   26.2055 H   0  0  0  0  0  0
  -28.3915  -32.6798   25.0359 H   0  0  0  0  0  0
  -28.0705  -31.8462   26.5466 H   0  0  0  0  0  0
  -28.2613  -38.0066   24.7539 H   0  0  0  0  0  0
  -28.1055  -36.2616   24.6306 H   0  0  0  0  0  0
  -27.2303  -37.1448   25.8875 H   0  0  0  0  0  0
  -20.9540  -29.8741   21.6828 H   0  0  0  0  0  0
  -26.0186  -38.2856   24.1409 H   0  0  0  0  0  0
  -30.4154  -23.2649   21.5862 H   0  0  0  0  0  0
  -27.3767  -21.4676   19.2326 H   0  0  0  0  0  0
  -26.7617  -19.2063   20.6159 H   0  0  0  0  0  0
  -27.7538  -18.6854   21.9760 H   0  0  0  0  0  0
  -27.3597  -17.5623   20.6790 H   0  0  0  0  0  0
  -26.8500  -24.4141   20.4788 H   0  0  0  0  0  0
  -27.5518  -24.4969   18.9185 H   0  0  0  0  0  0
  -30.8448  -17.9277   19.6661 H   0  0  0  0  0  0
  -30.5499  -18.0059   21.3659 H   0  0  0  0  0  0
  -28.6561  -18.9004   19.1002 H   0  0  0  0  0  0
  -28.7788  -16.0058   20.6174 H   0  0  0  0  0  0
  1 25  1  0  0  0
  1 30  2  0  0  0
  1 80  1  0  0  0
  2  3  1  0  0  0
  2 25  1  0  0  0
  2 81  1  0  0  0
  2 82  1  0  0  0
  3  4  1  0  0  0
  3 83  1  0  0  0
  3 84  1  0  0  0
  4  5  1  0  0  0
  4 85  1  0  0  0
  4 86  1  0  0  0
  5  6  1  0  0  0
  5 26  1  0  0  0
  5 87  1  0  0  0
  6 25  1  0  0  0
  6 88  1  0  0  0
  6 89  1  0  0  0
  7  8  2  0  0  0
  7 26  1  0  0  0
  7 29  1  0  0  0
  8  9  1  0  0  0
  8 22  1  0  0  0
  9 10  1  0  0  0
  9 27  2  0  0  0
 10 11  2  0  0  0
 10 15  1  0  0  0
 11 12  1  0  0  0
 11 90  1  0  0  0
 12 13  2  0  0  0
 12 91  1  0  0  0
 13 14  1  0  0  0
 13 31  1  0  0  0
 14 15  2  0  0  0
 14 92  1  0  0  0
 15 93  1  0  0  0
 16 17  2  0  0  0
 16 21  1  0  0  0
 16 31  1  0  0  0
 17 18  1  0  0  0
 17 94  1  0  0  0
 18 19  2  0  0  0
 18 95  1  0  0  0
 19 20  1  0  0  0
 19 24  1  0  0  0
 20 21  2  0  0  0
 20 96  1  0  0  0
 21 23  1  0  0  0
 22 28  1  0  0  0
 22 32  2  0  0  0
 26 27  1  0  0  0
 28 97  1  0  0  0
 28 98  1  0  0  0
 29 99  1  0  0  0
 29100  1  0  0  0
 33 34  1  0  0  0
 33 66  1  0  0  0
 33 70  2  0  0  0
 34 36  1  0  0  0
 34 59  1  0  0  0
 34101  1  0  0  0
 35 44  2  0  0  0
 35 45  1  0  0  0
 35 68  1  0  0  0
 36 56  1  0  0  0
 36102  1  0  0  0
 37 39  1  0  0  0
 37 47  1  0  0  0
 37 66  1  0  0  0
 37103  1  0  0  0
 38 43  2  0  0  0
 38 46  1  0  0  0
 38 47  1  0  0  0
 39 64  1  0  0  0
 39 67  2  0  0  0
 40 52  1  0  0  0
 40 53  2  0  0  0
 40 58  1  0  0  0
 41104  1  0  0  0
 41105  1  0  0  0
 41106  1  0  0  0
 41 48  1  0  0  0
 42 43  1  0  0  0
 42 66  1  0  0  0
 42107  1  0  0  0
 42108  1  0  0  0
 43 44  1  0  0  0
 44109  1  0  0  0
 45 46  2  0  0  0
 45110  1  0  0  0
 46111  1  0  0  0
 47112  1  0  0  0
 47113  1  0  0  0
 48 56  1  0  0  0
 48 65  1  0  0  0
 48114  1  0  0  0
 49 50  1  0  0  0
 49 53  1  0  0  0
 49 64  1  0  0  0
 49115  1  0  0  0
 50 51  1  0  0  0
 50116  1  0  0  0
 50117  1  0  0  0
 51 52  1  0  0  0
 51118  1  0  0  0
 51119  1  0  0  0
 52120  1  0  0  0
 52121  1  0  0  0
 53 54  1  0  0  0
 54 55  2  0  0  0
 54122  1  0  0  0
 55 57  1  0  0  0
 55123  1  0  0  0
 56 69  2  0  0  0
 57 58  2  0  0  0
 57124  1  0  0  0
 58125  1  0  0  0
 59 60  1  0  0  0
 59 61  1  0  0  0
 59 62  1  0  0  0
 60126  1  0  0  0
 60127  1  0  0  0
 60128  1  0  0  0
 61129  1  0  0  0
 61130  1  0  0  0
 61131  1  0  0  0
 62132  1  0  0  0
 62133  1  0  0  0
 62134  1  0  0  0
 63 65  1  0  0  0
 63135  1  0  0  0
 63136  1  0  0  0
 63137  1  0  0  0
 64138  1  0  0  0
 65139  1  0  0  0
 68 75  1  0  0  0
 71 73  1  0  0  0
 71 78  2  0  0  0
 71140  1  0  0  0
 72 73  2  0  0  0
 72 79  1  0  0  0
 72141  1  0  0  0
 73 75  1  0  0  0
 74142  1  0  0  0
 74143  1  0  0  0
 74144  1  0  0  0
 74 77  1  0  0  0
 75145  1  0  0  0
 75146  1  0  0  0
 76 77  1  0  0  0
 76 80  1  0  0  0
 76147  1  0  0  0
 76148  1  0  0  0
 77 79  1  0  0  0
 77149  1  0  0  0
 78 79  1  0  0  0
 80150  1  0  0  0
M  ISO  4   1 100  68 101  75 101  80 100
M  END
> <chiral flag>
0

> <version>
0

> <s_m_source_file>
/data/baiqing/PycharmProjects/Reinvent-master-3.2/result/LINK_invent/BTK/process_docking_weight1_custom_sum_contain_oxygen_bond_distance_aromatic_linkinvent_7_9_3/rearranged_h_0060.sdf

> <i_m_source_file_index>
36

> <r_mmod_Potential_Energy-OPLS-2005>
605.189514160156

> <r_mmod_Stretch_Energy-OPLS-2005>
312.799774169922

> <r_mmod_Bend_Energy-OPLS-2005>
300.679138183594

> <r_mmod_Torsional_Energy-OPLS-2005>
236.669830322266

> <r_mmod_Improper_Torsional_Energy-OPLS-2005>
5.14674139022827

> <r_mmod_Van_der_Waal_Energy-OPLS-2005>
110.249534606934

> <r_mmod_Electrostatic_Energy-OPLS-2005>
-378.512573242188

> <r_mmod_Solvation_Energy-OPLS-2005>
-235.43342590332

> <b_mmod_Minimization_Converged-OPLS-2005>
0

> <r_mmod_RMS_Derivative-OPLS-2005>
4.9219126701355

$$$$
38
                    3D
 Structure written by MMmdl.
154162  0  0  1  0            999 V2000
  -30.4756  -15.0053   20.3905 C   0  0  0  0  0  0
  -30.4743  -12.6226   19.4773 C   0  0  0  0  0  0
  -29.5260  -12.5308   18.2513 C   0  0  0  0  0  0
  -28.0536  -12.3092   18.6684 C   0  0  0  0  0  0
  -27.6330  -13.2019   19.8630 C   0  0  2  0  0  0
  -28.7081  -13.1753   20.9720 C   0  0  0  0  0  0
  -25.2429  -13.8028   20.5672 C   0  0  0  0  0  0
  -24.1738  -13.0315   20.9240 C   0  0  0  0  0  0
  -24.6340  -11.6803   20.8821 C   0  0  0  0  0  0
  -23.9019  -10.4214   21.0449 C   0  0  0  0  0  0
  -24.3581   -9.4135   21.9214 C   0  0  0  0  0  0
  -23.6262   -8.2175   22.0758 C   0  0  0  0  0  0
  -22.4249   -8.0234   21.3538 C   0  0  0  0  0  0
  -21.9886   -9.0205   20.4640 C   0  0  0  0  0  0
  -22.7210  -10.2081   20.3071 C   0  0  0  0  0  0
  -21.6829   -6.0714   22.5278 C   0  0  0  0  0  0
  -21.3997   -6.5626   23.8209 C   0  0  0  0  0  0
  -21.3659   -5.6783   24.9173 C   0  0  0  0  0  0
  -21.6048   -4.3046   24.7231 C   0  0  0  0  0  0
  -21.8820   -3.8135   23.4354 C   0  0  0  0  0  0
  -21.9184   -4.6947   22.3407 C   0  0  0  0  0  0
  -22.7772  -13.5140   21.1875 C   0  0  0  0  0  0
  -22.1657   -4.2132   21.0986 F   0  0  0  0  0  0
  -21.5633   -3.4534   25.7749 F   0  0  0  0  0  0
  -29.9658  -13.6902   20.3891 N   0  0  0  0  0  0
  -26.2897  -12.9182   20.3439 N   0  0  0  0  0  0
  -25.9277  -11.6367   20.5898 N   0  0  0  0  0  0
  -22.0423  -12.8157   22.0456 N   0  0  0  0  0  0
  -25.3909  -15.1743   20.3868 N   0  0  0  0  0  0
  -31.6863  -15.1067   20.1556 O   0  0  0  0  0  0
  -21.6605   -6.8844   21.4235 O   0  0  0  0  0  0
  -22.3472  -14.5451   20.6714 O   0  0  0  0  0  0
  -24.6419  -31.8443   23.1877 C   0  0  0  0  0  0
  -25.9190  -32.4700   23.8273 C   0  0  1  0  0  0
  -27.2414  -27.1526   20.1520 C   0  0  0  0  0  0
  -25.5943  -33.8505   24.2193 N   0  0  0  0  0  0
  -23.4468  -30.4603   21.5325 C   0  0  2  0  0  0
  -24.9021  -28.8857   20.1110 C   0  0  0  0  0  0
  -22.7564  -29.4539   22.4866 C   0  0  0  0  0  0
  -18.0303  -28.1384   22.8480 C   0  0  0  0  0  0
  -24.1493  -36.7258   23.2643 C   0  0  0  0  0  0
  -26.0009  -30.7225   21.3846 C   0  0  0  0  0  0
  -26.0768  -29.3338   20.7279 C   0  0  0  0  0  0
  -27.2439  -28.4832   20.7318 C   0  0  0  0  0  0
  -26.0393  -26.8016   19.4952 C   0  0  0  0  0  0
  -24.8954  -27.6316   19.4801 C   0  0  0  0  0  0
  -23.6743  -29.7834   20.1537 C   0  0  0  0  0  0
  -25.4125  -36.3036   24.0317 C   0  0  1  0  0  0
  -20.5912  -28.3709   23.1238 C   0  0  2  0  0  0
  -20.6782  -26.9412   22.5403 C   0  0  0  0  0  0
  -19.5758  -26.6371   21.5208 C   0  0  0  0  0  0
  -18.1941  -26.7925   22.1621 C   0  0  0  0  0  0
  -19.1559  -28.8866   23.2850 C   0  0  0  0  0  0
  -18.9477  -30.1462   23.8875 C   0  0  0  0  0  0
  -17.6473  -30.6583   24.0553 C   0  0  0  0  0  0
  -25.9073  -34.9410   23.5067 C   0  0  0  0  0  0
  -16.5364  -29.9074   23.6331 C   0  0  0  0  0  0
  -16.7288  -28.6489   23.0361 C   0  0  0  0  0  0
  -26.4520  -31.6566   25.0710 C   0  0  0  0  0  0
  -25.3706  -31.3745   26.1404 C   0  0  0  0  0  0
  -27.0387  -30.2969   24.6277 C   0  0  0  0  0  0
  -27.6051  -32.4331   25.7494 C   0  0  0  0  0  0
  -27.5579  -37.1784   24.8465 C   0  0  0  0  0  0
  -21.4256  -29.3039   22.3614 N   0  0  0  0  0  0
  -26.4291  -37.3748   23.9406 N   0  0  0  0  0  0
  -24.7159  -31.0301   22.0905 N   0  0  0  0  0  0
  -23.4206  -28.8094   23.3021 O   0  0  0  0  0  0
  -28.3161  -26.1921   20.2377 O   0  0  0  0  0  0
  -26.5660  -34.8907   22.4646 O   0  0  0  0  0  0
  -23.5537  -32.1313   23.7095 O   0  0  0  0  0  0
  -28.9266  -19.0578   20.3343 C   0  0  0  0  0  0
  -31.0135  -18.6749   20.4277 C   0  0  0  0  0  0
  -29.5021  -20.3529   20.2777 C   0  0  0  0  0  0
  -28.7527  -16.3492   19.0270 C   0  0  0  0  0  0
  -28.5469  -16.2680   21.6035 C   0  0  0  0  0  0
  -28.8113  -21.8006   19.8911 C   0  0  0  0  0  0
  -29.0866  -23.3658   20.4381 C   0  0  0  0  0  0
  -28.1126  -24.6710   19.9887 C   0  0  0  0  0  0
  -29.5035  -16.3998   20.3909 C   0  0  0  0  0  0
  -30.8765  -20.0336   20.3263 N   0  0  0  0  0  0
  -29.8719  -17.9507   20.4140 N   0  0  0  0  0  0
  -31.4893  -12.8353   19.1391 H   0  0  0  0  0  0
  -30.5364  -11.6631   19.9930 H   0  0  0  0  0  0
  -29.8472  -11.7273   17.5878 H   0  0  0  0  0  0
  -29.6056  -13.4451   17.6635 H   0  0  0  0  0  0
  -27.9417  -11.2599   18.9446 H   0  0  0  0  0  0
  -27.3878  -12.4708   17.8199 H   0  0  0  0  0  0
  -27.5638  -14.2017   19.4725 H   0  0  0  0  0  0
  -28.8407  -12.1517   21.3272 H   0  0  0  0  0  0
  -28.4129  -13.7129   21.8672 H   0  0  0  0  0  0
  -25.2722   -9.5605   22.4793 H   0  0  0  0  0  0
  -23.9962   -7.4557   22.7472 H   0  0  0  0  0  0
  -21.0818   -8.8727   19.8944 H   0  0  0  0  0  0
  -22.3677  -10.9630   19.6185 H   0  0  0  0  0  0
  -21.1985   -7.6134   23.9710 H   0  0  0  0  0  0
  -21.1485   -6.0515   25.9076 H   0  0  0  0  0  0
  -22.0607   -2.7599   23.2859 H   0  0  0  0  0  0
  -22.4040  -11.9821   22.4845 H   0  0  0  0  0  0
  -21.1050  -13.1191   22.2681 H   0  0  0  0  0  0
  -24.6086  -15.8125   20.4835 H   0  0  0  0  0  0
  -26.2312  -15.6253   20.0533 H   0  0  0  0  0  0
  -26.7257  -32.5318   23.1004 H   0  0  0  0  0  0
  -25.0062  -33.9622   25.0323 H   0  0  0  0  0  0
  -22.7487  -31.2850   21.3749 H   0  0  0  0  0  0
  -23.3763  -35.9582   23.3292 H   0  0  0  0  0  0
  -24.3579  -36.8903   22.2060 H   0  0  0  0  0  0
  -23.7241  -37.6447   23.6688 H   0  0  0  0  0  0
  -26.1527  -31.4771   20.6115 H   0  0  0  0  0  0
  -26.8719  -30.7759   22.0257 H   0  0  0  0  0  0
  -28.1374  -28.8238   21.2359 H   0  0  0  0  0  0
  -25.9542  -25.8429   19.0058 H   0  0  0  0  0  0
  -23.9988  -27.2820   18.9864 H   0  0  0  0  0  0
  -23.8052  -30.5549   19.3944 H   0  0  0  0  0  0
  -22.7912  -29.2195   19.8477 H   0  0  0  0  0  0
  -25.1312  -36.1868   25.0811 H   0  0  0  0  0  0
  -21.0006  -28.3294   24.1357 H   0  0  0  0  0  0
  -20.5660  -26.2325   23.3622 H   0  0  0  0  0  0
  -21.6651  -26.7404   22.1213 H   0  0  0  0  0  0
  -19.6918  -25.6274   21.1254 H   0  0  0  0  0  0
  -19.6695  -27.3166   20.6725 H   0  0  0  0  0  0
  -17.4208  -26.6667   21.4027 H   0  0  0  0  0  0
  -18.0342  -26.0067   22.9019 H   0  0  0  0  0  0
  -19.7952  -30.7283   24.2238 H   0  0  0  0  0  0
  -17.5024  -31.6264   24.5152 H   0  0  0  0  0  0
  -15.5362  -30.2969   23.7664 H   0  0  0  0  0  0
  -15.8689  -28.0794   22.7097 H   0  0  0  0  0  0
  -24.5885  -30.7100   25.7714 H   0  0  0  0  0  0
  -24.8895  -32.2924   26.4794 H   0  0  0  0  0  0
  -25.7988  -30.8932   27.0206 H   0  0  0  0  0  0
  -26.3003  -29.6690   24.1281 H   0  0  0  0  0  0
  -27.4008  -29.7268   25.4843 H   0  0  0  0  0  0
  -27.8906  -30.4217   23.9588 H   0  0  0  0  0  0
  -27.2647  -33.3648   26.2027 H   0  0  0  0  0  0
  -28.3886  -32.6869   25.0340 H   0  0  0  0  0  0
  -28.0696  -31.8489   26.5448 H   0  0  0  0  0  0
  -28.2585  -38.0091   24.7519 H   0  0  0  0  0  0
  -28.1087  -36.2620   24.6285 H   0  0  0  0  0  0
  -27.2295  -37.1421   25.8868 H   0  0  0  0  0  0
  -20.9465  -29.8754   21.6795 H   0  0  0  0  0  0
  -26.0159  -38.2817   24.1410 H   0  0  0  0  0  0
  -27.8734  -18.8245   20.2535 H   0  0  0  0  0  0
  -31.9826  -18.1965   20.4699 H   0  0  0  0  0  0
  -27.6839  -16.5268   19.1358 H   0  0  0  0  0  0
  -28.8946  -15.4267   18.4712 H   0  0  0  0  0  0
  -29.1200  -17.1044   18.3298 H   0  0  0  0  0  0
  -28.1079  -17.2086   21.9304 H   0  0  0  0  0  0
  -29.0653  -15.8696   22.4759 H   0  0  0  0  0  0
  -27.6980  -15.6322   21.3924 H   0  0  0  0  0  0
  -27.7439  -21.6580   20.0609 H   0  0  0  0  0  0
  -28.8758  -21.8792   18.8057 H   0  0  0  0  0  0
  -30.1108  -23.6183   20.1633 H   0  0  0  0  0  0
  -29.0888  -23.3325   21.5276 H   0  0  0  0  0  0
  -27.1319  -24.4355   20.4033 H   0  0  0  0  0  0
  -27.9883  -24.5841   18.9095 H   0  0  0  0  0  0
  1 25  1  0  0  0
  1 30  2  0  0  0
  1 79  1  0  0  0
  2  3  1  0  0  0
  2 25  1  0  0  0
  2 82  1  0  0  0
  2 83  1  0  0  0
  3  4  1  0  0  0
  3 84  1  0  0  0
  3 85  1  0  0  0
  4  5  1  0  0  0
  4 86  1  0  0  0
  4 87  1  0  0  0
  5  6  1  0  0  0
  5 26  1  0  0  0
  5 88  1  0  0  0
  6 25  1  0  0  0
  6 89  1  0  0  0
  6 90  1  0  0  0
  7  8  2  0  0  0
  7 26  1  0  0  0
  7 29  1  0  0  0
  8  9  1  0  0  0
  8 22  1  0  0  0
  9 10  1  0  0  0
  9 27  2  0  0  0
 10 11  2  0  0  0
 10 15  1  0  0  0
 11 12  1  0  0  0
 11 91  1  0  0  0
 12 13  2  0  0  0
 12 92  1  0  0  0
 13 14  1  0  0  0
 13 31  1  0  0  0
 14 15  2  0  0  0
 14 93  1  0  0  0
 15 94  1  0  0  0
 16 17  2  0  0  0
 16 21  1  0  0  0
 16 31  1  0  0  0
 17 18  1  0  0  0
 17 95  1  0  0  0
 18 19  2  0  0  0
 18 96  1  0  0  0
 19 20  1  0  0  0
 19 24  1  0  0  0
 20 21  2  0  0  0
 20 97  1  0  0  0
 21 23  1  0  0  0
 22 28  1  0  0  0
 22 32  2  0  0  0
 26 27  1  0  0  0
 28 98  1  0  0  0
 28 99  1  0  0  0
 29100  1  0  0  0
 29101  1  0  0  0
 33 34  1  0  0  0
 33 66  1  0  0  0
 33 70  2  0  0  0
 34 36  1  0  0  0
 34 59  1  0  0  0
 34102  1  0  0  0
 35 44  2  0  0  0
 35 45  1  0  0  0
 35 68  1  0  0  0
 36 56  1  0  0  0
 36103  1  0  0  0
 37 39  1  0  0  0
 37 47  1  0  0  0
 37 66  1  0  0  0
 37104  1  0  0  0
 38 43  2  0  0  0
 38 46  1  0  0  0
 38 47  1  0  0  0
 39 64  1  0  0  0
 39 67  2  0  0  0
 40 52  1  0  0  0
 40 53  2  0  0  0
 40 58  1  0  0  0
 41105  1  0  0  0
 41106  1  0  0  0
 41107  1  0  0  0
 41 48  1  0  0  0
 42 43  1  0  0  0
 42 66  1  0  0  0
 42108  1  0  0  0
 42109  1  0  0  0
 43 44  1  0  0  0
 44110  1  0  0  0
 45 46  2  0  0  0
 45111  1  0  0  0
 46112  1  0  0  0
 47113  1  0  0  0
 47114  1  0  0  0
 48 56  1  0  0  0
 48 65  1  0  0  0
 48115  1  0  0  0
 49 50  1  0  0  0
 49 53  1  0  0  0
 49 64  1  0  0  0
 49116  1  0  0  0
 50 51  1  0  0  0
 50117  1  0  0  0
 50118  1  0  0  0
 51 52  1  0  0  0
 51119  1  0  0  0
 51120  1  0  0  0
 52121  1  0  0  0
 52122  1  0  0  0
 53 54  1  0  0  0
 54 55  2  0  0  0
 54123  1  0  0  0
 55 57  1  0  0  0
 55124  1  0  0  0
 56 69  2  0  0  0
 57 58  2  0  0  0
 57125  1  0  0  0
 58126  1  0  0  0
 59 60  1  0  0  0
 59 61  1  0  0  0
 59 62  1  0  0  0
 60127  1  0  0  0
 60128  1  0  0  0
 60129  1  0  0  0
 61130  1  0  0  0
 61131  1  0  0  0
 61132  1  0  0  0
 62133  1  0  0  0
 62134  1  0  0  0
 62135  1  0  0  0
 63 65  1  0  0  0
 63136  1  0  0  0
 63137  1  0  0  0
 63138  1  0  0  0
 64139  1  0  0  0
 65140  1  0  0  0
 68 78  1  0  0  0
 71 73  2  0  0  0
 71 81  1  0  0  0
 71141  1  0  0  0
 72 80  2  0  0  0
 72 81  1  0  0  0
 72142  1  0  0  0
 73 76  1  0  0  0
 73 80  1  0  0  0
 74143  1  0  0  0
 74144  1  0  0  0
 74145  1  0  0  0
 74 79  1  0  0  0
 75 79  1  0  0  0
 75146  1  0  0  0
 75147  1  0  0  0
 75148  1  0  0  0
 76 77  1  0  0  0
 76149  1  0  0  0
 76150  1  0  0  0
 77 78  1  0  0  0
 77151  1  0  0  0
 77152  1  0  0  0
 78153  1  0  0  0
 78154  1  0  0  0
 79 81  1  0  0  0
M  ISO  4   1 100  68 101  78 101  79 100
M  END
> <chiral flag>
0

> <version>
0

> <s_m_source_file>
/data/baiqing/PycharmProjects/Reinvent-master-3.2/result/LINK_invent/BTK/process_docking_weight1_custom_sum_contain_oxygen_bond_distance_aromatic_linkinvent_7_9_3/rearranged_h_0060.sdf

> <i_m_source_file_index>
37

> <r_mmod_Potential_Energy-OPLS-2005>
647.010803222656

> <r_mmod_Stretch_Energy-OPLS-2005>
272.704650878906

> <r_mmod_Bend_Energy-OPLS-2005>
321.70068359375

> <r_mmod_Torsional_Energy-OPLS-2005>
245.023696899414

> <r_mmod_Improper_Torsional_Energy-OPLS-2005>
8.22848510742188

> <r_mmod_Van_der_Waal_Energy-OPLS-2005>
133.137802124023

> <r_mmod_Electrostatic_Energy-OPLS-2005>
-320.171325683594

> <r_mmod_Solvation_Energy-OPLS-2005>
-215.493347167969

> <b_mmod_Minimization_Converged-OPLS-2005>
0

> <r_mmod_RMS_Derivative-OPLS-2005>
0.84932678937912

$$$$
39
                    3D
 Structure written by MMmdl.
150158  0  0  1  0            999 V2000
  -30.5304  -15.0176   20.4751 C   0  0  0  0  0  0
  -30.4455  -12.6532   19.5007 C   0  0  0  0  0  0
  -29.5239  -12.5681   18.2583 C   0  0  0  0  0  0
  -28.0546  -12.3439   18.6633 C   0  0  0  0  0  0
  -27.6304  -13.2492   19.8465 C   0  0  2  0  0  0
  -28.6735  -13.2313   20.9784 C   0  0  0  0  0  0
  -25.2457  -13.8201   20.5710 C   0  0  0  0  0  0
  -24.1780  -13.0426   20.9232 C   0  0  0  0  0  0
  -24.6387  -11.6908   20.8739 C   0  0  0  0  0  0
  -23.9069  -10.4287   21.0384 C   0  0  0  0  0  0
  -24.3623   -9.4207   21.9160 C   0  0  0  0  0  0
  -23.6299   -8.2242   22.0732 C   0  0  0  0  0  0
  -22.4272   -8.0288   21.3541 C   0  0  0  0  0  0
  -21.9909   -9.0250   20.4635 C   0  0  0  0  0  0
  -22.7231  -10.2133   20.3040 C   0  0  0  0  0  0
  -21.6861   -6.0738   22.5281 C   0  0  0  0  0  0
  -21.4012   -6.5623   23.8225 C   0  0  0  0  0  0
  -21.3679   -5.6770   24.9179 C   0  0  0  0  0  0
  -21.6045   -4.3033   24.7215 C   0  0  0  0  0  0
  -21.8821   -3.8137   23.4326 C   0  0  0  0  0  0
  -21.9193   -4.6962   22.3396 C   0  0  0  0  0  0
  -22.7805  -13.5203   21.1912 C   0  0  0  0  0  0
  -22.1664   -4.2148   21.0974 F   0  0  0  0  0  0
  -21.5643   -3.4521   25.7732 F   0  0  0  0  0  0
  -29.9372  -13.7373   20.4053 N   0  0  0  0  0  0
  -26.2882  -12.9431   20.3252 N   0  0  0  0  0  0
  -25.9320  -11.6552   20.5719 N   0  0  0  0  0  0
  -22.0471  -12.8195   22.0480 N   0  0  0  0  0  0
  -25.4140  -15.1939   20.4132 N   0  0  0  0  0  0
  -31.6991  -15.0759   20.0702 O   0  0  0  0  0  0
  -21.6635   -6.8879   21.4250 O   0  0  0  0  0  0
  -22.3489  -14.5509   20.6767 O   0  0  0  0  0  0
  -24.6489  -31.8402   23.1871 C   0  0  0  0  0  0
  -25.9240  -32.4678   23.8271 C   0  0  1  0  0  0
  -27.2153  -27.0870   20.1597 C   0  0  0  0  0  0
  -25.5975  -33.8487   24.2185 N   0  0  0  0  0  0
  -23.4550  -30.4610   21.5338 C   0  0  2  0  0  0
  -24.9063  -28.8825   20.1129 C   0  0  0  0  0  0
  -22.7603  -29.4527   22.4841 C   0  0  0  0  0  0
  -18.0321  -28.1392   22.8489 C   0  0  0  0  0  0
  -24.1480  -36.7212   23.2642 C   0  0  0  0  0  0
  -26.0171  -30.6968   21.3968 C   0  0  0  0  0  0
  -26.0876  -29.3046   20.7385 C   0  0  0  0  0  0
  -27.2425  -28.4248   20.7450 C   0  0  0  0  0  0
  -26.0132  -26.7926   19.4754 C   0  0  0  0  0  0
  -24.8855  -27.6403   19.4655 C   0  0  0  0  0  0
  -23.6857  -29.7921   20.1538 C   0  0  0  0  0  0
  -25.4118  -36.3009   24.0315 C   0  0  1  0  0  0
  -20.5943  -28.3717   23.1219 C   0  0  2  0  0  0
  -20.6802  -26.9409   22.5405 C   0  0  0  0  0  0
  -19.5770  -26.6374   21.5220 C   0  0  0  0  0  0
  -18.1953  -26.7931   22.1636 C   0  0  0  0  0  0
  -19.1581  -28.8877   23.2847 C   0  0  0  0  0  0
  -18.9489  -30.1476   23.8867 C   0  0  0  0  0  0
  -17.6481  -30.6591   24.0562 C   0  0  0  0  0  0
  -25.9085  -34.9393   23.5056 C   0  0  0  0  0  0
  -16.5374  -29.9077   23.6347 C   0  0  0  0  0  0
  -16.7302  -28.6496   23.0368 C   0  0  0  0  0  0
  -26.4552  -31.6554   25.0721 C   0  0  0  0  0  0
  -25.3741  -31.3741   26.1414 C   0  0  0  0  0  0
  -27.0413  -30.2941   24.6327 C   0  0  0  0  0  0
  -27.6071  -32.4330   25.7506 C   0  0  0  0  0  0
  -27.5567  -37.1765   24.8477 C   0  0  0  0  0  0
  -21.4289  -29.3038   22.3583 N   0  0  0  0  0  0
  -26.4275  -37.3732   23.9424 N   0  0  0  0  0  0
  -24.7274  -31.0209   22.0941 N   0  0  0  0  0  0
  -23.4224  -28.8071   23.3009 O   0  0  0  0  0  0
  -28.2371  -26.0486   20.1993 O   0  0  0  0  0  0
  -26.5662  -34.8898   22.4631 O   0  0  0  0  0  0
  -23.5593  -32.1307   23.7062 O   0  0  0  0  0  0
  -29.7611  -22.6284   19.5281 C   0  0  0  0  0  0
  -28.3319  -21.8019   20.8488 C   0  0  0  0  0  0
  -28.6457  -23.0867   20.3203 C   0  0  0  0  0  0
  -29.0040  -16.2323   21.9941 C   0  0  0  0  0  0
  -27.8358  -24.5535   20.5100 C   0  0  0  0  0  0
  -29.0579  -19.1128   20.7495 C   0  0  0  0  0  0
  -30.0420  -17.7730   20.3052 C   0  0  0  0  0  0
  -30.0425  -21.2863   19.5815 N   0  0  0  0  0  0
  -29.1482  -20.6840   20.4152 N   0  0  0  0  0  0
  -29.8056  -16.2418   20.7660 N   0  0  0  0  0  0
  -31.4681  -12.8383   19.1709 H   0  0  0  0  0  0
  -30.4823  -11.6953   20.0217 H   0  0  0  0  0  0
  -29.8545  -11.7666   17.5958 H   0  0  0  0  0  0
  -29.6035  -13.4959   17.6894 H   0  0  0  0  0  0
  -27.9455  -11.2968   18.9478 H   0  0  0  0  0  0
  -27.3979  -12.5043   17.8070 H   0  0  0  0  0  0
  -27.6058  -14.2647   19.4537 H   0  0  0  0  0  0
  -28.3126  -13.8027   21.8260 H   0  0  0  0  0  0
  -28.7966  -12.2198   21.3674 H   0  0  0  0  0  0
  -25.2773   -9.5688   22.4720 H   0  0  0  0  0  0
  -24.0029   -7.4622   22.7419 H   0  0  0  0  0  0
  -21.0854   -8.8749   19.8925 H   0  0  0  0  0  0
  -22.3678  -10.9673   19.6148 H   0  0  0  0  0  0
  -21.1996   -7.6134   23.9737 H   0  0  0  0  0  0
  -21.1511   -6.0485   25.9091 H   0  0  0  0  0  0
  -22.0583   -2.7597   23.2817 H   0  0  0  0  0  0
  -22.4104  -11.9868   22.4893 H   0  0  0  0  0  0
  -21.1092  -13.1221   22.2696 H   0  0  0  0  0  0
  -24.6449  -15.8459   20.5185 H   0  0  0  0  0  0
  -26.2600  -15.6327   20.0730 H   0  0  0  0  0  0
  -26.7310  -32.5274   23.1001 H   0  0  0  0  0  0
  -25.0120  -33.9598   25.0331 H   0  0  0  0  0  0
  -22.7609  -31.2901   21.3786 H   0  0  0  0  0  0
  -23.3765  -35.9523   23.3295 H   0  0  0  0  0  0
  -24.3565  -36.8850   22.2062 H   0  0  0  0  0  0
  -23.7215  -37.6395   23.6682 H   0  0  0  0  0  0
  -26.1849  -31.4496   20.6252 H   0  0  0  0  0  0
  -26.8829  -30.7452   22.0444 H   0  0  0  0  0  0
  -28.1384  -28.7433   21.2590 H   0  0  0  0  0  0
  -25.9104  -25.8620   18.9377 H   0  0  0  0  0  0
  -23.9922  -27.3169   18.9498 H   0  0  0  0  0  0
  -23.8296  -30.5686   19.4016 H   0  0  0  0  0  0
  -22.7983  -29.2414   19.8383 H   0  0  0  0  0  0
  -25.1309  -36.1826   25.0809 H   0  0  0  0  0  0
  -21.0057  -28.3318   24.1331 H   0  0  0  0  0  0
  -20.5687  -26.2331   23.3634 H   0  0  0  0  0  0
  -21.6663  -26.7399   22.1204 H   0  0  0  0  0  0
  -19.6916  -25.6279   21.1259 H   0  0  0  0  0  0
  -19.6699  -27.3181   20.6747 H   0  0  0  0  0  0
  -17.4221  -26.6692   21.4037 H   0  0  0  0  0  0
  -18.0333  -26.0073   22.9030 H   0  0  0  0  0  0
  -19.7959  -30.7313   24.2210 H   0  0  0  0  0  0
  -17.5027  -31.6268   24.5163 H   0  0  0  0  0  0
  -15.5367  -30.2966   23.7674 H   0  0  0  0  0  0
  -15.8707  -28.0798   22.7094 H   0  0  0  0  0  0
  -24.5940  -30.7059   25.7746 H   0  0  0  0  0  0
  -24.8907  -32.2915   26.4782 H   0  0  0  0  0  0
  -25.8039  -30.8970   27.0231 H   0  0  0  0  0  0
  -26.3028  -29.6665   24.1323 H   0  0  0  0  0  0
  -27.3998  -29.7241   25.4909 H   0  0  0  0  0  0
  -27.8959  -30.4154   23.9664 H   0  0  0  0  0  0
  -27.2656  -33.3660   26.1999 H   0  0  0  0  0  0
  -28.3924  -32.6848   25.0366 H   0  0  0  0  0  0
  -28.0688  -31.8516   26.5497 H   0  0  0  0  0  0
  -28.2586  -38.0062   24.7525 H   0  0  0  0  0  0
  -28.1061  -36.2593   24.6301 H   0  0  0  0  0  0
  -27.2282  -37.1404   25.8879 H   0  0  0  0  0  0
  -20.9504  -29.8735   21.6744 H   0  0  0  0  0  0
  -26.0129  -38.2786   24.1465 H   0  0  0  0  0  0
  -30.3745  -23.2297   18.8722 H   0  0  0  0  0  0
  -27.5204  -21.5730   21.5260 H   0  0  0  0  0  0
  -27.9430  -16.1232   21.7643 H   0  0  0  0  0  0
  -29.1350  -17.1287   22.5939 H   0  0  0  0  0  0
  -29.3058  -15.4396   22.6782 H   0  0  0  0  0  0
  -27.5713  -24.6145   21.5661 H   0  0  0  0  0  0
  -26.8692  -24.3908   20.0434 H   0  0  0  0  0  0
  -29.0242  -19.1083   21.8359 H   0  0  0  0  0  0
  -28.0433  -18.8394   20.4565 H   0  0  0  0  0  0
  -31.0653  -18.0131   20.6003 H   0  0  0  0  0  0
  -30.0808  -17.7575   19.2156 H   0  0  0  0  0  0
  1 25  1  0  0  0
  1 30  2  0  0  0
  1 80  1  0  0  0
  2  3  1  0  0  0
  2 25  1  0  0  0
  2 81  1  0  0  0
  2 82  1  0  0  0
  3  4  1  0  0  0
  3 83  1  0  0  0
  3 84  1  0  0  0
  4  5  1  0  0  0
  4 85  1  0  0  0
  4 86  1  0  0  0
  5  6  1  0  0  0
  5 26  1  0  0  0
  5 87  1  0  0  0
  6 25  1  0  0  0
  6 88  1  0  0  0
  6 89  1  0  0  0
  7  8  2  0  0  0
  7 26  1  0  0  0
  7 29  1  0  0  0
  8  9  1  0  0  0
  8 22  1  0  0  0
  9 10  1  0  0  0
  9 27  2  0  0  0
 10 11  2  0  0  0
 10 15  1  0  0  0
 11 12  1  0  0  0
 11 90  1  0  0  0
 12 13  2  0  0  0
 12 91  1  0  0  0
 13 14  1  0  0  0
 13 31  1  0  0  0
 14 15  2  0  0  0
 14 92  1  0  0  0
 15 93  1  0  0  0
 16 17  2  0  0  0
 16 21  1  0  0  0
 16 31  1  0  0  0
 17 18  1  0  0  0
 17 94  1  0  0  0
 18 19  2  0  0  0
 18 95  1  0  0  0
 19 20  1  0  0  0
 19 24  1  0  0  0
 20 21  2  0  0  0
 20 96  1  0  0  0
 21 23  1  0  0  0
 22 28  1  0  0  0
 22 32  2  0  0  0
 26 27  1  0  0  0
 28 97  1  0  0  0
 28 98  1  0  0  0
 29 99  1  0  0  0
 29100  1  0  0  0
 33 34  1  0  0  0
 33 66  1  0  0  0
 33 70  2  0  0  0
 34 36  1  0  0  0
 34 59  1  0  0  0
 34101  1  0  0  0
 35 44  2  0  0  0
 35 45  1  0  0  0
 35 68  1  0  0  0
 36 56  1  0  0  0
 36102  1  0  0  0
 37 39  1  0  0  0
 37 47  1  0  0  0
 37 66  1  0  0  0
 37103  1  0  0  0
 38 43  2  0  0  0
 38 46  1  0  0  0
 38 47  1  0  0  0
 39 64  1  0  0  0
 39 67  2  0  0  0
 40 52  1  0  0  0
 40 53  2  0  0  0
 40 58  1  0  0  0
 41104  1  0  0  0
 41105  1  0  0  0
 41106  1  0  0  0
 41 48  1  0  0  0
 42 43  1  0  0  0
 42 66  1  0  0  0
 42107  1  0  0  0
 42108  1  0  0  0
 43 44  1  0  0  0
 44109  1  0  0  0
 45 46  2  0  0  0
 45110  1  0  0  0
 46111  1  0  0  0
 47112  1  0  0  0
 47113  1  0  0  0
 48 56  1  0  0  0
 48 65  1  0  0  0
 48114  1  0  0  0
 49 50  1  0  0  0
 49 53  1  0  0  0
 49 64  1  0  0  0
 49115  1  0  0  0
 50 51  1  0  0  0
 50116  1  0  0  0
 50117  1  0  0  0
 51 52  1  0  0  0
 51118  1  0  0  0
 51119  1  0  0  0
 52120  1  0  0  0
 52121  1  0  0  0
 53 54  1  0  0  0
 54 55  2  0  0  0
 54122  1  0  0  0
 55 57  1  0  0  0
 55123  1  0  0  0
 56 69  2  0  0  0
 57 58  2  0  0  0
 57124  1  0  0  0
 58125  1  0  0  0
 59 60  1  0  0  0
 59 61  1  0  0  0
 59 62  1  0  0  0
 60126  1  0  0  0
 60127  1  0  0  0
 60128  1  0  0  0
 61129  1  0  0  0
 61130  1  0  0  0
 61131  1  0  0  0
 62132  1  0  0  0
 62133  1  0  0  0
 62134  1  0  0  0
 63 65  1  0  0  0
 63135  1  0  0  0
 63136  1  0  0  0
 63137  1  0  0  0
 64138  1  0  0  0
 65139  1  0  0  0
 68 75  1  0  0  0
 71 73  1  0  0  0
 71 78  2  0  0  0
 71140  1  0  0  0
 72 73  2  0  0  0
 72 79  1  0  0  0
 72141  1  0  0  0
 73 75  1  0  0  0
 74 80  1  0  0  0
 74142  1  0  0  0
 74143  1  0  0  0
 74144  1  0  0  0
 75145  1  0  0  0
 75146  1  0  0  0
 76 77  1  0  0  0
 76 79  1  0  0  0
 76147  1  0  0  0
 76148  1  0  0  0
 77 80  1  0  0  0
 77149  1  0  0  0
 77150  1  0  0  0
 78 79  1  0  0  0
M  ISO  4   1 100  68 101  75 101  80 100
M  END
> <chiral flag>
0

> <version>
0

> <s_m_source_file>
/data/baiqing/PycharmProjects/Reinvent-master-3.2/result/LINK_invent/BTK/process_docking_weight1_custom_sum_contain_oxygen_bond_distance_aromatic_linkinvent_7_9_3/rearranged_h_0060.sdf

> <i_m_source_file_index>
38

> <r_mmod_Potential_Energy-OPLS-2005>
784.593933105469

> <r_mmod_Stretch_Energy-OPLS-2005>
324.811737060547

> <r_mmod_Bend_Energy-OPLS-2005>
320.694213867188

> <r_mmod_Torsional_Energy-OPLS-2005>
290.881958007812

> <r_mmod_Improper_Torsional_Energy-OPLS-2005>
6.56255960464478

> <r_mmod_Van_der_Waal_Energy-OPLS-2005>
123.893836975098

> <r_mmod_Electrostatic_Energy-OPLS-2005>
-288.959930419922

> <r_mmod_Solvation_Energy-OPLS-2005>
-227.531127929688

> <b_mmod_Minimization_Converged-OPLS-2005>
0

> <r_mmod_RMS_Derivative-OPLS-2005>
2.36066722869873

$$$$
40
                    3D
 Structure written by MMmdl.
157165  0  0  1  0            999 V2000
  -30.5198  -15.0109   20.4067 C   0  0  0  0  0  0
  -30.4388  -12.6338   19.4839 C   0  0  0  0  0  0
  -29.5146  -12.5379   18.2477 C   0  0  0  0  0  0
  -28.0478  -12.3219   18.6687 C   0  0  0  0  0  0
  -27.6220  -13.2568   19.8301 C   0  0  2  0  0  0
  -28.6697  -13.3167   20.9610 C   0  0  0  0  0  0
  -25.2451  -13.8200   20.5730 C   0  0  0  0  0  0
  -24.1779  -13.0420   20.9230 C   0  0  0  0  0  0
  -24.6392  -11.6908   20.8743 C   0  0  0  0  0  0
  -23.9068  -10.4273   21.0403 C   0  0  0  0  0  0
  -24.3608   -9.4188   21.9201 C   0  0  0  0  0  0
  -23.6292   -8.2218   22.0774 C   0  0  0  0  0  0
  -22.4277   -8.0248   21.3555 C   0  0  0  0  0  0
  -21.9904   -9.0221   20.4658 C   0  0  0  0  0  0
  -22.7220  -10.2112   20.3070 C   0  0  0  0  0  0
  -21.6850   -6.0696   22.5243 C   0  0  0  0  0  0
  -21.4015   -6.5607   23.8168 C   0  0  0  0  0  0
  -21.3684   -5.6774   24.9133 C   0  0  0  0  0  0
  -21.6068   -4.3040   24.7193 C   0  0  0  0  0  0
  -21.8826   -3.8115   23.4314 C   0  0  0  0  0  0
  -21.9207   -4.6925   22.3367 C   0  0  0  0  0  0
  -22.7808  -13.5173   21.1905 C   0  0  0  0  0  0
  -22.1687   -4.2113   21.0949 F   0  0  0  0  0  0
  -21.5654   -3.4533   25.7715 F   0  0  0  0  0  0
  -29.9329  -13.7435   20.3487 N   0  0  0  0  0  0
  -26.2872  -12.9463   20.3256 N   0  0  0  0  0  0
  -25.9327  -11.6572   20.5721 N   0  0  0  0  0  0
  -22.0501  -12.8133   22.0467 N   0  0  0  0  0  0
  -25.4098  -15.1932   20.4116 N   0  0  0  0  0  0
  -31.7349  -15.0648   20.1861 O   0  0  0  0  0  0
  -21.6664   -6.8837   21.4206 O   0  0  0  0  0  0
  -22.3471  -14.5494   20.6774 O   0  0  0  0  0  0
  -24.6495  -31.8381   23.1855 C   0  0  0  0  0  0
  -25.9246  -32.4671   23.8273 C   0  0  1  0  0  0
  -27.2171  -27.0788   20.1650 C   0  0  0  0  0  0
  -25.5951  -33.8479   24.2180 N   0  0  0  0  0  0
  -23.4575  -30.4545   21.5291 C   0  0  2  0  0  0
  -24.9132  -28.8750   20.1091 C   0  0  0  0  0  0
  -22.7602  -29.4506   22.4832 C   0  0  0  0  0  0
  -18.0315  -28.1394   22.8503 C   0  0  0  0  0  0
  -24.1479  -36.7247   23.2642 C   0  0  0  0  0  0
  -26.0179  -30.6944   21.3958 C   0  0  0  0  0  0
  -26.0898  -29.2990   20.7391 C   0  0  0  0  0  0
  -27.2410  -28.4155   20.7519 C   0  0  0  0  0  0
  -26.0165  -26.7763   19.4849 C   0  0  0  0  0  0
  -24.8934  -27.6306   19.4642 C   0  0  0  0  0  0
  -23.6907  -29.7803   20.1499 C   0  0  0  0  0  0
  -25.4114  -36.3028   24.0323 C   0  0  1  0  0  0
  -20.5933  -28.3717   23.1235 C   0  0  2  0  0  0
  -20.6784  -26.9414   22.5406 C   0  0  0  0  0  0
  -19.5749  -26.6379   21.5222 C   0  0  0  0  0  0
  -18.1940  -26.7937   22.1640 C   0  0  0  0  0  0
  -19.1575  -28.8875   23.2861 C   0  0  0  0  0  0
  -18.9476  -30.1467   23.8894 C   0  0  0  0  0  0
  -17.6465  -30.6587   24.0560 C   0  0  0  0  0  0
  -25.9067  -34.9397   23.5068 C   0  0  0  0  0  0
  -16.5362  -29.9071   23.6337 C   0  0  0  0  0  0
  -16.7298  -28.6484   23.0388 C   0  0  0  0  0  0
  -26.4568  -31.6547   25.0718 C   0  0  0  0  0  0
  -25.3743  -31.3748   26.1394 C   0  0  0  0  0  0
  -27.0436  -30.2924   24.6350 C   0  0  0  0  0  0
  -27.6081  -32.4330   25.7528 C   0  0  0  0  0  0
  -27.5585  -37.1774   24.8474 C   0  0  0  0  0  0
  -21.4287  -29.3038   22.3592 N   0  0  0  0  0  0
  -26.4285  -37.3738   23.9421 N   0  0  0  0  0  0
  -24.7281  -31.0176   22.0925 N   0  0  0  0  0  0
  -23.4222  -28.8056   23.3003 O   0  0  0  0  0  0
  -28.2408  -26.0481   20.2598 O   0  0  0  0  0  0
  -26.5657  -34.8912   22.4648 O   0  0  0  0  0  0
  -23.5597  -32.1283   23.7031 O   0  0  0  0  0  0
  -30.0271  -23.3515   21.1465 C   0  0  0  0  0  0
  -30.7812  -22.2239   21.5256 C   0  0  0  0  0  0
  -28.8516  -23.1812   20.4077 C   0  0  0  0  0  0
  -29.3505  -20.7128   20.4930 C   0  0  0  0  0  0
  -32.0518  -22.4031   22.3284 C   0  0  0  0  0  0
  -28.8282  -18.9450   18.6828 C   0  0  0  0  0  0
  -27.6858  -18.7867   20.9299 C   0  0  0  0  0  0
  -27.9306  -24.5177   20.0022 C   0  0  0  0  0  0
  -30.0562  -17.7774   20.6128 C   0  0  0  0  0  0
  -29.0147  -19.0862   20.2059 C   0  0  0  0  0  0
  -30.4434  -20.9480   21.2117 N   0  0  0  0  0  0
  -28.5519  -21.8109   20.1060 N   0  0  0  0  0  0
  -29.7325  -16.2060   20.5057 N   0  0  0  0  0  0
  -31.4645  -12.8106   19.1558 H   0  0  0  0  0  0
  -30.4605  -11.6914   20.0341 H   0  0  0  0  0  0
  -29.8381  -11.7296   17.5908 H   0  0  0  0  0  0
  -29.5968  -13.4568   17.6639 H   0  0  0  0  0  0
  -27.9386  -11.2796   18.9694 H   0  0  0  0  0  0
  -27.3839  -12.4659   17.8144 H   0  0  0  0  0  0
  -27.5640  -14.2507   19.3855 H   0  0  0  0  0  0
  -28.7779  -12.3534   21.4607 H   0  0  0  0  0  0
  -28.3585  -14.0335   21.7251 H   0  0  0  0  0  0
  -25.2748   -9.5673   22.4775 H   0  0  0  0  0  0
  -24.0018   -7.4600   22.7482 H   0  0  0  0  0  0
  -21.0852   -8.8680   19.8941 H   0  0  0  0  0  0
  -22.3657  -10.9628   19.6168 H   0  0  0  0  0  0
  -21.1997   -7.6119   23.9636 H   0  0  0  0  0  0
  -21.1548   -6.0525   25.9036 H   0  0  0  0  0  0
  -22.0612   -2.7570   23.2804 H   0  0  0  0  0  0
  -22.4152  -11.9746   22.4744 H   0  0  0  0  0  0
  -21.1133  -13.1116   22.2760 H   0  0  0  0  0  0
  -24.6326  -15.8384   20.5023 H   0  0  0  0  0  0
  -26.2425  -15.6235   20.0341 H   0  0  0  0  0  0
  -26.7295  -32.5286   23.0986 H   0  0  0  0  0  0
  -25.0060  -33.9573   25.0306 H   0  0  0  0  0  0
  -22.7627  -31.2813   21.3673 H   0  0  0  0  0  0
  -23.3761  -35.9557   23.3281 H   0  0  0  0  0  0
  -24.3549  -36.8908   22.2059 H   0  0  0  0  0  0
  -23.7212  -37.6427   23.6688 H   0  0  0  0  0  0
  -26.1738  -31.4465   20.6215 H   0  0  0  0  0  0
  -26.8868  -30.7505   22.0410 H   0  0  0  0  0  0
  -28.1330  -28.7260   21.2793 H   0  0  0  0  0  0
  -25.9052  -25.8261   18.9847 H   0  0  0  0  0  0
  -23.9964  -27.3068   18.9550 H   0  0  0  0  0  0
  -23.8327  -30.5512   19.3922 H   0  0  0  0  0  0
  -22.8086  -29.2189   19.8380 H   0  0  0  0  0  0
  -25.1298  -36.1852   25.0814 H   0  0  0  0  0  0
  -21.0035  -28.3299   24.1350 H   0  0  0  0  0  0
  -20.5669  -26.2326   23.3625 H   0  0  0  0  0  0
  -21.6647  -26.7395   22.1203 H   0  0  0  0  0  0
  -19.6891  -25.6282   21.1266 H   0  0  0  0  0  0
  -19.6685  -27.3184   20.6749 H   0  0  0  0  0  0
  -17.4204  -26.6719   21.4043 H   0  0  0  0  0  0
  -18.0323  -26.0067   22.9024 H   0  0  0  0  0  0
  -19.7939  -30.7302   24.2277 H   0  0  0  0  0  0
  -17.5000  -31.6281   24.5146 H   0  0  0  0  0  0
  -15.5354  -30.2965   23.7650 H   0  0  0  0  0  0
  -15.8708  -28.0772   22.7134 H   0  0  0  0  0  0
  -24.5925  -30.7098   25.7702 H   0  0  0  0  0  0
  -24.8937  -32.2936   26.4757 H   0  0  0  0  0  0
  -25.8005  -30.8949   27.0211 H   0  0  0  0  0  0
  -26.3061  -29.6624   24.1357 H   0  0  0  0  0  0
  -27.4006  -29.7243   25.4955 H   0  0  0  0  0  0
  -27.9000  -30.4115   23.9709 H   0  0  0  0  0  0
  -27.2642  -33.3634   26.2060 H   0  0  0  0  0  0
  -28.3934  -32.6887   25.0401 H   0  0  0  0  0  0
  -28.0712  -31.8493   26.5493 H   0  0  0  0  0  0
  -28.2586  -38.0089   24.7531 H   0  0  0  0  0  0
  -28.1099  -36.2616   24.6280 H   0  0  0  0  0  0
  -27.2304  -37.1407   25.8878 H   0  0  0  0  0  0
  -20.9502  -29.8734   21.6763 H   0  0  0  0  0  0
  -26.0164  -38.2812   24.1413 H   0  0  0  0  0  0
  -30.3433  -24.3489   21.4263 H   0  0  0  0  0  0
  -31.9788  -23.2762   22.9771 H   0  0  0  0  0  0
  -32.8984  -22.5498   21.6565 H   0  0  0  0  0  0
  -32.2521  -21.5388   22.9618 H   0  0  0  0  0  0
  -28.0704  -19.6322   18.3032 H   0  0  0  0  0  0
  -28.5392  -17.9324   18.4008 H   0  0  0  0  0  0
  -29.7533  -19.1801   18.1589 H   0  0  0  0  0  0
  -26.8849  -19.4468   20.5907 H   0  0  0  0  0  0
  -27.7912  -18.9418   22.0032 H   0  0  0  0  0  0
  -27.3495  -17.7620   20.7747 H   0  0  0  0  0  0
  -26.9565  -24.3222   20.4524 H   0  0  0  0  0  0
  -27.7783  -24.4286   18.9263 H   0  0  0  0  0  0
  -30.3138  -17.9307   21.6617 H   0  0  0  0  0  0
  -31.0003  -17.9258   20.0876 H   0  0  0  0  0  0
  -28.7463  -16.0005   20.5554 H   0  0  0  0  0  0
  1 25  1  0  0  0
  1 30  2  0  0  0
  1 83  1  0  0  0
  2  3  1  0  0  0
  2 25  1  0  0  0
  2 84  1  0  0  0
  2 85  1  0  0  0
  3  4  1  0  0  0
  3 86  1  0  0  0
  3 87  1  0  0  0
  4  5  1  0  0  0
  4 88  1  0  0  0
  4 89  1  0  0  0
  5  6  1  0  0  0
  5 26  1  0  0  0
  5 90  1  0  0  0
  6 25  1  0  0  0
  6 91  1  0  0  0
  6 92  1  0  0  0
  7  8  2  0  0  0
  7 26  1  0  0  0
  7 29  1  0  0  0
  8  9  1  0  0  0
  8 22  1  0  0  0
  9 10  1  0  0  0
  9 27  2  0  0  0
 10 11  2  0  0  0
 10 15  1  0  0  0
 11 12  1  0  0  0
 11 93  1  0  0  0
 12 13  2  0  0  0
 12 94  1  0  0  0
 13 14  1  0  0  0
 13 31  1  0  0  0
 14 15  2  0  0  0
 14 95  1  0  0  0
 15 96  1  0  0  0
 16 17  2  0  0  0
 16 21  1  0  0  0
 16 31  1  0  0  0
 17 18  1  0  0  0
 17 97  1  0  0  0
 18 19  2  0  0  0
 18 98  1  0  0  0
 19 20  1  0  0  0
 19 24  1  0  0  0
 20 21  2  0  0  0
 20 99  1  0  0  0
 21 23  1  0  0  0
 22 28  1  0  0  0
 22 32  2  0  0  0
 26 27  1  0  0  0
 28100  1  0  0  0
 28101  1  0  0  0
 29102  1  0  0  0
 29103  1  0  0  0
 33 34  1  0  0  0
 33 66  1  0  0  0
 33 70  2  0  0  0
 34 36  1  0  0  0
 34 59  1  0  0  0
 34104  1  0  0  0
 35 44  2  0  0  0
 35 45  1  0  0  0
 35 68  1  0  0  0
 36 56  1  0  0  0
 36105  1  0  0  0
 37 39  1  0  0  0
 37 47  1  0  0  0
 37 66  1  0  0  0
 37106  1  0  0  0
 38 43  2  0  0  0
 38 46  1  0  0  0
 38 47  1  0  0  0
 39 64  1  0  0  0
 39 67  2  0  0  0
 40 52  1  0  0  0
 40 53  2  0  0  0
 40 58  1  0  0  0
 41107  1  0  0  0
 41108  1  0  0  0
 41109  1  0  0  0
 41 48  1  0  0  0
 42 43  1  0  0  0
 42 66  1  0  0  0
 42110  1  0  0  0
 42111  1  0  0  0
 43 44  1  0  0  0
 44112  1  0  0  0
 45 46  2  0  0  0
 45113  1  0  0  0
 46114  1  0  0  0
 47115  1  0  0  0
 47116  1  0  0  0
 48 56  1  0  0  0
 48 65  1  0  0  0
 48117  1  0  0  0
 49 50  1  0  0  0
 49 53  1  0  0  0
 49 64  1  0  0  0
 49118  1  0  0  0
 50 51  1  0  0  0
 50119  1  0  0  0
 50120  1  0  0  0
 51 52  1  0  0  0
 51121  1  0  0  0
 51122  1  0  0  0
 52123  1  0  0  0
 52124  1  0  0  0
 53 54  1  0  0  0
 54 55  2  0  0  0
 54125  1  0  0  0
 55 57  1  0  0  0
 55126  1  0  0  0
 56 69  2  0  0  0
 57 58  2  0  0  0
 57127  1  0  0  0
 58128  1  0  0  0
 59 60  1  0  0  0
 59 61  1  0  0  0
 59 62  1  0  0  0
 60129  1  0  0  0
 60130  1  0  0  0
 60131  1  0  0  0
 61132  1  0  0  0
 61133  1  0  0  0
 61134  1  0  0  0
 62135  1  0  0  0
 62136  1  0  0  0
 62137  1  0  0  0
 63 65  1  0  0  0
 63138  1  0  0  0
 63139  1  0  0  0
 63140  1  0  0  0
 64141  1  0  0  0
 65142  1  0  0  0
 68 78  1  0  0  0
 71 72  2  0  0  0
 71 73  1  0  0  0
 71143  1  0  0  0
 72 75  1  0  0  0
 72 81  1  0  0  0
 73 78  1  0  0  0
 73 82  2  0  0  0
 74 80  1  0  0  0
 74 81  2  0  0  0
 74 82  1  0  0  0
 75144  1  0  0  0
 75145  1  0  0  0
 75146  1  0  0  0
 76147  1  0  0  0
 76148  1  0  0  0
 76149  1  0  0  0
 76 80  1  0  0  0
 77 80  1  0  0  0
 77150  1  0  0  0
 77151  1  0  0  0
 77152  1  0  0  0
 78153  1  0  0  0
 78154  1  0  0  0
 79 80  1  0  0  0
 79 83  1  0  0  0
 79155  1  0  0  0
 79156  1  0  0  0
 83157  1  0  0  0
M  ISO  4   1 100  68 101  78 101  83 100
M  END
> <chiral flag>
0

> <version>
0

> <s_m_source_file>
/data/baiqing/PycharmProjects/Reinvent-master-3.2/result/LINK_invent/BTK/process_docking_weight1_custom_sum_contain_oxygen_bond_distance_aromatic_linkinvent_7_9_3/rearranged_h_0060.sdf

> <i_m_source_file_index>
39

> <r_mmod_Potential_Energy-OPLS-2005>
177.048751831055

> <r_mmod_Stretch_Energy-OPLS-2005>
320.50537109375

> <r_mmod_Bend_Energy-OPLS-2005>
276.638977050781

> <r_mmod_Torsional_Energy-OPLS-2005>
215.095596313477

> <r_mmod_Improper_Torsional_Energy-OPLS-2005>
4.61237859725952

> <r_mmod_Van_der_Waal_Energy-OPLS-2005>
128.49528503418

> <r_mmod_Electrostatic_Energy-OPLS-2005>
-780.548889160156

> <r_mmod_Solvation_Energy-OPLS-2005>
-236.055480957031

> <b_mmod_Minimization_Converged-OPLS-2005>
0

> <r_mmod_RMS_Derivative-OPLS-2005>
3.43978953361511

$$$$
41
                    3D
 Structure written by MMmdl.
161169  0  0  1  0            999 V2000
  -30.5342  -14.9616   20.4849 C   0  0  0  0  0  0
  -30.4480  -12.6007   19.5177 C   0  0  0  0  0  0
  -29.5224  -12.5363   18.2756 C   0  0  0  0  0  0
  -28.0450  -12.3431   18.6679 C   0  0  0  0  0  0
  -27.6353  -13.2466   19.8542 C   0  0  2  0  0  0
  -28.6770  -13.1966   20.9852 C   0  0  0  0  0  0
  -25.2451  -13.8220   20.5619 C   0  0  0  0  0  0
  -24.1765  -13.0437   20.9178 C   0  0  0  0  0  0
  -24.6383  -11.6938   20.8746 C   0  0  0  0  0  0
  -23.9062  -10.4308   21.0412 C   0  0  0  0  0  0
  -24.3640   -9.4247   21.9186 C   0  0  0  0  0  0
  -23.6341   -8.2262   22.0752 C   0  0  0  0  0  0
  -22.4309   -8.0300   21.3565 C   0  0  0  0  0  0
  -21.9953   -9.0245   20.4639 C   0  0  0  0  0  0
  -22.7244  -10.2138   20.3047 C   0  0  0  0  0  0
  -21.6854   -6.0792   22.5301 C   0  0  0  0  0  0
  -21.4004   -6.5691   23.8240 C   0  0  0  0  0  0
  -21.3643   -5.6833   24.9197 C   0  0  0  0  0  0
  -21.6017   -4.3094   24.7222 C   0  0  0  0  0  0
  -21.8824   -3.8201   23.4346 C   0  0  0  0  0  0
  -21.9205   -4.7018   22.3415 C   0  0  0  0  0  0
  -22.7789  -13.5188   21.1840 C   0  0  0  0  0  0
  -22.1699   -4.2221   21.0993 F   0  0  0  0  0  0
  -21.5605   -3.4562   25.7732 F   0  0  0  0  0  0
  -29.9486  -13.6828   20.4266 N   0  0  0  0  0  0
  -26.2904  -12.9446   20.3316 N   0  0  0  0  0  0
  -25.9340  -11.6588   20.5838 N   0  0  0  0  0  0
  -22.0517  -12.8121   22.0430 N   0  0  0  0  0  0
  -25.4086  -15.1892   20.3803 N   0  0  0  0  0  0
  -31.7059  -14.9814   20.0815 O   0  0  0  0  0  0
  -21.6654   -6.8929   21.4271 O   0  0  0  0  0  0
  -22.3442  -14.5492   20.6739 O   0  0  0  0  0  0
  -24.6391  -31.8451   23.1906 C   0  0  0  0  0  0
  -25.9164  -32.4718   23.8295 C   0  0  1  0  0  0
  -27.2195  -27.1554   20.1544 C   0  0  0  0  0  0
  -25.5927  -33.8524   24.2231 N   0  0  0  0  0  0
  -23.4418  -30.4610   21.5385 C   0  0  2  0  0  0
  -24.8886  -28.8780   20.1283 C   0  0  0  0  0  0
  -22.7552  -29.4520   22.4906 C   0  0  0  0  0  0
  -18.0283  -28.1382   22.8482 C   0  0  0  0  0  0
  -24.1487  -36.7273   23.2647 C   0  0  0  0  0  0
  -25.9942  -30.7263   21.3803 C   0  0  0  0  0  0
  -26.0677  -29.3331   20.7337 C   0  0  0  0  0  0
  -27.2376  -28.4887   20.7239 C   0  0  0  0  0  0
  -26.0134  -26.7793   19.5334 C   0  0  0  0  0  0
  -24.8682  -27.6099   19.5228 C   0  0  0  0  0  0
  -23.6669  -29.7842   20.1606 C   0  0  0  0  0  0
  -25.4118  -36.3061   24.0326 C   0  0  1  0  0  0
  -20.5895  -28.3682   23.1273 C   0  0  2  0  0  0
  -20.6763  -26.9388   22.5423 C   0  0  0  0  0  0
  -19.5737  -26.6363   21.5229 C   0  0  0  0  0  0
  -18.1914  -26.7922   22.1632 C   0  0  0  0  0  0
  -19.1539  -28.8853   23.2861 C   0  0  0  0  0  0
  -18.9459  -30.1456   23.8875 C   0  0  0  0  0  0
  -17.6456  -30.6577   24.0550 C   0  0  0  0  0  0
  -25.9050  -34.9425   23.5086 C   0  0  0  0  0  0
  -16.5346  -29.9070   23.6336 C   0  0  0  0  0  0
  -16.7270  -28.6492   23.0357 C   0  0  0  0  0  0
  -26.4500  -31.6577   25.0725 C   0  0  0  0  0  0
  -25.3710  -31.3735   26.1443 C   0  0  0  0  0  0
  -27.0371  -30.2994   24.6255 C   0  0  0  0  0  0
  -27.6036  -32.4336   25.7517 C   0  0  0  0  0  0
  -27.5577  -37.1789   24.8457 C   0  0  0  0  0  0
  -21.4245  -29.3021   22.3671 N   0  0  0  0  0  0
  -26.4284  -37.3767   23.9413 N   0  0  0  0  0  0
  -24.7125  -31.0306   22.0935 N   0  0  0  0  0  0
  -23.4209  -28.8061   23.3039 O   0  0  0  0  0  0
  -28.3285  -26.2540   20.0557 O   0  0  0  0  0  0
  -26.5634  -34.8910   22.4667 O   0  0  0  0  0  0
  -23.5516  -32.1322   23.7129 O   0  0  0  0  0  0
  -29.4009  -19.0704   19.7857 C   0  0  0  0  0  0
  -27.8234  -20.2894   21.4722 C   0  0  0  0  0  0
  -30.3180  -20.5992   21.6581 C   0  0  0  0  0  0
  -28.6023  -16.3048   21.7766 C   0  0  0  0  0  0
  -30.9510  -16.9734   22.0126 C   0  0  0  0  0  0
  -28.0694  -23.3018   20.2273 C   0  0  0  0  0  0
  -29.0609  -21.9624   19.9214 C   0  0  0  0  0  0
  -28.4598  -24.8604   20.7095 C   0  0  0  0  0  0
  -29.1377  -20.4336   20.6816 C   0  0  0  0  0  0
  -29.9137  -16.4672   20.9880 C   0  0  0  0  0  0
  -29.2579  -19.2870   18.4766 N   0  0  0  0  0  0
  -29.4397  -18.0954   17.8418 N   0  0  0  0  0  0
  -29.6564  -17.1420   18.6798 N   0  0  0  0  0  0
  -29.6872  -17.6457   19.9481 N   0  0  0  0  0  0
  -31.4727  -12.7697   19.1831 H   0  0  0  0  0  0
  -30.4903  -11.6419   20.0413 H   0  0  0  0  0  0
  -29.8331  -11.7326   17.6075 H   0  0  0  0  0  0
  -29.6242  -13.4646   17.7124 H   0  0  0  0  0  0
  -27.9003  -11.2959   18.9367 H   0  0  0  0  0  0
  -27.3974  -12.5371   17.8110 H   0  0  0  0  0  0
  -27.6238  -14.2620   19.4572 H   0  0  0  0  0  0
  -28.7814  -12.1745   21.3570 H   0  0  0  0  0  0
  -28.3498  -13.7664   21.8463 H   0  0  0  0  0  0
  -25.2807   -9.5715   22.4717 H   0  0  0  0  0  0
  -24.0061   -7.4659   22.7449 H   0  0  0  0  0  0
  -21.0911   -8.8706   19.8935 H   0  0  0  0  0  0
  -22.3704  -10.9644   19.6113 H   0  0  0  0  0  0
  -21.2001   -7.6201   23.9757 H   0  0  0  0  0  0
  -21.1444   -6.0569   25.9098 H   0  0  0  0  0  0
  -22.0612   -2.7664   23.2815 H   0  0  0  0  0  0
  -22.4243  -11.9757   22.4659 H   0  0  0  0  0  0
  -21.1166  -13.1074   22.2828 H   0  0  0  0  0  0
  -24.6370  -15.8443   20.4479 H   0  0  0  0  0  0
  -26.2404  -15.6069   19.9818 H   0  0  0  0  0  0
  -26.7228  -32.5341   23.1026 H   0  0  0  0  0  0
  -25.0082  -33.9657   25.0381 H   0  0  0  0  0  0
  -22.7417  -31.2851   21.3839 H   0  0  0  0  0  0
  -23.3766  -35.9582   23.3276 H   0  0  0  0  0  0
  -24.3575  -36.8944   22.2069 H   0  0  0  0  0  0
  -23.7214  -37.6448   23.6700 H   0  0  0  0  0  0
  -26.1338  -31.4726   20.5968 H   0  0  0  0  0  0
  -26.8723  -30.7913   22.0118 H   0  0  0  0  0  0
  -28.1531  -28.8396   21.1809 H   0  0  0  0  0  0
  -25.9503  -25.8132   19.0508 H   0  0  0  0  0  0
  -23.9620  -27.2531   19.0538 H   0  0  0  0  0  0
  -23.8099  -30.5571   19.4046 H   0  0  0  0  0  0
  -22.7800  -29.2294   19.8495 H   0  0  0  0  0  0
  -25.1298  -36.1907   25.0815 H   0  0  0  0  0  0
  -20.9969  -28.3253   24.1398 H   0  0  0  0  0  0
  -20.5668  -26.2279   23.3624 H   0  0  0  0  0  0
  -21.6630  -26.7391   22.1217 H   0  0  0  0  0  0
  -19.6890  -25.6274   21.1252 H   0  0  0  0  0  0
  -19.6683  -27.3173   20.6763 H   0  0  0  0  0  0
  -17.4188  -26.6679   21.4023 H   0  0  0  0  0  0
  -18.0278  -26.0067   22.9031 H   0  0  0  0  0  0
  -19.7928  -30.7280   24.2238 H   0  0  0  0  0  0
  -17.4998  -31.6259   24.5155 H   0  0  0  0  0  0
  -15.5338  -30.2962   23.7664 H   0  0  0  0  0  0
  -15.8668  -28.0797   22.7084 H   0  0  0  0  0  0
  -24.5896  -30.7065   25.7785 H   0  0  0  0  0  0
  -24.8876  -32.2898   26.4842 H   0  0  0  0  0  0
  -25.8021  -30.8949   27.0247 H   0  0  0  0  0  0
  -26.2982  -29.6728   24.1250 H   0  0  0  0  0  0
  -27.4019  -29.7274   25.4798 H   0  0  0  0  0  0
  -27.8866  -30.4284   23.9546 H   0  0  0  0  0  0
  -27.2644  -33.3672   26.2019 H   0  0  0  0  0  0
  -28.3886  -32.6836   25.0369 H   0  0  0  0  0  0
  -28.0648  -31.8503   26.5500 H   0  0  0  0  0  0
  -28.2562  -38.0122   24.7540 H   0  0  0  0  0  0
  -28.1110  -36.2645   24.6243 H   0  0  0  0  0  0
  -27.2290  -37.1386   25.8860 H   0  0  0  0  0  0
  -20.9437  -29.8769   21.6886 H   0  0  0  0  0  0
  -26.0162  -38.2830   24.1449 H   0  0  0  0  0  0
  -27.8117  -19.4193   22.1241 H   0  0  0  0  0  0
  -26.9710  -20.2147   20.7989 H   0  0  0  0  0  0
  -27.6477  -21.1516   22.1139 H   0  0  0  0  0  0
  -30.4100  -19.7739   22.3535 H   0  0  0  0  0  0
  -30.2209  -21.5018   22.2629 H   0  0  0  0  0  0
  -31.2569  -20.6700   21.1067 H   0  0  0  0  0  0
  -27.8249  -15.8698   21.1619 H   0  0  0  0  0  0
  -28.2207  -17.2619   22.1204 H   0  0  0  0  0  0
  -28.7315  -15.6958   22.6718 H   0  0  0  0  0  0
  -30.5160  -17.6860   22.7096 H   0  0  0  0  0  0
  -31.7919  -17.4514   21.5104 H   0  0  0  0  0  0
  -31.3497  -16.1682   22.6324 H   0  0  0  0  0  0
  -27.3696  -22.9726   20.9904 H   0  0  0  0  0  0
  -27.4100  -23.4147   19.3660 H   0  0  0  0  0  0
  -30.0806  -22.3317   19.8165 H   0  0  0  0  0  0
  -28.8014  -21.7414   18.8882 H   0  0  0  0  0  0
  -29.5166  -24.8018   20.9637 H   0  0  0  0  0  0
  -27.9774  -24.9906   21.6791 H   0  0  0  0  0  0
  1 25  1  0  0  0
  1 30  2  0  0  0
  1 80  1  0  0  0
  2  3  1  0  0  0
  2 25  1  0  0  0
  2 85  1  0  0  0
  2 86  1  0  0  0
  3  4  1  0  0  0
  3 87  1  0  0  0
  3 88  1  0  0  0
  4  5  1  0  0  0
  4 89  1  0  0  0
  4 90  1  0  0  0
  5  6  1  0  0  0
  5 26  1  0  0  0
  5 91  1  0  0  0
  6 25  1  0  0  0
  6 92  1  0  0  0
  6 93  1  0  0  0
  7  8  2  0  0  0
  7 26  1  0  0  0
  7 29  1  0  0  0
  8  9  1  0  0  0
  8 22  1  0  0  0
  9 10  1  0  0  0
  9 27  2  0  0  0
 10 11  2  0  0  0
 10 15  1  0  0  0
 11 12  1  0  0  0
 11 94  1  0  0  0
 12 13  2  0  0  0
 12 95  1  0  0  0
 13 14  1  0  0  0
 13 31  1  0  0  0
 14 15  2  0  0  0
 14 96  1  0  0  0
 15 97  1  0  0  0
 16 17  2  0  0  0
 16 21  1  0  0  0
 16 31  1  0  0  0
 17 18  1  0  0  0
 17 98  1  0  0  0
 18 19  2  0  0  0
 18 99  1  0  0  0
 19 20  1  0  0  0
 19 24  1  0  0  0
 20 21  2  0  0  0
 20100  1  0  0  0
 21 23  1  0  0  0
 22 28  1  0  0  0
 22 32  2  0  0  0
 26 27  1  0  0  0
 28101  1  0  0  0
 28102  1  0  0  0
 29103  1  0  0  0
 29104  1  0  0  0
 33 34  1  0  0  0
 33 66  1  0  0  0
 33 70  2  0  0  0
 34 36  1  0  0  0
 34 59  1  0  0  0
 34105  1  0  0  0
 35 44  2  0  0  0
 35 45  1  0  0  0
 35 68  1  0  0  0
 36 56  1  0  0  0
 36106  1  0  0  0
 37 39  1  0  0  0
 37 47  1  0  0  0
 37 66  1  0  0  0
 37107  1  0  0  0
 38 43  2  0  0  0
 38 46  1  0  0  0
 38 47  1  0  0  0
 39 64  1  0  0  0
 39 67  2  0  0  0
 40 52  1  0  0  0
 40 53  2  0  0  0
 40 58  1  0  0  0
 41108  1  0  0  0
 41109  1  0  0  0
 41110  1  0  0  0
 41 48  1  0  0  0
 42 43  1  0  0  0
 42 66  1  0  0  0
 42111  1  0  0  0
 42112  1  0  0  0
 43 44  1  0  0  0
 44113  1  0  0  0
 45 46  2  0  0  0
 45114  1  0  0  0
 46115  1  0  0  0
 47116  1  0  0  0
 47117  1  0  0  0
 48 56  1  0  0  0
 48 65  1  0  0  0
 48118  1  0  0  0
 49 50  1  0  0  0
 49 53  1  0  0  0
 49 64  1  0  0  0
 49119  1  0  0  0
 50 51  1  0  0  0
 50120  1  0  0  0
 50121  1  0  0  0
 51 52  1  0  0  0
 51122  1  0  0  0
 51123  1  0  0  0
 52124  1  0  0  0
 52125  1  0  0  0
 53 54  1  0  0  0
 54 55  2  0  0  0
 54126  1  0  0  0
 55 57  1  0  0  0
 55127  1  0  0  0
 56 69  2  0  0  0
 57 58  2  0  0  0
 57128  1  0  0  0
 58129  1  0  0  0
 59 60  1  0  0  0
 59 61  1  0  0  0
 59 62  1  0  0  0
 60130  1  0  0  0
 60131  1  0  0  0
 60132  1  0  0  0
 61133  1  0  0  0
 61134  1  0  0  0
 61135  1  0  0  0
 62136  1  0  0  0
 62137  1  0  0  0
 62138  1  0  0  0
 63 65  1  0  0  0
 63139  1  0  0  0
 63140  1  0  0  0
 63141  1  0  0  0
 64142  1  0  0  0
 65143  1  0  0  0
 68 78  1  0  0  0
 71 79  1  0  0  0
 71 81  2  0  0  0
 71 84  1  0  0  0
 72144  1  0  0  0
 72145  1  0  0  0
 72146  1  0  0  0
 72 79  1  0  0  0
 73 79  1  0  0  0
 73147  1  0  0  0
 73148  1  0  0  0
 73149  1  0  0  0
 74150  1  0  0  0
 74151  1  0  0  0
 74152  1  0  0  0
 74 80  1  0  0  0
 75 80  1  0  0  0
 75153  1  0  0  0
 75154  1  0  0  0
 75155  1  0  0  0
 76 77  1  0  0  0
 76 78  1  0  0  0
 76156  1  0  0  0
 76157  1  0  0  0
 77 79  1  0  0  0
 77158  1  0  0  0
 77159  1  0  0  0
 78160  1  0  0  0
 78161  1  0  0  0
 80 84  1  0  0  0
 81 82  1  0  0  0
 82 83  2  0  0  0
 83 84  1  0  0  0
M  ISO  4   1 100  68 101  78 101  80 100
M  END
> <chiral flag>
0

> <version>
0

> <s_m_source_file>
/data/baiqing/PycharmProjects/Reinvent-master-3.2/result/LINK_invent/BTK/process_docking_weight1_custom_sum_contain_oxygen_bond_distance_aromatic_linkinvent_7_9_3/rearranged_h_0060.sdf

> <i_m_source_file_index>
40

> <r_mmod_Potential_Energy-OPLS-2005>
782.530517578125

> <r_mmod_Stretch_Energy-OPLS-2005>
313.739654541016

> <r_mmod_Bend_Energy-OPLS-2005>
400.528198242188

> <r_mmod_Torsional_Energy-OPLS-2005>
281.747924804688

> <r_mmod_Improper_Torsional_Energy-OPLS-2005>
2.68529677391052

> <r_mmod_Van_der_Waal_Energy-OPLS-2005>
117.307479858398

> <r_mmod_Electrostatic_Energy-OPLS-2005>
-289.537994384766

> <r_mmod_Solvation_Energy-OPLS-2005>
-209.76513671875

> <b_mmod_Minimization_Converged-OPLS-2005>
0

> <r_mmod_RMS_Derivative-OPLS-2005>
4.31598711013794

$$$$
42
                    3D
 Structure written by MMmdl.
158166  0  0  1  0            999 V2000
  -30.5349  -15.0432   20.3780 C   0  0  0  0  0  0
  -30.4395  -12.6435   19.5132 C   0  0  0  0  0  0
  -29.5251  -12.5382   18.2695 C   0  0  0  0  0  0
  -28.0681  -12.2980   18.7010 C   0  0  0  0  0  0
  -27.6287  -13.2570   19.8367 C   0  0  2  0  0  0
  -28.6726  -13.3470   20.9729 C   0  0  0  0  0  0
  -25.2510  -13.8224   20.5783 C   0  0  0  0  0  0
  -24.1802  -13.0448   20.9283 C   0  0  0  0  0  0
  -24.6417  -11.6960   20.8733 C   0  0  0  0  0  0
  -23.9087  -10.4319   21.0377 C   0  0  0  0  0  0
  -24.3620   -9.4249   21.9162 C   0  0  0  0  0  0
  -23.6300   -8.2267   22.0741 C   0  0  0  0  0  0
  -22.4268   -8.0280   21.3558 C   0  0  0  0  0  0
  -21.9913   -9.0236   20.4652 C   0  0  0  0  0  0
  -22.7236  -10.2129   20.3063 C   0  0  0  0  0  0
  -21.6842   -6.0730   22.5274 C   0  0  0  0  0  0
  -21.4013   -6.5641   23.8206 C   0  0  0  0  0  0
  -21.3682   -5.6807   24.9176 C   0  0  0  0  0  0
  -21.6046   -4.3058   24.7230 C   0  0  0  0  0  0
  -21.8820   -3.8145   23.4341 C   0  0  0  0  0  0
  -21.9206   -4.6965   22.3405 C   0  0  0  0  0  0
  -22.7825  -13.5251   21.1877 C   0  0  0  0  0  0
  -22.1671   -4.2154   21.0984 F   0  0  0  0  0  0
  -21.5637   -3.4542   25.7742 F   0  0  0  0  0  0
  -29.9375  -13.7719   20.3598 N   0  0  0  0  0  0
  -26.2923  -12.9464   20.3294 N   0  0  0  0  0  0
  -25.9370  -11.6599   20.5738 N   0  0  0  0  0  0
  -22.0458  -12.8219   22.0434 N   0  0  0  0  0  0
  -25.4145  -15.1930   20.4241 N   0  0  0  0  0  0
  -31.7356  -15.0792   20.0980 O   0  0  0  0  0  0
  -21.6661   -6.8850   21.4220 O   0  0  0  0  0  0
  -22.3523  -14.5542   20.6710 O   0  0  0  0  0  0
  -24.6468  -31.8401   23.1836 C   0  0  0  0  0  0
  -25.9220  -32.4674   23.8238 C   0  0  1  0  0  0
  -27.2709  -27.1105   20.1542 C   0  0  0  0  0  0
  -25.5938  -33.8472   24.2148 N   0  0  0  0  0  0
  -23.4578  -30.4557   21.5263 C   0  0  2  0  0  0
  -24.9242  -28.8790   20.1138 C   0  0  0  0  0  0
  -22.7626  -29.4533   22.4821 C   0  0  0  0  0  0
  -18.0378  -28.1383   22.8534 C   0  0  0  0  0  0
  -24.1491  -36.7250   23.2636 C   0  0  0  0  0  0
  -26.0175  -30.7094   21.3905 C   0  0  0  0  0  0
  -26.1031  -29.3155   20.7341 C   0  0  0  0  0  0
  -27.2707  -28.4511   20.7402 C   0  0  0  0  0  0
  -26.0618  -26.8010   19.4796 C   0  0  0  0  0  0
  -24.9195  -27.6328   19.4726 C   0  0  0  0  0  0
  -23.6943  -29.7756   20.1512 C   0  0  0  0  0  0
  -25.4133  -36.2996   24.0290 C   0  0  1  0  0  0
  -20.5974  -28.3772   23.1247 C   0  0  2  0  0  0
  -20.6815  -26.9475   22.5417 C   0  0  0  0  0  0
  -19.5815  -26.6421   21.5221 C   0  0  0  0  0  0
  -18.2024  -26.7933   22.1682 C   0  0  0  0  0  0
  -19.1610  -28.8912   23.2878 C   0  0  0  0  0  0
  -18.9494  -30.1522   23.8873 C   0  0  0  0  0  0
  -17.6464  -30.6581   24.0546 C   0  0  0  0  0  0
  -25.9086  -34.9378   23.5038 C   0  0  0  0  0  0
  -16.5375  -29.9036   23.6314 C   0  0  0  0  0  0
  -16.7356  -28.6463   23.0350 C   0  0  0  0  0  0
  -26.4549  -31.6553   25.0701 C   0  0  0  0  0  0
  -25.3702  -31.3772   26.1376 C   0  0  0  0  0  0
  -27.0421  -30.2914   24.6348 C   0  0  0  0  0  0
  -27.6054  -32.4346   25.7510 C   0  0  0  0  0  0
  -27.5579  -37.1776   24.8462 C   0  0  0  0  0  0
  -21.4320  -29.3084   22.3604 N   0  0  0  0  0  0
  -26.4289  -37.3721   23.9406 N   0  0  0  0  0  0
  -24.7262  -31.0240   22.0875 N   0  0  0  0  0  0
  -23.4265  -28.8077   23.2968 O   0  0  0  0  0  0
  -28.3108  -26.0793   20.2382 O   0  0  0  0  0  0
  -26.5684  -34.8883   22.4625 O   0  0  0  0  0  0
  -23.5569  -32.1261   23.7039 O   0  0  0  0  0  0
  -28.7826  -23.1497   20.1841 C   0  0  0  0  0  0
  -29.2054  -20.8490   20.3476 C   0  0  0  0  0  0
  -25.8576  -22.3530   19.3017 C   0  0  0  0  0  0
  -29.0200  -19.0903   22.1751 C   0  0  0  0  0  0
  -27.6649  -18.6391   20.1907 C   0  0  0  0  0  0
  -27.9653  -24.5855   19.8700 C   0  0  0  0  0  0
  -27.1774  -21.6503   18.9130 C   0  0  0  0  0  0
  -30.0686  -17.8325   20.2098 C   0  0  0  0  0  0
  -29.0389  -19.1613   20.6358 C   0  0  0  0  0  0
  -29.9666  -22.9629   20.7965 N   0  0  0  0  0  0
  -30.2304  -21.5604   20.8744 N   0  0  0  0  0  0
  -28.3216  -21.8505   19.8152 N   0  0  0  0  0  0
  -29.7761  -16.2630   20.4981 N   0  0  0  0  0  0
  -31.4710  -12.7997   19.1995 H   0  0  0  0  0  0
  -30.4480  -11.7052   20.0731 H   0  0  0  0  0  0
  -29.8626  -11.7406   17.6085 H   0  0  0  0  0  0
  -29.5848  -13.4598   17.6905 H   0  0  0  0  0  0
  -28.0096  -11.2678   19.0586 H   0  0  0  0  0  0
  -27.3904  -12.3714   17.8495 H   0  0  0  0  0  0
  -27.5752  -14.2434   19.3773 H   0  0  0  0  0  0
  -28.7808  -12.3964   21.4971 H   0  0  0  0  0  0
  -28.3620  -14.0742   21.7239 H   0  0  0  0  0  0
  -25.2722   -9.5744   22.4786 H   0  0  0  0  0  0
  -24.0016   -7.4663   22.7465 H   0  0  0  0  0  0
  -21.0870   -8.8742   19.8952 H   0  0  0  0  0  0
  -22.3641  -10.9665   19.6210 H   0  0  0  0  0  0
  -21.1970   -7.6147   23.9718 H   0  0  0  0  0  0
  -21.1510   -6.0529   25.9094 H   0  0  0  0  0  0
  -22.0566   -2.7608   23.2848 H   0  0  0  0  0  0
  -22.4059  -11.9889   22.4822 H   0  0  0  0  0  0
  -21.1086  -13.1203   22.2642 H   0  0  0  0  0  0
  -24.6383  -15.8324   20.5590 H   0  0  0  0  0  0
  -26.2649  -15.6427   20.1072 H   0  0  0  0  0  0
  -26.7296  -32.5301   23.0978 H   0  0  0  0  0  0
  -25.0032  -33.9588   25.0248 H   0  0  0  0  0  0
  -22.7609  -31.2812   21.3631 H   0  0  0  0  0  0
  -23.3737  -35.9592   23.3278 H   0  0  0  0  0  0
  -24.3573  -36.8914   22.2055 H   0  0  0  0  0  0
  -23.7260  -37.6436   23.6711 H   0  0  0  0  0  0
  -26.1828  -31.4627   20.6189 H   0  0  0  0  0  0
  -26.8787  -30.7599   22.0453 H   0  0  0  0  0  0
  -28.1630  -28.7980   21.2459 H   0  0  0  0  0  0
  -25.9542  -25.8638   18.9591 H   0  0  0  0  0  0
  -24.0283  -27.2887   18.9693 H   0  0  0  0  0  0
  -23.8234  -30.5434   19.3865 H   0  0  0  0  0  0
  -22.8118  -29.2108   19.8467 H   0  0  0  0  0  0
  -25.1326  -36.1813   25.0775 H   0  0  0  0  0  0
  -21.0124  -28.3334   24.1354 H   0  0  0  0  0  0
  -20.5648  -26.2412   23.3655 H   0  0  0  0  0  0
  -21.6680  -26.7463   22.1236 H   0  0  0  0  0  0
  -19.6990  -25.6350   21.1240 H   0  0  0  0  0  0
  -19.6679  -27.3236   20.6755 H   0  0  0  0  0  0
  -17.4266  -26.6736   21.4093 H   0  0  0  0  0  0
  -18.0458  -26.0044   22.9074 H   0  0  0  0  0  0
  -19.7918  -30.7416   24.2177 H   0  0  0  0  0  0
  -17.4969  -31.6271   24.5144 H   0  0  0  0  0  0
  -15.5356  -30.2891   23.7644 H   0  0  0  0  0  0
  -15.8797  -28.0759   22.7004 H   0  0  0  0  0  0
  -24.5908  -30.7112   25.7678 H   0  0  0  0  0  0
  -24.8889  -32.2970   26.4696 H   0  0  0  0  0  0
  -25.7959  -30.9010   27.0214 H   0  0  0  0  0  0
  -26.3060  -29.6630   24.1337 H   0  0  0  0  0  0
  -27.3946  -29.7256   25.4982 H   0  0  0  0  0  0
  -27.9009  -30.4096   23.9739 H   0  0  0  0  0  0
  -27.2614  -33.3667   26.2011 H   0  0  0  0  0  0
  -28.3917  -32.6877   25.0382 H   0  0  0  0  0  0
  -28.0666  -31.8527   26.5501 H   0  0  0  0  0  0
  -28.2566  -38.0095   24.7508 H   0  0  0  0  0  0
  -28.1099  -36.2626   24.6291 H   0  0  0  0  0  0
  -27.2303  -37.1423   25.8859 H   0  0  0  0  0  0
  -20.9535  -29.8791   21.6783 H   0  0  0  0  0  0
  -26.0141  -38.2775   24.1406 H   0  0  0  0  0  0
  -25.6558  -22.3246   20.3707 H   0  0  0  0  0  0
  -25.0065  -21.8948   18.8024 H   0  0  0  0  0  0
  -25.8109  -23.3905   18.9748 H   0  0  0  0  0  0
  -28.7609  -18.0997   22.5475 H   0  0  0  0  0  0
  -28.3077  -19.8030   22.5896 H   0  0  0  0  0  0
  -30.0045  -19.3413   22.5734 H   0  0  0  0  0  0
  -27.6191  -18.5161   19.1083 H   0  0  0  0  0  0
  -26.8531  -19.2812   20.5372 H   0  0  0  0  0  0
  -27.4758  -17.6470   20.5999 H   0  0  0  0  0  0
  -27.0180  -24.4422   20.3773 H   0  0  0  0  0  0
  -27.7816  -24.5943   18.7965 H   0  0  0  0  0  0
  -27.4845  -21.9743   17.9176 H   0  0  0  0  0  0
  -26.9845  -20.5972   18.7777 H   0  0  0  0  0  0
  -30.2127  -17.8825   19.1279 H   0  0  0  0  0  0
  -31.0579  -18.0356   20.6174 H   0  0  0  0  0  0
  -28.8124  -16.0754   20.7243 H   0  0  0  0  0  0
  1 25  1  0  0  0
  1 30  2  0  0  0
  1 83  1  0  0  0
  2  3  1  0  0  0
  2 25  1  0  0  0
  2 84  1  0  0  0
  2 85  1  0  0  0
  3  4  1  0  0  0
  3 86  1  0  0  0
  3 87  1  0  0  0
  4  5  1  0  0  0
  4 88  1  0  0  0
  4 89  1  0  0  0
  5  6  1  0  0  0
  5 26  1  0  0  0
  5 90  1  0  0  0
  6 25  1  0  0  0
  6 91  1  0  0  0
  6 92  1  0  0  0
  7  8  2  0  0  0
  7 26  1  0  0  0
  7 29  1  0  0  0
  8  9  1  0  0  0
  8 22  1  0  0  0
  9 10  1  0  0  0
  9 27  2  0  0  0
 10 11  2  0  0  0
 10 15  1  0  0  0
 11 12  1  0  0  0
 11 93  1  0  0  0
 12 13  2  0  0  0
 12 94  1  0  0  0
 13 14  1  0  0  0
 13 31  1  0  0  0
 14 15  2  0  0  0
 14 95  1  0  0  0
 15 96  1  0  0  0
 16 17  2  0  0  0
 16 21  1  0  0  0
 16 31  1  0  0  0
 17 18  1  0  0  0
 17 97  1  0  0  0
 18 19  2  0  0  0
 18 98  1  0  0  0
 19 20  1  0  0  0
 19 24  1  0  0  0
 20 21  2  0  0  0
 20 99  1  0  0  0
 21 23  1  0  0  0
 22 28  1  0  0  0
 22 32  2  0  0  0
 26 27  1  0  0  0
 28100  1  0  0  0
 28101  1  0  0  0
 29102  1  0  0  0
 29103  1  0  0  0
 33 34  1  0  0  0
 33 66  1  0  0  0
 33 70  2  0  0  0
 34 36  1  0  0  0
 34 59  1  0  0  0
 34104  1  0  0  0
 35 44  2  0  0  0
 35 45  1  0  0  0
 35 68  1  0  0  0
 36 56  1  0  0  0
 36105  1  0  0  0
 37 39  1  0  0  0
 37 47  1  0  0  0
 37 66  1  0  0  0
 37106  1  0  0  0
 38 43  2  0  0  0
 38 46  1  0  0  0
 38 47  1  0  0  0
 39 64  1  0  0  0
 39 67  2  0  0  0
 40 52  1  0  0  0
 40 53  2  0  0  0
 40 58  1  0  0  0
 41107  1  0  0  0
 41108  1  0  0  0
 41109  1  0  0  0
 41 48  1  0  0  0
 42 43  1  0  0  0
 42 66  1  0  0  0
 42110  1  0  0  0
 42111  1  0  0  0
 43 44  1  0  0  0
 44112  1  0  0  0
 45 46  2  0  0  0
 45113  1  0  0  0
 46114  1  0  0  0
 47115  1  0  0  0
 47116  1  0  0  0
 48 56  1  0  0  0
 48 65  1  0  0  0
 48117  1  0  0  0
 49 50  1  0  0  0
 49 53  1  0  0  0
 49 64  1  0  0  0
 49118  1  0  0  0
 50 51  1  0  0  0
 50119  1  0  0  0
 50120  1  0  0  0
 51 52  1  0  0  0
 51121  1  0  0  0
 51122  1  0  0  0
 52123  1  0  0  0
 52124  1  0  0  0
 53 54  1  0  0  0
 54 55  2  0  0  0
 54125  1  0  0  0
 55 57  1  0  0  0
 55126  1  0  0  0
 56 69  2  0  0  0
 57 58  2  0  0  0
 57127  1  0  0  0
 58128  1  0  0  0
 59 60  1  0  0  0
 59 61  1  0  0  0
 59 62  1  0  0  0
 60129  1  0  0  0
 60130  1  0  0  0
 60131  1  0  0  0
 61132  1  0  0  0
 61133  1  0  0  0
 61134  1  0  0  0
 62135  1  0  0  0
 62136  1  0  0  0
 62137  1  0  0  0
 63 65  1  0  0  0
 63138  1  0  0  0
 63139  1  0  0  0
 63140  1  0  0  0
 64141  1  0  0  0
 65142  1  0  0  0
 68 76  1  0  0  0
 71 76  1  0  0  0
 71 80  2  0  0  0
 71 82  1  0  0  0
 72 79  1  0  0  0
 72 81  2  0  0  0
 72 82  1  0  0  0
 73 77  1  0  0  0
 73143  1  0  0  0
 73144  1  0  0  0
 73145  1  0  0  0
 74146  1  0  0  0
 74147  1  0  0  0
 74148  1  0  0  0
 74 79  1  0  0  0
 75 79  1  0  0  0
 75149  1  0  0  0
 75150  1  0  0  0
 75151  1  0  0  0
 76152  1  0  0  0
 76153  1  0  0  0
 77 82  1  0  0  0
 77154  1  0  0  0
 77155  1  0  0  0
 78 79  1  0  0  0
 78 83  1  0  0  0
 78156  1  0  0  0
 78157  1  0  0  0
 80 81  1  0  0  0
 83158  1  0  0  0
M  ISO  4   1 100  68 101  76 101  83 100
M  END
> <chiral flag>
0

> <version>
0

> <s_m_source_file>
/data/baiqing/PycharmProjects/Reinvent-master-3.2/result/LINK_invent/BTK/process_docking_weight1_custom_sum_contain_oxygen_bond_distance_aromatic_linkinvent_7_9_3/rearranged_h_0060.sdf

> <i_m_source_file_index>
41

> <r_mmod_Potential_Energy-OPLS-2005>
768.173522949219

> <r_mmod_Stretch_Energy-OPLS-2005>
379.243682861328

> <r_mmod_Bend_Energy-OPLS-2005>
369.840850830078

> <r_mmod_Torsional_Energy-OPLS-2005>
246.488662719727

> <r_mmod_Improper_Torsional_Energy-OPLS-2005>
6.34166860580444

> <r_mmod_Van_der_Waal_Energy-OPLS-2005>
122.574523925781

> <r_mmod_Electrostatic_Energy-OPLS-2005>
-350.955291748047

> <r_mmod_Solvation_Energy-OPLS-2005>
-252.259216308594

> <b_mmod_Minimization_Converged-OPLS-2005>
0

> <r_mmod_RMS_Derivative-OPLS-2005>
6.65930414199829

$$$$
43
                    3D
 Structure written by MMmdl.
169177  0  0  1  0            999 V2000
  -30.6088  -14.8933   20.4889 C   0  0  0  0  0  0
  -30.4521  -12.5736   19.4820 C   0  0  0  0  0  0
  -29.5375  -12.5410   18.2332 C   0  0  0  0  0  0
  -28.0624  -12.3030   18.6213 C   0  0  0  0  0  0
  -27.6145  -13.1880   19.8130 C   0  0  2  0  0  0
  -28.6746  -13.2502   20.9492 C   0  0  0  0  0  0
  -25.2418  -13.7781   20.5932 C   0  0  0  0  0  0
  -24.1685  -13.0108   20.9331 C   0  0  0  0  0  0
  -24.6264  -11.6621   20.8675 C   0  0  0  0  0  0
  -23.8975  -10.4094   21.0345 C   0  0  0  0  0  0
  -24.3570   -9.4067   21.9136 C   0  0  0  0  0  0
  -23.6226   -8.2149   22.0760 C   0  0  0  0  0  0
  -22.4214   -8.0177   21.3568 C   0  0  0  0  0  0
  -21.9828   -9.0127   20.4689 C   0  0  0  0  0  0
  -22.7154  -10.1959   20.3016 C   0  0  0  0  0  0
  -21.6847   -6.0618   22.5264 C   0  0  0  0  0  0
  -21.4047   -6.5546   23.8186 C   0  0  0  0  0  0
  -21.3683   -5.6730   24.9155 C   0  0  0  0  0  0
  -21.6045   -4.2992   24.7231 C   0  0  0  0  0  0
  -21.8835   -3.8050   23.4370 C   0  0  0  0  0  0
  -21.9187   -4.6840   22.3398 C   0  0  0  0  0  0
  -22.7748  -13.4991   21.1990 C   0  0  0  0  0  0
  -22.1658   -4.2027   21.0985 F   0  0  0  0  0  0
  -21.5603   -3.4498   25.7761 F   0  0  0  0  0  0
  -29.9613  -13.6638   20.3680 N   0  0  0  0  0  0
  -26.2781  -12.8979   20.3156 N   0  0  0  0  0  0
  -25.9176  -11.6153   20.5551 N   0  0  0  0  0  0
  -22.0354  -12.8043   22.0547 N   0  0  0  0  0  0
  -25.3856  -15.1474   20.4789 N   0  0  0  0  0  0
  -31.8271  -14.9181   20.2857 O   0  0  0  0  0  0
  -21.6584   -6.8776   21.4258 O   0  0  0  0  0  0
  -22.3506  -14.5313   20.6816 O   0  0  0  0  0  0
  -24.6238  -31.8590   23.1985 C   0  0  0  0  0  0
  -25.9076  -32.4801   23.8344 C   0  0  1  0  0  0
  -27.2500  -27.3042   20.1682 C   0  0  0  0  0  0
  -25.5869  -33.8597   24.2280 N   0  0  0  0  0  0
  -23.4256  -30.4723   21.5433 C   0  0  2  0  0  0
  -24.8771  -28.9210   20.1170 C   0  0  0  0  0  0
  -22.7496  -29.4607   22.4980 C   0  0  0  0  0  0
  -18.0268  -28.1382   22.8523 C   0  0  0  0  0  0
  -24.1462  -36.7275   23.2657 C   0  0  0  0  0  0
  -25.9610  -30.7910   21.3662 C   0  0  0  0  0  0
  -26.0437  -29.4104   20.7217 C   0  0  0  0  0  0
  -27.2303  -28.6208   20.7260 C   0  0  0  0  0  0
  -26.0617  -26.8652   19.5357 C   0  0  0  0  0  0
  -24.8938  -27.6547   19.5082 C   0  0  0  0  0  0
  -23.6401  -29.7973   20.1625 C   0  0  0  0  0  0
  -25.4106  -36.3103   24.0346 C   0  0  1  0  0  0
  -20.5897  -28.3691   23.1337 C   0  0  2  0  0  0
  -20.6786  -26.9411   22.5466 C   0  0  0  0  0  0
  -19.5748  -26.6360   21.5283 C   0  0  0  0  0  0
  -18.1911  -26.7940   22.1662 C   0  0  0  0  0  0
  -19.1537  -28.8865   23.2920 C   0  0  0  0  0  0
  -18.9438  -30.1463   23.8938 C   0  0  0  0  0  0
  -17.6443  -30.6603   24.0568 C   0  0  0  0  0  0
  -25.9043  -34.9472   23.5147 C   0  0  0  0  0  0
  -16.5327  -29.9104   23.6328 C   0  0  0  0  0  0
  -16.7268  -28.6506   23.0390 C   0  0  0  0  0  0
  -26.4455  -31.6624   25.0717 C   0  0  0  0  0  0
  -25.3673  -31.3753   26.1422 C   0  0  0  0  0  0
  -27.0325  -30.3083   24.6141 C   0  0  0  0  0  0
  -27.6007  -32.4365   25.7496 C   0  0  0  0  0  0
  -27.5582  -37.1798   24.8478 C   0  0  0  0  0  0
  -21.4230  -29.3003   22.3706 N   0  0  0  0  0  0
  -26.4290  -37.3785   23.9424 N   0  0  0  0  0  0
  -24.6892  -31.0584   22.0939 N   0  0  0  0  0  0
  -23.4210  -28.8174   23.3107 O   0  0  0  0  0  0
  -28.3692  -26.4525   20.2075 O   0  0  0  0  0  0
  -26.5634  -34.8939   22.4713 O   0  0  0  0  0  0
  -23.5397  -32.1397   23.7304 O   0  0  0  0  0  0
  -29.6869  -19.8984   21.6674 C   0  0  0  0  0  0
  -31.7191  -20.3801   20.0620 C   0  0  0  0  0  0
  -30.5035  -18.7983   21.2177 C   0  0  0  0  0  0
  -29.8494  -21.2172   21.1090 C   0  0  0  0  0  0
  -27.4373  -22.0628   21.4925 C   0  0  0  0  0  0
  -28.9198  -18.4889   18.6465 C   0  0  0  0  0  0
  -26.7667  -17.3484   18.4841 C   0  0  0  0  0  0
  -27.2894  -18.3057   20.6941 C   0  0  0  0  0  0
  -30.3433  -17.2515   21.6184 C   0  0  0  0  0  0
  -29.0674  -23.8431   20.5491 C   0  0  0  0  0  0
  -28.6093  -16.2654   19.9242 C   0  0  0  0  0  0
  -28.2683  -25.1820   20.9843 C   0  0  0  0  0  0
  -28.9261  -22.4849   21.4365 C   0  0  2  0  0  0
  -27.9444  -17.6147   19.4723 C   0  0  0  0  0  0
  -31.5723  -19.1104   20.4576 N   0  0  0  0  0  0
  -30.9086  -21.4162   20.3015 N   0  0  0  0  0  0
  -29.8948  -16.1096   20.6788 N   0  0  0  0  0  0
  -31.4892  -12.7264   19.1802 H   0  0  0  0  0  0
  -30.4249  -11.6191   20.0067 H   0  0  0  0  0  0
  -29.8786  -11.7734   17.5384 H   0  0  0  0  0  0
  -29.6274  -13.4931   17.7087 H   0  0  0  0  0  0
  -27.9371  -11.2444   18.8507 H   0  0  0  0  0  0
  -27.4333  -12.5091   17.7507 H   0  0  0  0  0  0
  -27.4888  -14.1379   19.3223 H   0  0  0  0  0  0
  -28.7640  -12.2745   21.4225 H   0  0  0  0  0  0
  -28.3687  -13.9468   21.7292 H   0  0  0  0  0  0
  -25.2779   -9.5491   22.4611 H   0  0  0  0  0  0
  -23.9907   -7.4523   22.7454 H   0  0  0  0  0  0
  -21.0763   -8.8582   19.9041 H   0  0  0  0  0  0
  -22.3652  -10.9408   19.6031 H   0  0  0  0  0  0
  -21.2092   -7.6065   23.9641 H   0  0  0  0  0  0
  -21.1532   -6.0493   25.9038 H   0  0  0  0  0  0
  -22.0642   -2.7510   23.2904 H   0  0  0  0  0  0
  -22.3963  -11.9743   22.5024 H   0  0  0  0  0  0
  -21.0918  -13.1041   22.2584 H   0  0  0  0  0  0
  -24.6030  -15.7655   20.6584 H   0  0  0  0  0  0
  -26.2076  -15.6263   20.1446 H   0  0  0  0  0  0
  -26.7162  -32.5488   23.1115 H   0  0  0  0  0  0
  -24.9987  -33.9715   25.0411 H   0  0  0  0  0  0
  -22.7209  -31.2934   21.3987 H   0  0  0  0  0  0
  -23.3758  -35.9579   23.3328 H   0  0  0  0  0  0
  -24.3568  -36.8876   22.2074 H   0  0  0  0  0  0
  -23.7167  -37.6467   23.6655 H   0  0  0  0  0  0
  -26.0830  -31.5506   20.5915 H   0  0  0  0  0  0
  -26.8460  -30.8568   21.9870 H   0  0  0  0  0  0
  -28.1293  -29.0001   21.1926 H   0  0  0  0  0  0
  -26.0357  -25.8877   19.0747 H   0  0  0  0  0  0
  -23.9993  -27.2753   19.0273 H   0  0  0  0  0  0
  -23.7481  -30.5694   19.4004 H   0  0  0  0  0  0
  -22.7636  -29.2166   19.8697 H   0  0  0  0  0  0
  -25.1286  -36.1982   25.0848 H   0  0  0  0  0  0
  -20.9972  -28.3234   24.1475 H   0  0  0  0  0  0
  -20.5775  -26.2257   23.3657 H   0  0  0  0  0  0
  -21.6636  -26.7476   22.1197 H   0  0  0  0  0  0
  -19.6914  -25.6277   21.1294 H   0  0  0  0  0  0
  -19.6705  -27.3207   20.6847 H   0  0  0  0  0  0
  -17.4214  -26.6740   21.4018 H   0  0  0  0  0  0
  -18.0231  -26.0080   22.9045 H   0  0  0  0  0  0
  -19.7916  -30.7252   24.2334 H   0  0  0  0  0  0
  -17.5000  -31.6307   24.5133 H   0  0  0  0  0  0
  -15.5352  -30.3018   23.7642 H   0  0  0  0  0  0
  -15.8648  -28.0815   22.7144 H   0  0  0  0  0  0
  -24.5793  -30.7193   25.7692 H   0  0  0  0  0  0
  -24.8908  -32.2927   26.4896 H   0  0  0  0  0  0
  -25.7915  -30.8838   27.0182 H   0  0  0  0  0  0
  -26.2911  -29.6850   24.1120 H   0  0  0  0  0  0
  -27.4056  -29.7312   25.4609 H   0  0  0  0  0  0
  -27.8742  -30.4467   23.9353 H   0  0  0  0  0  0
  -27.2609  -33.3664   26.2083 H   0  0  0  0  0  0
  -28.3786  -32.6948   25.0294 H   0  0  0  0  0  0
  -28.0718  -31.8501   26.5403 H   0  0  0  0  0  0
  -28.2595  -38.0087   24.7534 H   0  0  0  0  0  0
  -28.1059  -36.2625   24.6284 H   0  0  0  0  0  0
  -27.2302  -37.1433   25.8875 H   0  0  0  0  0  0
  -20.9403  -29.8616   21.6811 H   0  0  0  0  0  0
  -26.0186  -38.2868   24.1428 H   0  0  0  0  0  0
  -28.9251  -19.7253   22.4149 H   0  0  0  0  0  0
  -32.6114  -20.5862   19.4927 H   0  0  0  0  0  0
  -27.2708  -21.1884   22.1213 H   0  0  0  0  0  0
  -27.0449  -21.8237   20.5036 H   0  0  0  0  0  0
  -26.8053  -22.8506   21.9097 H   0  0  0  0  0  0
  -28.7599  -18.3816   17.5692 H   0  0  0  0  0  0
  -29.9618  -18.2041   18.7660 H   0  0  0  0  0  0
  -28.7975  -19.5518   18.8613 H   0  0  0  0  0  0
  -26.5204  -18.2460   17.9120 H   0  0  0  0  0  0
  -25.8297  -17.0698   18.9600 H   0  0  0  0  0  0
  -27.0059  -16.5773   17.7513 H   0  0  0  0  0  0
  -26.2902  -17.9277   20.9229 H   0  0  0  0  0  0
  -27.1808  -19.3788   20.5408 H   0  0  0  0  0  0
  -27.8146  -18.1235   21.6257 H   0  0  0  0  0  0
  -29.6600  -17.2251   22.4693 H   0  0  0  0  0  0
  -31.2936  -16.9546   22.0661 H   0  0  0  0  0  0
  -30.1231  -24.1125   20.5205 H   0  0  0  0  0  0
  -28.8004  -23.6044   19.5197 H   0  0  0  0  0  0
  -28.7466  -15.7096   19.0007 H   0  0  0  0  0  0
  -27.8776  -15.7719   20.5486 H   0  0  0  0  0  0
  -28.6259  -25.4417   21.9827 H   0  0  0  0  0  0
  -27.2171  -24.9272   21.1214 H   0  0  0  0  0  0
  -29.1944  -22.7601   22.4597 H   0  0  0  0  0  0
  1 25  1  0  0  0
  1 30  2  0  0  0
  1 87  1  0  0  0
  2  3  1  0  0  0
  2 25  1  0  0  0
  2 88  1  0  0  0
  2 89  1  0  0  0
  3  4  1  0  0  0
  3 90  1  0  0  0
  3 91  1  0  0  0
  4  5  1  0  0  0
  4 92  1  0  0  0
  4 93  1  0  0  0
  5  6  1  0  0  0
  5 26  1  0  0  0
  5 94  1  0  0  0
  6 25  1  0  0  0
  6 95  1  0  0  0
  6 96  1  0  0  0
  7  8  2  0  0  0
  7 26  1  0  0  0
  7 29  1  0  0  0
  8  9  1  0  0  0
  8 22  1  0  0  0
  9 10  1  0  0  0
  9 27  2  0  0  0
 10 11  2  0  0  0
 10 15  1  0  0  0
 11 12  1  0  0  0
 11 97  1  0  0  0
 12 13  2  0  0  0
 12 98  1  0  0  0
 13 14  1  0  0  0
 13 31  1  0  0  0
 14 15  2  0  0  0
 14 99  1  0  0  0
 15100  1  0  0  0
 16 17  2  0  0  0
 16 21  1  0  0  0
 16 31  1  0  0  0
 17 18  1  0  0  0
 17101  1  0  0  0
 18 19  2  0  0  0
 18102  1  0  0  0
 19 20  1  0  0  0
 19 24  1  0  0  0
 20 21  2  0  0  0
 20103  1  0  0  0
 21 23  1  0  0  0
 22 28  1  0  0  0
 22 32  2  0  0  0
 26 27  1  0  0  0
 28104  1  0  0  0
 28105  1  0  0  0
 29106  1  0  0  0
 29107  1  0  0  0
 33 34  1  0  0  0
 33 66  1  0  0  0
 33 70  2  0  0  0
 34 36  1  0  0  0
 34 59  1  0  0  0
 34108  1  0  0  0
 35 44  2  0  0  0
 35 45  1  0  0  0
 35 68  1  0  0  0
 36 56  1  0  0  0
 36109  1  0  0  0
 37 39  1  0  0  0
 37 47  1  0  0  0
 37 66  1  0  0  0
 37110  1  0  0  0
 38 43  2  0  0  0
 38 46  1  0  0  0
 38 47  1  0  0  0
 39 64  1  0  0  0
 39 67  2  0  0  0
 40 52  1  0  0  0
 40 53  2  0  0  0
 40 58  1  0  0  0
 41111  1  0  0  0
 41112  1  0  0  0
 41113  1  0  0  0
 41 48  1  0  0  0
 42 43  1  0  0  0
 42 66  1  0  0  0
 42114  1  0  0  0
 42115  1  0  0  0
 43 44  1  0  0  0
 44116  1  0  0  0
 45 46  2  0  0  0
 45117  1  0  0  0
 46118  1  0  0  0
 47119  1  0  0  0
 47120  1  0  0  0
 48 56  1  0  0  0
 48 65  1  0  0  0
 48121  1  0  0  0
 49 50  1  0  0  0
 49 53  1  0  0  0
 49 64  1  0  0  0
 49122  1  0  0  0
 50 51  1  0  0  0
 50123  1  0  0  0
 50124  1  0  0  0
 51 52  1  0  0  0
 51125  1  0  0  0
 51126  1  0  0  0
 52127  1  0  0  0
 52128  1  0  0  0
 53 54  1  0  0  0
 54 55  2  0  0  0
 54129  1  0  0  0
 55 57  1  0  0  0
 55130  1  0  0  0
 56 69  2  0  0  0
 57 58  2  0  0  0
 57131  1  0  0  0
 58132  1  0  0  0
 59 60  1  0  0  0
 59 61  1  0  0  0
 59 62  1  0  0  0
 60133  1  0  0  0
 60134  1  0  0  0
 60135  1  0  0  0
 61136  1  0  0  0
 61137  1  0  0  0
 61138  1  0  0  0
 62139  1  0  0  0
 62140  1  0  0  0
 62141  1  0  0  0
 63 65  1  0  0  0
 63142  1  0  0  0
 63143  1  0  0  0
 63144  1  0  0  0
 64145  1  0  0  0
 65146  1  0  0  0
 68 82  1  0  0  0
 71 73  2  0  0  0
 71 74  1  0  0  0
 71147  1  0  0  0
 72 85  2  0  0  0
 72 86  1  0  0  0
 72148  1  0  0  0
 73 79  1  0  0  0
 73 85  1  0  0  0
 74 83  1  0  0  0
 74 86  2  0  0  0
 75149  1  0  0  0
 75150  1  0  0  0
 75151  1  0  0  0
 75 83  1  0  0  0
 76152  1  0  0  0
 76153  1  0  0  0
 76154  1  0  0  0
 76 84  1  0  0  0
 77 84  1  0  0  0
 77155  1  0  0  0
 77156  1  0  0  0
 77157  1  0  0  0
 78 84  1  0  0  0
 78158  1  0  0  0
 78159  1  0  0  0
 78160  1  0  0  0
 79 87  1  0  0  0
 79161  1  0  0  0
 79162  1  0  0  0
 80 82  1  0  0  0
 80 83  1  0  0  0
 80163  1  0  0  0
 80164  1  0  0  0
 81 84  1  0  0  0
 81 87  1  0  0  0
 81165  1  0  0  0
 81166  1  0  0  0
 82167  1  0  0  0
 82168  1  0  0  0
 83169  1  0  0  0
M  ISO  4   1 100  68 101  82 101  87 100
M  END
> <chiral flag>
0

> <version>
0

> <s_m_source_file>
/data/baiqing/PycharmProjects/Reinvent-master-3.2/result/LINK_invent/BTK/process_docking_weight1_custom_sum_contain_oxygen_bond_distance_aromatic_linkinvent_7_9_3/rearranged_h_0060.sdf

> <i_m_source_file_index>
42

> <r_mmod_Potential_Energy-OPLS-2005>
-44.0923728942871

> <r_mmod_Stretch_Energy-OPLS-2005>
141.712203979492

> <r_mmod_Bend_Energy-OPLS-2005>
225.320739746094

> <r_mmod_Torsional_Energy-OPLS-2005>
358.242553710938

> <r_mmod_Improper_Torsional_Energy-OPLS-2005>
3.21356511116028

> <r_mmod_Van_der_Waal_Energy-OPLS-2005>
174.841583251953

> <r_mmod_Electrostatic_Energy-OPLS-2005>
-854.600341796875

> <r_mmod_Solvation_Energy-OPLS-2005>
-214.987106323242

> <b_mmod_Minimization_Converged-OPLS-2005>
0

> <r_mmod_RMS_Derivative-OPLS-2005>
8.09620380401611

$$$$
44
                    3D
 Structure written by MMmdl.
157165  0  0  1  0            999 V2000
  -30.6800  -14.6177   20.5361 C   0  0  0  0  0  0
  -30.4238  -12.3939   19.4465 C   0  0  0  0  0  0
  -29.4993  -12.5132   18.2157 C   0  0  0  0  0  0
  -28.0212  -12.3563   18.6247 C   0  0  0  0  0  0
  -27.6504  -13.2171   19.8619 C   0  0  2  0  0  0
  -28.6944  -13.0421   20.9828 C   0  0  0  0  0  0
  -25.2557  -13.8177   20.5672 C   0  0  0  0  0  0
  -24.1825  -13.0445   20.9182 C   0  0  0  0  0  0
  -24.6388  -11.6911   20.8726 C   0  0  0  0  0  0
  -23.9058  -10.4294   21.0396 C   0  0  0  0  0  0
  -24.3611   -9.4215   21.9178 C   0  0  0  0  0  0
  -23.6289   -8.2252   22.0753 C   0  0  0  0  0  0
  -22.4271   -8.0284   21.3547 C   0  0  0  0  0  0
  -21.9903   -9.0254   20.4646 C   0  0  0  0  0  0
  -22.7227  -10.2137   20.3050 C   0  0  0  0  0  0
  -21.6858   -6.0737   22.5276 C   0  0  0  0  0  0
  -21.4015   -6.5641   23.8208 C   0  0  0  0  0  0
  -21.3655   -5.6793   24.9170 C   0  0  0  0  0  0
  -21.6043   -4.3055   24.7220 C   0  0  0  0  0  0
  -21.8822   -3.8149   23.4340 C   0  0  0  0  0  0
  -21.9195   -4.6965   22.3397 C   0  0  0  0  0  0
  -22.7853  -13.5244   21.1843 C   0  0  0  0  0  0
  -22.1666   -4.2152   21.0975 F   0  0  0  0  0  0
  -21.5624   -3.4537   25.7733 F   0  0  0  0  0  0
  -30.0012  -13.4239   20.4242 N   0  0  0  0  0  0
  -26.2975  -12.9351   20.3305 N   0  0  0  0  0  0
  -25.9315  -11.6504   20.5738 N   0  0  0  0  0  0
  -22.0498  -12.8234   22.0397 N   0  0  0  0  0  0
  -25.4279  -15.1893   20.4067 N   0  0  0  0  0  0
  -31.8372  -14.6937   20.1089 O   0  0  0  0  0  0
  -21.6643   -6.8878   21.4238 O   0  0  0  0  0  0
  -22.3535  -14.5552   20.6695 O   0  0  0  0  0  0
  -24.6243  -31.8620   23.2042 C   0  0  0  0  0  0
  -25.9104  -32.4786   23.8362 C   0  0  1  0  0  0
  -27.2197  -27.3434   20.1164 C   0  0  0  0  0  0
  -25.5918  -33.8588   24.2281 N   0  0  0  0  0  0
  -23.4176  -30.4857   21.5460 C   0  0  2  0  0  0
  -24.8630  -28.9423   20.1114 C   0  0  0  0  0  0
  -22.7475  -29.4636   22.4947 C   0  0  0  0  0  0
  -18.0289  -28.1383   22.8480 C   0  0  0  0  0  0
  -24.1492  -36.7305   23.2638 C   0  0  0  0  0  0
  -25.9553  -30.8007   21.3711 C   0  0  0  0  0  0
  -26.0304  -29.4291   20.7143 C   0  0  0  0  0  0
  -27.2162  -28.6407   20.7063 C   0  0  0  0  0  0
  -26.0359  -26.9019   19.4891 C   0  0  0  0  0  0
  -24.8655  -27.6822   19.4907 C   0  0  0  0  0  0
  -23.6307  -29.8211   20.1606 C   0  0  0  0  0  0
  -25.4113  -36.3089   24.0330 C   0  0  1  0  0  0
  -20.5887  -28.3687   23.1283 C   0  0  2  0  0  0
  -20.6778  -26.9413   22.5408 C   0  0  0  0  0  0
  -19.5751  -26.6387   21.5211 C   0  0  0  0  0  0
  -18.1931  -26.7927   22.1622 C   0  0  0  0  0  0
  -19.1540  -28.8853   23.2868 C   0  0  0  0  0  0
  -18.9465  -30.1454   23.8886 C   0  0  0  0  0  0
  -17.6465  -30.6582   24.0568 C   0  0  0  0  0  0
  -25.9048  -34.9459   23.5106 C   0  0  0  0  0  0
  -16.5357  -29.9082   23.6329 C   0  0  0  0  0  0
  -16.7278  -28.6505   23.0339 C   0  0  0  0  0  0
  -26.4491  -31.6593   25.0731 C   0  0  0  0  0  0
  -25.3722  -31.3725   26.1456 C   0  0  0  0  0  0
  -27.0340  -30.3024   24.6171 C   0  0  0  0  0  0
  -27.6057  -32.4327   25.7495 C   0  0  0  0  0  0
  -27.5581  -37.1799   24.8463 C   0  0  0  0  0  0
  -21.4193  -29.3045   22.3683 N   0  0  0  0  0  0
  -26.4295  -37.3777   23.9406 N   0  0  0  0  0  0
  -24.6844  -31.0654   22.0976 N   0  0  0  0  0  0
  -23.4204  -28.8183   23.3028 O   0  0  0  0  0  0
  -28.3244  -26.4916   20.1358 O   0  0  0  0  0  0
  -26.5621  -34.8931   22.4674 O   0  0  0  0  0  0
  -23.5411  -32.1408   23.7379 O   0  0  0  0  0  0
  -30.0551  -20.5767   21.4482 C   0  0  0  0  0  0
  -29.0047  -21.1475   20.6812 C   0  0  0  0  0  0
  -29.8189  -18.4878   20.4032 C   0  0  0  0  0  0
  -28.7548  -19.0507   19.6277 C   0  0  0  0  0  0
  -29.1891  -15.9777   22.0015 C   0  0  0  0  0  0
  -28.4166  -22.5582   21.0219 C   0  0  0  0  0  0
  -30.4645  -17.0765   20.1412 C   0  0  0  0  0  0
  -28.7394  -23.8544   20.1670 C   0  0  0  0  0  0
  -28.1070  -25.1800   20.7713 C   0  0  0  0  0  0
  -28.0341  -18.2257   18.5545 C   0  0  0  0  0  0
  -30.4608  -19.2796   21.3090 N   0  0  0  0  0  0
  -28.3638  -20.3663   19.7672 N   0  0  0  0  0  0
  -29.9887  -15.7935   20.7853 N   0  0  0  0  0  0
  -27.7689  -16.9937   18.9973 F   0  0  0  0  0  0
  -26.8761  -18.7893   18.2008 F   0  0  0  0  0  0
  -28.8049  -18.1326   17.4699 F   0  0  0  0  0  0
  -31.4656  -12.4972   19.1395 H   0  0  0  0  0  0
  -30.3502  -11.3962   19.8838 H   0  0  0  0  0  0
  -29.7622  -11.7607   17.4710 H   0  0  0  0  0  0
  -29.6469  -13.4819   17.7352 H   0  0  0  0  0  0
  -27.8520  -11.3015   18.8455 H   0  0  0  0  0  0
  -27.3681  -12.5980   17.7852 H   0  0  0  0  0  0
  -27.6768  -14.2583   19.5401 H   0  0  0  0  0  0
  -28.7185  -12.0013   21.3101 H   0  0  0  0  0  0
  -28.4148  -13.5939   21.8733 H   0  0  0  0  0  0
  -25.2754   -9.5704   22.4749 H   0  0  0  0  0  0
  -24.0001   -7.4650   22.7477 H   0  0  0  0  0  0
  -21.0835   -8.8765   19.8951 H   0  0  0  0  0  0
  -22.3674  -10.9674   19.6161 H   0  0  0  0  0  0
  -21.2009   -7.6149   23.9711 H   0  0  0  0  0  0
  -21.1474   -6.0523   25.9072 H   0  0  0  0  0  0
  -22.0604   -2.7611   23.2838 H   0  0  0  0  0  0
  -22.4110  -11.9893   22.4780 H   0  0  0  0  0  0
  -21.1118  -13.1265   22.2599 H   0  0  0  0  0  0
  -24.6588  -15.8419   20.5053 H   0  0  0  0  0  0
  -26.2764  -15.6220   20.0641 H   0  0  0  0  0  0
  -26.7184  -32.5458   23.1124 H   0  0  0  0  0  0
  -25.0049  -33.9735   25.0411 H   0  0  0  0  0  0
  -22.7100  -31.3049   21.4052 H   0  0  0  0  0  0
  -23.3750  -35.9642   23.3305 H   0  0  0  0  0  0
  -24.3577  -36.8925   22.2052 H   0  0  0  0  0  0
  -23.7267  -37.6515   23.6662 H   0  0  0  0  0  0
  -26.0819  -31.5662   20.6042 H   0  0  0  0  0  0
  -26.8374  -30.8492   21.9988 H   0  0  0  0  0  0
  -28.1153  -29.0092   21.1810 H   0  0  0  0  0  0
  -26.0116  -25.9330   19.0092 H   0  0  0  0  0  0
  -23.9707  -27.3056   19.0147 H   0  0  0  0  0  0
  -23.7477  -30.5987   19.4045 H   0  0  0  0  0  0
  -22.7506  -29.2500   19.8584 H   0  0  0  0  0  0
  -25.1292  -36.1945   25.0824 H   0  0  0  0  0  0
  -20.9967  -28.3273   24.1407 H   0  0  0  0  0  0
  -20.5690  -26.2297   23.3605 H   0  0  0  0  0  0
  -21.6644  -26.7455   22.1192 H   0  0  0  0  0  0
  -19.6913  -25.6297   21.1242 H   0  0  0  0  0  0
  -19.6690  -27.3197   20.6741 H   0  0  0  0  0  0
  -17.4199  -26.6677   21.4025 H   0  0  0  0  0  0
  -18.0327  -26.0068   22.9019 H   0  0  0  0  0  0
  -19.7946  -30.7262   24.2256 H   0  0  0  0  0  0
  -17.5028  -31.6267   24.5164 H   0  0  0  0  0  0
  -15.5352  -30.2976   23.7669 H   0  0  0  0  0  0
  -15.8684  -28.0832   22.7036 H   0  0  0  0  0  0
  -24.5896  -30.7077   25.7776 H   0  0  0  0  0  0
  -24.8903  -32.2886   26.4882 H   0  0  0  0  0  0
  -25.8038  -30.8899   27.0235 H   0  0  0  0  0  0
  -26.2916  -29.6761   24.1209 H   0  0  0  0  0  0
  -27.4058  -29.7292   25.4672 H   0  0  0  0  0  0
  -27.8774  -30.4323   23.9385 H   0  0  0  0  0  0
  -27.2677  -33.3631   26.2078 H   0  0  0  0  0  0
  -28.3859  -32.6877   25.0310 H   0  0  0  0  0  0
  -28.0734  -31.8447   26.5401 H   0  0  0  0  0  0
  -28.2587  -38.0104   24.7497 H   0  0  0  0  0  0
  -28.1085  -36.2630   24.6296 H   0  0  0  0  0  0
  -27.2289  -37.1453   25.8862 H   0  0  0  0  0  0
  -20.9371  -29.8777   21.6897 H   0  0  0  0  0  0
  -26.0180  -38.2856   24.1400 H   0  0  0  0  0  0
  -30.5524  -21.1541   22.2145 H   0  0  0  0  0  0
  -28.1284  -15.8494   21.7847 H   0  0  0  0  0  0
  -29.3163  -16.9648   22.4424 H   0  0  0  0  0  0
  -29.4770  -15.2724   22.7827 H   0  0  0  0  0  0
  -28.7031  -22.7669   22.0535 H   0  0  0  0  0  0
  -27.3326  -22.4451   21.0585 H   0  0  0  0  0  0
  -31.5204  -17.1892   20.3947 H   0  0  0  0  0  0
  -30.4682  -16.9149   19.0628 H   0  0  0  0  0  0
  -28.3803  -23.7108   19.1478 H   0  0  0  0  0  0
  -29.8198  -23.9758   20.0971 H   0  0  0  0  0  0
  -28.4910  -25.2902   21.7862 H   0  0  0  0  0  0
  -27.0420  -24.9907   20.9112 H   0  0  0  0  0  0
  1 25  1  0  0  0
  1 30  2  0  0  0
  1 83  1  0  0  0
  2  3  1  0  0  0
  2 25  1  0  0  0
  2 87  1  0  0  0
  2 88  1  0  0  0
  3  4  1  0  0  0
  3 89  1  0  0  0
  3 90  1  0  0  0
  4  5  1  0  0  0
  4 91  1  0  0  0
  4 92  1  0  0  0
  5  6  1  0  0  0
  5 26  1  0  0  0
  5 93  1  0  0  0
  6 25  1  0  0  0
  6 94  1  0  0  0
  6 95  1  0  0  0
  7  8  2  0  0  0
  7 26  1  0  0  0
  7 29  1  0  0  0
  8  9  1  0  0  0
  8 22  1  0  0  0
  9 10  1  0  0  0
  9 27  2  0  0  0
 10 11  2  0  0  0
 10 15  1  0  0  0
 11 12  1  0  0  0
 11 96  1  0  0  0
 12 13  2  0  0  0
 12 97  1  0  0  0
 13 14  1  0  0  0
 13 31  1  0  0  0
 14 15  2  0  0  0
 14 98  1  0  0  0
 15 99  1  0  0  0
 16 17  2  0  0  0
 16 21  1  0  0  0
 16 31  1  0  0  0
 17 18  1  0  0  0
 17100  1  0  0  0
 18 19  2  0  0  0
 18101  1  0  0  0
 19 20  1  0  0  0
 19 24  1  0  0  0
 20 21  2  0  0  0
 20102  1  0  0  0
 21 23  1  0  0  0
 22 28  1  0  0  0
 22 32  2  0  0  0
 26 27  1  0  0  0
 28103  1  0  0  0
 28104  1  0  0  0
 29105  1  0  0  0
 29106  1  0  0  0
 33 34  1  0  0  0
 33 66  1  0  0  0
 33 70  2  0  0  0
 34 36  1  0  0  0
 34 59  1  0  0  0
 34107  1  0  0  0
 35 44  2  0  0  0
 35 45  1  0  0  0
 35 68  1  0  0  0
 36 56  1  0  0  0
 36108  1  0  0  0
 37 39  1  0  0  0
 37 47  1  0  0  0
 37 66  1  0  0  0
 37109  1  0  0  0
 38 43  2  0  0  0
 38 46  1  0  0  0
 38 47  1  0  0  0
 39 64  1  0  0  0
 39 67  2  0  0  0
 40 52  1  0  0  0
 40 53  2  0  0  0
 40 58  1  0  0  0
 41110  1  0  0  0
 41111  1  0  0  0
 41112  1  0  0  0
 41 48  1  0  0  0
 42 43  1  0  0  0
 42 66  1  0  0  0
 42113  1  0  0  0
 42114  1  0  0  0
 43 44  1  0  0  0
 44115  1  0  0  0
 45 46  2  0  0  0
 45116  1  0  0  0
 46117  1  0  0  0
 47118  1  0  0  0
 47119  1  0  0  0
 48 56  1  0  0  0
 48 65  1  0  0  0
 48120  1  0  0  0
 49 50  1  0  0  0
 49 53  1  0  0  0
 49 64  1  0  0  0
 49121  1  0  0  0
 50 51  1  0  0  0
 50122  1  0  0  0
 50123  1  0  0  0
 51 52  1  0  0  0
 51124  1  0  0  0
 51125  1  0  0  0
 52126  1  0  0  0
 52127  1  0  0  0
 53 54  1  0  0  0
 54 55  2  0  0  0
 54128  1  0  0  0
 55 57  1  0  0  0
 55129  1  0  0  0
 56 69  2  0  0  0
 57 58  2  0  0  0
 57130  1  0  0  0
 58131  1  0  0  0
 59 60  1  0  0  0
 59 61  1  0  0  0
 59 62  1  0  0  0
 60132  1  0  0  0
 60133  1  0  0  0
 60134  1  0  0  0
 61135  1  0  0  0
 61136  1  0  0  0
 61137  1  0  0  0
 62138  1  0  0  0
 62139  1  0  0  0
 62140  1  0  0  0
 63 65  1  0  0  0
 63141  1  0  0  0
 63142  1  0  0  0
 63143  1  0  0  0
 64144  1  0  0  0
 65145  1  0  0  0
 68 79  1  0  0  0
 71 72  2  0  0  0
 71 81  1  0  0  0
 71146  1  0  0  0
 72 76  1  0  0  0
 72 82  1  0  0  0
 73 74  1  0  0  0
 73 77  1  0  0  0
 73 81  2  0  0  0
 74 80  1  0  0  0
 74 82  2  0  0  0
 75 83  1  0  0  0
 75147  1  0  0  0
 75148  1  0  0  0
 75149  1  0  0  0
 76 78  1  0  0  0
 76150  1  0  0  0
 76151  1  0  0  0
 77 83  1  0  0  0
 77152  1  0  0  0
 77153  1  0  0  0
 78 79  1  0  0  0
 78154  1  0  0  0
 78155  1  0  0  0
 79156  1  0  0  0
 79157  1  0  0  0
 80 84  1  0  0  0
 80 85  1  0  0  0
 80 86  1  0  0  0
M  ISO  4   1 100  68 101  79 101  83 100
M  END
> <chiral flag>
0

> <version>
0

> <s_m_source_file>
/data/baiqing/PycharmProjects/Reinvent-master-3.2/result/LINK_invent/BTK/process_docking_weight1_custom_sum_contain_oxygen_bond_distance_aromatic_linkinvent_7_9_3/rearranged_h_0060.sdf

> <i_m_source_file_index>
43

> <r_mmod_Potential_Energy-OPLS-2005>
302.304260253906

> <r_mmod_Stretch_Energy-OPLS-2005>
81.2403030395508

> <r_mmod_Bend_Energy-OPLS-2005>
148.487655639648

> <r_mmod_Torsional_Energy-OPLS-2005>
268.890808105469

> <r_mmod_Improper_Torsional_Energy-OPLS-2005>
12.4656181335449

> <r_mmod_Van_der_Waal_Energy-OPLS-2005>
153.139846801758

> <r_mmod_Electrostatic_Energy-OPLS-2005>
-203.417755126953

> <r_mmod_Solvation_Energy-OPLS-2005>
-197.891708374023

> <b_mmod_Minimization_Converged-OPLS-2005>
0

> <r_mmod_RMS_Derivative-OPLS-2005>
1.18756949901581

$$$$
45
                    3D
 Structure written by MMmdl.
155163  0  0  1  0            999 V2000
  -30.5242  -14.8198   20.4570 C   0  0  0  0  0  0
  -30.4504  -12.4989   19.4880 C   0  0  0  0  0  0
  -29.5237  -12.5345   18.2491 C   0  0  0  0  0  0
  -28.0479  -12.3476   18.6542 C   0  0  0  0  0  0
  -27.6487  -13.2316   19.8649 C   0  0  2  0  0  0
  -28.6910  -13.1408   21.0027 C   0  0  0  0  0  0
  -25.2525  -13.8192   20.5689 C   0  0  0  0  0  0
  -24.1811  -13.0435   20.9191 C   0  0  0  0  0  0
  -24.6404  -11.6911   20.8739 C   0  0  0  0  0  0
  -23.9080  -10.4294   21.0401 C   0  0  0  0  0  0
  -24.3628   -9.4210   21.9177 C   0  0  0  0  0  0
  -23.6303   -8.2247   22.0754 C   0  0  0  0  0  0
  -22.4284   -8.0288   21.3545 C   0  0  0  0  0  0
  -21.9918   -9.0260   20.4650 C   0  0  0  0  0  0
  -22.7247  -10.2138   20.3053 C   0  0  0  0  0  0
  -21.6859   -6.0738   22.5275 C   0  0  0  0  0  0
  -21.4018   -6.5638   23.8209 C   0  0  0  0  0  0
  -21.3661   -5.6790   24.9172 C   0  0  0  0  0  0
  -21.6048   -4.3052   24.7219 C   0  0  0  0  0  0
  -21.8818   -3.8145   23.4340 C   0  0  0  0  0  0
  -21.9195   -4.6964   22.3398 C   0  0  0  0  0  0
  -22.7832  -13.5217   21.1851 C   0  0  0  0  0  0
  -22.1660   -4.2147   21.0977 F   0  0  0  0  0  0
  -21.5630   -3.4533   25.7732 F   0  0  0  0  0  0
  -29.9909  -13.5420   20.4410 N   0  0  0  0  0  0
  -26.2965  -12.9395   20.3318 N   0  0  0  0  0  0
  -25.9339  -11.6535   20.5757 N   0  0  0  0  0  0
  -22.0474  -12.8222   22.0415 N   0  0  0  0  0  0
  -25.4214  -15.1921   20.4117 N   0  0  0  0  0  0
  -31.6558  -15.0113   20.0019 O   0  0  0  0  0  0
  -21.6648   -6.8885   21.4240 O   0  0  0  0  0  0
  -22.3512  -14.5518   20.6695 O   0  0  0  0  0  0
  -24.6346  -31.8477   23.1900 C   0  0  0  0  0  0
  -25.9149  -32.4709   23.8277 C   0  0  1  0  0  0
  -27.2338  -27.2177   20.1411 C   0  0  0  0  0  0
  -25.5922  -33.8513   24.2204 N   0  0  0  0  0  0
  -23.4344  -30.4648   21.5323 C   0  0  2  0  0  0
  -24.8851  -28.8940   20.1054 C   0  0  0  0  0  0
  -22.7515  -29.4560   22.4875 C   0  0  0  0  0  0
  -18.0293  -28.1383   22.8480 C   0  0  0  0  0  0
  -24.1490  -36.7271   23.2644 C   0  0  0  0  0  0
  -25.9803  -30.7470   21.3733 C   0  0  0  0  0  0
  -26.0528  -29.3637   20.7173 C   0  0  0  0  0  0
  -27.2235  -28.5373   20.7211 C   0  0  0  0  0  0
  -26.0449  -26.8144   19.4996 C   0  0  0  0  0  0
  -24.8883  -27.6302   19.4850 C   0  0  0  0  0  0
  -23.6554  -29.7861   20.1515 C   0  0  0  0  0  0
  -25.4117  -36.3045   24.0324 C   0  0  1  0  0  0
  -20.5897  -28.3699   23.1257 C   0  0  2  0  0  0
  -20.6768  -26.9406   22.5413 C   0  0  0  0  0  0
  -19.5748  -26.6372   21.5210 C   0  0  0  0  0  0
  -18.1930  -26.7926   22.1621 C   0  0  0  0  0  0
  -19.1547  -28.8859   23.2863 C   0  0  0  0  0  0
  -18.9468  -30.1456   23.8886 C   0  0  0  0  0  0
  -17.6466  -30.6584   24.0560 C   0  0  0  0  0  0
  -25.9061  -34.9416   23.5077 C   0  0  0  0  0  0
  -16.5359  -29.9081   23.6327 C   0  0  0  0  0  0
  -16.7278  -28.6500   23.0353 C   0  0  0  0  0  0
  -26.4504  -31.6561   25.0696 C   0  0  0  0  0  0
  -25.3719  -31.3726   26.1416 C   0  0  0  0  0  0
  -27.0364  -30.2971   24.6223 C   0  0  0  0  0  0
  -27.6040  -32.4322   25.7478 C   0  0  0  0  0  0
  -27.5577  -37.1787   24.8463 C   0  0  0  0  0  0
  -21.4216  -29.3036   22.3635 N   0  0  0  0  0  0
  -26.4285  -37.3752   23.9412 N   0  0  0  0  0  0
  -24.7020  -31.0406   22.0883 N   0  0  0  0  0  0
  -23.4198  -28.8116   23.3004 O   0  0  0  0  0  0
  -28.3522  -26.3507   20.2586 O   0  0  0  0  0  0
  -26.5650  -34.8909   22.4657 O   0  0  0  0  0  0
  -23.5485  -32.1319   23.7175 O   0  0  0  0  0  0
  -28.2325  -21.5404   21.9087 C   0  0  0  0  0  0
  -29.2075  -20.0842   20.7293 C   0  0  0  0  0  0
  -31.1704  -18.6148   21.4538 C   0  0  0  0  0  0
  -30.6550  -18.8222   19.0380 C   0  0  0  0  0  0
  -27.8118  -23.5821   20.4283 C   0  0  0  0  0  0
  -29.2070  -17.2831   20.4510 C   0  0  0  0  0  0
  -28.5062  -24.9096   19.7825 C   0  0  0  0  0  0
  -30.0184  -18.7104   20.4370 C   0  0  0  0  0  0
  -28.6425  -20.2664   21.9632 N   0  0  0  0  0  0
  -29.1048  -21.2313   19.9592 N   0  0  0  0  0  0
  -28.4604  -22.2018   20.7658 N   0  0  0  0  0  0
  -29.6781  -15.8515   20.8655 N   0  0  0  0  0  0
  -31.4873  -12.6530   19.1859 H   0  0  0  0  0  0
  -30.4229  -11.5155   19.9594 H   0  0  0  0  0  0
  -29.8175  -11.7632   17.5358 H   0  0  0  0  0  0
  -29.6424  -13.4886   17.7332 H   0  0  0  0  0  0
  -27.9032  -11.2958   18.9016 H   0  0  0  0  0  0
  -27.3948  -12.5532   17.8050 H   0  0  0  0  0  0
  -27.6487  -14.2595   19.5016 H   0  0  0  0  0  0
  -28.7415  -12.1256   21.3984 H   0  0  0  0  0  0
  -28.4047  -13.7736   21.8435 H   0  0  0  0  0  0
  -25.2775   -9.5683   22.4748 H   0  0  0  0  0  0
  -24.0009   -7.4639   22.7471 H   0  0  0  0  0  0
  -21.0844   -8.8785   19.8964 H   0  0  0  0  0  0
  -22.3706  -10.9677   19.6163 H   0  0  0  0  0  0
  -21.2012   -7.6144   23.9710 H   0  0  0  0  0  0
  -21.1486   -6.0520   25.9074 H   0  0  0  0  0  0
  -22.0598   -2.7607   23.2838 H   0  0  0  0  0  0
  -22.4090  -11.9899   22.4835 H   0  0  0  0  0  0
  -21.1088  -13.1248   22.2603 H   0  0  0  0  0  0
  -24.6508  -15.8430   20.5178 H   0  0  0  0  0  0
  -26.2675  -15.6333   20.0747 H   0  0  0  0  0  0
  -26.7217  -32.5343   23.1012 H   0  0  0  0  0  0
  -25.0047  -33.9630   25.0337 H   0  0  0  0  0  0
  -22.7339  -31.2880   21.3779 H   0  0  0  0  0  0
  -23.3752  -35.9602   23.3291 H   0  0  0  0  0  0
  -24.3584  -36.8914   22.2062 H   0  0  0  0  0  0
  -23.7244  -37.6466   23.6686 H   0  0  0  0  0  0
  -26.1239  -31.5033   20.6006 H   0  0  0  0  0  0
  -26.8559  -30.7990   22.0090 H   0  0  0  0  0  0
  -28.1169  -28.8907   21.2172 H   0  0  0  0  0  0
  -25.9896  -25.8383   19.0401 H   0  0  0  0  0  0
  -23.9915  -27.2626   19.0052 H   0  0  0  0  0  0
  -23.7804  -30.5570   19.3903 H   0  0  0  0  0  0
  -22.7733  -29.2187   19.8501 H   0  0  0  0  0  0
  -25.1301  -36.1879   25.0817 H   0  0  0  0  0  0
  -20.9997  -28.3286   24.1374 H   0  0  0  0  0  0
  -20.5640  -26.2313   23.3627 H   0  0  0  0  0  0
  -21.6637  -26.7401   22.1223 H   0  0  0  0  0  0
  -19.6904  -25.6278   21.1251 H   0  0  0  0  0  0
  -19.6690  -27.3173   20.6735 H   0  0  0  0  0  0
  -17.4198  -26.6674   21.4025 H   0  0  0  0  0  0
  -18.0327  -26.0070   22.9018 H   0  0  0  0  0  0
  -19.7945  -30.7270   24.2255 H   0  0  0  0  0  0
  -17.5023  -31.6265   24.5159 H   0  0  0  0  0  0
  -15.5358  -30.2983   23.7651 H   0  0  0  0  0  0
  -15.8679  -28.0814   22.7072 H   0  0  0  0  0  0
  -24.5891  -30.7077   25.7751 H   0  0  0  0  0  0
  -24.8914  -32.2898   26.4829 H   0  0  0  0  0  0
  -25.8029  -30.8913   27.0202 H   0  0  0  0  0  0
  -26.2961  -29.6698   24.1244 H   0  0  0  0  0  0
  -27.4025  -29.7260   25.4765 H   0  0  0  0  0  0
  -27.8844  -30.4233   23.9488 H   0  0  0  0  0  0
  -27.2630  -33.3627   26.2028 H   0  0  0  0  0  0
  -28.3864  -32.6874   25.0320 H   0  0  0  0  0  0
  -28.0696  -31.8470   26.5419 H   0  0  0  0  0  0
  -28.2579  -38.0097   24.7511 H   0  0  0  0  0  0
  -28.1083  -36.2625   24.6279 H   0  0  0  0  0  0
  -27.2300  -37.1426   25.8867 H   0  0  0  0  0  0
  -20.9407  -29.8764   21.6839 H   0  0  0  0  0  0
  -26.0156  -38.2821   24.1415 H   0  0  0  0  0  0
  -27.6844  -21.9916   22.7250 H   0  0  0  0  0  0
  -31.8031  -19.5020   21.4204 H   0  0  0  0  0  0
  -31.8046  -17.7491   21.2618 H   0  0  0  0  0  0
  -30.7873  -18.5224   22.4706 H   0  0  0  0  0  0
  -31.3291  -19.6766   18.9713 H   0  0  0  0  0  0
  -29.8910  -18.9507   18.2703 H   0  0  0  0  0  0
  -31.2298  -17.9301   18.7879 H   0  0  0  0  0  0
  -26.9306  -23.3613   19.8257 H   0  0  0  0  0  0
  -27.3848  -23.9323   21.3681 H   0  0  0  0  0  0
  -28.6747  -17.1830   19.5043 H   0  0  0  0  0  0
  -28.4029  -17.4563   21.1672 H   0  0  0  0  0  0
  -28.3039  -24.9041   18.7113 H   0  0  0  0  0  0
  -29.5799  -24.7311   19.8453 H   0  0  0  0  0  0
  -28.9404  -15.4235   21.4052 H   0  0  0  0  0  0
  1 25  1  0  0  0
  1 30  2  0  0  0
  1 82  1  0  0  0
  2  3  1  0  0  0
  2 25  1  0  0  0
  2 83  1  0  0  0
  2 84  1  0  0  0
  3  4  1  0  0  0
  3 85  1  0  0  0
  3 86  1  0  0  0
  4  5  1  0  0  0
  4 87  1  0  0  0
  4 88  1  0  0  0
  5  6  1  0  0  0
  5 26  1  0  0  0
  5 89  1  0  0  0
  6 25  1  0  0  0
  6 90  1  0  0  0
  6 91  1  0  0  0
  7  8  2  0  0  0
  7 26  1  0  0  0
  7 29  1  0  0  0
  8  9  1  0  0  0
  8 22  1  0  0  0
  9 10  1  0  0  0
  9 27  2  0  0  0
 10 11  2  0  0  0
 10 15  1  0  0  0
 11 12  1  0  0  0
 11 92  1  0  0  0
 12 13  2  0  0  0
 12 93  1  0  0  0
 13 14  1  0  0  0
 13 31  1  0  0  0
 14 15  2  0  0  0
 14 94  1  0  0  0
 15 95  1  0  0  0
 16 17  2  0  0  0
 16 21  1  0  0  0
 16 31  1  0  0  0
 17 18  1  0  0  0
 17 96  1  0  0  0
 18 19  2  0  0  0
 18 97  1  0  0  0
 19 20  1  0  0  0
 19 24  1  0  0  0
 20 21  2  0  0  0
 20 98  1  0  0  0
 21 23  1  0  0  0
 22 28  1  0  0  0
 22 32  2  0  0  0
 26 27  1  0  0  0
 28 99  1  0  0  0
 28100  1  0  0  0
 29101  1  0  0  0
 29102  1  0  0  0
 33 34  1  0  0  0
 33 66  1  0  0  0
 33 70  2  0  0  0
 34 36  1  0  0  0
 34 59  1  0  0  0
 34103  1  0  0  0
 35 44  2  0  0  0
 35 45  1  0  0  0
 35 68  1  0  0  0
 36 56  1  0  0  0
 36104  1  0  0  0
 37 39  1  0  0  0
 37 47  1  0  0  0
 37 66  1  0  0  0
 37105  1  0  0  0
 38 43  2  0  0  0
 38 46  1  0  0  0
 38 47  1  0  0  0
 39 64  1  0  0  0
 39 67  2  0  0  0
 40 52  1  0  0  0
 40 53  2  0  0  0
 40 58  1  0  0  0
 41106  1  0  0  0
 41107  1  0  0  0
 41108  1  0  0  0
 41 48  1  0  0  0
 42 43  1  0  0  0
 42 66  1  0  0  0
 42109  1  0  0  0
 42110  1  0  0  0
 43 44  1  0  0  0
 44111  1  0  0  0
 45 46  2  0  0  0
 45112  1  0  0  0
 46113  1  0  0  0
 47114  1  0  0  0
 47115  1  0  0  0
 48 56  1  0  0  0
 48 65  1  0  0  0
 48116  1  0  0  0
 49 50  1  0  0  0
 49 53  1  0  0  0
 49 64  1  0  0  0
 49117  1  0  0  0
 50 51  1  0  0  0
 50118  1  0  0  0
 50119  1  0  0  0
 51 52  1  0  0  0
 51120  1  0  0  0
 51121  1  0  0  0
 52122  1  0  0  0
 52123  1  0  0  0
 53 54  1  0  0  0
 54 55  2  0  0  0
 54124  1  0  0  0
 55 57  1  0  0  0
 55125  1  0  0  0
 56 69  2  0  0  0
 57 58  2  0  0  0
 57126  1  0  0  0
 58127  1  0  0  0
 59 60  1  0  0  0
 59 61  1  0  0  0
 59 62  1  0  0  0
 60128  1  0  0  0
 60129  1  0  0  0
 60130  1  0  0  0
 61131  1  0  0  0
 61132  1  0  0  0
 61133  1  0  0  0
 62134  1  0  0  0
 62135  1  0  0  0
 62136  1  0  0  0
 63 65  1  0  0  0
 63137  1  0  0  0
 63138  1  0  0  0
 63139  1  0  0  0
 64140  1  0  0  0
 65141  1  0  0  0
 68 77  1  0  0  0
 71 79  2  0  0  0
 71 81  1  0  0  0
 71142  1  0  0  0
 72 78  1  0  0  0
 72 79  1  0  0  0
 72 80  2  0  0  0
 73143  1  0  0  0
 73144  1  0  0  0
 73145  1  0  0  0
 73 78  1  0  0  0
 74 78  1  0  0  0
 74146  1  0  0  0
 74147  1  0  0  0
 74148  1  0  0  0
 75 77  1  0  0  0
 75 81  1  0  0  0
 75149  1  0  0  0
 75150  1  0  0  0
 76 78  1  0  0  0
 76 82  1  0  0  0
 76151  1  0  0  0
 76152  1  0  0  0
 77153  1  0  0  0
 77154  1  0  0  0
 80 81  1  0  0  0
 82155  1  0  0  0
M  ISO  4   1 100  68 101  77 101  82 100
M  END
> <chiral flag>
0

> <version>
0

> <s_m_source_file>
/data/baiqing/PycharmProjects/Reinvent-master-3.2/result/LINK_invent/BTK/process_docking_weight1_custom_sum_contain_oxygen_bond_distance_aromatic_linkinvent_7_9_3/rearranged_h_0060.sdf

> <i_m_source_file_index>
44

> <r_mmod_Potential_Energy-OPLS-2005>
318.052703857422

> <r_mmod_Stretch_Energy-OPLS-2005>
177.050201416016

> <r_mmod_Bend_Energy-OPLS-2005>
308.052001953125

> <r_mmod_Torsional_Energy-OPLS-2005>
236.35285949707

> <r_mmod_Improper_Torsional_Energy-OPLS-2005>
7.97626876831055

> <r_mmod_Van_der_Waal_Energy-OPLS-2005>
106.590835571289

> <r_mmod_Electrostatic_Energy-OPLS-2005>
-403.880676269531

> <r_mmod_Solvation_Energy-OPLS-2005>
-233.167327880859

> <b_mmod_Minimization_Converged-OPLS-2005>
0

> <r_mmod_RMS_Derivative-OPLS-2005>
1.07706046104431

$$$$
46
                    3D
 Structure written by MMmdl.
162170  0  0  1  0            999 V2000
  -30.7818  -14.4515   20.6917 C   0  0  0  0  0  0
  -30.4121  -12.3205   19.4709 C   0  0  0  0  0  0
  -29.5173  -12.5009   18.2308 C   0  0  0  0  0  0
  -28.0345  -12.3567   18.6172 C   0  0  0  0  0  0
  -27.6562  -13.2190   19.8484 C   0  0  2  0  0  0
  -28.6760  -13.0656   20.9907 C   0  0  0  0  0  0
  -25.2579  -13.8192   20.5637 C   0  0  0  0  0  0
  -24.1852  -13.0450   20.9165 C   0  0  0  0  0  0
  -24.6428  -11.6927   20.8702 C   0  0  0  0  0  0
  -23.9078  -10.4295   21.0393 C   0  0  0  0  0  0
  -24.3622   -9.4207   21.9174 C   0  0  0  0  0  0
  -23.6282   -8.2252   22.0751 C   0  0  0  0  0  0
  -22.4258   -8.0296   21.3552 C   0  0  0  0  0  0
  -21.9900   -9.0272   20.4656 C   0  0  0  0  0  0
  -22.7244  -10.2133   20.3051 C   0  0  0  0  0  0
  -21.6845   -6.0726   22.5273 C   0  0  0  0  0  0
  -21.4035   -6.5633   23.8213 C   0  0  0  0  0  0
  -21.3665   -5.6790   24.9176 C   0  0  0  0  0  0
  -21.6053   -4.3053   24.7231 C   0  0  0  0  0  0
  -21.8819   -3.8141   23.4345 C   0  0  0  0  0  0
  -21.9188   -4.6960   22.3397 C   0  0  0  0  0  0
  -22.7868  -13.5250   21.1830 C   0  0  0  0  0  0
  -22.1656   -4.2149   21.0979 F   0  0  0  0  0  0
  -21.5614   -3.4541   25.7737 F   0  0  0  0  0  0
  -30.0314  -13.3282   20.4808 N   0  0  0  0  0  0
  -26.2995  -12.9375   20.3156 N   0  0  0  0  0  0
  -25.9340  -11.6520   20.5649 N   0  0  0  0  0  0
  -22.0478  -12.8266   22.0399 N   0  0  0  0  0  0
  -25.4262  -15.1906   20.4091 N   0  0  0  0  0  0
  -31.8341  -14.6446   20.0690 O   0  0  0  0  0  0
  -21.6644   -6.8871   21.4229 O   0  0  0  0  0  0
  -22.3548  -14.5538   20.6642 O   0  0  0  0  0  0
  -24.6223  -31.8671   23.2071 C   0  0  0  0  0  0
  -25.9091  -32.4818   23.8361 C   0  0  1  0  0  0
  -27.2169  -27.3925   20.0908 C   0  0  0  0  0  0
  -25.5915  -33.8624   24.2309 N   0  0  0  0  0  0
  -23.4067  -30.4988   21.5491 C   0  0  2  0  0  0
  -24.8483  -28.9691   20.1091 C   0  0  0  0  0  0
  -22.7435  -29.4698   22.4947 C   0  0  0  0  0  0
  -18.0298  -28.1438   22.8503 C   0  0  0  0  0  0
  -24.1455  -36.7292   23.2628 C   0  0  0  0  0  0
  -25.9431  -30.8189   21.3648 C   0  0  0  0  0  0
  -26.0158  -29.4521   20.7129 C   0  0  0  0  0  0
  -27.2021  -28.6731   20.7029 C   0  0  0  0  0  0
  -26.0253  -26.9560   19.4575 C   0  0  0  0  0  0
  -24.8507  -27.7211   19.4769 C   0  0  0  0  0  0
  -23.6153  -29.8416   20.1611 C   0  0  0  0  0  0
  -25.4071  -36.3115   24.0345 C   0  0  1  0  0  0
  -20.5890  -28.3714   23.1318 C   0  0  2  0  0  0
  -20.6793  -26.9458   22.5417 C   0  0  0  0  0  0
  -19.5760  -26.6438   21.5228 C   0  0  0  0  0  0
  -18.1939  -26.7984   22.1640 C   0  0  0  0  0  0
  -19.1553  -28.8886   23.2905 C   0  0  0  0  0  0
  -18.9474  -30.1480   23.8934 C   0  0  0  0  0  0
  -17.6485  -30.6636   24.0604 C   0  0  0  0  0  0
  -25.9021  -34.9484   23.5122 C   0  0  0  0  0  0
  -16.5370  -29.9163   23.6351 C   0  0  0  0  0  0
  -16.7292  -28.6583   23.0365 C   0  0  0  0  0  0
  -26.4492  -31.6613   25.0713 C   0  0  0  0  0  0
  -25.3749  -31.3774   26.1461 C   0  0  0  0  0  0
  -27.0292  -30.3047   24.6090 C   0  0  0  0  0  0
  -27.6039  -32.4337   25.7514 C   0  0  0  0  0  0
  -27.5550  -37.1788   24.8479 C   0  0  0  0  0  0
  -21.4158  -29.3082   22.3691 N   0  0  0  0  0  0
  -26.4257  -37.3808   23.9433 N   0  0  0  0  0  0
  -24.6765  -31.0763   22.0978 N   0  0  0  0  0  0
  -23.4211  -28.8229   23.2986 O   0  0  0  0  0  0
  -28.3559  -26.5838   20.1374 O   0  0  0  0  0  0
  -26.5592  -34.8963   22.4694 O   0  0  0  0  0  0
  -23.5405  -32.1427   23.7470 O   0  0  0  0  0  0
  -30.3898  -20.8937   19.8325 C   0  0  0  0  0  0
  -28.7062  -20.3256   21.1057 C   0  0  0  0  0  0
  -29.1605  -21.3865   20.3598 C   0  0  0  0  0  0
  -30.2158  -14.0258   23.6725 C   0  0  0  0  0  0
  -31.7991  -15.9550   23.4677 C   0  0  0  0  0  0
  -28.4228  -22.6899   20.0679 C   0  0  0  0  0  0
  -29.1172  -24.0709   20.2963 C   0  0  0  0  0  0
  -29.4974  -17.9336   21.5824 C   0  0  0  0  0  0
  -30.3619  -16.8162   20.9166 C   0  0  0  0  0  0
  -28.1196  -25.1796   19.8604 C   0  0  0  0  0  0
  -30.4390  -15.3980   22.9886 C   0  0  0  0  0  0
  -30.6437  -19.6387   20.2013 N   0  0  0  0  0  0
  -29.5899  -19.2688   20.9654 N   0  0  0  0  0  0
  -30.2803  -15.4366   21.4989 N   0  0  0  0  0  0
  -31.4637  -12.3882   19.1916 H   0  0  0  0  0  0
  -30.2877  -11.3225   19.8960 H   0  0  0  0  0  0
  -29.7783  -11.7629   17.4731 H   0  0  0  0  0  0
  -29.6998  -13.4759   17.7768 H   0  0  0  0  0  0
  -27.8519  -11.3028   18.8333 H   0  0  0  0  0  0
  -27.4010  -12.6075   17.7671 H   0  0  0  0  0  0
  -27.6879  -14.2590   19.5200 H   0  0  0  0  0  0
  -28.6289  -12.0702   21.4340 H   0  0  0  0  0  0
  -28.3816  -13.7666   21.7652 H   0  0  0  0  0  0
  -25.2759   -9.5686   22.4759 H   0  0  0  0  0  0
  -23.9988   -7.4641   22.7466 H   0  0  0  0  0  0
  -21.0820   -8.8800   19.8965 H   0  0  0  0  0  0
  -22.3698  -10.9674   19.6172 H   0  0  0  0  0  0
  -21.2044   -7.6147   23.9731 H   0  0  0  0  0  0
  -21.1483   -6.0508   25.9079 H   0  0  0  0  0  0
  -22.0582   -2.7599   23.2854 H   0  0  0  0  0  0
  -22.4065  -11.9976   22.4900 H   0  0  0  0  0  0
  -21.1103  -13.1326   22.2546 H   0  0  0  0  0  0
  -24.6562  -15.8423   20.5204 H   0  0  0  0  0  0
  -26.2772  -15.6312   20.0834 H   0  0  0  0  0  0
  -26.7167  -32.5516   23.1113 H   0  0  0  0  0  0
  -25.0100  -33.9784   25.0475 H   0  0  0  0  0  0
  -22.6959  -31.3174   21.4124 H   0  0  0  0  0  0
  -23.3738  -35.9601   23.3311 H   0  0  0  0  0  0
  -24.3539  -36.8874   22.2031 H   0  0  0  0  0  0
  -23.7211  -37.6502   23.6638 H   0  0  0  0  0  0
  -26.0565  -31.5804   20.5906 H   0  0  0  0  0  0
  -26.8318  -30.8750   21.9800 H   0  0  0  0  0  0
  -28.0946  -29.0388   21.1889 H   0  0  0  0  0  0
  -25.9575  -26.0150   18.9324 H   0  0  0  0  0  0
  -23.9613  -27.3476   18.9903 H   0  0  0  0  0  0
  -23.7308  -30.6207   19.4052 H   0  0  0  0  0  0
  -22.7347  -29.2706   19.8606 H   0  0  0  0  0  0
  -25.1257  -36.1922   25.0839 H   0  0  0  0  0  0
  -20.9993  -28.3293   24.1436 H   0  0  0  0  0  0
  -20.5704  -26.2346   23.3610 H   0  0  0  0  0  0
  -21.6659  -26.7526   22.1177 H   0  0  0  0  0  0
  -19.6916  -25.6351   21.1257 H   0  0  0  0  0  0
  -19.6681  -27.3260   20.6763 H   0  0  0  0  0  0
  -17.4195  -26.6737   21.4062 H   0  0  0  0  0  0
  -18.0322  -26.0144   22.9048 H   0  0  0  0  0  0
  -19.7947  -30.7284   24.2317 H   0  0  0  0  0  0
  -17.5067  -31.6320   24.5194 H   0  0  0  0  0  0
  -15.5386  -30.3104   23.7656 H   0  0  0  0  0  0
  -15.8678  -28.0936   22.7068 H   0  0  0  0  0  0
  -24.5927  -30.7100   25.7835 H   0  0  0  0  0  0
  -24.8940  -32.2963   26.4833 H   0  0  0  0  0  0
  -25.8084  -30.9029   27.0269 H   0  0  0  0  0  0
  -26.2846  -29.6856   24.1078 H   0  0  0  0  0  0
  -27.3986  -29.7232   25.4537 H   0  0  0  0  0  0
  -27.8728  -30.4347   23.9312 H   0  0  0  0  0  0
  -27.2627  -33.3630   26.2090 H   0  0  0  0  0  0
  -28.3884  -32.6879   25.0385 H   0  0  0  0  0  0
  -28.0675  -31.8464   26.5443 H   0  0  0  0  0  0
  -28.2599  -38.0057   24.7518 H   0  0  0  0  0  0
  -28.1023  -36.2593   24.6309 H   0  0  0  0  0  0
  -27.2297  -37.1459   25.8898 H   0  0  0  0  0  0
  -20.9318  -29.8785   21.6890 H   0  0  0  0  0  0
  -26.0134  -38.2878   24.1460 H   0  0  0  0  0  0
  -31.0721  -21.3871   19.1542 H   0  0  0  0  0  0
  -27.8031  -20.2111   21.6923 H   0  0  0  0  0  0
  -30.5620  -14.0483   24.7064 H   0  0  0  0  0  0
  -30.7601  -13.2082   23.1999 H   0  0  0  0  0  0
  -29.1632  -13.7566   23.7422 H   0  0  0  0  0  0
  -32.6288  -15.3050   23.1934 H   0  0  0  0  0  0
  -31.8074  -16.0421   24.5571 H   0  0  0  0  0  0
  -32.0154  -16.9503   23.0822 H   0  0  0  0  0  0
  -28.0776  -22.6635   19.0339 H   0  0  0  0  0  0
  -27.5062  -22.6985   20.6573 H   0  0  0  0  0  0
  -30.0379  -24.1482   19.7169 H   0  0  0  0  0  0
  -29.3819  -24.1862   21.3476 H   0  0  0  0  0  0
  -29.7628  -18.0653   22.6305 H   0  0  0  0  0  0
  -28.4512  -17.6309   21.5641 H   0  0  0  0  0  0
  -30.0632  -16.7634   19.8674 H   0  0  0  0  0  0
  -31.4081  -17.1266   20.9022 H   0  0  0  0  0  0
  -27.1908  -24.9026   20.3597 H   0  0  0  0  0  0
  -27.9602  -25.0766   18.7851 H   0  0  0  0  0  0
  -29.6646  -16.0385   23.4107 H   0  0  0  0  0  0
  1 25  1  0  0  0
  1 30  2  0  0  0
  1 84  1  0  0  0
  2  3  1  0  0  0
  2 25  1  0  0  0
  2 85  1  0  0  0
  2 86  1  0  0  0
  3  4  1  0  0  0
  3 87  1  0  0  0
  3 88  1  0  0  0
  4  5  1  0  0  0
  4 89  1  0  0  0
  4 90  1  0  0  0
  5  6  1  0  0  0
  5 26  1  0  0  0
  5 91  1  0  0  0
  6 25  1  0  0  0
  6 92  1  0  0  0
  6 93  1  0  0  0
  7  8  2  0  0  0
  7 26  1  0  0  0
  7 29  1  0  0  0
  8  9  1  0  0  0
  8 22  1  0  0  0
  9 10  1  0  0  0
  9 27  2  0  0  0
 10 11  2  0  0  0
 10 15  1  0  0  0
 11 12  1  0  0  0
 11 94  1  0  0  0
 12 13  2  0  0  0
 12 95  1  0  0  0
 13 14  1  0  0  0
 13 31  1  0  0  0
 14 15  2  0  0  0
 14 96  1  0  0  0
 15 97  1  0  0  0
 16 17  2  0  0  0
 16 21  1  0  0  0
 16 31  1  0  0  0
 17 18  1  0  0  0
 17 98  1  0  0  0
 18 19  2  0  0  0
 18 99  1  0  0  0
 19 20  1  0  0  0
 19 24  1  0  0  0
 20 21  2  0  0  0
 20100  1  0  0  0
 21 23  1  0  0  0
 22 28  1  0  0  0
 22 32  2  0  0  0
 26 27  1  0  0  0
 28101  1  0  0  0
 28102  1  0  0  0
 29103  1  0  0  0
 29104  1  0  0  0
 33 34  1  0  0  0
 33 66  1  0  0  0
 33 70  2  0  0  0
 34 36  1  0  0  0
 34 59  1  0  0  0
 34105  1  0  0  0
 35 44  2  0  0  0
 35 45  1  0  0  0
 35 68  1  0  0  0
 36 56  1  0  0  0
 36106  1  0  0  0
 37 39  1  0  0  0
 37 47  1  0  0  0
 37 66  1  0  0  0
 37107  1  0  0  0
 38 43  2  0  0  0
 38 46  1  0  0  0
 38 47  1  0  0  0
 39 64  1  0  0  0
 39 67  2  0  0  0
 40 52  1  0  0  0
 40 53  2  0  0  0
 40 58  1  0  0  0
 41108  1  0  0  0
 41109  1  0  0  0
 41110  1  0  0  0
 41 48  1  0  0  0
 42 43  1  0  0  0
 42 66  1  0  0  0
 42111  1  0  0  0
 42112  1  0  0  0
 43 44  1  0  0  0
 44113  1  0  0  0
 45 46  2  0  0  0
 45114  1  0  0  0
 46115  1  0  0  0
 47116  1  0  0  0
 47117  1  0  0  0
 48 56  1  0  0  0
 48 65  1  0  0  0
 48118  1  0  0  0
 49 50  1  0  0  0
 49 53  1  0  0  0
 49 64  1  0  0  0
 49119  1  0  0  0
 50 51  1  0  0  0
 50120  1  0  0  0
 50121  1  0  0  0
 51 52  1  0  0  0
 51122  1  0  0  0
 51123  1  0  0  0
 52124  1  0  0  0
 52125  1  0  0  0
 53 54  1  0  0  0
 54 55  2  0  0  0
 54126  1  0  0  0
 55 57  1  0  0  0
 55127  1  0  0  0
 56 69  2  0  0  0
 57 58  2  0  0  0
 57128  1  0  0  0
 58129  1  0  0  0
 59 60  1  0  0  0
 59 61  1  0  0  0
 59 62  1  0  0  0
 60130  1  0  0  0
 60131  1  0  0  0
 60132  1  0  0  0
 61133  1  0  0  0
 61134  1  0  0  0
 61135  1  0  0  0
 62136  1  0  0  0
 62137  1  0  0  0
 62138  1  0  0  0
 63 65  1  0  0  0
 63139  1  0  0  0
 63140  1  0  0  0
 63141  1  0  0  0
 64142  1  0  0  0
 65143  1  0  0  0
 68 80  1  0  0  0
 71 73  1  0  0  0
 71 82  2  0  0  0
 71144  1  0  0  0
 72 73  2  0  0  0
 72 83  1  0  0  0
 72145  1  0  0  0
 73 76  1  0  0  0
 74146  1  0  0  0
 74147  1  0  0  0
 74148  1  0  0  0
 74 81  1  0  0  0
 75 81  1  0  0  0
 75149  1  0  0  0
 75150  1  0  0  0
 75151  1  0  0  0
 76 77  1  0  0  0
 76152  1  0  0  0
 76153  1  0  0  0
 77 80  1  0  0  0
 77154  1  0  0  0
 77155  1  0  0  0
 78 79  1  0  0  0
 78 83  1  0  0  0
 78156  1  0  0  0
 78157  1  0  0  0
 79 84  1  0  0  0
 79158  1  0  0  0
 79159  1  0  0  0
 80160  1  0  0  0
 80161  1  0  0  0
 81 84  1  0  0  0
 81162  1  0  0  0
 82 83  1  0  0  0
M  ISO  4   1 100  68 101  80 101  84 100
M  END
> <chiral flag>
0

> <version>
0

> <s_m_source_file>
/data/baiqing/PycharmProjects/Reinvent-master-3.2/result/LINK_invent/BTK/process_docking_weight1_custom_sum_contain_oxygen_bond_distance_aromatic_linkinvent_7_9_3/rearranged_h_0060.sdf

> <i_m_source_file_index>
45

> <r_mmod_Potential_Energy-OPLS-2005>
202.271347045898

> <r_mmod_Stretch_Energy-OPLS-2005>
51.6267623901367

> <r_mmod_Bend_Energy-OPLS-2005>
135.312774658203

> <r_mmod_Torsional_Energy-OPLS-2005>
294.615814208984

> <r_mmod_Improper_Torsional_Energy-OPLS-2005>
6.57387256622314

> <r_mmod_Van_der_Waal_Energy-OPLS-2005>
150.012878417969

> <r_mmod_Electrostatic_Energy-OPLS-2005>
-251.531784057617

> <r_mmod_Solvation_Energy-OPLS-2005>
-205.016815185547

> <b_mmod_Minimization_Converged-OPLS-2005>
0

> <r_mmod_RMS_Derivative-OPLS-2005>
4.42217206954956

$$$$
47
                    3D
 Structure written by MMmdl.
147155  0  0  1  0            999 V2000
  -30.3827  -15.3013   20.3931 C   0  0  0  0  0  0
  -30.4504  -12.8263   19.5382 C   0  0  0  0  0  0
  -29.5467  -12.5961   18.2971 C   0  0  0  0  0  0
  -28.0934  -12.3089   18.7151 C   0  0  0  0  0  0
  -27.6166  -13.2758   19.8258 C   0  0  2  0  0  0
  -28.6457  -13.4344   20.9639 C   0  0  0  0  0  0
  -25.2413  -13.8247   20.5738 C   0  0  0  0  0  0
  -24.1759  -13.0437   20.9240 C   0  0  0  0  0  0
  -24.6411  -11.6933   20.8741 C   0  0  0  0  0  0
  -23.9101  -10.4294   21.0394 C   0  0  0  0  0  0
  -24.3642   -9.4210   21.9177 C   0  0  0  0  0  0
  -23.6308   -8.2249   22.0752 C   0  0  0  0  0  0
  -22.4288   -8.0287   21.3544 C   0  0  0  0  0  0
  -21.9930   -9.0261   20.4644 C   0  0  0  0  0  0
  -22.7268  -10.2135   20.3049 C   0  0  0  0  0  0
  -21.6859   -6.0740   22.5279 C   0  0  0  0  0  0
  -21.4019   -6.5642   23.8213 C   0  0  0  0  0  0
  -21.3661   -5.6793   24.9174 C   0  0  0  0  0  0
  -21.6044   -4.3056   24.7223 C   0  0  0  0  0  0
  -21.8819   -3.8149   23.4344 C   0  0  0  0  0  0
  -21.9195   -4.6967   22.3401 C   0  0  0  0  0  0
  -22.7776  -13.5190   21.1896 C   0  0  0  0  0  0
  -22.1662   -4.2153   21.0979 F   0  0  0  0  0  0
  -21.5627   -3.4538   25.7735 F   0  0  0  0  0  0
  -29.8852  -13.9595   20.3640 N   0  0  0  0  0  0
  -26.2841  -12.9521   20.3199 N   0  0  0  0  0  0
  -25.9351  -11.6625   20.5691 N   0  0  0  0  0  0
  -22.0436  -12.8171   22.0452 N   0  0  0  0  0  0
  -25.4058  -15.1984   20.4207 N   0  0  0  0  0  0
  -31.5813  -15.3405   20.0693 O   0  0  0  0  0  0
  -21.6648   -6.8886   21.4242 O   0  0  0  0  0  0
  -22.3451  -14.5492   20.6739 O   0  0  0  0  0  0
  -24.6646  -31.8205   23.1675 C   0  0  0  0  0  0
  -25.9317  -32.4572   23.8150 C   0  0  1  0  0  0
  -27.2250  -26.9063   20.1888 C   0  0  0  0  0  0
  -25.5974  -33.8387   24.2054 N   0  0  0  0  0  0
  -23.4810  -30.4296   21.5168 C   0  0  2  0  0  0
  -24.9361  -28.8096   20.1120 C   0  0  0  0  0  0
  -22.7676  -29.4421   22.4772 C   0  0  0  0  0  0
  -18.0324  -28.1410   22.8465 C   0  0  0  0  0  0
  -24.1493  -36.7201   23.2648 C   0  0  0  0  0  0
  -26.0505  -30.6201   21.4005 C   0  0  0  0  0  0
  -26.1193  -29.2069   20.7465 C   0  0  0  0  0  0
  -27.2564  -28.2769   20.7585 C   0  0  0  0  0  0
  -26.0126  -26.6646   19.5041 C   0  0  0  0  0  0
  -24.9094  -27.5598   19.4699 C   0  0  0  0  0  0
  -23.7224  -29.7400   20.1448 C   0  0  0  0  0  0
  -25.4136  -36.2957   24.0296 C   0  0  1  0  0  0
  -20.5949  -28.3755   23.1184 C   0  0  2  0  0  0
  -20.6798  -26.9434   22.5404 C   0  0  0  0  0  0
  -19.5773  -26.6376   21.5215 C   0  0  0  0  0  0
  -18.1955  -26.7943   22.1622 C   0  0  0  0  0  0
  -19.1586  -28.8905   23.2811 C   0  0  0  0  0  0
  -18.9495  -30.1494   23.8847 C   0  0  0  0  0  0
  -17.6488  -30.6599   24.0555 C   0  0  0  0  0  0
  -25.9101  -34.9341   23.5000 C   0  0  0  0  0  0
  -16.5378  -29.9085   23.6344 C   0  0  0  0  0  0
  -16.7305  -28.6506   23.0362 C   0  0  0  0  0  0
  -26.4562  -31.6530   25.0692 C   0  0  0  0  0  0
  -25.3682  -31.3789   26.1343 C   0  0  0  0  0  0
  -27.0468  -30.2895   24.6446 C   0  0  0  0  0  0
  -27.6044  -32.4350   25.7499 C   0  0  0  0  0  0
  -27.5569  -37.1757   24.8465 C   0  0  0  0  0  0
  -21.4343  -29.3038   22.3527 N   0  0  0  0  0  0
  -26.4278  -37.3697   23.9408 N   0  0  0  0  0  0
  -24.7535  -30.9845   22.0819 N   0  0  0  0  0  0
  -23.4212  -28.8000   23.3030 O   0  0  0  0  0  0
  -28.2325  -25.8002   20.2810 O   0  0  0  0  0  0
  -26.5718  -34.8883   22.4601 O   0  0  0  0  0  0
  -23.5711  -32.1184   23.6755 O   0  0  0  0  0  0
  -29.1896  -19.7327   21.0778 C   0  0  0  0  0  0
  -29.0807  -20.9403   20.2648 C   0  0  0  0  0  0
  -29.5664  -16.8167   22.3638 C   0  0  0  0  0  0
  -29.0436  -22.6999   20.5184 C   0  0  0  0  0  0
  -28.0498  -24.1563   20.0694 C   0  0  0  0  0  0
  -29.5222  -16.7948   20.8243 C   0  0  1  0  0  0
  -29.3647  -20.2777   19.0340 N   0  0  0  0  0  0
  -29.5419  -18.9293   19.0974 N   0  0  0  0  0  0
  -29.5153  -18.4404   20.3849 N   0  0  0  0  0  0
  -31.4676  -13.0413   19.2092 H   0  0  0  0  0  0
  -30.5264  -11.9151   20.1338 H   0  0  0  0  0  0
  -29.9332  -11.7756   17.6913 H   0  0  0  0  0  0
  -29.5739  -13.4844   17.6641 H   0  0  0  0  0  0
  -28.0504  -11.2824   19.0809 H   0  0  0  0  0  0
  -27.4288  -12.3555   17.8516 H   0  0  0  0  0  0
  -27.5368  -14.2476   19.3374 H   0  0  0  0  0  0
  -28.8130  -12.4903   21.4846 H   0  0  0  0  0  0
  -28.2700  -14.1340   21.7110 H   0  0  0  0  0  0
  -25.2786   -9.5685   22.4755 H   0  0  0  0  0  0
  -24.0013   -7.4642   22.7475 H   0  0  0  0  0  0
  -21.0859   -8.8786   19.8952 H   0  0  0  0  0  0
  -22.3726  -10.9675   19.6158 H   0  0  0  0  0  0
  -21.2015   -7.6151   23.9718 H   0  0  0  0  0  0
  -21.1482   -6.0522   25.9077 H   0  0  0  0  0  0
  -22.0596   -2.7611   23.2842 H   0  0  0  0  0  0
  -22.4071  -11.9842   22.4843 H   0  0  0  0  0  0
  -21.1047  -13.1176   22.2657 H   0  0  0  0  0  0
  -24.6365  -15.8484   20.5405 H   0  0  0  0  0  0
  -26.2513  -15.6442   20.0898 H   0  0  0  0  0  0
  -26.7388  -32.5104   23.0865 H   0  0  0  0  0  0
  -25.0063  -33.9460   25.0166 H   0  0  0  0  0  0
  -22.7955  -31.2616   21.3426 H   0  0  0  0  0  0
  -23.3768  -35.9518   23.3274 H   0  0  0  0  0  0
  -24.3568  -36.8886   22.2070 H   0  0  0  0  0  0
  -23.7238  -37.6372   23.6731 H   0  0  0  0  0  0
  -26.2321  -31.3593   20.6193 H   0  0  0  0  0  0
  -26.9098  -30.6793   22.0567 H   0  0  0  0  0  0
  -28.1510  -28.5796   21.2843 H   0  0  0  0  0  0
  -25.8857  -25.7086   19.0168 H   0  0  0  0  0  0
  -24.0106  -27.2493   18.9549 H   0  0  0  0  0  0
  -23.8789  -30.5063   19.3847 H   0  0  0  0  0  0
  -22.8319  -29.1945   19.8278 H   0  0  0  0  0  0
  -25.1336  -36.1748   25.0787 H   0  0  0  0  0  0
  -21.0037  -28.3366   24.1308 H   0  0  0  0  0  0
  -20.5676  -26.2374   23.3647 H   0  0  0  0  0  0
  -21.6661  -26.7405   22.1213 H   0  0  0  0  0  0
  -19.6931  -25.6273   21.1278 H   0  0  0  0  0  0
  -19.6714  -27.3158   20.6723 H   0  0  0  0  0  0
  -17.4224  -26.6686   21.4025 H   0  0  0  0  0  0
  -18.0349  -26.0098   22.9031 H   0  0  0  0  0  0
  -19.7971  -30.7325   24.2192 H   0  0  0  0  0  0
  -17.5039  -31.6273   24.5167 H   0  0  0  0  0  0
  -15.5376  -30.2970   23.7698 H   0  0  0  0  0  0
  -15.8706  -28.0808   22.7104 H   0  0  0  0  0  0
  -24.5879  -30.7123   25.7652 H   0  0  0  0  0  0
  -24.8854  -32.2993   26.4638 H   0  0  0  0  0  0
  -25.7906  -30.9042   27.0208 H   0  0  0  0  0  0
  -26.3142  -29.6558   24.1434 H   0  0  0  0  0  0
  -27.3971  -29.7275   25.5114 H   0  0  0  0  0  0
  -27.9092  -30.4072   23.9883 H   0  0  0  0  0  0
  -27.2604  -33.3697   26.1941 H   0  0  0  0  0  0
  -28.3926  -32.6839   25.0381 H   0  0  0  0  0  0
  -28.0635  -31.8569   26.5529 H   0  0  0  0  0  0
  -28.2564  -38.0073   24.7514 H   0  0  0  0  0  0
  -28.1088  -36.2599   24.6291 H   0  0  0  0  0  0
  -27.2285  -37.1395   25.8867 H   0  0  0  0  0  0
  -20.9604  -29.8717   21.6642 H   0  0  0  0  0  0
  -26.0122  -38.2753   24.1419 H   0  0  0  0  0  0
  -29.0795  -19.6918   22.1544 H   0  0  0  0  0  0
  -28.6946  -17.3279   22.7719 H   0  0  0  0  0  0
  -30.4560  -17.3382   22.7173 H   0  0  0  0  0  0
  -29.5795  -15.8180   22.8009 H   0  0  0  0  0  0
  -30.0349  -23.0153   20.1937 H   0  0  0  0  0  0
  -29.1088  -22.8045   21.6011 H   0  0  0  0  0  0
  -27.0599  -23.9505   20.4768 H   0  0  0  0  0  0
  -27.9148  -24.0670   18.9914 H   0  0  0  0  0  0
  -28.5087  -16.4898   20.5651 H   0  0  0  0  0  0
  1 25  1  0  0  0
  1 30  2  0  0  0
  1 76  1  0  0  0
  2  3  1  0  0  0
  2 25  1  0  0  0
  2 80  1  0  0  0
  2 81  1  0  0  0
  3  4  1  0  0  0
  3 82  1  0  0  0
  3 83  1  0  0  0
  4  5  1  0  0  0
  4 84  1  0  0  0
  4 85  1  0  0  0
  5  6  1  0  0  0
  5 26  1  0  0  0
  5 86  1  0  0  0
  6 25  1  0  0  0
  6 87  1  0  0  0
  6 88  1  0  0  0
  7  8  2  0  0  0
  7 26  1  0  0  0
  7 29  1  0  0  0
  8  9  1  0  0  0
  8 22  1  0  0  0
  9 10  1  0  0  0
  9 27  2  0  0  0
 10 11  2  0  0  0
 10 15  1  0  0  0
 11 12  1  0  0  0
 11 89  1  0  0  0
 12 13  2  0  0  0
 12 90  1  0  0  0
 13 14  1  0  0  0
 13 31  1  0  0  0
 14 15  2  0  0  0
 14 91  1  0  0  0
 15 92  1  0  0  0
 16 17  2  0  0  0
 16 21  1  0  0  0
 16 31  1  0  0  0
 17 18  1  0  0  0
 17 93  1  0  0  0
 18 19  2  0  0  0
 18 94  1  0  0  0
 19 20  1  0  0  0
 19 24  1  0  0  0
 20 21  2  0  0  0
 20 95  1  0  0  0
 21 23  1  0  0  0
 22 28  1  0  0  0
 22 32  2  0  0  0
 26 27  1  0  0  0
 28 96  1  0  0  0
 28 97  1  0  0  0
 29 98  1  0  0  0
 29 99  1  0  0  0
 33 34  1  0  0  0
 33 66  1  0  0  0
 33 70  2  0  0  0
 34 36  1  0  0  0
 34 59  1  0  0  0
 34100  1  0  0  0
 35 44  2  0  0  0
 35 45  1  0  0  0
 35 68  1  0  0  0
 36 56  1  0  0  0
 36101  1  0  0  0
 37 39  1  0  0  0
 37 47  1  0  0  0
 37 66  1  0  0  0
 37102  1  0  0  0
 38 43  2  0  0  0
 38 46  1  0  0  0
 38 47  1  0  0  0
 39 64  1  0  0  0
 39 67  2  0  0  0
 40 52  1  0  0  0
 40 53  2  0  0  0
 40 58  1  0  0  0
 41103  1  0  0  0
 41104  1  0  0  0
 41105  1  0  0  0
 41 48  1  0  0  0
 42 43  1  0  0  0
 42 66  1  0  0  0
 42106  1  0  0  0
 42107  1  0  0  0
 43 44  1  0  0  0
 44108  1  0  0  0
 45 46  2  0  0  0
 45109  1  0  0  0
 46110  1  0  0  0
 47111  1  0  0  0
 47112  1  0  0  0
 48 56  1  0  0  0
 48 65  1  0  0  0
 48113  1  0  0  0
 49 50  1  0  0  0
 49 53  1  0  0  0
 49 64  1  0  0  0
 49114  1  0  0  0
 50 51  1  0  0  0
 50115  1  0  0  0
 50116  1  0  0  0
 51 52  1  0  0  0
 51117  1  0  0  0
 51118  1  0  0  0
 52119  1  0  0  0
 52120  1  0  0  0
 53 54  1  0  0  0
 54 55  2  0  0  0
 54121  1  0  0  0
 55 57  1  0  0  0
 55122  1  0  0  0
 56 69  2  0  0  0
 57 58  2  0  0  0
 57123  1  0  0  0
 58124  1  0  0  0
 59 60  1  0  0  0
 59 61  1  0  0  0
 59 62  1  0  0  0
 60125  1  0  0  0
 60126  1  0  0  0
 60127  1  0  0  0
 61128  1  0  0  0
 61129  1  0  0  0
 61130  1  0  0  0
 62131  1  0  0  0
 62132  1  0  0  0
 62133  1  0  0  0
 63 65  1  0  0  0
 63134  1  0  0  0
 63135  1  0  0  0
 63136  1  0  0  0
 64137  1  0  0  0
 65138  1  0  0  0
 68 75  1  0  0  0
 71 72  2  0  0  0
 71 79  1  0  0  0
 71139  1  0  0  0
 72 74  1  0  0  0
 72 77  1  0  0  0
 73140  1  0  0  0
 73141  1  0  0  0
 73142  1  0  0  0
 73 76  1  0  0  0
 74 75  1  0  0  0
 74143  1  0  0  0
 74144  1  0  0  0
 75145  1  0  0  0
 75146  1  0  0  0
 76 79  1  0  0  0
 76147  1  0  0  0
 77 78  2  0  0  0
 78 79  1  0  0  0
M  ISO  4   1 100  68 101  75 101  76 100
M  END
> <chiral flag>
0

> <version>
0

> <s_m_source_file>
/data/baiqing/PycharmProjects/Reinvent-master-3.2/result/LINK_invent/BTK/process_docking_weight1_custom_sum_contain_oxygen_bond_distance_aromatic_linkinvent_7_9_3/rearranged_h_0060.sdf

> <i_m_source_file_index>
46

> <r_mmod_Potential_Energy-OPLS-2005>
1405.67700195312

> <r_mmod_Stretch_Energy-OPLS-2005>
635.553283691406

> <r_mmod_Bend_Energy-OPLS-2005>
490.169555664062

> <r_mmod_Torsional_Energy-OPLS-2005>
200.455718994141

> <r_mmod_Improper_Torsional_Energy-OPLS-2005>
4.40049123764038

> <r_mmod_Van_der_Waal_Energy-OPLS-2005>
103.900123596191

> <r_mmod_Electrostatic_Energy-OPLS-2005>
-297.251007080078

> <r_mmod_Solvation_Energy-OPLS-2005>
-223.707504272461

> <b_mmod_Minimization_Converged-OPLS-2005>
0

> <r_mmod_RMS_Derivative-OPLS-2005>
0.109640032052994

$$$$
48
                    3D
 Structure written by MMmdl.
152160  0  0  1  0            999 V2000
  -30.5283  -15.0197   20.4104 C   0  0  0  0  0  0
  -30.4469  -12.6359   19.5128 C   0  0  0  0  0  0
  -29.5302  -12.5217   18.2730 C   0  0  0  0  0  0
  -28.0654  -12.3006   18.6914 C   0  0  0  0  0  0
  -27.6280  -13.2538   19.8340 C   0  0  2  0  0  0
  -28.6692  -13.3200   20.9725 C   0  0  0  0  0  0
  -25.2447  -13.8218   20.5706 C   0  0  0  0  0  0
  -24.1773  -13.0443   20.9264 C   0  0  0  0  0  0
  -24.6387  -11.6930   20.8762 C   0  0  0  0  0  0
  -23.9077  -10.4298   21.0404 C   0  0  0  0  0  0
  -24.3626   -9.4218   21.9187 C   0  0  0  0  0  0
  -23.6301   -8.2246   22.0740 C   0  0  0  0  0  0
  -22.4279   -8.0280   21.3535 C   0  0  0  0  0  0
  -21.9924   -9.0245   20.4627 C   0  0  0  0  0  0
  -22.7248  -10.2129   20.3050 C   0  0  0  0  0  0
  -21.6856   -6.0738   22.5277 C   0  0  0  0  0  0
  -21.4007   -6.5638   23.8212 C   0  0  0  0  0  0
  -21.3661   -5.6790   24.9177 C   0  0  0  0  0  0
  -21.6046   -4.3050   24.7226 C   0  0  0  0  0  0
  -21.8823   -3.8143   23.4346 C   0  0  0  0  0  0
  -21.9193   -4.6962   22.3404 C   0  0  0  0  0  0
  -22.7791  -13.5213   21.1908 C   0  0  0  0  0  0
  -22.1665   -4.2153   21.0979 F   0  0  0  0  0  0
  -21.5640   -3.4531   25.7737 F   0  0  0  0  0  0
  -29.9395  -13.7494   20.3713 N   0  0  0  0  0  0
  -26.2877  -12.9466   20.3218 N   0  0  0  0  0  0
  -25.9329  -11.6592   20.5744 N   0  0  0  0  0  0
  -22.0434  -12.8176   22.0435 N   0  0  0  0  0  0
  -25.4122  -15.1939   20.4109 N   0  0  0  0  0  0
  -31.7308  -15.0737   20.1327 O   0  0  0  0  0  0
  -21.6641   -6.8878   21.4234 O   0  0  0  0  0  0
  -22.3465  -14.5510   20.6736 O   0  0  0  0  0  0
  -24.6512  -31.8389   23.1868 C   0  0  0  0  0  0
  -25.9256  -32.4656   23.8275 C   0  0  1  0  0  0
  -27.2043  -27.0662   20.1619 C   0  0  0  0  0  0
  -25.5995  -33.8457   24.2191 N   0  0  0  0  0  0
  -23.4555  -30.4646   21.5316 C   0  0  2  0  0  0
  -24.9035  -28.8853   20.1081 C   0  0  0  0  0  0
  -22.7606  -29.4538   22.4810 C   0  0  0  0  0  0
  -18.0325  -28.1399   22.8520 C   0  0  0  0  0  0
  -24.1477  -36.7199   23.2656 C   0  0  0  0  0  0
  -26.0196  -30.6894   21.3983 C   0  0  0  0  0  0
  -26.0865  -29.2974   20.7360 C   0  0  0  0  0  0
  -27.2364  -28.4064   20.7447 C   0  0  0  0  0  0
  -25.9950  -26.7850   19.4801 C   0  0  0  0  0  0
  -24.8755  -27.6455   19.4603 C   0  0  0  0  0  0
  -23.6879  -29.8044   20.1490 C   0  0  0  0  0  0
  -25.4123  -36.2985   24.0329 C   0  0  1  0  0  0
  -20.5945  -28.3723   23.1221 C   0  0  2  0  0  0
  -20.6789  -26.9417   22.5386 C   0  0  0  0  0  0
  -19.5745  -26.6389   21.5206 C   0  0  0  0  0  0
  -18.1933  -26.7953   22.1636 C   0  0  0  0  0  0
  -19.1590  -28.8894   23.2855 C   0  0  0  0  0  0
  -18.9498  -30.1497   23.8867 C   0  0  0  0  0  0
  -17.6486  -30.6589   24.0599 C   0  0  0  0  0  0
  -25.9084  -34.9377   23.5053 C   0  0  0  0  0  0
  -16.5383  -29.9095   23.6341 C   0  0  0  0  0  0
  -16.7306  -28.6517   23.0360 C   0  0  0  0  0  0
  -26.4563  -31.6523   25.0729 C   0  0  0  0  0  0
  -25.3735  -31.3692   26.1410 C   0  0  0  0  0  0
  -27.0429  -30.2921   24.6351 C   0  0  0  0  0  0
  -27.6109  -32.4287   25.7503 C   0  0  0  0  0  0
  -27.5560  -37.1765   24.8495 C   0  0  0  0  0  0
  -21.4293  -29.3051   22.3585 N   0  0  0  0  0  0
  -26.4264  -37.3731   23.9444 N   0  0  0  0  0  0
  -24.7281  -31.0213   22.0931 N   0  0  0  0  0  0
  -23.4223  -28.8067   23.2950 O   0  0  0  0  0  0
  -28.2061  -26.0021   20.2550 O   0  0  0  0  0  0
  -26.5650  -34.8900   22.4625 O   0  0  0  0  0  0
  -23.5613  -32.1288   23.7055 O   0  0  0  0  0  0
  -28.0586  -21.6747   20.1713 C   0  0  0  0  0  0
  -28.5542  -23.0042   20.2988 C   0  0  0  0  0  0
  -28.6678  -18.8868   22.2123 C   0  0  0  0  0  0
  -27.6012  -18.5746   19.9956 C   0  0  0  0  0  0
  -27.7831  -24.4853   20.0595 C   0  0  0  0  0  0
  -30.0242  -17.7940   20.3337 C   0  0  0  0  0  0
  -28.8981  -19.0314   20.6974 C   0  0  0  0  0  0
  -29.8880  -22.7124   20.6709 N   0  0  0  0  0  0
  -30.1380  -21.3917   20.7751 N   0  0  0  0  0  0
  -29.0361  -20.6345   20.4466 N   0  0  0  0  0  0
  -29.7543  -16.2213   20.5566 N   0  0  0  0  0  0
  -31.4747  -12.8059   19.1895 H   0  0  0  0  0  0
  -30.4687  -11.6998   20.0743 H   0  0  0  0  0  0
  -29.8651  -11.7028   17.6340 H   0  0  0  0  0  0
  -29.6072  -13.4326   17.6792 H   0  0  0  0  0  0
  -27.9731  -11.2651   19.0247 H   0  0  0  0  0  0
  -27.4036  -12.4048   17.8304 H   0  0  0  0  0  0
  -27.5814  -14.2450   19.3814 H   0  0  0  0  0  0
  -28.7727  -12.3542   21.4699 H   0  0  0  0  0  0
  -28.3547  -14.0304   21.7390 H   0  0  0  0  0  0
  -25.2769   -9.5697   22.4771 H   0  0  0  0  0  0
  -24.0017   -7.4635   22.7452 H   0  0  0  0  0  0
  -21.0870   -8.8741   19.8929 H   0  0  0  0  0  0
  -22.3695  -10.9657   19.6153 H   0  0  0  0  0  0
  -21.1980   -7.6141   23.9715 H   0  0  0  0  0  0
  -21.1487   -6.0520   25.9083 H   0  0  0  0  0  0
  -22.0598   -2.7609   23.2839 H   0  0  0  0  0  0
  -22.4051  -11.9852   22.4854 H   0  0  0  0  0  0
  -21.1019  -13.1131   22.2593 H   0  0  0  0  0  0
  -24.6419  -15.8450   20.5212 H   0  0  0  0  0  0
  -26.2377  -15.6220   20.0139 H   0  0  0  0  0  0
  -26.7327  -32.5238   23.0998 H   0  0  0  0  0  0
  -25.0217  -33.9588   25.0393 H   0  0  0  0  0  0
  -22.7623  -31.2936   21.3811 H   0  0  0  0  0  0
  -23.3745  -35.9520   23.3314 H   0  0  0  0  0  0
  -24.3556  -36.8809   22.2064 H   0  0  0  0  0  0
  -23.7223  -37.6411   23.6672 H   0  0  0  0  0  0
  -26.1966  -31.4420   20.6291 H   0  0  0  0  0  0
  -26.8833  -30.7281   22.0480 H   0  0  0  0  0  0
  -28.1295  -28.7214   21.2692 H   0  0  0  0  0  0
  -25.8587  -25.8470   18.9689 H   0  0  0  0  0  0
  -23.9751  -27.3255   18.9481 H   0  0  0  0  0  0
  -23.8505  -30.5887   19.4081 H   0  0  0  0  0  0
  -22.7944  -29.2714   19.8144 H   0  0  0  0  0  0
  -25.1297  -36.1791   25.0817 H   0  0  0  0  0  0
  -21.0091  -28.3297   24.1316 H   0  0  0  0  0  0
  -20.5636  -26.2346   23.3612 H   0  0  0  0  0  0
  -21.6649  -26.7371   22.1196 H   0  0  0  0  0  0
  -19.6867  -25.6296   21.1226 H   0  0  0  0  0  0
  -19.6653  -27.3230   20.6758 H   0  0  0  0  0  0
  -17.4193  -26.6750   21.4037 H   0  0  0  0  0  0
  -18.0312  -26.0095   22.9021 H   0  0  0  0  0  0
  -19.7956  -30.7369   24.2173 H   0  0  0  0  0  0
  -17.5013  -31.6256   24.5211 H   0  0  0  0  0  0
  -15.5373  -30.2976   23.7661 H   0  0  0  0  0  0
  -15.8719  -28.0824   22.7058 H   0  0  0  0  0  0
  -24.5986  -30.6962   25.7727 H   0  0  0  0  0  0
  -24.8842  -32.2853   26.4727 H   0  0  0  0  0  0
  -25.8041  -30.8958   27.0243 H   0  0  0  0  0  0
  -26.3046  -29.6639   24.1379 H   0  0  0  0  0  0
  -27.4075  -29.7240   25.4911 H   0  0  0  0  0  0
  -27.8952  -30.4162   23.9678 H   0  0  0  0  0  0
  -27.2746  -33.3636   26.2002 H   0  0  0  0  0  0
  -28.3980  -32.6763   25.0357 H   0  0  0  0  0  0
  -28.0738  -31.8455   26.5475 H   0  0  0  0  0  0
  -28.2593  -38.0049   24.7529 H   0  0  0  0  0  0
  -28.1013  -36.2587   24.6294 H   0  0  0  0  0  0
  -27.2272  -37.1371   25.8893 H   0  0  0  0  0  0
  -20.9479  -29.8800   21.6823 H   0  0  0  0  0  0
  -26.0084  -38.2774   24.1475 H   0  0  0  0  0  0
  -27.0490  -21.3802   19.9192 H   0  0  0  0  0  0
  -28.4357  -17.8601   22.4967 H   0  0  0  0  0  0
  -27.8454  -19.5154   22.5543 H   0  0  0  0  0  0
  -29.5579  -19.1851   22.7674 H   0  0  0  0  0  0
  -27.3627  -17.5336   20.2193 H   0  0  0  0  0  0
  -27.6826  -18.6617   18.9111 H   0  0  0  0  0  0
  -26.7381  -19.1574   20.3157 H   0  0  0  0  0  0
  -26.8573  -24.4076   20.6309 H   0  0  0  0  0  0
  -27.4614  -24.4462   19.0206 H   0  0  0  0  0  0
  -30.9479  -18.0357   20.8611 H   0  0  0  0  0  0
  -30.2844  -17.9064   19.2793 H   0  0  0  0  0  0
  -28.7942  -16.0203   20.7899 H   0  0  0  0  0  0
  1 25  1  0  0  0
  1 30  2  0  0  0
  1 81  1  0  0  0
  2  3  1  0  0  0
  2 25  1  0  0  0
  2 82  1  0  0  0
  2 83  1  0  0  0
  3  4  1  0  0  0
  3 84  1  0  0  0
  3 85  1  0  0  0
  4  5  1  0  0  0
  4 86  1  0  0  0
  4 87  1  0  0  0
  5  6  1  0  0  0
  5 26  1  0  0  0
  5 88  1  0  0  0
  6 25  1  0  0  0
  6 89  1  0  0  0
  6 90  1  0  0  0
  7  8  2  0  0  0
  7 26  1  0  0  0
  7 29  1  0  0  0
  8  9  1  0  0  0
  8 22  1  0  0  0
  9 10  1  0  0  0
  9 27  2  0  0  0
 10 11  2  0  0  0
 10 15  1  0  0  0
 11 12  1  0  0  0
 11 91  1  0  0  0
 12 13  2  0  0  0
 12 92  1  0  0  0
 13 14  1  0  0  0
 13 31  1  0  0  0
 14 15  2  0  0  0
 14 93  1  0  0  0
 15 94  1  0  0  0
 16 17  2  0  0  0
 16 21  1  0  0  0
 16 31  1  0  0  0
 17 18  1  0  0  0
 17 95  1  0  0  0
 18 19  2  0  0  0
 18 96  1  0  0  0
 19 20  1  0  0  0
 19 24  1  0  0  0
 20 21  2  0  0  0
 20 97  1  0  0  0
 21 23  1  0  0  0
 22 28  1  0  0  0
 22 32  2  0  0  0
 26 27  1  0  0  0
 28 98  1  0  0  0
 28 99  1  0  0  0
 29100  1  0  0  0
 29101  1  0  0  0
 33 34  1  0  0  0
 33 66  1  0  0  0
 33 70  2  0  0  0
 34 36  1  0  0  0
 34 59  1  0  0  0
 34102  1  0  0  0
 35 44  2  0  0  0
 35 45  1  0  0  0
 35 68  1  0  0  0
 36 56  1  0  0  0
 36103  1  0  0  0
 37 39  1  0  0  0
 37 47  1  0  0  0
 37 66  1  0  0  0
 37104  1  0  0  0
 38 43  2  0  0  0
 38 46  1  0  0  0
 38 47  1  0  0  0
 39 64  1  0  0  0
 39 67  2  0  0  0
 40 52  1  0  0  0
 40 53  2  0  0  0
 40 58  1  0  0  0
 41105  1  0  0  0
 41106  1  0  0  0
 41107  1  0  0  0
 41 48  1  0  0  0
 42 43  1  0  0  0
 42 66  1  0  0  0
 42108  1  0  0  0
 42109  1  0  0  0
 43 44  1  0  0  0
 44110  1  0  0  0
 45 46  2  0  0  0
 45111  1  0  0  0
 46112  1  0  0  0
 47113  1  0  0  0
 47114  1  0  0  0
 48 56  1  0  0  0
 48 65  1  0  0  0
 48115  1  0  0  0
 49 50  1  0  0  0
 49 53  1  0  0  0
 49 64  1  0  0  0
 49116  1  0  0  0
 50 51  1  0  0  0
 50117  1  0  0  0
 50118  1  0  0  0
 51 52  1  0  0  0
 51119  1  0  0  0
 51120  1  0  0  0
 52121  1  0  0  0
 52122  1  0  0  0
 53 54  1  0  0  0
 54 55  2  0  0  0
 54123  1  0  0  0
 55 57  1  0  0  0
 55124  1  0  0  0
 56 69  2  0  0  0
 57 58  2  0  0  0
 57125  1  0  0  0
 58126  1  0  0  0
 59 60  1  0  0  0
 59 61  1  0  0  0
 59 62  1  0  0  0
 60127  1  0  0  0
 60128  1  0  0  0
 60129  1  0  0  0
 61130  1  0  0  0
 61131  1  0  0  0
 61132  1  0  0  0
 62133  1  0  0  0
 62134  1  0  0  0
 62135  1  0  0  0
 63 65  1  0  0  0
 63136  1  0  0  0
 63137  1  0  0  0
 63138  1  0  0  0
 64139  1  0  0  0
 65140  1  0  0  0
 68 75  1  0  0  0
 71 72  2  0  0  0
 71 80  1  0  0  0
 71141  1  0  0  0
 72 75  1  0  0  0
 72 78  1  0  0  0
 73142  1  0  0  0
 73143  1  0  0  0
 73144  1  0  0  0
 73 77  1  0  0  0
 74 77  1  0  0  0
 74145  1  0  0  0
 74146  1  0  0  0
 74147  1  0  0  0
 75148  1  0  0  0
 75149  1  0  0  0
 76 77  1  0  0  0
 76 81  1  0  0  0
 76150  1  0  0  0
 76151  1  0  0  0
 77 80  1  0  0  0
 78 79  2  0  0  0
 79 80  1  0  0  0
 81152  1  0  0  0
M  ISO  4   1 100  68 101  75 101  81 100
M  END
> <chiral flag>
0

> <version>
0

> <s_m_source_file>
/data/baiqing/PycharmProjects/Reinvent-master-3.2/result/LINK_invent/BTK/process_docking_weight1_custom_sum_contain_oxygen_bond_distance_aromatic_linkinvent_7_9_3/rearranged_h_0060.sdf

> <i_m_source_file_index>
47

> <r_mmod_Potential_Energy-OPLS-2005>
644.501342773438

> <r_mmod_Stretch_Energy-OPLS-2005>
330.177825927734

> <r_mmod_Bend_Energy-OPLS-2005>
322.364685058594

> <r_mmod_Torsional_Energy-OPLS-2005>
246.738800048828

> <r_mmod_Improper_Torsional_Energy-OPLS-2005>
6.14030361175537

> <r_mmod_Van_der_Waal_Energy-OPLS-2005>
110.926467895508

> <r_mmod_Electrostatic_Energy-OPLS-2005>
-393.363220214844

> <r_mmod_Solvation_Energy-OPLS-2005>
-238.461639404297

> <b_mmod_Minimization_Converged-OPLS-2005>
0

> <r_mmod_RMS_Derivative-OPLS-2005>
3.74201059341431

$$$$
49
                    3D
 Structure written by MMmdl.
160168  0  0  1  0            999 V2000
  -30.5898  -14.7519   20.4226 C   0  0  0  0  0  0
  -30.4489  -12.4432   19.4649 C   0  0  0  0  0  0
  -29.5139  -12.4643   18.2331 C   0  0  0  0  0  0
  -28.0356  -12.2816   18.6478 C   0  0  0  0  0  0
  -27.6394  -13.1750   19.8511 C   0  0  2  0  0  0
  -28.7000  -13.0929   20.9661 C   0  0  0  0  0  0
  -25.2580  -13.8013   20.5725 C   0  0  0  0  0  0
  -24.1831  -13.0329   20.9251 C   0  0  0  0  0  0
  -24.6337  -11.6808   20.8803 C   0  0  0  0  0  0
  -23.8952  -10.4240   21.0477 C   0  0  0  0  0  0
  -24.3512   -9.4211   21.9280 C   0  0  0  0  0  0
  -23.6233   -8.2229   22.0816 C   0  0  0  0  0  0
  -22.4251   -8.0234   21.3568 C   0  0  0  0  0  0
  -21.9832   -9.0207   20.4718 C   0  0  0  0  0  0
  -22.7110  -10.2116   20.3146 C   0  0  0  0  0  0
  -21.6857   -6.0696   22.5263 C   0  0  0  0  0  0
  -21.4019   -6.5633   23.8190 C   0  0  0  0  0  0
  -21.3647   -5.6800   24.9158 C   0  0  0  0  0  0
  -21.6041   -4.3061   24.7234 C   0  0  0  0  0  0
  -21.8842   -3.8135   23.4366 C   0  0  0  0  0  0
  -21.9216   -4.6927   22.3413 C   0  0  0  0  0  0
  -22.7880  -13.5246   21.1792 C   0  0  0  0  0  0
  -22.1701   -4.2098   21.0992 F   0  0  0  0  0  0
  -21.5614   -3.4566   25.7762 F   0  0  0  0  0  0
  -29.9918  -13.5018   20.3937 N   0  0  0  0  0  0
  -26.2933  -12.9081   20.3349 N   0  0  0  0  0  0
  -25.9258  -11.6292   20.5877 N   0  0  0  0  0  0
  -22.0400  -12.8354   22.0360 N   0  0  0  0  0  0
  -25.4202  -15.1710   20.4073 N   0  0  0  0  0  0
  -31.8000  -14.8054   20.1896 O   0  0  0  0  0  0
  -21.6683   -6.8795   21.4210 O   0  0  0  0  0  0
  -22.3658  -14.5527   20.6556 O   0  0  0  0  0  0
  -24.6323  -31.8518   23.1958 C   0  0  0  0  0  0
  -25.9155  -32.4748   23.8320 C   0  0  1  0  0  0
  -27.2572  -27.3112   20.1559 C   0  0  0  0  0  0
  -25.5954  -33.8536   24.2293 N   0  0  0  0  0  0
  -23.4324  -30.4696   21.5320 C   0  0  2  0  0  0
  -24.8893  -28.9022   20.1314 C   0  0  0  0  0  0
  -22.7502  -29.4584   22.4867 C   0  0  0  0  0  0
  -18.0299  -28.1435   22.8514 C   0  0  0  0  0  0
  -24.1460  -36.7267   23.2631 C   0  0  0  0  0  0
  -25.9658  -30.7868   21.3605 C   0  0  0  0  0  0
  -26.0504  -29.3985   20.7366 C   0  0  0  0  0  0
  -27.2379  -28.6118   20.7456 C   0  0  0  0  0  0
  -26.0760  -26.8502   19.5411 C   0  0  0  0  0  0
  -24.8998  -27.6294   19.5292 C   0  0  0  0  0  0
  -23.6576  -29.7847   20.1563 C   0  0  0  0  0  0
  -25.4079  -36.3053   24.0339 C   0  0  1  0  0  0
  -20.5896  -28.3714   23.1266 C   0  0  2  0  0  0
  -20.6760  -26.9419   22.5413 C   0  0  0  0  0  0
  -19.5726  -26.6436   21.5207 C   0  0  0  0  0  0
  -18.1922  -26.7983   22.1639 C   0  0  0  0  0  0
  -19.1555  -28.8897   23.2899 C   0  0  0  0  0  0
  -18.9465  -30.1496   23.8927 C   0  0  0  0  0  0
  -17.6460  -30.6620   24.0604 C   0  0  0  0  0  0
  -25.9028  -34.9422   23.5118 C   0  0  0  0  0  0
  -16.5359  -29.9138   23.6332 C   0  0  0  0  0  0
  -16.7285  -28.6566   23.0338 C   0  0  0  0  0  0
  -26.4564  -31.6558   25.0708 C   0  0  0  0  0  0
  -25.3813  -31.3701   26.1457 C   0  0  0  0  0  0
  -27.0415  -30.3008   24.6117 C   0  0  0  0  0  0
  -27.6147  -32.4249   25.7485 C   0  0  0  0  0  0
  -27.5549  -37.1777   24.8487 C   0  0  0  0  0  0
  -21.4198  -29.3070   22.3638 N   0  0  0  0  0  0
  -26.4255  -37.3759   23.9456 N   0  0  0  0  0  0
  -24.6952  -31.0543   22.0880 N   0  0  0  0  0  0
  -23.4201  -28.8097   23.2948 O   0  0  0  0  0  0
  -28.3998  -26.5081   20.1021 O   0  0  0  0  0  0
  -26.5558  -34.8883   22.4670 O   0  0  0  0  0  0
  -23.5484  -32.1264   23.7292 O   0  0  0  0  0  0
  -28.3294  -20.4325   19.9034 C   0  0  0  0  0  0
  -30.1583  -20.1670   21.0274 C   0  0  0  0  0  0
  -29.2509  -21.1722   20.6989 C   0  0  0  0  0  0
  -31.6476  -17.7122   19.3873 C   0  0  0  0  0  0
  -28.8964  -16.2203   19.1593 C   0  0  0  0  0  0
  -28.8885  -16.2011   21.7513 C   0  0  0  0  0  0
  -29.1603  -22.6750   21.1557 C   0  0  0  0  0  0
  -28.6886  -23.8367   20.1682 C   0  0  0  0  0  0
  -28.4383  -25.2497   20.8718 C   0  0  0  0  0  0
  -30.5564  -17.5909   20.4751 C   0  0  2  0  0  0
  -29.7549  -16.1618   20.4591 C   0  0  0  0  0  0
  -28.6512  -19.1418   19.7595 N   0  0  0  0  0  0
  -29.7887  -18.9242   20.4743 N   0  0  0  0  0  0
  -31.4888  -12.5707   19.1616 H   0  0  0  0  0  0
  -30.4142  -11.4696   19.9561 H   0  0  0  0  0  0
  -29.7992  -11.6733   17.5393 H   0  0  0  0  0  0
  -29.6412  -13.3964   17.6814 H   0  0  0  0  0  0
  -27.9050  -11.2347   18.9318 H   0  0  0  0  0  0
  -27.3733  -12.4562   17.7984 H   0  0  0  0  0  0
  -27.6016  -14.1808   19.4747 H   0  0  0  0  0  0
  -28.7579  -12.0680   21.3375 H   0  0  0  0  0  0
  -28.4291  -13.6704   21.8432 H   0  0  0  0  0  0
  -25.2588   -9.5777   22.4935 H   0  0  0  0  0  0
  -23.9971   -7.4646   22.7533 H   0  0  0  0  0  0
  -21.0771   -8.8687   19.9026 H   0  0  0  0  0  0
  -22.3488  -10.9683   19.6333 H   0  0  0  0  0  0
  -21.2032   -7.6152   23.9657 H   0  0  0  0  0  0
  -21.1427   -6.0554   25.9039 H   0  0  0  0  0  0
  -22.0632   -2.7592   23.2898 H   0  0  0  0  0  0
  -22.3904  -12.0071   22.4907 H   0  0  0  0  0  0
  -21.1041  -13.1558   22.2431 H   0  0  0  0  0  0
  -24.6316  -15.8017   20.5061 H   0  0  0  0  0  0
  -26.2544  -15.6203   20.0495 H   0  0  0  0  0  0
  -26.7245  -32.5468   23.1086 H   0  0  0  0  0  0
  -25.0235  -33.9631   25.0533 H   0  0  0  0  0  0
  -22.7351  -31.2926   21.3682 H   0  0  0  0  0  0
  -23.3698  -35.9624   23.3330 H   0  0  0  0  0  0
  -24.3552  -36.8846   22.2037 H   0  0  0  0  0  0
  -23.7203  -37.6482   23.6626 H   0  0  0  0  0  0
  -26.0587  -31.5178   20.5553 H   0  0  0  0  0  0
  -26.8596  -30.8773   21.9683 H   0  0  0  0  0  0
  -28.1340  -28.9814   21.2262 H   0  0  0  0  0  0
  -26.0760  -25.8741   19.0758 H   0  0  0  0  0  0
  -24.0097  -27.2351   19.0579 H   0  0  0  0  0  0
  -23.7970  -30.5449   19.3863 H   0  0  0  0  0  0
  -22.7826  -29.2130   19.8440 H   0  0  0  0  0  0
  -25.1232  -36.1891   25.0820 H   0  0  0  0  0  0
  -21.0025  -28.3299   24.1366 H   0  0  0  0  0  0
  -20.5614  -26.2317   23.3610 H   0  0  0  0  0  0
  -21.6619  -26.7419   22.1203 H   0  0  0  0  0  0
  -19.6835  -25.6352   21.1209 H   0  0  0  0  0  0
  -19.6649  -27.3272   20.6750 H   0  0  0  0  0  0
  -17.4160  -26.6752   21.4072 H   0  0  0  0  0  0
  -18.0330  -26.0135   22.9044 H   0  0  0  0  0  0
  -19.7937  -30.7330   24.2295 H   0  0  0  0  0  0
  -17.5009  -31.6277   24.5236 H   0  0  0  0  0  0
  -15.5356  -30.3048   23.7635 H   0  0  0  0  0  0
  -15.8692  -28.0909   22.6996 H   0  0  0  0  0  0
  -24.6013  -30.7000   25.7849 H   0  0  0  0  0  0
  -24.8984  -32.2866   26.4849 H   0  0  0  0  0  0
  -25.8166  -30.8967   27.0263 H   0  0  0  0  0  0
  -26.2995  -29.6733   24.1190 H   0  0  0  0  0  0
  -27.4217  -29.7287   25.4584 H   0  0  0  0  0  0
  -27.8801  -30.4353   23.9276 H   0  0  0  0  0  0
  -27.2819  -33.3543   26.2093 H   0  0  0  0  0  0
  -28.3972  -32.6761   25.0325 H   0  0  0  0  0  0
  -28.0795  -31.8332   26.5366 H   0  0  0  0  0  0
  -28.2589  -38.0048   24.7491 H   0  0  0  0  0  0
  -28.0995  -36.2575   24.6345 H   0  0  0  0  0  0
  -27.2282  -37.1474   25.8891 H   0  0  0  0  0  0
  -20.9380  -29.8877   21.6905 H   0  0  0  0  0  0
  -26.0123  -38.2831   24.1493 H   0  0  0  0  0  0
  -27.4129  -20.7959   19.4556 H   0  0  0  0  0  0
  -31.0574  -20.2182   21.6291 H   0  0  0  0  0  0
  -32.5510  -17.1797   19.6805 H   0  0  0  0  0  0
  -31.9322  -18.7500   19.2054 H   0  0  0  0  0  0
  -31.3330  -17.3127   18.4262 H   0  0  0  0  0  0
  -29.1848  -17.0342   18.4982 H   0  0  0  0  0  0
  -27.8348  -16.3721   19.3548 H   0  0  0  0  0  0
  -29.0217  -15.3488   18.5221 H   0  0  0  0  0  0
  -28.6561  -17.2146   22.0771 H   0  0  0  0  0  0
  -29.4042  -15.7304   22.5913 H   0  0  0  0  0  0
  -27.9220  -15.7193   21.6452 H   0  0  0  0  0  0
  -30.1160  -22.9921   21.5761 H   0  0  0  0  0  0
  -28.4798  -22.7270   22.0067 H   0  0  0  0  0  0
  -27.7633  -23.5457   19.6699 H   0  0  0  0  0  0
  -29.4301  -23.9478   19.3746 H   0  0  0  0  0  0
  -29.2619  -25.3905   21.5712 H   0  0  0  0  0  0
  -27.5666  -25.1768   21.5206 H   0  0  0  0  0  0
  -31.0929  -17.5933   21.4248 H   0  0  0  0  0  0
  1 25  1  0  0  0
  1 30  2  0  0  0
  1 81  1  0  0  0
  2  3  1  0  0  0
  2 25  1  0  0  0
  2 84  1  0  0  0
  2 85  1  0  0  0
  3  4  1  0  0  0
  3 86  1  0  0  0
  3 87  1  0  0  0
  4  5  1  0  0  0
  4 88  1  0  0  0
  4 89  1  0  0  0
  5  6  1  0  0  0
  5 26  1  0  0  0
  5 90  1  0  0  0
  6 25  1  0  0  0
  6 91  1  0  0  0
  6 92  1  0  0  0
  7  8  2  0  0  0
  7 26  1  0  0  0
  7 29  1  0  0  0
  8  9  1  0  0  0
  8 22  1  0  0  0
  9 10  1  0  0  0
  9 27  2  0  0  0
 10 11  2  0  0  0
 10 15  1  0  0  0
 11 12  1  0  0  0
 11 93  1  0  0  0
 12 13  2  0  0  0
 12 94  1  0  0  0
 13 14  1  0  0  0
 13 31  1  0  0  0
 14 15  2  0  0  0
 14 95  1  0  0  0
 15 96  1  0  0  0
 16 17  2  0  0  0
 16 21  1  0  0  0
 16 31  1  0  0  0
 17 18  1  0  0  0
 17 97  1  0  0  0
 18 19  2  0  0  0
 18 98  1  0  0  0
 19 20  1  0  0  0
 19 24  1  0  0  0
 20 21  2  0  0  0
 20 99  1  0  0  0
 21 23  1  0  0  0
 22 28  1  0  0  0
 22 32  2  0  0  0
 26 27  1  0  0  0
 28100  1  0  0  0
 28101  1  0  0  0
 29102  1  0  0  0
 29103  1  0  0  0
 33 34  1  0  0  0
 33 66  1  0  0  0
 33 70  2  0  0  0
 34 36  1  0  0  0
 34 59  1  0  0  0
 34104  1  0  0  0
 35 44  2  0  0  0
 35 45  1  0  0  0
 35 68  1  0  0  0
 36 56  1  0  0  0
 36105  1  0  0  0
 37 39  1  0  0  0
 37 47  1  0  0  0
 37 66  1  0  0  0
 37106  1  0  0  0
 38 43  2  0  0  0
 38 46  1  0  0  0
 38 47  1  0  0  0
 39 64  1  0  0  0
 39 67  2  0  0  0
 40 52  1  0  0  0
 40 53  2  0  0  0
 40 58  1  0  0  0
 41107  1  0  0  0
 41108  1  0  0  0
 41109  1  0  0  0
 41 48  1  0  0  0
 42 43  1  0  0  0
 42 66  1  0  0  0
 42110  1  0  0  0
 42111  1  0  0  0
 43 44  1  0  0  0
 44112  1  0  0  0
 45 46  2  0  0  0
 45113  1  0  0  0
 46114  1  0  0  0
 47115  1  0  0  0
 47116  1  0  0  0
 48 56  1  0  0  0
 48 65  1  0  0  0
 48117  1  0  0  0
 49 50  1  0  0  0
 49 53  1  0  0  0
 49 64  1  0  0  0
 49118  1  0  0  0
 50 51  1  0  0  0
 50119  1  0  0  0
 50120  1  0  0  0
 51 52  1  0  0  0
 51121  1  0  0  0
 51122  1  0  0  0
 52123  1  0  0  0
 52124  1  0  0  0
 53 54  1  0  0  0
 54 55  2  0  0  0
 54125  1  0  0  0
 55 57  1  0  0  0
 55126  1  0  0  0
 56 69  2  0  0  0
 57 58  2  0  0  0
 57127  1  0  0  0
 58128  1  0  0  0
 59 60  1  0  0  0
 59 61  1  0  0  0
 59 62  1  0  0  0
 60129  1  0  0  0
 60130  1  0  0  0
 60131  1  0  0  0
 61132  1  0  0  0
 61133  1  0  0  0
 61134  1  0  0  0
 62135  1  0  0  0
 62136  1  0  0  0
 62137  1  0  0  0
 63 65  1  0  0  0
 63138  1  0  0  0
 63139  1  0  0  0
 63140  1  0  0  0
 64141  1  0  0  0
 65142  1  0  0  0
 68 79  1  0  0  0
 71 73  1  0  0  0
 71 82  2  0  0  0
 71143  1  0  0  0
 72 73  2  0  0  0
 72 83  1  0  0  0
 72144  1  0  0  0
 73 77  1  0  0  0
 74145  1  0  0  0
 74146  1  0  0  0
 74147  1  0  0  0
 74 80  1  0  0  0
 75148  1  0  0  0
 75149  1  0  0  0
 75150  1  0  0  0
 75 81  1  0  0  0
 76 81  1  0  0  0
 76151  1  0  0  0
 76152  1  0  0  0
 76153  1  0  0  0
 77 78  1  0  0  0
 77154  1  0  0  0
 77155  1  0  0  0
 78 79  1  0  0  0
 78156  1  0  0  0
 78157  1  0  0  0
 79158  1  0  0  0
 79159  1  0  0  0
 80 81  1  0  0  0
 80 83  1  0  0  0
 80160  1  0  0  0
 82 83  1  0  0  0
M  ISO  4   1 100  68 101  79 101  81 100
M  END
> <chiral flag>
0

> <version>
0

> <s_m_source_file>
/data/baiqing/PycharmProjects/Reinvent-master-3.2/result/LINK_invent/BTK/process_docking_weight1_custom_sum_contain_oxygen_bond_distance_aromatic_linkinvent_7_9_3/rearranged_h_0060.sdf

> <i_m_source_file_index>
48

> <r_mmod_Potential_Energy-OPLS-2005>
263.321411132812

> <r_mmod_Stretch_Energy-OPLS-2005>
112.091087341309

> <r_mmod_Bend_Energy-OPLS-2005>
175.245574951172

> <r_mmod_Torsional_Energy-OPLS-2005>
255.429412841797

> <r_mmod_Improper_Torsional_Energy-OPLS-2005>
6.92688417434692

> <r_mmod_Van_der_Waal_Energy-OPLS-2005>
136.388946533203

> <r_mmod_Electrostatic_Energy-OPLS-2005>
-304.663665771484

> <r_mmod_Solvation_Energy-OPLS-2005>
-189.455993652344

> <b_mmod_Minimization_Converged-OPLS-2005>
0

> <r_mmod_RMS_Derivative-OPLS-2005>
6.41224765777588

$$$$
50
                    3D
 Structure written by MMmdl.
161169  0  0  1  0            999 V2000
  -30.7312  -14.5119   20.5755 C   0  0  0  0  0  0
  -30.4158  -12.3360   19.4409 C   0  0  0  0  0  0
  -29.4987  -12.4999   18.2118 C   0  0  0  0  0  0
  -28.0205  -12.3560   18.6192 C   0  0  0  0  0  0
  -27.6554  -13.2119   19.8611 C   0  0  2  0  0  0
  -28.6933  -13.0298   20.9871 C   0  0  0  0  0  0
  -25.2562  -13.8147   20.5656 C   0  0  0  0  0  0
  -24.1824  -13.0426   20.9177 C   0  0  0  0  0  0
  -24.6385  -11.6891   20.8713 C   0  0  0  0  0  0
  -23.9053  -10.4280   21.0402 C   0  0  0  0  0  0
  -24.3604   -9.4196   21.9191 C   0  0  0  0  0  0
  -23.6272   -8.2237   22.0776 C   0  0  0  0  0  0
  -22.4247   -8.0270   21.3563 C   0  0  0  0  0  0
  -21.9879   -9.0247   20.4670 C   0  0  0  0  0  0
  -22.7217  -10.2123   20.3058 C   0  0  0  0  0  0
  -21.6858   -6.0713   22.5276 C   0  0  0  0  0  0
  -21.4022   -6.5622   23.8213 C   0  0  0  0  0  0
  -21.3655   -5.6778   24.9167 C   0  0  0  0  0  0
  -21.6032   -4.3035   24.7229 C   0  0  0  0  0  0
  -21.8821   -3.8134   23.4356 C   0  0  0  0  0  0
  -21.9200   -4.6947   22.3405 C   0  0  0  0  0  0
  -22.7853  -13.5247   21.1820 C   0  0  0  0  0  0
  -22.1673   -4.2127   21.0986 F   0  0  0  0  0  0
  -21.5625   -3.4528   25.7751 F   0  0  0  0  0  0
  -30.0198  -13.3506   20.4363 N   0  0  0  0  0  0
  -26.2989  -12.9330   20.3281 N   0  0  0  0  0  0
  -25.9305  -11.6488   20.5721 N   0  0  0  0  0  0
  -22.0465  -12.8284   22.0382 N   0  0  0  0  0  0
  -25.4263  -15.1860   20.4061 N   0  0  0  0  0  0
  -31.8616  -14.6201   20.0863 O   0  0  0  0  0  0
  -21.6623   -6.8861   21.4247 O   0  0  0  0  0  0
  -22.3566  -14.5555   20.6663 O   0  0  0  0  0  0
  -24.6165  -31.8676   23.2106 C   0  0  0  0  0  0
  -25.9057  -32.4818   23.8399 C   0  0  1  0  0  0
  -27.2191  -27.4151   20.0887 C   0  0  0  0  0  0
  -25.5904  -33.8620   24.2329 N   0  0  0  0  0  0
  -23.4037  -30.4944   21.5517 C   0  0  2  0  0  0
  -24.8461  -28.9657   20.1106 C   0  0  0  0  0  0
  -22.7424  -29.4651   22.4970 C   0  0  0  0  0  0
  -18.0268  -28.1382   22.8496 C   0  0  0  0  0  0
  -24.1481  -36.7315   23.2636 C   0  0  0  0  0  0
  -25.9358  -30.8285   21.3655 C   0  0  0  0  0  0
  -26.0105  -29.4633   20.7092 C   0  0  0  0  0  0
  -27.1999  -28.6954   20.6955 C   0  0  0  0  0  0
  -26.0374  -26.9506   19.4642 C   0  0  0  0  0  0
  -24.8561  -27.7110   19.4829 C   0  0  0  0  0  0
  -23.6125  -29.8366   20.1629 C   0  0  0  0  0  0
  -25.4101  -36.3109   24.0337 C   0  0  1  0  0  0
  -20.5863  -28.3666   23.1319 C   0  0  2  0  0  0
  -20.6753  -26.9398   22.5422 C   0  0  0  0  0  0
  -19.5727  -26.6387   21.5220 C   0  0  0  0  0  0
  -18.1909  -26.7924   22.1633 C   0  0  0  0  0  0
  -19.1520  -28.8836   23.2905 C   0  0  0  0  0  0
  -18.9448  -30.1442   23.8922 C   0  0  0  0  0  0
  -17.6452  -30.6584   24.0567 C   0  0  0  0  0  0
  -25.9031  -34.9475   23.5125 C   0  0  0  0  0  0
  -16.5343  -29.9097   23.6318 C   0  0  0  0  0  0
  -16.7261  -28.6508   23.0347 C   0  0  0  0  0  0
  -26.4479  -31.6599   25.0732 C   0  0  0  0  0  0
  -25.3754  -31.3725   26.1490 C   0  0  0  0  0  0
  -27.0292  -30.3033   24.6102 C   0  0  0  0  0  0
  -27.6051  -32.4319   25.7495 C   0  0  0  0  0  0
  -27.5572  -37.1812   24.8464 C   0  0  0  0  0  0
  -21.4140  -29.3040   22.3730 N   0  0  0  0  0  0
  -26.4284  -37.3798   23.9412 N   0  0  0  0  0  0
  -24.6709  -31.0781   22.1008 N   0  0  0  0  0  0
  -23.4199  -28.8169   23.2987 O   0  0  0  0  0  0
  -28.3698  -26.6468   20.1269 O   0  0  0  0  0  0
  -26.5594  -34.8926   22.4686 O   0  0  0  0  0  0
  -23.5353  -32.1426   23.7497 O   0  0  0  0  0  0
  -30.0270  -22.0318   19.8947 C   0  0  0  0  0  0
  -29.2572  -22.9172   20.5987 C   0  0  0  0  0  0
  -28.1798  -17.7756   19.7500 C   0  0  0  0  0  0
  -30.2874  -19.4175   18.3320 C   0  0  0  0  0  0
  -29.7251  -15.7324   22.4377 C   0  0  0  0  0  0
  -29.3529  -24.4357   20.6751 C   0  0  0  0  0  0
  -30.5126  -16.9557   20.4571 C   0  0  0  0  0  0
  -28.2128  -25.2146   19.9856 C   0  0  0  0  0  0
  -29.4939  -18.1506   20.4603 C   0  0  1  0  0  0
  -30.1541  -19.4606   19.8706 C   0  0  2  0  0  0
  -28.3741  -22.1638   21.3771 N   0  0  0  0  0  0
  -28.5797  -20.8906   21.1788 N   0  0  0  0  0  0
  -29.5828  -20.7693   20.2705 N   0  0  0  0  0  0
  -30.0836  -15.6367   21.0157 N   0  0  0  0  0  0
  -31.4614  -12.4159   19.1402 H   0  0  0  0  0  0
  -30.3124  -11.3373   19.8667 H   0  0  0  0  0  0
  -29.7515  -11.7568   17.4533 H   0  0  0  0  0  0
  -29.6653  -13.4754   17.7533 H   0  0  0  0  0  0
  -27.8420  -11.3020   18.8333 H   0  0  0  0  0  0
  -27.3696  -12.6073   17.7818 H   0  0  0  0  0  0
  -27.6915  -14.2539   19.5431 H   0  0  0  0  0  0
  -28.6799  -12.0018   21.3535 H   0  0  0  0  0  0
  -28.4196  -13.6425   21.8409 H   0  0  0  0  0  0
  -25.2755   -9.5674   22.4757 H   0  0  0  0  0  0
  -23.9979   -7.4632   22.7499 H   0  0  0  0  0  0
  -21.0809   -8.8771   19.8983 H   0  0  0  0  0  0
  -22.3685  -10.9659   19.6159 H   0  0  0  0  0  0
  -21.2022   -7.6124   23.9718 H   0  0  0  0  0  0
  -21.1478   -6.0495   25.9070 H   0  0  0  0  0  0
  -22.0605   -2.7599   23.2862 H   0  0  0  0  0  0
  -22.4067  -11.9971   22.4814 H   0  0  0  0  0  0
  -21.1094  -13.1373   22.2556 H   0  0  0  0  0  0
  -24.6592  -15.8388   20.5185 H   0  0  0  0  0  0
  -26.2792  -15.6243   20.0834 H   0  0  0  0  0  0
  -26.7125  -32.5523   23.1161 H   0  0  0  0  0  0
  -25.0065  -33.9785   25.0477 H   0  0  0  0  0  0
  -22.6924  -31.3115   21.4173 H   0  0  0  0  0  0
  -23.3732  -35.9658   23.3310 H   0  0  0  0  0  0
  -24.3574  -36.8917   22.2048 H   0  0  0  0  0  0
  -23.7244  -37.6529   23.6641 H   0  0  0  0  0  0
  -26.0504  -31.5947   20.5979 H   0  0  0  0  0  0
  -26.8229  -30.8804   21.9845 H   0  0  0  0  0  0
  -28.0966  -29.0730   21.1679 H   0  0  0  0  0  0
  -26.0080  -26.0006   18.9509 H   0  0  0  0  0  0
  -23.9641  -27.3298   19.0065 H   0  0  0  0  0  0
  -23.7296  -30.6171   19.4095 H   0  0  0  0  0  0
  -22.7335  -29.2652   19.8580 H   0  0  0  0  0  0
  -25.1275  -36.1973   25.0829 H   0  0  0  0  0  0
  -20.9960  -28.3229   24.1437 H   0  0  0  0  0  0
  -20.5653  -26.2272   23.3612 H   0  0  0  0  0  0
  -21.6623  -26.7432   22.1216 H   0  0  0  0  0  0
  -19.6882  -25.6304   21.1236 H   0  0  0  0  0  0
  -19.6663  -27.3208   20.6759 H   0  0  0  0  0  0
  -17.4178  -26.6672   21.4041 H   0  0  0  0  0  0
  -18.0306  -26.0072   22.9033 H   0  0  0  0  0  0
  -19.7927  -30.7244   24.2313 H   0  0  0  0  0  0
  -17.5012  -31.6269   24.5166 H   0  0  0  0  0  0
  -15.5346  -30.3011   23.7624 H   0  0  0  0  0  0
  -15.8657  -28.0841   22.7053 H   0  0  0  0  0  0
  -24.5910  -30.7081   25.7848 H   0  0  0  0  0  0
  -24.8973  -32.2896   26.4944 H   0  0  0  0  0  0
  -25.8126  -30.8900   27.0242 H   0  0  0  0  0  0
  -26.2830  -29.6817   24.1143 H   0  0  0  0  0  0
  -27.4035  -29.7250   25.4557 H   0  0  0  0  0  0
  -27.8680  -30.4329   23.9260 H   0  0  0  0  0  0
  -27.2660  -33.3606   26.2093 H   0  0  0  0  0  0
  -28.3859  -32.6900   25.0330 H   0  0  0  0  0  0
  -28.0719  -31.8434   26.5403 H   0  0  0  0  0  0
  -28.2603  -38.0097   24.7500 H   0  0  0  0  0  0
  -28.1056  -36.2630   24.6300 H   0  0  0  0  0  0
  -27.2294  -37.1480   25.8870 H   0  0  0  0  0  0
  -20.9291  -29.8830   21.7019 H   0  0  0  0  0  0
  -26.0168  -38.2871   24.1427 H   0  0  0  0  0  0
  -30.8491  -22.1882   19.2065 H   0  0  0  0  0  0
  -27.6526  -16.9958   20.2962 H   0  0  0  0  0  0
  -28.3602  -17.4015   18.7416 H   0  0  0  0  0  0
  -27.5060  -18.6294   19.6696 H   0  0  0  0  0  0
  -29.3235  -19.5691   17.8450 H   0  0  0  0  0  0
  -30.6929  -18.4731   17.9752 H   0  0  0  0  0  0
  -30.9579  -20.1981   17.9725 H   0  0  0  0  0  0
  -28.6507  -15.8867   22.5462 H   0  0  0  0  0  0
  -30.2330  -16.5636   22.9255 H   0  0  0  0  0  0
  -29.9966  -14.8378   23.0017 H   0  0  0  0  0  0
  -30.3004  -24.7686   20.2529 H   0  0  0  0  0  0
  -29.3786  -24.7411   21.7214 H   0  0  0  0  0  0
  -31.4192  -17.2614   20.9819 H   0  0  0  0  0  0
  -30.8189  -16.7989   19.4219 H   0  0  0  0  0  0
  -27.2793  -24.8791   20.4411 H   0  0  0  0  0  0
  -28.1706  -24.9590   18.9259 H   0  0  0  0  0  0
  -29.2520  -18.3498   21.5052 H   0  0  0  0  0  0
  -31.1704  -19.4802   20.2670 H   0  0  0  0  0  0
  1 25  1  0  0  0
  1 30  2  0  0  0
  1 84  1  0  0  0
  2  3  1  0  0  0
  2 25  1  0  0  0
  2 85  1  0  0  0
  2 86  1  0  0  0
  3  4  1  0  0  0
  3 87  1  0  0  0
  3 88  1  0  0  0
  4  5  1  0  0  0
  4 89  1  0  0  0
  4 90  1  0  0  0
  5  6  1  0  0  0
  5 26  1  0  0  0
  5 91  1  0  0  0
  6 25  1  0  0  0
  6 92  1  0  0  0
  6 93  1  0  0  0
  7  8  2  0  0  0
  7 26  1  0  0  0
  7 29  1  0  0  0
  8  9  1  0  0  0
  8 22  1  0  0  0
  9 10  1  0  0  0
  9 27  2  0  0  0
 10 11  2  0  0  0
 10 15  1  0  0  0
 11 12  1  0  0  0
 11 94  1  0  0  0
 12 13  2  0  0  0
 12 95  1  0  0  0
 13 14  1  0  0  0
 13 31  1  0  0  0
 14 15  2  0  0  0
 14 96  1  0  0  0
 15 97  1  0  0  0
 16 17  2  0  0  0
 16 21  1  0  0  0
 16 31  1  0  0  0
 17 18  1  0  0  0
 17 98  1  0  0  0
 18 19  2  0  0  0
 18 99  1  0  0  0
 19 20  1  0  0  0
 19 24  1  0  0  0
 20 21  2  0  0  0
 20100  1  0  0  0
 21 23  1  0  0  0
 22 28  1  0  0  0
 22 32  2  0  0  0
 26 27  1  0  0  0
 28101  1  0  0  0
 28102  1  0  0  0
 29103  1  0  0  0
 29104  1  0  0  0
 33 34  1  0  0  0
 33 66  1  0  0  0
 33 70  2  0  0  0
 34 36  1  0  0  0
 34 59  1  0  0  0
 34105  1  0  0  0
 35 44  2  0  0  0
 35 45  1  0  0  0
 35 68  1  0  0  0
 36 56  1  0  0  0
 36106  1  0  0  0
 37 39  1  0  0  0
 37 47  1  0  0  0
 37 66  1  0  0  0
 37107  1  0  0  0
 38 43  2  0  0  0
 38 46  1  0  0  0
 38 47  1  0  0  0
 39 64  1  0  0  0
 39 67  2  0  0  0
 40 52  1  0  0  0
 40 53  2  0  0  0
 40 58  1  0  0  0
 41108  1  0  0  0
 41109  1  0  0  0
 41110  1  0  0  0
 41 48  1  0  0  0
 42 43  1  0  0  0
 42 66  1  0  0  0
 42111  1  0  0  0
 42112  1  0  0  0
 43 44  1  0  0  0
 44113  1  0  0  0
 45 46  2  0  0  0
 45114  1  0  0  0
 46115  1  0  0  0
 47116  1  0  0  0
 47117  1  0  0  0
 48 56  1  0  0  0
 48 65  1  0  0  0
 48118  1  0  0  0
 49 50  1  0  0  0
 49 53  1  0  0  0
 49 64  1  0  0  0
 49119  1  0  0  0
 50 51  1  0  0  0
 50120  1  0  0  0
 50121  1  0  0  0
 51 52  1  0  0  0
 51122  1  0  0  0
 51123  1  0  0  0
 52124  1  0  0  0
 52125  1  0  0  0
 53 54  1  0  0  0
 54 55  2  0  0  0
 54126  1  0  0  0
 55 57  1  0  0  0
 55127  1  0  0  0
 56 69  2  0  0  0
 57 58  2  0  0  0
 57128  1  0  0  0
 58129  1  0  0  0
 59 60  1  0  0  0
 59 61  1  0  0  0
 59 62  1  0  0  0
 60130  1  0  0  0
 60131  1  0  0  0
 60132  1  0  0  0
 61133  1  0  0  0
 61134  1  0  0  0
 61135  1  0  0  0
 62136  1  0  0  0
 62137  1  0  0  0
 62138  1  0  0  0
 63 65  1  0  0  0
 63139  1  0  0  0
 63140  1  0  0  0
 63141  1  0  0  0
 64142  1  0  0  0
 65143  1  0  0  0
 68 78  1  0  0  0
 71 72  2  0  0  0
 71 83  1  0  0  0
 71144  1  0  0  0
 72 76  1  0  0  0
 72 81  1  0  0  0
 73145  1  0  0  0
 73146  1  0  0  0
 73147  1  0  0  0
 73 79  1  0  0  0
 74148  1  0  0  0
 74149  1  0  0  0
 74150  1  0  0  0
 74 80  1  0  0  0
 75 84  1  0  0  0
 75151  1  0  0  0
 75152  1  0  0  0
 75153  1  0  0  0
 76 78  1  0  0  0
 76154  1  0  0  0
 76155  1  0  0  0
 77 79  1  0  0  0
 77 84  1  0  0  0
 77156  1  0  0  0
 77157  1  0  0  0
 78158  1  0  0  0
 78159  1  0  0  0
 79 80  1  0  0  0
 79160  1  0  0  0
 80 83  1  0  0  0
 80161  1  0  0  0
 81 82  2  0  0  0
 82 83  1  0  0  0
M  ISO  4   1 100  68 101  78 101  84 100
M  END
> <chiral flag>
0

> <version>
0

> <s_m_source_file>
/data/baiqing/PycharmProjects/Reinvent-master-3.2/result/LINK_invent/BTK/process_docking_weight1_custom_sum_contain_oxygen_bond_distance_aromatic_linkinvent_7_9_3/rearranged_h_0060.sdf

> <i_m_source_file_index>
49

> <r_mmod_Potential_Energy-OPLS-2005>
117.683090209961

> <r_mmod_Stretch_Energy-OPLS-2005>
49.1599311828613

> <r_mmod_Bend_Energy-OPLS-2005>
120.342330932617

> <r_mmod_Torsional_Energy-OPLS-2005>
290.374237060547

> <r_mmod_Improper_Torsional_Energy-OPLS-2005>
10.0282545089722

> <r_mmod_Van_der_Waal_Energy-OPLS-2005>
137.53532409668

> <r_mmod_Electrostatic_Energy-OPLS-2005>
-304.850952148438

> <r_mmod_Solvation_Energy-OPLS-2005>
-204.153839111328

> <b_mmod_Minimization_Converged-OPLS-2005>
0

> <r_mmod_RMS_Derivative-OPLS-2005>
2.6378059387207

$$$$
52
                    3D
 Structure written by MMmdl.
163171  0  0  1  0            999 V2000
  -30.6881  -14.4896   20.5430 C   0  0  0  0  0  0
  -30.4166  -12.3054   19.4434 C   0  0  0  0  0  0
  -29.5029  -12.5025   18.2158 C   0  0  0  0  0  0
  -28.0200  -12.3696   18.6155 C   0  0  0  0  0  0
  -27.6592  -13.2109   19.8700 C   0  0  2  0  0  0
  -28.6947  -13.0136   21.0006 C   0  0  0  0  0  0
  -25.2586  -13.8177   20.5694 C   0  0  0  0  0  0
  -24.1841  -13.0446   20.9176 C   0  0  0  0  0  0
  -24.6388  -11.6918   20.8702 C   0  0  0  0  0  0
  -23.9053  -10.4304   21.0353 C   0  0  0  0  0  0
  -24.3617   -9.4224   21.9135 C   0  0  0  0  0  0
  -23.6318   -8.2246   22.0717 C   0  0  0  0  0  0
  -22.4293   -8.0272   21.3518 C   0  0  0  0  0  0
  -21.9907   -9.0230   20.4616 C   0  0  0  0  0  0
  -22.7214  -10.2127   20.3008 C   0  0  0  0  0  0
  -21.6865   -6.0738   22.5276 C   0  0  0  0  0  0
  -21.4018   -6.5643   23.8209 C   0  0  0  0  0  0
  -21.3661   -5.6792   24.9170 C   0  0  0  0  0  0
  -21.6046   -4.3057   24.7214 C   0  0  0  0  0  0
  -21.8829   -3.8148   23.4336 C   0  0  0  0  0  0
  -21.9212   -4.6964   22.3398 C   0  0  0  0  0  0
  -22.7863  -13.5235   21.1847 C   0  0  0  0  0  0
  -22.1681   -4.2150   21.0977 F   0  0  0  0  0  0
  -21.5623   -3.4537   25.7724 F   0  0  0  0  0  0
  -30.0263  -13.3048   20.4514 N   0  0  0  0  0  0
  -26.3001  -12.9342   20.3301 N   0  0  0  0  0  0
  -25.9308  -11.6496   20.5700 N   0  0  0  0  0  0
  -22.0526  -12.8213   22.0408 N   0  0  0  0  0  0
  -25.4346  -15.1898   20.4151 N   0  0  0  0  0  0
  -31.8346  -14.6421   20.1142 O   0  0  0  0  0  0
  -21.6660   -6.8870   21.4228 O   0  0  0  0  0  0
  -22.3541  -14.5539   20.6699 O   0  0  0  0  0  0
  -24.6171  -31.8659   23.2059 C   0  0  0  0  0  0
  -25.9065  -32.4806   23.8345 C   0  0  1  0  0  0
  -27.2400  -27.4227   20.1140 C   0  0  0  0  0  0
  -25.5926  -33.8605   24.2286 N   0  0  0  0  0  0
  -23.4051  -30.4859   21.5467 C   0  0  2  0  0  0
  -24.8510  -28.9381   20.1216 C   0  0  0  0  0  0
  -22.7387  -29.4674   22.4987 C   0  0  0  0  0  0
  -18.0282  -28.1367   22.8502 C   0  0  0  0  0  0
  -24.1496  -36.7329   23.2631 C   0  0  0  0  0  0
  -25.9310  -30.8269   21.3580 C   0  0  0  0  0  0
  -26.0085  -29.4555   20.7161 C   0  0  0  0  0  0
  -27.2059  -28.7050   20.7080 C   0  0  0  0  0  0
  -26.0715  -26.9170   19.5104 C   0  0  0  0  0  0
  -24.8760  -27.6661   19.5169 C   0  0  0  0  0  0
  -23.6132  -29.8079   20.1649 C   0  0  0  0  0  0
  -25.4120  -36.3109   24.0322 C   0  0  1  0  0  0
  -20.5855  -28.3680   23.1302 C   0  0  2  0  0  0
  -20.6779  -26.9413   22.5413 C   0  0  0  0  0  0
  -19.5770  -26.6390   21.5201 C   0  0  0  0  0  0
  -18.1940  -26.7918   22.1611 C   0  0  0  0  0  0
  -19.1518  -28.8832   23.2893 C   0  0  0  0  0  0
  -18.9451  -30.1443   23.8904 C   0  0  0  0  0  0
  -17.6462  -30.6571   24.0566 C   0  0  0  0  0  0
  -25.9060  -34.9483   23.5098 C   0  0  0  0  0  0
  -16.5347  -29.9081   23.6309 C   0  0  0  0  0  0
  -16.7265  -28.6495   23.0347 C   0  0  0  0  0  0
  -26.4481  -31.6588   25.0681 C   0  0  0  0  0  0
  -25.3759  -31.3704   26.1432 C   0  0  0  0  0  0
  -27.0287  -30.3025   24.6061 C   0  0  0  0  0  0
  -27.6056  -32.4303   25.7453 C   0  0  0  0  0  0
  -27.5583  -37.1800   24.8451 C   0  0  0  0  0  0
  -21.4117  -29.3050   22.3705 N   0  0  0  0  0  0
  -26.4290  -37.3813   23.9415 N   0  0  0  0  0  0
  -24.6692  -31.0751   22.0959 N   0  0  0  0  0  0
  -23.4139  -28.8233   23.3057 O   0  0  0  0  0  0
  -28.4232  -26.7196   20.0501 O   0  0  0  0  0  0
  -26.5613  -34.8938   22.4656 O   0  0  0  0  0  0
  -23.5365  -32.1397   23.7476 O   0  0  0  0  0  0
  -29.7406  -22.6879   21.5075 C   0  0  0  0  0  0
  -28.7921  -22.9325   20.5409 C   0  0  0  0  0  0
  -29.3442  -20.7432   20.4944 C   0  0  0  0  0  0
  -26.9215  -21.1335   16.5114 C   0  0  0  0  0  0
  -28.1635  -24.2247   20.0413 C   0  0  0  0  0  0
  -29.5941  -19.3341   19.9843 C   0  0  0  0  0  0
  -28.0233  -21.4192   17.5392 C   0  0  0  0  0  0
  -29.5021  -18.1268   20.9605 C   0  0  0  0  0  0
  -27.4878  -21.3879   18.9781 C   0  0  0  0  0  0
  -30.2147  -16.8994   20.3221 C   0  0  0  0  0  0
  -28.5373  -25.5132   20.8230 C   0  0  0  0  0  0
  -28.5142  -21.6882   19.9926 N   0  0  0  0  0  0
  -30.0556  -21.3548   21.4448 N   0  3  0  0  0  0
  -29.9382  -15.5627   20.8860 N   0  0  0  0  0  0
  -31.4651  -12.3933   19.1551 H   0  0  0  0  0  0
  -30.3019  -11.2994   19.8484 H   0  0  0  0  0  0
  -29.7502  -11.7761   17.4414 H   0  0  0  0  0  0
  -29.6825  -13.4868   17.7800 H   0  0  0  0  0  0
  -27.8240  -11.3152   18.8100 H   0  0  0  0  0  0
  -27.3797  -12.6458   17.7762 H   0  0  0  0  0  0
  -27.6989  -14.2568   19.5644 H   0  0  0  0  0  0
  -28.6644  -11.9861   21.3687 H   0  0  0  0  0  0
  -28.4587  -13.6445   21.8583 H   0  0  0  0  0  0
  -25.2746   -9.5742   22.4718 H   0  0  0  0  0  0
  -24.0045   -7.4653   22.7436 H   0  0  0  0  0  0
  -21.0831   -8.8723   19.8940 H   0  0  0  0  0  0
  -22.3618  -10.9659   19.6138 H   0  0  0  0  0  0
  -21.1994   -7.6145   23.9709 H   0  0  0  0  0  0
  -21.1477   -6.0518   25.9081 H   0  0  0  0  0  0
  -22.0607   -2.7604   23.2833 H   0  0  0  0  0  0
  -22.4188  -11.9902   22.4801 H   0  0  0  0  0  0
  -21.1115  -13.1177   22.2582 H   0  0  0  0  0  0
  -24.6656  -15.8455   20.5073 H   0  0  0  0  0  0
  -26.2839  -15.6212   20.0741 H   0  0  0  0  0  0
  -26.7130  -32.5526   23.1103 H   0  0  0  0  0  0
  -25.0125  -33.9767   25.0459 H   0  0  0  0  0  0
  -22.6951  -31.3026   21.4026 H   0  0  0  0  0  0
  -23.3760  -35.9657   23.3277 H   0  0  0  0  0  0
  -24.3607  -36.8976   22.2050 H   0  0  0  0  0  0
  -23.7231  -37.6521   23.6659 H   0  0  0  0  0  0
  -26.0402  -31.5873   20.5831 H   0  0  0  0  0  0
  -26.8189  -30.8837   21.9753 H   0  0  0  0  0  0
  -28.1044  -29.1046   21.1569 H   0  0  0  0  0  0
  -26.0848  -25.9546   19.0192 H   0  0  0  0  0  0
  -23.9915  -27.2589   19.0497 H   0  0  0  0  0  0
  -23.7225  -30.5776   19.3998 H   0  0  0  0  0  0
  -22.7355  -29.2308   19.8709 H   0  0  0  0  0  0
  -25.1296  -36.1952   25.0811 H   0  0  0  0  0  0
  -20.9952  -28.3254   24.1415 H   0  0  0  0  0  0
  -20.5689  -26.2282   23.3596 H   0  0  0  0  0  0
  -21.6655  -26.7478   22.1196 H   0  0  0  0  0  0
  -19.6952  -25.6302   21.1235 H   0  0  0  0  0  0
  -19.6720  -27.3182   20.6711 H   0  0  0  0  0  0
  -17.4214  -26.6657   21.4006 H   0  0  0  0  0  0
  -18.0360  -26.0028   22.8979 H   0  0  0  0  0  0
  -19.7942  -30.7256   24.2245 H   0  0  0  0  0  0
  -17.5028  -31.6246   24.5187 H   0  0  0  0  0  0
  -15.5355  -30.3003   23.7632 H   0  0  0  0  0  0
  -15.8663  -28.0829   22.7053 H   0  0  0  0  0  0
  -24.5916  -30.7073   25.7763 H   0  0  0  0  0  0
  -24.8971  -32.2865   26.4902 H   0  0  0  0  0  0
  -25.8110  -30.8845   27.0173 H   0  0  0  0  0  0
  -26.2784  -29.6804   24.1151 H   0  0  0  0  0  0
  -27.4073  -29.7260   25.4515 H   0  0  0  0  0  0
  -27.8637  -30.4340   23.9172 H   0  0  0  0  0  0
  -27.2646  -33.3580   26.2068 H   0  0  0  0  0  0
  -28.3823  -32.6896   25.0246 H   0  0  0  0  0  0
  -28.0752  -31.8404   26.5337 H   0  0  0  0  0  0
  -28.2570  -38.0126   24.7535 H   0  0  0  0  0  0
  -28.1090  -36.2656   24.6196 H   0  0  0  0  0  0
  -27.2304  -37.1347   25.8851 H   0  0  0  0  0  0
  -20.9259  -29.8743   21.6912 H   0  0  0  0  0  0
  -26.0177  -38.2890   24.1427 H   0  0  0  0  0  0
  -30.2462  -23.3555   22.1919 H   0  0  0  0  0  0
  -27.3475  -20.9629   15.5238 H   0  0  0  0  0  0
  -26.2269  -21.9714   16.4267 H   0  0  0  0  0  0
  -26.3448  -20.2483   16.7829 H   0  0  0  0  0  0
  -27.0807  -24.1162   20.0434 H   0  0  0  0  0  0
  -28.4688  -24.3486   19.0008 H   0  0  0  0  0  0
  -30.5994  -19.3844   19.5634 H   0  0  0  0  0  0
  -28.9377  -19.1493   19.1365 H   0  0  0  0  0  0
  -28.4724  -22.3917   17.3329 H   0  0  0  0  0  0
  -28.8191  -20.6840   17.4189 H   0  0  0  0  0  0
  -28.4534  -17.9189   21.1817 H   0  0  0  0  0  0
  -29.9846  -18.3635   21.9096 H   0  0  0  0  0  0
  -27.0526  -20.4148   19.2127 H   0  0  0  0  0  0
  -26.6752  -22.1069   19.0918 H   0  0  0  0  0  0
  -31.2883  -17.0942   20.3317 H   0  0  0  0  0  0
  -29.9345  -16.8438   19.2681 H   0  0  0  0  0  0
  -29.5901  -25.4671   21.1006 H   0  0  0  0  0  0
  -27.9809  -25.5809   21.7602 H   0  0  0  0  0  0
  -30.7714  -20.9078   22.0050 H   0  0  0  0  0  0
  -29.0063  -15.3761   21.2266 H   0  0  0  0  0  0
  1 25  1  0  0  0
  1 30  2  0  0  0
  1 84  1  0  0  0
  2  3  1  0  0  0
  2 25  1  0  0  0
  2 85  1  0  0  0
  2 86  1  0  0  0
  3  4  1  0  0  0
  3 87  1  0  0  0
  3 88  1  0  0  0
  4  5  1  0  0  0
  4 89  1  0  0  0
  4 90  1  0  0  0
  5  6  1  0  0  0
  5 26  1  0  0  0
  5 91  1  0  0  0
  6 25  1  0  0  0
  6 92  1  0  0  0
  6 93  1  0  0  0
  7  8  2  0  0  0
  7 26  1  0  0  0
  7 29  1  0  0  0
  8  9  1  0  0  0
  8 22  1  0  0  0
  9 10  1  0  0  0
  9 27  2  0  0  0
 10 11  2  0  0  0
 10 15  1  0  0  0
 11 12  1  0  0  0
 11 94  1  0  0  0
 12 13  2  0  0  0
 12 95  1  0  0  0
 13 14  1  0  0  0
 13 31  1  0  0  0
 14 15  2  0  0  0
 14 96  1  0  0  0
 15 97  1  0  0  0
 16 17  2  0  0  0
 16 21  1  0  0  0
 16 31  1  0  0  0
 17 18  1  0  0  0
 17 98  1  0  0  0
 18 19  2  0  0  0
 18 99  1  0  0  0
 19 20  1  0  0  0
 19 24  1  0  0  0
 20 21  2  0  0  0
 20100  1  0  0  0
 21 23  1  0  0  0
 22 28  1  0  0  0
 22 32  2  0  0  0
 26 27  1  0  0  0
 28101  1  0  0  0
 28102  1  0  0  0
 29103  1  0  0  0
 29104  1  0  0  0
 33 34  1  0  0  0
 33 66  1  0  0  0
 33 70  2  0  0  0
 34 36  1  0  0  0
 34 59  1  0  0  0
 34105  1  0  0  0
 35 44  2  0  0  0
 35 45  1  0  0  0
 35 68  1  0  0  0
 36 56  1  0  0  0
 36106  1  0  0  0
 37 39  1  0  0  0
 37 47  1  0  0  0
 37 66  1  0  0  0
 37107  1  0  0  0
 38 43  2  0  0  0
 38 46  1  0  0  0
 38 47  1  0  0  0
 39 64  1  0  0  0
 39 67  2  0  0  0
 40 52  1  0  0  0
 40 53  2  0  0  0
 40 58  1  0  0  0
 41108  1  0  0  0
 41109  1  0  0  0
 41110  1  0  0  0
 41 48  1  0  0  0
 42 43  1  0  0  0
 42 66  1  0  0  0
 42111  1  0  0  0
 42112  1  0  0  0
 43 44  1  0  0  0
 44113  1  0  0  0
 45 46  2  0  0  0
 45114  1  0  0  0
 46115  1  0  0  0
 47116  1  0  0  0
 47117  1  0  0  0
 48 56  1  0  0  0
 48 65  1  0  0  0
 48118  1  0  0  0
 49 50  1  0  0  0
 49 53  1  0  0  0
 49 64  1  0  0  0
 49119  1  0  0  0
 50 51  1  0  0  0
 50120  1  0  0  0
 50121  1  0  0  0
 51 52  1  0  0  0
 51122  1  0  0  0
 51123  1  0  0  0
 52124  1  0  0  0
 52125  1  0  0  0
 53 54  1  0  0  0
 54 55  2  0  0  0
 54126  1  0  0  0
 55 57  1  0  0  0
 55127  1  0  0  0
 56 69  2  0  0  0
 57 58  2  0  0  0
 57128  1  0  0  0
 58129  1  0  0  0
 59 60  1  0  0  0
 59 61  1  0  0  0
 59 62  1  0  0  0
 60130  1  0  0  0
 60131  1  0  0  0
 60132  1  0  0  0
 61133  1  0  0  0
 61134  1  0  0  0
 61135  1  0  0  0
 62136  1  0  0  0
 62137  1  0  0  0
 62138  1  0  0  0
 63 65  1  0  0  0
 63139  1  0  0  0
 63140  1  0  0  0
 63141  1  0  0  0
 64142  1  0  0  0
 65143  1  0  0  0
 68 81  1  0  0  0
 71 72  2  0  0  0
 71 83  1  0  0  0
 71144  1  0  0  0
 72 75  1  0  0  0
 72 82  1  0  0  0
 73 76  1  0  0  0
 73 82  1  0  0  0
 73 83  2  0  0  0
 74 77  1  0  0  0
 74145  1  0  0  0
 74146  1  0  0  0
 74147  1  0  0  0
 75 81  1  0  0  0
 75148  1  0  0  0
 75149  1  0  0  0
 76 78  1  0  0  0
 76150  1  0  0  0
 76151  1  0  0  0
 77 79  1  0  0  0
 77152  1  0  0  0
 77153  1  0  0  0
 78 80  1  0  0  0
 78154  1  0  0  0
 78155  1  0  0  0
 79 82  1  0  0  0
 79156  1  0  0  0
 79157  1  0  0  0
 80 84  1  0  0  0
 80158  1  0  0  0
 80159  1  0  0  0
 81160  1  0  0  0
 81161  1  0  0  0
 83162  1  0  0  0
 84163  1  0  0  0
M  CHG  1  83   1
M  ISO  4   1 100  68 101  81 101  84 100
M  END
> <chiral flag>
0

> <version>
0

> <s_m_source_file>
/data/baiqing/PycharmProjects/Reinvent-master-3.2/result/LINK_invent/BTK/process_docking_weight1_custom_sum_contain_oxygen_bond_distance_aromatic_linkinvent_7_9_3/rearranged_h_0060.sdf

> <i_m_source_file_index>
50

> <r_mmod_Potential_Energy-OPLS-2005>
-93.5661544799805

> <r_mmod_Stretch_Energy-OPLS-2005>
38.7909049987793

> <r_mmod_Bend_Energy-OPLS-2005>
104.97216796875

> <r_mmod_Torsional_Energy-OPLS-2005>
259.598724365234

> <r_mmod_Improper_Torsional_Energy-OPLS-2005>
8.45431423187256

> <r_mmod_Van_der_Waal_Energy-OPLS-2005>
122.379165649414

> <r_mmod_Electrostatic_Energy-OPLS-2005>
-215.428497314453

> <r_mmod_Solvation_Energy-OPLS-2005>
-426.696502685547

> <b_mmod_Minimization_Converged-OPLS-2005>
0

> <r_mmod_RMS_Derivative-OPLS-2005>
3.02388644218445

$$$$
53
                    3D
 Structure written by MMmdl.
161169  0  0  1  0            999 V2000
  -30.6320  -14.8849   20.4411 C   0  0  0  0  0  0
  -30.4468  -12.5723   19.4426 C   0  0  0  0  0  0
  -29.4938  -12.5115   18.2299 C   0  0  0  0  0  0
  -28.0325  -12.2929   18.6763 C   0  0  0  0  0  0
  -27.6309  -13.1842   19.8824 C   0  0  2  0  0  0
  -28.7275  -13.1743   20.9744 C   0  0  0  0  0  0
  -25.2223  -13.7875   20.5548 C   0  0  0  0  0  0
  -24.1595  -13.0223   20.9236 C   0  0  0  0  0  0
  -24.6254  -11.6753   20.8902 C   0  0  0  0  0  0
  -23.8952  -10.4196   21.0484 C   0  0  0  0  0  0
  -24.3558   -9.4144   21.9252 C   0  0  0  0  0  0
  -23.6261   -8.2180   22.0794 C   0  0  0  0  0  0
  -22.4256   -8.0227   21.3557 C   0  0  0  0  0  0
  -21.9868   -9.0178   20.4650 C   0  0  0  0  0  0
  -22.7157  -10.2064   20.3076 C   0  0  0  0  0  0
  -21.6821   -6.0719   22.5280 C   0  0  0  0  0  0
  -21.3971   -6.5626   23.8205 C   0  0  0  0  0  0
  -21.3646   -5.6780   24.9171 C   0  0  0  0  0  0
  -21.6055   -4.3047   24.7219 C   0  0  0  0  0  0
  -21.8823   -3.8138   23.4338 C   0  0  0  0  0  0
  -21.9186   -4.6959   22.3398 C   0  0  0  0  0  0
  -22.7643  -13.5097   21.1868 C   0  0  0  0  0  0
  -22.1657   -4.2158   21.0972 F   0  0  0  0  0  0
  -21.5664   -3.4527   25.7733 F   0  0  0  0  0  0
  -29.9625  -13.6612   20.3352 N   0  0  0  0  0  0
  -26.2849  -12.9115   20.3627 N   0  0  0  0  0  0
  -25.9225  -11.6323   20.6112 N   0  0  0  0  0  0
  -22.0265  -12.8159   22.0444 N   0  0  0  0  0  0
  -25.3335  -15.1515   20.3431 N   0  0  0  0  0  0
  -31.8512  -14.8543   20.2449 O   0  0  0  0  0  0
  -21.6619   -6.8844   21.4240 O   0  0  0  0  0  0
  -22.3392  -14.5448   20.6744 O   0  0  0  0  0  0
  -24.6323  -31.8535   23.1961 C   0  0  0  0  0  0
  -25.9141  -32.4754   23.8329 C   0  0  1  0  0  0
  -27.2484  -27.2566   20.1304 C   0  0  0  0  0  0
  -25.5939  -33.8553   24.2268 N   0  0  0  0  0  0
  -23.4319  -30.4695   21.5402 C   0  0  2  0  0  0
  -24.8861  -28.9076   20.1184 C   0  0  0  0  0  0
  -22.7511  -29.4573   22.4925 C   0  0  0  0  0  0
  -18.0290  -28.1361   22.8485 C   0  0  0  0  0  0
  -24.1488  -36.7278   23.2637 C   0  0  0  0  0  0
  -25.9777  -30.7647   21.3761 C   0  0  0  0  0  0
  -26.0564  -29.3827   20.7231 C   0  0  0  0  0  0
  -27.2397  -28.5728   20.7112 C   0  0  0  0  0  0
  -26.0500  -26.8463   19.5052 C   0  0  0  0  0  0
  -24.8883  -27.6474   19.4983 C   0  0  0  0  0  0
  -23.6545  -29.7939   20.1600 C   0  0  0  0  0  0
  -25.4115  -36.3067   24.0326 C   0  0  1  0  0  0
  -20.5895  -28.3678   23.1273 C   0  0  2  0  0  0
  -20.6773  -26.9398   22.5401 C   0  0  0  0  0  0
  -19.5751  -26.6366   21.5200 C   0  0  0  0  0  0
  -18.1931  -26.7905   22.1613 C   0  0  0  0  0  0
  -19.1545  -28.8837   23.2869 C   0  0  0  0  0  0
  -18.9464  -30.1432   23.8894 C   0  0  0  0  0  0
  -17.6465  -30.6572   24.0541 C   0  0  0  0  0  0
  -25.9058  -34.9435   23.5103 C   0  0  0  0  0  0
  -16.5357  -29.9064   23.6321 C   0  0  0  0  0  0
  -16.7276  -28.6470   23.0367 C   0  0  0  0  0  0
  -26.4501  -31.6578   25.0722 C   0  0  0  0  0  0
  -25.3718  -31.3725   26.1439 C   0  0  0  0  0  0
  -27.0350  -30.3003   24.6194 C   0  0  0  0  0  0
  -27.6063  -32.4307   25.7501 C   0  0  0  0  0  0
  -27.5578  -37.1797   24.8467 C   0  0  0  0  0  0
  -21.4216  -29.3029   22.3674 N   0  0  0  0  0  0
  -26.4290  -37.3768   23.9410 N   0  0  0  0  0  0
  -24.7000  -31.0478   22.0948 N   0  0  0  0  0  0
  -23.4200  -28.8118   23.3037 O   0  0  0  0  0  0
  -28.3777  -26.3982   20.1196 O   0  0  0  0  0  0
  -26.5614  -34.8911   22.4664 O   0  0  0  0  0  0
  -23.5474  -32.1355   23.7250 O   0  0  0  0  0  0
  -30.0728  -20.2746   20.4426 C   0  0  0  0  0  0
  -29.8764  -22.0250   21.6316 C   0  0  0  0  0  0
  -29.9563  -22.9881   22.7693 C   0  0  0  0  0  0
  -28.0597  -16.4724   18.9665 C   0  0  0  0  0  0
  -27.7176  -16.3359   21.6732 C   0  0  0  0  0  0
  -30.5504  -18.8468   19.9325 C   0  0  0  0  0  0
  -29.3092  -23.8385   19.8177 C   0  0  0  0  0  0
  -30.7147  -17.5138   20.8861 C   0  0  0  0  0  0
  -28.2524  -24.9206   20.4233 C   0  0  0  0  0  0
  -28.5879  -16.5654   20.4193 C   0  0  0  0  0  0
  -30.2211  -20.7239   21.7288 N   0  0  0  0  0  0
  -29.6560  -21.2740   19.6114 N   0  0  0  0  0  0
  -29.5156  -22.4243   20.3975 N   0  0  0  0  0  0
  -30.0110  -16.1712   20.5641 N   0  0  0  0  0  0
  -31.4631  -12.7480   19.0883 H   0  0  0  0  0  0
  -30.4875  -11.6152   19.9653 H   0  0  0  0  0  0
  -29.8032  -11.7153   17.5508 H   0  0  0  0  0  0
  -29.5677  -13.4386   17.6590 H   0  0  0  0  0  0
  -27.9242  -11.2426   18.9510 H   0  0  0  0  0  0
  -27.3535  -12.4587   17.8390 H   0  0  0  0  0  0
  -27.5637  -14.1738   19.4880 H   0  0  0  0  0  0
  -28.8575  -12.1574   21.3478 H   0  0  0  0  0  0
  -28.5068  -13.7439   21.8678 H   0  0  0  0  0  0
  -25.2695   -9.5669   22.4826 H   0  0  0  0  0  0
  -23.9985   -7.4579   22.7515 H   0  0  0  0  0  0
  -21.0810   -8.8644   19.8946 H   0  0  0  0  0  0
  -22.3605  -10.9608   19.6180 H   0  0  0  0  0  0
  -21.1916   -7.6127   23.9700 H   0  0  0  0  0  0
  -21.1477   -6.0512   25.9071 H   0  0  0  0  0  0
  -22.0621   -2.7608   23.2811 H   0  0  0  0  0  0
  -22.3788  -11.9750   22.4773 H   0  0  0  0  0  0
  -21.0928  -13.1299   22.2677 H   0  0  0  0  0  0
  -24.5622  -15.7874   20.5090 H   0  0  0  0  0  0
  -26.2171  -15.6199   20.1876 H   0  0  0  0  0  0
  -26.7205  -32.5410   23.1072 H   0  0  0  0  0  0
  -25.0113  -33.9684   25.0432 H   0  0  0  0  0  0
  -22.7289  -31.2905   21.3855 H   0  0  0  0  0  0
  -23.3759  -35.9605   23.3299 H   0  0  0  0  0  0
  -24.3589  -36.8898   22.2055 H   0  0  0  0  0  0
  -23.7231  -37.6473   23.6664 H   0  0  0  0  0  0
  -26.1093  -31.5243   20.6042 H   0  0  0  0  0  0
  -26.8574  -30.8234   22.0056 H   0  0  0  0  0  0
  -28.1424  -28.9413   21.1787 H   0  0  0  0  0  0
  -26.0020  -25.8896   19.0070 H   0  0  0  0  0  0
  -23.9952  -27.2791   19.0134 H   0  0  0  0  0  0
  -23.7782  -30.5653   19.3984 H   0  0  0  0  0  0
  -22.7756  -29.2217   19.8574 H   0  0  0  0  0  0
  -25.1296  -36.1916   25.0818 H   0  0  0  0  0  0
  -20.9968  -28.3234   24.1402 H   0  0  0  0  0  0
  -20.5656  -26.2286   23.3597 H   0  0  0  0  0  0
  -21.6643  -26.7402   22.1210 H   0  0  0  0  0  0
  -19.6916  -25.6271   21.1243 H   0  0  0  0  0  0
  -19.6695  -27.3157   20.6716 H   0  0  0  0  0  0
  -17.4200  -26.6648   21.4014 H   0  0  0  0  0  0
  -18.0339  -26.0035   22.9003 H   0  0  0  0  0  0
  -19.7939  -30.7235   24.2287 H   0  0  0  0  0  0
  -17.5020  -31.6263   24.5120 H   0  0  0  0  0  0
  -15.5357  -30.2967   23.7642 H   0  0  0  0  0  0
  -15.8671  -28.0769   22.7125 H   0  0  0  0  0  0
  -24.5903  -30.7061   25.7768 H   0  0  0  0  0  0
  -24.8889  -32.2890   26.4849 H   0  0  0  0  0  0
  -25.8031  -30.8918   27.0228 H   0  0  0  0  0  0
  -26.2933  -29.6753   24.1209 H   0  0  0  0  0  0
  -27.4034  -29.7262   25.4703 H   0  0  0  0  0  0
  -27.8807  -30.4296   23.9437 H   0  0  0  0  0  0
  -27.2690  -33.3616   26.2073 H   0  0  0  0  0  0
  -28.3892  -32.6845   25.0340 H   0  0  0  0  0  0
  -28.0713  -31.8425   26.5422 H   0  0  0  0  0  0
  -28.2589  -38.0097   24.7516 H   0  0  0  0  0  0
  -28.1076  -36.2630   24.6293 H   0  0  0  0  0  0
  -27.2296  -37.1444   25.8867 H   0  0  0  0  0  0
  -20.9416  -29.8766   21.6882 H   0  0  0  0  0  0
  -26.0167  -38.2842   24.1414 H   0  0  0  0  0  0
  -30.4696  -22.5419   23.6200 H   0  0  0  0  0  0
  -28.9536  -23.2770   23.0842 H   0  0  0  0  0  0
  -30.5060  -23.8806   22.4703 H   0  0  0  0  0  0
  -28.3574  -17.3449   18.3887 H   0  0  0  0  0  0
  -26.9762  -16.4635   18.9012 H   0  0  0  0  0  0
  -28.4754  -15.6383   18.4036 H   0  0  0  0  0  0
  -26.8546  -17.0044   21.6699 H   0  0  0  0  0  0
  -28.2746  -16.5813   22.5790 H   0  0  0  0  0  0
  -27.3274  -15.3410   21.8137 H   0  0  0  0  0  0
  -31.5341  -19.0127   19.4942 H   0  0  0  0  0  0
  -29.9512  -18.6058   19.0597 H   0  0  0  0  0  0
  -30.2921  -24.3076   19.8571 H   0  0  0  0  0  0
  -29.1024  -23.7249   18.7527 H   0  0  0  0  0  0
  -30.3922  -17.7884   21.8915 H   0  0  0  0  0  0
  -31.7817  -17.3254   21.0085 H   0  0  0  0  0  0
  -28.2984  -24.8599   21.5092 H   0  0  0  0  0  0
  -27.2560  -24.5603   20.1723 H   0  0  0  0  0  0
  -28.5048  -17.6477   20.5007 H   0  0  0  0  0  0
  1 25  1  0  0  0
  1 30  2  0  0  0
  1 84  1  0  0  0
  2  3  1  0  0  0
  2 25  1  0  0  0
  2 85  1  0  0  0
  2 86  1  0  0  0
  3  4  1  0  0  0
  3 87  1  0  0  0
  3 88  1  0  0  0
  4  5  1  0  0  0
  4 89  1  0  0  0
  4 90  1  0  0  0
  5  6  1  0  0  0
  5 26  1  0  0  0
  5 91  1  0  0  0
  6 25  1  0  0  0
  6 92  1  0  0  0
  6 93  1  0  0  0
  7  8  2  0  0  0
  7 26  1  0  0  0
  7 29  1  0  0  0
  8  9  1  0  0  0
  8 22  1  0  0  0
  9 10  1  0  0  0
  9 27  2  0  0  0
 10 11  2  0  0  0
 10 15  1  0  0  0
 11 12  1  0  0  0
 11 94  1  0  0  0
 12 13  2  0  0  0
 12 95  1  0  0  0
 13 14  1  0  0  0
 13 31  1  0  0  0
 14 15  2  0  0  0
 14 96  1  0  0  0
 15 97  1  0  0  0
 16 17  2  0  0  0
 16 21  1  0  0  0
 16 31  1  0  0  0
 17 18  1  0  0  0
 17 98  1  0  0  0
 18 19  2  0  0  0
 18 99  1  0  0  0
 19 20  1  0  0  0
 19 24  1  0  0  0
 20 21  2  0  0  0
 20100  1  0  0  0
 21 23  1  0  0  0
 22 28  1  0  0  0
 22 32  2  0  0  0
 26 27  1  0  0  0
 28101  1  0  0  0
 28102  1  0  0  0
 29103  1  0  0  0
 29104  1  0  0  0
 33 34  1  0  0  0
 33 66  1  0  0  0
 33 70  2  0  0  0
 34 36  1  0  0  0
 34 59  1  0  0  0
 34105  1  0  0  0
 35 44  2  0  0  0
 35 45  1  0  0  0
 35 68  1  0  0  0
 36 56  1  0  0  0
 36106  1  0  0  0
 37 39  1  0  0  0
 37 47  1  0  0  0
 37 66  1  0  0  0
 37107  1  0  0  0
 38 43  2  0  0  0
 38 46  1  0  0  0
 38 47  1  0  0  0
 39 64  1  0  0  0
 39 67  2  0  0  0
 40 52  1  0  0  0
 40 53  2  0  0  0
 40 58  1  0  0  0
 41108  1  0  0  0
 41109  1  0  0  0
 41110  1  0  0  0
 41 48  1  0  0  0
 42 43  1  0  0  0
 42 66  1  0  0  0
 42111  1  0  0  0
 42112  1  0  0  0
 43 44  1  0  0  0
 44113  1  0  0  0
 45 46  2  0  0  0
 45114  1  0  0  0
 46115  1  0  0  0
 47116  1  0  0  0
 47117  1  0  0  0
 48 56  1  0  0  0
 48 65  1  0  0  0
 48118  1  0  0  0
 49 50  1  0  0  0
 49 53  1  0  0  0
 49 64  1  0  0  0
 49119  1  0  0  0
 50 51  1  0  0  0
 50120  1  0  0  0
 50121  1  0  0  0
 51 52  1  0  0  0
 51122  1  0  0  0
 51123  1  0  0  0
 52124  1  0  0  0
 52125  1  0  0  0
 53 54  1  0  0  0
 54 55  2  0  0  0
 54126  1  0  0  0
 55 57  1  0  0  0
 55127  1  0  0  0
 56 69  2  0  0  0
 57 58  2  0  0  0
 57128  1  0  0  0
 58129  1  0  0  0
 59 60  1  0  0  0
 59 61  1  0  0  0
 59 62  1  0  0  0
 60130  1  0  0  0
 60131  1  0  0  0
 60132  1  0  0  0
 61133  1  0  0  0
 61134  1  0  0  0
 61135  1  0  0  0
 62136  1  0  0  0
 62137  1  0  0  0
 62138  1  0  0  0
 63 65  1  0  0  0
 63139  1  0  0  0
 63140  1  0  0  0
 63141  1  0  0  0
 64142  1  0  0  0
 65143  1  0  0  0
 68 79  1  0  0  0
 71 76  1  0  0  0
 71 81  1  0  0  0
 71 82  2  0  0  0
 72 73  1  0  0  0
 72 81  2  0  0  0
 72 83  1  0  0  0
 73144  1  0  0  0
 73145  1  0  0  0
 73146  1  0  0  0
 74147  1  0  0  0
 74148  1  0  0  0
 74149  1  0  0  0
 74 80  1  0  0  0
 75 80  1  0  0  0
 75150  1  0  0  0
 75151  1  0  0  0
 75152  1  0  0  0
 76 78  1  0  0  0
 76153  1  0  0  0
 76154  1  0  0  0
 77 79  1  0  0  0
 77 83  1  0  0  0
 77155  1  0  0  0
 77156  1  0  0  0
 78 84  1  0  0  0
 78157  1  0  0  0
 78158  1  0  0  0
 79159  1  0  0  0
 79160  1  0  0  0
 80 84  1  0  0  0
 80161  1  0  0  0
 82 83  1  0  0  0
M  ISO  4   1 100  68 101  79 101  84 100
M  END
> <chiral flag>
0

> <version>
0

> <s_m_source_file>
/data/baiqing/PycharmProjects/Reinvent-master-3.2/result/LINK_invent/BTK/process_docking_weight1_custom_sum_contain_oxygen_bond_distance_aromatic_linkinvent_7_9_3/rearranged_h_0060.sdf

> <i_m_source_file_index>
51

> <r_mmod_Potential_Energy-OPLS-2005>
537.965881347656

> <r_mmod_Stretch_Energy-OPLS-2005>
164.621032714844

> <r_mmod_Bend_Energy-OPLS-2005>
276.821899414062

> <r_mmod_Torsional_Energy-OPLS-2005>
330.444305419922

> <r_mmod_Improper_Torsional_Energy-OPLS-2005>
6.65708208084106

> <r_mmod_Van_der_Waal_Energy-OPLS-2005>
148.707992553711

> <r_mmod_Electrostatic_Energy-OPLS-2005>
-298.194854736328

> <r_mmod_Solvation_Energy-OPLS-2005>
-211.780075073242

> <b_mmod_Minimization_Converged-OPLS-2005>
0

> <r_mmod_RMS_Derivative-OPLS-2005>
2.33882284164429

$$$$
54
                    3D
 Structure written by MMmdl.
154162  0  0  1  0            999 V2000
  -30.5137  -15.0095   20.3642 C   0  0  0  0  0  0
  -30.4472  -12.6213   19.4852 C   0  0  0  0  0  0
  -29.5235  -12.4710   18.2533 C   0  0  0  0  0  0
  -28.0541  -12.2805   18.6794 C   0  0  0  0  0  0
  -27.6214  -13.2364   19.8220 C   0  0  2  0  0  0
  -28.6701  -13.3191   20.9475 C   0  0  0  0  0  0
  -25.2479  -13.8188   20.5728 C   0  0  0  0  0  0
  -24.1775  -13.0435   20.9233 C   0  0  0  0  0  0
  -24.6372  -11.6913   20.8768 C   0  0  0  0  0  0
  -23.9059  -10.4292   21.0425 C   0  0  0  0  0  0
  -24.3616   -9.4204   21.9193 C   0  0  0  0  0  0
  -23.6297   -8.2240   22.0758 C   0  0  0  0  0  0
  -22.4278   -8.0282   21.3548 C   0  0  0  0  0  0
  -21.9911   -9.0257   20.4652 C   0  0  0  0  0  0
  -22.7237  -10.2136   20.3067 C   0  0  0  0  0  0
  -21.6850   -6.0739   22.5277 C   0  0  0  0  0  0
  -21.4014   -6.5642   23.8212 C   0  0  0  0  0  0
  -21.3658   -5.6789   24.9171 C   0  0  0  0  0  0
  -21.6047   -4.3053   24.7220 C   0  0  0  0  0  0
  -21.8820   -3.8149   23.4342 C   0  0  0  0  0  0
  -21.9190   -4.6966   22.3400 C   0  0  0  0  0  0
  -22.7803  -13.5225   21.1878 C   0  0  0  0  0  0
  -22.1659   -4.2152   21.0979 F   0  0  0  0  0  0
  -21.5627   -3.4536   25.7734 F   0  0  0  0  0  0
  -29.9241  -13.7429   20.3149 N   0  0  0  0  0  0
  -26.2865  -12.9377   20.3232 N   0  0  0  0  0  0
  -25.9299  -11.6530   20.5760 N   0  0  0  0  0  0
  -22.0433  -12.8223   22.0428 N   0  0  0  0  0  0
  -25.4215  -15.1917   20.4190 N   0  0  0  0  0  0
  -31.7480  -15.0410   20.2927 O   0  0  0  0  0  0
  -21.6639   -6.8882   21.4243 O   0  0  0  0  0  0
  -22.3498  -14.5527   20.6707 O   0  0  0  0  0  0
  -24.6441  -31.8414   23.1837 C   0  0  0  0  0  0
  -25.9201  -32.4682   23.8236 C   0  0  1  0  0  0
  -27.2240  -27.1144   20.1756 C   0  0  0  0  0  0
  -25.5940  -33.8487   24.2156 N   0  0  0  0  0  0
  -23.4489  -30.4564   21.5302 C   0  0  2  0  0  0
  -24.8984  -28.8648   20.1236 C   0  0  0  0  0  0
  -22.7564  -29.4535   22.4864 C   0  0  0  0  0  0
  -18.0302  -28.1399   22.8474 C   0  0  0  0  0  0
  -24.1494  -36.7255   23.2642 C   0  0  0  0  0  0
  -26.0039  -30.7097   21.3821 C   0  0  0  0  0  0
  -26.0758  -29.3133   20.7357 C   0  0  0  0  0  0
  -27.2415  -28.4578   20.7336 C   0  0  0  0  0  0
  -26.0175  -26.7553   19.5427 C   0  0  0  0  0  0
  -24.8818  -27.5991   19.5121 C   0  0  0  0  0  0
  -23.6774  -29.7732   20.1547 C   0  0  0  0  0  0
  -25.4127  -36.3023   24.0310 C   0  0  1  0  0  0
  -20.5912  -28.3726   23.1240 C   0  0  2  0  0  0
  -20.6790  -26.9430   22.5409 C   0  0  0  0  0  0
  -19.5767  -26.6384   21.5215 C   0  0  0  0  0  0
  -18.1947  -26.7938   22.1623 C   0  0  0  0  0  0
  -19.1556  -28.8881   23.2848 C   0  0  0  0  0  0
  -18.9474  -30.1477   23.8873 C   0  0  0  0  0  0
  -17.6472  -30.6595   24.0560 C   0  0  0  0  0  0
  -25.9075  -34.9401   23.5048 C   0  0  0  0  0  0
  -16.5364  -29.9088   23.6334 C   0  0  0  0  0  0
  -16.7289  -28.6508   23.0352 C   0  0  0  0  0  0
  -26.4516  -31.6558   25.0689 C   0  0  0  0  0  0
  -25.3694  -31.3755   26.1380 C   0  0  0  0  0  0
  -27.0384  -30.2953   24.6280 C   0  0  0  0  0  0
  -27.6041  -32.4329   25.7484 C   0  0  0  0  0  0
  -27.5578  -37.1782   24.8462 C   0  0  0  0  0  0
  -21.4257  -29.3047   22.3609 N   0  0  0  0  0  0
  -26.4287  -37.3739   23.9406 N   0  0  0  0  0  0
  -24.7191  -31.0252   22.0877 N   0  0  0  0  0  0
  -23.4197  -28.8099   23.3036 O   0  0  0  0  0  0
  -28.3271  -26.1888   20.1108 O   0  0  0  0  0  0
  -26.5674  -34.8905   22.4636 O   0  0  0  0  0  0
  -23.5558  -32.1300   23.7047 O   0  0  0  0  0  0
  -28.8532  -20.4201   20.4981 C   0  0  0  0  0  0
  -29.1570  -21.8217   20.0942 C   0  0  0  0  0  0
  -29.7778  -19.2756   20.2659 C   0  0  0  0  0  0
  -31.1490  -20.9170   19.3016 C   0  0  0  0  0  0
  -32.4639  -21.1940   18.6056 C   0  0  0  0  0  0
  -29.2381  -16.2826   18.7383 C   0  0  0  0  0  0
  -28.2109  -23.1900   19.9685 C   0  0  0  0  0  0
  -29.7274  -17.6716   20.7918 C   0  0  0  0  0  0
  -28.4151  -24.7236   20.6689 C   0  0  0  0  0  0
  -30.3538  -21.9714   19.4941 N   0  0  0  0  0  0
  -30.9197  -19.6458   19.6373 N   0  0  0  0  0  0
  -29.7370  -16.2045   20.1297 N   0  0  0  0  0  0
  -31.4715  -12.8065   19.1573 H   0  0  0  0  0  0
  -30.4793  -11.6972   20.0648 H   0  0  0  0  0  0
  -29.8459  -11.6200   17.6520 H   0  0  0  0  0  0
  -29.6125  -13.3387   17.6023 H   0  0  0  0  0  0
  -27.9493  -11.2476   19.0134 H   0  0  0  0  0  0
  -27.3917  -12.3879   17.8198 H   0  0  0  0  0  0
  -27.5605  -14.2193   19.3619 H   0  0  0  0  0  0
  -28.7821  -12.3640   21.4619 H   0  0  0  0  0  0
  -28.3647  -14.0485   21.6995 H   0  0  0  0  0  0
  -25.2761   -9.5681   22.4771 H   0  0  0  0  0  0
  -24.0002   -7.4631   22.7484 H   0  0  0  0  0  0
  -21.0835   -8.8782   19.8966 H   0  0  0  0  0  0
  -22.3696  -10.9681   19.6181 H   0  0  0  0  0  0
  -21.2009   -7.6151   23.9715 H   0  0  0  0  0  0
  -21.1480   -6.0520   25.9072 H   0  0  0  0  0  0
  -22.0600   -2.7614   23.2836 H   0  0  0  0  0  0
  -22.4038  -11.9885   22.4829 H   0  0  0  0  0  0
  -21.1057  -13.1275   22.2628 H   0  0  0  0  0  0
  -24.6633  -15.8530   20.5462 H   0  0  0  0  0  0
  -26.2854  -15.6301   20.1276 H   0  0  0  0  0  0
  -26.7269  -32.5283   23.0965 H   0  0  0  0  0  0
  -25.0040  -33.9595   25.0271 H   0  0  0  0  0  0
  -22.7526  -31.2823   21.3689 H   0  0  0  0  0  0
  -23.3758  -35.9583   23.3286 H   0  0  0  0  0  0
  -24.3578  -36.8911   22.2061 H   0  0  0  0  0  0
  -23.7248  -37.6443   23.6699 H   0  0  0  0  0  0
  -26.1558  -31.4573   20.6022 H   0  0  0  0  0  0
  -26.8757  -30.7685   22.0222 H   0  0  0  0  0  0
  -28.1512  -28.8105   21.1988 H   0  0  0  0  0  0
  -25.9497  -25.7873   19.0666 H   0  0  0  0  0  0
  -23.9824  -27.2497   19.0239 H   0  0  0  0  0  0
  -23.8190  -30.5410   19.3934 H   0  0  0  0  0  0
  -22.7915  -29.2156   19.8457 H   0  0  0  0  0  0
  -25.1319  -36.1843   25.0801 H   0  0  0  0  0  0
  -21.0004  -28.3320   24.1361 H   0  0  0  0  0  0
  -20.5689  -26.2338   23.3626 H   0  0  0  0  0  0
  -21.6655  -26.7441   22.1204 H   0  0  0  0  0  0
  -19.6929  -25.6288   21.1262 H   0  0  0  0  0  0
  -19.6706  -27.3179   20.6733 H   0  0  0  0  0  0
  -17.4217  -26.6680   21.4027 H   0  0  0  0  0  0
  -18.0347  -26.0089   22.9028 H   0  0  0  0  0  0
  -19.7949  -30.7301   24.2234 H   0  0  0  0  0  0
  -17.5023  -31.6273   24.5168 H   0  0  0  0  0  0
  -15.5363  -30.2983   23.7672 H   0  0  0  0  0  0
  -15.8690  -28.0824   22.7074 H   0  0  0  0  0  0
  -24.5874  -30.7108   25.7692 H   0  0  0  0  0  0
  -24.8878  -32.2940   26.4746 H   0  0  0  0  0  0
  -25.7961  -30.8958   27.0196 H   0  0  0  0  0  0
  -26.2998  -29.6671   24.1287 H   0  0  0  0  0  0
  -27.3994  -29.7263   25.4857 H   0  0  0  0  0  0
  -27.8907  -30.4188   23.9595 H   0  0  0  0  0  0
  -27.2626  -33.3647   26.2006 H   0  0  0  0  0  0
  -28.3881  -32.6865   25.0337 H   0  0  0  0  0  0
  -28.0677  -31.8492   26.5446 H   0  0  0  0  0  0
  -28.2579  -38.0093   24.7510 H   0  0  0  0  0  0
  -28.1087  -36.2621   24.6284 H   0  0  0  0  0  0
  -27.2295  -37.1422   25.8863 H   0  0  0  0  0  0
  -20.9474  -29.8735   21.6762 H   0  0  0  0  0  0
  -26.0150  -38.2805   24.1407 H   0  0  0  0  0  0
  -27.9011  -20.2200   20.9744 H   0  0  0  0  0  0
  -32.8963  -22.1335   18.9498 H   0  0  0  0  0  0
  -32.3151  -21.2596   17.5284 H   0  0  0  0  0  0
  -33.1901  -20.4043   18.8001 H   0  0  0  0  0  0
  -28.1486  -16.3152   18.7145 H   0  0  0  0  0  0
  -29.5549  -15.4546   18.1064 H   0  0  0  0  0  0
  -29.6032  -17.1838   18.2438 H   0  0  0  0  0  0
  -27.1999  -22.8697   20.2176 H   0  0  0  0  0  0
  -28.1599  -23.3747   18.8958 H   0  0  0  0  0  0
  -28.7067  -17.7368   20.4175 H   0  0  0  0  0  0
  -30.7076  -17.5773   20.3323 H   0  0  0  0  0  0
  -29.4501  -24.6959   21.0109 H   0  0  0  0  0  0
  -27.8493  -24.7208   21.6008 H   0  0  0  0  0  0
  1 25  1  0  0  0
  1 30  2  0  0  0
  1 82  1  0  0  0
  2  3  1  0  0  0
  2 25  1  0  0  0
  2 83  1  0  0  0
  2 84  1  0  0  0
  3  4  1  0  0  0
  3 85  1  0  0  0
  3 86  1  0  0  0
  4  5  1  0  0  0
  4 87  1  0  0  0
  4 88  1  0  0  0
  5  6  1  0  0  0
  5 26  1  0  0  0
  5 89  1  0  0  0
  6 25  1  0  0  0
  6 90  1  0  0  0
  6 91  1  0  0  0
  7  8  2  0  0  0
  7 26  1  0  0  0
  7 29  1  0  0  0
  8  9  1  0  0  0
  8 22  1  0  0  0
  9 10  1  0  0  0
  9 27  2  0  0  0
 10 11  2  0  0  0
 10 15  1  0  0  0
 11 12  1  0  0  0
 11 92  1  0  0  0
 12 13  2  0  0  0
 12 93  1  0  0  0
 13 14  1  0  0  0
 13 31  1  0  0  0
 14 15  2  0  0  0
 14 94  1  0  0  0
 15 95  1  0  0  0
 16 17  2  0  0  0
 16 21  1  0  0  0
 16 31  1  0  0  0
 17 18  1  0  0  0
 17 96  1  0  0  0
 18 19  2  0  0  0
 18 97  1  0  0  0
 19 20  1  0  0  0
 19 24  1  0  0  0
 20 21  2  0  0  0
 20 98  1  0  0  0
 21 23  1  0  0  0
 22 28  1  0  0  0
 22 32  2  0  0  0
 26 27  1  0  0  0
 28 99  1  0  0  0
 28100  1  0  0  0
 29101  1  0  0  0
 29102  1  0  0  0
 33 34  1  0  0  0
 33 66  1  0  0  0
 33 70  2  0  0  0
 34 36  1  0  0  0
 34 59  1  0  0  0
 34103  1  0  0  0
 35 44  2  0  0  0
 35 45  1  0  0  0
 35 68  1  0  0  0
 36 56  1  0  0  0
 36104  1  0  0  0
 37 39  1  0  0  0
 37 47  1  0  0  0
 37 66  1  0  0  0
 37105  1  0  0  0
 38 43  2  0  0  0
 38 46  1  0  0  0
 38 47  1  0  0  0
 39 64  1  0  0  0
 39 67  2  0  0  0
 40 52  1  0  0  0
 40 53  2  0  0  0
 40 58  1  0  0  0
 41106  1  0  0  0
 41107  1  0  0  0
 41108  1  0  0  0
 41 48  1  0  0  0
 42 43  1  0  0  0
 42 66  1  0  0  0
 42109  1  0  0  0
 42110  1  0  0  0
 43 44  1  0  0  0
 44111  1  0  0  0
 45 46  2  0  0  0
 45112  1  0  0  0
 46113  1  0  0  0
 47114  1  0  0  0
 47115  1  0  0  0
 48 56  1  0  0  0
 48 65  1  0  0  0
 48116  1  0  0  0
 49 50  1  0  0  0
 49 53  1  0  0  0
 49 64  1  0  0  0
 49117  1  0  0  0
 50 51  1  0  0  0
 50118  1  0  0  0
 50119  1  0  0  0
 51 52  1  0  0  0
 51120  1  0  0  0
 51121  1  0  0  0
 52122  1  0  0  0
 52123  1  0  0  0
 53 54  1  0  0  0
 54 55  2  0  0  0
 54124  1  0  0  0
 55 57  1  0  0  0
 55125  1  0  0  0
 56 69  2  0  0  0
 57 58  2  0  0  0
 57126  1  0  0  0
 58127  1  0  0  0
 59 60  1  0  0  0
 59 61  1  0  0  0
 59 62  1  0  0  0
 60128  1  0  0  0
 60129  1  0  0  0
 60130  1  0  0  0
 61131  1  0  0  0
 61132  1  0  0  0
 61133  1  0  0  0
 62134  1  0  0  0
 62135  1  0  0  0
 62136  1  0  0  0
 63 65  1  0  0  0
 63137  1  0  0  0
 63138  1  0  0  0
 63139  1  0  0  0
 64140  1  0  0  0
 65141  1  0  0  0
 68 79  1  0  0  0
 71 72  2  0  0  0
 71 73  1  0  0  0
 71142  1  0  0  0
 72 77  1  0  0  0
 72 80  1  0  0  0
 73 78  1  0  0  0
 73 81  2  0  0  0
 74 75  1  0  0  0
 74 80  2  0  0  0
 74 81  1  0  0  0
 75143  1  0  0  0
 75144  1  0  0  0
 75145  1  0  0  0
 76 82  1  0  0  0
 76146  1  0  0  0
 76147  1  0  0  0
 76148  1  0  0  0
 77 79  1  0  0  0
 77149  1  0  0  0
 77150  1  0  0  0
 78 82  1  0  0  0
 78151  1  0  0  0
 78152  1  0  0  0
 79153  1  0  0  0
 79154  1  0  0  0
M  ISO  4   1 100  68 101  79 101  82 100
M  END
> <chiral flag>
0

> <version>
0

> <s_m_source_file>
/data/baiqing/PycharmProjects/Reinvent-master-3.2/result/LINK_invent/BTK/process_docking_weight1_custom_sum_contain_oxygen_bond_distance_aromatic_linkinvent_7_9_3/rearranged_h_0060.sdf

> <i_m_source_file_index>
52

> <r_mmod_Potential_Energy-OPLS-2005>
526.992553710938

> <r_mmod_Stretch_Energy-OPLS-2005>
299.752716064453

> <r_mmod_Bend_Energy-OPLS-2005>
516.040466308594

> <r_mmod_Torsional_Energy-OPLS-2005>
314.700439453125

> <r_mmod_Improper_Torsional_Energy-OPLS-2005>
12.8849020004272

> <r_mmod_Van_der_Waal_Energy-OPLS-2005>
153.536041259766

> <r_mmod_Electrostatic_Energy-OPLS-2005>
-759.579223632812

> <r_mmod_Solvation_Energy-OPLS-2005>
-233.298706054688

> <b_mmod_Minimization_Converged-OPLS-2005>
0

> <r_mmod_RMS_Derivative-OPLS-2005>
0.878330588340759

$$$$
55
                    3D
 Structure written by MMmdl.
153161  0  0  1  0            999 V2000
  -30.5321  -15.0166   20.4012 C   0  0  0  0  0  0
  -30.4350  -12.6303   19.5125 C   0  0  0  0  0  0
  -29.5229  -12.5395   18.2663 C   0  0  0  0  0  0
  -28.0598  -12.3104   18.6865 C   0  0  0  0  0  0
  -27.6253  -13.2558   19.8363 C   0  0  2  0  0  0
  -28.6643  -13.3346   20.9757 C   0  0  0  0  0  0
  -25.2445  -13.8232   20.5719 C   0  0  0  0  0  0
  -24.1775  -13.0437   20.9238 C   0  0  0  0  0  0
  -24.6409  -11.6925   20.8776 C   0  0  0  0  0  0
  -23.9092  -10.4298   21.0433 C   0  0  0  0  0  0
  -24.3634   -9.4208   21.9203 C   0  0  0  0  0  0
  -23.6306   -8.2244   22.0767 C   0  0  0  0  0  0
  -22.4288   -8.0286   21.3556 C   0  0  0  0  0  0
  -21.9929   -9.0266   20.4666 C   0  0  0  0  0  0
  -22.7268  -10.2145   20.3082 C   0  0  0  0  0  0
  -21.6864   -6.0747   22.5285 C   0  0  0  0  0  0
  -21.4036   -6.5646   23.8215 C   0  0  0  0  0  0
  -21.3664   -5.6789   24.9170 C   0  0  0  0  0  0
  -21.6038   -4.3051   24.7219 C   0  0  0  0  0  0
  -21.8825   -3.8152   23.4340 C   0  0  0  0  0  0
  -21.9198   -4.6976   22.3405 C   0  0  0  0  0  0
  -22.7804  -13.5205   21.1885 C   0  0  0  0  0  0
  -22.1663   -4.2160   21.0981 F   0  0  0  0  0  0
  -21.5617   -3.4537   25.7732 F   0  0  0  0  0  0
  -29.9367  -13.7499   20.3695 N   0  0  0  0  0  0
  -26.2873  -12.9474   20.3240 N   0  0  0  0  0  0
  -25.9337  -11.6591   20.5754 N   0  0  0  0  0  0
  -22.0462  -12.8199   22.0448 N   0  0  0  0  0  0
  -25.4058  -15.1966   20.4168 N   0  0  0  0  0  0
  -31.7394  -15.0627   20.1423 O   0  0  0  0  0  0
  -21.6648   -6.8889   21.4244 O   0  0  0  0  0  0
  -22.3483  -14.5500   20.6735 O   0  0  0  0  0  0
  -24.6491  -31.8425   23.1842 C   0  0  0  0  0  0
  -25.9238  -32.4687   23.8265 C   0  0  1  0  0  0
  -27.2130  -27.0798   20.1644 C   0  0  0  0  0  0
  -25.5972  -33.8494   24.2199 N   0  0  0  0  0  0
  -23.4572  -30.4619   21.5306 C   0  0  2  0  0  0
  -24.9081  -28.8871   20.1128 C   0  0  0  0  0  0
  -22.7606  -29.4534   22.4817 C   0  0  0  0  0  0
  -18.0312  -28.1407   22.8489 C   0  0  0  0  0  0
  -24.1500  -36.7263   23.2640 C   0  0  0  0  0  0
  -26.0179  -30.7010   21.3920 C   0  0  0  0  0  0
  -26.0895  -29.3058   20.7374 C   0  0  0  0  0  0
  -27.2411  -28.4194   20.7486 C   0  0  0  0  0  0
  -26.0032  -26.7917   19.4869 C   0  0  0  0  0  0
  -24.8812  -27.6442   19.4706 C   0  0  0  0  0  0
  -23.6915  -29.7984   20.1498 C   0  0  0  0  0  0
  -25.4126  -36.3037   24.0321 C   0  0  1  0  0  0
  -20.5930  -28.3752   23.1228 C   0  0  2  0  0  0
  -20.6802  -26.9448   22.5410 C   0  0  0  0  0  0
  -19.5768  -26.6396   21.5233 C   0  0  0  0  0  0
  -18.1947  -26.7939   22.1639 C   0  0  0  0  0  0
  -19.1577  -28.8891   23.2853 C   0  0  0  0  0  0
  -18.9473  -30.1471   23.8897 C   0  0  0  0  0  0
  -17.6471  -30.6596   24.0564 C   0  0  0  0  0  0
  -25.9072  -34.9404   23.5067 C   0  0  0  0  0  0
  -16.5362  -29.9097   23.6329 C   0  0  0  0  0  0
  -16.7297  -28.6512   23.0362 C   0  0  0  0  0  0
  -26.4533  -31.6536   25.0701 C   0  0  0  0  0  0
  -25.3693  -31.3742   26.1379 C   0  0  0  0  0  0
  -27.0380  -30.2928   24.6271 C   0  0  0  0  0  0
  -27.6084  -32.4268   25.7491 C   0  0  0  0  0  0
  -27.5578  -37.1792   24.8467 C   0  0  0  0  0  0
  -21.4286  -29.3077   22.3594 N   0  0  0  0  0  0
  -26.4292  -37.3748   23.9405 N   0  0  0  0  0  0
  -24.7290  -31.0235   22.0913 N   0  0  0  0  0  0
  -23.4230  -28.8051   23.2959 O   0  0  0  0  0  0
  -28.2268  -26.0304   20.2440 O   0  0  0  0  0  0
  -26.5652  -34.8905   22.4642 O   0  0  0  0  0  0
  -23.5592  -32.1315   23.7024 O   0  0  0  0  0  0
  -30.0089  -22.6473   20.0994 C   0  0  0  0  0  0
  -28.1409  -21.7389   20.4910 C   0  0  0  0  0  0
  -28.6388  -23.0573   20.2870 C   0  0  0  0  0  0
  -28.3126  -18.8046   21.9448 C   0  0  0  0  0  0
  -27.8063  -18.6916   19.5055 C   0  0  0  0  0  0
  -27.7988  -24.5119   20.1608 C   0  0  0  0  0  0
  -30.0634  -17.7943   20.3662 C   0  0  0  0  0  0
  -28.8952  -19.0352   20.5395 C   0  0  0  0  0  0
  -30.2607  -21.3003   20.1753 N   0  0  0  0  0  0
  -29.0892  -20.6392   20.4091 N   0  0  0  0  0  0
  -29.7591  -16.2202   20.5148 N   0  0  0  0  0  0
  -31.4705  -12.7838   19.2041 H   0  0  0  0  0  0
  -30.4234  -11.6900   20.0658 H   0  0  0  0  0  0
  -29.8524  -11.7351   17.6075 H   0  0  0  0  0  0
  -29.5953  -13.4630   17.6891 H   0  0  0  0  0  0
  -27.9706  -11.2733   19.0104 H   0  0  0  0  0  0
  -27.3941  -12.4217   17.8311 H   0  0  0  0  0  0
  -27.5735  -14.2484   19.3878 H   0  0  0  0  0  0
  -28.7676  -12.3840   21.5007 H   0  0  0  0  0  0
  -28.3449  -14.0667   21.7211 H   0  0  0  0  0  0
  -25.2781   -9.5669   22.4775 H   0  0  0  0  0  0
  -24.0024   -7.4631   22.7478 H   0  0  0  0  0  0
  -21.0862   -8.8791   19.8966 H   0  0  0  0  0  0
  -22.3735  -10.9684   19.6187 H   0  0  0  0  0  0
  -21.2057   -7.6160   23.9727 H   0  0  0  0  0  0
  -21.1468   -6.0521   25.9072 H   0  0  0  0  0  0
  -22.0610   -2.7620   23.2838 H   0  0  0  0  0  0
  -22.4084  -11.9851   22.4818 H   0  0  0  0  0  0
  -21.1097  -13.1230   22.2683 H   0  0  0  0  0  0
  -24.6303  -15.8394   20.5371 H   0  0  0  0  0  0
  -26.2333  -15.6452   20.0494 H   0  0  0  0  0  0
  -26.7299  -32.5305   23.0994 H   0  0  0  0  0  0
  -25.0123  -33.9607   25.0354 H   0  0  0  0  0  0
  -22.7637  -31.2904   21.3731 H   0  0  0  0  0  0
  -23.3761  -35.9596   23.3279 H   0  0  0  0  0  0
  -24.3602  -36.8907   22.2060 H   0  0  0  0  0  0
  -23.7241  -37.6453   23.6677 H   0  0  0  0  0  0
  -26.1684  -31.4476   20.6108 H   0  0  0  0  0  0
  -26.8920  -30.7642   22.0276 H   0  0  0  0  0  0
  -28.1338  -28.7323   21.2711 H   0  0  0  0  0  0
  -25.8684  -25.8575   18.9684 H   0  0  0  0  0  0
  -23.9832  -27.3215   18.9631 H   0  0  0  0  0  0
  -23.8447  -30.5768   19.4010 H   0  0  0  0  0  0
  -22.8049  -29.2494   19.8271 H   0  0  0  0  0  0
  -25.1298  -36.1885   25.0809 H   0  0  0  0  0  0
  -21.0027  -28.3346   24.1345 H   0  0  0  0  0  0
  -20.5711  -26.2355   23.3635 H   0  0  0  0  0  0
  -21.6661  -26.7455   22.1184 H   0  0  0  0  0  0
  -19.6920  -25.6303   21.1264 H   0  0  0  0  0  0
  -19.6689  -27.3207   20.6761 H   0  0  0  0  0  0
  -17.4214  -26.6702   21.4036 H   0  0  0  0  0  0
  -18.0325  -26.0091   22.9035 H   0  0  0  0  0  0
  -19.7945  -30.7292   24.2279 H   0  0  0  0  0  0
  -17.5019  -31.6275   24.5167 H   0  0  0  0  0  0
  -15.5362  -30.2996   23.7640 H   0  0  0  0  0  0
  -15.8698  -28.0820   22.7082 H   0  0  0  0  0  0
  -24.5939  -30.7001   25.7708 H   0  0  0  0  0  0
  -24.8795  -32.2918   26.4652 H   0  0  0  0  0  0
  -25.7968  -30.9047   27.0248 H   0  0  0  0  0  0
  -26.2989  -29.6647   24.1281 H   0  0  0  0  0  0
  -27.3995  -29.7220   25.4830 H   0  0  0  0  0  0
  -27.8899  -30.4148   23.9581 H   0  0  0  0  0  0
  -27.2735  -33.3634   26.1964 H   0  0  0  0  0  0
  -28.3975  -32.6694   25.0355 H   0  0  0  0  0  0
  -28.0647  -31.8418   26.5489 H   0  0  0  0  0  0
  -28.2578  -38.0104   24.7514 H   0  0  0  0  0  0
  -28.1084  -36.2624   24.6289 H   0  0  0  0  0  0
  -27.2293  -37.1443   25.8871 H   0  0  0  0  0  0
  -20.9483  -29.8856   21.6838 H   0  0  0  0  0  0
  -26.0156  -38.2818   24.1398 H   0  0  0  0  0  0
  -30.8442  -23.2956   19.8706 H   0  0  0  0  0  0
  -27.1068  -21.4778   20.6662 H   0  0  0  0  0  0
  -28.0885  -17.7533   22.1263 H   0  0  0  0  0  0
  -27.3878  -19.3603   22.0989 H   0  0  0  0  0  0
  -29.0189  -19.1201   22.7124 H   0  0  0  0  0  0
  -27.4672  -17.6604   19.5946 H   0  0  0  0  0  0
  -28.1794  -18.8332   18.4908 H   0  0  0  0  0  0
  -26.9231  -19.3221   19.6145 H   0  0  0  0  0  0
  -27.3254  -24.4349   19.1860 H   0  0  0  0  0  0
  -26.9709  -24.4459   20.8680 H   0  0  0  0  0  0
  -30.5308  -17.9251   19.3892 H   0  0  0  0  0  0
  -30.8602  -18.0074   21.0781 H   0  0  0  0  0  0
  -28.7853  -16.0231   20.6845 H   0  0  0  0  0  0
  1 25  1  0  0  0
  1 30  2  0  0  0
  1 81  1  0  0  0
  2  3  1  0  0  0
  2 25  1  0  0  0
  2 82  1  0  0  0
  2 83  1  0  0  0
  3  4  1  0  0  0
  3 84  1  0  0  0
  3 85  1  0  0  0
  4  5  1  0  0  0
  4 86  1  0  0  0
  4 87  1  0  0  0
  5  6  1  0  0  0
  5 26  1  0  0  0
  5 88  1  0  0  0
  6 25  1  0  0  0
  6 89  1  0  0  0
  6 90  1  0  0  0
  7  8  2  0  0  0
  7 26  1  0  0  0
  7 29  1  0  0  0
  8  9  1  0  0  0
  8 22  1  0  0  0
  9 10  1  0  0  0
  9 27  2  0  0  0
 10 11  2  0  0  0
 10 15  1  0  0  0
 11 12  1  0  0  0
 11 91  1  0  0  0
 12 13  2  0  0  0
 12 92  1  0  0  0
 13 14  1  0  0  0
 13 31  1  0  0  0
 14 15  2  0  0  0
 14 93  1  0  0  0
 15 94  1  0  0  0
 16 17  2  0  0  0
 16 21  1  0  0  0
 16 31  1  0  0  0
 17 18  1  0  0  0
 17 95  1  0  0  0
 18 19  2  0  0  0
 18 96  1  0  0  0
 19 20  1  0  0  0
 19 24  1  0  0  0
 20 21  2  0  0  0
 20 97  1  0  0  0
 21 23  1  0  0  0
 22 28  1  0  0  0
 22 32  2  0  0  0
 26 27  1  0  0  0
 28 98  1  0  0  0
 28 99  1  0  0  0
 29100  1  0  0  0
 29101  1  0  0  0
 33 34  1  0  0  0
 33 66  1  0  0  0
 33 70  2  0  0  0
 34 36  1  0  0  0
 34 59  1  0  0  0
 34102  1  0  0  0
 35 44  2  0  0  0
 35 45  1  0  0  0
 35 68  1  0  0  0
 36 56  1  0  0  0
 36103  1  0  0  0
 37 39  1  0  0  0
 37 47  1  0  0  0
 37 66  1  0  0  0
 37104  1  0  0  0
 38 43  2  0  0  0
 38 46  1  0  0  0
 38 47  1  0  0  0
 39 64  1  0  0  0
 39 67  2  0  0  0
 40 52  1  0  0  0
 40 53  2  0  0  0
 40 58  1  0  0  0
 41105  1  0  0  0
 41106  1  0  0  0
 41107  1  0  0  0
 41 48  1  0  0  0
 42 43  1  0  0  0
 42 66  1  0  0  0
 42108  1  0  0  0
 42109  1  0  0  0
 43 44  1  0  0  0
 44110  1  0  0  0
 45 46  2  0  0  0
 45111  1  0  0  0
 46112  1  0  0  0
 47113  1  0  0  0
 47114  1  0  0  0
 48 56  1  0  0  0
 48 65  1  0  0  0
 48115  1  0  0  0
 49 50  1  0  0  0
 49 53  1  0  0  0
 49 64  1  0  0  0
 49116  1  0  0  0
 50 51  1  0  0  0
 50117  1  0  0  0
 50118  1  0  0  0
 51 52  1  0  0  0
 51119  1  0  0  0
 51120  1  0  0  0
 52121  1  0  0  0
 52122  1  0  0  0
 53 54  1  0  0  0
 54 55  2  0  0  0
 54123  1  0  0  0
 55 57  1  0  0  0
 55124  1  0  0  0
 56 69  2  0  0  0
 57 58  2  0  0  0
 57125  1  0  0  0
 58126  1  0  0  0
 59 60  1  0  0  0
 59 61  1  0  0  0
 59 62  1  0  0  0
 60127  1  0  0  0
 60128  1  0  0  0
 60129  1  0  0  0
 61130  1  0  0  0
 61131  1  0  0  0
 61132  1  0  0  0
 62133  1  0  0  0
 62134  1  0  0  0
 62135  1  0  0  0
 63 65  1  0  0  0
 63136  1  0  0  0
 63137  1  0  0  0
 63138  1  0  0  0
 64139  1  0  0  0
 65140  1  0  0  0
 68 76  1  0  0  0
 71 73  1  0  0  0
 71 79  2  0  0  0
 71141  1  0  0  0
 72 73  2  0  0  0
 72 80  1  0  0  0
 72142  1  0  0  0
 73 76  1  0  0  0
 74143  1  0  0  0
 74144  1  0  0  0
 74145  1  0  0  0
 74 78  1  0  0  0
 75 78  1  0  0  0
 75146  1  0  0  0
 75147  1  0  0  0
 75148  1  0  0  0
 76149  1  0  0  0
 76150  1  0  0  0
 77 78  1  0  0  0
 77 81  1  0  0  0
 77151  1  0  0  0
 77152  1  0  0  0
 78 80  1  0  0  0
 79 80  1  0  0  0
 81153  1  0  0  0
M  ISO  4   1 100  68 101  76 101  81 100
M  END
> <chiral flag>
0

> <version>
0

> <s_m_source_file>
/data/baiqing/PycharmProjects/Reinvent-master-3.2/result/LINK_invent/BTK/process_docking_weight1_custom_sum_contain_oxygen_bond_distance_aromatic_linkinvent_7_9_3/rearranged_h_0060.sdf

> <i_m_source_file_index>
53

> <r_mmod_Potential_Energy-OPLS-2005>
607.370788574219

> <r_mmod_Stretch_Energy-OPLS-2005>
313.990356445312

> <r_mmod_Bend_Energy-OPLS-2005>
309.902282714844

> <r_mmod_Torsional_Energy-OPLS-2005>
255.233734130859

> <r_mmod_Improper_Torsional_Energy-OPLS-2005>
5.08039999008179

> <r_mmod_Van_der_Waal_Energy-OPLS-2005>
111.178840637207

> <r_mmod_Electrostatic_Energy-OPLS-2005>
-408.578430175781

> <r_mmod_Solvation_Energy-OPLS-2005>
-229.802642822266

> <b_mmod_Minimization_Converged-OPLS-2005>
0

> <r_mmod_RMS_Derivative-OPLS-2005>
2.55871605873108

$$$$
56
                    3D
 Structure written by MMmdl.
160168  0  0  1  0            999 V2000
  -30.5272  -14.9550   20.5279 C   0  0  0  0  0  0
  -30.4373  -12.6144   19.5276 C   0  0  0  0  0  0
  -29.5257  -12.5485   18.2765 C   0  0  0  0  0  0
  -28.0569  -12.3114   18.6686 C   0  0  0  0  0  0
  -27.6204  -13.2384   19.8308 C   0  0  2  0  0  0
  -28.6435  -13.2280   20.9835 C   0  0  0  0  0  0
  -25.2397  -13.8177   20.5609 C   0  0  0  0  0  0
  -24.1712  -13.0401   20.9150 C   0  0  0  0  0  0
  -24.6328  -11.6902   20.8689 C   0  0  0  0  0  0
  -23.9023  -10.4275   21.0385 C   0  0  0  0  0  0
  -24.3587   -9.4207   21.9175 C   0  0  0  0  0  0
  -23.6268   -8.2243   22.0756 C   0  0  0  0  0  0
  -22.4258   -8.0263   21.3533 C   0  0  0  0  0  0
  -21.9876   -9.0232   20.4646 C   0  0  0  0  0  0
  -22.7200  -10.2109   20.3049 C   0  0  0  0  0  0
  -21.6849   -6.0723   22.5275 C   0  0  0  0  0  0
  -21.4031   -6.5636   23.8214 C   0  0  0  0  0  0
  -21.3649   -5.6788   24.9167 C   0  0  0  0  0  0
  -21.6036   -4.3049   24.7225 C   0  0  0  0  0  0
  -21.8821   -3.8138   23.4352 C   0  0  0  0  0  0
  -21.9195   -4.6955   22.3403 C   0  0  0  0  0  0
  -22.7760  -13.5205   21.1854 C   0  0  0  0  0  0
  -22.1661   -4.2149   21.0978 F   0  0  0  0  0  0
  -21.5607   -3.4528   25.7734 F   0  0  0  0  0  0
  -29.9325  -13.6868   20.4418 N   0  0  0  0  0  0
  -26.2775  -12.9377   20.3069 N   0  0  0  0  0  0
  -25.9233  -11.6529   20.5603 N   0  0  0  0  0  0
  -22.0431  -12.8200   22.0443 N   0  0  0  0  0  0
  -25.4114  -15.1906   20.4111 N   0  0  0  0  0  0
  -31.6693  -15.0554   20.0639 O   0  0  0  0  0  0
  -21.6626   -6.8859   21.4234 O   0  0  0  0  0  0
  -22.3439  -14.5515   20.6711 O   0  0  0  0  0  0
  -24.6435  -31.8441   23.1895 C   0  0  0  0  0  0
  -25.9216  -32.4703   23.8276 C   0  0  1  0  0  0
  -27.2281  -27.1157   20.1694 C   0  0  0  0  0  0
  -25.5968  -33.8506   24.2207 N   0  0  0  0  0  0
  -23.4478  -30.4615   21.5357 C   0  0  2  0  0  0
  -24.9049  -28.8865   20.1106 C   0  0  0  0  0  0
  -22.7556  -29.4529   22.4855 C   0  0  0  0  0  0
  -18.0286  -28.1372   22.8473 C   0  0  0  0  0  0
  -24.1477  -36.7237   23.2637 C   0  0  0  0  0  0
  -26.0052  -30.7105   21.3932 C   0  0  0  0  0  0
  -26.0820  -29.3194   20.7355 C   0  0  0  0  0  0
  -27.2413  -28.4528   20.7465 C   0  0  0  0  0  0
  -26.0278  -26.7942   19.4921 C   0  0  0  0  0  0
  -24.8952  -27.6378   19.4696 C   0  0  0  0  0  0
  -23.6798  -29.7893   20.1547 C   0  0  0  0  0  0
  -25.4116  -36.3028   24.0301 C   0  0  1  0  0  0
  -20.5907  -28.3713   23.1209 C   0  0  2  0  0  0
  -20.6790  -26.9411   22.5393 C   0  0  0  0  0  0
  -19.5774  -26.6363   21.5195 C   0  0  0  0  0  0
  -18.1946  -26.7915   22.1591 C   0  0  0  0  0  0
  -19.1552  -28.8856   23.2833 C   0  0  0  0  0  0
  -18.9479  -30.1448   23.8861 C   0  0  0  0  0  0
  -17.6485  -30.6593   24.0536 C   0  0  0  0  0  0
  -25.9069  -34.9401   23.5056 C   0  0  0  0  0  0
  -16.5374  -29.9082   23.6336 C   0  0  0  0  0  0
  -16.7277  -28.6490   23.0379 C   0  0  0  0  0  0
  -26.4557  -31.6575   25.0718 C   0  0  0  0  0  0
  -25.3718  -31.3745   26.1391 C   0  0  0  0  0  0
  -27.0443  -30.2973   24.6301 C   0  0  0  0  0  0
  -27.6084  -32.4373   25.7502 C   0  0  0  0  0  0
  -27.5564  -37.1749   24.8461 C   0  0  0  0  0  0
  -21.4253  -29.3045   22.3587 N   0  0  0  0  0  0
  -26.4275  -37.3740   23.9404 N   0  0  0  0  0  0
  -24.7187  -31.0259   22.0949 N   0  0  0  0  0  0
  -23.4194  -28.8068   23.3003 O   0  0  0  0  0  0
  -28.2701  -26.1126   20.2805 O   0  0  0  0  0  0
  -26.5638  -34.8881   22.4628 O   0  0  0  0  0  0
  -23.5563  -32.1342   23.7105 O   0  0  0  0  0  0
  -27.3040  -21.7977   19.0038 C   0  0  0  0  0  0
  -26.9798  -20.5531   18.5660 C   0  0  0  0  0  0
  -28.6697  -20.3013   20.0297 C   0  0  0  0  0  0
  -29.2230  -19.2798   22.2905 C   0  0  0  0  0  0
  -31.0612  -19.6076   20.6703 C   0  0  0  0  0  0
  -29.5508  -16.1754   22.4056 C   0  0  0  0  0  0
  -28.8453  -23.1462   20.4526 C   0  0  0  0  0  0
  -29.5233  -17.5290   20.2465 C   0  0  0  0  0  0
  -28.0023  -24.5863   20.0361 C   0  0  0  0  0  0
  -29.5926  -19.1743   20.7997 C   0  0  0  0  0  0
  -28.3526  -21.7133   19.9061 N   0  0  0  0  0  0
  -27.7992  -19.6944   19.2167 N   0  3  0  0  0  0
  -29.8184  -16.1275   20.9661 N   0  0  0  0  0  0
  -31.4653  -12.7988   19.2134 H   0  0  0  0  0  0
  -30.4598  -11.6553   20.0476 H   0  0  0  0  0  0
  -29.8704  -11.7626   17.6028 H   0  0  0  0  0  0
  -29.5972  -13.4863   17.7225 H   0  0  0  0  0  0
  -27.9521  -11.2652   18.9625 H   0  0  0  0  0  0
  -27.4078  -12.4413   17.8024 H   0  0  0  0  0  0
  -27.5924  -14.2439   19.4098 H   0  0  0  0  0  0
  -28.7240  -12.2233   21.4020 H   0  0  0  0  0  0
  -28.2847  -13.8531   21.7962 H   0  0  0  0  0  0
  -25.2732   -9.5688   22.4746 H   0  0  0  0  0  0
  -23.9977   -7.4636   22.7483 H   0  0  0  0  0  0
  -21.0799   -8.8739   19.8960 H   0  0  0  0  0  0
  -22.3644  -10.9635   19.6151 H   0  0  0  0  0  0
  -21.2058   -7.6151   23.9719 H   0  0  0  0  0  0
  -21.1451   -6.0513   25.9067 H   0  0  0  0  0  0
  -22.0617   -2.7606   23.2844 H   0  0  0  0  0  0
  -22.4052  -11.9851   22.4785 H   0  0  0  0  0  0
  -21.1055  -13.1233   22.2690 H   0  0  0  0  0  0
  -24.6505  -15.8480   20.5481 H   0  0  0  0  0  0
  -26.2776  -15.6299   20.1288 H   0  0  0  0  0  0
  -26.7267  -32.5323   23.0985 H   0  0  0  0  0  0
  -25.0125  -33.9627   25.0365 H   0  0  0  0  0  0
  -22.7501  -31.2874   21.3796 H   0  0  0  0  0  0
  -23.3753  -35.9546   23.3313 H   0  0  0  0  0  0
  -24.3551  -36.8891   22.2052 H   0  0  0  0  0  0
  -23.7225  -37.6417   23.6698 H   0  0  0  0  0  0
  -26.1569  -31.4622   20.6180 H   0  0  0  0  0  0
  -26.8779  -30.7679   22.0318 H   0  0  0  0  0  0
  -28.1332  -28.7773   21.2649 H   0  0  0  0  0  0
  -25.9275  -25.8384   18.9998 H   0  0  0  0  0  0
  -23.9983  -27.3034   18.9657 H   0  0  0  0  0  0
  -23.8128  -30.5686   19.4033 H   0  0  0  0  0  0
  -22.7950  -29.2317   19.8436 H   0  0  0  0  0  0
  -25.1301  -36.1845   25.0789 H   0  0  0  0  0  0
  -20.9976  -28.3331   24.1340 H   0  0  0  0  0  0
  -20.5692  -26.2318   23.3613 H   0  0  0  0  0  0
  -21.6655  -26.7425   22.1182 H   0  0  0  0  0  0
  -19.6944  -25.6257   21.1260 H   0  0  0  0  0  0
  -19.6746  -27.3129   20.6692 H   0  0  0  0  0  0
  -17.4219  -26.6652   21.3995 H   0  0  0  0  0  0
  -18.0352  -26.0045   22.8974 H   0  0  0  0  0  0
  -19.7961  -30.7243   24.2255 H   0  0  0  0  0  0
  -17.5058  -31.6279   24.5116 H   0  0  0  0  0  0
  -15.5380  -30.2989   23.7696 H   0  0  0  0  0  0
  -15.8656  -28.0797   22.7160 H   0  0  0  0  0  0
  -24.5940  -30.7056   25.7700 H   0  0  0  0  0  0
  -24.8820  -32.2893   26.4721 H   0  0  0  0  0  0
  -25.7961  -30.8990   27.0235 H   0  0  0  0  0  0
  -26.3057  -29.6671   24.1323 H   0  0  0  0  0  0
  -27.4092  -29.7311   25.4882 H   0  0  0  0  0  0
  -27.8959  -30.4244   23.9613 H   0  0  0  0  0  0
  -27.2710  -33.3752   26.1922 H   0  0  0  0  0  0
  -28.3954  -32.6817   25.0359 H   0  0  0  0  0  0
  -28.0666  -31.8597   26.5532 H   0  0  0  0  0  0
  -28.2546  -38.0085   24.7547 H   0  0  0  0  0  0
  -28.1106  -36.2596   24.6270 H   0  0  0  0  0  0
  -27.2263  -37.1386   25.8863 H   0  0  0  0  0  0
  -20.9465  -29.8764   21.6772 H   0  0  0  0  0  0
  -26.0145  -38.2784   24.1497 H   0  0  0  0  0  0
  -26.8347  -22.7186   18.7009 H   0  0  0  0  0  0
  -26.2315  -20.2221   17.8594 H   0  0  0  0  0  0
  -29.3308  -20.2972   22.6664 H   0  0  0  0  0  0
  -29.8880  -18.6903   22.9167 H   0  0  0  0  0  0
  -28.1948  -18.9639   22.4746 H   0  0  0  0  0  0
  -31.2278  -20.6087   21.0694 H   0  0  0  0  0  0
  -31.3770  -19.6180   19.6274 H   0  0  0  0  0  0
  -31.7203  -18.9281   21.2079 H   0  0  0  0  0  0
  -30.4049  -16.6241   22.9103 H   0  0  0  0  0  0
  -29.4292  -15.2119   22.8943 H   0  0  0  0  0  0
  -28.6458  -16.7437   22.6185 H   0  0  0  0  0  0
  -28.9021  -23.0645   21.5396 H   0  0  0  0  0  0
  -29.8760  -23.2483   20.1145 H   0  0  0  0  0  0
  -30.0683  -17.4881   19.3020 H   0  0  0  0  0  0
  -28.4856  -17.3621   19.9623 H   0  0  0  0  0  0
  -26.9964  -24.4160   20.4205 H   0  0  0  0  0  0
  -27.9185  -24.5555   18.9504 H   0  0  0  0  0  0
  -27.7552  -18.6898   19.1047 H   0  0  0  0  0  0
  1 25  1  0  0  0
  1 30  2  0  0  0
  1 83  1  0  0  0
  2  3  1  0  0  0
  2 25  1  0  0  0
  2 84  1  0  0  0
  2 85  1  0  0  0
  3  4  1  0  0  0
  3 86  1  0  0  0
  3 87  1  0  0  0
  4  5  1  0  0  0
  4 88  1  0  0  0
  4 89  1  0  0  0
  5  6  1  0  0  0
  5 26  1  0  0  0
  5 90  1  0  0  0
  6 25  1  0  0  0
  6 91  1  0  0  0
  6 92  1  0  0  0
  7  8  2  0  0  0
  7 26  1  0  0  0
  7 29  1  0  0  0
  8  9  1  0  0  0
  8 22  1  0  0  0
  9 10  1  0  0  0
  9 27  2  0  0  0
 10 11  2  0  0  0
 10 15  1  0  0  0
 11 12  1  0  0  0
 11 93  1  0  0  0
 12 13  2  0  0  0
 12 94  1  0  0  0
 13 14  1  0  0  0
 13 31  1  0  0  0
 14 15  2  0  0  0
 14 95  1  0  0  0
 15 96  1  0  0  0
 16 17  2  0  0  0
 16 21  1  0  0  0
 16 31  1  0  0  0
 17 18  1  0  0  0
 17 97  1  0  0  0
 18 19  2  0  0  0
 18 98  1  0  0  0
 19 20  1  0  0  0
 19 24  1  0  0  0
 20 21  2  0  0  0
 20 99  1  0  0  0
 21 23  1  0  0  0
 22 28  1  0  0  0
 22 32  2  0  0  0
 26 27  1  0  0  0
 28100  1  0  0  0
 28101  1  0  0  0
 29102  1  0  0  0
 29103  1  0  0  0
 33 34  1  0  0  0
 33 66  1  0  0  0
 33 70  2  0  0  0
 34 36  1  0  0  0
 34 59  1  0  0  0
 34104  1  0  0  0
 35 44  2  0  0  0
 35 45  1  0  0  0
 35 68  1  0  0  0
 36 56  1  0  0  0
 36105  1  0  0  0
 37 39  1  0  0  0
 37 47  1  0  0  0
 37 66  1  0  0  0
 37106  1  0  0  0
 38 43  2  0  0  0
 38 46  1  0  0  0
 38 47  1  0  0  0
 39 64  1  0  0  0
 39 67  2  0  0  0
 40 52  1  0  0  0
 40 53  2  0  0  0
 40 58  1  0  0  0
 41107  1  0  0  0
 41108  1  0  0  0
 41109  1  0  0  0
 41 48  1  0  0  0
 42 43  1  0  0  0
 42 66  1  0  0  0
 42110  1  0  0  0
 42111  1  0  0  0
 43 44  1  0  0  0
 44112  1  0  0  0
 45 46  2  0  0  0
 45113  1  0  0  0
 46114  1  0  0  0
 47115  1  0  0  0
 47116  1  0  0  0
 48 56  1  0  0  0
 48 65  1  0  0  0
 48117  1  0  0  0
 49 50  1  0  0  0
 49 53  1  0  0  0
 49 64  1  0  0  0
 49118  1  0  0  0
 50 51  1  0  0  0
 50119  1  0  0  0
 50120  1  0  0  0
 51 52  1  0  0  0
 51121  1  0  0  0
 51122  1  0  0  0
 52123  1  0  0  0
 52124  1  0  0  0
 53 54  1  0  0  0
 54 55  2  0  0  0
 54125  1  0  0  0
 55 57  1  0  0  0
 55126  1  0  0  0
 56 69  2  0  0  0
 57 58  2  0  0  0
 57127  1  0  0  0
 58128  1  0  0  0
 59 60  1  0  0  0
 59 61  1  0  0  0
 59 62  1  0  0  0
 60129  1  0  0  0
 60130  1  0  0  0
 60131  1  0  0  0
 61132  1  0  0  0
 61133  1  0  0  0
 61134  1  0  0  0
 62135  1  0  0  0
 62136  1  0  0  0
 62137  1  0  0  0
 63 65  1  0  0  0
 63138  1  0  0  0
 63139  1  0  0  0
 63140  1  0  0  0
 64141  1  0  0  0
 65142  1  0  0  0
 68 79  1  0  0  0
 71 72  2  0  0  0
 71 81  1  0  0  0
 71143  1  0  0  0
 72 82  1  0  0  0
 72144  1  0  0  0
 73 80  1  0  0  0
 73 81  1  0  0  0
 73 82  2  0  0  0
 74145  1  0  0  0
 74146  1  0  0  0
 74147  1  0  0  0
 74 80  1  0  0  0
 75 80  1  0  0  0
 75148  1  0  0  0
 75149  1  0  0  0
 75150  1  0  0  0
 76 83  1  0  0  0
 76151  1  0  0  0
 76152  1  0  0  0
 76153  1  0  0  0
 77 79  1  0  0  0
 77 81  1  0  0  0
 77154  1  0  0  0
 77155  1  0  0  0
 78 80  1  0  0  0
 78 83  1  0  0  0
 78156  1  0  0  0
 78157  1  0  0  0
 79158  1  0  0  0
 79159  1  0  0  0
 82160  1  0  0  0
M  CHG  1  82   1
M  ISO  4   1 100  68 101  79 101  83 100
M  END
> <chiral flag>
0

> <version>
0

> <s_m_source_file>
/data/baiqing/PycharmProjects/Reinvent-master-3.2/result/LINK_invent/BTK/process_docking_weight1_custom_sum_contain_oxygen_bond_distance_aromatic_linkinvent_7_9_3/rearranged_h_0060.sdf

> <i_m_source_file_index>
54

> <r_mmod_Potential_Energy-OPLS-2005>
785.429016113281

> <r_mmod_Stretch_Energy-OPLS-2005>
338.544708251953

> <r_mmod_Bend_Energy-OPLS-2005>
361.781036376953

> <r_mmod_Torsional_Energy-OPLS-2005>
332.598541259766

> <r_mmod_Improper_Torsional_Energy-OPLS-2005>
3.93369054794312

> <r_mmod_Van_der_Waal_Energy-OPLS-2005>
123.271751403809

> <r_mmod_Electrostatic_Energy-OPLS-2005>
-151.209030151367

> <r_mmod_Solvation_Energy-OPLS-2005>
-428.429840087891

> <b_mmod_Minimization_Converged-OPLS-2005>
0

> <r_mmod_RMS_Derivative-OPLS-2005>
4.4871187210083

$$$$
57
                    3D
 Structure written by MMmdl.
156164  0  0  1  0            999 V2000
  -30.5910  -14.9817   20.3286 C   0  0  0  0  0  0
  -30.4198  -12.6007   19.4932 C   0  0  0  0  0  0
  -29.5101  -12.4922   18.2510 C   0  0  0  0  0  0
  -28.0491  -12.2757   18.6797 C   0  0  0  0  0  0
  -27.6121  -13.2404   19.8111 C   0  0  2  0  0  0
  -28.6564  -13.3691   20.9339 C   0  0  0  0  0  0
  -25.2426  -13.8164   20.5648 C   0  0  0  0  0  0
  -24.1752  -13.0407   20.9206 C   0  0  0  0  0  0
  -24.6365  -11.6889   20.8767 C   0  0  0  0  0  0
  -23.9047  -10.4276   21.0423 C   0  0  0  0  0  0
  -24.3599   -9.4188   21.9194 C   0  0  0  0  0  0
  -23.6272   -8.2238   22.0769 C   0  0  0  0  0  0
  -22.4255   -8.0286   21.3555 C   0  0  0  0  0  0
  -21.9892   -9.0253   20.4657 C   0  0  0  0  0  0
  -22.7225  -10.2126   20.3074 C   0  0  0  0  0  0
  -21.6856   -6.0742   22.5275 C   0  0  0  0  0  0
  -21.4020   -6.5647   23.8208 C   0  0  0  0  0  0
  -21.3659   -5.6801   24.9174 C   0  0  0  0  0  0
  -21.6035   -4.3064   24.7226 C   0  0  0  0  0  0
  -21.8811   -3.8160   23.4342 C   0  0  0  0  0  0
  -21.9196   -4.6971   22.3397 C   0  0  0  0  0  0
  -22.7782  -13.5187   21.1910 C   0  0  0  0  0  0
  -22.1667   -4.2154   21.0980 F   0  0  0  0  0  0
  -21.5617   -3.4550   25.7738 F   0  0  0  0  0  0
  -29.9282  -13.7511   20.3087 N   0  0  0  0  0  0
  -26.2827  -12.9373   20.3206 N   0  0  0  0  0  0
  -25.9304  -11.6512   20.5777 N   0  0  0  0  0  0
  -22.0451  -12.8171   22.0459 N   0  0  0  0  0  0
  -25.4094  -15.1880   20.3938 N   0  0  0  0  0  0
  -31.8205  -14.8599   20.3280 O   0  0  0  0  0  0
  -21.6630   -6.8881   21.4240 O   0  0  0  0  0  0
  -22.3456  -14.5507   20.6787 O   0  0  0  0  0  0
  -24.6429  -31.8471   23.1902 C   0  0  0  0  0  0
  -25.9199  -32.4709   23.8297 C   0  0  1  0  0  0
  -27.2192  -27.1572   20.1302 C   0  0  0  0  0  0
  -25.5967  -33.8514   24.2216 N   0  0  0  0  0  0
  -23.4457  -30.4674   21.5376 C   0  0  2  0  0  0
  -24.8920  -28.8978   20.1134 C   0  0  0  0  0  0
  -22.7565  -29.4568   22.4885 C   0  0  0  0  0  0
  -18.0307  -28.1384   22.8480 C   0  0  0  0  0  0
  -24.1498  -36.7251   23.2641 C   0  0  0  0  0  0
  -26.0026  -30.7234   21.3895 C   0  0  0  0  0  0
  -26.0718  -29.3379   20.7262 C   0  0  0  0  0  0
  -27.2373  -28.4847   20.7176 C   0  0  0  0  0  0
  -26.0084  -26.8154   19.4873 C   0  0  0  0  0  0
  -24.8708  -27.6467   19.4832 C   0  0  0  0  0  0
  -23.6701  -29.7979   20.1582 C   0  0  0  0  0  0
  -25.4129  -36.3045   24.0319 C   0  0  1  0  0  0
  -20.5914  -28.3728   23.1231 C   0  0  2  0  0  0
  -20.6795  -26.9437   22.5395 C   0  0  0  0  0  0
  -19.5767  -26.6385   21.5210 C   0  0  0  0  0  0
  -18.1946  -26.7925   22.1618 C   0  0  0  0  0  0
  -19.1558  -28.8873   23.2841 C   0  0  0  0  0  0
  -18.9473  -30.1466   23.8872 C   0  0  0  0  0  0
  -17.6472  -30.6588   24.0558 C   0  0  0  0  0  0
  -25.9074  -34.9413   23.5068 C   0  0  0  0  0  0
  -16.5364  -29.9079   23.6334 C   0  0  0  0  0  0
  -16.7292  -28.6495   23.0369 C   0  0  0  0  0  0
  -26.4530  -31.6556   25.0725 C   0  0  0  0  0  0
  -25.3735  -31.3733   26.1442 C   0  0  0  0  0  0
  -27.0390  -30.2950   24.6309 C   0  0  0  0  0  0
  -27.6075  -32.4318   25.7498 C   0  0  0  0  0  0
  -27.5579  -37.1784   24.8459 C   0  0  0  0  0  0
  -21.4262  -29.3049   22.3604 N   0  0  0  0  0  0
  -26.4300  -37.3750   23.9403 N   0  0  0  0  0  0
  -24.7170  -31.0347   22.0928 N   0  0  0  0  0  0
  -23.4209  -28.8126   23.3046 O   0  0  0  0  0  0
  -28.2783  -26.1795   20.1715 O   0  0  0  0  0  0
  -26.5664  -34.8905   22.4650 O   0  0  0  0  0  0
  -23.5551  -32.1353   23.7120 O   0  0  0  0  0  0
  -27.7622  -17.8531   22.2814 C   0  0  0  0  0  0
  -28.9348  -18.9371   20.9013 C   0  0  0  0  0  0
  -31.2960  -17.3386   19.4603 C   0  0  0  0  0  0
  -29.1711  -16.3858   18.6261 C   0  0  0  0  0  0
  -29.4201  -20.3293   20.2212 C   0  0  0  0  0  0
  -28.5143  -21.7541   20.3442 C   0  0  0  0  0  0
  -29.0149  -23.3504   20.1585 C   0  0  0  0  0  0
  -27.9679  -24.6597   20.0963 C   0  0  0  0  0  0
  -30.0389  -16.5356   19.8956 C   0  0  0  0  0  0
  -28.0328  -19.1192   21.8686 N   0  0  0  0  0  0
  -28.4520  -16.8903   21.6880 N   0  0  0  0  0  0
  -29.2589  -17.5327   20.8039 N   0  0  0  0  0  0
  -31.4557  -12.7263   19.1748 H   0  0  0  0  0  0
  -30.3943  -11.6786   20.0766 H   0  0  0  0  0  0
  -29.8333  -11.6727   17.6082 H   0  0  0  0  0  0
  -29.5920  -13.3982   17.6522 H   0  0  0  0  0  0
  -27.9651  -11.2451   19.0272 H   0  0  0  0  0  0
  -27.3820  -12.3654   17.8232 H   0  0  0  0  0  0
  -27.5360  -14.2069   19.3265 H   0  0  0  0  0  0
  -28.7576  -12.4397   21.4932 H   0  0  0  0  0  0
  -28.3466  -14.1315   21.6496 H   0  0  0  0  0  0
  -25.2742   -9.5659   22.4763 H   0  0  0  0  0  0
  -23.9979   -7.4624   22.7479 H   0  0  0  0  0  0
  -21.0847   -8.8767   19.8938 H   0  0  0  0  0  0
  -22.3699  -10.9671   19.6180 H   0  0  0  0  0  0
  -21.2022   -7.6154   23.9706 H   0  0  0  0  0  0
  -21.1484   -6.0541   25.9069 H   0  0  0  0  0  0
  -22.0587   -2.7624   23.2843 H   0  0  0  0  0  0
  -22.4105  -11.9824   22.4805 H   0  0  0  0  0  0
  -21.1075  -13.1204   22.2738 H   0  0  0  0  0  0
  -24.6267  -15.8323   20.4296 H   0  0  0  0  0  0
  -26.2722  -15.6230   20.0905 H   0  0  0  0  0  0
  -26.7273  -32.5313   23.1034 H   0  0  0  0  0  0
  -25.0109  -33.9646   25.0368 H   0  0  0  0  0  0
  -22.7464  -31.2920   21.3836 H   0  0  0  0  0  0
  -23.3778  -35.9559   23.3283 H   0  0  0  0  0  0
  -24.3590  -36.8914   22.2058 H   0  0  0  0  0  0
  -23.7236  -37.6431   23.6699 H   0  0  0  0  0  0
  -26.1660  -31.4807   20.6213 H   0  0  0  0  0  0
  -26.8696  -30.7658   22.0378 H   0  0  0  0  0  0
  -28.1372  -28.8202   21.2125 H   0  0  0  0  0  0
  -25.8971  -25.8687   18.9847 H   0  0  0  0  0  0
  -23.9694  -27.3012   18.9957 H   0  0  0  0  0  0
  -23.8049  -30.5719   19.4021 H   0  0  0  0  0  0
  -22.7866  -29.2381   19.8487 H   0  0  0  0  0  0
  -25.1321  -36.1871   25.0815 H   0  0  0  0  0  0
  -21.0004  -28.3318   24.1356 H   0  0  0  0  0  0
  -20.5712  -26.2349   23.3619 H   0  0  0  0  0  0
  -21.6658  -26.7456   22.1183 H   0  0  0  0  0  0
  -19.6936  -25.6296   21.1252 H   0  0  0  0  0  0
  -19.6690  -27.3186   20.6735 H   0  0  0  0  0  0
  -17.4220  -26.6678   21.4016 H   0  0  0  0  0  0
  -18.0334  -26.0062   22.9013 H   0  0  0  0  0  0
  -19.7947  -30.7279   24.2240 H   0  0  0  0  0  0
  -17.5029  -31.6269   24.5160 H   0  0  0  0  0  0
  -15.5366  -30.2979   23.7672 H   0  0  0  0  0  0
  -15.8696  -28.0807   22.7115 H   0  0  0  0  0  0
  -24.5847  -30.7183   25.7732 H   0  0  0  0  0  0
  -24.9023  -32.2919   26.4937 H   0  0  0  0  0  0
  -25.8023  -30.8807   27.0182 H   0  0  0  0  0  0
  -26.3003  -29.6668   24.1322 H   0  0  0  0  0  0
  -27.4005  -29.7256   25.4883 H   0  0  0  0  0  0
  -27.8921  -30.4182   23.9632 H   0  0  0  0  0  0
  -27.2678  -33.3627   26.2053 H   0  0  0  0  0  0
  -28.3882  -32.6871   25.0316 H   0  0  0  0  0  0
  -28.0753  -31.8464   26.5428 H   0  0  0  0  0  0
  -28.2583  -38.0092   24.7534 H   0  0  0  0  0  0
  -28.1103  -36.2632   24.6272 H   0  0  0  0  0  0
  -27.2305  -37.1403   25.8864 H   0  0  0  0  0  0
  -20.9489  -29.8750   21.6766 H   0  0  0  0  0  0
  -26.0164  -38.2822   24.1409 H   0  0  0  0  0  0
  -27.0225  -17.6318   23.0372 H   0  0  0  0  0  0
  -31.0402  -18.2853   18.9866 H   0  0  0  0  0  0
  -31.9063  -16.7975   18.7352 H   0  0  0  0  0  0
  -31.9277  -17.5721   20.3181 H   0  0  0  0  0  0
  -29.1551  -17.3076   18.0440 H   0  0  0  0  0  0
  -28.1320  -16.1798   18.8701 H   0  0  0  0  0  0
  -29.5371  -15.6067   17.9629 H   0  0  0  0  0  0
  -29.5936  -20.1341   19.1632 H   0  0  0  0  0  0
  -30.4090  -20.5323   20.6339 H   0  0  0  0  0  0
  -28.0806  -21.7401   21.3432 H   0  0  0  0  0  0
  -27.6569  -21.6158   19.6842 H   0  0  0  0  0  0
  -29.6162  -23.4012   19.2501 H   0  0  0  0  0  0
  -29.7215  -23.5519   20.9630 H   0  0  0  0  0  0
  -27.2164  -24.4833   20.8670 H   0  0  0  0  0  0
  -27.4490  -24.5069   19.1522 H   0  0  0  0  0  0
  1 25  1  0  0  0
  1 30  2  0  0  0
  1 79  1  0  0  0
  2  3  1  0  0  0
  2 25  1  0  0  0
  2 83  1  0  0  0
  2 84  1  0  0  0
  3  4  1  0  0  0
  3 85  1  0  0  0
  3 86  1  0  0  0
  4  5  1  0  0  0
  4 87  1  0  0  0
  4 88  1  0  0  0
  5  6  1  0  0  0
  5 26  1  0  0  0
  5 89  1  0  0  0
  6 25  1  0  0  0
  6 90  1  0  0  0
  6 91  1  0  0  0
  7  8  2  0  0  0
  7 26  1  0  0  0
  7 29  1  0  0  0
  8  9  1  0  0  0
  8 22  1  0  0  0
  9 10  1  0  0  0
  9 27  2  0  0  0
 10 11  2  0  0  0
 10 15  1  0  0  0
 11 12  1  0  0  0
 11 92  1  0  0  0
 12 13  2  0  0  0
 12 93  1  0  0  0
 13 14  1  0  0  0
 13 31  1  0  0  0
 14 15  2  0  0  0
 14 94  1  0  0  0
 15 95  1  0  0  0
 16 17  2  0  0  0
 16 21  1  0  0  0
 16 31  1  0  0  0
 17 18  1  0  0  0
 17 96  1  0  0  0
 18 19  2  0  0  0
 18 97  1  0  0  0
 19 20  1  0  0  0
 19 24  1  0  0  0
 20 21  2  0  0  0
 20 98  1  0  0  0
 21 23  1  0  0  0
 22 28  1  0  0  0
 22 32  2  0  0  0
 26 27  1  0  0  0
 28 99  1  0  0  0
 28100  1  0  0  0
 29101  1  0  0  0
 29102  1  0  0  0
 33 34  1  0  0  0
 33 66  1  0  0  0
 33 70  2  0  0  0
 34 36  1  0  0  0
 34 59  1  0  0  0
 34103  1  0  0  0
 35 44  2  0  0  0
 35 45  1  0  0  0
 35 68  1  0  0  0
 36 56  1  0  0  0
 36104  1  0  0  0
 37 39  1  0  0  0
 37 47  1  0  0  0
 37 66  1  0  0  0
 37105  1  0  0  0
 38 43  2  0  0  0
 38 46  1  0  0  0
 38 47  1  0  0  0
 39 64  1  0  0  0
 39 67  2  0  0  0
 40 52  1  0  0  0
 40 53  2  0  0  0
 40 58  1  0  0  0
 41106  1  0  0  0
 41107  1  0  0  0
 41108  1  0  0  0
 41 48  1  0  0  0
 42 43  1  0  0  0
 42 66  1  0  0  0
 42109  1  0  0  0
 42110  1  0  0  0
 43 44  1  0  0  0
 44111  1  0  0  0
 45 46  2  0  0  0
 45112  1  0  0  0
 46113  1  0  0  0
 47114  1  0  0  0
 47115  1  0  0  0
 48 56  1  0  0  0
 48 65  1  0  0  0
 48116  1  0  0  0
 49 50  1  0  0  0
 49 53  1  0  0  0
 49 64  1  0  0  0
 49117  1  0  0  0
 50 51  1  0  0  0
 50118  1  0  0  0
 50119  1  0  0  0
 51 52  1  0  0  0
 51120  1  0  0  0
 51121  1  0  0  0
 52122  1  0  0  0
 52123  1  0  0  0
 53 54  1  0  0  0
 54 55  2  0  0  0
 54124  1  0  0  0
 55 57  1  0  0  0
 55125  1  0  0  0
 56 69  2  0  0  0
 57 58  2  0  0  0
 57126  1  0  0  0
 58127  1  0  0  0
 59 60  1  0  0  0
 59 61  1  0  0  0
 59 62  1  0  0  0
 60128  1  0  0  0
 60129  1  0  0  0
 60130  1  0  0  0
 61131  1  0  0  0
 61132  1  0  0  0
 61133  1  0  0  0
 62134  1  0  0  0
 62135  1  0  0  0
 62136  1  0  0  0
 63 65  1  0  0  0
 63137  1  0  0  0
 63138  1  0  0  0
 63139  1  0  0  0
 64140  1  0  0  0
 65141  1  0  0  0
 68 78  1  0  0  0
 71 80  1  0  0  0
 71 81  2  0  0  0
 71142  1  0  0  0
 72 75  1  0  0  0
 72 80  2  0  0  0
 72 82  1  0  0  0
 73143  1  0  0  0
 73144  1  0  0  0
 73145  1  0  0  0
 73 79  1  0  0  0
 74 79  1  0  0  0
 74146  1  0  0  0
 74147  1  0  0  0
 74148  1  0  0  0
 75 76  1  0  0  0
 75149  1  0  0  0
 75150  1  0  0  0
 76 77  1  0  0  0
 76151  1  0  0  0
 76152  1  0  0  0
 77 78  1  0  0  0
 77153  1  0  0  0
 77154  1  0  0  0
 78155  1  0  0  0
 78156  1  0  0  0
 79 82  1  0  0  0
 81 82  1  0  0  0
M  ISO  4   1 100  68 101  78 101  79 100
M  END
> <chiral flag>
0

> <version>
0

> <s_m_source_file>
/data/baiqing/PycharmProjects/Reinvent-master-3.2/result/LINK_invent/BTK/process_docking_weight1_custom_sum_contain_oxygen_bond_distance_aromatic_linkinvent_7_9_3/rearranged_h_0060.sdf

> <i_m_source_file_index>
55

> <r_mmod_Potential_Energy-OPLS-2005>
705.368041992188

> <r_mmod_Stretch_Energy-OPLS-2005>
276.187683105469

> <r_mmod_Bend_Energy-OPLS-2005>
319.244323730469

> <r_mmod_Torsional_Energy-OPLS-2005>
256.716613769531

> <r_mmod_Improper_Torsional_Energy-OPLS-2005>
13.4819240570068

> <r_mmod_Van_der_Waal_Energy-OPLS-2005>
117.040969848633

> <r_mmod_Electrostatic_Energy-OPLS-2005>
-286.297119140625

> <r_mmod_Solvation_Energy-OPLS-2005>
-198.369094848633

> <b_mmod_Minimization_Converged-OPLS-2005>
0

> <r_mmod_RMS_Derivative-OPLS-2005>
2.91548800468445

$$$$
58
                    3D
 Structure written by MMmdl.
159167  0  0  1  0            999 V2000
  -30.5268  -15.0300   20.4474 C   0  0  0  0  0  0
  -30.4440  -12.6564   19.4965 C   0  0  0  0  0  0
  -29.5220  -12.5615   18.2564 C   0  0  0  0  0  0
  -28.0533  -12.3399   18.6694 C   0  0  0  0  0  0
  -27.6285  -13.2553   19.8463 C   0  0  2  0  0  0
  -28.6797  -13.2498   20.9759 C   0  0  0  0  0  0
  -25.2403  -13.8197   20.5681 C   0  0  0  0  0  0
  -24.1748  -13.0422   20.9236 C   0  0  0  0  0  0
  -24.6402  -11.6919   20.8780 C   0  0  0  0  0  0
  -23.9093  -10.4290   21.0428 C   0  0  0  0  0  0
  -24.3634   -9.4208   21.9211 C   0  0  0  0  0  0
  -23.6302   -8.2243   22.0756 C   0  0  0  0  0  0
  -22.4289   -8.0290   21.3543 C   0  0  0  0  0  0
  -21.9934   -9.0266   20.4647 C   0  0  0  0  0  0
  -22.7261  -10.2146   20.3067 C   0  0  0  0  0  0
  -21.6848   -6.0736   22.5283 C   0  0  0  0  0  0
  -21.4013   -6.5636   23.8223 C   0  0  0  0  0  0
  -21.3656   -5.6788   24.9179 C   0  0  0  0  0  0
  -21.6046   -4.3048   24.7227 C   0  0  0  0  0  0
  -21.8812   -3.8143   23.4344 C   0  0  0  0  0  0
  -21.9193   -4.6965   22.3400 C   0  0  0  0  0  0
  -22.7769  -13.5196   21.1896 C   0  0  0  0  0  0
  -22.1657   -4.2156   21.0981 F   0  0  0  0  0  0
  -21.5638   -3.4532   25.7732 F   0  0  0  0  0  0
  -29.9302  -13.7534   20.3823 N   0  0  0  0  0  0
  -26.2871  -12.9461   20.3281 N   0  0  0  0  0  0
  -25.9348  -11.6583   20.5799 N   0  0  0  0  0  0
  -22.0412  -12.8202   22.0454 N   0  0  0  0  0  0
  -25.3943  -15.1913   20.3999 N   0  0  0  0  0  0
  -31.7184  -15.0609   20.1094 O   0  0  0  0  0  0
  -21.6639   -6.8893   21.4243 O   0  0  0  0  0  0
  -22.3453  -14.5501   20.6738 O   0  0  0  0  0  0
  -24.6474  -31.8405   23.1825 C   0  0  0  0  0  0
  -25.9224  -32.4676   23.8235 C   0  0  1  0  0  0
  -27.2192  -27.1004   20.1482 C   0  0  0  0  0  0
  -25.5951  -33.8485   24.2156 N   0  0  0  0  0  0
  -23.4537  -30.4574   21.5294 C   0  0  2  0  0  0
  -24.9027  -28.8760   20.1085 C   0  0  0  0  0  0
  -22.7594  -29.4529   22.4828 C   0  0  0  0  0  0
  -18.0316  -28.1398   22.8479 C   0  0  0  0  0  0
  -24.1496  -36.7249   23.2645 C   0  0  0  0  0  0
  -26.0123  -30.7017   21.3866 C   0  0  0  0  0  0
  -26.0822  -29.3096   20.7266 C   0  0  0  0  0  0
  -27.2412  -28.4397   20.7231 C   0  0  0  0  0  0
  -26.0103  -26.7721   19.4963 C   0  0  0  0  0  0
  -24.8809  -27.6220   19.4784 C   0  0  0  0  0  0
  -23.6814  -29.7834   20.1505 C   0  0  0  0  0  0
  -25.4132  -36.3023   24.0310 C   0  0  1  0  0  0
  -20.5936  -28.3735   23.1217 C   0  0  2  0  0  0
  -20.6798  -26.9427   22.5402 C   0  0  0  0  0  0
  -19.5769  -26.6379   21.5214 C   0  0  0  0  0  0
  -18.1952  -26.7936   22.1625 C   0  0  0  0  0  0
  -19.1575  -28.8888   23.2843 C   0  0  0  0  0  0
  -18.9482  -30.1478   23.8871 C   0  0  0  0  0  0
  -17.6476  -30.6593   24.0559 C   0  0  0  0  0  0
  -25.9080  -34.9402   23.5048 C   0  0  0  0  0  0
  -16.5370  -29.9082   23.6337 C   0  0  0  0  0  0
  -16.7295  -28.6502   23.0355 C   0  0  0  0  0  0
  -26.4524  -31.6566   25.0702 C   0  0  0  0  0  0
  -25.3685  -31.3762   26.1384 C   0  0  0  0  0  0
  -27.0390  -30.2952   24.6313 C   0  0  0  0  0  0
  -27.6044  -32.4340   25.7491 C   0  0  0  0  0  0
  -27.5579  -37.1782   24.8462 C   0  0  0  0  0  0
  -21.4283  -29.3055   22.3586 N   0  0  0  0  0  0
  -26.4286  -37.3740   23.9405 N   0  0  0  0  0  0
  -24.7247  -31.0219   22.0880 N   0  0  0  0  0  0
  -23.4216  -28.8089   23.3001 O   0  0  0  0  0  0
  -28.2733  -26.1054   20.2094 O   0  0  0  0  0  0
  -26.5674  -34.8909   22.4632 O   0  0  0  0  0  0
  -23.5583  -32.1299   23.7026 O   0  0  0  0  0  0
  -29.9725  -20.6149   20.6375 C   0  0  0  0  0  0
  -29.5073  -19.2514   20.2769 C   0  0  0  0  0  0
  -29.0760  -21.6607   20.2758 C   0  0  0  0  0  0
  -30.3155  -23.6936   19.3455 C   0  0  0  0  0  0
  -29.7347  -23.6468   21.7567 C   0  0  0  0  0  0
  -26.8514  -21.3534   19.0861 C   0  0  0  0  0  0
  -28.7274  -16.3514   21.6083 C   0  0  0  0  0  0
  -30.2824  -17.7577   20.2511 C   0  0  0  0  0  0
  -28.0351  -24.5485   20.0896 C   0  0  0  0  0  0
  -29.2048  -23.3311   20.3477 C   0  0  0  0  0  0
  -28.3180  -19.4952   19.7077 N   0  0  0  0  0  0
  -28.0728  -20.8730   19.7023 N   0  0  0  0  0  0
  -29.8039  -16.2790   20.6223 N   0  0  0  0  0  0
  -31.4712  -12.8317   19.1747 H   0  0  0  0  0  0
  -30.4726  -11.7030   20.0256 H   0  0  0  0  0  0
  -29.8497  -11.7535   17.6011 H   0  0  0  0  0  0
  -29.6063  -13.4787   17.6713 H   0  0  0  0  0  0
  -27.9513  -11.2939   18.9603 H   0  0  0  0  0  0
  -27.3911  -12.4866   17.8162 H   0  0  0  0  0  0
  -27.5933  -14.2654   19.4360 H   0  0  0  0  0  0
  -28.8086  -12.2398   21.3679 H   0  0  0  0  0  0
  -28.3585  -13.8331   21.8330 H   0  0  0  0  0  0
  -25.2782   -9.5675   22.4794 H   0  0  0  0  0  0
  -24.0000   -7.4619   22.7464 H   0  0  0  0  0  0
  -21.0868   -8.8783   19.8955 H   0  0  0  0  0  0
  -22.3722  -10.9684   19.6174 H   0  0  0  0  0  0
  -21.1995   -7.6148   23.9719 H   0  0  0  0  0  0
  -21.1494   -6.0528   25.9087 H   0  0  0  0  0  0
  -22.0596   -2.7609   23.2840 H   0  0  0  0  0  0
  -22.4012  -11.9861   22.4850 H   0  0  0  0  0  0
  -21.1022  -13.1219   22.2643 H   0  0  0  0  0  0
  -24.6213  -15.8377   20.5133 H   0  0  0  0  0  0
  -26.2368  -15.6367   20.0595 H   0  0  0  0  0  0
  -26.7295  -32.5264   23.0963 H   0  0  0  0  0  0
  -25.0068  -33.9578   25.0279 H   0  0  0  0  0  0
  -22.7597  -31.2848   21.3707 H   0  0  0  0  0  0
  -23.3769  -35.9567   23.3284 H   0  0  0  0  0  0
  -24.3582  -36.8908   22.2063 H   0  0  0  0  0  0
  -23.7238  -37.6433   23.6698 H   0  0  0  0  0  0
  -26.1744  -31.4562   20.6151 H   0  0  0  0  0  0
  -26.8808  -30.7506   22.0324 H   0  0  0  0  0  0
  -28.1428  -28.7682   21.2205 H   0  0  0  0  0  0
  -25.9073  -25.8142   19.0090 H   0  0  0  0  0  0
  -23.9790  -27.2865   18.9854 H   0  0  0  0  0  0
  -23.8220  -30.5561   19.3931 H   0  0  0  0  0  0
  -22.7951  -29.2271   19.8397 H   0  0  0  0  0  0
  -25.1324  -36.1848   25.0800 H   0  0  0  0  0  0
  -21.0030  -28.3325   24.1335 H   0  0  0  0  0  0
  -20.5695  -26.2336   23.3627 H   0  0  0  0  0  0
  -21.6655  -26.7422   22.1191 H   0  0  0  0  0  0
  -19.6917  -25.6283   21.1257 H   0  0  0  0  0  0
  -19.6700  -27.3181   20.6738 H   0  0  0  0  0  0
  -17.4215  -26.6687   21.4034 H   0  0  0  0  0  0
  -18.0346  -26.0087   22.9033 H   0  0  0  0  0  0
  -19.7959  -30.7309   24.2220 H   0  0  0  0  0  0
  -17.5027  -31.6269   24.5172 H   0  0  0  0  0  0
  -15.5373  -30.2969   23.7675 H   0  0  0  0  0  0
  -15.8699  -28.0814   22.7069 H   0  0  0  0  0  0
  -24.5863  -30.7123   25.7686 H   0  0  0  0  0  0
  -24.8879  -32.2950   26.4753 H   0  0  0  0  0  0
  -25.7946  -30.8957   27.0198 H   0  0  0  0  0  0
  -26.3011  -29.6667   24.1316 H   0  0  0  0  0  0
  -27.3984  -29.7268   25.4899 H   0  0  0  0  0  0
  -27.8929  -30.4180   23.9646 H   0  0  0  0  0  0
  -27.2625  -33.3662   26.1998 H   0  0  0  0  0  0
  -28.3883  -32.6868   25.0339 H   0  0  0  0  0  0
  -28.0677  -31.8515   26.5460 H   0  0  0  0  0  0
  -28.2580  -38.0096   24.7520 H   0  0  0  0  0  0
  -28.1090  -36.2621   24.6277 H   0  0  0  0  0  0
  -27.2290  -37.1415   25.8863 H   0  0  0  0  0  0
  -20.9499  -29.8749   21.6751 H   0  0  0  0  0  0
  -26.0156  -38.2805   24.1414 H   0  0  0  0  0  0
  -30.9370  -20.8162   21.0811 H   0  0  0  0  0  0
  -31.2376  -23.1481   19.5486 H   0  0  0  0  0  0
  -30.5539  -24.7573   19.3774 H   0  0  0  0  0  0
  -30.0140  -23.4537   18.3250 H   0  0  0  0  0  0
  -30.6626  -23.1159   21.9723 H   0  0  0  0  0  0
  -29.0072  -23.3578   22.5157 H   0  0  0  0  0  0
  -29.9354  -24.7113   21.8804 H   0  0  0  0  0  0
  -27.0967  -22.0283   18.2640 H   0  0  0  0  0  0
  -26.2584  -21.8942   19.8252 H   0  0  0  0  0  0
  -26.2559  -20.5269   18.6926 H   0  0  0  0  0  0
  -29.0048  -15.8300   22.5253 H   0  0  0  0  0  0
  -27.8087  -15.9261   21.2148 H   0  0  0  0  0  0
  -28.4966  -17.3749   21.9005 H   0  0  0  0  0  0
  -31.1834  -17.8819   20.8518 H   0  0  0  0  0  0
  -30.6755  -17.6506   19.2406 H   0  0  0  0  0  0
  -27.2005  -24.3244   20.7545 H   0  0  0  0  0  0
  -27.6463  -24.3841   19.0853 H   0  0  0  0  0  0
  1 25  1  0  0  0
  1 30  2  0  0  0
  1 83  1  0  0  0
  2  3  1  0  0  0
  2 25  1  0  0  0
  2 84  1  0  0  0
  2 85  1  0  0  0
  3  4  1  0  0  0
  3 86  1  0  0  0
  3 87  1  0  0  0
  4  5  1  0  0  0
  4 88  1  0  0  0
  4 89  1  0  0  0
  5  6  1  0  0  0
  5 26  1  0  0  0
  5 90  1  0  0  0
  6 25  1  0  0  0
  6 91  1  0  0  0
  6 92  1  0  0  0
  7  8  2  0  0  0
  7 26  1  0  0  0
  7 29  1  0  0  0
  8  9  1  0  0  0
  8 22  1  0  0  0
  9 10  1  0  0  0
  9 27  2  0  0  0
 10 11  2  0  0  0
 10 15  1  0  0  0
 11 12  1  0  0  0
 11 93  1  0  0  0
 12 13  2  0  0  0
 12 94  1  0  0  0
 13 14  1  0  0  0
 13 31  1  0  0  0
 14 15  2  0  0  0
 14 95  1  0  0  0
 15 96  1  0  0  0
 16 17  2  0  0  0
 16 21  1  0  0  0
 16 31  1  0  0  0
 17 18  1  0  0  0
 17 97  1  0  0  0
 18 19  2  0  0  0
 18 98  1  0  0  0
 19 20  1  0  0  0
 19 24  1  0  0  0
 20 21  2  0  0  0
 20 99  1  0  0  0
 21 23  1  0  0  0
 22 28  1  0  0  0
 22 32  2  0  0  0
 26 27  1  0  0  0
 28100  1  0  0  0
 28101  1  0  0  0
 29102  1  0  0  0
 29103  1  0  0  0
 33 34  1  0  0  0
 33 66  1  0  0  0
 33 70  2  0  0  0
 34 36  1  0  0  0
 34 59  1  0  0  0
 34104  1  0  0  0
 35 44  2  0  0  0
 35 45  1  0  0  0
 35 68  1  0  0  0
 36 56  1  0  0  0
 36105  1  0  0  0
 37 39  1  0  0  0
 37 47  1  0  0  0
 37 66  1  0  0  0
 37106  1  0  0  0
 38 43  2  0  0  0
 38 46  1  0  0  0
 38 47  1  0  0  0
 39 64  1  0  0  0
 39 67  2  0  0  0
 40 52  1  0  0  0
 40 53  2  0  0  0
 40 58  1  0  0  0
 41107  1  0  0  0
 41108  1  0  0  0
 41109  1  0  0  0
 41 48  1  0  0  0
 42 43  1  0  0  0
 42 66  1  0  0  0
 42110  1  0  0  0
 42111  1  0  0  0
 43 44  1  0  0  0
 44112  1  0  0  0
 45 46  2  0  0  0
 45113  1  0  0  0
 46114  1  0  0  0
 47115  1  0  0  0
 47116  1  0  0  0
 48 56  1  0  0  0
 48 65  1  0  0  0
 48117  1  0  0  0
 49 50  1  0  0  0
 49 53  1  0  0  0
 49 64  1  0  0  0
 49118  1  0  0  0
 50 51  1  0  0  0
 50119  1  0  0  0
 50120  1  0  0  0
 51 52  1  0  0  0
 51121  1  0  0  0
 51122  1  0  0  0
 52123  1  0  0  0
 52124  1  0  0  0
 53 54  1  0  0  0
 54 55  2  0  0  0
 54125  1  0  0  0
 55 57  1  0  0  0
 55126  1  0  0  0
 56 69  2  0  0  0
 57 58  2  0  0  0
 57127  1  0  0  0
 58128  1  0  0  0
 59 60  1  0  0  0
 59 61  1  0  0  0
 59 62  1  0  0  0
 60129  1  0  0  0
 60130  1  0  0  0
 60131  1  0  0  0
 61132  1  0  0  0
 61133  1  0  0  0
 61134  1  0  0  0
 62135  1  0  0  0
 62136  1  0  0  0
 62137  1  0  0  0
 63 65  1  0  0  0
 63138  1  0  0  0
 63139  1  0  0  0
 63140  1  0  0  0
 64141  1  0  0  0
 65142  1  0  0  0
 68 79  1  0  0  0
 71 72  1  0  0  0
 71 73  2  0  0  0
 71143  1  0  0  0
 72 78  1  0  0  0
 72 81  2  0  0  0
 73 80  1  0  0  0
 73 82  1  0  0  0
 74144  1  0  0  0
 74145  1  0  0  0
 74146  1  0  0  0
 74 80  1  0  0  0
 75 80  1  0  0  0
 75147  1  0  0  0
 75148  1  0  0  0
 75149  1  0  0  0
 76 82  1  0  0  0
 76150  1  0  0  0
 76151  1  0  0  0
 76152  1  0  0  0
 77 83  1  0  0  0
 77153  1  0  0  0
 77154  1  0  0  0
 77155  1  0  0  0
 78 83  1  0  0  0
 78156  1  0  0  0
 78157  1  0  0  0
 79 80  1  0  0  0
 79158  1  0  0  0
 79159  1  0  0  0
 81 82  1  0  0  0
M  ISO  4   1 100  68 101  79 101  83 100
M  END
> <chiral flag>
0

> <version>
0

> <s_m_source_file>
/data/baiqing/PycharmProjects/Reinvent-master-3.2/result/LINK_invent/BTK/process_docking_weight1_custom_sum_contain_oxygen_bond_distance_aromatic_linkinvent_7_9_3/rearranged_h_0060.sdf

> <i_m_source_file_index>
56

> <r_mmod_Potential_Energy-OPLS-2005>
657.786437988281

> <r_mmod_Stretch_Energy-OPLS-2005>
314.829223632812

> <r_mmod_Bend_Energy-OPLS-2005>
316.374267578125

> <r_mmod_Torsional_Energy-OPLS-2005>
264.363830566406

> <r_mmod_Improper_Torsional_Energy-OPLS-2005>
8.25994110107422

> <r_mmod_Van_der_Waal_Energy-OPLS-2005>
112.847366333008

> <r_mmod_Electrostatic_Energy-OPLS-2005>
-378.829132080078

> <r_mmod_Solvation_Energy-OPLS-2005>
-209.505966186523

> <b_mmod_Minimization_Converged-OPLS-2005>
0

> <r_mmod_RMS_Derivative-OPLS-2005>
2.35094475746155

$$$$
59
                    3D
 Structure written by MMmdl.
149157  0  0  1  0            999 V2000
  -30.5168  -15.0579   20.4001 C   0  0  0  0  0  0
  -30.4383  -12.6639   19.5108 C   0  0  0  0  0  0
  -29.5278  -12.5440   18.2662 C   0  0  0  0  0  0
  -28.0649  -12.3106   18.6865 C   0  0  0  0  0  0
  -27.6221  -13.2609   19.8299 C   0  0  2  0  0  0
  -28.6610  -13.3476   20.9677 C   0  0  0  0  0  0
  -25.2428  -13.8235   20.5712 C   0  0  0  0  0  0
  -24.1762  -13.0442   20.9236 C   0  0  0  0  0  0
  -24.6400  -11.6933   20.8759 C   0  0  0  0  0  0
  -23.9092  -10.4296   21.0411 C   0  0  0  0  0  0
  -24.3641   -9.4207   21.9183 C   0  0  0  0  0  0
  -23.6309   -8.2244   22.0750 C   0  0  0  0  0  0
  -22.4289   -8.0285   21.3544 C   0  0  0  0  0  0
  -21.9930   -9.0262   20.4647 C   0  0  0  0  0  0
  -22.7265  -10.2139   20.3056 C   0  0  0  0  0  0
  -21.6854   -6.0745   22.5280 C   0  0  0  0  0  0
  -21.4018   -6.5644   23.8217 C   0  0  0  0  0  0
  -21.3657   -5.6794   24.9174 C   0  0  0  0  0  0
  -21.6044   -4.3057   24.7222 C   0  0  0  0  0  0
  -21.8818   -3.8152   23.4342 C   0  0  0  0  0  0
  -21.9193   -4.6972   22.3401 C   0  0  0  0  0  0
  -22.7779  -13.5203   21.1884 C   0  0  0  0  0  0
  -22.1660   -4.2159   21.0978 F   0  0  0  0  0  0
  -21.5626   -3.4539   25.7732 F   0  0  0  0  0  0
  -29.9218  -13.7867   20.3568 N   0  0  0  0  0  0
  -26.2859  -12.9491   20.3220 N   0  0  0  0  0  0
  -25.9337  -11.6610   20.5731 N   0  0  0  0  0  0
  -22.0431  -12.8193   22.0442 N   0  0  0  0  0  0
  -25.4063  -15.1967   20.4135 N   0  0  0  0  0  0
  -31.7288  -15.0841   20.1573 O   0  0  0  0  0  0
  -21.6644   -6.8890   21.4244 O   0  0  0  0  0  0
  -22.3459  -14.5501   20.6718 O   0  0  0  0  0  0
  -24.6505  -31.8358   23.1805 C   0  0  0  0  0  0
  -25.9244  -32.4648   23.8223 C   0  0  1  0  0  0
  -27.2192  -27.0582   20.1691 C   0  0  0  0  0  0
  -25.5958  -33.8458   24.2135 N   0  0  0  0  0  0
  -23.4583  -30.4514   21.5273 C   0  0  2  0  0  0
  -24.9100  -28.8612   20.1105 C   0  0  0  0  0  0
  -22.7601  -29.4505   22.4829 C   0  0  0  0  0  0
  -18.0310  -28.1400   22.8474 C   0  0  0  0  0  0
  -24.1493  -36.7238   23.2646 C   0  0  0  0  0  0
  -26.0188  -30.6850   21.3906 C   0  0  0  0  0  0
  -26.0890  -29.2879   20.7341 C   0  0  0  0  0  0
  -27.2425  -28.4047   20.7413 C   0  0  0  0  0  0
  -26.0134  -26.7487   19.5037 C   0  0  0  0  0  0
  -24.8896  -27.6082   19.4771 C   0  0  0  0  0  0
  -23.6898  -29.7734   20.1496 C   0  0  0  0  0  0
  -25.4128  -36.3005   24.0310 C   0  0  1  0  0  0
  -20.5927  -28.3736   23.1217 C   0  0  2  0  0  0
  -20.6793  -26.9430   22.5404 C   0  0  0  0  0  0
  -19.5767  -26.6378   21.5214 C   0  0  0  0  0  0
  -18.1948  -26.7935   22.1622 C   0  0  0  0  0  0
  -19.1568  -28.8886   23.2834 C   0  0  0  0  0  0
  -18.9483  -30.1481   23.8863 C   0  0  0  0  0  0
  -17.6479  -30.6594   24.0555 C   0  0  0  0  0  0
  -25.9085  -34.9384   23.5039 C   0  0  0  0  0  0
  -16.5368  -29.9085   23.6340 C   0  0  0  0  0  0
  -16.7295  -28.6504   23.0357 C   0  0  0  0  0  0
  -26.4537  -31.6549   25.0704 C   0  0  0  0  0  0
  -25.3701  -31.3763   26.1386 C   0  0  0  0  0  0
  -27.0420  -30.2933   24.6347 C   0  0  0  0  0  0
  -27.6045  -32.4341   25.7498 C   0  0  0  0  0  0
  -27.5572  -37.1774   24.8463 C   0  0  0  0  0  0
  -21.4284  -29.3048   22.3578 N   0  0  0  0  0  0
  -26.4283  -37.3729   23.9410 N   0  0  0  0  0  0
  -24.7295  -31.0143   22.0874 N   0  0  0  0  0  0
  -23.4207  -28.8069   23.3022 O   0  0  0  0  0  0
  -28.2578  -26.0351   20.2508 O   0  0  0  0  0  0
  -26.5683  -34.8899   22.4625 O   0  0  0  0  0  0
  -23.5606  -32.1272   23.6979 O   0  0  0  0  0  0
  -27.7966  -20.7626   20.3555 C   0  0  0  0  0  0
  -29.3656  -19.2708   20.3811 C   0  0  0  0  0  0
  -30.4302  -23.5088   19.7420 C   0  0  0  0  0  0
  -30.2190  -17.8269   20.3845 C   0  0  0  0  0  0
  -28.0207  -24.4647   20.0943 C   0  0  0  0  0  0
  -29.1082  -23.1669   20.4476 C   0  0  1  0  0  0
  -27.9944  -19.4073   20.3670 N   0  0  0  0  0  0
  -29.9246  -20.5494   20.3755 N   0  0  0  0  0  0
  -28.8887  -21.5556   20.3294 N   0  0  0  0  0  0
  -29.7707  -16.2883   20.5049 N   0  0  0  0  0  0
  -31.4687  -12.8318   19.1949 H   0  0  0  0  0  0
  -30.4516  -11.7301   20.0745 H   0  0  0  0  0  0
  -29.8693  -11.7325   17.6219 H   0  0  0  0  0  0
  -29.5977  -13.4569   17.6728 H   0  0  0  0  0  0
  -27.9808  -11.2750   19.0173 H   0  0  0  0  0  0
  -27.4015  -12.4111   17.8264 H   0  0  0  0  0  0
  -27.5663  -14.2503   19.3743 H   0  0  0  0  0  0
  -28.7751  -12.3902   21.4782 H   0  0  0  0  0  0
  -28.3406  -14.0674   21.7225 H   0  0  0  0  0  0
  -25.2786   -9.5681   22.4754 H   0  0  0  0  0  0
  -24.0015   -7.4638   22.7474 H   0  0  0  0  0  0
  -21.0856   -8.8791   19.8959 H   0  0  0  0  0  0
  -22.3726  -10.9679   19.6166 H   0  0  0  0  0  0
  -21.2012   -7.6153   23.9723 H   0  0  0  0  0  0
  -21.1477   -6.0522   25.9080 H   0  0  0  0  0  0
  -22.0599   -2.7614   23.2836 H   0  0  0  0  0  0
  -22.4065  -11.9875   22.4856 H   0  0  0  0  0  0
  -21.1042  -13.1208   22.2636 H   0  0  0  0  0  0
  -24.6336  -15.8448   20.5228 H   0  0  0  0  0  0
  -26.2452  -15.6407   20.0633 H   0  0  0  0  0  0
  -26.7311  -32.5229   23.0945 H   0  0  0  0  0  0
  -25.0066  -33.9550   25.0256 H   0  0  0  0  0  0
  -22.7655  -31.2799   21.3657 H   0  0  0  0  0  0
  -23.3762  -35.9561   23.3282 H   0  0  0  0  0  0
  -24.3580  -36.8903   22.2067 H   0  0  0  0  0  0
  -23.7239  -37.6420   23.6708 H   0  0  0  0  0  0
  -26.1837  -31.4344   20.6152 H   0  0  0  0  0  0
  -26.8854  -30.7376   22.0382 H   0  0  0  0  0  0
  -28.1383  -28.7275   21.2530 H   0  0  0  0  0  0
  -25.9092  -25.7882   19.0211 H   0  0  0  0  0  0
  -23.9911  -27.2757   18.9754 H   0  0  0  0  0  0
  -23.8327  -30.5445   19.3917 H   0  0  0  0  0  0
  -22.8027  -29.2194   19.8374 H   0  0  0  0  0  0
  -25.1320  -36.1817   25.0800 H   0  0  0  0  0  0
  -21.0016  -28.3335   24.1339 H   0  0  0  0  0  0
  -20.5683  -26.2351   23.3632 H   0  0  0  0  0  0
  -21.6658  -26.7425   22.1204 H   0  0  0  0  0  0
  -19.6928  -25.6280   21.1266 H   0  0  0  0  0  0
  -19.6703  -27.3170   20.6728 H   0  0  0  0  0  0
  -17.4216  -26.6674   21.4027 H   0  0  0  0  0  0
  -18.0348  -26.0084   22.9027 H   0  0  0  0  0  0
  -19.7959  -30.7305   24.2212 H   0  0  0  0  0  0
  -17.5033  -31.6272   24.5165 H   0  0  0  0  0  0
  -15.5368  -30.2975   23.7687 H   0  0  0  0  0  0
  -15.8693  -28.0814   22.7089 H   0  0  0  0  0  0
  -24.5868  -30.7129   25.7699 H   0  0  0  0  0  0
  -24.8908  -32.2957   26.4759 H   0  0  0  0  0  0
  -25.7964  -30.8956   27.0200 H   0  0  0  0  0  0
  -26.3057  -29.6632   24.1344 H   0  0  0  0  0  0
  -27.3989  -29.7264   25.4957 H   0  0  0  0  0  0
  -27.8983  -30.4148   23.9710 H   0  0  0  0  0  0
  -27.2609  -33.3658   26.2006 H   0  0  0  0  0  0
  -28.3889  -32.6878   25.0356 H   0  0  0  0  0  0
  -28.0677  -31.8519   26.5474 H   0  0  0  0  0  0
  -28.2572  -38.0088   24.7518 H   0  0  0  0  0  0
  -28.1085  -36.2614   24.6276 H   0  0  0  0  0  0
  -27.2292  -37.1405   25.8867 H   0  0  0  0  0  0
  -20.9511  -29.8742   21.6728 H   0  0  0  0  0  0
  -26.0138  -38.2792   24.1417 H   0  0  0  0  0  0
  -26.8041  -21.1922   20.3808 H   0  0  0  0  0  0
  -30.7058  -24.5504   19.9097 H   0  0  0  0  0  0
  -30.3501  -23.3532   18.6662 H   0  0  0  0  0  0
  -31.2532  -22.8959   20.1096 H   0  0  0  0  0  0
  -30.9626  -17.9433   21.1730 H   0  0  0  0  0  0
  -30.8125  -17.8541   19.4703 H   0  0  0  0  0  0
  -27.1151  -24.2551   20.6644 H   0  0  0  0  0  0
  -27.7286  -24.3266   19.0533 H   0  0  0  0  0  0
  -29.3066  -23.3051   21.5108 H   0  0  0  0  0  0
  -28.7809  -16.1708   20.6582 H   0  0  0  0  0  0
  1 25  1  0  0  0
  1 30  2  0  0  0
  1 80  1  0  0  0
  2  3  1  0  0  0
  2 25  1  0  0  0
  2 81  1  0  0  0
  2 82  1  0  0  0
  3  4  1  0  0  0
  3 83  1  0  0  0
  3 84  1  0  0  0
  4  5  1  0  0  0
  4 85  1  0  0  0
  4 86  1  0  0  0
  5  6  1  0  0  0
  5 26  1  0  0  0
  5 87  1  0  0  0
  6 25  1  0  0  0
  6 88  1  0  0  0
  6 89  1  0  0  0
  7  8  2  0  0  0
  7 26  1  0  0  0
  7 29  1  0  0  0
  8  9  1  0  0  0
  8 22  1  0  0  0
  9 10  1  0  0  0
  9 27  2  0  0  0
 10 11  2  0  0  0
 10 15  1  0  0  0
 11 12  1  0  0  0
 11 90  1  0  0  0
 12 13  2  0  0  0
 12 91  1  0  0  0
 13 14  1  0  0  0
 13 31  1  0  0  0
 14 15  2  0  0  0
 14 92  1  0  0  0
 15 93  1  0  0  0
 16 17  2  0  0  0
 16 21  1  0  0  0
 16 31  1  0  0  0
 17 18  1  0  0  0
 17 94  1  0  0  0
 18 19  2  0  0  0
 18 95  1  0  0  0
 19 20  1  0  0  0
 19 24  1  0  0  0
 20 21  2  0  0  0
 20 96  1  0  0  0
 21 23  1  0  0  0
 22 28  1  0  0  0
 22 32  2  0  0  0
 26 27  1  0  0  0
 28 97  1  0  0  0
 28 98  1  0  0  0
 29 99  1  0  0  0
 29100  1  0  0  0
 33 34  1  0  0  0
 33 66  1  0  0  0
 33 70  2  0  0  0
 34 36  1  0  0  0
 34 59  1  0  0  0
 34101  1  0  0  0
 35 44  2  0  0  0
 35 45  1  0  0  0
 35 68  1  0  0  0
 36 56  1  0  0  0
 36102  1  0  0  0
 37 39  1  0  0  0
 37 47  1  0  0  0
 37 66  1  0  0  0
 37103  1  0  0  0
 38 43  2  0  0  0
 38 46  1  0  0  0
 38 47  1  0  0  0
 39 64  1  0  0  0
 39 67  2  0  0  0
 40 52  1  0  0  0
 40 53  2  0  0  0
 40 58  1  0  0  0
 41104  1  0  0  0
 41105  1  0  0  0
 41106  1  0  0  0
 41 48  1  0  0  0
 42 43  1  0  0  0
 42 66  1  0  0  0
 42107  1  0  0  0
 42108  1  0  0  0
 43 44  1  0  0  0
 44109  1  0  0  0
 45 46  2  0  0  0
 45110  1  0  0  0
 46111  1  0  0  0
 47112  1  0  0  0
 47113  1  0  0  0
 48 56  1  0  0  0
 48 65  1  0  0  0
 48114  1  0  0  0
 49 50  1  0  0  0
 49 53  1  0  0  0
 49 64  1  0  0  0
 49115  1  0  0  0
 50 51  1  0  0  0
 50116  1  0  0  0
 50117  1  0  0  0
 51 52  1  0  0  0
 51118  1  0  0  0
 51119  1  0  0  0
 52120  1  0  0  0
 52121  1  0  0  0
 53 54  1  0  0  0
 54 55  2  0  0  0
 54122  1  0  0  0
 55 57  1  0  0  0
 55123  1  0  0  0
 56 69  2  0  0  0
 57 58  2  0  0  0
 57124  1  0  0  0
 58125  1  0  0  0
 59 60  1  0  0  0
 59 61  1  0  0  0
 59 62  1  0  0  0
 60126  1  0  0  0
 60127  1  0  0  0
 60128  1  0  0  0
 61129  1  0  0  0
 61130  1  0  0  0
 61131  1  0  0  0
 62132  1  0  0  0
 62133  1  0  0  0
 62134  1  0  0  0
 63 65  1  0  0  0
 63135  1  0  0  0
 63136  1  0  0  0
 63137  1  0  0  0
 64138  1  0  0  0
 65139  1  0  0  0
 68 75  1  0  0  0
 71 77  2  0  0  0
 71 79  1  0  0  0
 71140  1  0  0  0
 72 74  1  0  0  0
 72 77  1  0  0  0
 72 78  2  0  0  0
 73141  1  0  0  0
 73142  1  0  0  0
 73143  1  0  0  0
 73 76  1  0  0  0
 74 80  1  0  0  0
 74144  1  0  0  0
 74145  1  0  0  0
 75 76  1  0  0  0
 75146  1  0  0  0
 75147  1  0  0  0
 76 79  1  0  0  0
 76148  1  0  0  0
 78 79  1  0  0  0
 80149  1  0  0  0
M  ISO  4   1 100  68 101  75 101  80 100
M  END
> <chiral flag>
0

> <version>
0

> <s_m_source_file>
/data/baiqing/PycharmProjects/Reinvent-master-3.2/result/LINK_invent/BTK/process_docking_weight1_custom_sum_contain_oxygen_bond_distance_aromatic_linkinvent_7_9_3/rearranged_h_0060.sdf

> <i_m_source_file_index>
57

> <r_mmod_Potential_Energy-OPLS-2005>
564.6865234375

> <r_mmod_Stretch_Energy-OPLS-2005>
349.820892333984

> <r_mmod_Bend_Energy-OPLS-2005>
310.314208984375

> <r_mmod_Torsional_Energy-OPLS-2005>
223.991561889648

> <r_mmod_Improper_Torsional_Energy-OPLS-2005>
4.86430692672729

> <r_mmod_Van_der_Waal_Energy-OPLS-2005>
107.906860351562

> <r_mmod_Electrostatic_Energy-OPLS-2005>
-470.626373291016

> <r_mmod_Solvation_Energy-OPLS-2005>
-235.206085205078

> <b_mmod_Minimization_Converged-OPLS-2005>
0

> <r_mmod_RMS_Derivative-OPLS-2005>
0.708532094955444

$$$$
60
                    3D
 Structure written by MMmdl.
161169  0  0  1  0            999 V2000
  -30.6234  -14.8356   20.4468 C   0  0  0  0  0  0
  -30.4339  -12.5261   19.4631 C   0  0  0  0  0  0
  -29.4956  -12.4917   18.2367 C   0  0  0  0  0  0
  -28.0355  -12.2577   18.6738 C   0  0  0  0  0  0
  -27.6192  -13.1791   19.8430 C   0  0  2  0  0  0
  -28.6852  -13.2037   20.9717 C   0  0  0  0  0  0
  -25.2390  -13.7998   20.5691 C   0  0  0  0  0  0
  -24.1692  -13.0284   20.9247 C   0  0  0  0  0  0
  -24.6267  -11.6768   20.8838 C   0  0  0  0  0  0
  -23.8942  -10.4172   21.0482 C   0  0  0  0  0  0
  -24.3512   -9.4085   21.9241 C   0  0  0  0  0  0
  -23.6188   -8.2126   22.0784 C   0  0  0  0  0  0
  -22.4192   -8.0199   21.3542 C   0  0  0  0  0  0
  -21.9823   -9.0165   20.4655 C   0  0  0  0  0  0
  -22.7138  -10.2043   20.3090 C   0  0  0  0  0  0
  -21.6818   -6.0657   22.5254 C   0  0  0  0  0  0
  -21.4008   -6.5591   23.8179 C   0  0  0  0  0  0
  -21.3656   -5.6767   24.9155 C   0  0  0  0  0  0
  -21.6043   -4.3028   24.7242 C   0  0  0  0  0  0
  -21.8827   -3.8090   23.4378 C   0  0  0  0  0  0
  -21.9183   -4.6889   22.3410 C   0  0  0  0  0  0
  -22.7736  -13.5102   21.1910 C   0  0  0  0  0  0
  -22.1657   -4.2065   21.1000 F   0  0  0  0  0  0
  -21.5626   -3.4540   25.7776 F   0  0  0  0  0  0
  -29.9571  -13.6170   20.3543 N   0  0  0  0  0  0
  -26.2793  -12.9105   20.3349 N   0  0  0  0  0  0
  -25.9176  -11.6310   20.5881 N   0  0  0  0  0  0
  -22.0390  -12.8094   22.0482 N   0  0  0  0  0  0
  -25.3889  -15.1737   20.4023 N   0  0  0  0  0  0
  -31.8434  -14.8351   20.2563 O   0  0  0  0  0  0
  -21.6596   -6.8779   21.4204 O   0  0  0  0  0  0
  -22.3417  -14.5383   20.6709 O   0  0  0  0  0  0
  -24.6296  -31.8513   23.1959 C   0  0  0  0  0  0
  -25.9115  -32.4733   23.8303 C   0  0  1  0  0  0
  -27.2354  -27.2595   20.1707 C   0  0  0  0  0  0
  -25.5911  -33.8541   24.2207 N   0  0  0  0  0  0
  -23.4332  -30.4645   21.5398 C   0  0  2  0  0  0
  -24.8909  -28.9133   20.1166 C   0  0  0  0  0  0
  -22.7536  -29.4505   22.4918 C   0  0  0  0  0  0
  -18.0270  -28.1395   22.8452 C   0  0  0  0  0  0
  -24.1505  -36.7291   23.2636 C   0  0  0  0  0  0
  -25.9783  -30.7664   21.3824 C   0  0  0  0  0  0
  -26.0579  -29.3882   20.7292 C   0  0  0  0  0  0
  -27.2370  -28.5772   20.7409 C   0  0  0  0  0  0
  -26.0526  -26.8547   19.5189 C   0  0  0  0  0  0
  -24.8926  -27.6534   19.4963 C   0  0  0  0  0  0
  -23.6589  -29.7957   20.1575 C   0  0  0  0  0  0
  -25.4131  -36.3042   24.0296 C   0  0  1  0  0  0
  -20.5876  -28.3672   23.1287 C   0  0  2  0  0  0
  -20.6745  -26.9384   22.5418 C   0  0  0  0  0  0
  -19.5721  -26.6383   21.5206 C   0  0  0  0  0  0
  -18.1902  -26.7926   22.1611 C   0  0  0  0  0  0
  -19.1526  -28.8865   23.2838 C   0  0  0  0  0  0
  -18.9432  -30.1466   23.8843 C   0  0  0  0  0  0
  -17.6427  -30.6572   24.0559 C   0  0  0  0  0  0
  -25.9067  -34.9415   23.5048 C   0  0  0  0  0  0
  -16.5320  -29.9067   23.6340 C   0  0  0  0  0  0
  -16.7248  -28.6506   23.0313 C   0  0  0  0  0  0
  -26.4486  -31.6560   25.0699 C   0  0  0  0  0  0
  -25.3683  -31.3723   26.1397 C   0  0  0  0  0  0
  -27.0334  -30.2947   24.6236 C   0  0  0  0  0  0
  -27.6014  -32.4350   25.7461 C   0  0  0  0  0  0
  -27.5572  -37.1787   24.8443 C   0  0  0  0  0  0
  -21.4236  -29.2992   22.3686 N   0  0  0  0  0  0
  -26.4291  -37.3739   23.9376 N   0  0  0  0  0  0
  -24.6973  -31.0475   22.0954 N   0  0  0  0  0  0
  -23.4196  -28.8018   23.3023 O   0  0  0  0  0  0
  -28.3287  -26.3613   20.1748 O   0  0  0  0  0  0
  -26.5650  -34.8868   22.4632 O   0  0  0  0  0  0
  -23.5436  -32.1344   23.7241 O   0  0  0  0  0  0
  -30.0770  -18.8635   20.5205 C   0  0  0  0  0  0
  -30.1998  -19.5003   19.2383 C   0  0  0  0  0  0
  -29.2851  -25.4971   22.1323 C   0  0  0  0  0  0
  -26.9611  -24.7737   21.6259 C   0  0  0  0  0  0
  -28.5728  -16.2792   20.1381 C   0  0  0  0  0  0
  -30.5886  -17.4147   20.9787 C   0  0  0  0  0  0
  -28.9045  -23.7011   20.3112 C   0  0  0  0  0  0
  -28.8325  -22.2775   21.1127 C   0  0  0  0  0  0
  -30.8013  -18.9070   17.9830 C   0  0  0  0  0  0
  -28.3384  -25.0843   20.9905 C   0  0  0  0  0  0
  -29.5715  -19.8010   21.3362 N   0  0  0  0  0  0
  -29.7917  -20.7671   19.2880 N   0  0  0  0  0  0
  -29.4208  -20.9678   20.5779 N   0  0  0  0  0  0
  -29.9472  -16.0737   20.5858 N   0  0  0  0  0  0
  -30.2278  -19.4026   16.8830 F   0  0  0  0  0  0
  -32.1064  -19.1730   17.9069 F   0  0  0  0  0  0
  -30.6550  -17.5824   17.9399 F   0  0  0  0  0  0
  -31.4646  -12.6796   19.1384 H   0  0  0  0  0  0
  -30.4243  -11.5678   19.9835 H   0  0  0  0  0  0
  -29.7995  -11.7097   17.5397 H   0  0  0  0  0  0
  -29.5684  -13.4353   17.6918 H   0  0  0  0  0  0
  -27.9305  -11.2145   18.9759 H   0  0  0  0  0  0
  -27.3598  -12.3989   17.8307 H   0  0  0  0  0  0
  -27.5373  -14.1398   19.3604 H   0  0  0  0  0  0
  -28.7876  -12.2139   21.4223 H   0  0  0  0  0  0
  -28.4053  -13.8640   21.7939 H   0  0  0  0  0  0
  -25.2673   -9.5552   22.4792 H   0  0  0  0  0  0
  -23.9899   -7.4504   22.7484 H   0  0  0  0  0  0
  -21.0761   -8.8634   19.8948 H   0  0  0  0  0  0
  -22.3592  -10.9559   19.6185 H   0  0  0  0  0  0
  -21.2006   -7.6109   23.9649 H   0  0  0  0  0  0
  -21.1486   -6.0525   25.9047 H   0  0  0  0  0  0
  -22.0626   -2.7557   23.2905 H   0  0  0  0  0  0
  -22.4053  -11.9784   22.4876 H   0  0  0  0  0  0
  -21.1013  -13.1059   22.2762 H   0  0  0  0  0  0
  -24.6052  -15.8051   20.5298 H   0  0  0  0  0  0
  -26.2245  -15.6416   20.0740 H   0  0  0  0  0  0
  -26.7188  -32.5363   23.1042 H   0  0  0  0  0  0
  -25.0017  -33.9686   25.0321 H   0  0  0  0  0  0
  -22.7255  -31.2832   21.3908 H   0  0  0  0  0  0
  -23.3734  -35.9654   23.3289 H   0  0  0  0  0  0
  -24.3601  -36.8949   22.2058 H   0  0  0  0  0  0
  -23.7313  -37.6498   23.6697 H   0  0  0  0  0  0
  -26.1280  -31.5314   20.6195 H   0  0  0  0  0  0
  -26.8491  -30.8072   22.0247 H   0  0  0  0  0  0
  -28.1330  -28.9441   21.2205 H   0  0  0  0  0  0
  -26.0243  -25.8815   19.0525 H   0  0  0  0  0  0
  -24.0005  -27.2816   19.0111 H   0  0  0  0  0  0
  -23.7844  -30.5727   19.4025 H   0  0  0  0  0  0
  -22.7833  -29.2226   19.8509 H   0  0  0  0  0  0
  -25.1326  -36.1839   25.0787 H   0  0  0  0  0  0
  -20.9909  -28.3206   24.1424 H   0  0  0  0  0  0
  -20.5665  -26.2232   23.3599 H   0  0  0  0  0  0
  -21.6605  -26.7411   22.1188 H   0  0  0  0  0  0
  -19.6884  -25.6298   21.1221 H   0  0  0  0  0  0
  -19.6689  -27.3210   20.6752 H   0  0  0  0  0  0
  -17.4178  -26.6646   21.4017 H   0  0  0  0  0  0
  -18.0292  -26.0097   22.9039 H   0  0  0  0  0  0
  -19.7897  -30.7315   24.2157 H   0  0  0  0  0  0
  -17.4958  -31.6227   24.5201 H   0  0  0  0  0  0
  -15.5302  -30.2929   23.7734 H   0  0  0  0  0  0
  -15.8636  -28.0850   22.6996 H   0  0  0  0  0  0
  -24.5826  -30.7138   25.7672 H   0  0  0  0  0  0
  -24.8930  -32.2927   26.4814 H   0  0  0  0  0  0
  -25.7970  -30.8844   27.0165 H   0  0  0  0  0  0
  -26.2927  -29.6680   24.1258 H   0  0  0  0  0  0
  -27.3972  -29.7216   25.4779 H   0  0  0  0  0  0
  -27.8829  -30.4181   23.9507 H   0  0  0  0  0  0
  -27.2564  -33.3644   26.2003 H   0  0  0  0  0  0
  -28.3799  -32.6946   25.0276 H   0  0  0  0  0  0
  -28.0704  -31.8522   26.5399 H   0  0  0  0  0  0
  -28.2546  -38.0117   24.7479 H   0  0  0  0  0  0
  -28.1092  -36.2631   24.6259 H   0  0  0  0  0  0
  -27.2269  -37.1427   25.8837 H   0  0  0  0  0  0
  -20.9423  -29.8756   21.6930 H   0  0  0  0  0  0
  -26.0134  -38.2788   24.1389 H   0  0  0  0  0  0
  -29.4353  -24.6973   22.8586 H   0  0  0  0  0  0
  -28.8979  -26.3584   22.6795 H   0  0  0  0  0  0
  -30.2667  -25.7811   21.7517 H   0  0  0  0  0  0
  -27.0500  -23.9984   22.3854 H   0  0  0  0  0  0
  -26.2375  -24.4206   20.8941 H   0  0  0  0  0  0
  -26.5364  -25.6360   22.1409 H   0  0  0  0  0  0
  -28.2127  -17.3040   20.1864 H   0  0  0  0  0  0
  -27.8946  -15.7321   20.7801 H   0  0  0  0  0  0
  -28.4778  -15.9806   19.0945 H   0  0  0  0  0  0
  -30.6096  -17.3976   22.0697 H   0  0  0  0  0  0
  -31.6424  -17.3518   20.7045 H   0  0  0  0  0  0
  -28.3759  -23.5569   19.3707 H   0  0  0  0  0  0
  -29.9452  -23.8668   20.0288 H   0  0  0  0  0  0
  -27.7825  -22.0560   21.3030 H   0  0  0  0  0  0
  -29.2678  -22.4217   22.1003 H   0  0  0  0  0  0
  1 25  1  0  0  0
  1 30  2  0  0  0
  1 84  1  0  0  0
  2  3  1  0  0  0
  2 25  1  0  0  0
  2 88  1  0  0  0
  2 89  1  0  0  0
  3  4  1  0  0  0
  3 90  1  0  0  0
  3 91  1  0  0  0
  4  5  1  0  0  0
  4 92  1  0  0  0
  4 93  1  0  0  0
  5  6  1  0  0  0
  5 26  1  0  0  0
  5 94  1  0  0  0
  6 25  1  0  0  0
  6 95  1  0  0  0
  6 96  1  0  0  0
  7  8  2  0  0  0
  7 26  1  0  0  0
  7 29  1  0  0  0
  8  9  1  0  0  0
  8 22  1  0  0  0
  9 10  1  0  0  0
  9 27  2  0  0  0
 10 11  2  0  0  0
 10 15  1  0  0  0
 11 12  1  0  0  0
 11 97  1  0  0  0
 12 13  2  0  0  0
 12 98  1  0  0  0
 13 14  1  0  0  0
 13 31  1  0  0  0
 14 15  2  0  0  0
 14 99  1  0  0  0
 15100  1  0  0  0
 16 17  2  0  0  0
 16 21  1  0  0  0
 16 31  1  0  0  0
 17 18  1  0  0  0
 17101  1  0  0  0
 18 19  2  0  0  0
 18102  1  0  0  0
 19 20  1  0  0  0
 19 24  1  0  0  0
 20 21  2  0  0  0
 20103  1  0  0  0
 21 23  1  0  0  0
 22 28  1  0  0  0
 22 32  2  0  0  0
 26 27  1  0  0  0
 28104  1  0  0  0
 28105  1  0  0  0
 29106  1  0  0  0
 29107  1  0  0  0
 33 34  1  0  0  0
 33 66  1  0  0  0
 33 70  2  0  0  0
 34 36  1  0  0  0
 34 59  1  0  0  0
 34108  1  0  0  0
 35 44  2  0  0  0
 35 45  1  0  0  0
 35 68  1  0  0  0
 36 56  1  0  0  0
 36109  1  0  0  0
 37 39  1  0  0  0
 37 47  1  0  0  0
 37 66  1  0  0  0
 37110  1  0  0  0
 38 43  2  0  0  0
 38 46  1  0  0  0
 38 47  1  0  0  0
 39 64  1  0  0  0
 39 67  2  0  0  0
 40 52  1  0  0  0
 40 53  2  0  0  0
 40 58  1  0  0  0
 41111  1  0  0  0
 41112  1  0  0  0
 41113  1  0  0  0
 41 48  1  0  0  0
 42 43  1  0  0  0
 42 66  1  0  0  0
 42114  1  0  0  0
 42115  1  0  0  0
 43 44  1  0  0  0
 44116  1  0  0  0
 45 46  2  0  0  0
 45117  1  0  0  0
 46118  1  0  0  0
 47119  1  0  0  0
 47120  1  0  0  0
 48 56  1  0  0  0
 48 65  1  0  0  0
 48121  1  0  0  0
 49 50  1  0  0  0
 49 53  1  0  0  0
 49 64  1  0  0  0
 49122  1  0  0  0
 50 51  1  0  0  0
 50123  1  0  0  0
 50124  1  0  0  0
 51 52  1  0  0  0
 51125  1  0  0  0
 51126  1  0  0  0
 52127  1  0  0  0
 52128  1  0  0  0
 53 54  1  0  0  0
 54 55  2  0  0  0
 54129  1  0  0  0
 55 57  1  0  0  0
 55130  1  0  0  0
 56 69  2  0  0  0
 57 58  2  0  0  0
 57131  1  0  0  0
 58132  1  0  0  0
 59 60  1  0  0  0
 59 61  1  0  0  0
 59 62  1  0  0  0
 60133  1  0  0  0
 60134  1  0  0  0
 60135  1  0  0  0
 61136  1  0  0  0
 61137  1  0  0  0
 61138  1  0  0  0
 62139  1  0  0  0
 62140  1  0  0  0
 62141  1  0  0  0
 63 65  1  0  0  0
 63142  1  0  0  0
 63143  1  0  0  0
 63144  1  0  0  0
 64145  1  0  0  0
 65146  1  0  0  0
 68 80  1  0  0  0
 71 72  1  0  0  0
 71 76  1  0  0  0
 71 81  2  0  0  0
 72 79  1  0  0  0
 72 82  2  0  0  0
 73147  1  0  0  0
 73148  1  0  0  0
 73149  1  0  0  0
 73 80  1  0  0  0
 74 80  1  0  0  0
 74150  1  0  0  0
 74151  1  0  0  0
 74152  1  0  0  0
 75 84  1  0  0  0
 75153  1  0  0  0
 75154  1  0  0  0
 75155  1  0  0  0
 76 84  1  0  0  0
 76156  1  0  0  0
 76157  1  0  0  0
 77 78  1  0  0  0
 77 80  1  0  0  0
 77158  1  0  0  0
 77159  1  0  0  0
 78 83  1  0  0  0
 78160  1  0  0  0
 78161  1  0  0  0
 79 85  1  0  0  0
 79 86  1  0  0  0
 79 87  1  0  0  0
 81 83  1  0  0  0
 82 83  1  0  0  0
M  ISO  4   1 100  68 101  80 101  84 100
M  END
> <chiral flag>
0

> <version>
0

> <s_m_source_file>
/data/baiqing/PycharmProjects/Reinvent-master-3.2/result/LINK_invent/BTK/process_docking_weight1_custom_sum_contain_oxygen_bond_distance_aromatic_linkinvent_7_9_3/rearranged_h_0060.sdf

> <i_m_source_file_index>
58

> <r_mmod_Potential_Energy-OPLS-2005>
377.706878662109

> <r_mmod_Stretch_Energy-OPLS-2005>
147.353317260742

> <r_mmod_Bend_Energy-OPLS-2005>
211.611251831055

> <r_mmod_Torsional_Energy-OPLS-2005>
293.667541503906

> <r_mmod_Improper_Torsional_Energy-OPLS-2005>
4.06549835205078

> <r_mmod_Van_der_Waal_Energy-OPLS-2005>
129.769500732422

> <r_mmod_Electrostatic_Energy-OPLS-2005>
-329.242889404297

> <r_mmod_Solvation_Energy-OPLS-2005>
-193.548812866211

> <b_mmod_Minimization_Converged-OPLS-2005>
0

> <r_mmod_RMS_Derivative-OPLS-2005>
4.82722043991089

$$$$
61
                    3D
 Structure written by MMmdl.
160168  0  0  1  0            999 V2000
  -30.5016  -15.0227   20.4238 C   0  0  0  0  0  0
  -30.4491  -12.6451   19.5102 C   0  0  0  0  0  0
  -29.5244  -12.5447   18.2751 C   0  0  0  0  0  0
  -28.0690  -12.2912   18.7046 C   0  0  0  0  0  0
  -27.6313  -13.2425   19.8443 C   0  0  2  0  0  0
  -28.6693  -13.3041   20.9849 C   0  0  0  0  0  0
  -25.2530  -13.8187   20.5742 C   0  0  0  0  0  0
  -24.1833  -13.0448   20.9223 C   0  0  0  0  0  0
  -24.6400  -11.6922   20.8782 C   0  0  0  0  0  0
  -23.9089  -10.4314   21.0457 C   0  0  0  0  0  0
  -24.3646   -9.4229   21.9226 C   0  0  0  0  0  0
  -23.6325   -8.2252   22.0796 C   0  0  0  0  0  0
  -22.4302   -8.0286   21.3554 C   0  0  0  0  0  0
  -21.9936   -9.0276   20.4666 C   0  0  0  0  0  0
  -22.7264  -10.2163   20.3097 C   0  0  0  0  0  0
  -21.6856   -6.0766   22.5276 C   0  0  0  0  0  0
  -21.4000   -6.5660   23.8221 C   0  0  0  0  0  0
  -21.3667   -5.6806   24.9168 C   0  0  0  0  0  0
  -21.6043   -4.3072   24.7233 C   0  0  0  0  0  0
  -21.8815   -3.8166   23.4352 C   0  0  0  0  0  0
  -21.9192   -4.6984   22.3407 C   0  0  0  0  0  0
  -22.7870  -13.5284   21.1828 C   0  0  0  0  0  0
  -22.1647   -4.2158   21.0988 F   0  0  0  0  0  0
  -21.5627   -3.4568   25.7750 F   0  0  0  0  0  0
  -29.9331  -13.7459   20.3821 N   0  0  0  0  0  0
  -26.2926  -12.9396   20.3296 N   0  0  0  0  0  0
  -25.9343  -11.6542   20.5775 N   0  0  0  0  0  0
  -22.0525  -12.8284   22.0360 N   0  0  0  0  0  0
  -25.4251  -15.1900   20.4163 N   0  0  0  0  0  0
  -31.7083  -15.0893   20.1644 O   0  0  0  0  0  0
  -21.6634   -6.8912   21.4237 O   0  0  0  0  0  0
  -22.3602  -14.5595   20.6666 O   0  0  0  0  0  0
  -24.6475  -31.8398   23.1836 C   0  0  0  0  0  0
  -25.9221  -32.4659   23.8259 C   0  0  1  0  0  0
  -27.1958  -27.0884   20.1530 C   0  0  0  0  0  0
  -25.5941  -33.8473   24.2157 N   0  0  0  0  0  0
  -23.4539  -30.4630   21.5296 C   0  0  2  0  0  0
  -24.8987  -28.8833   20.1124 C   0  0  0  0  0  0
  -22.7563  -29.4560   22.4798 C   0  0  0  0  0  0
  -18.0347  -28.1365   22.8507 C   0  0  0  0  0  0
  -24.1495  -36.7267   23.2638 C   0  0  0  0  0  0
  -26.0154  -30.6967   21.3942 C   0  0  0  0  0  0
  -26.0805  -29.3044   20.7376 C   0  0  0  0  0  0
  -27.2294  -28.4184   20.7462 C   0  0  0  0  0  0
  -25.9901  -26.7923   19.4730 C   0  0  0  0  0  0
  -24.8663  -27.6396   19.4725 C   0  0  0  0  0  0
  -23.6828  -29.7918   20.1511 C   0  0  0  0  0  0
  -25.4119  -36.3005   24.0305 C   0  0  1  0  0  0
  -20.5967  -28.3739   23.1203 C   0  0  2  0  0  0
  -20.6886  -26.9465   22.5336 C   0  0  0  0  0  0
  -19.5792  -26.6400   21.5211 C   0  0  0  0  0  0
  -18.1987  -26.7886   22.1690 C   0  0  0  0  0  0
  -19.1607  -28.8867   23.2850 C   0  0  0  0  0  0
  -18.9514  -30.1467   23.8862 C   0  0  0  0  0  0
  -17.6510  -30.6601   24.0515 C   0  0  0  0  0  0
  -25.9070  -34.9390   23.5033 C   0  0  0  0  0  0
  -16.5402  -29.9072   23.6316 C   0  0  0  0  0  0
  -16.7331  -28.6469   23.0381 C   0  0  0  0  0  0
  -26.4528  -31.6553   25.0732 C   0  0  0  0  0  0
  -25.3694  -31.3832   26.1423 C   0  0  0  0  0  0
  -27.0397  -30.2913   24.6383 C   0  0  0  0  0  0
  -27.6007  -32.4354   25.7533 C   0  0  0  0  0  0
  -27.5570  -37.1788   24.8459 C   0  0  0  0  0  0
  -21.4263  -29.3117   22.3595 N   0  0  0  0  0  0
  -26.4274  -37.3724   23.9399 N   0  0  0  0  0  0
  -24.7263  -31.0195   22.0917 N   0  0  0  0  0  0
  -23.4182  -28.8057   23.2937 O   0  0  0  0  0  0
  -28.2047  -26.0461   20.2377 O   0  0  0  0  0  0
  -26.5663  -34.8902   22.4621 O   0  0  0  0  0  0
  -23.5577  -32.1306   23.7011 O   0  0  0  0  0  0
  -29.6871  -22.8138   21.1167 C   0  0  0  0  0  0
  -28.5908  -23.1271   20.3395 C   0  0  0  0  0  0
  -28.9790  -20.7202   20.4200 C   0  0  0  0  0  0
  -25.6898  -21.7971   19.5947 C   0  0  0  0  0  0
  -28.1906  -18.8749   21.9406 C   0  0  0  0  0  0
  -27.6737  -18.5424   19.5699 C   0  0  0  0  0  0
  -27.7873  -24.5429   20.0394 C   0  0  0  0  0  0
  -27.0808  -21.6155   18.9581 C   0  0  0  0  0  0
  -29.9813  -17.7978   20.4147 C   0  0  0  0  0  0
  -28.7830  -19.0348   20.5289 C   0  0  0  0  0  0
  -28.2100  -21.7978   19.9041 N   0  0  0  0  0  0
  -29.8765  -21.4266   21.1496 N   0  3  0  0  0  0
  -29.7069  -16.2155   20.5555 N   0  0  0  0  0  0
  -31.4752  -12.8381   19.1864 H   0  0  0  0  0  0
  -30.4817  -11.6998   20.0559 H   0  0  0  0  0  0
  -29.8642  -11.7501   17.6083 H   0  0  0  0  0  0
  -29.5765  -13.4773   17.7088 H   0  0  0  0  0  0
  -28.0059  -11.2585   19.0482 H   0  0  0  0  0  0
  -27.3896  -12.3784   17.8559 H   0  0  0  0  0  0
  -27.5827  -14.2302   19.3853 H   0  0  0  0  0  0
  -28.7800  -12.3380   21.4838 H   0  0  0  0  0  0
  -28.3586  -14.0229   21.7435 H   0  0  0  0  0  0
  -25.2826   -9.5712   22.4762 H   0  0  0  0  0  0
  -24.0043   -7.4673   22.7562 H   0  0  0  0  0  0
  -21.0864   -8.8841   19.8986 H   0  0  0  0  0  0
  -22.3766  -10.9716   19.6196 H   0  0  0  0  0  0
  -21.1933   -7.6170   23.9688 H   0  0  0  0  0  0
  -21.1511   -6.0566   25.9066 H   0  0  0  0  0  0
  -22.0579   -2.7638   23.2861 H   0  0  0  0  0  0
  -22.4212  -11.9908   22.4598 H   0  0  0  0  0  0
  -21.1130  -13.1319   22.2575 H   0  0  0  0  0  0
  -24.6569  -15.8422   20.5367 H   0  0  0  0  0  0
  -26.2636  -15.6220   20.0488 H   0  0  0  0  0  0
  -26.7267  -32.5265   23.0971 H   0  0  0  0  0  0
  -25.0057  -33.9592   25.0282 H   0  0  0  0  0  0
  -22.7642  -31.2945   21.3680 H   0  0  0  0  0  0
  -23.3729  -35.9626   23.3275 H   0  0  0  0  0  0
  -24.3588  -36.8924   22.2056 H   0  0  0  0  0  0
  -23.7286  -37.6472   23.6703 H   0  0  0  0  0  0
  -26.1771  -31.4465   20.6184 H   0  0  0  0  0  0
  -26.8841  -30.7475   22.0416 H   0  0  0  0  0  0
  -28.1261  -28.7198   21.2699 H   0  0  0  0  0  0
  -25.8565  -25.8584   18.9514 H   0  0  0  0  0  0
  -23.9585  -27.3137   18.9796 H   0  0  0  0  0  0
  -23.8352  -30.5654   19.3962 H   0  0  0  0  0  0
  -22.7958  -29.2408   19.8281 H   0  0  0  0  0  0
  -25.1311  -36.1820   25.0794 H   0  0  0  0  0  0
  -21.0088  -28.3303   24.1308 H   0  0  0  0  0  0
  -20.5842  -26.2405   23.3578 H   0  0  0  0  0  0
  -21.6757  -26.7477   22.1117 H   0  0  0  0  0  0
  -19.6981  -25.6336   21.1231 H   0  0  0  0  0  0
  -19.6609  -27.3203   20.6718 H   0  0  0  0  0  0
  -17.4242  -26.6539   21.4101 H   0  0  0  0  0  0
  -18.0462  -26.0038   22.9128 H   0  0  0  0  0  0
  -19.7999  -30.7300   24.2198 H   0  0  0  0  0  0
  -17.5043  -31.6304   24.5070 H   0  0  0  0  0  0
  -15.5395  -30.2945   23.7663 H   0  0  0  0  0  0
  -15.8740  -28.0748   22.7155 H   0  0  0  0  0  0
  -24.5800  -30.7243   25.7783 H   0  0  0  0  0  0
  -24.8986  -32.3082   26.4760 H   0  0  0  0  0  0
  -25.7957  -30.9057   27.0250 H   0  0  0  0  0  0
  -26.3059  -29.6595   24.1350 H   0  0  0  0  0  0
  -27.3912  -29.7239   25.5011 H   0  0  0  0  0  0
  -27.9007  -30.4073   23.9790 H   0  0  0  0  0  0
  -27.2503  -33.3616   26.2081 H   0  0  0  0  0  0
  -28.3843  -32.6960   25.0418 H   0  0  0  0  0  0
  -28.0640  -31.8517   26.5483 H   0  0  0  0  0  0
  -28.2562  -38.0104   24.7480 H   0  0  0  0  0  0
  -28.1081  -36.2624   24.6294 H   0  0  0  0  0  0
  -27.2303  -37.1463   25.8869 H   0  0  0  0  0  0
  -20.9441  -29.8876   21.6846 H   0  0  0  0  0  0
  -26.0126  -38.2790   24.1378 H   0  0  0  0  0  0
  -30.3200  -23.4882   21.6806 H   0  0  0  0  0  0
  -25.4898  -22.8460   19.8047 H   0  0  0  0  0  0
  -25.5787  -21.2368   20.5223 H   0  0  0  0  0  0
  -24.9032  -21.4655   18.9135 H   0  0  0  0  0  0
  -27.2298  -19.3835   22.0246 H   0  0  0  0  0  0
  -28.8428  -19.3101   22.7005 H   0  0  0  0  0  0
  -28.0232  -17.8338   22.2128 H   0  0  0  0  0  0
  -27.9547  -18.6804   18.5256 H   0  0  0  0  0  0
  -26.7248  -19.0480   19.7542 H   0  0  0  0  0  0
  -27.4444  -17.4863   19.7011 H   0  0  0  0  0  0
  -26.8857  -24.4523   20.6443 H   0  0  0  0  0  0
  -27.4587  -24.4634   19.0050 H   0  0  0  0  0  0
  -27.2086  -22.3386   18.1511 H   0  0  0  0  0  0
  -27.1534  -20.6707   18.4372 H   0  0  0  0  0  0
  -30.4829  -17.9157   19.4516 H   0  0  0  0  0  0
  -30.7527  -18.0142   21.1569 H   0  0  0  0  0  0
  -30.6021  -20.9930   21.7075 H   0  0  0  0  0  0
  -28.7437  -16.0036   20.7685 H   0  0  0  0  0  0
  1 25  1  0  0  0
  1 30  2  0  0  0
  1 83  1  0  0  0
  2  3  1  0  0  0
  2 25  1  0  0  0
  2 84  1  0  0  0
  2 85  1  0  0  0
  3  4  1  0  0  0
  3 86  1  0  0  0
  3 87  1  0  0  0
  4  5  1  0  0  0
  4 88  1  0  0  0
  4 89  1  0  0  0
  5  6  1  0  0  0
  5 26  1  0  0  0
  5 90  1  0  0  0
  6 25  1  0  0  0
  6 91  1  0  0  0
  6 92  1  0  0  0
  7  8  2  0  0  0
  7 26  1  0  0  0
  7 29  1  0  0  0
  8  9  1  0  0  0
  8 22  1  0  0  0
  9 10  1  0  0  0
  9 27  2  0  0  0
 10 11  2  0  0  0
 10 15  1  0  0  0
 11 12  1  0  0  0
 11 93  1  0  0  0
 12 13  2  0  0  0
 12 94  1  0  0  0
 13 14  1  0  0  0
 13 31  1  0  0  0
 14 15  2  0  0  0
 14 95  1  0  0  0
 15 96  1  0  0  0
 16 17  2  0  0  0
 16 21  1  0  0  0
 16 31  1  0  0  0
 17 18  1  0  0  0
 17 97  1  0  0  0
 18 19  2  0  0  0
 18 98  1  0  0  0
 19 20  1  0  0  0
 19 24  1  0  0  0
 20 21  2  0  0  0
 20 99  1  0  0  0
 21 23  1  0  0  0
 22 28  1  0  0  0
 22 32  2  0  0  0
 26 27  1  0  0  0
 28100  1  0  0  0
 28101  1  0  0  0
 29102  1  0  0  0
 29103  1  0  0  0
 33 34  1  0  0  0
 33 66  1  0  0  0
 33 70  2  0  0  0
 34 36  1  0  0  0
 34 59  1  0  0  0
 34104  1  0  0  0
 35 44  2  0  0  0
 35 45  1  0  0  0
 35 68  1  0  0  0
 36 56  1  0  0  0
 36105  1  0  0  0
 37 39  1  0  0  0
 37 47  1  0  0  0
 37 66  1  0  0  0
 37106  1  0  0  0
 38 43  2  0  0  0
 38 46  1  0  0  0
 38 47  1  0  0  0
 39 64  1  0  0  0
 39 67  2  0  0  0
 40 52  1  0  0  0
 40 53  2  0  0  0
 40 58  1  0  0  0
 41107  1  0  0  0
 41108  1  0  0  0
 41109  1  0  0  0
 41 48  1  0  0  0
 42 43  1  0  0  0
 42 66  1  0  0  0
 42110  1  0  0  0
 42111  1  0  0  0
 43 44  1  0  0  0
 44112  1  0  0  0
 45 46  2  0  0  0
 45113  1  0  0  0
 46114  1  0  0  0
 47115  1  0  0  0
 47116  1  0  0  0
 48 56  1  0  0  0
 48 65  1  0  0  0
 48117  1  0  0  0
 49 50  1  0  0  0
 49 53  1  0  0  0
 49 64  1  0  0  0
 49118  1  0  0  0
 50 51  1  0  0  0
 50119  1  0  0  0
 50120  1  0  0  0
 51 52  1  0  0  0
 51121  1  0  0  0
 51122  1  0  0  0
 52123  1  0  0  0
 52124  1  0  0  0
 53 54  1  0  0  0
 54 55  2  0  0  0
 54125  1  0  0  0
 55 57  1  0  0  0
 55126  1  0  0  0
 56 69  2  0  0  0
 57 58  2  0  0  0
 57127  1  0  0  0
 58128  1  0  0  0
 59 60  1  0  0  0
 59 61  1  0  0  0
 59 62  1  0  0  0
 60129  1  0  0  0
 60130  1  0  0  0
 60131  1  0  0  0
 61132  1  0  0  0
 61133  1  0  0  0
 61134  1  0  0  0
 62135  1  0  0  0
 62136  1  0  0  0
 62137  1  0  0  0
 63 65  1  0  0  0
 63138  1  0  0  0
 63139  1  0  0  0
 63140  1  0  0  0
 64141  1  0  0  0
 65142  1  0  0  0
 68 77  1  0  0  0
 71 72  2  0  0  0
 71 82  1  0  0  0
 71143  1  0  0  0
 72 77  1  0  0  0
 72 81  1  0  0  0
 73 80  1  0  0  0
 73 81  1  0  0  0
 73 82  2  0  0  0
 74 78  1  0  0  0
 74144  1  0  0  0
 74145  1  0  0  0
 74146  1  0  0  0
 75147  1  0  0  0
 75148  1  0  0  0
 75149  1  0  0  0
 75 80  1  0  0  0
 76 80  1  0  0  0
 76150  1  0  0  0
 76151  1  0  0  0
 76152  1  0  0  0
 77153  1  0  0  0
 77154  1  0  0  0
 78 81  1  0  0  0
 78155  1  0  0  0
 78156  1  0  0  0
 79 80  1  0  0  0
 79 83  1  0  0  0
 79157  1  0  0  0
 79158  1  0  0  0
 82159  1  0  0  0
 83160  1  0  0  0
M  CHG  1  82   1
M  ISO  4   1 100  68 101  77 101  83 100
M  END
> <chiral flag>
0

> <version>
0

> <s_m_source_file>
/data/baiqing/PycharmProjects/Reinvent-master-3.2/result/LINK_invent/BTK/process_docking_weight1_custom_sum_contain_oxygen_bond_distance_aromatic_linkinvent_7_9_3/rearranged_h_0060.sdf

> <i_m_source_file_index>
59

> <r_mmod_Potential_Energy-OPLS-2005>
572.755737304688

> <r_mmod_Stretch_Energy-OPLS-2005>
328.232452392578

> <r_mmod_Bend_Energy-OPLS-2005>
292.629272460938

> <r_mmod_Torsional_Energy-OPLS-2005>
261.647155761719

> <r_mmod_Improper_Torsional_Energy-OPLS-2005>
5.91620016098022

> <r_mmod_Van_der_Waal_Energy-OPLS-2005>
118.031951904297

> <r_mmod_Electrostatic_Energy-OPLS-2005>
-257.951812744141

> <r_mmod_Solvation_Energy-OPLS-2005>
-427.179016113281

> <b_mmod_Minimization_Converged-OPLS-2005>
0

> <r_mmod_RMS_Derivative-OPLS-2005>
6.32279396057129

$$$$
62
                    3D
 Structure written by MMmdl.
162170  0  0  1  0            999 V2000
  -30.5542  -14.9983   20.4675 C   0  0  0  0  0  0
  -30.4358  -12.6286   19.5143 C   0  0  0  0  0  0
  -29.5270  -12.5738   18.2642 C   0  0  0  0  0  0
  -28.0583  -12.3520   18.6693 C   0  0  0  0  0  0
  -27.6329  -13.2607   19.8520 C   0  0  2  0  0  0
  -28.6733  -13.2769   20.9922 C   0  0  0  0  0  0
  -25.2366  -13.8132   20.5543 C   0  0  0  0  0  0
  -24.1744  -13.0369   20.9190 C   0  0  0  0  0  0
  -24.6416  -11.6885   20.8769 C   0  0  0  0  0  0
  -23.9097  -10.4262   21.0427 C   0  0  0  0  0  0
  -24.3647   -9.4182   21.9200 C   0  0  0  0  0  0
  -23.6309   -8.2219   22.0755 C   0  0  0  0  0  0
  -22.4289   -8.0272   21.3542 C   0  0  0  0  0  0
  -21.9930   -9.0248   20.4652 C   0  0  0  0  0  0
  -22.7271  -10.2122   20.3068 C   0  0  0  0  0  0
  -21.6857   -6.0741   22.5275 C   0  0  0  0  0  0
  -21.4021   -6.5643   23.8212 C   0  0  0  0  0  0
  -21.3663   -5.6789   24.9169 C   0  0  0  0  0  0
  -21.6049   -4.3052   24.7222 C   0  0  0  0  0  0
  -21.8821   -3.8149   23.4342 C   0  0  0  0  0  0
  -21.9187   -4.6966   22.3400 C   0  0  0  0  0  0
  -22.7766  -13.5156   21.1857 C   0  0  0  0  0  0
  -22.1659   -4.2157   21.0982 F   0  0  0  0  0  0
  -21.5626   -3.4533   25.7735 F   0  0  0  0  0  0
  -29.9497  -13.7281   20.4136 N   0  0  0  0  0  0
  -26.2895  -12.9449   20.3277 N   0  0  0  0  0  0
  -25.9375  -11.6570   20.5816 N   0  0  0  0  0  0
  -22.0438  -12.8152   22.0447 N   0  0  0  0  0  0
  -25.3783  -15.1792   20.3656 N   0  0  0  0  0  0
  -31.7023  -15.0603   20.0105 O   0  0  0  0  0  0
  -21.6628   -6.8884   21.4242 O   0  0  0  0  0  0
  -22.3430  -14.5460   20.6727 O   0  0  0  0  0  0
  -24.6495  -31.8390   23.1830 C   0  0  0  0  0  0
  -25.9239  -32.4660   23.8249 C   0  0  1  0  0  0
  -27.2198  -27.0733   20.1593 C   0  0  0  0  0  0
  -25.5973  -33.8476   24.2165 N   0  0  0  0  0  0
  -23.4573  -30.4562   21.5290 C   0  0  2  0  0  0
  -24.9122  -28.8779   20.1071 C   0  0  0  0  0  0
  -22.7606  -29.4509   22.4818 C   0  0  0  0  0  0
  -18.0323  -28.1386   22.8453 C   0  0  0  0  0  0
  -24.1505  -36.7233   23.2644 C   0  0  0  0  0  0
  -26.0202  -30.6886   21.3997 C   0  0  0  0  0  0
  -26.0897  -29.2966   20.7388 C   0  0  0  0  0  0
  -27.2410  -28.4096   20.7526 C   0  0  0  0  0  0
  -26.0197  -26.7863   19.4668 C   0  0  0  0  0  0
  -24.8949  -27.6385   19.4535 C   0  0  0  0  0  0
  -23.6910  -29.7858   20.1498 C   0  0  0  0  0  0
  -25.4135  -36.3012   24.0314 C   0  0  1  0  0  0
  -20.5943  -28.3717   23.1221 C   0  0  2  0  0  0
  -20.6791  -26.9401   22.5419 C   0  0  0  0  0  0
  -19.5786  -26.6350   21.5205 C   0  0  0  0  0  0
  -18.1954  -26.7938   22.1576 C   0  0  0  0  0  0
  -19.1585  -28.8858   23.2839 C   0  0  0  0  0  0
  -18.9502  -30.1447   23.8877 C   0  0  0  0  0  0
  -17.6503  -30.6572   24.0561 C   0  0  0  0  0  0
  -25.9083  -34.9391   23.5049 C   0  0  0  0  0  0
  -16.5386  -29.9071   23.6334 C   0  0  0  0  0  0
  -16.7310  -28.6497   23.0331 C   0  0  0  0  0  0
  -26.4535  -31.6539   25.0707 C   0  0  0  0  0  0
  -25.3696  -31.3747   26.1377 C   0  0  0  0  0  0
  -27.0407  -30.2918   24.6353 C   0  0  0  0  0  0
  -27.6060  -32.4317   25.7485 C   0  0  0  0  0  0
  -27.5580  -37.1777   24.8463 C   0  0  0  0  0  0
  -21.4287  -29.3047   22.3586 N   0  0  0  0  0  0
  -26.4293  -37.3729   23.9407 N   0  0  0  0  0  0
  -24.7289  -31.0182   22.0908 N   0  0  0  0  0  0
  -23.4235  -28.8057   23.2983 O   0  0  0  0  0  0
  -28.2311  -26.0230   20.2599 O   0  0  0  0  0  0
  -26.5671  -34.8902   22.4630 O   0  0  0  0  0  0
  -23.5595  -32.1310   23.6987 O   0  0  0  0  0  0
  -28.3643  -21.7008   19.8855 C   0  0  0  0  0  0
  -29.8951  -21.4856   21.3114 C   0  0  0  0  0  0
  -28.6473  -23.0568   20.2900 C   0  0  0  0  0  0
  -26.3744  -19.7535   21.1379 C   0  0  0  0  0  0
  -27.0478  -17.4925   21.7693 C   0  0  0  0  0  0
  -27.0268  -18.1301   19.3409 C   0  0  0  0  0  0
  -29.9289  -16.2363   22.3928 C   0  0  0  0  0  0
  -27.8844  -24.5136   19.9327 C   0  0  0  0  0  0
  -29.9433  -17.7337   20.3860 C   0  0  0  0  0  0
  -28.8954  -19.0408   20.8379 C   0  0  2  0  0  0
  -27.3670  -18.6194   20.7621 C   0  0  0  0  0  0
  -29.6980  -22.8334   21.1979 N   0  0  0  0  0  0
  -29.0846  -20.6478   20.6148 N   0  0  0  0  0  0
  -29.8925  -16.2028   20.9189 N   0  0  0  0  0  0
  -31.4724  -12.7736   19.2061 H   0  0  0  0  0  0
  -30.4239  -11.6692   20.0343 H   0  0  0  0  0  0
  -29.8544  -11.7847   17.5853 H   0  0  0  0  0  0
  -29.6187  -13.5107   17.7136 H   0  0  0  0  0  0
  -27.9488  -11.3041   18.9515 H   0  0  0  0  0  0
  -27.4004  -12.5108   17.8130 H   0  0  0  0  0  0
  -27.5974  -14.2738   19.4512 H   0  0  0  0  0  0
  -28.7727  -12.2901   21.4483 H   0  0  0  0  0  0
  -28.3431  -13.9403   21.7879 H   0  0  0  0  0  0
  -25.2806   -9.5652   22.4753 H   0  0  0  0  0  0
  -24.0024   -7.4614   22.7464 H   0  0  0  0  0  0
  -21.0857   -8.8781   19.8955 H   0  0  0  0  0  0
  -22.3748  -10.9655   19.6163 H   0  0  0  0  0  0
  -21.2021   -7.6152   23.9733 H   0  0  0  0  0  0
  -21.1490   -6.0511   25.9077 H   0  0  0  0  0  0
  -22.0604   -2.7611   23.2832 H   0  0  0  0  0  0
  -22.4083  -11.9846   22.4858 H   0  0  0  0  0  0
  -21.1065  -13.1160   22.2696 H   0  0  0  0  0  0
  -24.6007  -15.8175   20.4878 H   0  0  0  0  0  0
  -26.2236  -15.6412   20.0580 H   0  0  0  0  0  0
  -26.7299  -32.5238   23.0964 H   0  0  0  0  0  0
  -25.0113  -33.9592   25.0307 H   0  0  0  0  0  0
  -22.7627  -31.2833   21.3690 H   0  0  0  0  0  0
  -23.3777  -35.9550   23.3286 H   0  0  0  0  0  0
  -24.3595  -36.8889   22.2062 H   0  0  0  0  0  0
  -23.7252  -37.6423   23.6691 H   0  0  0  0  0  0
  -26.1932  -31.4381   20.6272 H   0  0  0  0  0  0
  -26.8833  -30.7333   22.0514 H   0  0  0  0  0  0
  -28.1283  -28.7212   21.2864 H   0  0  0  0  0  0
  -25.9022  -25.8496   18.9449 H   0  0  0  0  0  0
  -24.0034  -27.3170   18.9351 H   0  0  0  0  0  0
  -23.8373  -30.5603   19.3965 H   0  0  0  0  0  0
  -22.8056  -29.2332   19.8314 H   0  0  0  0  0  0
  -25.1329  -36.1832   25.0803 H   0  0  0  0  0  0
  -21.0026  -28.3301   24.1345 H   0  0  0  0  0  0
  -20.5633  -26.2326   23.3649 H   0  0  0  0  0  0
  -21.6668  -26.7356   22.1255 H   0  0  0  0  0  0
  -19.6946  -25.6242   21.1275 H   0  0  0  0  0  0
  -19.6761  -27.3122   20.6710 H   0  0  0  0  0  0
  -17.4252  -26.6735   21.3937 H   0  0  0  0  0  0
  -18.0284  -26.0061   22.8934 H   0  0  0  0  0  0
  -19.7981  -30.7255   24.2255 H   0  0  0  0  0  0
  -17.5058  -31.6251   24.5177 H   0  0  0  0  0  0
  -15.5389  -30.2963   23.7667 H   0  0  0  0  0  0
  -15.8714  -28.0815   22.7039 H   0  0  0  0  0  0
  -24.5918  -30.7045   25.7697 H   0  0  0  0  0  0
  -24.8824  -32.2925   26.4681 H   0  0  0  0  0  0
  -25.7958  -30.9014   27.0230 H   0  0  0  0  0  0
  -26.3043  -29.6615   24.1351 H   0  0  0  0  0  0
  -27.3975  -29.7248   25.4962 H   0  0  0  0  0  0
  -27.8978  -30.4124   23.9723 H   0  0  0  0  0  0
  -27.2659  -33.3654   26.1975 H   0  0  0  0  0  0
  -28.3902  -32.6817   25.0324 H   0  0  0  0  0  0
  -28.0686  -31.8494   26.5466 H   0  0  0  0  0  0
  -28.2579  -38.0088   24.7508 H   0  0  0  0  0  0
  -28.1095  -36.2617   24.6288 H   0  0  0  0  0  0
  -27.2296  -37.1418   25.8865 H   0  0  0  0  0  0
  -20.9485  -29.8798   21.6805 H   0  0  0  0  0  0
  -26.0154  -38.2798   24.1392 H   0  0  0  0  0  0
  -27.5999  -21.4028   19.1836 H   0  0  0  0  0  0
  -30.6103  -21.0912   22.0194 H   0  0  0  0  0  0
  -25.4061  -19.3695   21.4600 H   0  0  0  0  0  0
  -26.1304  -20.3991   20.2981 H   0  0  0  0  0  0
  -26.7505  -20.3716   21.9540 H   0  0  0  0  0  0
  -25.9776  -17.3072   21.8591 H   0  0  0  0  0  0
  -27.4023  -17.7269   22.7725 H   0  0  0  0  0  0
  -27.4682  -16.5391   21.4697 H   0  0  0  0  0  0
  -25.9587  -17.9449   19.2224 H   0  0  0  0  0  0
  -27.5379  -17.1975   19.0979 H   0  0  0  0  0  0
  -27.3208  -18.8634   18.5892 H   0  0  0  0  0  0
  -29.8795  -17.2437   22.7966 H   0  0  0  0  0  0
  -30.8517  -15.8144   22.7963 H   0  0  0  0  0  0
  -29.1030  -15.6822   22.8362 H   0  0  0  0  0  0
  -26.8797  -24.3888   20.3350 H   0  0  0  0  0  0
  -27.7432  -24.5119   18.8517 H   0  0  0  0  0  0
  -30.9603  -18.0703   20.5861 H   0  0  0  0  0  0
  -29.9031  -17.6568   19.2994 H   0  0  0  0  0  0
  -29.0724  -19.0338   21.9120 H   0  0  0  0  0  0
  1 25  1  0  0  0
  1 30  2  0  0  0
  1 84  1  0  0  0
  2  3  1  0  0  0
  2 25  1  0  0  0
  2 85  1  0  0  0
  2 86  1  0  0  0
  3  4  1  0  0  0
  3 87  1  0  0  0
  3 88  1  0  0  0
  4  5  1  0  0  0
  4 89  1  0  0  0
  4 90  1  0  0  0
  5  6  1  0  0  0
  5 26  1  0  0  0
  5 91  1  0  0  0
  6 25  1  0  0  0
  6 92  1  0  0  0
  6 93  1  0  0  0
  7  8  2  0  0  0
  7 26  1  0  0  0
  7 29  1  0  0  0
  8  9  1  0  0  0
  8 22  1  0  0  0
  9 10  1  0  0  0
  9 27  2  0  0  0
 10 11  2  0  0  0
 10 15  1  0  0  0
 11 12  1  0  0  0
 11 94  1  0  0  0
 12 13  2  0  0  0
 12 95  1  0  0  0
 13 14  1  0  0  0
 13 31  1  0  0  0
 14 15  2  0  0  0
 14 96  1  0  0  0
 15 97  1  0  0  0
 16 17  2  0  0  0
 16 21  1  0  0  0
 16 31  1  0  0  0
 17 18  1  0  0  0
 17 98  1  0  0  0
 18 19  2  0  0  0
 18 99  1  0  0  0
 19 20  1  0  0  0
 19 24  1  0  0  0
 20 21  2  0  0  0
 20100  1  0  0  0
 21 23  1  0  0  0
 22 28  1  0  0  0
 22 32  2  0  0  0
 26 27  1  0  0  0
 28101  1  0  0  0
 28102  1  0  0  0
 29103  1  0  0  0
 29104  1  0  0  0
 33 34  1  0  0  0
 33 66  1  0  0  0
 33 70  2  0  0  0
 34 36  1  0  0  0
 34 59  1  0  0  0
 34105  1  0  0  0
 35 44  2  0  0  0
 35 45  1  0  0  0
 35 68  1  0  0  0
 36 56  1  0  0  0
 36106  1  0  0  0
 37 39  1  0  0  0
 37 47  1  0  0  0
 37 66  1  0  0  0
 37107  1  0  0  0
 38 43  2  0  0  0
 38 46  1  0  0  0
 38 47  1  0  0  0
 39 64  1  0  0  0
 39 67  2  0  0  0
 40 52  1  0  0  0
 40 53  2  0  0  0
 40 58  1  0  0  0
 41108  1  0  0  0
 41109  1  0  0  0
 41110  1  0  0  0
 41 48  1  0  0  0
 42 43  1  0  0  0
 42 66  1  0  0  0
 42111  1  0  0  0
 42112  1  0  0  0
 43 44  1  0  0  0
 44113  1  0  0  0
 45 46  2  0  0  0
 45114  1  0  0  0
 46115  1  0  0  0
 47116  1  0  0  0
 47117  1  0  0  0
 48 56  1  0  0  0
 48 65  1  0  0  0
 48118  1  0  0  0
 49 50  1  0  0  0
 49 53  1  0  0  0
 49 64  1  0  0  0
 49119  1  0  0  0
 50 51  1  0  0  0
 50120  1  0  0  0
 50121  1  0  0  0
 51 52  1  0  0  0
 51122  1  0  0  0
 51123  1  0  0  0
 52124  1  0  0  0
 52125  1  0  0  0
 53 54  1  0  0  0
 54 55  2  0  0  0
 54126  1  0  0  0
 55 57  1  0  0  0
 55127  1  0  0  0
 56 69  2  0  0  0
 57 58  2  0  0  0
 57128  1  0  0  0
 58129  1  0  0  0
 59 60  1  0  0  0
 59 61  1  0  0  0
 59 62  1  0  0  0
 60130  1  0  0  0
 60131  1  0  0  0
 60132  1  0  0  0
 61133  1  0  0  0
 61134  1  0  0  0
 61135  1  0  0  0
 62136  1  0  0  0
 62137  1  0  0  0
 62138  1  0  0  0
 63 65  1  0  0  0
 63139  1  0  0  0
 63140  1  0  0  0
 63141  1  0  0  0
 64142  1  0  0  0
 65143  1  0  0  0
 68 78  1  0  0  0
 71 73  2  0  0  0
 71 83  1  0  0  0
 71144  1  0  0  0
 72 82  2  0  0  0
 72 83  1  0  0  0
 72145  1  0  0  0
 73 78  1  0  0  0
 73 82  1  0  0  0
 74146  1  0  0  0
 74147  1  0  0  0
 74148  1  0  0  0
 74 81  1  0  0  0
 75 81  1  0  0  0
 75149  1  0  0  0
 75150  1  0  0  0
 75151  1  0  0  0
 76 81  1  0  0  0
 76152  1  0  0  0
 76153  1  0  0  0
 76154  1  0  0  0
 77 84  1  0  0  0
 77155  1  0  0  0
 77156  1  0  0  0
 77157  1  0  0  0
 78158  1  0  0  0
 78159  1  0  0  0
 79 84  1  0  0  0
 79160  1  0  0  0
 79161  1  0  0  0
 79 80  1  0  0  0
 80 81  1  0  0  0
 80 83  1  0  0  0
 80162  1  0  0  0
M  ISO  4   1 100  68 101  78 101  84 100
M  END
> <chiral flag>
0

> <version>
0

> <s_m_source_file>
/data/baiqing/PycharmProjects/Reinvent-master-3.2/result/LINK_invent/BTK/process_docking_weight1_custom_sum_contain_oxygen_bond_distance_aromatic_linkinvent_7_9_3/rearranged_h_0060.sdf

> <i_m_source_file_index>
60

> <r_mmod_Potential_Energy-OPLS-2005>
938.264465332031

> <r_mmod_Stretch_Energy-OPLS-2005>
359.720397949219

> <r_mmod_Bend_Energy-OPLS-2005>
356.087890625

> <r_mmod_Torsional_Energy-OPLS-2005>
325.196990966797

> <r_mmod_Improper_Torsional_Energy-OPLS-2005>
8.60159683227539

> <r_mmod_Van_der_Waal_Energy-OPLS-2005>
130.578002929688

> <r_mmod_Electrostatic_Energy-OPLS-2005>
-270.040313720703

> <r_mmod_Solvation_Energy-OPLS-2005>
-212.59912109375

> <b_mmod_Minimization_Converged-OPLS-2005>
0

> <r_mmod_RMS_Derivative-OPLS-2005>
2.32488203048706

$$$$
63
                    3D
 Structure written by MMmdl.
159167  0  0  1  0            999 V2000
  -30.4973  -14.9625   20.4702 C   0  0  0  0  0  0
  -30.4492  -12.6017   19.4904 C   0  0  0  0  0  0
  -29.5207  -12.5458   18.2536 C   0  0  0  0  0  0
  -28.0498  -12.3360   18.6641 C   0  0  0  0  0  0
  -27.6335  -13.2468   19.8481 C   0  0  2  0  0  0
  -28.6784  -13.2255   20.9838 C   0  0  0  0  0  0
  -25.2470  -13.8223   20.5709 C   0  0  0  0  0  0
  -24.1776  -13.0455   20.9199 C   0  0  0  0  0  0
  -24.6388  -11.6939   20.8748 C   0  0  0  0  0  0
  -23.9076  -10.4306   21.0416 C   0  0  0  0  0  0
  -24.3632   -9.4212   21.9173 C   0  0  0  0  0  0
  -23.6305   -8.2244   22.0744 C   0  0  0  0  0  0
  -22.4282   -8.0282   21.3544 C   0  0  0  0  0  0
  -21.9932   -9.0258   20.4642 C   0  0  0  0  0  0
  -22.7266  -10.2132   20.3058 C   0  0  0  0  0  0
  -21.6866   -6.0730   22.5278 C   0  0  0  0  0  0
  -21.4016   -6.5635   23.8204 C   0  0  0  0  0  0
  -21.3664   -5.6793   24.9170 C   0  0  0  0  0  0
  -21.6046   -4.3057   24.7230 C   0  0  0  0  0  0
  -21.8821   -3.8148   23.4352 C   0  0  0  0  0  0
  -21.9191   -4.6957   22.3407 C   0  0  0  0  0  0
  -22.7792  -13.5201   21.1867 C   0  0  0  0  0  0
  -22.1662   -4.2145   21.0985 F   0  0  0  0  0  0
  -21.5629   -3.4540   25.7739 F   0  0  0  0  0  0
  -29.9527  -13.6742   20.4024 N   0  0  0  0  0  0
  -26.2892  -12.9454   20.3275 N   0  0  0  0  0  0
  -25.9323  -11.6585   20.5757 N   0  0  0  0  0  0
  -22.0474  -12.8176   22.0434 N   0  0  0  0  0  0
  -25.4170  -15.1950   20.4131 N   0  0  0  0  0  0
  -31.6590  -15.0770   20.0557 O   0  0  0  0  0  0
  -21.6642   -6.8887   21.4248 O   0  0  0  0  0  0
  -22.3469  -14.5509   20.6725 O   0  0  0  0  0  0
  -24.6465  -31.8438   23.1862 C   0  0  0  0  0  0
  -25.9225  -32.4695   23.8270 C   0  0  1  0  0  0
  -27.2146  -27.1144   20.1456 C   0  0  0  0  0  0
  -25.5945  -33.8502   24.2175 N   0  0  0  0  0  0
  -23.4527  -30.4617   21.5340 C   0  0  2  0  0  0
  -24.9003  -28.8876   20.1136 C   0  0  0  0  0  0
  -22.7600  -29.4547   22.4855 C   0  0  0  0  0  0
  -18.0309  -28.1425   22.8499 C   0  0  0  0  0  0
  -24.1485  -36.7244   23.2641 C   0  0  0  0  0  0
  -26.0117  -30.7107   21.3907 C   0  0  0  0  0  0
  -26.0824  -29.3219   20.7257 C   0  0  0  0  0  0
  -27.2426  -28.4527   20.7206 C   0  0  0  0  0  0
  -26.0001  -26.7889   19.5013 C   0  0  0  0  0  0
  -24.8716  -27.6340   19.4868 C   0  0  0  0  0  0
  -23.6791  -29.7919   20.1551 C   0  0  0  0  0  0
  -25.4124  -36.3027   24.0312 C   0  0  1  0  0  0
  -20.5925  -28.3753   23.1232 C   0  0  2  0  0  0
  -20.6796  -26.9448   22.5411 C   0  0  0  0  0  0
  -19.5768  -26.6399   21.5230 C   0  0  0  0  0  0
  -18.1941  -26.7967   22.1637 C   0  0  0  0  0  0
  -19.1572  -28.8909   23.2849 C   0  0  0  0  0  0
  -18.9478  -30.1501   23.8878 C   0  0  0  0  0  0
  -17.6468  -30.6609   24.0574 C   0  0  0  0  0  0
  -25.9078  -34.9410   23.5058 C   0  0  0  0  0  0
  -16.5365  -29.9099   23.6358 C   0  0  0  0  0  0
  -16.7289  -28.6523   23.0373 C   0  0  0  0  0  0
  -26.4527  -31.6590   25.0743 C   0  0  0  0  0  0
  -25.3673  -31.3800   26.1405 C   0  0  0  0  0  0
  -27.0415  -30.2980   24.6383 C   0  0  0  0  0  0
  -27.6029  -32.4383   25.7534 C   0  0  0  0  0  0
  -27.5574  -37.1775   24.8462 C   0  0  0  0  0  0
  -21.4284  -29.3058   22.3593 N   0  0  0  0  0  0
  -26.4287  -37.3742   23.9402 N   0  0  0  0  0  0
  -24.7231  -31.0279   22.0902 N   0  0  0  0  0  0
  -23.4219  -28.8081   23.3022 O   0  0  0  0  0  0
  -28.2520  -26.1042   20.2099 O   0  0  0  0  0  0
  -26.5658  -34.8904   22.4632 O   0  0  0  0  0  0
  -23.5573  -32.1309   23.7075 O   0  0  0  0  0  0
  -28.6956  -18.8701   20.8377 C   0  0  0  0  0  0
  -29.0917  -20.1330   20.3355 C   0  0  0  0  0  0
  -29.2776  -17.2258   23.5216 C   0  0  0  0  0  0
  -27.4404  -21.4820   18.9374 C   0  0  0  0  0  0
  -27.2624  -21.5286   21.4118 C   0  0  0  0  0  0
  -30.1381  -16.3539   22.5892 C   0  0  0  0  0  0
  -28.8696  -23.1687   20.2890 C   0  0  0  0  0  0
  -27.9211  -24.5753   20.0826 C   0  0  0  0  0  0
  -29.7126  -16.3074   21.0958 C   0  0  1  0  0  0
  -28.2608  -21.5771   20.2365 C   0  0  0  0  0  0
  -30.2910  -19.7637   19.6826 N   0  0  0  0  0  0
  -30.6237  -18.4752   19.8675 N   0  0  0  0  0  0
  -29.6444  -17.8170   20.5615 N   0  0  0  0  0  0
  -31.4765  -12.7809   19.1716 H   0  0  0  0  0  0
  -30.4604  -11.6404   20.0034 H   0  0  0  0  0  0
  -29.8354  -11.7514   17.5749 H   0  0  0  0  0  0
  -29.6078  -13.4779   17.6942 H   0  0  0  0  0  0
  -27.9300  -11.2890   18.9439 H   0  0  0  0  0  0
  -27.3940  -12.5013   17.8082 H   0  0  0  0  0  0
  -27.6106  -14.2602   19.4450 H   0  0  0  0  0  0
  -28.7707  -12.2217   21.4030 H   0  0  0  0  0  0
  -28.3718  -13.8691   21.8094 H   0  0  0  0  0  0
  -25.2786   -9.5670   22.4727 H   0  0  0  0  0  0
  -24.0016   -7.4635   22.7468 H   0  0  0  0  0  0
  -21.0859   -8.8792   19.8946 H   0  0  0  0  0  0
  -22.3749  -10.9660   19.6149 H   0  0  0  0  0  0
  -21.2015   -7.6144   23.9714 H   0  0  0  0  0  0
  -21.1484   -6.0519   25.9066 H   0  0  0  0  0  0
  -22.0598   -2.7605   23.2864 H   0  0  0  0  0  0
  -22.4122  -11.9845   22.4812 H   0  0  0  0  0  0
  -21.1072  -13.1156   22.2655 H   0  0  0  0  0  0
  -24.6515  -15.8512   20.5170 H   0  0  0  0  0  0
  -26.2651  -15.6300   20.0731 H   0  0  0  0  0  0
  -26.7298  -32.5298   23.0994 H   0  0  0  0  0  0
  -25.0055  -33.9611   25.0300 H   0  0  0  0  0  0
  -22.7564  -31.2882   21.3782 H   0  0  0  0  0  0
  -23.3765  -35.9555   23.3304 H   0  0  0  0  0  0
  -24.3547  -36.8902   22.2052 H   0  0  0  0  0  0
  -23.7239  -37.6434   23.6698 H   0  0  0  0  0  0
  -26.1779  -31.4705   20.6263 H   0  0  0  0  0  0
  -26.8748  -30.7518   22.0425 H   0  0  0  0  0  0
  -28.1450  -28.7788   21.2195 H   0  0  0  0  0  0
  -25.8770  -25.8324   19.0197 H   0  0  0  0  0  0
  -23.9663  -27.2948   19.0029 H   0  0  0  0  0  0
  -23.8178  -30.5644   19.3981 H   0  0  0  0  0  0
  -22.7937  -29.2348   19.8462 H   0  0  0  0  0  0
  -25.1318  -36.1849   25.0808 H   0  0  0  0  0  0
  -21.0019  -28.3367   24.1350 H   0  0  0  0  0  0
  -20.5750  -26.2350   23.3628 H   0  0  0  0  0  0
  -21.6654  -26.7484   22.1172 H   0  0  0  0  0  0
  -19.6924  -25.6298   21.1287 H   0  0  0  0  0  0
  -19.6716  -27.3200   20.6750 H   0  0  0  0  0  0
  -17.4216  -26.6734   21.4033 H   0  0  0  0  0  0
  -18.0312  -26.0122   22.9046 H   0  0  0  0  0  0
  -19.7946  -30.7326   24.2249 H   0  0  0  0  0  0
  -17.5017  -31.6294   24.5166 H   0  0  0  0  0  0
  -15.5366  -30.2977   23.7697 H   0  0  0  0  0  0
  -15.8693  -28.0818   22.7100 H   0  0  0  0  0  0
  -24.5832  -30.7185   25.7702 H   0  0  0  0  0  0
  -24.8855  -32.2982   26.4769 H   0  0  0  0  0  0
  -25.7881  -30.8993   27.0242 H   0  0  0  0  0  0
  -26.3066  -29.6660   24.1376 H   0  0  0  0  0  0
  -27.3983  -29.7329   25.5007 H   0  0  0  0  0  0
  -27.8985  -30.4200   23.9753 H   0  0  0  0  0  0
  -27.2605  -33.3698   26.2042 H   0  0  0  0  0  0
  -28.3858  -32.6938   25.0389 H   0  0  0  0  0  0
  -28.0673  -31.8583   26.5515 H   0  0  0  0  0  0
  -28.2578  -38.0089   24.7521 H   0  0  0  0  0  0
  -28.1100  -36.2616   24.6291 H   0  0  0  0  0  0
  -27.2277  -37.1406   25.8864 H   0  0  0  0  0  0
  -20.9492  -29.8735   21.6735 H   0  0  0  0  0  0
  -26.0165  -38.2813   24.1427 H   0  0  0  0  0  0
  -27.7964  -18.6264   21.3884 H   0  0  0  0  0  0
  -29.5467  -17.0543   24.5644 H   0  0  0  0  0  0
  -28.2155  -17.0006   23.4140 H   0  0  0  0  0  0
  -29.4240  -18.2894   23.3364 H   0  0  0  0  0  0
  -26.8786  -20.5476   18.8919 H   0  0  0  0  0  0
  -28.0852  -21.5161   18.0600 H   0  0  0  0  0  0
  -26.7142  -22.2893   18.8540 H   0  0  0  0  0  0
  -26.6236  -20.6459   21.3716 H   0  0  0  0  0  0
  -26.5951  -22.3890   21.4299 H   0  0  0  0  0  0
  -27.7901  -21.5053   22.3664 H   0  0  0  0  0  0
  -30.1431  -15.3440   23.0002 H   0  0  0  0  0  0
  -31.1720  -16.6955   22.6459 H   0  0  0  0  0  0
  -29.3986  -23.2754   21.2360 H   0  0  0  0  0  0
  -29.6529  -23.2187   19.5341 H   0  0  0  0  0  0
  -27.0600  -24.4477   20.7379 H   0  0  0  0  0  0
  -27.5261  -24.4713   19.0721 H   0  0  0  0  0  0
  -28.6672  -16.0020   21.0819 H   0  0  0  0  0  0
  1 25  1  0  0  0
  1 30  2  0  0  0
  1 79  1  0  0  0
  2  3  1  0  0  0
  2 25  1  0  0  0
  2 84  1  0  0  0
  2 85  1  0  0  0
  3  4  1  0  0  0
  3 86  1  0  0  0
  3 87  1  0  0  0
  4  5  1  0  0  0
  4 88  1  0  0  0
  4 89  1  0  0  0
  5  6  1  0  0  0
  5 26  1  0  0  0
  5 90  1  0  0  0
  6 25  1  0  0  0
  6 91  1  0  0  0
  6 92  1  0  0  0
  7  8  2  0  0  0
  7 26  1  0  0  0
  7 29  1  0  0  0
  8  9  1  0  0  0
  8 22  1  0  0  0
  9 10  1  0  0  0
  9 27  2  0  0  0
 10 11  2  0  0  0
 10 15  1  0  0  0
 11 12  1  0  0  0
 11 93  1  0  0  0
 12 13  2  0  0  0
 12 94  1  0  0  0
 13 14  1  0  0  0
 13 31  1  0  0  0
 14 15  2  0  0  0
 14 95  1  0  0  0
 15 96  1  0  0  0
 16 17  2  0  0  0
 16 21  1  0  0  0
 16 31  1  0  0  0
 17 18  1  0  0  0
 17 97  1  0  0  0
 18 19  2  0  0  0
 18 98  1  0  0  0
 19 20  1  0  0  0
 19 24  1  0  0  0
 20 21  2  0  0  0
 20 99  1  0  0  0
 21 23  1  0  0  0
 22 28  1  0  0  0
 22 32  2  0  0  0
 26 27  1  0  0  0
 28100  1  0  0  0
 28101  1  0  0  0
 29102  1  0  0  0
 29103  1  0  0  0
 33 34  1  0  0  0
 33 66  1  0  0  0
 33 70  2  0  0  0
 34 36  1  0  0  0
 34 59  1  0  0  0
 34104  1  0  0  0
 35 44  2  0  0  0
 35 45  1  0  0  0
 35 68  1  0  0  0
 36 56  1  0  0  0
 36105  1  0  0  0
 37 39  1  0  0  0
 37 47  1  0  0  0
 37 66  1  0  0  0
 37106  1  0  0  0
 38 43  2  0  0  0
 38 46  1  0  0  0
 38 47  1  0  0  0
 39 64  1  0  0  0
 39 67  2  0  0  0
 40 52  1  0  0  0
 40 53  2  0  0  0
 40 58  1  0  0  0
 41107  1  0  0  0
 41108  1  0  0  0
 41109  1  0  0  0
 41 48  1  0  0  0
 42 43  1  0  0  0
 42 66  1  0  0  0
 42110  1  0  0  0
 42111  1  0  0  0
 43 44  1  0  0  0
 44112  1  0  0  0
 45 46  2  0  0  0
 45113  1  0  0  0
 46114  1  0  0  0
 47115  1  0  0  0
 47116  1  0  0  0
 48 56  1  0  0  0
 48 65  1  0  0  0
 48117  1  0  0  0
 49 50  1  0  0  0
 49 53  1  0  0  0
 49 64  1  0  0  0
 49118  1  0  0  0
 50 51  1  0  0  0
 50119  1  0  0  0
 50120  1  0  0  0
 51 52  1  0  0  0
 51121  1  0  0  0
 51122  1  0  0  0
 52123  1  0  0  0
 52124  1  0  0  0
 53 54  1  0  0  0
 54 55  2  0  0  0
 54125  1  0  0  0
 55 57  1  0  0  0
 55126  1  0  0  0
 56 69  2  0  0  0
 57 58  2  0  0  0
 57127  1  0  0  0
 58128  1  0  0  0
 59 60  1  0  0  0
 59 61  1  0  0  0
 59 62  1  0  0  0
 60129  1  0  0  0
 60130  1  0  0  0
 60131  1  0  0  0
 61132  1  0  0  0
 61133  1  0  0  0
 61134  1  0  0  0
 62135  1  0  0  0
 62136  1  0  0  0
 62137  1  0  0  0
 63 65  1  0  0  0
 63138  1  0  0  0
 63139  1  0  0  0
 63140  1  0  0  0
 64141  1  0  0  0
 65142  1  0  0  0
 68 78  1  0  0  0
 71 72  2  0  0  0
 71 83  1  0  0  0
 71143  1  0  0  0
 72 80  1  0  0  0
 72 81  1  0  0  0
 73 76  1  0  0  0
 73144  1  0  0  0
 73145  1  0  0  0
 73146  1  0  0  0
 74147  1  0  0  0
 74148  1  0  0  0
 74149  1  0  0  0
 74 80  1  0  0  0
 75 80  1  0  0  0
 75150  1  0  0  0
 75151  1  0  0  0
 75152  1  0  0  0
 76153  1  0  0  0
 76154  1  0  0  0
 76 79  1  0  0  0
 77 78  1  0  0  0
 77 80  1  0  0  0
 77155  1  0  0  0
 77156  1  0  0  0
 78157  1  0  0  0
 78158  1  0  0  0
 79 83  1  0  0  0
 79159  1  0  0  0
 81 82  2  0  0  0
 82 83  1  0  0  0
M  ISO  4   1 100  68 101  78 101  79 100
M  END
> <chiral flag>
0

> <version>
0

> <s_m_source_file>
/data/baiqing/PycharmProjects/Reinvent-master-3.2/result/LINK_invent/BTK/process_docking_weight1_custom_sum_contain_oxygen_bond_distance_aromatic_linkinvent_7_9_3/rearranged_h_0060.sdf

> <i_m_source_file_index>
61

> <r_mmod_Potential_Energy-OPLS-2005>
599.299377441406

> <r_mmod_Stretch_Energy-OPLS-2005>
295.762023925781

> <r_mmod_Bend_Energy-OPLS-2005>
308.859832763672

> <r_mmod_Torsional_Energy-OPLS-2005>
199.375625610352

> <r_mmod_Improper_Torsional_Energy-OPLS-2005>
3.87864184379578

> <r_mmod_Van_der_Waal_Energy-OPLS-2005>
111.745338439941

> <r_mmod_Electrostatic_Energy-OPLS-2005>
-314.622894287109

> <r_mmod_Solvation_Energy-OPLS-2005>
-211.237167358398

> <b_mmod_Minimization_Converged-OPLS-2005>
0

> <r_mmod_RMS_Derivative-OPLS-2005>
2.94785976409912

$$$$
64
                    3D
 Structure written by MMmdl.
150158  0  0  1  0            999 V2000
  -30.5109  -15.0508   20.4293 C   0  0  0  0  0  0
  -30.4511  -12.6788   19.4692 C   0  0  0  0  0  0
  -29.5125  -12.5571   18.2438 C   0  0  0  0  0  0
  -28.0507  -12.3196   18.6735 C   0  0  0  0  0  0
  -27.6289  -13.2371   19.8500 C   0  0  2  0  0  0
  -28.6952  -13.2223   20.9672 C   0  0  0  0  0  0
  -25.2411  -13.8134   20.5724 C   0  0  0  0  0  0
  -24.1739  -13.0371   20.9238 C   0  0  0  0  0  0
  -24.6374  -11.6869   20.8778 C   0  0  0  0  0  0
  -23.9064  -10.4252   21.0416 C   0  0  0  0  0  0
  -24.3615   -9.4173   21.9193 C   0  0  0  0  0  0
  -23.6287   -8.2214   22.0756 C   0  0  0  0  0  0
  -22.4270   -8.0261   21.3543 C   0  0  0  0  0  0
  -21.9906   -9.0235   20.4646 C   0  0  0  0  0  0
  -22.7238  -10.2109   20.3059 C   0  0  0  0  0  0
  -21.6845   -6.0726   22.5280 C   0  0  0  0  0  0
  -21.4010   -6.5633   23.8212 C   0  0  0  0  0  0
  -21.3660   -5.6788   24.9175 C   0  0  0  0  0  0
  -21.6044   -4.3050   24.7228 C   0  0  0  0  0  0
  -21.8818   -3.8140   23.4350 C   0  0  0  0  0  0
  -21.9191   -4.6955   22.3405 C   0  0  0  0  0  0
  -22.7763  -13.5160   21.1883 C   0  0  0  0  0  0
  -22.1660   -4.2141   21.0982 F   0  0  0  0  0  0
  -21.5633   -3.4535   25.7742 F   0  0  0  0  0  0
  -29.9224  -13.7674   20.3560 N   0  0  0  0  0  0
  -26.2883  -12.9377   20.3359 N   0  0  0  0  0  0
  -25.9317  -11.6512   20.5817 N   0  0  0  0  0  0
  -22.0419  -12.8164   22.0453 N   0  0  0  0  0  0
  -25.3930  -15.1853   20.4094 N   0  0  0  0  0  0
  -31.7241  -15.0652   20.1778 O   0  0  0  0  0  0
  -21.6629   -6.8865   21.4241 O   0  0  0  0  0  0
  -22.3448  -14.5465   20.6725 O   0  0  0  0  0  0
  -24.6473  -31.8390   23.1831 C   0  0  0  0  0  0
  -25.9226  -32.4666   23.8241 C   0  0  1  0  0  0
  -27.2269  -27.0978   20.1534 C   0  0  0  0  0  0
  -25.5956  -33.8475   24.2158 N   0  0  0  0  0  0
  -23.4538  -30.4555   21.5293 C   0  0  2  0  0  0
  -24.9053  -28.8714   20.1109 C   0  0  0  0  0  0
  -22.7588  -29.4520   22.4840 C   0  0  0  0  0  0
  -18.0308  -28.1397   22.8473 C   0  0  0  0  0  0
  -24.1493  -36.7245   23.2643 C   0  0  0  0  0  0
  -26.0120  -30.6998   21.3878 C   0  0  0  0  0  0
  -26.0839  -29.3067   20.7295 C   0  0  0  0  0  0
  -27.2437  -28.4377   20.7297 C   0  0  0  0  0  0
  -26.0193  -26.7691   19.4994 C   0  0  0  0  0  0
  -24.8879  -27.6174   19.4801 C   0  0  0  0  0  0
  -23.6830  -29.7785   20.1512 C   0  0  0  0  0  0
  -25.4127  -36.3015   24.0309 C   0  0  1  0  0  0
  -20.5924  -28.3728   23.1223 C   0  0  2  0  0  0
  -20.6790  -26.9424   22.5405 C   0  0  0  0  0  0
  -19.5767  -26.6376   21.5212 C   0  0  0  0  0  0
  -18.1948  -26.7934   22.1621 C   0  0  0  0  0  0
  -19.1566  -28.8880   23.2840 C   0  0  0  0  0  0
  -18.9480  -30.1476   23.8866 C   0  0  0  0  0  0
  -17.6476  -30.6591   24.0557 C   0  0  0  0  0  0
  -25.9080  -34.9392   23.5046 C   0  0  0  0  0  0
  -16.5366  -29.9082   23.6337 C   0  0  0  0  0  0
  -16.7293  -28.6501   23.0356 C   0  0  0  0  0  0
  -26.4534  -31.6555   25.0706 C   0  0  0  0  0  0
  -25.3706  -31.3760   26.1393 C   0  0  0  0  0  0
  -27.0411  -30.2942   24.6330 C   0  0  0  0  0  0
  -27.6049  -32.4336   25.7500 C   0  0  0  0  0  0
  -27.5577  -37.1779   24.8464 C   0  0  0  0  0  0
  -21.4275  -29.3045   22.3588 N   0  0  0  0  0  0
  -26.4287  -37.3733   23.9405 N   0  0  0  0  0  0
  -24.7245  -31.0207   22.0882 N   0  0  0  0  0  0
  -23.4209  -28.8079   23.3017 O   0  0  0  0  0  0
  -28.2837  -26.1033   20.2206 O   0  0  0  0  0  0
  -26.5673  -34.8898   22.4630 O   0  0  0  0  0  0
  -23.5582  -32.1284   23.7028 O   0  0  0  0  0  0
  -30.0264  -20.6425   20.5114 C   0  0  0  0  0  0
  -28.0236  -20.9040   19.8796 C   0  0  0  0  0  0
  -29.5704  -19.2988   20.2838 C   0  0  0  0  0  0
  -28.3881  -16.4318   20.9174 C   0  0  0  0  0  0
  -30.3457  -17.8050   20.3214 C   0  0  0  0  0  0
  -29.1800  -23.3027   20.3934 C   0  0  0  0  0  0
  -28.0596  -24.5477   20.0627 C   0  0  0  0  0  0
  -28.2506  -19.5571   19.8598 N   0  0  0  0  0  0
  -29.0474  -21.7039   20.2579 N   0  0  0  0  0  0
  -29.7909  -16.3180   20.5232 N   0  0  0  0  0  0
  -31.4638  -12.8878   19.1213 H   0  0  0  0  0  0
  -30.5247  -11.7291   20.0014 H   0  0  0  0  0  0
  -29.8460  -11.7521   17.5876 H   0  0  0  0  0  0
  -29.5698  -13.4739   17.6551 H   0  0  0  0  0  0
  -27.9601  -11.2753   18.9744 H   0  0  0  0  0  0
  -27.3782  -12.4516   17.8251 H   0  0  0  0  0  0
  -27.5892  -14.2401   19.4300 H   0  0  0  0  0  0
  -28.8467  -12.1992   21.3147 H   0  0  0  0  0  0
  -28.3991  -13.7446   21.8709 H   0  0  0  0  0  0
  -25.2758   -9.5652   22.4770 H   0  0  0  0  0  0
  -23.9989   -7.4602   22.7478 H   0  0  0  0  0  0
  -21.0835   -8.8760   19.8954 H   0  0  0  0  0  0
  -22.3701  -10.9653   19.6171 H   0  0  0  0  0  0
  -21.2002   -7.6141   23.9715 H   0  0  0  0  0  0
  -21.1485   -6.0518   25.9078 H   0  0  0  0  0  0
  -22.0601   -2.7604   23.2854 H   0  0  0  0  0  0
  -22.4040  -11.9831   22.4845 H   0  0  0  0  0  0
  -21.1042  -13.1194   22.2673 H   0  0  0  0  0  0
  -24.6197  -15.8304   20.5291 H   0  0  0  0  0  0
  -26.2448  -15.6387   20.1086 H   0  0  0  0  0  0
  -26.7293  -32.5258   23.0967 H   0  0  0  0  0  0
  -25.0074  -33.9582   25.0286 H   0  0  0  0  0  0
  -22.7589  -31.2825   21.3698 H   0  0  0  0  0  0
  -23.3759  -35.9573   23.3290 H   0  0  0  0  0  0
  -24.3573  -36.8899   22.2062 H   0  0  0  0  0  0
  -23.7247  -37.6433   23.6698 H   0  0  0  0  0  0
  -26.1734  -31.4523   20.6148 H   0  0  0  0  0  0
  -26.8795  -30.7507   22.0342 H   0  0  0  0  0  0
  -28.1418  -28.7686   21.2322 H   0  0  0  0  0  0
  -25.9209  -25.8089   19.0151 H   0  0  0  0  0  0
  -23.9883  -27.2788   18.9847 H   0  0  0  0  0  0
  -23.8219  -30.5499   19.3928 H   0  0  0  0  0  0
  -22.7974  -29.2213   19.8408 H   0  0  0  0  0  0
  -25.1320  -36.1834   25.0801 H   0  0  0  0  0  0
  -21.0016  -28.3324   24.1345 H   0  0  0  0  0  0
  -20.5675  -26.2343   23.3632 H   0  0  0  0  0  0
  -21.6657  -26.7418   22.1211 H   0  0  0  0  0  0
  -19.6927  -25.6278   21.1265 H   0  0  0  0  0  0
  -19.6708  -27.3167   20.6727 H   0  0  0  0  0  0
  -17.4218  -26.6677   21.4024 H   0  0  0  0  0  0
  -18.0345  -26.0083   22.9023 H   0  0  0  0  0  0
  -19.7957  -30.7302   24.2221 H   0  0  0  0  0  0
  -17.5028  -31.6268   24.5166 H   0  0  0  0  0  0
  -15.5366  -30.2972   23.7678 H   0  0  0  0  0  0
  -15.8695  -28.0811   22.7086 H   0  0  0  0  0  0
  -24.5892  -30.7102   25.7710 H   0  0  0  0  0  0
  -24.8889  -32.2949   26.4745 H   0  0  0  0  0  0
  -25.7976  -30.8978   27.0217 H   0  0  0  0  0  0
  -26.3044  -29.6647   24.1326 H   0  0  0  0  0  0
  -27.3990  -29.7264   25.4930 H   0  0  0  0  0  0
  -27.8965  -30.4160   23.9680 H   0  0  0  0  0  0
  -27.2626  -33.3656   26.2011 H   0  0  0  0  0  0
  -28.3898  -32.6868   25.0359 H   0  0  0  0  0  0
  -28.0679  -31.8510   26.5476 H   0  0  0  0  0  0
  -28.2581  -38.0087   24.7507 H   0  0  0  0  0  0
  -28.1085  -36.2614   24.6296 H   0  0  0  0  0  0
  -27.2292  -37.1430   25.8866 H   0  0  0  0  0  0
  -20.9495  -29.8747   21.6750 H   0  0  0  0  0  0
  -26.0149  -38.2798   24.1407 H   0  0  0  0  0  0
  -31.0183  -20.9371   20.8300 H   0  0  0  0  0  0
  -27.0673  -21.3190   19.5923 H   0  0  0  0  0  0
  -28.1973  -17.3657   21.4436 H   0  0  0  0  0  0
  -28.0410  -15.6869   21.6172 H   0  0  0  0  0  0
  -27.7623  -16.4332   20.0272 H   0  0  0  0  0  0
  -31.1222  -17.8859   21.0825 H   0  0  0  0  0  0
  -30.9176  -17.7384   19.3955 H   0  0  0  0  0  0
  -29.4910  -23.4662   21.4250 H   0  0  0  0  0  0
  -30.0647  -23.5547   19.8092 H   0  0  0  0  0  0
  -27.1716  -24.3188   20.6527 H   0  0  0  0  0  0
  -27.7530  -24.4023   19.0268 H   0  0  0  0  0  0
  1 25  1  0  0  0
  1 30  2  0  0  0
  1 80  1  0  0  0
  2  3  1  0  0  0
  2 25  1  0  0  0
  2 81  1  0  0  0
  2 82  1  0  0  0
  3  4  1  0  0  0
  3 83  1  0  0  0
  3 84  1  0  0  0
  4  5  1  0  0  0
  4 85  1  0  0  0
  4 86  1  0  0  0
  5  6  1  0  0  0
  5 26  1  0  0  0
  5 87  1  0  0  0
  6 25  1  0  0  0
  6 88  1  0  0  0
  6 89  1  0  0  0
  7  8  2  0  0  0
  7 26  1  0  0  0
  7 29  1  0  0  0
  8  9  1  0  0  0
  8 22  1  0  0  0
  9 10  1  0  0  0
  9 27  2  0  0  0
 10 11  2  0  0  0
 10 15  1  0  0  0
 11 12  1  0  0  0
 11 90  1  0  0  0
 12 13  2  0  0  0
 12 91  1  0  0  0
 13 14  1  0  0  0
 13 31  1  0  0  0
 14 15  2  0  0  0
 14 92  1  0  0  0
 15 93  1  0  0  0
 16 17  2  0  0  0
 16 21  1  0  0  0
 16 31  1  0  0  0
 17 18  1  0  0  0
 17 94  1  0  0  0
 18 19  2  0  0  0
 18 95  1  0  0  0
 19 20  1  0  0  0
 19 24  1  0  0  0
 20 21  2  0  0  0
 20 96  1  0  0  0
 21 23  1  0  0  0
 22 28  1  0  0  0
 22 32  2  0  0  0
 26 27  1  0  0  0
 28 97  1  0  0  0
 28 98  1  0  0  0
 29 99  1  0  0  0
 29100  1  0  0  0
 33 34  1  0  0  0
 33 66  1  0  0  0
 33 70  2  0  0  0
 34 36  1  0  0  0
 34 59  1  0  0  0
 34101  1  0  0  0
 35 44  2  0  0  0
 35 45  1  0  0  0
 35 68  1  0  0  0
 36 56  1  0  0  0
 36102  1  0  0  0
 37 39  1  0  0  0
 37 47  1  0  0  0
 37 66  1  0  0  0
 37103  1  0  0  0
 38 43  2  0  0  0
 38 46  1  0  0  0
 38 47  1  0  0  0
 39 64  1  0  0  0
 39 67  2  0  0  0
 40 52  1  0  0  0
 40 53  2  0  0  0
 40 58  1  0  0  0
 41104  1  0  0  0
 41105  1  0  0  0
 41106  1  0  0  0
 41 48  1  0  0  0
 42 43  1  0  0  0
 42 66  1  0  0  0
 42107  1  0  0  0
 42108  1  0  0  0
 43 44  1  0  0  0
 44109  1  0  0  0
 45 46  2  0  0  0
 45110  1  0  0  0
 46111  1  0  0  0
 47112  1  0  0  0
 47113  1  0  0  0
 48 56  1  0  0  0
 48 65  1  0  0  0
 48114  1  0  0  0
 49 50  1  0  0  0
 49 53  1  0  0  0
 49 64  1  0  0  0
 49115  1  0  0  0
 50 51  1  0  0  0
 50116  1  0  0  0
 50117  1  0  0  0
 51 52  1  0  0  0
 51118  1  0  0  0
 51119  1  0  0  0
 52120  1  0  0  0
 52121  1  0  0  0
 53 54  1  0  0  0
 54 55  2  0  0  0
 54122  1  0  0  0
 55 57  1  0  0  0
 55123  1  0  0  0
 56 69  2  0  0  0
 57 58  2  0  0  0
 57124  1  0  0  0
 58125  1  0  0  0
 59 60  1  0  0  0
 59 61  1  0  0  0
 59 62  1  0  0  0
 60126  1  0  0  0
 60127  1  0  0  0
 60128  1  0  0  0
 61129  1  0  0  0
 61130  1  0  0  0
 61131  1  0  0  0
 62132  1  0  0  0
 62133  1  0  0  0
 62134  1  0  0  0
 63 65  1  0  0  0
 63135  1  0  0  0
 63136  1  0  0  0
 63137  1  0  0  0
 64138  1  0  0  0
 65139  1  0  0  0
 68 77  1  0  0  0
 71 73  2  0  0  0
 71 79  1  0  0  0
 71140  1  0  0  0
 72 78  2  0  0  0
 72 79  1  0  0  0
 72141  1  0  0  0
 73 75  1  0  0  0
 73 78  1  0  0  0
 74 80  1  0  0  0
 74142  1  0  0  0
 74143  1  0  0  0
 74144  1  0  0  0
 75 80  1  0  0  0
 75145  1  0  0  0
 75146  1  0  0  0
 76 77  1  0  0  0
 76 79  1  0  0  0
 76147  1  0  0  0
 76148  1  0  0  0
 77149  1  0  0  0
 77150  1  0  0  0
M  ISO  4   1 100  68 101  77 101  80 100
M  END
> <chiral flag>
0

> <version>
0

> <s_m_source_file>
/data/baiqing/PycharmProjects/Reinvent-master-3.2/result/LINK_invent/BTK/process_docking_weight1_custom_sum_contain_oxygen_bond_distance_aromatic_linkinvent_7_9_3/rearranged_h_0060.sdf

> <i_m_source_file_index>
62

> <r_mmod_Potential_Energy-OPLS-2005>
690.390441894531

> <r_mmod_Stretch_Energy-OPLS-2005>
320.746917724609

> <r_mmod_Bend_Energy-OPLS-2005>
320.572326660156

> <r_mmod_Torsional_Energy-OPLS-2005>
251.33219909668

> <r_mmod_Improper_Torsional_Energy-OPLS-2005>
5.68474245071411

> <r_mmod_Van_der_Waal_Energy-OPLS-2005>
121.521697998047

> <r_mmod_Electrostatic_Energy-OPLS-2005>
-341.996032714844

> <r_mmod_Solvation_Energy-OPLS-2005>
-225.995742797852

> <b_mmod_Minimization_Converged-OPLS-2005>
0

> <r_mmod_RMS_Derivative-OPLS-2005>
0.424749940633774

$$$$
65
                    3D
 Structure written by MMmdl.
170178  0  0  1  0            999 V2000
  -30.7333  -14.5547   20.6019 C   0  0  0  0  0  0
  -30.4211  -12.3718   19.4351 C   0  0  0  0  0  0
  -29.4918  -12.5100   18.2100 C   0  0  0  0  0  0
  -28.0151  -12.3500   18.6188 C   0  0  0  0  0  0
  -27.6528  -13.2043   19.8611 C   0  0  2  0  0  0
  -28.7028  -13.0003   20.9778 C   0  0  0  0  0  0
  -25.2543  -13.8138   20.5676 C   0  0  0  0  0  0
  -24.1810  -13.0393   20.9179 C   0  0  0  0  0  0
  -24.6419  -11.6890   20.8758 C   0  0  0  0  0  0
  -23.9100  -10.4267   21.0390 C   0  0  0  0  0  0
  -24.3637   -9.4175   21.9155 C   0  0  0  0  0  0
  -23.6291   -8.2228   22.0740 C   0  0  0  0  0  0
  -22.4284   -8.0286   21.3535 C   0  0  0  0  0  0
  -21.9936   -9.0265   20.4650 C   0  0  0  0  0  0
  -22.7286  -10.2121   20.3041 C   0  0  0  0  0  0
  -21.6844   -6.0768   22.5299 C   0  0  0  0  0  0
  -21.4029   -6.5659   23.8252 C   0  0  0  0  0  0
  -21.3647   -5.6790   24.9189 C   0  0  0  0  0  0
  -21.6020   -4.3057   24.7228 C   0  0  0  0  0  0
  -21.8821   -3.8169   23.4349 C   0  0  0  0  0  0
  -21.9185   -4.6981   22.3413 C   0  0  0  0  0  0
  -22.7829  -13.5185   21.1834 C   0  0  0  0  0  0
  -22.1658   -4.2179   21.0987 F   0  0  0  0  0  0
  -21.5603   -3.4543   25.7739 F   0  0  0  0  0  0
  -30.0193  -13.3844   20.4436 N   0  0  0  0  0  0
  -26.2983  -12.9311   20.3310 N   0  0  0  0  0  0
  -25.9328  -11.6474   20.5753 N   0  0  0  0  0  0
  -22.0487  -12.8179   22.0425 N   0  0  0  0  0  0
  -25.4101  -15.1881   20.4112 N   0  0  0  0  0  0
  -31.8371  -14.6399   20.0590 O   0  0  0  0  0  0
  -21.6621   -6.8905   21.4274 O   0  0  0  0  0  0
  -22.3503  -14.5487   20.6677 O   0  0  0  0  0  0
  -24.6130  -31.8679   23.2134 C   0  0  0  0  0  0
  -25.9000  -32.4845   23.8452 C   0  0  1  0  0  0
  -27.2265  -27.3963   20.0965 C   0  0  0  0  0  0
  -25.5849  -33.8646   24.2362 N   0  0  0  0  0  0
  -23.4031  -30.4924   21.5537 C   0  0  2  0  0  0
  -24.8483  -28.9620   20.1088 C   0  0  0  0  0  0
  -22.7395  -29.4631   22.4982 C   0  0  0  0  0  0
  -18.0267  -28.1344   22.8511 C   0  0  0  0  0  0
  -24.1465  -36.7340   23.2641 C   0  0  0  0  0  0
  -25.9348  -30.8212   21.3730 C   0  0  0  0  0  0
  -26.0069  -29.4519   20.7203 C   0  0  0  0  0  0
  -27.1889  -28.6701   20.7244 C   0  0  0  0  0  0
  -26.0556  -26.9533   19.4399 C   0  0  0  0  0  0
  -24.8688  -27.7118   19.4686 C   0  0  0  0  0  0
  -23.6132  -29.8359   20.1638 C   0  0  0  0  0  0
  -25.4076  -36.3122   24.0354 C   0  0  1  0  0  0
  -20.5858  -28.3609   23.1344 C   0  0  2  0  0  0
  -20.6722  -26.9335   22.5438 C   0  0  0  0  0  0
  -19.5711  -26.6354   21.5213 C   0  0  0  0  0  0
  -18.1897  -26.7900   22.1631 C   0  0  0  0  0  0
  -19.1517  -28.8799   23.2934 C   0  0  0  0  0  0
  -18.9435  -30.1402   23.8942 C   0  0  0  0  0  0
  -17.6440  -30.6558   24.0557 C   0  0  0  0  0  0
  -25.8993  -34.9492   23.5150 C   0  0  0  0  0  0
  -16.5335  -29.9056   23.6322 C   0  0  0  0  0  0
  -16.7254  -28.6467   23.0360 C   0  0  0  0  0  0
  -26.4419  -31.6641   25.0787 C   0  0  0  0  0  0
  -25.3727  -31.3711   26.1579 C   0  0  0  0  0  0
  -27.0206  -30.3082   24.6161 C   0  0  0  0  0  0
  -27.6009  -32.4347   25.7533 C   0  0  0  0  0  0
  -27.5578  -37.1812   24.8466 C   0  0  0  0  0  0
  -21.4120  -29.3004   22.3770 N   0  0  0  0  0  0
  -26.4272  -37.3810   23.9435 N   0  0  0  0  0  0
  -24.6688  -31.0748   22.1056 N   0  0  0  0  0  0
  -23.4174  -28.8169   23.3014 O   0  0  0  0  0  0
  -28.3895  -26.6390   20.1705 O   0  0  0  0  0  0
  -26.5565  -34.8931   22.4720 O   0  0  0  0  0  0
  -23.5325  -32.1426   23.7521 O   0  0  0  0  0  0
  -26.9120  -23.6380   20.1291 C   0  0  0  0  0  0
  -26.6634  -22.2739   20.3117 C   0  0  0  0  0  0
  -28.2443  -24.0456   19.9465 C   0  0  0  0  0  0
  -28.9168  -21.8315   20.2918 C   0  0  0  0  0  0
  -24.7692  -21.2235   21.6745 C   0  0  0  0  0  0
  -31.1988  -15.8858   22.6768 C   0  0  0  0  0  0
  -28.8319  -15.9772   21.8425 C   0  0  0  0  0  0
  -32.1981  -18.9517   21.3912 C   0  0  0  0  0  0
  -25.2495  -21.7127   20.3026 C   0  0  0  0  0  0
  -28.5980  -25.4471   19.3678 C   0  0  0  0  0  0
  -30.0259  -20.7531   20.2890 C   0  0  0  0  0  0
  -29.7528  -19.5321   21.2383 C   0  0  0  0  0  0
  -30.6198  -17.1850   20.5476 C   0  0  0  0  0  0
  -30.3111  -15.8718   21.4043 C   0  0  0  0  0  0
  -27.6697  -21.3848   20.3903 N   0  0  0  0  0  0
  -29.2406  -23.1154   20.0532 N   0  0  0  0  0  0
  -30.8003  -18.4486   21.3541 N   0  3  1  0  0  0
  -31.4632  -12.4585   19.1239 H   0  0  0  0  0  0
  -30.3413  -11.3666   19.8538 H   0  0  0  0  0  0
  -29.7505  -11.7661   17.4554 H   0  0  0  0  0  0
  -29.6375  -13.4854   17.7426 H   0  0  0  0  0  0
  -27.8392  -11.2941   18.8278 H   0  0  0  0  0  0
  -27.3652  -12.6024   17.7801 H   0  0  0  0  0  0
  -27.6792  -14.2394   19.5246 H   0  0  0  0  0  0
  -28.7160  -11.9451   21.2546 H   0  0  0  0  0  0
  -28.4333  -13.4944   21.9026 H   0  0  0  0  0  0
  -25.2782   -9.5634   22.4709 H   0  0  0  0  0  0
  -23.9989   -7.4619   22.7448 H   0  0  0  0  0  0
  -21.0866   -8.8811   19.8964 H   0  0  0  0  0  0
  -22.3764  -10.9654   19.6139 H   0  0  0  0  0  0
  -21.2084   -7.6177   23.9792 H   0  0  0  0  0  0
  -21.1431   -6.0499   25.9093 H   0  0  0  0  0  0
  -22.0620   -2.7641   23.2840 H   0  0  0  0  0  0
  -22.4136  -11.9875   22.4882 H   0  0  0  0  0  0
  -21.1101  -13.1190   22.2592 H   0  0  0  0  0  0
  -24.6274  -15.8181   20.5408 H   0  0  0  0  0  0
  -26.2538  -15.6651   20.1226 H   0  0  0  0  0  0
  -26.7069  -32.5537   23.1211 H   0  0  0  0  0  0
  -24.9957  -33.9842   25.0479 H   0  0  0  0  0  0
  -22.6924  -31.3112   21.4193 H   0  0  0  0  0  0
  -23.3735  -35.9660   23.3265 H   0  0  0  0  0  0
  -24.3570  -36.9001   22.2065 H   0  0  0  0  0  0
  -23.7203  -37.6532   23.6672 H   0  0  0  0  0  0
  -26.0450  -31.5888   20.6066 H   0  0  0  0  0  0
  -26.8237  -30.8768   21.9910 H   0  0  0  0  0  0
  -28.0765  -29.0388   21.2178 H   0  0  0  0  0  0
  -26.0312  -26.0249   18.8922 H   0  0  0  0  0  0
  -23.9780  -27.3364   18.9832 H   0  0  0  0  0  0
  -23.7280  -30.6206   19.4143 H   0  0  0  0  0  0
  -22.7342  -29.2650   19.8627 H   0  0  0  0  0  0
  -25.1238  -36.1985   25.0847 H   0  0  0  0  0  0
  -20.9951  -28.3125   24.1464 H   0  0  0  0  0  0
  -20.5543  -26.2201   23.3612 H   0  0  0  0  0  0
  -21.6602  -26.7312   22.1288 H   0  0  0  0  0  0
  -19.6841  -25.6266   21.1236 H   0  0  0  0  0  0
  -19.6670  -27.3176   20.6753 H   0  0  0  0  0  0
  -17.4159  -26.6673   21.4040 H   0  0  0  0  0  0
  -18.0278  -26.0033   22.9015 H   0  0  0  0  0  0
  -19.7910  -30.7202   24.2359 H   0  0  0  0  0  0
  -17.4987  -31.6257   24.5100 H   0  0  0  0  0  0
  -15.5329  -30.2948   23.7616 H   0  0  0  0  0  0
  -15.8672  -28.0778   22.7063 H   0  0  0  0  0  0
  -24.5933  -30.6986   25.7976 H   0  0  0  0  0  0
  -24.8862  -32.2825   26.5065 H   0  0  0  0  0  0
  -25.8163  -30.8923   27.0323 H   0  0  0  0  0  0
  -26.2727  -29.6916   24.1166 H   0  0  0  0  0  0
  -27.3885  -29.7266   25.4621 H   0  0  0  0  0  0
  -27.8616  -30.4399   23.9352 H   0  0  0  0  0  0
  -27.2664  -33.3670   26.2108 H   0  0  0  0  0  0
  -28.3825  -32.6883   25.0352 H   0  0  0  0  0  0
  -28.0662  -31.8465   26.5461 H   0  0  0  0  0  0
  -28.2562  -38.0135   24.7531 H   0  0  0  0  0  0
  -28.1102  -36.2673   24.6235 H   0  0  0  0  0  0
  -27.2321  -37.1410   25.8874 H   0  0  0  0  0  0
  -20.9212  -29.8826   21.7137 H   0  0  0  0  0  0
  -26.0159  -38.2882   24.1474 H   0  0  0  0  0  0
  -26.0863  -24.3221   20.0449 H   0  0  0  0  0  0
  -23.7663  -20.7993   21.5991 H   0  0  0  0  0  0
  -24.7312  -22.0417   22.3930 H   0  0  0  0  0  0
  -25.4310  -20.4519   22.0703 H   0  0  0  0  0  0
  -30.9777  -16.7243   23.3375 H   0  0  0  0  0  0
  -32.2600  -15.9339   22.4261 H   0  0  0  0  0  0
  -31.0559  -14.9840   23.2723 H   0  0  0  0  0  0
  -28.6161  -15.3705   22.7216 H   0  0  0  0  0  0
  -28.1455  -15.7143   21.0435 H   0  0  0  0  0  0
  -28.5669  -16.9910   22.1382 H   0  0  0  0  0  0
  -32.3132  -19.7269   22.1492 H   0  0  0  0  0  0
  -32.5108  -19.3598   20.4306 H   0  0  0  0  0  0
  -32.8932  -18.1525   21.6493 H   0  0  0  0  0  0
  -25.2090  -20.8917   19.5859 H   0  0  0  0  0  0
  -24.5572  -22.4663   19.9216 H   0  0  0  0  0  0
  -28.1346  -25.5573   18.3867 H   0  0  0  0  0  0
  -29.6681  -25.4362   19.1608 H   0  0  0  0  0  0
  -30.9581  -21.2434   20.5727 H   0  0  0  0  0  0
  -30.1606  -20.4051   19.2657 H   0  0  0  0  0  0
  -28.7966  -19.0772   20.9784 H   0  0  0  0  0  0
  -29.6124  -19.9423   22.2391 H   0  0  0  0  0  0
  -29.8417  -17.3315   19.7965 H   0  0  0  0  0  0
  -31.5266  -17.0528   19.9566 H   0  0  0  0  0  0
  -30.6617  -18.1066   22.2944 H   0  0  0  0  0  0
  1 25  1  0  0  0
  1 30  2  0  0  0
  1 84  1  0  0  0
  2  3  1  0  0  0
  2 25  1  0  0  0
  2 88  1  0  0  0
  2 89  1  0  0  0
  3  4  1  0  0  0
  3 90  1  0  0  0
  3 91  1  0  0  0
  4  5  1  0  0  0
  4 92  1  0  0  0
  4 93  1  0  0  0
  5  6  1  0  0  0
  5 26  1  0  0  0
  5 94  1  0  0  0
  6 25  1  0  0  0
  6 95  1  0  0  0
  6 96  1  0  0  0
  7  8  2  0  0  0
  7 26  1  0  0  0
  7 29  1  0  0  0
  8  9  1  0  0  0
  8 22  1  0  0  0
  9 10  1  0  0  0
  9 27  2  0  0  0
 10 11  2  0  0  0
 10 15  1  0  0  0
 11 12  1  0  0  0
 11 97  1  0  0  0
 12 13  2  0  0  0
 12 98  1  0  0  0
 13 14  1  0  0  0
 13 31  1  0  0  0
 14 15  2  0  0  0
 14 99  1  0  0  0
 15100  1  0  0  0
 16 17  2  0  0  0
 16 21  1  0  0  0
 16 31  1  0  0  0
 17 18  1  0  0  0
 17101  1  0  0  0
 18 19  2  0  0  0
 18102  1  0  0  0
 19 20  1  0  0  0
 19 24  1  0  0  0
 20 21  2  0  0  0
 20103  1  0  0  0
 21 23  1  0  0  0
 22 28  1  0  0  0
 22 32  2  0  0  0
 26 27  1  0  0  0
 28104  1  0  0  0
 28105  1  0  0  0
 29106  1  0  0  0
 29107  1  0  0  0
 33 34  1  0  0  0
 33 66  1  0  0  0
 33 70  2  0  0  0
 34 36  1  0  0  0
 34 59  1  0  0  0
 34108  1  0  0  0
 35 44  2  0  0  0
 35 45  1  0  0  0
 35 68  1  0  0  0
 36 56  1  0  0  0
 36109  1  0  0  0
 37 39  1  0  0  0
 37 47  1  0  0  0
 37 66  1  0  0  0
 37110  1  0  0  0
 38 43  2  0  0  0
 38 46  1  0  0  0
 38 47  1  0  0  0
 39 64  1  0  0  0
 39 67  2  0  0  0
 40 52  1  0  0  0
 40 53  2  0  0  0
 40 58  1  0  0  0
 41111  1  0  0  0
 41112  1  0  0  0
 41113  1  0  0  0
 41 48  1  0  0  0
 42 43  1  0  0  0
 42 66  1  0  0  0
 42114  1  0  0  0
 42115  1  0  0  0
 43 44  1  0  0  0
 44116  1  0  0  0
 45 46  2  0  0  0
 45117  1  0  0  0
 46118  1  0  0  0
 47119  1  0  0  0
 47120  1  0  0  0
 48 56  1  0  0  0
 48 65  1  0  0  0
 48121  1  0  0  0
 49 50  1  0  0  0
 49 53  1  0  0  0
 49 64  1  0  0  0
 49122  1  0  0  0
 50 51  1  0  0  0
 50123  1  0  0  0
 50124  1  0  0  0
 51 52  1  0  0  0
 51125  1  0  0  0
 51126  1  0  0  0
 52127  1  0  0  0
 52128  1  0  0  0
 53 54  1  0  0  0
 54 55  2  0  0  0
 54129  1  0  0  0
 55 57  1  0  0  0
 55130  1  0  0  0
 56 69  2  0  0  0
 57 58  2  0  0  0
 57131  1  0  0  0
 58132  1  0  0  0
 59 60  1  0  0  0
 59 61  1  0  0  0
 59 62  1  0  0  0
 60133  1  0  0  0
 60134  1  0  0  0
 60135  1  0  0  0
 61136  1  0  0  0
 61137  1  0  0  0
 61138  1  0  0  0
 62139  1  0  0  0
 62140  1  0  0  0
 62141  1  0  0  0
 63 65  1  0  0  0
 63142  1  0  0  0
 63143  1  0  0  0
 63144  1  0  0  0
 64145  1  0  0  0
 65146  1  0  0  0
 68 80  1  0  0  0
 71 72  2  0  0  0
 71 73  1  0  0  0
 71147  1  0  0  0
 72 79  1  0  0  0
 72 85  1  0  0  0
 73 80  1  0  0  0
 73 86  2  0  0  0
 74 81  1  0  0  0
 74 85  2  0  0  0
 74 86  1  0  0  0
 75 79  1  0  0  0
 75148  1  0  0  0
 75149  1  0  0  0
 75150  1  0  0  0
 76151  1  0  0  0
 76152  1  0  0  0
 76153  1  0  0  0
 76 84  1  0  0  0
 77 84  1  0  0  0
 77154  1  0  0  0
 77155  1  0  0  0
 77156  1  0  0  0
 78157  1  0  0  0
 78158  1  0  0  0
 78159  1  0  0  0
 78 87  1  0  0  0
 79160  1  0  0  0
 79161  1  0  0  0
 80162  1  0  0  0
 80163  1  0  0  0
 81 82  1  0  0  0
 81164  1  0  0  0
 81165  1  0  0  0
 82 87  1  0  0  0
 82166  1  0  0  0
 82167  1  0  0  0
 83 84  1  0  0  0
 83 87  1  0  0  0
 83168  1  0  0  0
 83169  1  0  0  0
 87170  1  0  0  0
M  CHG  1  87   1
M  ISO  4   1 100  68 101  80 101  84 100
M  END
> <chiral flag>
0

> <version>
0

> <s_m_source_file>
/data/baiqing/PycharmProjects/Reinvent-master-3.2/result/LINK_invent/BTK/process_docking_weight1_custom_sum_contain_oxygen_bond_distance_aromatic_linkinvent_7_9_3/rearranged_h_0060.sdf

> <i_m_source_file_index>
63

> <r_mmod_Potential_Energy-OPLS-2005>
-443.966461181641

> <r_mmod_Stretch_Energy-OPLS-2005>
66.0718765258789

> <r_mmod_Bend_Energy-OPLS-2005>
170.262435913086

> <r_mmod_Torsional_Energy-OPLS-2005>
218.67951965332

> <r_mmod_Improper_Torsional_Energy-OPLS-2005>
3.78261685371399

> <r_mmod_Van_der_Waal_Energy-OPLS-2005>
168.233505249023

> <r_mmod_Electrostatic_Energy-OPLS-2005>
-671.488464355469

> <r_mmod_Solvation_Energy-OPLS-2005>
-423.055206298828

> <b_mmod_Minimization_Converged-OPLS-2005>
0

> <r_mmod_RMS_Derivative-OPLS-2005>
3.59619736671448

$$$$
66
                    3D
 Structure written by MMmdl.
159167  0  0  1  0            999 V2000
  -30.6223  -14.7379   20.5152 C   0  0  0  0  0  0
  -30.4310  -12.4599   19.4804 C   0  0  0  0  0  0
  -29.5121  -12.5330   18.2391 C   0  0  0  0  0  0
  -28.0351  -12.3552   18.6406 C   0  0  0  0  0  0
  -27.6444  -13.2320   19.8584 C   0  0  2  0  0  0
  -28.6831  -13.1102   20.9891 C   0  0  0  0  0  0
  -25.2503  -13.8208   20.5692 C   0  0  0  0  0  0
  -24.1801  -13.0438   20.9199 C   0  0  0  0  0  0
  -24.6393  -11.6919   20.8734 C   0  0  0  0  0  0
  -23.9079  -10.4291   21.0402 C   0  0  0  0  0  0
  -24.3634   -9.4212   21.9184 C   0  0  0  0  0  0
  -23.6309   -8.2248   22.0751 C   0  0  0  0  0  0
  -22.4287   -8.0284   21.3548 C   0  0  0  0  0  0
  -21.9926   -9.0252   20.4649 C   0  0  0  0  0  0
  -22.7252  -10.2127   20.3063 C   0  0  0  0  0  0
  -21.6851   -6.0754   22.5300 C   0  0  0  0  0  0
  -21.4007   -6.5650   23.8235 C   0  0  0  0  0  0
  -21.3663   -5.6799   24.9193 C   0  0  0  0  0  0
  -21.6057   -4.3069   24.7241 C   0  0  0  0  0  0
  -21.8817   -3.8163   23.4358 C   0  0  0  0  0  0
  -21.9180   -4.6979   22.3413 C   0  0  0  0  0  0
  -22.7812  -13.5210   21.1850 C   0  0  0  0  0  0
  -22.1646   -4.2162   21.0990 F   0  0  0  0  0  0
  -21.5628   -3.4553   25.7751 F   0  0  0  0  0  0
  -29.9868  -13.5096   20.4341 N   0  0  0  0  0  0
  -26.2945  -12.9412   20.3314 N   0  0  0  0  0  0
  -25.9332  -11.6551   20.5755 N   0  0  0  0  0  0
  -22.0452  -12.8213   22.0411 N   0  0  0  0  0  0
  -25.4183  -15.1933   20.4090 N   0  0  0  0  0  0
  -31.7650  -14.8416   20.0550 O   0  0  0  0  0  0
  -21.6639   -6.8898   21.4264 O   0  0  0  0  0  0
  -22.3492  -14.5504   20.6676 O   0  0  0  0  0  0
  -24.6342  -31.8555   23.1986 C   0  0  0  0  0  0
  -25.9178  -32.4752   23.8325 C   0  0  1  0  0  0
  -27.2236  -27.2589   20.1251 C   0  0  0  0  0  0
  -25.5993  -33.8552   24.2266 N   0  0  0  0  0  0
  -23.4307  -30.4817   21.5394 C   0  0  2  0  0  0
  -24.8785  -28.9258   20.1112 C   0  0  0  0  0  0
  -22.7510  -29.4631   22.4866 C   0  0  0  0  0  0
  -18.0303  -28.1424   22.8444 C   0  0  0  0  0  0
  -24.1507  -36.7278   23.2631 C   0  0  0  0  0  0
  -25.9786  -30.7669   21.3803 C   0  0  0  0  0  0
  -26.0515  -29.3894   20.7203 C   0  0  0  0  0  0
  -27.2259  -28.5695   20.7135 C   0  0  0  0  0  0
  -26.0218  -26.8617   19.4940 C   0  0  0  0  0  0
  -24.8696  -27.6696   19.4875 C   0  0  0  0  0  0
  -23.6537  -29.8185   20.1547 C   0  0  0  0  0  0
  -25.4130  -36.3062   24.0325 C   0  0  1  0  0  0
  -20.5909  -28.3747   23.1233 C   0  0  2  0  0  0
  -20.6812  -26.9460   22.5383 C   0  0  0  0  0  0
  -19.5793  -26.6397   21.5193 C   0  0  0  0  0  0
  -18.1964  -26.7961   22.1593 C   0  0  0  0  0  0
  -19.1555  -28.8887   23.2841 C   0  0  0  0  0  0
  -18.9480  -30.1476   23.8893 C   0  0  0  0  0  0
  -17.6485  -30.6605   24.0570 C   0  0  0  0  0  0
  -25.9073  -34.9435   23.5086 C   0  0  0  0  0  0
  -16.5374  -29.9118   23.6327 C   0  0  0  0  0  0
  -16.7290  -28.6544   23.0321 C   0  0  0  0  0  0
  -26.4541  -31.6570   25.0708 C   0  0  0  0  0  0
  -25.3749  -31.3737   26.1414 C   0  0  0  0  0  0
  -27.0414  -30.2993   24.6210 C   0  0  0  0  0  0
  -27.6114  -32.4285   25.7481 C   0  0  0  0  0  0
  -27.5592  -37.1792   24.8457 C   0  0  0  0  0  0
  -21.4213  -29.3100   22.3613 N   0  0  0  0  0  0
  -26.4298  -37.3766   23.9410 N   0  0  0  0  0  0
  -24.7001  -31.0517   22.0963 N   0  0  0  0  0  0
  -23.4191  -28.8155   23.2962 O   0  0  0  0  0  0
  -28.3236  -26.3662   20.1726 O   0  0  0  0  0  0
  -26.5598  -34.8902   22.4632 O   0  0  0  0  0  0
  -23.5490  -32.1382   23.7271 O   0  0  0  0  0  0
  -28.4608  -21.5657   18.3986 C   0  0  0  0  0  0
  -28.4026  -19.4257   18.2794 C   0  0  0  0  0  0
  -28.9099  -19.7180   19.5449 C   0  0  0  0  0  0
  -29.3353  -16.0214   22.1876 C   0  0  0  0  0  0
  -29.2596  -18.6053   20.6058 C   0  0  0  0  0  0
  -29.2554  -23.8011   20.3352 C   0  0  0  0  0  0
  -29.0115  -22.2238   20.7051 C   0  0  0  0  0  0
  -30.1156  -17.2722   20.1791 C   0  0  0  0  0  0
  -28.0723  -24.8802   20.1157 C   0  0  0  0  0  0
  -28.0345  -18.1002   17.6358 C   0  0  0  0  0  0
  -28.1902  -20.5951   17.5503 N   0  0  0  0  0  0
  -28.8415  -21.1820   19.6241 N   0  0  0  0  0  0
  -29.9028  -15.8991   20.8415 N   0  0  0  0  0  0
  -27.6495  -17.1875   18.5304 F   0  0  0  0  0  0
  -27.0151  -18.2419   16.7855 F   0  0  0  0  0  0
  -29.0515  -17.5974   16.9362 F   0  0  0  0  0  0
  -31.4758  -12.5737   19.1864 H   0  0  0  0  0  0
  -30.3700  -11.4730   19.9403 H   0  0  0  0  0  0
  -29.7936  -11.7718   17.5114 H   0  0  0  0  0  0
  -29.6402  -13.4963   17.7436 H   0  0  0  0  0  0
  -27.8816  -11.3029   18.8803 H   0  0  0  0  0  0
  -27.3847  -12.5719   17.7943 H   0  0  0  0  0  0
  -27.6527  -14.2671   19.5133 H   0  0  0  0  0  0
  -28.7270  -12.0829   21.3539 H   0  0  0  0  0  0
  -28.3732  -13.7019   21.8447 H   0  0  0  0  0  0
  -25.2773   -9.5682   22.4773 H   0  0  0  0  0  0
  -24.0018   -7.4636   22.7459 H   0  0  0  0  0  0
  -21.0865   -8.8775   19.8947 H   0  0  0  0  0  0
  -22.3717  -10.9674   19.6185 H   0  0  0  0  0  0
  -21.2004   -7.6153   23.9748 H   0  0  0  0  0  0
  -21.1483   -6.0524   25.9094 H   0  0  0  0  0  0
  -22.0589   -2.7624   23.2860 H   0  0  0  0  0  0
  -22.4053  -11.9923   22.4907 H   0  0  0  0  0  0
  -21.1074  -13.1269   22.2570 H   0  0  0  0  0  0
  -24.6445  -15.8423   20.4966 H   0  0  0  0  0  0
  -26.2692  -15.6334   20.0812 H   0  0  0  0  0  0
  -26.7238  -32.5403   23.1058 H   0  0  0  0  0  0
  -25.0254  -33.9690   25.0488 H   0  0  0  0  0  0
  -22.7298  -31.3059   21.3905 H   0  0  0  0  0  0
  -23.3782  -35.9597   23.3259 H   0  0  0  0  0  0
  -24.3609  -36.8933   22.2053 H   0  0  0  0  0  0
  -23.7242  -37.6461   23.6676 H   0  0  0  0  0  0
  -26.1176  -31.5280   20.6111 H   0  0  0  0  0  0
  -26.8561  -30.8152   22.0137 H   0  0  0  0  0  0
  -28.1230  -28.9173   21.2073 H   0  0  0  0  0  0
  -25.9367  -25.9014   19.0094 H   0  0  0  0  0  0
  -23.9716  -27.3089   19.0043 H   0  0  0  0  0  0
  -23.7961  -30.5982   19.4056 H   0  0  0  0  0  0
  -22.7697  -29.2647   19.8327 H   0  0  0  0  0  0
  -25.1310  -36.1907   25.0818 H   0  0  0  0  0  0
  -20.9994  -28.3353   24.1355 H   0  0  0  0  0  0
  -20.5737  -26.2367   23.3595 H   0  0  0  0  0  0
  -21.6686  -26.7516   22.1167 H   0  0  0  0  0  0
  -19.6977  -25.6293   21.1258 H   0  0  0  0  0  0
  -19.6747  -27.3174   20.6696 H   0  0  0  0  0  0
  -17.4232  -26.6676   21.3995 H   0  0  0  0  0  0
  -18.0385  -26.0116   22.9008 H   0  0  0  0  0  0
  -19.7955  -30.7280   24.2280 H   0  0  0  0  0  0
  -17.5048  -31.6281   24.5191 H   0  0  0  0  0  0
  -15.5381  -30.3037   23.7664 H   0  0  0  0  0  0
  -15.8681  -28.0888   22.7035 H   0  0  0  0  0  0
  -24.5922  -30.7105   25.7714 H   0  0  0  0  0  0
  -24.8950  -32.2919   26.4807 H   0  0  0  0  0  0
  -25.8031  -30.8905   27.0206 H   0  0  0  0  0  0
  -26.3015  -29.6686   24.1271 H   0  0  0  0  0  0
  -27.4157  -29.7309   25.4737 H   0  0  0  0  0  0
  -27.8859  -30.4278   23.9434 H   0  0  0  0  0  0
  -27.2775  -33.3616   26.2026 H   0  0  0  0  0  0
  -28.3953  -32.6777   25.0315 H   0  0  0  0  0  0
  -28.0753  -31.8410   26.5413 H   0  0  0  0  0  0
  -28.2571  -38.0124   24.7538 H   0  0  0  0  0  0
  -28.1126  -36.2655   24.6245 H   0  0  0  0  0  0
  -27.2308  -37.1388   25.8854 H   0  0  0  0  0  0
  -20.9407  -29.8840   21.6828 H   0  0  0  0  0  0
  -26.0175  -38.2835   24.1424 H   0  0  0  0  0  0
  -28.3279  -22.6025   18.1239 H   0  0  0  0  0  0
  -29.6703  -16.9345   22.6798 H   0  0  0  0  0  0
  -29.6367  -15.2040   22.8455 H   0  0  0  0  0  0
  -28.2464  -16.0406   22.1391 H   0  0  0  0  0  0
  -28.3046  -18.2608   21.0025 H   0  0  0  0  0  0
  -29.7531  -19.0770   21.4570 H   0  0  0  0  0  0
  -29.9433  -23.8589   19.4903 H   0  0  0  0  0  0
  -29.8374  -24.1960   21.1681 H   0  0  0  0  0  0
  -28.1555  -22.1489   21.3755 H   0  0  0  0  0  0
  -29.8659  -21.8941   21.2984 H   0  0  0  0  0  0
  -31.1713  -17.5217   20.2874 H   0  0  0  0  0  0
  -30.0076  -17.0954   19.1135 H   0  0  0  0  0  0
  -27.2920  -24.6597   20.8457 H   0  0  0  0  0  0
  -27.6444  -24.6512   19.1407 H   0  0  0  0  0  0
  1 25  1  0  0  0
  1 30  2  0  0  0
  1 83  1  0  0  0
  2  3  1  0  0  0
  2 25  1  0  0  0
  2 87  1  0  0  0
  2 88  1  0  0  0
  3  4  1  0  0  0
  3 89  1  0  0  0
  3 90  1  0  0  0
  4  5  1  0  0  0
  4 91  1  0  0  0
  4 92  1  0  0  0
  5  6  1  0  0  0
  5 26  1  0  0  0
  5 93  1  0  0  0
  6 25  1  0  0  0
  6 94  1  0  0  0
  6 95  1  0  0  0
  7  8  2  0  0  0
  7 26  1  0  0  0
  7 29  1  0  0  0
  8  9  1  0  0  0
  8 22  1  0  0  0
  9 10  1  0  0  0
  9 27  2  0  0  0
 10 11  2  0  0  0
 10 15  1  0  0  0
 11 12  1  0  0  0
 11 96  1  0  0  0
 12 13  2  0  0  0
 12 97  1  0  0  0
 13 14  1  0  0  0
 13 31  1  0  0  0
 14 15  2  0  0  0
 14 98  1  0  0  0
 15 99  1  0  0  0
 16 17  2  0  0  0
 16 21  1  0  0  0
 16 31  1  0  0  0
 17 18  1  0  0  0
 17100  1  0  0  0
 18 19  2  0  0  0
 18101  1  0  0  0
 19 20  1  0  0  0
 19 24  1  0  0  0
 20 21  2  0  0  0
 20102  1  0  0  0
 21 23  1  0  0  0
 22 28  1  0  0  0
 22 32  2  0  0  0
 26 27  1  0  0  0
 28103  1  0  0  0
 28104  1  0  0  0
 29105  1  0  0  0
 29106  1  0  0  0
 33 34  1  0  0  0
 33 66  1  0  0  0
 33 70  2  0  0  0
 34 36  1  0  0  0
 34 59  1  0  0  0
 34107  1  0  0  0
 35 44  2  0  0  0
 35 45  1  0  0  0
 35 68  1  0  0  0
 36 56  1  0  0  0
 36108  1  0  0  0
 37 39  1  0  0  0
 37 47  1  0  0  0
 37 66  1  0  0  0
 37109  1  0  0  0
 38 43  2  0  0  0
 38 46  1  0  0  0
 38 47  1  0  0  0
 39 64  1  0  0  0
 39 67  2  0  0  0
 40 52  1  0  0  0
 40 53  2  0  0  0
 40 58  1  0  0  0
 41110  1  0  0  0
 41111  1  0  0  0
 41112  1  0  0  0
 41 48  1  0  0  0
 42 43  1  0  0  0
 42 66  1  0  0  0
 42113  1  0  0  0
 42114  1  0  0  0
 43 44  1  0  0  0
 44115  1  0  0  0
 45 46  2  0  0  0
 45116  1  0  0  0
 46117  1  0  0  0
 47118  1  0  0  0
 47119  1  0  0  0
 48 56  1  0  0  0
 48 65  1  0  0  0
 48120  1  0  0  0
 49 50  1  0  0  0
 49 53  1  0  0  0
 49 64  1  0  0  0
 49121  1  0  0  0
 50 51  1  0  0  0
 50122  1  0  0  0
 50123  1  0  0  0
 51 52  1  0  0  0
 51124  1  0  0  0
 51125  1  0  0  0
 52126  1  0  0  0
 52127  1  0  0  0
 53 54  1  0  0  0
 54 55  2  0  0  0
 54128  1  0  0  0
 55 57  1  0  0  0
 55129  1  0  0  0
 56 69  2  0  0  0
 57 58  2  0  0  0
 57130  1  0  0  0
 58131  1  0  0  0
 59 60  1  0  0  0
 59 61  1  0  0  0
 59 62  1  0  0  0
 60132  1  0  0  0
 60133  1  0  0  0
 60134  1  0  0  0
 61135  1  0  0  0
 61136  1  0  0  0
 61137  1  0  0  0
 62138  1  0  0  0
 62139  1  0  0  0
 62140  1  0  0  0
 63 65  1  0  0  0
 63141  1  0  0  0
 63142  1  0  0  0
 63143  1  0  0  0
 64144  1  0  0  0
 65145  1  0  0  0
 68 79  1  0  0  0
 71 81  2  0  0  0
 71 82  1  0  0  0
 71146  1  0  0  0
 72 73  2  0  0  0
 72 80  1  0  0  0
 72 81  1  0  0  0
 73 75  1  0  0  0
 73 82  1  0  0  0
 74 83  1  0  0  0
 74147  1  0  0  0
 74148  1  0  0  0
 74149  1  0  0  0
 75 78  1  0  0  0
 75150  1  0  0  0
 75151  1  0  0  0
 76 77  1  0  0  0
 76 79  1  0  0  0
 76152  1  0  0  0
 76153  1  0  0  0
 77 82  1  0  0  0
 77154  1  0  0  0
 77155  1  0  0  0
 78 83  1  0  0  0
 78156  1  0  0  0
 78157  1  0  0  0
 79158  1  0  0  0
 79159  1  0  0  0
 80 84  1  0  0  0
 80 85  1  0  0  0
 80 86  1  0  0  0
M  ISO  4   1 100  68 101  79 101  83 100
M  END
> <chiral flag>
0

> <version>
0

> <s_m_source_file>
/data/baiqing/PycharmProjects/Reinvent-master-3.2/result/LINK_invent/BTK/process_docking_weight1_custom_sum_contain_oxygen_bond_distance_aromatic_linkinvent_7_9_3/rearranged_h_0060.sdf

> <i_m_source_file_index>
64

> <r_mmod_Potential_Energy-OPLS-2005>
455.377716064453

> <r_mmod_Stretch_Energy-OPLS-2005>
148.032684326172

> <r_mmod_Bend_Energy-OPLS-2005>
203.681365966797

> <r_mmod_Torsional_Energy-OPLS-2005>
304.996948242188

> <r_mmod_Improper_Torsional_Energy-OPLS-2005>
9.1794490814209

> <r_mmod_Van_der_Waal_Energy-OPLS-2005>
123.154113769531

> <r_mmod_Electrostatic_Energy-OPLS-2005>
-208.956954956055

> <r_mmod_Solvation_Energy-OPLS-2005>
-204.103576660156

> <b_mmod_Minimization_Converged-OPLS-2005>
0

> <r_mmod_RMS_Derivative-OPLS-2005>
2.45362114906311

$$$$
67
                    3D
 Structure written by MMmdl.
147155  0  0  1  0            999 V2000
  -30.3653  -15.3423   20.3932 C   0  0  0  0  0  0
  -30.4536  -12.8593   19.5371 C   0  0  0  0  0  0
  -29.5520  -12.6047   18.2971 C   0  0  0  0  0  0
  -28.0969  -12.3114   18.7079 C   0  0  0  0  0  0
  -27.6137  -13.2755   19.8160 C   0  0  2  0  0  0
  -28.6407  -13.4322   20.9514 C   0  0  0  0  0  0
  -25.2412  -13.8238   20.5720 C   0  0  0  0  0  0
  -24.1764  -13.0431   20.9238 C   0  0  0  0  0  0
  -24.6414  -11.6927   20.8732 C   0  0  0  0  0  0
  -23.9104  -10.4293   21.0391 C   0  0  0  0  0  0
  -24.3646   -9.4210   21.9173 C   0  0  0  0  0  0
  -23.6313   -8.2249   22.0749 C   0  0  0  0  0  0
  -22.4292   -8.0289   21.3545 C   0  0  0  0  0  0
  -21.9935   -9.0260   20.4644 C   0  0  0  0  0  0
  -22.7271  -10.2132   20.3048 C   0  0  0  0  0  0
  -21.6859   -6.0743   22.5277 C   0  0  0  0  0  0
  -21.4018   -6.5642   23.8211 C   0  0  0  0  0  0
  -21.3664   -5.6793   24.9173 C   0  0  0  0  0  0
  -21.6044   -4.3055   24.7222 C   0  0  0  0  0  0
  -21.8821   -3.8150   23.4342 C   0  0  0  0  0  0
  -21.9196   -4.6970   22.3400 C   0  0  0  0  0  0
  -22.7782  -13.5185   21.1902 C   0  0  0  0  0  0
  -22.1665   -4.2154   21.0977 F   0  0  0  0  0  0
  -21.5628   -3.4537   25.7733 F   0  0  0  0  0  0
  -29.8747  -13.9908   20.3608 N   0  0  0  0  0  0
  -26.2825  -12.9507   20.3132 N   0  0  0  0  0  0
  -25.9345  -11.6616   20.5645 N   0  0  0  0  0  0
  -22.0440  -12.8170   22.0457 N   0  0  0  0  0  0
  -25.4058  -15.1981   20.4208 N   0  0  0  0  0  0
  -31.5780  -15.3664   20.1178 O   0  0  0  0  0  0
  -21.6651   -6.8889   21.4241 O   0  0  0  0  0  0
  -22.3455  -14.5486   20.6745 O   0  0  0  0  0  0
  -24.6667  -31.8199   23.1667 C   0  0  0  0  0  0
  -25.9328  -32.4574   23.8149 C   0  0  1  0  0  0
  -27.2247  -26.8882   20.2008 C   0  0  0  0  0  0
  -25.5982  -33.8390   24.2056 N   0  0  0  0  0  0
  -23.4833  -30.4286   21.5176 C   0  0  2  0  0  0
  -24.9370  -28.8010   20.1223 C   0  0  0  0  0  0
  -22.7682  -29.4424   22.4783 C   0  0  0  0  0  0
  -18.0325  -28.1407   22.8467 C   0  0  0  0  0  0
  -24.1493  -36.7204   23.2650 C   0  0  0  0  0  0
  -26.0547  -30.6146   21.4009 C   0  0  0  0  0  0
  -26.1236  -29.1976   20.7518 C   0  0  0  0  0  0
  -27.2632  -28.2669   20.7565 C   0  0  0  0  0  0
  -26.0037  -26.6467   19.5316 C   0  0  0  0  0  0
  -24.9040  -27.5461   19.4916 C   0  0  0  0  0  0
  -23.7265  -29.7366   20.1476 C   0  0  0  0  0  0
  -25.4136  -36.2960   24.0296 C   0  0  1  0  0  0
  -20.5950  -28.3756   23.1183 C   0  0  2  0  0  0
  -20.6801  -26.9433   22.5404 C   0  0  0  0  0  0
  -19.5776  -26.6372   21.5215 C   0  0  0  0  0  0
  -18.1957  -26.7938   22.1619 C   0  0  0  0  0  0
  -19.1587  -28.8901   23.2812 C   0  0  0  0  0  0
  -18.9495  -30.1490   23.8847 C   0  0  0  0  0  0
  -17.6488  -30.6597   24.0550 C   0  0  0  0  0  0
  -25.9103  -34.9344   23.4999 C   0  0  0  0  0  0
  -16.5379  -29.9083   23.6341 C   0  0  0  0  0  0
  -16.7305  -28.6502   23.0364 C   0  0  0  0  0  0
  -26.4561  -31.6536   25.0695 C   0  0  0  0  0  0
  -25.3673  -31.3801   26.1340 C   0  0  0  0  0  0
  -27.0466  -30.2900   24.6456 C   0  0  0  0  0  0
  -27.6045  -32.4353   25.7504 C   0  0  0  0  0  0
  -27.5569  -37.1761   24.8464 C   0  0  0  0  0  0
  -21.4349  -29.3043   22.3530 N   0  0  0  0  0  0
  -26.4278  -37.3699   23.9404 N   0  0  0  0  0  0
  -24.7568  -30.9823   22.0822 N   0  0  0  0  0  0
  -23.4212  -28.8001   23.3044 O   0  0  0  0  0  0
  -28.2527  -25.7923   20.1986 O   0  0  0  0  0  0
  -26.5715  -34.8885   22.4596 O   0  0  0  0  0  0
  -23.5728  -32.1186   23.6735 O   0  0  0  0  0  0
  -30.5414  -20.5247   20.8399 C   0  0  0  0  0  0
  -29.2564  -20.9398   20.3216 C   0  0  0  0  0  0
  -28.9984  -16.8033   22.1426 C   0  0  0  0  0  0
  -28.8525  -22.6131   19.8412 C   0  0  0  0  0  0
  -28.1201  -24.1495   20.5050 C   0  0  0  0  0  0
  -29.4535  -16.8637   20.6675 C   0  0  1  0  0  0
  -30.7817  -19.2023   20.9176 N   0  0  0  0  0  0
  -28.7309  -19.6527   20.1054 N   0  0  0  0  0  0
  -29.6857  -18.5394   20.4311 N   0  0  0  0  0  0
  -31.4642  -13.0915   19.2002 H   0  0  0  0  0  0
  -30.5525  -11.9526   20.1362 H   0  0  0  0  0  0
  -29.9483  -11.7808   17.7027 H   0  0  0  0  0  0
  -29.5755  -13.4854   17.6536 H   0  0  0  0  0  0
  -28.0535  -11.2841   19.0714 H   0  0  0  0  0  0
  -27.4372  -12.3589   17.8405 H   0  0  0  0  0  0
  -27.5318  -14.2479   19.3290 H   0  0  0  0  0  0
  -28.8228  -12.4800   21.4523 H   0  0  0  0  0  0
  -28.2338  -14.0929   21.7119 H   0  0  0  0  0  0
  -25.2787   -9.5686   22.4750 H   0  0  0  0  0  0
  -24.0022   -7.4641   22.7469 H   0  0  0  0  0  0
  -21.0867   -8.8783   19.8949 H   0  0  0  0  0  0
  -22.3730  -10.9672   19.6158 H   0  0  0  0  0  0
  -21.2011   -7.6149   23.9718 H   0  0  0  0  0  0
  -21.1485   -6.0521   25.9078 H   0  0  0  0  0  0
  -22.0596   -2.7612   23.2839 H   0  0  0  0  0  0
  -22.4083  -11.9855   22.4870 H   0  0  0  0  0  0
  -21.1043  -13.1163   22.2638 H   0  0  0  0  0  0
  -24.6385  -15.8487   20.5501 H   0  0  0  0  0  0
  -26.2513  -15.6450   20.0918 H   0  0  0  0  0  0
  -26.7399  -32.5095   23.0864 H   0  0  0  0  0  0
  -25.0076  -33.9462   25.0170 H   0  0  0  0  0  0
  -22.7988  -31.2608   21.3412 H   0  0  0  0  0  0
  -23.3767  -35.9521   23.3281 H   0  0  0  0  0  0
  -24.3569  -36.8884   22.2070 H   0  0  0  0  0  0
  -23.7238  -37.6378   23.6730 H   0  0  0  0  0  0
  -26.2350  -31.3509   20.6165 H   0  0  0  0  0  0
  -26.9148  -30.6776   22.0558 H   0  0  0  0  0  0
  -28.1696  -28.5791   21.2562 H   0  0  0  0  0  0
  -25.8782  -25.6906   19.0429 H   0  0  0  0  0  0
  -24.0035  -27.2338   18.9810 H   0  0  0  0  0  0
  -23.8898  -30.5015   19.3874 H   0  0  0  0  0  0
  -22.8347  -29.1950   19.8275 H   0  0  0  0  0  0
  -25.1337  -36.1753   25.0788 H   0  0  0  0  0  0
  -21.0033  -28.3360   24.1308 H   0  0  0  0  0  0
  -20.5678  -26.2373   23.3647 H   0  0  0  0  0  0
  -21.6666  -26.7405   22.1212 H   0  0  0  0  0  0
  -19.6935  -25.6269   21.1282 H   0  0  0  0  0  0
  -19.6715  -27.3150   20.6719 H   0  0  0  0  0  0
  -17.4227  -26.6680   21.4022 H   0  0  0  0  0  0
  -18.0349  -26.0092   22.9027 H   0  0  0  0  0  0
  -19.7972  -30.7317   24.2199 H   0  0  0  0  0  0
  -17.5041  -31.6273   24.5160 H   0  0  0  0  0  0
  -15.5379  -30.2966   23.7697 H   0  0  0  0  0  0
  -15.8706  -28.0801   22.7112 H   0  0  0  0  0  0
  -24.5861  -30.7152   25.7639 H   0  0  0  0  0  0
  -24.8855  -32.3010   26.4635 H   0  0  0  0  0  0
  -25.7882  -30.9043   27.0206 H   0  0  0  0  0  0
  -26.3143  -29.6563   24.1445 H   0  0  0  0  0  0
  -27.3969  -29.7283   25.5127 H   0  0  0  0  0  0
  -27.9093  -30.4076   23.9895 H   0  0  0  0  0  0
  -27.2610  -33.3699   26.1947 H   0  0  0  0  0  0
  -28.3927  -32.6843   25.0387 H   0  0  0  0  0  0
  -28.0634  -31.8570   26.5532 H   0  0  0  0  0  0
  -28.2567  -38.0075   24.7510 H   0  0  0  0  0  0
  -28.1085  -36.2601   24.6294 H   0  0  0  0  0  0
  -27.2284  -37.1403   25.8866 H   0  0  0  0  0  0
  -20.9611  -29.8728   21.6647 H   0  0  0  0  0  0
  -26.0125  -38.2758   24.1411 H   0  0  0  0  0  0
  -31.3372  -21.2034   21.1180 H   0  0  0  0  0  0
  -27.9668  -17.1409   22.2423 H   0  0  0  0  0  0
  -29.6123  -17.4567   22.7627 H   0  0  0  0  0  0
  -29.0745  -15.8177   22.5937 H   0  0  0  0  0  0
  -28.3228  -22.4982   18.8960 H   0  0  0  0  0  0
  -29.8195  -22.9949   19.5141 H   0  0  0  0  0  0
  -27.0473  -23.9621   20.5432 H   0  0  0  0  0  0
  -28.4169  -24.1201   21.5533 H   0  0  0  0  0  0
  -28.5683  -16.6567   20.0675 H   0  0  0  0  0  0
  1 25  1  0  0  0
  1 30  2  0  0  0
  1 76  1  0  0  0
  2  3  1  0  0  0
  2 25  1  0  0  0
  2 80  1  0  0  0
  2 81  1  0  0  0
  3  4  1  0  0  0
  3 82  1  0  0  0
  3 83  1  0  0  0
  4  5  1  0  0  0
  4 84  1  0  0  0
  4 85  1  0  0  0
  5  6  1  0  0  0
  5 26  1  0  0  0
  5 86  1  0  0  0
  6 25  1  0  0  0
  6 87  1  0  0  0
  6 88  1  0  0  0
  7  8  2  0  0  0
  7 26  1  0  0  0
  7 29  1  0  0  0
  8  9  1  0  0  0
  8 22  1  0  0  0
  9 10  1  0  0  0
  9 27  2  0  0  0
 10 11  2  0  0  0
 10 15  1  0  0  0
 11 12  1  0  0  0
 11 89  1  0  0  0
 12 13  2  0  0  0
 12 90  1  0  0  0
 13 14  1  0  0  0
 13 31  1  0  0  0
 14 15  2  0  0  0
 14 91  1  0  0  0
 15 92  1  0  0  0
 16 17  2  0  0  0
 16 21  1  0  0  0
 16 31  1  0  0  0
 17 18  1  0  0  0
 17 93  1  0  0  0
 18 19  2  0  0  0
 18 94  1  0  0  0
 19 20  1  0  0  0
 19 24  1  0  0  0
 20 21  2  0  0  0
 20 95  1  0  0  0
 21 23  1  0  0  0
 22 28  1  0  0  0
 22 32  2  0  0  0
 26 27  1  0  0  0
 28 96  1  0  0  0
 28 97  1  0  0  0
 29 98  1  0  0  0
 29 99  1  0  0  0
 33 34  1  0  0  0
 33 66  1  0  0  0
 33 70  2  0  0  0
 34 36  1  0  0  0
 34 59  1  0  0  0
 34100  1  0  0  0
 35 44  2  0  0  0
 35 45  1  0  0  0
 35 68  1  0  0  0
 36 56  1  0  0  0
 36101  1  0  0  0
 37 39  1  0  0  0
 37 47  1  0  0  0
 37 66  1  0  0  0
 37102  1  0  0  0
 38 43  2  0  0  0
 38 46  1  0  0  0
 38 47  1  0  0  0
 39 64  1  0  0  0
 39 67  2  0  0  0
 40 52  1  0  0  0
 40 53  2  0  0  0
 40 58  1  0  0  0
 41103  1  0  0  0
 41104  1  0  0  0
 41105  1  0  0  0
 41 48  1  0  0  0
 42 43  1  0  0  0
 42 66  1  0  0  0
 42106  1  0  0  0
 42107  1  0  0  0
 43 44  1  0  0  0
 44108  1  0  0  0
 45 46  2  0  0  0
 45109  1  0  0  0
 46110  1  0  0  0
 47111  1  0  0  0
 47112  1  0  0  0
 48 56  1  0  0  0
 48 65  1  0  0  0
 48113  1  0  0  0
 49 50  1  0  0  0
 49 53  1  0  0  0
 49 64  1  0  0  0
 49114  1  0  0  0
 50 51  1  0  0  0
 50115  1  0  0  0
 50116  1  0  0  0
 51 52  1  0  0  0
 51117  1  0  0  0
 51118  1  0  0  0
 52119  1  0  0  0
 52120  1  0  0  0
 53 54  1  0  0  0
 54 55  2  0  0  0
 54121  1  0  0  0
 55 57  1  0  0  0
 55122  1  0  0  0
 56 69  2  0  0  0
 57 58  2  0  0  0
 57123  1  0  0  0
 58124  1  0  0  0
 59 60  1  0  0  0
 59 61  1  0  0  0
 59 62  1  0  0  0
 60125  1  0  0  0
 60126  1  0  0  0
 60127  1  0  0  0
 61128  1  0  0  0
 61129  1  0  0  0
 61130  1  0  0  0
 62131  1  0  0  0
 62132  1  0  0  0
 62133  1  0  0  0
 63 65  1  0  0  0
 63134  1  0  0  0
 63135  1  0  0  0
 63136  1  0  0  0
 64137  1  0  0  0
 65138  1  0  0  0
 68 75  1  0  0  0
 71 72  1  0  0  0
 71 77  2  0  0  0
 71139  1  0  0  0
 72 74  1  0  0  0
 72 78  2  0  0  0
 73140  1  0  0  0
 73141  1  0  0  0
 73142  1  0  0  0
 73 76  1  0  0  0
 74 75  1  0  0  0
 74143  1  0  0  0
 74144  1  0  0  0
 75145  1  0  0  0
 75146  1  0  0  0
 76 79  1  0  0  0
 76147  1  0  0  0
 77 79  1  0  0  0
 78 79  1  0  0  0
M  ISO  4   1 100  68 101  75 101  76 100
M  END
> <chiral flag>
0

> <version>
0

> <s_m_source_file>
/data/baiqing/PycharmProjects/Reinvent-master-3.2/result/LINK_invent/BTK/process_docking_weight1_custom_sum_contain_oxygen_bond_distance_aromatic_linkinvent_7_9_3/rearranged_h_0060.sdf

> <i_m_source_file_index>
65

> <r_mmod_Potential_Energy-OPLS-2005>
1576.20776367188

> <r_mmod_Stretch_Energy-OPLS-2005>
687.518371582031

> <r_mmod_Bend_Energy-OPLS-2005>
524.129821777344

> <r_mmod_Torsional_Energy-OPLS-2005>
223.155227661133

> <r_mmod_Improper_Torsional_Energy-OPLS-2005>
7.3016676902771

> <r_mmod_Van_der_Waal_Energy-OPLS-2005>
106.071632385254

> <r_mmod_Electrostatic_Energy-OPLS-2005>
-271.26318359375

> <r_mmod_Solvation_Energy-OPLS-2005>
-219.381896972656

> <b_mmod_Minimization_Converged-OPLS-2005>
0

> <r_mmod_RMS_Derivative-OPLS-2005>
0.706925928592682

$$$$
68
                    3D
 Structure written by MMmdl.
168176  0  0  1  0            999 V2000
  -30.6935  -14.5249   20.6565 C   0  0  0  0  0  0
  -30.4164  -12.3663   19.4556 C   0  0  0  0  0  0
  -29.4989  -12.5343   18.2276 C   0  0  0  0  0  0
  -28.0202  -12.3432   18.6136 C   0  0  0  0  0  0
  -27.6488  -13.1844   19.8609 C   0  0  2  0  0  0
  -28.6809  -12.9808   20.9966 C   0  0  0  0  0  0
  -25.2542  -13.8124   20.5540 C   0  0  0  0  0  0
  -24.1781  -13.0516   20.9100 C   0  0  0  0  0  0
  -24.6261  -11.6947   20.8630 C   0  0  0  0  0  0
  -23.8904  -10.4393   21.0362 C   0  0  0  0  0  0
  -24.3521   -9.4343   21.9160 C   0  0  0  0  0  0
  -23.6276   -8.2345   22.0747 C   0  0  0  0  0  0
  -22.4274   -8.0320   21.3535 C   0  0  0  0  0  0
  -21.9842   -9.0255   20.4616 C   0  0  0  0  0  0
  -22.7074  -10.2186   20.3020 C   0  0  0  0  0  0
  -21.6899   -6.0733   22.5263 C   0  0  0  0  0  0
  -21.4023   -6.5625   23.8189 C   0  0  0  0  0  0
  -21.3640   -5.6781   24.9143 C   0  0  0  0  0  0
  -21.6051   -4.3038   24.7203 C   0  0  0  0  0  0
  -21.8825   -3.8138   23.4319 C   0  0  0  0  0  0
  -21.9242   -4.6968   22.3384 C   0  0  0  0  0  0
  -22.7804  -13.5337   21.1860 C   0  0  0  0  0  0
  -22.1740   -4.2159   21.0968 F   0  0  0  0  0  0
  -21.5638   -3.4504   25.7700 F   0  0  0  0  0  0
  -29.9979  -13.3558   20.4751 N   0  0  0  0  0  0
  -26.2899  -12.9239   20.3182 N   0  0  0  0  0  0
  -25.9174  -11.6438   20.5631 N   0  0  0  0  0  0
  -22.0431  -12.8325   22.0375 N   0  0  0  0  0  0
  -25.4375  -15.1842   20.3907 N   0  0  0  0  0  0
  -31.7989  -14.6458   20.1144 O   0  0  0  0  0  0
  -21.6710   -6.8875   21.4215 O   0  0  0  0  0  0
  -22.3482  -14.5692   20.6754 O   0  0  0  0  0  0
  -24.6217  -31.8641   23.2164 C   0  0  0  0  0  0
  -25.9150  -32.4734   23.8419 C   0  0  1  0  0  0
  -27.2179  -27.3776   20.1252 C   0  0  0  0  0  0
  -25.6006  -33.8556   24.2355 N   0  0  0  0  0  0
  -23.4049  -30.5029   21.5496 C   0  0  2  0  0  0
  -24.8502  -28.9525   20.1329 C   0  0  0  0  0  0
  -22.7373  -29.4761   22.4954 C   0  0  0  0  0  0
  -18.0292  -28.1375   22.8512 C   0  0  0  0  0  0
  -24.1502  -36.7405   23.2620 C   0  0  0  0  0  0
  -25.9465  -30.8127   21.3761 C   0  0  0  0  0  0
  -26.0216  -29.4465   20.7261 C   0  0  0  0  0  0
  -27.2095  -28.6674   20.7219 C   0  0  0  0  0  0
  -26.0289  -26.9306   19.5089 C   0  0  0  0  0  0
  -24.8495  -27.6864   19.5363 C   0  0  0  0  0  0
  -23.6205  -29.8315   20.1681 C   0  0  0  0  0  0
  -25.4089  -36.3059   24.0295 C   0  0  1  0  0  0
  -20.5874  -28.3752   23.1312 C   0  0  2  0  0  0
  -20.6830  -26.9483   22.5433 C   0  0  0  0  0  0
  -19.5802  -26.6402   21.5249 C   0  0  0  0  0  0
  -18.1963  -26.7937   22.1610 C   0  0  0  0  0  0
  -19.1527  -28.8873   23.2894 C   0  0  0  0  0  0
  -18.9452  -30.1480   23.8917 C   0  0  0  0  0  0
  -17.6458  -30.6603   24.0602 C   0  0  0  0  0  0
  -25.9018  -34.9410   23.5099 C   0  0  0  0  0  0
  -16.5359  -29.9112   23.6341 C   0  0  0  0  0  0
  -16.7264  -28.6504   23.0373 C   0  0  0  0  0  0
  -26.4520  -31.6510   25.0789 C   0  0  0  0  0  0
  -25.3825  -31.3773   26.1620 C   0  0  0  0  0  0
  -27.0416  -30.2885   24.6331 C   0  0  0  0  0  0
  -27.6004  -32.4328   25.7634 C   0  0  0  0  0  0
  -27.5569  -37.1819   24.8405 C   0  0  0  0  0  0
  -21.4108  -29.3152   22.3684 N   0  0  0  0  0  0
  -26.4269  -37.3726   23.9376 N   0  0  0  0  0  0
  -24.6756  -31.0752   22.1032 N   0  0  0  0  0  0
  -23.4128  -28.8252   23.2972 O   0  0  0  0  0  0
  -28.3261  -26.5431   20.1874 O   0  0  0  0  0  0
  -26.5494  -34.8841   22.4608 O   0  0  0  0  0  0
  -23.5426  -32.1425   23.7565 O   0  0  0  0  0  0
  -29.0746  -20.0635   18.5154 C   0  0  0  0  0  0
  -28.1162  -19.2960   20.3244 C   0  0  0  0  0  0
  -28.3291  -20.4787   19.6485 C   0  0  0  0  0  0
  -31.9716  -17.2979   21.2360 C   0  0  0  0  0  0
  -30.4373  -17.4804   23.1705 C   0  0  0  0  0  0
  -32.1083  -15.6511   23.1366 C   0  0  0  0  0  0
  -27.9006  -21.9246   19.8873 C   0  0  0  0  0  0
  -28.7564  -22.6786   20.9367 C   0  0  0  0  0  0
  -29.1754  -24.1443   20.5831 C   0  0  0  0  0  0
  -28.7256  -16.8078   19.7420 C   0  0  0  0  0  0
  -28.8705  -16.1848   21.1570 C   0  0  0  0  0  0
  -28.0074  -25.1244   20.3162 C   0  0  0  0  0  0
  -31.1370  -16.4563   22.2296 C   0  0  0  0  0  0
  -29.3150  -18.7662   18.4930 N   0  0  0  0  0  0
  -28.7487  -18.2727   19.6127 N   0  0  0  0  0  0
  -30.1943  -15.5417   21.4669 N   0  0  0  0  0  0
  -31.4577  -12.4773   19.1514 H   0  0  0  0  0  0
  -30.3558  -11.3511   19.8498 H   0  0  0  0  0  0
  -29.7858  -11.8392   17.4359 H   0  0  0  0  0  0
  -29.6232  -13.5355   17.8125 H   0  0  0  0  0  0
  -27.8354  -11.2849   18.7968 H   0  0  0  0  0  0
  -27.3841  -12.6198   17.7743 H   0  0  0  0  0  0
  -27.6818  -14.2113   19.5168 H   0  0  0  0  0  0
  -28.7008  -11.9279   21.2823 H   0  0  0  0  0  0
  -28.4100  -13.4972   21.9142 H   0  0  0  0  0  0
  -25.2681   -9.5955   22.4682 H   0  0  0  0  0  0
  -24.0073   -7.4779   22.7431 H   0  0  0  0  0  0
  -21.0828   -8.8659   19.8881 H   0  0  0  0  0  0
  -22.3471  -10.9692   19.6116 H   0  0  0  0  0  0
  -21.1976   -7.6128   23.9658 H   0  0  0  0  0  0
  -21.1461   -6.0519   25.9040 H   0  0  0  0  0  0
  -22.0618   -2.7607   23.2798 H   0  0  0  0  0  0
  -22.4015  -11.9961   22.4766 H   0  0  0  0  0  0
  -21.0984  -13.1271   22.2453 H   0  0  0  0  0  0
  -24.6837  -15.8497   20.5118 H   0  0  0  0  0  0
  -26.2851  -15.6071   20.0441 H   0  0  0  0  0  0
  -26.7180  -32.5411   23.1139 H   0  0  0  0  0  0
  -25.0286  -33.9718   25.0575 H   0  0  0  0  0  0
  -22.6993  -31.3239   21.3943 H   0  0  0  0  0  0
  -23.3658  -35.9843   23.3256 H   0  0  0  0  0  0
  -24.3604  -36.9089   22.2034 H   0  0  0  0  0  0
  -23.7366  -37.6652   23.6672 H   0  0  0  0  0  0
  -26.0634  -31.5664   20.5971 H   0  0  0  0  0  0
  -26.8340  -30.8603   21.9969 H   0  0  0  0  0  0
  -28.1037  -29.0265   21.2120 H   0  0  0  0  0  0
  -25.9731  -25.9736   19.0189 H   0  0  0  0  0  0
  -23.9470  -27.2769   19.1072 H   0  0  0  0  0  0
  -23.7584  -30.6047   19.4134 H   0  0  0  0  0  0
  -22.7355  -29.2746   19.8496 H   0  0  0  0  0  0
  -25.1210  -36.1924   25.0765 H   0  0  0  0  0  0
  -20.9934  -28.3408   24.1422 H   0  0  0  0  0  0
  -20.5907  -26.2347   23.3620 H   0  0  0  0  0  0
  -21.6691  -26.7643   22.1108 H   0  0  0  0  0  0
  -19.7049  -25.6309   21.1306 H   0  0  0  0  0  0
  -19.6781  -27.3194   20.6762 H   0  0  0  0  0  0
  -17.4247  -26.6750   21.3968 H   0  0  0  0  0  0
  -18.0331  -26.0016   22.8929 H   0  0  0  0  0  0
  -19.7942  -30.7310   24.2248 H   0  0  0  0  0  0
  -17.5031  -31.6264   24.5252 H   0  0  0  0  0  0
  -15.5374  -30.3032   23.7684 H   0  0  0  0  0  0
  -15.8652  -28.0865   22.7084 H   0  0  0  0  0  0
  -24.5926  -30.7061   25.8236 H   0  0  0  0  0  0
  -24.9104  -32.2995   26.5009 H   0  0  0  0  0  0
  -25.8269  -30.9130   27.0430 H   0  0  0  0  0  0
  -26.3074  -29.6553   24.1300 H   0  0  0  0  0  0
  -27.3962  -29.7184   25.4933 H   0  0  0  0  0  0
  -27.8980  -30.4081   23.9685 H   0  0  0  0  0  0
  -27.2428  -33.3568   26.2194 H   0  0  0  0  0  0
  -28.3889  -32.6974   25.0593 H   0  0  0  0  0  0
  -28.0526  -31.8476   26.5633 H   0  0  0  0  0  0
  -28.2458  -38.0214   24.7421 H   0  0  0  0  0  0
  -28.1142  -36.2694   24.6206 H   0  0  0  0  0  0
  -27.2288  -37.1516   25.8804 H   0  0  0  0  0  0
  -20.9247  -29.8912   21.6957 H   0  0  0  0  0  0
  -26.0148  -38.2808   24.1361 H   0  0  0  0  0  0
  -29.4265  -20.6766   17.7019 H   0  0  0  0  0  0
  -27.5545  -19.0969   21.2278 H   0  0  0  0  0  0
  -32.1051  -18.3274   21.5723 H   0  0  0  0  0  0
  -31.5021  -17.3508   20.2541 H   0  0  0  0  0  0
  -32.9653  -16.8726   21.0980 H   0  0  0  0  0  0
  -29.7281  -16.9923   23.8438 H   0  0  0  0  0  0
  -29.9227  -18.2604   22.6056 H   0  0  0  0  0  0
  -31.1618  -18.0242   23.7893 H   0  0  0  0  0  0
  -32.8319  -16.3168   23.6160 H   0  0  0  0  0  0
  -32.6962  -14.9081   22.5971 H   0  0  0  0  0  0
  -31.5774  -15.1216   23.9327 H   0  0  0  0  0  0
  -26.8387  -22.0017   20.1325 H   0  0  0  0  0  0
  -28.0102  -22.4744   18.9504 H   0  0  0  0  0  0
  -29.6727  -22.1037   21.0915 H   0  0  0  0  0  0
  -28.2419  -22.6670   21.8973 H   0  0  0  0  0  0
  -29.8324  -24.1286   19.7114 H   0  0  0  0  0  0
  -29.7806  -24.5153   21.4082 H   0  0  0  0  0  0
  -27.7635  -16.5042   19.3364 H   0  0  0  0  0  0
  -29.4670  -16.3802   19.0631 H   0  0  0  0  0  0
  -28.0940  -15.4433   21.2520 H   0  0  0  0  0  0
  -28.4813  -16.8799   21.8948 H   0  0  0  0  0  0
  -27.2678  -24.9985   21.1129 H   0  0  0  0  0  0
  -27.5567  -24.7538   19.3997 H   0  0  0  0  0  0
  1 25  1  0  0  0
  1 30  2  0  0  0
  1 86  1  0  0  0
  2  3  1  0  0  0
  2 25  1  0  0  0
  2 87  1  0  0  0
  2 88  1  0  0  0
  3  4  1  0  0  0
  3 89  1  0  0  0
  3 90  1  0  0  0
  4  5  1  0  0  0
  4 91  1  0  0  0
  4 92  1  0  0  0
  5  6  1  0  0  0
  5 26  1  0  0  0
  5 93  1  0  0  0
  6 25  1  0  0  0
  6 94  1  0  0  0
  6 95  1  0  0  0
  7  8  2  0  0  0
  7 26  1  0  0  0
  7 29  1  0  0  0
  8  9  1  0  0  0
  8 22  1  0  0  0
  9 10  1  0  0  0
  9 27  2  0  0  0
 10 11  2  0  0  0
 10 15  1  0  0  0
 11 12  1  0  0  0
 11 96  1  0  0  0
 12 13  2  0  0  0
 12 97  1  0  0  0
 13 14  1  0  0  0
 13 31  1  0  0  0
 14 15  2  0  0  0
 14 98  1  0  0  0
 15 99  1  0  0  0
 16 17  2  0  0  0
 16 21  1  0  0  0
 16 31  1  0  0  0
 17 18  1  0  0  0
 17100  1  0  0  0
 18 19  2  0  0  0
 18101  1  0  0  0
 19 20  1  0  0  0
 19 24  1  0  0  0
 20 21  2  0  0  0
 20102  1  0  0  0
 21 23  1  0  0  0
 22 28  1  0  0  0
 22 32  2  0  0  0
 26 27  1  0  0  0
 28103  1  0  0  0
 28104  1  0  0  0
 29105  1  0  0  0
 29106  1  0  0  0
 33 34  1  0  0  0
 33 66  1  0  0  0
 33 70  2  0  0  0
 34 36  1  0  0  0
 34 59  1  0  0  0
 34107  1  0  0  0
 35 44  2  0  0  0
 35 45  1  0  0  0
 35 68  1  0  0  0
 36 56  1  0  0  0
 36108  1  0  0  0
 37 39  1  0  0  0
 37 47  1  0  0  0
 37 66  1  0  0  0
 37109  1  0  0  0
 38 43  2  0  0  0
 38 46  1  0  0  0
 38 47  1  0  0  0
 39 64  1  0  0  0
 39 67  2  0  0  0
 40 52  1  0  0  0
 40 53  2  0  0  0
 40 58  1  0  0  0
 41110  1  0  0  0
 41111  1  0  0  0
 41112  1  0  0  0
 41 48  1  0  0  0
 42 43  1  0  0  0
 42 66  1  0  0  0
 42113  1  0  0  0
 42114  1  0  0  0
 43 44  1  0  0  0
 44115  1  0  0  0
 45 46  2  0  0  0
 45116  1  0  0  0
 46117  1  0  0  0
 47118  1  0  0  0
 47119  1  0  0  0
 48 56  1  0  0  0
 48 65  1  0  0  0
 48120  1  0  0  0
 49 50  1  0  0  0
 49 53  1  0  0  0
 49 64  1  0  0  0
 49121  1  0  0  0
 50 51  1  0  0  0
 50122  1  0  0  0
 50123  1  0  0  0
 51 52  1  0  0  0
 51124  1  0  0  0
 51125  1  0  0  0
 52126  1  0  0  0
 52127  1  0  0  0
 53 54  1  0  0  0
 54 55  2  0  0  0
 54128  1  0  0  0
 55 57  1  0  0  0
 55129  1  0  0  0
 56 69  2  0  0  0
 57 58  2  0  0  0
 57130  1  0  0  0
 58131  1  0  0  0
 59 60  1  0  0  0
 59 61  1  0  0  0
 59 62  1  0  0  0
 60132  1  0  0  0
 60133  1  0  0  0
 60134  1  0  0  0
 61135  1  0  0  0
 61136  1  0  0  0
 61137  1  0  0  0
 62138  1  0  0  0
 62139  1  0  0  0
 62140  1  0  0  0
 63 65  1  0  0  0
 63141  1  0  0  0
 63142  1  0  0  0
 63143  1  0  0  0
 64144  1  0  0  0
 65145  1  0  0  0
 68 82  1  0  0  0
 71 73  1  0  0  0
 71 84  2  0  0  0
 71146  1  0  0  0
 72 73  2  0  0  0
 72 85  1  0  0  0
 72147  1  0  0  0
 73 77  1  0  0  0
 74148  1  0  0  0
 74149  1  0  0  0
 74150  1  0  0  0
 74 83  1  0  0  0
 75 83  1  0  0  0
 75151  1  0  0  0
 75152  1  0  0  0
 75153  1  0  0  0
 76 83  1  0  0  0
 76154  1  0  0  0
 76155  1  0  0  0
 76156  1  0  0  0
 77 78  1  0  0  0
 77157  1  0  0  0
 77158  1  0  0  0
 78 79  1  0  0  0
 78159  1  0  0  0
 78160  1  0  0  0
 79 82  1  0  0  0
 79161  1  0  0  0
 79162  1  0  0  0
 80 81  1  0  0  0
 80 85  1  0  0  0
 80163  1  0  0  0
 80164  1  0  0  0
 81 86  1  0  0  0
 81165  1  0  0  0
 81166  1  0  0  0
 82167  1  0  0  0
 82168  1  0  0  0
 83 86  1  0  0  0
 84 85  1  0  0  0
M  ISO  4   1 100  68 101  82 101  86 100
M  END
> <chiral flag>
0

> <version>
0

> <s_m_source_file>
/data/baiqing/PycharmProjects/Reinvent-master-3.2/result/LINK_invent/BTK/process_docking_weight1_custom_sum_contain_oxygen_bond_distance_aromatic_linkinvent_7_9_3/rearranged_h_0060.sdf

> <i_m_source_file_index>
66

> <r_mmod_Potential_Energy-OPLS-2005>
284.476928710938

> <r_mmod_Stretch_Energy-OPLS-2005>
63.5397109985352

> <r_mmod_Bend_Energy-OPLS-2005>
148.956085205078

> <r_mmod_Torsional_Energy-OPLS-2005>
327.592346191406

> <r_mmod_Improper_Torsional_Energy-OPLS-2005>
4.65818214416504

> <r_mmod_Van_der_Waal_Energy-OPLS-2005>
153.077026367188

> <r_mmod_Electrostatic_Energy-OPLS-2005>
-239.780181884766

> <r_mmod_Solvation_Energy-OPLS-2005>
-200.895080566406

> <b_mmod_Minimization_Converged-OPLS-2005>
0

> <r_mmod_RMS_Derivative-OPLS-2005>
8.02056407928467

$$$$
69
                    3D
 Structure written by MMmdl.
155163  0  0  1  0            999 V2000
  -30.5057  -15.0101   20.4745 C   0  0  0  0  0  0
  -30.4506  -12.6485   19.4865 C   0  0  0  0  0  0
  -29.5197  -12.5658   18.2510 C   0  0  0  0  0  0
  -28.0481  -12.3441   18.6614 C   0  0  0  0  0  0
  -27.6323  -13.2433   19.8539 C   0  0  2  0  0  0
  -28.6864  -13.1859   20.9782 C   0  0  0  0  0  0
  -25.2394  -13.8191   20.5628 C   0  0  0  0  0  0
  -24.1741  -13.0407   20.9207 C   0  0  0  0  0  0
  -24.6390  -11.6904   20.8776 C   0  0  0  0  0  0
  -23.9092  -10.4278   21.0421 C   0  0  0  0  0  0
  -24.3644   -9.4194   21.9197 C   0  0  0  0  0  0
  -23.6313   -8.2233   22.0762 C   0  0  0  0  0  0
  -22.4293   -8.0279   21.3547 C   0  0  0  0  0  0
  -21.9931   -9.0250   20.4641 C   0  0  0  0  0  0
  -22.7271  -10.2122   20.3059 C   0  0  0  0  0  0
  -21.6858   -6.0743   22.5290 C   0  0  0  0  0  0
  -21.4011   -6.5642   23.8221 C   0  0  0  0  0  0
  -21.3662   -5.6794   24.9179 C   0  0  0  0  0  0
  -21.6049   -4.3059   24.7224 C   0  0  0  0  0  0
  -21.8816   -3.8149   23.4345 C   0  0  0  0  0  0
  -21.9184   -4.6968   22.3405 C   0  0  0  0  0  0
  -22.7760  -13.5168   21.1858 C   0  0  0  0  0  0
  -22.1641   -4.2149   21.0980 F   0  0  0  0  0  0
  -21.5644   -3.4547   25.7740 F   0  0  0  0  0  0
  -29.9341  -13.7199   20.3993 N   0  0  0  0  0  0
  -26.2875  -12.9432   20.3313 N   0  0  0  0  0  0
  -25.9327  -11.6560   20.5800 N   0  0  0  0  0  0
  -22.0412  -12.8172   22.0431 N   0  0  0  0  0  0
  -25.3890  -15.1916   20.3898 N   0  0  0  0  0  0
  -31.6912  -15.0750   20.1179 O   0  0  0  0  0  0
  -21.6634   -6.8892   21.4260 O   0  0  0  0  0  0
  -22.3437  -14.5473   20.6706 O   0  0  0  0  0  0
  -24.6464  -31.8406   23.1835 C   0  0  0  0  0  0
  -25.9229  -32.4668   23.8232 C   0  0  1  0  0  0
  -27.2261  -27.1090   20.1641 C   0  0  0  0  0  0
  -25.5972  -33.8477   24.2164 N   0  0  0  0  0  0
  -23.4511  -30.4566   21.5295 C   0  0  2  0  0  0
  -24.9020  -28.8678   20.1182 C   0  0  0  0  0  0
  -22.7579  -29.4543   22.4860 C   0  0  0  0  0  0
  -18.0308  -28.1389   22.8472 C   0  0  0  0  0  0
  -24.1507  -36.7246   23.2642 C   0  0  0  0  0  0
  -26.0079  -30.7055   21.3845 C   0  0  0  0  0  0
  -26.0809  -29.3110   20.7322 C   0  0  0  0  0  0
  -27.2455  -28.4510   20.7297 C   0  0  0  0  0  0
  -26.0187  -26.7619   19.5250 C   0  0  0  0  0  0
  -24.8847  -27.6072   19.4976 C   0  0  0  0  0  0
  -23.6805  -29.7763   20.1529 C   0  0  0  0  0  0
  -25.4140  -36.3016   24.0308 C   0  0  1  0  0  0
  -20.5926  -28.3723   23.1228 C   0  0  2  0  0  0
  -20.6798  -26.9425   22.5404 C   0  0  0  0  0  0
  -19.5772  -26.6377   21.5210 C   0  0  0  0  0  0
  -18.1952  -26.7926   22.1621 C   0  0  0  0  0  0
  -19.1564  -28.8874   23.2839 C   0  0  0  0  0  0
  -18.9482  -30.1472   23.8864 C   0  0  0  0  0  0
  -17.6479  -30.6586   24.0558 C   0  0  0  0  0  0
  -25.9082  -34.9392   23.5042 C   0  0  0  0  0  0
  -16.5373  -29.9076   23.6336 C   0  0  0  0  0  0
  -16.7296  -28.6500   23.0349 C   0  0  0  0  0  0
  -26.4535  -31.6543   25.0687 C   0  0  0  0  0  0
  -25.3715  -31.3734   26.1378 C   0  0  0  0  0  0
  -27.0404  -30.2936   24.6285 C   0  0  0  0  0  0
  -27.6062  -32.4305   25.7475 C   0  0  0  0  0  0
  -27.5578  -37.1787   24.8464 C   0  0  0  0  0  0
  -21.4272  -29.3048   22.3594 N   0  0  0  0  0  0
  -26.4298  -37.3732   23.9394 N   0  0  0  0  0  0
  -24.7215  -31.0236   22.0879 N   0  0  0  0  0  0
  -23.4206  -28.8105   23.3034 O   0  0  0  0  0  0
  -28.3018  -26.1423   20.1412 O   0  0  0  0  0  0
  -26.5673  -34.8897   22.4625 O   0  0  0  0  0  0
  -23.5581  -32.1302   23.7039 O   0  0  0  0  0  0
  -27.2560  -19.1822   18.7593 C   0  0  0  0  0  0
  -28.9895  -18.8267   19.9071 C   0  0  0  0  0  0
  -26.0493  -18.9359   17.9243 C   0  0  0  0  0  0
  -28.6837  -16.1947   21.7209 C   0  0  0  0  0  0
  -30.1020  -17.7741   20.4862 C   0  0  0  0  0  0
  -28.5986  -23.1836   19.8336 C   0  0  0  0  0  0
  -29.0609  -21.6750   20.5280 C   0  0  0  0  0  0
  -28.1841  -24.6473   20.6079 C   0  0  0  0  0  0
  -28.0873  -18.1888   19.1546 N   0  0  0  0  0  0
  -27.5599  -20.3997   19.1741 N   0  0  0  0  0  0
  -28.6889  -20.2570   19.9175 N   0  0  0  0  0  0
  -29.7503  -16.2245   20.7135 N   0  0  0  0  0  0
  -31.4713  -12.8474   19.1585 H   0  0  0  0  0  0
  -30.5018  -11.6846   19.9965 H   0  0  0  0  0  0
  -29.8501  -11.7701   17.5812 H   0  0  0  0  0  0
  -29.5963  -13.4931   17.6831 H   0  0  0  0  0  0
  -27.9304  -11.2946   18.9348 H   0  0  0  0  0  0
  -27.3881  -12.5108   17.8087 H   0  0  0  0  0  0
  -27.6126  -14.2644   19.4703 H   0  0  0  0  0  0
  -28.8166  -12.1551   21.3108 H   0  0  0  0  0  0
  -28.3644  -13.7051   21.8746 H   0  0  0  0  0  0
  -25.2775   -9.5677   22.4785 H   0  0  0  0  0  0
  -24.0019   -7.4622   22.7476 H   0  0  0  0  0  0
  -21.0866   -8.8788   19.8930 H   0  0  0  0  0  0
  -22.3743  -10.9681   19.6184 H   0  0  0  0  0  0
  -21.2004   -7.6145   23.9740 H   0  0  0  0  0  0
  -21.1494   -6.0506   25.9088 H   0  0  0  0  0  0
  -22.0593   -2.7610   23.2842 H   0  0  0  0  0  0
  -22.4034  -11.9859   22.4870 H   0  0  0  0  0  0
  -21.1023  -13.1205   22.2600 H   0  0  0  0  0  0
  -24.6057  -15.8272   20.4900 H   0  0  0  0  0  0
  -26.2261  -15.6469   20.0483 H   0  0  0  0  0  0
  -26.7303  -32.5268   23.0961 H   0  0  0  0  0  0
  -25.0095  -33.9581   25.0294 H   0  0  0  0  0  0
  -22.7563  -31.2831   21.3685 H   0  0  0  0  0  0
  -23.3762  -35.9582   23.3296 H   0  0  0  0  0  0
  -24.3592  -36.8889   22.2059 H   0  0  0  0  0  0
  -23.7279  -37.6444   23.6689 H   0  0  0  0  0  0
  -26.1666  -31.4568   20.6087 H   0  0  0  0  0  0
  -26.8772  -30.7588   22.0287 H   0  0  0  0  0  0
  -28.1497  -28.7953   21.2118 H   0  0  0  0  0  0
  -25.9453  -25.7942   19.0485 H   0  0  0  0  0  0
  -23.9866  -27.2610   19.0050 H   0  0  0  0  0  0
  -23.8235  -30.5459   19.3933 H   0  0  0  0  0  0
  -22.7935  -29.2211   19.8419 H   0  0  0  0  0  0
  -25.1336  -36.1825   25.0800 H   0  0  0  0  0  0
  -21.0016  -28.3316   24.1348 H   0  0  0  0  0  0
  -20.5689  -26.2341   23.3625 H   0  0  0  0  0  0
  -21.6662  -26.7421   22.1206 H   0  0  0  0  0  0
  -19.6933  -25.6279   21.1254 H   0  0  0  0  0  0
  -19.6699  -27.3172   20.6726 H   0  0  0  0  0  0
  -17.4220  -26.6670   21.4027 H   0  0  0  0  0  0
  -18.0349  -26.0070   22.9020 H   0  0  0  0  0  0
  -19.7961  -30.7299   24.2215 H   0  0  0  0  0  0
  -17.5032  -31.6260   24.5165 H   0  0  0  0  0  0
  -15.5372  -30.2968   23.7668 H   0  0  0  0  0  0
  -15.8704  -28.0810   22.7070 H   0  0  0  0  0  0
  -24.5901  -30.7075   25.7689 H   0  0  0  0  0  0
  -24.8896  -32.2918   26.4744 H   0  0  0  0  0  0
  -25.7998  -30.8940   27.0190 H   0  0  0  0  0  0
  -26.3024  -29.6638   24.1308 H   0  0  0  0  0  0
  -27.4026  -29.7252   25.4859 H   0  0  0  0  0  0
  -27.8923  -30.4154   23.9593 H   0  0  0  0  0  0
  -27.2662  -33.3631   26.1984 H   0  0  0  0  0  0
  -28.3914  -32.6822   25.0332 H   0  0  0  0  0  0
  -28.0685  -31.8470   26.5449 H   0  0  0  0  0  0
  -28.2586  -38.0088   24.7496 H   0  0  0  0  0  0
  -28.1084  -36.2617   24.6309 H   0  0  0  0  0  0
  -27.2289  -37.1450   25.8864 H   0  0  0  0  0  0
  -20.9488  -29.8748   21.6755 H   0  0  0  0  0  0
  -26.0152  -38.2795   24.1375 H   0  0  0  0  0  0
  -25.1922  -18.7170   18.5605 H   0  0  0  0  0  0
  -26.2096  -18.0894   17.2582 H   0  0  0  0  0  0
  -25.8173  -19.8101   17.3155 H   0  0  0  0  0  0
  -29.0032  -15.6647   22.6189 H   0  0  0  0  0  0
  -27.7871  -15.7335   21.3207 H   0  0  0  0  0  0
  -28.3784  -17.1867   22.0532 H   0  0  0  0  0  0
  -30.4772  -18.1765   21.4270 H   0  0  0  0  0  0
  -30.9533  -17.8092   19.8060 H   0  0  0  0  0  0
  -27.7585  -22.9857   19.1682 H   0  0  0  0  0  0
  -29.4034  -23.4327   19.1428 H   0  0  0  0  0  0
  -28.6611  -21.6652   21.5419 H   0  0  0  0  0  0
  -30.1426  -21.6828   20.6624 H   0  0  0  0  0  0
  -28.7800  -24.6425   21.5201 H   0  0  0  0  0  0
  -27.1642  -24.5264   20.9734 H   0  0  0  0  0  0
  1 25  1  0  0  0
  1 30  2  0  0  0
  1 82  1  0  0  0
  2  3  1  0  0  0
  2 25  1  0  0  0
  2 83  1  0  0  0
  2 84  1  0  0  0
  3  4  1  0  0  0
  3 85  1  0  0  0
  3 86  1  0  0  0
  4  5  1  0  0  0
  4 87  1  0  0  0
  4 88  1  0  0  0
  5  6  1  0  0  0
  5 26  1  0  0  0
  5 89  1  0  0  0
  6 25  1  0  0  0
  6 90  1  0  0  0
  6 91  1  0  0  0
  7  8  2  0  0  0
  7 26  1  0  0  0
  7 29  1  0  0  0
  8  9  1  0  0  0
  8 22  1  0  0  0
  9 10  1  0  0  0
  9 27  2  0  0  0
 10 11  2  0  0  0
 10 15  1  0  0  0
 11 12  1  0  0  0
 11 92  1  0  0  0
 12 13  2  0  0  0
 12 93  1  0  0  0
 13 14  1  0  0  0
 13 31  1  0  0  0
 14 15  2  0  0  0
 14 94  1  0  0  0
 15 95  1  0  0  0
 16 17  2  0  0  0
 16 21  1  0  0  0
 16 31  1  0  0  0
 17 18  1  0  0  0
 17 96  1  0  0  0
 18 19  2  0  0  0
 18 97  1  0  0  0
 19 20  1  0  0  0
 19 24  1  0  0  0
 20 21  2  0  0  0
 20 98  1  0  0  0
 21 23  1  0  0  0
 22 28  1  0  0  0
 22 32  2  0  0  0
 26 27  1  0  0  0
 28 99  1  0  0  0
 28100  1  0  0  0
 29101  1  0  0  0
 29102  1  0  0  0
 33 34  1  0  0  0
 33 66  1  0  0  0
 33 70  2  0  0  0
 34 36  1  0  0  0
 34 59  1  0  0  0
 34103  1  0  0  0
 35 44  2  0  0  0
 35 45  1  0  0  0
 35 68  1  0  0  0
 36 56  1  0  0  0
 36104  1  0  0  0
 37 39  1  0  0  0
 37 47  1  0  0  0
 37 66  1  0  0  0
 37105  1  0  0  0
 38 43  2  0  0  0
 38 46  1  0  0  0
 38 47  1  0  0  0
 39 64  1  0  0  0
 39 67  2  0  0  0
 40 52  1  0  0  0
 40 53  2  0  0  0
 40 58  1  0  0  0
 41106  1  0  0  0
 41107  1  0  0  0
 41108  1  0  0  0
 41 48  1  0  0  0
 42 43  1  0  0  0
 42 66  1  0  0  0
 42109  1  0  0  0
 42110  1  0  0  0
 43 44  1  0  0  0
 44111  1  0  0  0
 45 46  2  0  0  0
 45112  1  0  0  0
 46113  1  0  0  0
 47114  1  0  0  0
 47115  1  0  0  0
 48 56  1  0  0  0
 48 65  1  0  0  0
 48116  1  0  0  0
 49 50  1  0  0  0
 49 53  1  0  0  0
 49 64  1  0  0  0
 49117  1  0  0  0
 50 51  1  0  0  0
 50118  1  0  0  0
 50119  1  0  0  0
 51 52  1  0  0  0
 51120  1  0  0  0
 51121  1  0  0  0
 52122  1  0  0  0
 52123  1  0  0  0
 53 54  1  0  0  0
 54 55  2  0  0  0
 54124  1  0  0  0
 55 57  1  0  0  0
 55125  1  0  0  0
 56 69  2  0  0  0
 57 58  2  0  0  0
 57126  1  0  0  0
 58127  1  0  0  0
 59 60  1  0  0  0
 59 61  1  0  0  0
 59 62  1  0  0  0
 60128  1  0  0  0
 60129  1  0  0  0
 60130  1  0  0  0
 61131  1  0  0  0
 61132  1  0  0  0
 61133  1  0  0  0
 62134  1  0  0  0
 62135  1  0  0  0
 62136  1  0  0  0
 63 65  1  0  0  0
 63137  1  0  0  0
 63138  1  0  0  0
 63139  1  0  0  0
 64140  1  0  0  0
 65141  1  0  0  0
 68 78  1  0  0  0
 71 73  1  0  0  0
 71 79  1  0  0  0
 71 80  2  0  0  0
 72 75  1  0  0  0
 72 79  2  0  0  0
 72 81  1  0  0  0
 73142  1  0  0  0
 73143  1  0  0  0
 73144  1  0  0  0
 74 82  1  0  0  0
 74145  1  0  0  0
 74146  1  0  0  0
 74147  1  0  0  0
 75 82  1  0  0  0
 75148  1  0  0  0
 75149  1  0  0  0
 76 77  1  0  0  0
 76 78  1  0  0  0
 76150  1  0  0  0
 76151  1  0  0  0
 77 81  1  0  0  0
 77152  1  0  0  0
 77153  1  0  0  0
 78154  1  0  0  0
 78155  1  0  0  0
 80 81  1  0  0  0
M  ISO  4   1 100  68 101  78 101  82 100
M  END
> <chiral flag>
0

> <version>
0

> <s_m_source_file>
/data/baiqing/PycharmProjects/Reinvent-master-3.2/result/LINK_invent/BTK/process_docking_weight1_custom_sum_contain_oxygen_bond_distance_aromatic_linkinvent_7_9_3/rearranged_h_0060.sdf

> <i_m_source_file_index>
67

> <r_mmod_Potential_Energy-OPLS-2005>
691.994140625

> <r_mmod_Stretch_Energy-OPLS-2005>
330.077880859375

> <r_mmod_Bend_Energy-OPLS-2005>
360.583221435547

> <r_mmod_Torsional_Energy-OPLS-2005>
274.488403320312

> <r_mmod_Improper_Torsional_Energy-OPLS-2005>
6.62979698181152

> <r_mmod_Van_der_Waal_Energy-OPLS-2005>
117.545433044434

> <r_mmod_Electrostatic_Energy-OPLS-2005>
-396.63525390625

> <r_mmod_Solvation_Energy-OPLS-2005>
-211.872848510742

> <b_mmod_Minimization_Converged-OPLS-2005>
0

> <r_mmod_RMS_Derivative-OPLS-2005>
1.89377701282501

$$$$
70
                    3D
 Structure written by MMmdl.
158166  0  0  1  0            999 V2000
  -30.6260  -14.7425   20.5198 C   0  0  0  0  0  0
  -30.4488  -12.4690   19.4752 C   0  0  0  0  0  0
  -29.5126  -12.5092   18.2448 C   0  0  0  0  0  0
  -28.0388  -12.3330   18.6614 C   0  0  0  0  0  0
  -27.6533  -13.2233   19.8712 C   0  0  2  0  0  0
  -28.7005  -13.1060   20.9980 C   0  0  0  0  0  0
  -25.2565  -13.8196   20.5747 C   0  0  0  0  0  0
  -24.1823  -13.0452   20.9219 C   0  0  0  0  0  0
  -24.6396  -11.6920   20.8765 C   0  0  0  0  0  0
  -23.9056  -10.4304   21.0416 C   0  0  0  0  0  0
  -24.3615   -9.4212   21.9190 C   0  0  0  0  0  0
  -23.6292   -8.2248   22.0754 C   0  0  0  0  0  0
  -22.4273   -8.0285   21.3547 C   0  0  0  0  0  0
  -21.9913   -9.0259   20.4642 C   0  0  0  0  0  0
  -22.7241  -10.2139   20.3060 C   0  0  0  0  0  0
  -21.6849   -6.0748   22.5286 C   0  0  0  0  0  0
  -21.4005   -6.5643   23.8224 C   0  0  0  0  0  0
  -21.3653   -5.6790   24.9176 C   0  0  0  0  0  0
  -21.6045   -4.3053   24.7228 C   0  0  0  0  0  0
  -21.8817   -3.8160   23.4345 C   0  0  0  0  0  0
  -21.9190   -4.6977   22.3401 C   0  0  0  0  0  0
  -22.7838  -13.5247   21.1870 C   0  0  0  0  0  0
  -22.1661   -4.2168   21.0977 F   0  0  0  0  0  0
  -21.5629   -3.4536   25.7735 F   0  0  0  0  0  0
  -29.9948  -13.5134   20.4305 N   0  0  0  0  0  0
  -26.3002  -12.9378   20.3409 N   0  0  0  0  0  0
  -25.9337  -11.6533   20.5833 N   0  0  0  0  0  0
  -22.0464  -12.8222   22.0412 N   0  0  0  0  0  0
  -25.4295  -15.1910   20.4149 N   0  0  0  0  0  0
  -31.7823  -14.8409   20.0921 O   0  0  0  0  0  0
  -21.6629   -6.8890   21.4246 O   0  0  0  0  0  0
  -22.3521  -14.5555   20.6723 O   0  0  0  0  0  0
  -24.6344  -31.8523   23.1963 C   0  0  0  0  0  0
  -25.9160  -32.4737   23.8313 C   0  0  1  0  0  0
  -27.2262  -27.2460   20.1299 C   0  0  0  0  0  0
  -25.5945  -33.8531   24.2257 N   0  0  0  0  0  0
  -23.4322  -30.4777   21.5382 C   0  0  2  0  0  0
  -24.8838  -28.9271   20.1060 C   0  0  0  0  0  0
  -22.7492  -29.4601   22.4852 C   0  0  0  0  0  0
  -18.0295  -28.1381   22.8463 C   0  0  0  0  0  0
  -24.1488  -36.7281   23.2642 C   0  0  0  0  0  0
  -25.9793  -30.7646   21.3751 C   0  0  0  0  0  0
  -26.0561  -29.3842   20.7203 C   0  0  0  0  0  0
  -27.2289  -28.5582   20.7208 C   0  0  0  0  0  0
  -26.0294  -26.8676   19.4756 C   0  0  0  0  0  0
  -24.8781  -27.6774   19.4714 C   0  0  0  0  0  0
  -23.6546  -29.8157   20.1531 C   0  0  0  0  0  0
  -25.4105  -36.3054   24.0333 C   0  0  1  0  0  0
  -20.5903  -28.3705   23.1237 C   0  0  2  0  0  0
  -20.6789  -26.9418   22.5380 C   0  0  0  0  0  0
  -19.5763  -26.6388   21.5176 C   0  0  0  0  0  0
  -18.1950  -26.7920   22.1602 C   0  0  0  0  0  0
  -19.1552  -28.8846   23.2865 C   0  0  0  0  0  0
  -18.9484  -30.1432   23.8916 C   0  0  0  0  0  0
  -17.6494  -30.6590   24.0553 C   0  0  0  0  0  0
  -25.9047  -34.9424   23.5090 C   0  0  0  0  0  0
  -16.5378  -29.9082   23.6327 C   0  0  0  0  0  0
  -16.7285  -28.6494   23.0357 C   0  0  0  0  0  0
  -26.4549  -31.6550   25.0688 C   0  0  0  0  0  0
  -25.3793  -31.3665   26.1421 C   0  0  0  0  0  0
  -27.0391  -30.2984   24.6124 C   0  0  0  0  0  0
  -27.6103  -32.4296   25.7466 C   0  0  0  0  0  0
  -27.5574  -37.1781   24.8460 C   0  0  0  0  0  0
  -21.4193  -29.3077   22.3613 N   0  0  0  0  0  0
  -26.4274  -37.3760   23.9440 N   0  0  0  0  0  0
  -24.7021  -31.0477   22.0947 N   0  0  0  0  0  0
  -23.4176  -28.8111   23.2936 O   0  0  0  0  0  0
  -28.3107  -26.3291   20.1979 O   0  0  0  0  0  0
  -26.5588  -34.8896   22.4656 O   0  0  0  0  0  0
  -23.5492  -32.1354   23.7256 O   0  0  0  0  0  0
  -29.2669  -20.7769   20.5171 C   0  0  0  0  0  0
  -29.8138  -18.6385   20.4173 C   0  0  0  0  0  0
  -27.7021  -19.4247   17.8574 C   0  0  0  0  0  0
  -29.2071  -16.0976   22.0541 C   0  0  0  0  0  0
  -28.4372  -22.1210   20.3842 C   0  0  0  0  0  0
  -29.9360  -17.1493   19.8777 C   0  0  0  0  0  0
  -29.0509  -23.6275   20.3774 C   0  0  0  0  0  0
  -27.5811  -19.2559   19.3755 C   0  0  0  0  0  0
  -28.0063  -24.8493   20.1276 C   0  0  0  0  0  0
  -30.4079  -20.6241   21.2075 N   0  0  0  0  0  0
  -30.7685  -19.2689   21.1229 N   0  0  0  0  0  0
  -28.8291  -19.5424   20.0673 N   0  0  0  0  0  0
  -29.8816  -15.9027   20.7672 N   0  0  0  0  0  0
  -31.4806  -12.6168   19.1508 H   0  0  0  0  0  0
  -30.4347  -11.4849   19.9462 H   0  0  0  0  0  0
  -29.7901  -11.7288   17.5349 H   0  0  0  0  0  0
  -29.6355  -13.4583   17.7210 H   0  0  0  0  0  0
  -27.8963  -11.2834   18.9236 H   0  0  0  0  0  0
  -27.3748  -12.5282   17.8185 H   0  0  0  0  0  0
  -27.6648  -14.2546   19.5180 H   0  0  0  0  0  0
  -28.7556  -12.0794   21.3633 H   0  0  0  0  0  0
  -28.4135  -13.6925   21.8652 H   0  0  0  0  0  0
  -25.2752   -9.5686   22.4777 H   0  0  0  0  0  0
  -24.0001   -7.4633   22.7472 H   0  0  0  0  0  0
  -21.0851   -8.8769   19.8947 H   0  0  0  0  0  0
  -22.3694  -10.9678   19.6175 H   0  0  0  0  0  0
  -21.1989   -7.6151   23.9737 H   0  0  0  0  0  0
  -21.1477   -6.0513   25.9083 H   0  0  0  0  0  0
  -22.0606   -2.7625   23.2838 H   0  0  0  0  0  0
  -22.4049  -11.9856   22.4773 H   0  0  0  0  0  0
  -21.1108  -13.1283   22.2662 H   0  0  0  0  0  0
  -24.6681  -15.8514   20.5283 H   0  0  0  0  0  0
  -26.2856  -15.6242   20.0949 H   0  0  0  0  0  0
  -26.7215  -32.5426   23.1041 H   0  0  0  0  0  0
  -25.0133  -33.9651   25.0429 H   0  0  0  0  0  0
  -22.7336  -31.3038   21.3882 H   0  0  0  0  0  0
  -23.3737  -35.9616   23.3253 H   0  0  0  0  0  0
  -24.3605  -36.8954   22.2069 H   0  0  0  0  0  0
  -23.7237  -37.6472   23.6693 H   0  0  0  0  0  0
  -26.1041  -31.5204   20.5989 H   0  0  0  0  0  0
  -26.8625  -30.8280   21.9996 H   0  0  0  0  0  0
  -28.1229  -28.9002   21.2249 H   0  0  0  0  0  0
  -25.9447  -25.9215   18.9660 H   0  0  0  0  0  0
  -23.9842  -27.3256   18.9755 H   0  0  0  0  0  0
  -23.7851  -30.5956   19.4021 H   0  0  0  0  0  0
  -22.7722  -29.2547   19.8392 H   0  0  0  0  0  0
  -25.1268  -36.1898   25.0817 H   0  0  0  0  0  0
  -21.0033  -28.3299   24.1337 H   0  0  0  0  0  0
  -20.5700  -26.2300   23.3578 H   0  0  0  0  0  0
  -21.6656  -26.7430   22.1178 H   0  0  0  0  0  0
  -19.6942  -25.6299   21.1210 H   0  0  0  0  0  0
  -19.6720  -27.3196   20.6711 H   0  0  0  0  0  0
  -17.4215  -26.6659   21.4019 H   0  0  0  0  0  0
  -18.0366  -26.0032   22.8988 H   0  0  0  0  0  0
  -19.7963  -30.7218   24.2325 H   0  0  0  0  0  0
  -17.5052  -31.6273   24.5140 H   0  0  0  0  0  0
  -15.5388  -30.3011   23.7618 H   0  0  0  0  0  0
  -15.8673  -28.0818   22.7091 H   0  0  0  0  0  0
  -24.6003  -30.6958   25.7770 H   0  0  0  0  0  0
  -24.8937  -32.2803   26.4851 H   0  0  0  0  0  0
  -25.8150  -30.8875   27.0200 H   0  0  0  0  0  0
  -26.2940  -29.6708   24.1219 H   0  0  0  0  0  0
  -27.4186  -29.7266   25.4602 H   0  0  0  0  0  0
  -27.8755  -30.4270   23.9246 H   0  0  0  0  0  0
  -27.2728  -33.3633   26.1977 H   0  0  0  0  0  0
  -28.3942  -32.6809   25.0302 H   0  0  0  0  0  0
  -28.0716  -31.8453   26.5440 H   0  0  0  0  0  0
  -28.2540  -38.0124   24.7544 H   0  0  0  0  0  0
  -28.1120  -36.2660   24.6222 H   0  0  0  0  0  0
  -27.2302  -37.1339   25.8860 H   0  0  0  0  0  0
  -20.9356  -29.8847   21.6873 H   0  0  0  0  0  0
  -26.0134  -38.2818   24.1502 H   0  0  0  0  0  0
  -26.7547  -19.1876   17.3716 H   0  0  0  0  0  0
  -28.4615  -18.7649   17.4390 H   0  0  0  0  0  0
  -27.9607  -20.4495   17.5902 H   0  0  0  0  0  0
  -28.1314  -15.9597   21.9422 H   0  0  0  0  0  0
  -29.3680  -17.0956   22.4597 H   0  0  0  0  0  0
  -29.5693  -15.4016   22.8132 H   0  0  0  0  0  0
  -27.6792  -22.0857   21.1662 H   0  0  0  0  0  0
  -27.8762  -22.0314   19.4549 H   0  0  0  0  0  0
  -30.8724  -17.1198   19.3203 H   0  0  0  0  0  0
  -29.1732  -17.0021   19.1141 H   0  0  0  0  0  0
  -29.8260  -23.6768   19.6127 H   0  0  0  0  0  0
  -29.5621  -23.7929   21.3258 H   0  0  0  0  0  0
  -27.2628  -18.2441   19.6273 H   0  0  0  0  0  0
  -26.8058  -19.9149   19.7698 H   0  0  0  0  0  0
  -27.1835  -24.6798   20.8240 H   0  0  0  0  0  0
  -27.6052  -24.6505   19.1345 H   0  0  0  0  0  0
  1 25  1  0  0  0
  1 30  2  0  0  0
  1 83  1  0  0  0
  2  3  1  0  0  0
  2 25  1  0  0  0
  2 84  1  0  0  0
  2 85  1  0  0  0
  3  4  1  0  0  0
  3 86  1  0  0  0
  3 87  1  0  0  0
  4  5  1  0  0  0
  4 88  1  0  0  0
  4 89  1  0  0  0
  5  6  1  0  0  0
  5 26  1  0  0  0
  5 90  1  0  0  0
  6 25  1  0  0  0
  6 91  1  0  0  0
  6 92  1  0  0  0
  7  8  2  0  0  0
  7 26  1  0  0  0
  7 29  1  0  0  0
  8  9  1  0  0  0
  8 22  1  0  0  0
  9 10  1  0  0  0
  9 27  2  0  0  0
 10 11  2  0  0  0
 10 15  1  0  0  0
 11 12  1  0  0  0
 11 93  1  0  0  0
 12 13  2  0  0  0
 12 94  1  0  0  0
 13 14  1  0  0  0
 13 31  1  0  0  0
 14 15  2  0  0  0
 14 95  1  0  0  0
 15 96  1  0  0  0
 16 17  2  0  0  0
 16 21  1  0  0  0
 16 31  1  0  0  0
 17 18  1  0  0  0
 17 97  1  0  0  0
 18 19  2  0  0  0
 18 98  1  0  0  0
 19 20  1  0  0  0
 19 24  1  0  0  0
 20 21  2  0  0  0
 20 99  1  0  0  0
 21 23  1  0  0  0
 22 28  1  0  0  0
 22 32  2  0  0  0
 26 27  1  0  0  0
 28100  1  0  0  0
 28101  1  0  0  0
 29102  1  0  0  0
 29103  1  0  0  0
 33 34  1  0  0  0
 33 66  1  0  0  0
 33 70  2  0  0  0
 34 36  1  0  0  0
 34 59  1  0  0  0
 34104  1  0  0  0
 35 44  2  0  0  0
 35 45  1  0  0  0
 35 68  1  0  0  0
 36 56  1  0  0  0
 36105  1  0  0  0
 37 39  1  0  0  0
 37 47  1  0  0  0
 37 66  1  0  0  0
 37106  1  0  0  0
 38 43  2  0  0  0
 38 46  1  0  0  0
 38 47  1  0  0  0
 39 64  1  0  0  0
 39 67  2  0  0  0
 40 52  1  0  0  0
 40 53  2  0  0  0
 40 58  1  0  0  0
 41107  1  0  0  0
 41108  1  0  0  0
 41109  1  0  0  0
 41 48  1  0  0  0
 42 43  1  0  0  0
 42 66  1  0  0  0
 42110  1  0  0  0
 42111  1  0  0  0
 43 44  1  0  0  0
 44112  1  0  0  0
 45 46  2  0  0  0
 45113  1  0  0  0
 46114  1  0  0  0
 47115  1  0  0  0
 47116  1  0  0  0
 48 56  1  0  0  0
 48 65  1  0  0  0
 48117  1  0  0  0
 49 50  1  0  0  0
 49 53  1  0  0  0
 49 64  1  0  0  0
 49118  1  0  0  0
 50 51  1  0  0  0
 50119  1  0  0  0
 50120  1  0  0  0
 51 52  1  0  0  0
 51121  1  0  0  0
 51122  1  0  0  0
 52123  1  0  0  0
 52124  1  0  0  0
 53 54  1  0  0  0
 54 55  2  0  0  0
 54125  1  0  0  0
 55 57  1  0  0  0
 55126  1  0  0  0
 56 69  2  0  0  0
 57 58  2  0  0  0
 57127  1  0  0  0
 58128  1  0  0  0
 59 60  1  0  0  0
 59 61  1  0  0  0
 59 62  1  0  0  0
 60129  1  0  0  0
 60130  1  0  0  0
 60131  1  0  0  0
 61132  1  0  0  0
 61133  1  0  0  0
 61134  1  0  0  0
 62135  1  0  0  0
 62136  1  0  0  0
 62137  1  0  0  0
 63 65  1  0  0  0
 63138  1  0  0  0
 63139  1  0  0  0
 63140  1  0  0  0
 64141  1  0  0  0
 65142  1  0  0  0
 68 79  1  0  0  0
 71 75  1  0  0  0
 71 80  2  0  0  0
 71 82  1  0  0  0
 72 76  1  0  0  0
 72 81  2  0  0  0
 72 82  1  0  0  0
 73 78  1  0  0  0
 73143  1  0  0  0
 73144  1  0  0  0
 73145  1  0  0  0
 74 83  1  0  0  0
 74146  1  0  0  0
 74147  1  0  0  0
 74148  1  0  0  0
 75 77  1  0  0  0
 75149  1  0  0  0
 75150  1  0  0  0
 76 83  1  0  0  0
 76151  1  0  0  0
 76152  1  0  0  0
 77 79  1  0  0  0
 77153  1  0  0  0
 77154  1  0  0  0
 78 82  1  0  0  0
 78155  1  0  0  0
 78156  1  0  0  0
 79157  1  0  0  0
 79158  1  0  0  0
 80 81  1  0  0  0
M  ISO  4   1 100  68 101  79 101  83 100
M  END
> <chiral flag>
0

> <version>
0

> <s_m_source_file>
/data/baiqing/PycharmProjects/Reinvent-master-3.2/result/LINK_invent/BTK/process_docking_weight1_custom_sum_contain_oxygen_bond_distance_aromatic_linkinvent_7_9_3/rearranged_h_0060.sdf

> <i_m_source_file_index>
68

> <r_mmod_Potential_Energy-OPLS-2005>
238.849380493164

> <r_mmod_Stretch_Energy-OPLS-2005>
133.893157958984

> <r_mmod_Bend_Energy-OPLS-2005>
199.715744018555

> <r_mmod_Torsional_Energy-OPLS-2005>
279.652099609375

> <r_mmod_Improper_Torsional_Energy-OPLS-2005>
10.0302476882935

> <r_mmod_Van_der_Waal_Energy-OPLS-2005>
118.815055847168

> <r_mmod_Electrostatic_Energy-OPLS-2005>
-349.990234375

> <r_mmod_Solvation_Energy-OPLS-2005>
-238.703475952148

> <b_mmod_Minimization_Converged-OPLS-2005>
0

> <r_mmod_RMS_Derivative-OPLS-2005>
2.60265493392944

$$$$
72
                    3D
 Structure written by MMmdl.
151159  0  0  1  0            999 V2000
  -30.5545  -14.9998   20.3811 C   0  0  0  0  0  0
  -30.4343  -12.6197   19.4941 C   0  0  0  0  0  0
  -29.5196  -12.5324   18.2520 C   0  0  0  0  0  0
  -28.0520  -12.3171   18.6675 C   0  0  0  0  0  0
  -27.6254  -13.2535   19.8280 C   0  0  2  0  0  0
  -28.6728  -13.3242   20.9602 C   0  0  0  0  0  0
  -25.2466  -13.8206   20.5697 C   0  0  0  0  0  0
  -24.1781  -13.0428   20.9209 C   0  0  0  0  0  0
  -24.6381  -11.6920   20.8692 C   0  0  0  0  0  0
  -23.9060  -10.4291   21.0381 C   0  0  0  0  0  0
  -24.3615   -9.4218   21.9169 C   0  0  0  0  0  0
  -23.6331   -8.2227   22.0748 C   0  0  0  0  0  0
  -22.4300   -8.0251   21.3549 C   0  0  0  0  0  0
  -21.9911   -9.0202   20.4624 C   0  0  0  0  0  0
  -22.7219  -10.2115   20.3048 C   0  0  0  0  0  0
  -21.6855   -6.0715   22.5272 C   0  0  0  0  0  0
  -21.4004   -6.5635   23.8197 C   0  0  0  0  0  0
  -21.3660   -5.6795   24.9168 C   0  0  0  0  0  0
  -21.6054   -4.3064   24.7235 C   0  0  0  0  0  0
  -21.8825   -3.8150   23.4361 C   0  0  0  0  0  0
  -21.9206   -4.6949   22.3408 C   0  0  0  0  0  0
  -22.7794  -13.5204   21.1871 C   0  0  0  0  0  0
  -22.1685   -4.2131   21.0991 F   0  0  0  0  0  0
  -21.5641   -3.4553   25.7748 F   0  0  0  0  0  0
  -29.9430  -13.7403   20.3486 N   0  0  0  0  0  0
  -26.2874  -12.9449   20.3194 N   0  0  0  0  0  0
  -25.9308  -11.6568   20.5613 N   0  0  0  0  0  0
  -22.0491  -12.8138   22.0417 N   0  0  0  0  0  0
  -25.4205  -15.1919   20.4137 N   0  0  0  0  0  0
  -31.7621  -15.0332   20.1231 O   0  0  0  0  0  0
  -21.6673   -6.8850   21.4218 O   0  0  0  0  0  0
  -22.3465  -14.5500   20.6745 O   0  0  0  0  0  0
  -24.6494  -31.8401   23.1823 C   0  0  0  0  0  0
  -25.9241  -32.4660   23.8242 C   0  0  1  0  0  0
  -27.2273  -27.0822   20.1501 C   0  0  0  0  0  0
  -25.5951  -33.8475   24.2139 N   0  0  0  0  0  0
  -23.4572  -30.4561   21.5309 C   0  0  2  0  0  0
  -24.9091  -28.8714   20.1172 C   0  0  0  0  0  0
  -22.7595  -29.4550   22.4872 C   0  0  0  0  0  0
  -18.0300  -28.1379   22.8480 C   0  0  0  0  0  0
  -24.1505  -36.7261   23.2649 C   0  0  0  0  0  0
  -26.0184  -30.6945   21.3889 C   0  0  0  0  0  0
  -26.0922  -29.2995   20.7330 C   0  0  0  0  0  0
  -27.2513  -28.4239   20.7304 C   0  0  0  0  0  0
  -26.0121  -26.7706   19.5011 C   0  0  0  0  0  0
  -24.8847  -27.6206   19.4865 C   0  0  0  0  0  0
  -23.6860  -29.7751   20.1560 C   0  0  0  0  0  0
  -25.4128  -36.3023   24.0315 C   0  0  1  0  0  0
  -20.5919  -28.3722   23.1217 C   0  0  2  0  0  0
  -20.6776  -26.9418   22.5393 C   0  0  0  0  0  0
  -19.5753  -26.6364   21.5202 C   0  0  0  0  0  0
  -18.1936  -26.7915   22.1624 C   0  0  0  0  0  0
  -19.1560  -28.8869   23.2830 C   0  0  0  0  0  0
  -18.9471  -30.1450   23.8875 C   0  0  0  0  0  0
  -17.6471  -30.6575   24.0554 C   0  0  0  0  0  0
  -25.9078  -34.9399   23.5043 C   0  0  0  0  0  0
  -16.5361  -29.9062   23.6332 C   0  0  0  0  0  0
  -16.7291  -28.6475   23.0373 C   0  0  0  0  0  0
  -26.4519  -31.6567   25.0727 C   0  0  0  0  0  0
  -25.3665  -31.3781   26.1398 C   0  0  0  0  0  0
  -27.0378  -30.2945   24.6370 C   0  0  0  0  0  0
  -27.6057  -32.4334   25.7505 C   0  0  0  0  0  0
  -27.5571  -37.1774   24.8458 C   0  0  0  0  0  0
  -21.4285  -29.3048   22.3603 N   0  0  0  0  0  0
  -26.4285  -37.3736   23.9405 N   0  0  0  0  0  0
  -24.7289  -31.0191   22.0893 N   0  0  0  0  0  0
  -23.4211  -28.8102   23.3052 O   0  0  0  0  0  0
  -28.2706  -26.0633   20.1917 O   0  0  0  0  0  0
  -26.5693  -34.8926   22.4645 O   0  0  0  0  0  0
  -23.5591  -32.1333   23.6973 O   0  0  0  0  0  0
  -30.8141  -21.1131   19.7659 C   0  0  0  0  0  0
  -31.1306  -22.4771   19.5841 C   0  0  0  0  0  0
  -29.5233  -20.7423   20.1659 C   0  0  0  0  0  0
  -28.9883  -23.2038   20.1119 C   0  0  0  0  0  0
  -32.5282  -22.8966   19.1720 C   0  0  0  0  0  0
  -29.1652  -19.1248   20.4085 C   0  0  0  0  0  0
  -27.9431  -24.5103   20.1547 C   0  0  0  0  0  0
  -30.1990  -17.7640   20.2546 C   0  0  0  0  0  0
  -30.2398  -23.4835   19.7545 N   0  0  0  0  0  0
  -28.6305  -21.8500   20.3186 N   0  0  0  0  0  0
  -29.8133  -16.2223   20.4763 N   0  0  0  0  0  0
  -31.4666  -12.7670   19.1780 H   0  0  0  0  0  0
  -30.4273  -11.6807   20.0486 H   0  0  0  0  0  0
  -29.8505  -11.7281   17.5909 H   0  0  0  0  0  0
  -29.6031  -13.4517   17.6714 H   0  0  0  0  0  0
  -27.9429  -11.2744   18.9690 H   0  0  0  0  0  0
  -27.3908  -12.4572   17.8098 H   0  0  0  0  0  0
  -27.5786  -14.2482   19.3850 H   0  0  0  0  0  0
  -28.7727  -12.3636   21.4689 H   0  0  0  0  0  0
  -28.3694  -14.0465   21.7179 H   0  0  0  0  0  0
  -25.2751   -9.5719   22.4737 H   0  0  0  0  0  0
  -24.0066   -7.4617   22.7447 H   0  0  0  0  0  0
  -21.0858   -8.8675   19.8897 H   0  0  0  0  0  0
  -22.3642  -10.9644   19.6161 H   0  0  0  0  0  0
  -21.1973   -7.6152   23.9676 H   0  0  0  0  0  0
  -21.1491   -6.0547   25.9056 H   0  0  0  0  0  0
  -22.0609   -2.7613   23.2870 H   0  0  0  0  0  0
  -22.4232  -11.9862   22.4827 H   0  0  0  0  0  0
  -21.1056  -13.1028   22.2571 H   0  0  0  0  0  0
  -24.6664  -15.8586   20.5305 H   0  0  0  0  0  0
  -26.2604  -15.6115   20.0375 H   0  0  0  0  0  0
  -26.7328  -32.5237   23.0990 H   0  0  0  0  0  0
  -25.0028  -33.9592   25.0231 H   0  0  0  0  0  0
  -22.7621  -31.2820   21.3644 H   0  0  0  0  0  0
  -23.3771  -35.9580   23.3288 H   0  0  0  0  0  0
  -24.3595  -36.8929   22.2066 H   0  0  0  0  0  0
  -23.7267  -37.6458   23.6704 H   0  0  0  0  0  0
  -26.1758  -31.4424   20.6100 H   0  0  0  0  0  0
  -26.8884  -30.7524   22.0325 H   0  0  0  0  0  0
  -28.1514  -28.7499   21.2333 H   0  0  0  0  0  0
  -25.8867  -25.8223   19.0030 H   0  0  0  0  0  0
  -23.9837  -27.2830   18.9934 H   0  0  0  0  0  0
  -23.8190  -30.5413   19.3916 H   0  0  0  0  0  0
  -22.8003  -29.2122   19.8539 H   0  0  0  0  0  0
  -25.1307  -36.1853   25.0798 H   0  0  0  0  0  0
  -20.9996  -28.3322   24.1348 H   0  0  0  0  0  0
  -20.5640  -26.2348   23.3625 H   0  0  0  0  0  0
  -21.6641  -26.7398   22.1212 H   0  0  0  0  0  0
  -19.6921  -25.6265   21.1248 H   0  0  0  0  0  0
  -19.6677  -27.3163   20.6723 H   0  0  0  0  0  0
  -17.4191  -26.6663   21.4037 H   0  0  0  0  0  0
  -18.0345  -26.0039   22.9005 H   0  0  0  0  0  0
  -19.7943  -30.7250   24.2268 H   0  0  0  0  0  0
  -17.5026  -31.6279   24.5123 H   0  0  0  0  0  0
  -15.5358  -30.2959   23.7663 H   0  0  0  0  0  0
  -15.8696  -28.0778   22.7122 H   0  0  0  0  0  0
  -24.5860  -30.7120   25.7711 H   0  0  0  0  0  0
  -24.8827  -32.2959   26.4745 H   0  0  0  0  0  0
  -25.7904  -30.9006   27.0239 H   0  0  0  0  0  0
  -26.3011  -29.6662   24.1357 H   0  0  0  0  0  0
  -27.3930  -29.7271   25.4986 H   0  0  0  0  0  0
  -27.8944  -30.4163   23.9742 H   0  0  0  0  0  0
  -27.2676  -33.3671   26.2017 H   0  0  0  0  0  0
  -28.3891  -32.6840   25.0337 H   0  0  0  0  0  0
  -28.0705  -31.8505   26.5472 H   0  0  0  0  0  0
  -28.2560  -38.0097   24.7502 H   0  0  0  0  0  0
  -28.1092  -36.2621   24.6258 H   0  0  0  0  0  0
  -27.2297  -37.1394   25.8866 H   0  0  0  0  0  0
  -20.9521  -29.8768   21.6773 H   0  0  0  0  0  0
  -26.0159  -38.2808   24.1388 H   0  0  0  0  0  0
  -31.5663  -20.3522   19.6028 H   0  0  0  0  0  0
  -32.9588  -23.5596   19.9201 H   0  0  0  0  0  0
  -32.5033  -23.4204   18.2152 H   0  0  0  0  0  0
  -33.1942  -22.0389   19.0678 H   0  0  0  0  0  0
  -28.3030  -18.9302   19.7720 H   0  0  0  0  0  0
  -28.7759  -19.0875   21.4243 H   0  0  0  0  0  0
  -27.2728  -24.3174   20.9933 H   0  0  0  0  0  0
  -27.3463  -24.3411   19.2607 H   0  0  0  0  0  0
  -31.0533  -17.9436   20.9089 H   0  0  0  0  0  0
  -30.6223  -17.8068   19.2503 H   0  0  0  0  0  0
  -28.8317  -16.0709   20.6581 H   0  0  0  0  0  0
  1 25  1  0  0  0
  1 30  2  0  0  0
  1 81  1  0  0  0
  2  3  1  0  0  0
  2 25  1  0  0  0
  2 82  1  0  0  0
  2 83  1  0  0  0
  3  4  1  0  0  0
  3 84  1  0  0  0
  3 85  1  0  0  0
  4  5  1  0  0  0
  4 86  1  0  0  0
  4 87  1  0  0  0
  5  6  1  0  0  0
  5 26  1  0  0  0
  5 88  1  0  0  0
  6 25  1  0  0  0
  6 89  1  0  0  0
  6 90  1  0  0  0
  7  8  2  0  0  0
  7 26  1  0  0  0
  7 29  1  0  0  0
  8  9  1  0  0  0
  8 22  1  0  0  0
  9 10  1  0  0  0
  9 27  2  0  0  0
 10 11  2  0  0  0
 10 15  1  0  0  0
 11 12  1  0  0  0
 11 91  1  0  0  0
 12 13  2  0  0  0
 12 92  1  0  0  0
 13 14  1  0  0  0
 13 31  1  0  0  0
 14 15  2  0  0  0
 14 93  1  0  0  0
 15 94  1  0  0  0
 16 17  2  0  0  0
 16 21  1  0  0  0
 16 31  1  0  0  0
 17 18  1  0  0  0
 17 95  1  0  0  0
 18 19  2  0  0  0
 18 96  1  0  0  0
 19 20  1  0  0  0
 19 24  1  0  0  0
 20 21  2  0  0  0
 20 97  1  0  0  0
 21 23  1  0  0  0
 22 28  1  0  0  0
 22 32  2  0  0  0
 26 27  1  0  0  0
 28 98  1  0  0  0
 28 99  1  0  0  0
 29100  1  0  0  0
 29101  1  0  0  0
 33 34  1  0  0  0
 33 66  1  0  0  0
 33 70  2  0  0  0
 34 36  1  0  0  0
 34 59  1  0  0  0
 34102  1  0  0  0
 35 44  2  0  0  0
 35 45  1  0  0  0
 35 68  1  0  0  0
 36 56  1  0  0  0
 36103  1  0  0  0
 37 39  1  0  0  0
 37 47  1  0  0  0
 37 66  1  0  0  0
 37104  1  0  0  0
 38 43  2  0  0  0
 38 46  1  0  0  0
 38 47  1  0  0  0
 39 64  1  0  0  0
 39 67  2  0  0  0
 40 52  1  0  0  0
 40 53  2  0  0  0
 40 58  1  0  0  0
 41105  1  0  0  0
 41106  1  0  0  0
 41107  1  0  0  0
 41 48  1  0  0  0
 42 43  1  0  0  0
 42 66  1  0  0  0
 42108  1  0  0  0
 42109  1  0  0  0
 43 44  1  0  0  0
 44110  1  0  0  0
 45 46  2  0  0  0
 45111  1  0  0  0
 46112  1  0  0  0
 47113  1  0  0  0
 47114  1  0  0  0
 48 56  1  0  0  0
 48 65  1  0  0  0
 48115  1  0  0  0
 49 50  1  0  0  0
 49 53  1  0  0  0
 49 64  1  0  0  0
 49116  1  0  0  0
 50 51  1  0  0  0
 50117  1  0  0  0
 50118  1  0  0  0
 51 52  1  0  0  0
 51119  1  0  0  0
 51120  1  0  0  0
 52121  1  0  0  0
 52122  1  0  0  0
 53 54  1  0  0  0
 54 55  2  0  0  0
 54123  1  0  0  0
 55 57  1  0  0  0
 55124  1  0  0  0
 56 69  2  0  0  0
 57 58  2  0  0  0
 57125  1  0  0  0
 58126  1  0  0  0
 59 60  1  0  0  0
 59 61  1  0  0  0
 59 62  1  0  0  0
 60127  1  0  0  0
 60128  1  0  0  0
 60129  1  0  0  0
 61130  1  0  0  0
 61131  1  0  0  0
 61132  1  0  0  0
 62133  1  0  0  0
 62134  1  0  0  0
 62135  1  0  0  0
 63 65  1  0  0  0
 63136  1  0  0  0
 63137  1  0  0  0
 63138  1  0  0  0
 64139  1  0  0  0
 65140  1  0  0  0
 68 77  1  0  0  0
 71 72  2  0  0  0
 71 73  1  0  0  0
 71141  1  0  0  0
 72 75  1  0  0  0
 72 79  1  0  0  0
 73 76  1  0  0  0
 73 80  2  0  0  0
 74 77  1  0  0  0
 74 79  2  0  0  0
 74 80  1  0  0  0
 75142  1  0  0  0
 75143  1  0  0  0
 75144  1  0  0  0
 76 78  1  0  0  0
 76145  1  0  0  0
 76146  1  0  0  0
 77147  1  0  0  0
 77148  1  0  0  0
 78 81  1  0  0  0
 78149  1  0  0  0
 78150  1  0  0  0
 81151  1  0  0  0
M  ISO  4   1 100  68 101  77 101  81 100
M  END
> <chiral flag>
0

> <version>
0

> <s_m_source_file>
/data/baiqing/PycharmProjects/Reinvent-master-3.2/result/LINK_invent/BTK/process_docking_weight1_custom_sum_contain_oxygen_bond_distance_aromatic_linkinvent_7_9_3/rearranged_h_0060.sdf

> <i_m_source_file_index>
69

> <r_mmod_Potential_Energy-OPLS-2005>
225.102691650391

> <r_mmod_Stretch_Energy-OPLS-2005>
315.309051513672

> <r_mmod_Bend_Energy-OPLS-2005>
278.966522216797

> <r_mmod_Torsional_Energy-OPLS-2005>
203.425994873047

> <r_mmod_Improper_Torsional_Energy-OPLS-2005>
5.08926010131836

> <r_mmod_Van_der_Waal_Energy-OPLS-2005>
134.150756835938

> <r_mmod_Electrostatic_Energy-OPLS-2005>
-691.677551269531

> <r_mmod_Solvation_Energy-OPLS-2005>
-255.699615478516

> <b_mmod_Minimization_Converged-OPLS-2005>
0

> <r_mmod_RMS_Derivative-OPLS-2005>
3.67466330528259

$$$$
73
                    3D
 Structure written by MMmdl.
155163  0  0  1  0            999 V2000
  -30.5129  -15.0257   20.4640 C   0  0  0  0  0  0
  -30.4289  -12.6383   19.5336 C   0  0  0  0  0  0
  -29.5252  -12.5520   18.2778 C   0  0  0  0  0  0
  -28.0623  -12.3031   18.6934 C   0  0  0  0  0  0
  -27.6257  -13.2438   19.8433 C   0  0  2  0  0  0
  -28.6565  -13.2487   20.9879 C   0  0  0  0  0  0
  -25.2416  -13.8215   20.5692 C   0  0  0  0  0  0
  -24.1743  -13.0439   20.9245 C   0  0  0  0  0  0
  -24.6360  -11.6923   20.8750 C   0  0  0  0  0  0
  -23.9028  -10.4302   21.0402 C   0  0  0  0  0  0
  -24.3585   -9.4220   21.9191 C   0  0  0  0  0  0
  -23.6293   -8.2244   22.0743 C   0  0  0  0  0  0
  -22.4273   -8.0269   21.3528 C   0  0  0  0  0  0
  -21.9888   -9.0234   20.4629 C   0  0  0  0  0  0
  -22.7188  -10.2133   20.3057 C   0  0  0  0  0  0
  -21.6865   -6.0719   22.5269 C   0  0  0  0  0  0
  -21.3989   -6.5617   23.8194 C   0  0  0  0  0  0
  -21.3643   -5.6779   24.9152 C   0  0  0  0  0  0
  -21.6066   -4.3049   24.7226 C   0  0  0  0  0  0
  -21.8831   -3.8131   23.4350 C   0  0  0  0  0  0
  -21.9212   -4.6949   22.3394 C   0  0  0  0  0  0
  -22.7748  -13.5205   21.1921 C   0  0  0  0  0  0
  -22.1675   -4.2123   21.0988 F   0  0  0  0  0  0
  -21.5656   -3.4542   25.7753 F   0  0  0  0  0  0
  -29.9252  -13.7432   20.4245 N   0  0  0  0  0  0
  -26.2827  -12.9444   20.3232 N   0  0  0  0  0  0
  -25.9278  -11.6573   20.5715 N   0  0  0  0  0  0
  -22.0393  -12.8180   22.0454 N   0  0  0  0  0  0
  -25.4031  -15.1936   20.4099 N   0  0  0  0  0  0
  -31.6671  -15.0313   20.0062 O   0  0  0  0  0  0
  -21.6645   -6.8849   21.4233 O   0  0  0  0  0  0
  -22.3441  -14.5515   20.6771 O   0  0  0  0  0  0
  -24.6438  -31.8392   23.1787 C   0  0  0  0  0  0
  -25.9222  -32.4641   23.8166 C   0  0  1  0  0  0
  -27.1892  -27.0782   20.1483 C   0  0  0  0  0  0
  -25.5964  -33.8443   24.2046 N   0  0  0  0  0  0
  -23.4456  -30.4568   21.5288 C   0  0  2  0  0  0
  -24.8901  -28.8769   20.1034 C   0  0  0  0  0  0
  -22.7523  -29.4544   22.4826 C   0  0  0  0  0  0
  -18.0333  -28.1356   22.8476 C   0  0  0  0  0  0
  -24.1531  -36.7288   23.2636 C   0  0  0  0  0  0
  -26.0026  -30.6911   21.3876 C   0  0  0  0  0  0
  -26.0707  -29.2985   20.7282 C   0  0  0  0  0  0
  -27.2219  -28.4169   20.7351 C   0  0  0  0  0  0
  -25.9939  -26.7822   19.4645 C   0  0  0  0  0  0
  -24.8686  -27.6370   19.4496 C   0  0  0  0  0  0
  -23.6649  -29.7801   20.1508 C   0  0  0  0  0  0
  -25.4151  -36.2948   24.0254 C   0  0  1  0  0  0
  -20.5930  -28.3725   23.1191 C   0  0  2  0  0  0
  -20.6808  -26.9423   22.5363 C   0  0  0  0  0  0
  -19.5780  -26.6354   21.5173 C   0  0  0  0  0  0
  -18.1982  -26.7900   22.1601 C   0  0  0  0  0  0
  -19.1572  -28.8854   23.2822 C   0  0  0  0  0  0
  -18.9486  -30.1443   23.8857 C   0  0  0  0  0  0
  -17.6472  -30.6564   24.0544 C   0  0  0  0  0  0
  -25.9089  -34.9368   23.4940 C   0  0  0  0  0  0
  -16.5368  -29.9023   23.6368 C   0  0  0  0  0  0
  -16.7299  -28.6419   23.0418 C   0  0  0  0  0  0
  -26.4546  -31.6547   25.0627 C   0  0  0  0  0  0
  -25.3719  -31.3804   26.1305 C   0  0  0  0  0  0
  -27.0397  -30.2892   24.6290 C   0  0  0  0  0  0
  -27.5995  -32.4358   25.7458 C   0  0  0  0  0  0
  -27.5567  -37.1781   24.8432 C   0  0  0  0  0  0
  -21.4216  -29.3057   22.3538 N   0  0  0  0  0  0
  -26.4298  -37.3656   23.9344 N   0  0  0  0  0  0
  -24.7178  -31.0187   22.0849 N   0  0  0  0  0  0
  -23.4138  -28.8143   23.3042 O   0  0  0  0  0  0
  -28.2154  -26.0480   20.1722 O   0  0  0  0  0  0
  -26.5682  -34.8887   22.4520 O   0  0  0  0  0  0
  -23.5570  -32.1292   23.7015 O   0  0  0  0  0  0
  -27.9241  -19.8464   19.0073 C   0  0  0  0  0  0
  -28.7577  -20.2857   20.0792 C   0  0  0  0  0  0
  -29.4389  -17.8672   20.2333 C   0  0  0  0  0  0
  -28.8585  -16.2767   22.1394 C   0  0  0  0  0  0
  -31.1828  -17.0282   21.9050 C   0  0  0  0  0  0
  -27.9175  -24.5152   20.4593 C   0  0  0  0  0  0
  -28.6695  -23.0699   19.9039 C   0  0  0  0  0  0
  -26.8435  -20.7078   18.3355 C   0  0  0  0  0  0
  -29.9613  -16.5252   21.0941 C   0  0  0  0  0  0
  -27.9639  -18.5486   18.5685 N   0  0  0  0  0  0
  -29.4690  -19.2095   20.7060 N   0  0  0  0  0  0
  -28.6906  -17.5823   19.1596 N   0  0  0  0  0  0
  -28.7825  -21.6706   20.6215 O   0  0  0  0  0  0
  -25.8443  -19.9401   17.8863 F   0  0  0  0  0  0
  -26.2923  -21.5668   19.1975 F   0  0  0  0  0  0
  -27.3410  -21.3855   17.2973 F   0  0  0  0  0  0
  -31.4678  -12.7791   19.2326 H   0  0  0  0  0  0
  -30.4195  -11.6852   20.0632 H   0  0  0  0  0  0
  -29.8668  -11.7582   17.6134 H   0  0  0  0  0  0
  -29.5923  -13.4827   17.7108 H   0  0  0  0  0  0
  -27.9940  -11.2677   19.0316 H   0  0  0  0  0  0
  -27.3924  -12.3886   17.8381 H   0  0  0  0  0  0
  -27.5918  -14.2456   19.4184 H   0  0  0  0  0  0
  -28.7689  -12.2441   21.4002 H   0  0  0  0  0  0
  -28.2916  -13.8308   21.8270 H   0  0  0  0  0  0
  -25.2704   -9.5761   22.4761 H   0  0  0  0  0  0
  -24.0014   -7.4666   22.7456 H   0  0  0  0  0  0
  -21.0817   -8.8747   19.8931 H   0  0  0  0  0  0
  -22.3612  -10.9688   19.6180 H   0  0  0  0  0  0
  -21.1916   -7.6118   23.9684 H   0  0  0  0  0  0
  -21.1449   -6.0503   25.9062 H   0  0  0  0  0  0
  -22.0620   -2.7599   23.2872 H   0  0  0  0  0  0
  -22.3980  -11.9867   22.4905 H   0  0  0  0  0  0
  -21.0991  -13.1203   22.2583 H   0  0  0  0  0  0
  -24.6108  -15.8225   20.4682 H   0  0  0  0  0  0
  -26.2405  -15.6511   20.0722 H   0  0  0  0  0  0
  -26.7240  -32.5177   23.0837 H   0  0  0  0  0  0
  -25.0054  -33.9607   25.0138 H   0  0  0  0  0  0
  -22.7488  -31.2816   21.3690 H   0  0  0  0  0  0
  -23.3721  -35.9694   23.3256 H   0  0  0  0  0  0
  -24.3631  -36.8996   22.2066 H   0  0  0  0  0  0
  -23.7408  -37.6504   23.6748 H   0  0  0  0  0  0
  -26.1679  -31.4471   20.6182 H   0  0  0  0  0  0
  -26.8692  -30.7299   22.0368 H   0  0  0  0  0  0
  -28.1153  -28.7473   21.2437 H   0  0  0  0  0  0
  -25.9077  -25.8457   18.9322 H   0  0  0  0  0  0
  -23.9711  -27.3198   18.9344 H   0  0  0  0  0  0
  -23.7715  -30.5464   19.3827 H   0  0  0  0  0  0
  -22.7836  -29.2042   19.8632 H   0  0  0  0  0  0
  -25.1357  -36.1729   25.0744 H   0  0  0  0  0  0
  -21.0028  -28.3332   24.1301 H   0  0  0  0  0  0
  -20.5725  -26.2326   23.3594 H   0  0  0  0  0  0
  -21.6677  -26.7429   22.1168 H   0  0  0  0  0  0
  -19.6966  -25.6260   21.1202 H   0  0  0  0  0  0
  -19.6727  -27.3144   20.6699 H   0  0  0  0  0  0
  -17.4244  -26.6653   21.3986 H   0  0  0  0  0  0
  -18.0394  -26.0025   22.8987 H   0  0  0  0  0  0
  -19.7963  -30.7271   24.2190 H   0  0  0  0  0  0
  -17.5046  -31.6293   24.5073 H   0  0  0  0  0  0
  -15.5355  -30.2914   23.7736 H   0  0  0  0  0  0
  -15.8707  -28.0700   22.7212 H   0  0  0  0  0  0
  -24.5885  -30.7172   25.7593 H   0  0  0  0  0  0
  -24.8981  -32.3058   26.4591 H   0  0  0  0  0  0
  -25.7999  -30.9029   27.0134 H   0  0  0  0  0  0
  -26.3028  -29.6634   24.1228 H   0  0  0  0  0  0
  -27.3843  -29.7164   25.4918 H   0  0  0  0  0  0
  -27.9004  -30.3999   23.9687 H   0  0  0  0  0  0
  -27.2444  -33.3630   26.1963 H   0  0  0  0  0  0
  -28.3859  -32.6997   25.0371 H   0  0  0  0  0  0
  -28.0616  -31.8587   26.5496 H   0  0  0  0  0  0
  -28.2490  -38.0143   24.7392 H   0  0  0  0  0  0
  -28.1142  -36.2644   24.6308 H   0  0  0  0  0  0
  -27.2291  -37.1456   25.8839 H   0  0  0  0  0  0
  -20.9391  -29.8636   21.6605 H   0  0  0  0  0  0
  -26.0144  -38.2710   24.1285 H   0  0  0  0  0  0
  -29.1545  -15.5091   22.8516 H   0  0  0  0  0  0
  -27.9128  -16.0065   21.6745 H   0  0  0  0  0  0
  -28.6591  -17.1762   22.7260 H   0  0  0  0  0  0
  -31.9507  -17.4429   21.2545 H   0  0  0  0  0  0
  -30.9047  -17.8180   22.6059 H   0  0  0  0  0  0
  -31.6462  -16.2312   22.4891 H   0  0  0  0  0  0
  -28.0194  -24.4647   21.5453 H   0  0  0  0  0  0
  -26.8503  -24.3482   20.3085 H   0  0  0  0  0  0
  -28.3240  -22.9029   18.8881 H   0  0  0  0  0  0
  -29.7130  -23.3491   19.7568 H   0  0  0  0  0  0
  1 25  1  0  0  0
  1 30  2  0  0  0
  1 79  1  0  0  0
  2  3  1  0  0  0
  2 25  1  0  0  0
  2 87  1  0  0  0
  2 88  1  0  0  0
  3  4  1  0  0  0
  3 89  1  0  0  0
  3 90  1  0  0  0
  4  5  1  0  0  0
  4 91  1  0  0  0
  4 92  1  0  0  0
  5  6  1  0  0  0
  5 26  1  0  0  0
  5 93  1  0  0  0
  6 25  1  0  0  0
  6 94  1  0  0  0
  6 95  1  0  0  0
  7  8  2  0  0  0
  7 26  1  0  0  0
  7 29  1  0  0  0
  8  9  1  0  0  0
  8 22  1  0  0  0
  9 10  1  0  0  0
  9 27  2  0  0  0
 10 11  2  0  0  0
 10 15  1  0  0  0
 11 12  1  0  0  0
 11 96  1  0  0  0
 12 13  2  0  0  0
 12 97  1  0  0  0
 13 14  1  0  0  0
 13 31  1  0  0  0
 14 15  2  0  0  0
 14 98  1  0  0  0
 15 99  1  0  0  0
 16 17  2  0  0  0
 16 21  1  0  0  0
 16 31  1  0  0  0
 17 18  1  0  0  0
 17100  1  0  0  0
 18 19  2  0  0  0
 18101  1  0  0  0
 19 20  1  0  0  0
 19 24  1  0  0  0
 20 21  2  0  0  0
 20102  1  0  0  0
 21 23  1  0  0  0
 22 28  1  0  0  0
 22 32  2  0  0  0
 26 27  1  0  0  0
 28103  1  0  0  0
 28104  1  0  0  0
 29105  1  0  0  0
 29106  1  0  0  0
 33 34  1  0  0  0
 33 66  1  0  0  0
 33 70  2  0  0  0
 34 36  1  0  0  0
 34 59  1  0  0  0
 34107  1  0  0  0
 35 44  2  0  0  0
 35 45  1  0  0  0
 35 68  1  0  0  0
 36 56  1  0  0  0
 36108  1  0  0  0
 37 39  1  0  0  0
 37 47  1  0  0  0
 37 66  1  0  0  0
 37109  1  0  0  0
 38 43  2  0  0  0
 38 46  1  0  0  0
 38 47  1  0  0  0
 39 64  1  0  0  0
 39 67  2  0  0  0
 40 52  1  0  0  0
 40 53  2  0  0  0
 40 58  1  0  0  0
 41110  1  0  0  0
 41111  1  0  0  0
 41112  1  0  0  0
 41 48  1  0  0  0
 42 43  1  0  0  0
 42 66  1  0  0  0
 42113  1  0  0  0
 42114  1  0  0  0
 43 44  1  0  0  0
 44115  1  0  0  0
 45 46  2  0  0  0
 45116  1  0  0  0
 46117  1  0  0  0
 47118  1  0  0  0
 47119  1  0  0  0
 48 56  1  0  0  0
 48 65  1  0  0  0
 48120  1  0  0  0
 49 50  1  0  0  0
 49 53  1  0  0  0
 49 64  1  0  0  0
 49121  1  0  0  0
 50 51  1  0  0  0
 50122  1  0  0  0
 50123  1  0  0  0
 51 52  1  0  0  0
 51124  1  0  0  0
 51125  1  0  0  0
 52126  1  0  0  0
 52127  1  0  0  0
 53 54  1  0  0  0
 54 55  2  0  0  0
 54128  1  0  0  0
 55 57  1  0  0  0
 55129  1  0  0  0
 56 69  2  0  0  0
 57 58  2  0  0  0
 57130  1  0  0  0
 58131  1  0  0  0
 59 60  1  0  0  0
 59 61  1  0  0  0
 59 62  1  0  0  0
 60132  1  0  0  0
 60133  1  0  0  0
 60134  1  0  0  0
 61135  1  0  0  0
 61136  1  0  0  0
 61137  1  0  0  0
 62138  1  0  0  0
 62139  1  0  0  0
 62140  1  0  0  0
 63 65  1  0  0  0
 63141  1  0  0  0
 63142  1  0  0  0
 63143  1  0  0  0
 64144  1  0  0  0
 65145  1  0  0  0
 68 76  1  0  0  0
 71 72  2  0  0  0
 71 78  1  0  0  0
 71 80  1  0  0  0
 72 81  1  0  0  0
 72 83  1  0  0  0
 73 79  1  0  0  0
 73 81  2  0  0  0
 73 82  1  0  0  0
 74146  1  0  0  0
 74147  1  0  0  0
 74148  1  0  0  0
 74 79  1  0  0  0
 75 79  1  0  0  0
 75149  1  0  0  0
 75150  1  0  0  0
 75151  1  0  0  0
 76 77  1  0  0  0
 76152  1  0  0  0
 76153  1  0  0  0
 77 83  1  0  0  0
 77154  1  0  0  0
 77155  1  0  0  0
 78 84  1  0  0  0
 78 85  1  0  0  0
 78 86  1  0  0  0
 80 82  2  0  0  0
M  ISO  4   1 100  68 101  76 101  79 100
M  END
> <chiral flag>
0

> <version>
0

> <s_m_source_file>
/data/baiqing/PycharmProjects/Reinvent-master-3.2/result/LINK_invent/BTK/process_docking_weight1_custom_sum_contain_oxygen_bond_distance_aromatic_linkinvent_7_9_3/rearranged_h_0060.sdf

> <i_m_source_file_index>
70

> <r_mmod_Potential_Energy-OPLS-2005>
923.474060058594

> <r_mmod_Stretch_Energy-OPLS-2005>
358.792327880859

> <r_mmod_Bend_Energy-OPLS-2005>
363.009246826172

> <r_mmod_Torsional_Energy-OPLS-2005>
203.698379516602

> <r_mmod_Improper_Torsional_Energy-OPLS-2005>
4.95030069351196

> <r_mmod_Van_der_Waal_Energy-OPLS-2005>
148.136810302734

> <r_mmod_Electrostatic_Energy-OPLS-2005>
-199.422927856445

> <r_mmod_Solvation_Energy-OPLS-2005>
-194.575347900391

> <b_mmod_Minimization_Converged-OPLS-2005>
0

> <r_mmod_RMS_Derivative-OPLS-2005>
5.65926361083984

$$$$
74
                    3D
 Structure written by MMmdl.
147155  0  0  1  0            999 V2000
  -30.4667  -15.2386   20.3639 C   0  0  0  0  0  0
  -30.4362  -12.7909   19.5212 C   0  0  0  0  0  0
  -29.5342  -12.5705   18.2814 C   0  0  0  0  0  0
  -28.0808  -12.2998   18.7086 C   0  0  0  0  0  0
  -27.6127  -13.2747   19.8186 C   0  0  2  0  0  0
  -28.6472  -13.4486   20.9513 C   0  0  0  0  0  0
  -25.2406  -13.8241   20.5729 C   0  0  0  0  0  0
  -24.1758  -13.0438   20.9257 C   0  0  0  0  0  0
  -24.6412  -11.6939   20.8774 C   0  0  0  0  0  0
  -23.9109  -10.4299   21.0418 C   0  0  0  0  0  0
  -24.3654   -9.4206   21.9189 C   0  0  0  0  0  0
  -23.6320   -8.2244   22.0755 C   0  0  0  0  0  0
  -22.4301   -8.0290   21.3547 C   0  0  0  0  0  0
  -21.9943   -9.0265   20.4647 C   0  0  0  0  0  0
  -22.7283  -10.2135   20.3062 C   0  0  0  0  0  0
  -21.6853   -6.0756   22.5283 C   0  0  0  0  0  0
  -21.4010   -6.5656   23.8224 C   0  0  0  0  0  0
  -21.3658   -5.6801   24.9176 C   0  0  0  0  0  0
  -21.6046   -4.3064   24.7219 C   0  0  0  0  0  0
  -21.8819   -3.8161   23.4342 C   0  0  0  0  0  0
  -21.9188   -4.6982   22.3398 C   0  0  0  0  0  0
  -22.7777  -13.5198   21.1899 C   0  0  0  0  0  0
  -22.1661   -4.2168   21.0976 F   0  0  0  0  0  0
  -21.5624   -3.4544   25.7734 F   0  0  0  0  0  0
  -29.8834  -13.9425   20.3238 N   0  0  0  0  0  0
  -26.2827  -12.9522   20.3194 N   0  0  0  0  0  0
  -25.9344  -11.6625   20.5716 N   0  0  0  0  0  0
  -22.0429  -12.8181   22.0446 N   0  0  0  0  0  0
  -25.4057  -15.1971   20.4144 N   0  0  0  0  0  0
  -31.6883  -15.2163   20.1614 O   0  0  0  0  0  0
  -21.6642   -6.8903   21.4251 O   0  0  0  0  0  0
  -22.3461  -14.5497   20.6731 O   0  0  0  0  0  0
  -24.6630  -31.8255   23.1713 C   0  0  0  0  0  0
  -25.9313  -32.4609   23.8176 C   0  0  1  0  0  0
  -27.2129  -26.9342   20.1834 C   0  0  0  0  0  0
  -25.5991  -33.8422   24.2091 N   0  0  0  0  0  0
  -23.4781  -30.4395   21.5202 C   0  0  2  0  0  0
  -24.9303  -28.8324   20.1127 C   0  0  0  0  0  0
  -22.7672  -29.4460   22.4767 C   0  0  0  0  0  0
  -18.0322  -28.1425   22.8468 C   0  0  0  0  0  0
  -24.1487  -36.7212   23.2645 C   0  0  0  0  0  0
  -26.0478  -30.6358   21.3990 C   0  0  0  0  0  0
  -26.1155  -29.2258   20.7465 C   0  0  0  0  0  0
  -27.2527  -28.2982   20.7581 C   0  0  0  0  0  0
  -25.9977  -26.6992   19.4982 C   0  0  0  0  0  0
  -24.8967  -27.5889   19.4687 C   0  0  0  0  0  0
  -23.7184  -29.7602   20.1449 C   0  0  0  0  0  0
  -25.4124  -36.2974   24.0308 C   0  0  1  0  0  0
  -20.5956  -28.3765   23.1191 C   0  0  2  0  0  0
  -20.6802  -26.9448   22.5398 C   0  0  0  0  0  0
  -19.5772  -26.6387   21.5215 C   0  0  0  0  0  0
  -18.1956  -26.7963   22.1617 C   0  0  0  0  0  0
  -19.1588  -28.8910   23.2820 C   0  0  0  0  0  0
  -18.9496  -30.1497   23.8861 C   0  0  0  0  0  0
  -17.6491  -30.6607   24.0553 C   0  0  0  0  0  0
  -25.9093  -34.9362   23.5012 C   0  0  0  0  0  0
  -16.5377  -29.9104   23.6341 C   0  0  0  0  0  0
  -16.7308  -28.6523   23.0362 C   0  0  0  0  0  0
  -26.4562  -31.6548   25.0693 C   0  0  0  0  0  0
  -25.3686  -31.3801   26.1343 C   0  0  0  0  0  0
  -27.0454  -30.2927   24.6408 C   0  0  0  0  0  0
  -27.6078  -32.4332   25.7483 C   0  0  0  0  0  0
  -27.5568  -37.1749   24.8452 C   0  0  0  0  0  0
  -21.4337  -29.3059   22.3535 N   0  0  0  0  0  0
  -26.4252  -37.3717   23.9437 N   0  0  0  0  0  0
  -24.7519  -30.9937   22.0841 N   0  0  0  0  0  0
  -23.4225  -28.8010   23.2988 O   0  0  0  0  0  0
  -28.1976  -25.8117   20.2518 O   0  0  0  0  0  0
  -26.5685  -34.8891   22.4597 O   0  0  0  0  0  0
  -23.5701  -32.1203   23.6808 O   0  0  0  0  0  0
  -27.8774  -21.4705   19.5692 C   0  0  0  0  0  0
  -28.5099  -22.6284   20.1949 C   0  0  0  0  0  0
  -29.3571  -19.6861   20.3563 C   0  0  0  0  0  0
  -30.8040  -18.1899   18.7924 C   0  0  0  0  0  0
  -27.7747  -24.2242   20.1779 C   0  0  0  0  0  0
  -30.1301  -18.1232   20.1756 C   0  0  2  0  0  0
  -28.2775  -20.1078   19.6277 N   0  0  0  0  0  0
  -29.5927  -22.1260   20.9276 N   0  0  0  0  0  0
  -30.0017  -20.7666   20.9678 N   0  0  0  0  0  0
  -29.7350  -16.5249   20.4152 N   0  0  0  0  0  0
  -31.4587  -12.9791   19.1920 H   0  0  0  0  0  0
  -30.4885  -11.8851   20.1267 H   0  0  0  0  0  0
  -29.9105  -11.7421   17.6798 H   0  0  0  0  0  0
  -29.5683  -13.4550   17.6432 H   0  0  0  0  0  0
  -28.0330  -11.2751   19.0796 H   0  0  0  0  0  0
  -27.4115  -12.3456   17.8484 H   0  0  0  0  0  0
  -27.5270  -14.2418   19.3203 H   0  0  0  0  0  0
  -28.8089  -12.5147   21.4912 H   0  0  0  0  0  0
  -28.2897  -14.1752   21.6828 H   0  0  0  0  0  0
  -25.2804   -9.5672   22.4764 H   0  0  0  0  0  0
  -24.0024   -7.4627   22.7471 H   0  0  0  0  0  0
  -21.0877   -8.8794   19.8951 H   0  0  0  0  0  0
  -22.3758  -10.9677   19.6169 H   0  0  0  0  0  0
  -21.2007   -7.6165   23.9729 H   0  0  0  0  0  0
  -21.1478   -6.0529   25.9081 H   0  0  0  0  0  0
  -22.0598   -2.7624   23.2824 H   0  0  0  0  0  0
  -22.4059  -11.9852   22.4844 H   0  0  0  0  0  0
  -21.1034  -13.1173   22.2632 H   0  0  0  0  0  0
  -24.6347  -15.8490   20.5151 H   0  0  0  0  0  0
  -26.2451  -15.6306   20.0543 H   0  0  0  0  0  0
  -26.7377  -32.5144   23.0886 H   0  0  0  0  0  0
  -25.0141  -33.9511   25.0244 H   0  0  0  0  0  0
  -22.7920  -31.2715   21.3500 H   0  0  0  0  0  0
  -23.3773  -35.9514   23.3243 H   0  0  0  0  0  0
  -24.3588  -36.8917   22.2071 H   0  0  0  0  0  0
  -23.7194  -37.6369   23.6730 H   0  0  0  0  0  0
  -26.2198  -31.3738   20.6143 H   0  0  0  0  0  0
  -26.9119  -30.6996   22.0492 H   0  0  0  0  0  0
  -28.1477  -28.5961   21.2856 H   0  0  0  0  0  0
  -25.8469  -25.7594   18.9912 H   0  0  0  0  0  0
  -23.9975  -27.2828   18.9518 H   0  0  0  0  0  0
  -23.8780  -30.5294   19.3882 H   0  0  0  0  0  0
  -22.8279  -29.2168   19.8239 H   0  0  0  0  0  0
  -25.1309  -36.1757   25.0794 H   0  0  0  0  0  0
  -21.0036  -28.3355   24.1318 H   0  0  0  0  0  0
  -20.5680  -26.2388   23.3643 H   0  0  0  0  0  0
  -21.6666  -26.7424   22.1199 H   0  0  0  0  0  0
  -19.6930  -25.6282   21.1287 H   0  0  0  0  0  0
  -19.6712  -27.3164   20.6723 H   0  0  0  0  0  0
  -17.4222  -26.6711   21.4021 H   0  0  0  0  0  0
  -18.0334  -26.0129   22.9030 H   0  0  0  0  0  0
  -19.7967  -30.7320   24.2225 H   0  0  0  0  0  0
  -17.5044  -31.6287   24.5157 H   0  0  0  0  0  0
  -15.5374  -30.2993   23.7705 H   0  0  0  0  0  0
  -15.8705  -28.0823   22.7105 H   0  0  0  0  0  0
  -24.5896  -30.7122   25.7645 H   0  0  0  0  0  0
  -24.8829  -32.2999   26.4612 H   0  0  0  0  0  0
  -25.7910  -30.9063   27.0213 H   0  0  0  0  0  0
  -26.3110  -29.6621   24.1392 H   0  0  0  0  0  0
  -27.3987  -29.7269   25.5040 H   0  0  0  0  0  0
  -27.9054  -30.4140   23.9825 H   0  0  0  0  0  0
  -27.2693  -33.3706   26.1909 H   0  0  0  0  0  0
  -28.3979  -32.6769   25.0365 H   0  0  0  0  0  0
  -28.0657  -31.8536   26.5509 H   0  0  0  0  0  0
  -28.2512  -38.0113   24.7575 H   0  0  0  0  0  0
  -28.1126  -36.2648   24.6161 H   0  0  0  0  0  0
  -27.2315  -37.1245   25.8855 H   0  0  0  0  0  0
  -20.9580  -29.8795   21.6709 H   0  0  0  0  0  0
  -26.0095  -38.2760   24.1503 H   0  0  0  0  0  0
  -26.9760  -21.6398   18.9986 H   0  0  0  0  0  0
  -31.3595  -19.1215   18.6753 H   0  0  0  0  0  0
  -30.0539  -18.1579   18.0016 H   0  0  0  0  0  0
  -31.5082  -17.3769   18.6229 H   0  0  0  0  0  0
  -27.0121  -24.1394   20.9521 H   0  0  0  0  0  0
  -27.2215  -24.1638   19.2435 H   0  0  0  0  0  0
  -30.9463  -18.2255   20.8902 H   0  0  0  0  0  0
  -28.7457  -16.4048   20.5687 H   0  0  0  0  0  0
  1 25  1  0  0  0
  1 30  2  0  0  0
  1 80  1  0  0  0
  2  3  1  0  0  0
  2 25  1  0  0  0
  2 81  1  0  0  0
  2 82  1  0  0  0
  3  4  1  0  0  0
  3 83  1  0  0  0
  3 84  1  0  0  0
  4  5  1  0  0  0
  4 85  1  0  0  0
  4 86  1  0  0  0
  5  6  1  0  0  0
  5 26  1  0  0  0
  5 87  1  0  0  0
  6 25  1  0  0  0
  6 88  1  0  0  0
  6 89  1  0  0  0
  7  8  2  0  0  0
  7 26  1  0  0  0
  7 29  1  0  0  0
  8  9  1  0  0  0
  8 22  1  0  0  0
  9 10  1  0  0  0
  9 27  2  0  0  0
 10 11  2  0  0  0
 10 15  1  0  0  0
 11 12  1  0  0  0
 11 90  1  0  0  0
 12 13  2  0  0  0
 12 91  1  0  0  0
 13 14  1  0  0  0
 13 31  1  0  0  0
 14 15  2  0  0  0
 14 92  1  0  0  0
 15 93  1  0  0  0
 16 17  2  0  0  0
 16 21  1  0  0  0
 16 31  1  0  0  0
 17 18  1  0  0  0
 17 94  1  0  0  0
 18 19  2  0  0  0
 18 95  1  0  0  0
 19 20  1  0  0  0
 19 24  1  0  0  0
 20 21  2  0  0  0
 20 96  1  0  0  0
 21 23  1  0  0  0
 22 28  1  0  0  0
 22 32  2  0  0  0
 26 27  1  0  0  0
 28 97  1  0  0  0
 28 98  1  0  0  0
 29 99  1  0  0  0
 29100  1  0  0  0
 33 34  1  0  0  0
 33 66  1  0  0  0
 33 70  2  0  0  0
 34 36  1  0  0  0
 34 59  1  0  0  0
 34101  1  0  0  0
 35 44  2  0  0  0
 35 45  1  0  0  0
 35 68  1  0  0  0
 36 56  1  0  0  0
 36102  1  0  0  0
 37 39  1  0  0  0
 37 47  1  0  0  0
 37 66  1  0  0  0
 37103  1  0  0  0
 38 43  2  0  0  0
 38 46  1  0  0  0
 38 47  1  0  0  0
 39 64  1  0  0  0
 39 67  2  0  0  0
 40 52  1  0  0  0
 40 53  2  0  0  0
 40 58  1  0  0  0
 41104  1  0  0  0
 41105  1  0  0  0
 41106  1  0  0  0
 41 48  1  0  0  0
 42 43  1  0  0  0
 42 66  1  0  0  0
 42107  1  0  0  0
 42108  1  0  0  0
 43 44  1  0  0  0
 44109  1  0  0  0
 45 46  2  0  0  0
 45110  1  0  0  0
 46111  1  0  0  0
 47112  1  0  0  0
 47113  1  0  0  0
 48 56  1  0  0  0
 48 65  1  0  0  0
 48114  1  0  0  0
 49 50  1  0  0  0
 49 53  1  0  0  0
 49 64  1  0  0  0
 49115  1  0  0  0
 50 51  1  0  0  0
 50116  1  0  0  0
 50117  1  0  0  0
 51 52  1  0  0  0
 51118  1  0  0  0
 51119  1  0  0  0
 52120  1  0  0  0
 52121  1  0  0  0
 53 54  1  0  0  0
 54 55  2  0  0  0
 54122  1  0  0  0
 55 57  1  0  0  0
 55123  1  0  0  0
 56 69  2  0  0  0
 57 58  2  0  0  0
 57124  1  0  0  0
 58125  1  0  0  0
 59 60  1  0  0  0
 59 61  1  0  0  0
 59 62  1  0  0  0
 60126  1  0  0  0
 60127  1  0  0  0
 60128  1  0  0  0
 61129  1  0  0  0
 61130  1  0  0  0
 61131  1  0  0  0
 62132  1  0  0  0
 62133  1  0  0  0
 62134  1  0  0  0
 63 65  1  0  0  0
 63135  1  0  0  0
 63136  1  0  0  0
 63137  1  0  0  0
 64138  1  0  0  0
 65139  1  0  0  0
 68 75  1  0  0  0
 71 72  2  0  0  0
 71 77  1  0  0  0
 71140  1  0  0  0
 72 75  1  0  0  0
 72 78  1  0  0  0
 73 76  1  0  0  0
 73 77  2  0  0  0
 73 79  1  0  0  0
 74141  1  0  0  0
 74142  1  0  0  0
 74143  1  0  0  0
 74 76  1  0  0  0
 75144  1  0  0  0
 75145  1  0  0  0
 76 80  1  0  0  0
 76146  1  0  0  0
 78 79  2  0  0  0
 80147  1  0  0  0
M  ISO  4   1 100  68 101  75 101  80 100
M  END
> <chiral flag>
0

> <version>
0

> <s_m_source_file>
/data/baiqing/PycharmProjects/Reinvent-master-3.2/result/LINK_invent/BTK/process_docking_weight1_custom_sum_contain_oxygen_bond_distance_aromatic_linkinvent_7_9_3/rearranged_h_0060.sdf

> <i_m_source_file_index>
71

> <r_mmod_Potential_Energy-OPLS-2005>
1086.82800292969

> <r_mmod_Stretch_Energy-OPLS-2005>
517.223571777344

> <r_mmod_Bend_Energy-OPLS-2005>
471.434143066406

> <r_mmod_Torsional_Energy-OPLS-2005>
197.852920532227

> <r_mmod_Improper_Torsional_Energy-OPLS-2005>
8.37272071838379

> <r_mmod_Van_der_Waal_Energy-OPLS-2005>
136.61799621582

> <r_mmod_Electrostatic_Energy-OPLS-2005>
-433.091857910156

> <r_mmod_Solvation_Energy-OPLS-2005>
-251.749603271484

> <b_mmod_Minimization_Converged-OPLS-2005>
0

> <r_mmod_RMS_Derivative-OPLS-2005>
1.73644912242889

$$$$
75
                    3D
 Structure written by MMmdl.
155163  0  0  1  0            999 V2000
  -30.5313  -14.9905   20.4171 C   0  0  0  0  0  0
  -30.4363  -12.6188   19.4996 C   0  0  0  0  0  0
  -29.5208  -12.5383   18.2564 C   0  0  0  0  0  0
  -28.0556  -12.3155   18.6754 C   0  0  0  0  0  0
  -27.6247  -13.2533   19.8330 C   0  0  2  0  0  0
  -28.6665  -13.3053   20.9699 C   0  0  0  0  0  0
  -25.2442  -13.8225   20.5715 C   0  0  0  0  0  0
  -24.1767  -13.0443   20.9237 C   0  0  0  0  0  0
  -24.6383  -11.6927   20.8745 C   0  0  0  0  0  0
  -23.9070  -10.4295   21.0398 C   0  0  0  0  0  0
  -24.3621   -9.4213   21.9176 C   0  0  0  0  0  0
  -23.6301   -8.2246   22.0746 C   0  0  0  0  0  0
  -22.4284   -8.0277   21.3539 C   0  0  0  0  0  0
  -21.9916   -9.0248   20.4641 C   0  0  0  0  0  0
  -22.7239  -10.2130   20.3051 C   0  0  0  0  0  0
  -21.6862   -6.0729   22.5272 C   0  0  0  0  0  0
  -21.4022   -6.5636   23.8203 C   0  0  0  0  0  0
  -21.3665   -5.6789   24.9167 C   0  0  0  0  0  0
  -21.6042   -4.3052   24.7222 C   0  0  0  0  0  0
  -21.8824   -3.8142   23.4346 C   0  0  0  0  0  0
  -21.9201   -4.6956   22.3399 C   0  0  0  0  0  0
  -22.7789  -13.5204   21.1893 C   0  0  0  0  0  0
  -22.1669   -4.2140   21.0978 F   0  0  0  0  0  0
  -21.5627   -3.4536   25.7738 F   0  0  0  0  0  0
  -29.9333  -13.7287   20.3625 N   0  0  0  0  0  0
  -26.2861  -12.9465   20.3224 N   0  0  0  0  0  0
  -25.9318  -11.6589   20.5722 N   0  0  0  0  0  0
  -22.0452  -12.8180   22.0445 N   0  0  0  0  0  0
  -25.4100  -15.1955   20.4127 N   0  0  0  0  0  0
  -31.7451  -15.0191   20.1880 O   0  0  0  0  0  0
  -21.6652   -6.8871   21.4233 O   0  0  0  0  0  0
  -22.3466  -14.5507   20.6740 O   0  0  0  0  0  0
  -24.6459  -31.8412   23.1838 C   0  0  0  0  0  0
  -25.9221  -32.4678   23.8245 C   0  0  1  0  0  0
  -27.2158  -27.1056   20.1705 C   0  0  0  0  0  0
  -25.5956  -33.8484   24.2161 N   0  0  0  0  0  0
  -23.4510  -30.4580   21.5308 C   0  0  2  0  0  0
  -24.9002  -28.8714   20.1177 C   0  0  0  0  0  0
  -22.7578  -29.4533   22.4853 C   0  0  0  0  0  0
  -18.0308  -28.1404   22.8483 C   0  0  0  0  0  0
  -24.1494  -36.7254   23.2642 C   0  0  0  0  0  0
  -26.0077  -30.7063   21.3847 C   0  0  0  0  0  0
  -26.0792  -29.3116   20.7335 C   0  0  0  0  0  0
  -27.2406  -28.4472   20.7353 C   0  0  0  0  0  0
  -26.0106  -26.7645   19.5243 C   0  0  0  0  0  0
  -24.8788  -27.6115   19.4973 C   0  0  0  0  0  0
  -23.6800  -29.7805   20.1535 C   0  0  0  0  0  0
  -25.4127  -36.3018   24.0309 C   0  0  1  0  0  0
  -20.5922  -28.3733   23.1239 C   0  0  2  0  0  0
  -20.6795  -26.9435   22.5410 C   0  0  0  0  0  0
  -19.5766  -26.6386   21.5225 C   0  0  0  0  0  0
  -18.1945  -26.7943   22.1632 C   0  0  0  0  0  0
  -19.1565  -28.8886   23.2853 C   0  0  0  0  0  0
  -18.9478  -30.1484   23.8877 C   0  0  0  0  0  0
  -17.6472  -30.6599   24.0564 C   0  0  0  0  0  0
  -25.9077  -34.9397   23.5044 C   0  0  0  0  0  0
  -16.5365  -29.9090   23.6338 C   0  0  0  0  0  0
  -16.7292  -28.6512   23.0354 C   0  0  0  0  0  0
  -26.4530  -31.6557   25.0703 C   0  0  0  0  0  0
  -25.3705  -31.3760   26.1394 C   0  0  0  0  0  0
  -27.0399  -30.2947   24.6301 C   0  0  0  0  0  0
  -27.6046  -32.4331   25.7503 C   0  0  0  0  0  0
  -27.5574  -37.1782   24.8462 C   0  0  0  0  0  0
  -21.4267  -29.3052   22.3605 N   0  0  0  0  0  0
  -26.4285  -37.3738   23.9405 N   0  0  0  0  0  0
  -24.7219  -31.0239   22.0886 N   0  0  0  0  0  0
  -23.4203  -28.8092   23.3026 O   0  0  0  0  0  0
  -28.2781  -26.1248   20.1677 O   0  0  0  0  0  0
  -26.5671  -34.8903   22.4628 O   0  0  0  0  0  0
  -23.5573  -32.1299   23.7046 O   0  0  0  0  0  0
  -27.5697  -20.2044   19.1096 C   0  0  0  0  0  0
  -28.9430  -18.8022   19.9405 C   0  0  0  0  0  0
  -31.8816  -19.5407   20.0463 C   0  0  0  0  0  0
  -31.4512  -18.0658   20.0390 C   0  0  0  0  0  0
  -28.6292  -23.1735   19.9029 C   0  0  0  0  0  0
  -28.9099  -21.6429   20.6387 C   0  0  0  0  0  0
  -28.1048  -24.6301   20.6220 C   0  0  0  0  0  0
  -30.0362  -17.7750   20.5955 C   0  0  2  0  0  0
  -27.2505  -19.0382   18.5607 N   0  0  0  0  0  0
  -28.1371  -18.1453   19.0861 N   0  0  0  0  0  0
  -28.6081  -20.2330   19.9650 N   0  0  0  0  0  0
  -29.7580  -16.1921   20.5330 N   0  0  0  0  0  0
  -31.4694  -12.7791   19.1867 H   0  0  0  0  0  0
  -30.4352  -11.6742   20.0457 H   0  0  0  0  0  0
  -29.8491  -11.7369   17.5927 H   0  0  0  0  0  0
  -29.6016  -13.4643   17.6840 H   0  0  0  0  0  0
  -27.9592  -11.2758   18.9900 H   0  0  0  0  0  0
  -27.3918  -12.4375   17.8189 H   0  0  0  0  0  0
  -27.5793  -14.2509   19.3945 H   0  0  0  0  0  0
  -28.7654  -12.3368   21.4624 H   0  0  0  0  0  0
  -28.3586  -14.0155   21.7391 H   0  0  0  0  0  0
  -25.2762   -9.5702   22.4752 H   0  0  0  0  0  0
  -24.0016   -7.4640   22.7469 H   0  0  0  0  0  0
  -21.0847   -8.8760   19.8947 H   0  0  0  0  0  0
  -22.3686  -10.9667   19.6162 H   0  0  0  0  0  0
  -21.2017   -7.6145   23.9705 H   0  0  0  0  0  0
  -21.1482   -6.0519   25.9068 H   0  0  0  0  0  0
  -22.0602   -2.7604   23.2846 H   0  0  0  0  0  0
  -22.4098  -11.9853   22.4826 H   0  0  0  0  0  0
  -21.1057  -13.1174   22.2655 H   0  0  0  0  0  0
  -24.6342  -15.8417   20.5110 H   0  0  0  0  0  0
  -26.2389  -15.6347   20.0327 H   0  0  0  0  0  0
  -26.7290  -32.5276   23.0975 H   0  0  0  0  0  0
  -25.0067  -33.9594   25.0284 H   0  0  0  0  0  0
  -22.7555  -31.2850   21.3713 H   0  0  0  0  0  0
  -23.3756  -35.9584   23.3281 H   0  0  0  0  0  0
  -24.3581  -36.8916   22.2061 H   0  0  0  0  0  0
  -23.7251  -37.6442   23.6703 H   0  0  0  0  0  0
  -26.1614  -31.4549   20.6065 H   0  0  0  0  0  0
  -26.8792  -30.7629   22.0254 H   0  0  0  0  0  0
  -28.1451  -28.7843   21.2218 H   0  0  0  0  0  0
  -25.9326  -25.7981   19.0462 H   0  0  0  0  0  0
  -23.9784  -27.2677   19.0068 H   0  0  0  0  0  0
  -23.8245  -30.5515   19.3960 H   0  0  0  0  0  0
  -22.7930  -29.2264   19.8409 H   0  0  0  0  0  0
  -25.1315  -36.1832   25.0801 H   0  0  0  0  0  0
  -21.0018  -28.3327   24.1358 H   0  0  0  0  0  0
  -20.5702  -26.2346   23.3631 H   0  0  0  0  0  0
  -21.6658  -26.7446   22.1199 H   0  0  0  0  0  0
  -19.6925  -25.6289   21.1271 H   0  0  0  0  0  0
  -19.6699  -27.3186   20.6745 H   0  0  0  0  0  0
  -17.4215  -26.6697   21.4032 H   0  0  0  0  0  0
  -18.0335  -26.0091   22.9033 H   0  0  0  0  0  0
  -19.7951  -30.7315   24.2230 H   0  0  0  0  0  0
  -17.5021  -31.6275   24.5176 H   0  0  0  0  0  0
  -15.5365  -30.2982   23.7675 H   0  0  0  0  0  0
  -15.8696  -28.0828   22.7068 H   0  0  0  0  0  0
  -24.5887  -30.7107   25.7715 H   0  0  0  0  0  0
  -24.8895  -32.2951   26.4750 H   0  0  0  0  0  0
  -25.7979  -30.8976   27.0215 H   0  0  0  0  0  0
  -26.3023  -29.6661   24.1301 H   0  0  0  0  0  0
  -27.3998  -29.7256   25.4882 H   0  0  0  0  0  0
  -27.8933  -30.4177   23.9629 H   0  0  0  0  0  0
  -27.2625  -33.3651   26.2017 H   0  0  0  0  0  0
  -28.3899  -32.6862   25.0368 H   0  0  0  0  0  0
  -28.0669  -31.8500   26.5478 H   0  0  0  0  0  0
  -28.2571  -38.0095   24.7508 H   0  0  0  0  0  0
  -28.1088  -36.2621   24.6284 H   0  0  0  0  0  0
  -27.2293  -37.1422   25.8866 H   0  0  0  0  0  0
  -20.9481  -29.8753   21.6772 H   0  0  0  0  0  0
  -26.0140  -38.2801   24.1412 H   0  0  0  0  0  0
  -26.9872  -21.0841   18.8801 H   0  0  0  0  0  0
  -31.7794  -19.9790   21.0395 H   0  0  0  0  0  0
  -31.2989  -20.1371   19.3442 H   0  0  0  0  0  0
  -32.9267  -19.6353   19.7506 H   0  0  0  0  0  0
  -32.1865  -17.5045   20.6149 H   0  0  0  0  0  0
  -31.5141  -17.6980   19.0143 H   0  0  0  0  0  0
  -27.9510  -23.0227   19.0656 H   0  0  0  0  0  0
  -29.5720  -23.4169   19.4130 H   0  0  0  0  0  0
  -28.3217  -21.6434   21.5563 H   0  0  0  0  0  0
  -29.9425  -21.6208   20.9847 H   0  0  0  0  0  0
  -28.5742  -24.6291   21.6058 H   0  0  0  0  0  0
  -27.0469  -24.4940   20.8477 H   0  0  0  0  0  0
  -30.0572  -18.0175   21.6585 H   0  0  0  0  0  0
  -28.7716  -15.9974   20.6063 H   0  0  0  0  0  0
  1 25  1  0  0  0
  1 30  2  0  0  0
  1 82  1  0  0  0
  2  3  1  0  0  0
  2 25  1  0  0  0
  2 83  1  0  0  0
  2 84  1  0  0  0
  3  4  1  0  0  0
  3 85  1  0  0  0
  3 86  1  0  0  0
  4  5  1  0  0  0
  4 87  1  0  0  0
  4 88  1  0  0  0
  5  6  1  0  0  0
  5 26  1  0  0  0
  5 89  1  0  0  0
  6 25  1  0  0  0
  6 90  1  0  0  0
  6 91  1  0  0  0
  7  8  2  0  0  0
  7 26  1  0  0  0
  7 29  1  0  0  0
  8  9  1  0  0  0
  8 22  1  0  0  0
  9 10  1  0  0  0
  9 27  2  0  0  0
 10 11  2  0  0  0
 10 15  1  0  0  0
 11 12  1  0  0  0
 11 92  1  0  0  0
 12 13  2  0  0  0
 12 93  1  0  0  0
 13 14  1  0  0  0
 13 31  1  0  0  0
 14 15  2  0  0  0
 14 94  1  0  0  0
 15 95  1  0  0  0
 16 17  2  0  0  0
 16 21  1  0  0  0
 16 31  1  0  0  0
 17 18  1  0  0  0
 17 96  1  0  0  0
 18 19  2  0  0  0
 18 97  1  0  0  0
 19 20  1  0  0  0
 19 24  1  0  0  0
 20 21  2  0  0  0
 20 98  1  0  0  0
 21 23  1  0  0  0
 22 28  1  0  0  0
 22 32  2  0  0  0
 26 27  1  0  0  0
 28 99  1  0  0  0
 28100  1  0  0  0
 29101  1  0  0  0
 29102  1  0  0  0
 33 34  1  0  0  0
 33 66  1  0  0  0
 33 70  2  0  0  0
 34 36  1  0  0  0
 34 59  1  0  0  0
 34103  1  0  0  0
 35 44  2  0  0  0
 35 45  1  0  0  0
 35 68  1  0  0  0
 36 56  1  0  0  0
 36104  1  0  0  0
 37 39  1  0  0  0
 37 47  1  0  0  0
 37 66  1  0  0  0
 37105  1  0  0  0
 38 43  2  0  0  0
 38 46  1  0  0  0
 38 47  1  0  0  0
 39 64  1  0  0  0
 39 67  2  0  0  0
 40 52  1  0  0  0
 40 53  2  0  0  0
 40 58  1  0  0  0
 41106  1  0  0  0
 41107  1  0  0  0
 41108  1  0  0  0
 41 48  1  0  0  0
 42 43  1  0  0  0
 42 66  1  0  0  0
 42109  1  0  0  0
 42110  1  0  0  0
 43 44  1  0  0  0
 44111  1  0  0  0
 45 46  2  0  0  0
 45112  1  0  0  0
 46113  1  0  0  0
 47114  1  0  0  0
 47115  1  0  0  0
 48 56  1  0  0  0
 48 65  1  0  0  0
 48116  1  0  0  0
 49 50  1  0  0  0
 49 53  1  0  0  0
 49 64  1  0  0  0
 49117  1  0  0  0
 50 51  1  0  0  0
 50118  1  0  0  0
 50119  1  0  0  0
 51 52  1  0  0  0
 51120  1  0  0  0
 51121  1  0  0  0
 52122  1  0  0  0
 52123  1  0  0  0
 53 54  1  0  0  0
 54 55  2  0  0  0
 54124  1  0  0  0
 55 57  1  0  0  0
 55125  1  0  0  0
 56 69  2  0  0  0
 57 58  2  0  0  0
 57126  1  0  0  0
 58127  1  0  0  0
 59 60  1  0  0  0
 59 61  1  0  0  0
 59 62  1  0  0  0
 60128  1  0  0  0
 60129  1  0  0  0
 60130  1  0  0  0
 61131  1  0  0  0
 61132  1  0  0  0
 61133  1  0  0  0
 62134  1  0  0  0
 62135  1  0  0  0
 62136  1  0  0  0
 63 65  1  0  0  0
 63137  1  0  0  0
 63138  1  0  0  0
 63139  1  0  0  0
 64140  1  0  0  0
 65141  1  0  0  0
 68 77  1  0  0  0
 71 79  2  0  0  0
 71 81  1  0  0  0
 71142  1  0  0  0
 72 78  1  0  0  0
 72 80  2  0  0  0
 72 81  1  0  0  0
 73 74  1  0  0  0
 73143  1  0  0  0
 73144  1  0  0  0
 73145  1  0  0  0
 74146  1  0  0  0
 74147  1  0  0  0
 74 78  1  0  0  0
 75 76  1  0  0  0
 75 77  1  0  0  0
 75148  1  0  0  0
 75149  1  0  0  0
 76 81  1  0  0  0
 76150  1  0  0  0
 76151  1  0  0  0
 77152  1  0  0  0
 77153  1  0  0  0
 78 82  1  0  0  0
 78154  1  0  0  0
 79 80  1  0  0  0
 82155  1  0  0  0
M  ISO  4   1 100  68 101  77 101  82 100
M  END
> <chiral flag>
0

> <version>
0

> <s_m_source_file>
/data/baiqing/PycharmProjects/Reinvent-master-3.2/result/LINK_invent/BTK/process_docking_weight1_custom_sum_contain_oxygen_bond_distance_aromatic_linkinvent_7_9_3/rearranged_h_0060.sdf

> <i_m_source_file_index>
72

> <r_mmod_Potential_Energy-OPLS-2005>
588.346069335938

> <r_mmod_Stretch_Energy-OPLS-2005>
322.723419189453

> <r_mmod_Bend_Energy-OPLS-2005>
341.246520996094

> <r_mmod_Torsional_Energy-OPLS-2005>
236.265060424805

> <r_mmod_Improper_Torsional_Energy-OPLS-2005>
4.6807222366333

> <r_mmod_Van_der_Waal_Energy-OPLS-2005>
106.809745788574

> <r_mmod_Electrostatic_Energy-OPLS-2005>
-410.315490722656

> <r_mmod_Solvation_Energy-OPLS-2005>
-230.404067993164

> <b_mmod_Minimization_Converged-OPLS-2005>
0

> <r_mmod_RMS_Derivative-OPLS-2005>
0.950099050998688

$$$$
76
                    3D
 Structure written by MMmdl.
160168  0  0  1  0            999 V2000
  -30.3131  -15.5768   20.2843 C   0  0  0  0  0  0
  -30.4433  -13.0215   19.5426 C   0  0  0  0  0  0
  -29.5563  -12.6474   18.3197 C   0  0  0  0  0  0
  -28.1190  -12.3084   18.7491 C   0  0  0  0  0  0
  -27.6005  -13.3027   19.8128 C   0  0  2  0  0  0
  -28.6245  -13.6109   20.9300 C   0  0  0  0  0  0
  -25.2354  -13.8273   20.5925 C   0  0  0  0  0  0
  -24.1717  -13.0407   20.9311 C   0  0  0  0  0  0
  -24.6415  -11.6923   20.8745 C   0  0  0  0  0  0
  -23.9117  -10.4275   21.0366 C   0  0  0  0  0  0
  -24.3653   -9.4198   21.9159 C   0  0  0  0  0  0
  -23.6323   -8.2239   22.0741 C   0  0  0  0  0  0
  -22.4293   -8.0277   21.3550 C   0  0  0  0  0  0
  -21.9946   -9.0246   20.4640 C   0  0  0  0  0  0
  -22.7284  -10.2118   20.3029 C   0  0  0  0  0  0
  -21.6856   -6.0745   22.5292 C   0  0  0  0  0  0
  -21.4016   -6.5647   23.8238 C   0  0  0  0  0  0
  -21.3653   -5.6792   24.9190 C   0  0  0  0  0  0
  -21.6049   -4.3054   24.7214 C   0  0  0  0  0  0
  -21.8815   -3.8156   23.4338 C   0  0  0  0  0  0
  -21.9186   -4.6983   22.3401 C   0  0  0  0  0  0
  -22.7715  -13.5123   21.1952 C   0  0  0  0  0  0
  -22.1656   -4.2184   21.0976 F   0  0  0  0  0  0
  -21.5636   -3.4516   25.7715 F   0  0  0  0  0  0
  -29.8274  -14.1997   20.2958 N   0  0  0  0  0  0
  -26.2802  -12.9611   20.3275 N   0  0  0  0  0  0
  -25.9370  -11.6682   20.5699 N   0  0  0  0  0  0
  -22.0364  -12.8102   22.0499 N   0  0  0  0  0  0
  -25.3946  -15.2044   20.4649 N   0  0  0  0  0  0
  -31.5509  -15.5233   20.1442 O   0  0  0  0  0  0
  -21.6646   -6.8876   21.4253 O   0  0  0  0  0  0
  -22.3377  -14.5422   20.6795 O   0  0  0  0  0  0
  -24.6828  -31.8009   23.1532 C   0  0  0  0  0  0
  -25.9415  -32.4474   23.8082 C   0  0  1  0  0  0
  -27.2321  -26.7276   20.2074 C   0  0  0  0  0  0
  -25.5995  -33.8301   24.1987 N   0  0  0  0  0  0
  -23.5094  -30.4047   21.5061 C   0  0  2  0  0  0
  -24.9663  -28.7460   20.1240 C   0  0  0  0  0  0
  -22.7773  -29.4325   22.4716 C   0  0  0  0  0  0
  -18.0350  -28.1407   22.8460 C   0  0  0  0  0  0
  -24.1506  -36.7166   23.2654 C   0  0  0  0  0  0
  -26.0881  -30.5455   21.4116 C   0  0  0  0  0  0
  -26.1566  -29.1097   20.7639 C   0  0  0  0  0  0
  -27.2798  -28.1306   20.7659 C   0  0  0  0  0  0
  -26.0039  -26.5644   19.5202 C   0  0  0  0  0  0
  -24.9263  -27.4979   19.4794 C   0  0  0  0  0  0
  -23.7636  -29.7006   20.1434 C   0  0  0  0  0  0
  -25.4149  -36.2903   24.0292 C   0  0  1  0  0  0
  -20.5986  -28.3751   23.1148 C   0  0  2  0  0  0
  -20.6805  -26.9416   22.5396 C   0  0  0  0  0  0
  -19.5778  -26.6359   21.5217 C   0  0  0  0  0  0
  -18.1968  -26.7940   22.1620 C   0  0  0  0  0  0
  -19.1615  -28.8913   23.2791 C   0  0  0  0  0  0
  -18.9510  -30.1496   23.8839 C   0  0  0  0  0  0
  -17.6496  -30.6593   24.0549 C   0  0  0  0  0  0
  -25.9121  -34.9285   23.4969 C   0  0  0  0  0  0
  -16.5391  -29.9074   23.6340 C   0  0  0  0  0  0
  -16.7327  -28.6496   23.0366 C   0  0  0  0  0  0
  -26.4601  -31.6481   25.0687 C   0  0  0  0  0  0
  -25.3674  -31.3779   26.1303 C   0  0  0  0  0  0
  -27.0505  -30.2820   24.6526 C   0  0  0  0  0  0
  -27.6066  -32.4315   25.7494 C   0  0  0  0  0  0
  -27.5574  -37.1747   24.8472 C   0  0  0  0  0  0
  -21.4425  -29.3022   22.3485 N   0  0  0  0  0  0
  -26.4280  -37.3657   23.9399 N   0  0  0  0  0  0
  -24.7835  -30.9489   22.0771 N   0  0  0  0  0  0
  -23.4230  -28.7903   23.3044 O   0  0  0  0  0  0
  -28.2261  -25.5409   20.1800 O   0  0  0  0  0  0
  -26.5742  -34.8845   22.4579 O   0  0  0  0  0  0
  -23.5849  -32.1059   23.6495 O   0  0  0  0  0  0
  -31.2042  -18.9303   20.6115 C   0  0  0  0  0  0
  -30.8744  -21.0787   20.4847 C   0  0  0  0  0  0
  -29.5891  -20.5740   20.3111 C   0  0  0  0  0  0
  -33.9198  -22.5677   20.2990 C   0  0  0  0  0  0
  -32.6731  -24.3150   21.6179 C   0  0  0  0  0  0
  -31.3524  -22.5161   20.3702 C   0  0  0  0  0  0
  -28.4289  -21.9759   20.0295 C   0  0  0  0  0  0
  -28.1025  -23.8293   20.5251 C   0  0  0  0  0  0
  -29.4273  -17.2273   20.2053 C   0  0  2  0  0  0
  -32.6593  -22.8519   21.1385 C   0  0  0  0  0  0
  -28.6935  -17.1537   18.8494 C   0  0  0  0  0  0
  -31.8227  -20.0873   20.6717 N   0  0  0  0  0  0
  -29.8929  -18.9261   20.3433 N   0  0  0  0  0  0
  -27.6132  -17.9351   18.8305 F   0  0  0  0  0  0
  -29.5122  -17.4922   17.8508 F   0  0  0  0  0  0
  -31.4424  -13.2700   19.1816 H   0  0  0  0  0  0
  -30.5804  -12.1620   20.1993 H   0  0  0  0  0  0
  -29.9941  -11.8096   17.7758 H   0  0  0  0  0  0
  -29.5376  -13.4912   17.6275 H   0  0  0  0  0  0
  -28.1224  -11.2987   19.1617 H   0  0  0  0  0  0
  -27.4556  -12.2852   17.8837 H   0  0  0  0  0  0
  -27.4600  -14.2299   19.2604 H   0  0  0  0  0  0
  -28.8552  -12.7221   21.5192 H   0  0  0  0  0  0
  -28.2076  -14.3375   21.6278 H   0  0  0  0  0  0
  -25.2791   -9.5694   22.4734 H   0  0  0  0  0  0
  -24.0044   -7.4614   22.7438 H   0  0  0  0  0  0
  -21.0898   -8.8753   19.8920 H   0  0  0  0  0  0
  -22.3742  -10.9650   19.6133 H   0  0  0  0  0  0
  -21.2019   -7.6159   23.9753 H   0  0  0  0  0  0
  -21.1488   -6.0518   25.9100 H   0  0  0  0  0  0
  -22.0601   -2.7620   23.2823 H   0  0  0  0  0  0
  -22.3982  -11.9788   22.4943 H   0  0  0  0  0  0
  -21.0947  -13.1116   22.2648 H   0  0  0  0  0  0
  -24.6422  -15.8429   20.6967 H   0  0  0  0  0  0
  -26.2638  -15.6780   20.2663 H   0  0  0  0  0  0
  -26.7493  -32.4959   23.0800 H   0  0  0  0  0  0
  -25.0081  -33.9343   25.0090 H   0  0  0  0  0  0
  -22.8331  -31.2403   21.3154 H   0  0  0  0  0  0
  -23.3772  -35.9498   23.3284 H   0  0  0  0  0  0
  -24.3589  -36.8851   22.2083 H   0  0  0  0  0  0
  -23.7268  -37.6340   23.6734 H   0  0  0  0  0  0
  -26.2804  -31.2719   20.6216 H   0  0  0  0  0  0
  -26.9431  -30.6221   22.0700 H   0  0  0  0  0  0
  -28.1868  -28.4240   21.2745 H   0  0  0  0  0  0
  -25.8478  -25.6248   19.0081 H   0  0  0  0  0  0
  -24.0267  -27.2151   18.9519 H   0  0  0  0  0  0
  -23.9427  -30.4591   19.3822 H   0  0  0  0  0  0
  -22.8705  -29.1691   19.8146 H   0  0  0  0  0  0
  -25.1367  -36.1686   25.0786 H   0  0  0  0  0  0
  -21.0059  -28.3366   24.1277 H   0  0  0  0  0  0
  -20.5669  -26.2387   23.3657 H   0  0  0  0  0  0
  -21.6663  -26.7365   22.1213 H   0  0  0  0  0  0
  -19.6930  -25.6262   21.1282 H   0  0  0  0  0  0
  -19.6723  -27.3139   20.6728 H   0  0  0  0  0  0
  -17.4237  -26.6695   21.4023 H   0  0  0  0  0  0
  -18.0350  -26.0101   22.9032 H   0  0  0  0  0  0
  -19.7989  -30.7327   24.2178 H   0  0  0  0  0  0
  -17.5047  -31.6266   24.5160 H   0  0  0  0  0  0
  -15.5389  -30.2944   23.7698 H   0  0  0  0  0  0
  -15.8728  -28.0786   22.7099 H   0  0  0  0  0  0
  -24.5897  -30.7096   25.7591 H   0  0  0  0  0  0
  -24.8823  -32.2988   26.4538 H   0  0  0  0  0  0
  -25.7858  -30.9066   27.0201 H   0  0  0  0  0  0
  -26.3193  -29.6454   24.1529 H   0  0  0  0  0  0
  -27.3972  -29.7255   25.5239 H   0  0  0  0  0  0
  -27.9164  -30.3971   24.0009 H   0  0  0  0  0  0
  -27.2635  -33.3685   26.1881 H   0  0  0  0  0  0
  -28.3955  -32.6746   25.0371 H   0  0  0  0  0  0
  -28.0625  -31.8565   26.5558 H   0  0  0  0  0  0
  -28.2556  -38.0064   24.7480 H   0  0  0  0  0  0
  -28.1095  -36.2585   24.6340 H   0  0  0  0  0  0
  -27.2283  -37.1434   25.8868 H   0  0  0  0  0  0
  -20.9713  -29.8729   21.6593 H   0  0  0  0  0  0
  -26.0124  -38.2713   24.1370 H   0  0  0  0  0  0
  -31.7712  -18.0196   20.7296 H   0  0  0  0  0  0
  -34.8240  -22.7264   20.8870 H   0  0  0  0  0  0
  -33.9761  -23.2180   19.4255 H   0  0  0  0  0  0
  -33.9494  -21.5393   19.9371 H   0  0  0  0  0  0
  -33.5774  -24.5340   22.1890 H   0  0  0  0  0  0
  -31.8221  -24.5350   22.2639 H   0  0  0  0  0  0
  -32.6424  -25.0085   20.7767 H   0  0  0  0  0  0
  -30.5866  -23.1706   20.7727 H   0  0  0  0  0  0
  -31.4442  -22.8073   19.3217 H   0  0  0  0  0  0
  -27.4854  -21.5318   20.3481 H   0  0  0  0  0  0
  -28.3039  -22.0028   18.9463 H   0  0  0  0  0  0
  -28.3556  -23.8219   21.5857 H   0  0  0  0  0  0
  -27.0129  -23.8014   20.5408 H   0  0  0  0  0  0
  -28.6711  -17.1012   20.9793 H   0  0  0  0  0  0
  -32.6907  -22.2358   22.0382 H   0  0  0  0  0  0
  -28.3603  -16.1415   18.6245 H   0  0  0  0  0  0
  1 25  1  0  0  0
  1 30  2  0  0  0
  1 79  1  0  0  0
  2  3  1  0  0  0
  2 25  1  0  0  0
  2 86  1  0  0  0
  2 87  1  0  0  0
  3  4  1  0  0  0
  3 88  1  0  0  0
  3 89  1  0  0  0
  4  5  1  0  0  0
  4 90  1  0  0  0
  4 91  1  0  0  0
  5  6  1  0  0  0
  5 26  1  0  0  0
  5 92  1  0  0  0
  6 25  1  0  0  0
  6 93  1  0  0  0
  6 94  1  0  0  0
  7  8  2  0  0  0
  7 26  1  0  0  0
  7 29  1  0  0  0
  8  9  1  0  0  0
  8 22  1  0  0  0
  9 10  1  0  0  0
  9 27  2  0  0  0
 10 11  2  0  0  0
 10 15  1  0  0  0
 11 12  1  0  0  0
 11 95  1  0  0  0
 12 13  2  0  0  0
 12 96  1  0  0  0
 13 14  1  0  0  0
 13 31  1  0  0  0
 14 15  2  0  0  0
 14 97  1  0  0  0
 15 98  1  0  0  0
 16 17  2  0  0  0
 16 21  1  0  0  0
 16 31  1  0  0  0
 17 18  1  0  0  0
 17 99  1  0  0  0
 18 19  2  0  0  0
 18100  1  0  0  0
 19 20  1  0  0  0
 19 24  1  0  0  0
 20 21  2  0  0  0
 20101  1  0  0  0
 21 23  1  0  0  0
 22 28  1  0  0  0
 22 32  2  0  0  0
 26 27  1  0  0  0
 28102  1  0  0  0
 28103  1  0  0  0
 29104  1  0  0  0
 29105  1  0  0  0
 33 34  1  0  0  0
 33 66  1  0  0  0
 33 70  2  0  0  0
 34 36  1  0  0  0
 34 59  1  0  0  0
 34106  1  0  0  0
 35 44  2  0  0  0
 35 45  1  0  0  0
 35 68  1  0  0  0
 36 56  1  0  0  0
 36107  1  0  0  0
 37 39  1  0  0  0
 37 47  1  0  0  0
 37 66  1  0  0  0
 37108  1  0  0  0
 38 43  2  0  0  0
 38 46  1  0  0  0
 38 47  1  0  0  0
 39 64  1  0  0  0
 39 67  2  0  0  0
 40 52  1  0  0  0
 40 53  2  0  0  0
 40 58  1  0  0  0
 41109  1  0  0  0
 41110  1  0  0  0
 41111  1  0  0  0
 41 48  1  0  0  0
 42 43  1  0  0  0
 42 66  1  0  0  0
 42112  1  0  0  0
 42113  1  0  0  0
 43 44  1  0  0  0
 44114  1  0  0  0
 45 46  2  0  0  0
 45115  1  0  0  0
 46116  1  0  0  0
 47117  1  0  0  0
 47118  1  0  0  0
 48 56  1  0  0  0
 48 65  1  0  0  0
 48119  1  0  0  0
 49 50  1  0  0  0
 49 53  1  0  0  0
 49 64  1  0  0  0
 49120  1  0  0  0
 50 51  1  0  0  0
 50121  1  0  0  0
 50122  1  0  0  0
 51 52  1  0  0  0
 51123  1  0  0  0
 51124  1  0  0  0
 52125  1  0  0  0
 52126  1  0  0  0
 53 54  1  0  0  0
 54 55  2  0  0  0
 54127  1  0  0  0
 55 57  1  0  0  0
 55128  1  0  0  0
 56 69  2  0  0  0
 57 58  2  0  0  0
 57129  1  0  0  0
 58130  1  0  0  0
 59 60  1  0  0  0
 59 61  1  0  0  0
 59 62  1  0  0  0
 60131  1  0  0  0
 60132  1  0  0  0
 60133  1  0  0  0
 61134  1  0  0  0
 61135  1  0  0  0
 61136  1  0  0  0
 62137  1  0  0  0
 62138  1  0  0  0
 62139  1  0  0  0
 63 65  1  0  0  0
 63140  1  0  0  0
 63141  1  0  0  0
 63142  1  0  0  0
 64143  1  0  0  0
 65144  1  0  0  0
 68 78  1  0  0  0
 71 82  2  0  0  0
 71 83  1  0  0  0
 71145  1  0  0  0
 72 73  2  0  0  0
 72 76  1  0  0  0
 72 82  1  0  0  0
 73 77  1  0  0  0
 73 83  1  0  0  0
 74146  1  0  0  0
 74147  1  0  0  0
 74148  1  0  0  0
 74 80  1  0  0  0
 75 80  1  0  0  0
 75149  1  0  0  0
 75150  1  0  0  0
 75151  1  0  0  0
 76 80  1  0  0  0
 76152  1  0  0  0
 76153  1  0  0  0
 77 78  1  0  0  0
 77154  1  0  0  0
 77155  1  0  0  0
 78156  1  0  0  0
 78157  1  0  0  0
 79 81  1  0  0  0
 79 83  1  0  0  0
 79158  1  0  0  0
 80159  1  0  0  0
 81 84  1  0  0  0
 81 85  1  0  0  0
 81160  1  0  0  0
M  ISO  4   1 100  68 101  78 101  79 100
M  END
> <chiral flag>
0

> <version>
0

> <s_m_source_file>
/data/baiqing/PycharmProjects/Reinvent-master-3.2/result/LINK_invent/BTK/process_docking_weight1_custom_sum_contain_oxygen_bond_distance_aromatic_linkinvent_7_9_3/rearranged_h_0060.sdf

> <i_m_source_file_index>
73

> <r_mmod_Potential_Energy-OPLS-2005>
2606.892578125

> <r_mmod_Stretch_Energy-OPLS-2005>
1159.42736816406

> <r_mmod_Bend_Energy-OPLS-2005>
754.468383789062

> <r_mmod_Torsional_Energy-OPLS-2005>
249.255584716797

> <r_mmod_Improper_Torsional_Energy-OPLS-2005>
5.44334173202515

> <r_mmod_Van_der_Waal_Energy-OPLS-2005>
108.603607177734

> <r_mmod_Electrostatic_Energy-OPLS-2005>
-270.530456542969

> <r_mmod_Solvation_Energy-OPLS-2005>
-217.087631225586

> <b_mmod_Minimization_Converged-OPLS-2005>
0

> <r_mmod_RMS_Derivative-OPLS-2005>
3.34895539283752

$$$$
77
                    3D
 Structure written by MMmdl.
155163  0  0  1  0            999 V2000
  -30.7045  -14.4652   20.6392 C   0  0  0  0  0  0
  -30.4301  -12.3253   19.4169 C   0  0  0  0  0  0
  -29.4959  -12.5223   18.2043 C   0  0  0  0  0  0
  -28.0178  -12.3704   18.6141 C   0  0  0  0  0  0
  -27.6635  -13.2017   19.8745 C   0  0  2  0  0  0
  -28.6994  -12.9557   20.9912 C   0  0  0  0  0  0
  -25.2598  -13.8145   20.5666 C   0  0  0  0  0  0
  -24.1840  -13.0428   20.9157 C   0  0  0  0  0  0
  -24.6385  -11.6896   20.8714 C   0  0  0  0  0  0
  -23.9048  -10.4287   21.0392 C   0  0  0  0  0  0
  -24.3605   -9.4208   21.9173 C   0  0  0  0  0  0
  -23.6282   -8.2244   22.0750 C   0  0  0  0  0  0
  -22.4265   -8.0276   21.3542 C   0  0  0  0  0  0
  -21.9894   -9.0245   20.4644 C   0  0  0  0  0  0
  -22.7219  -10.2126   20.3046 C   0  0  0  0  0  0
  -21.6852   -6.0729   22.5280 C   0  0  0  0  0  0
  -21.4013   -6.5634   23.8212 C   0  0  0  0  0  0
  -21.3661   -5.6790   24.9175 C   0  0  0  0  0  0
  -21.6046   -4.3052   24.7228 C   0  0  0  0  0  0
  -21.8818   -3.8141   23.4350 C   0  0  0  0  0  0
  -21.9191   -4.6956   22.3403 C   0  0  0  0  0  0
  -22.7867  -13.5236   21.1828 C   0  0  0  0  0  0
  -22.1661   -4.2140   21.0981 F   0  0  0  0  0  0
  -21.5628   -3.4539   25.7742 F   0  0  0  0  0  0
  -30.0371  -13.2863   20.4622 N   0  0  0  0  0  0
  -26.3026  -12.9306   20.3338 N   0  0  0  0  0  0
  -25.9308  -11.6468   20.5728 N   0  0  0  0  0  0
  -22.0515  -12.8234   22.0397 N   0  0  0  0  0  0
  -25.4324  -15.1864   20.4109 N   0  0  0  0  0  0
  -31.7535  -14.7307   20.0425 O   0  0  0  0  0  0
  -21.6636   -6.8870   21.4240 O   0  0  0  0  0  0
  -22.3551  -14.5544   20.6681 O   0  0  0  0  0  0
  -24.6160  -31.8668   23.2088 C   0  0  0  0  0  0
  -25.9041  -32.4822   23.8394 C   0  0  1  0  0  0
  -27.2355  -27.4257   20.1016 C   0  0  0  0  0  0
  -25.5891  -33.8620   24.2319 N   0  0  0  0  0  0
  -23.4058  -30.4894   21.5497 C   0  0  2  0  0  0
  -24.8546  -28.9545   20.1146 C   0  0  0  0  0  0
  -22.7422  -29.4654   22.4985 C   0  0  0  0  0  0
  -18.0275  -28.1377   22.8497 C   0  0  0  0  0  0
  -24.1495  -36.7325   23.2638 C   0  0  0  0  0  0
  -25.9356  -30.8313   21.3625 C   0  0  0  0  0  0
  -26.0162  -29.4647   20.7102 C   0  0  0  0  0  0
  -27.2132  -28.7084   20.6990 C   0  0  0  0  0  0
  -26.0606  -26.9330   19.4968 C   0  0  0  0  0  0
  -24.8723  -27.6884   19.5034 C   0  0  0  0  0  0
  -23.6152  -29.8207   20.1646 C   0  0  0  0  0  0
  -25.4113  -36.3112   24.0334 C   0  0  1  0  0  0
  -20.5871  -28.3670   23.1317 C   0  0  2  0  0  0
  -20.6766  -26.9402   22.5421 C   0  0  0  0  0  0
  -19.5743  -26.6383   21.5219 C   0  0  0  0  0  0
  -18.1919  -26.7924   22.1626 C   0  0  0  0  0  0
  -19.1526  -28.8837   23.2905 C   0  0  0  0  0  0
  -18.9449  -30.1438   23.8918 C   0  0  0  0  0  0
  -17.6452  -30.6583   24.0564 C   0  0  0  0  0  0
  -25.9034  -34.9474   23.5123 C   0  0  0  0  0  0
  -16.5344  -29.9086   23.6323 C   0  0  0  0  0  0
  -16.7265  -28.6502   23.0351 C   0  0  0  0  0  0
  -26.4465  -31.6610   25.0724 C   0  0  0  0  0  0
  -25.3730  -31.3708   26.1472 C   0  0  0  0  0  0
  -27.0295  -30.3053   24.6098 C   0  0  0  0  0  0
  -27.6047  -32.4325   25.7479 C   0  0  0  0  0  0
  -27.5587  -37.1814   24.8460 C   0  0  0  0  0  0
  -21.4148  -29.3040   22.3723 N   0  0  0  0  0  0
  -26.4303  -37.3791   23.9399 N   0  0  0  0  0  0
  -24.6707  -31.0766   22.0989 N   0  0  0  0  0  0
  -23.4187  -28.8193   23.3026 O   0  0  0  0  0  0
  -28.3755  -26.6484   20.1006 O   0  0  0  0  0  0
  -26.5607  -34.8926   22.4690 O   0  0  0  0  0  0
  -23.5346  -32.1420   23.7474 O   0  0  0  0  0  0
  -29.4009  -21.0052   22.2589 C   0  0  0  0  0  0
  -29.6964  -21.2887   19.9274 C   0  0  0  0  0  0
  -29.3162  -21.8731   21.1564 C   0  0  0  0  0  0
  -30.1878  -19.2874   20.9621 C   0  0  0  0  0  0
  -30.0495  -15.2827   22.8504 C   0  0  0  0  0  0
  -30.7362  -17.8485   20.9118 C   0  0  0  0  0  0
  -29.6473  -16.7382   20.8911 C   0  0  0  0  0  0
  -28.2828  -25.4682   20.9262 C   0  0  0  0  0  0
  -28.8882  -24.1636   20.3312 C   0  0  0  0  0  0
  -29.8335  -19.7319   22.1616 N   0  0  0  0  0  0
  -30.1210  -20.0016   19.8379 N   0  0  0  0  0  0
  -30.0686  -15.4033   21.3887 N   0  0  0  0  0  0
  -28.8733  -23.1720   21.3715 O   0  0  0  0  0  0
  -31.4722  -12.4424   19.1144 H   0  0  0  0  0  0
  -30.3484  -11.3069   19.7995 H   0  0  0  0  0  0
  -29.7406  -11.8047   17.4200 H   0  0  0  0  0  0
  -29.6561  -13.5122   17.7742 H   0  0  0  0  0  0
  -27.8340  -11.3129   18.8067 H   0  0  0  0  0  0
  -27.3651  -12.6451   17.7845 H   0  0  0  0  0  0
  -27.7159  -14.2538   19.5927 H   0  0  0  0  0  0
  -28.6804  -11.9100   21.3014 H   0  0  0  0  0  0
  -28.4233  -13.5181   21.8807 H   0  0  0  0  0  0
  -25.2753   -9.5690   22.4741 H   0  0  0  0  0  0
  -23.9991   -7.4643   22.7478 H   0  0  0  0  0  0
  -21.0819   -8.8761   19.8958 H   0  0  0  0  0  0
  -22.3672  -10.9659   19.6153 H   0  0  0  0  0  0
  -21.2006   -7.6144   23.9710 H   0  0  0  0  0  0
  -21.1485   -6.0523   25.9077 H   0  0  0  0  0  0
  -22.0595   -2.7602   23.2856 H   0  0  0  0  0  0
  -22.4126  -11.9896   22.4789 H   0  0  0  0  0  0
  -21.1136  -13.1266   22.2608 H   0  0  0  0  0  0
  -24.6690  -15.8437   20.5288 H   0  0  0  0  0  0
  -26.2934  -15.6287   20.1144 H   0  0  0  0  0  0
  -26.7121  -32.5533   23.1167 H   0  0  0  0  0  0
  -25.0033  -33.9787   25.0458 H   0  0  0  0  0  0
  -22.6954  -31.3071   21.4098 H   0  0  0  0  0  0
  -23.3746  -35.9669   23.3306 H   0  0  0  0  0  0
  -24.3585  -36.8938   22.2051 H   0  0  0  0  0  0
  -23.7266  -37.6538   23.6656 H   0  0  0  0  0  0
  -26.0470  -31.5970   20.5939 H   0  0  0  0  0  0
  -26.8232  -30.8863   21.9814 H   0  0  0  0  0  0
  -28.1108  -29.0954   21.1614 H   0  0  0  0  0  0
  -26.0652  -25.9609   19.0244 H   0  0  0  0  0  0
  -23.9804  -27.2912   19.0378 H   0  0  0  0  0  0
  -23.7205  -30.5958   19.4039 H   0  0  0  0  0  0
  -22.7391  -29.2397   19.8713 H   0  0  0  0  0  0
  -25.1291  -36.1979   25.0828 H   0  0  0  0  0  0
  -20.9964  -28.3239   24.1441 H   0  0  0  0  0  0
  -20.5686  -26.2268   23.3609 H   0  0  0  0  0  0
  -21.6634  -26.7457   22.1204 H   0  0  0  0  0  0
  -19.6907  -25.6299   21.1239 H   0  0  0  0  0  0
  -19.6684  -27.3203   20.6757 H   0  0  0  0  0  0
  -17.4193  -26.6683   21.4020 H   0  0  0  0  0  0
  -18.0310  -26.0060   22.9017 H   0  0  0  0  0  0
  -19.7928  -30.7240   24.2310 H   0  0  0  0  0  0
  -17.5013  -31.6273   24.5152 H   0  0  0  0  0  0
  -15.5343  -30.2995   23.7637 H   0  0  0  0  0  0
  -15.8666  -28.0827   22.7059 H   0  0  0  0  0  0
  -24.5899  -30.7058   25.7803 H   0  0  0  0  0  0
  -24.8913  -32.2854   26.4946 H   0  0  0  0  0  0
  -25.8075  -30.8858   27.0225 H   0  0  0  0  0  0
  -26.2837  -29.6813   24.1154 H   0  0  0  0  0  0
  -27.4076  -29.7286   25.4554 H   0  0  0  0  0  0
  -27.8671  -30.4375   23.9241 H   0  0  0  0  0  0
  -27.2686  -33.3625   26.2082 H   0  0  0  0  0  0
  -28.3843  -32.6887   25.0291 H   0  0  0  0  0  0
  -28.0737  -31.8433   26.5373 H   0  0  0  0  0  0
  -28.2602  -38.0113   24.7508 H   0  0  0  0  0  0
  -28.1087  -36.2641   24.6289 H   0  0  0  0  0  0
  -27.2299  -37.1473   25.8862 H   0  0  0  0  0  0
  -20.9305  -29.8780   21.6965 H   0  0  0  0  0  0
  -26.0194  -38.2872   24.1387 H   0  0  0  0  0  0
  -29.1251  -21.3436   23.2467 H   0  0  0  0  0  0
  -29.6642  -21.8475   19.0037 H   0  0  0  0  0  0
  -29.0493  -15.4779   23.2400 H   0  0  0  0  0  0
  -30.7331  -15.9991   23.3067 H   0  0  0  0  0  0
  -30.3447  -14.2881   23.1914 H   0  0  0  0  0  0
  -31.3804  -17.7187   21.7816 H   0  0  0  0  0  0
  -31.3904  -17.7384   20.0461 H   0  0  0  0  0  0
  -29.2387  -16.6495   19.8833 H   0  0  0  0  0  0
  -28.8106  -17.0669   21.5089 H   0  0  0  0  0  0
  -28.8085  -25.6997   21.8531 H   0  0  0  0  0  0
  -27.2536  -25.2593   21.2251 H   0  0  0  0  0  0
  -29.9128  -24.3392   20.0005 H   0  0  0  0  0  0
  -28.3060  -23.8366   19.4691 H   0  0  0  0  0  0
  1 25  1  0  0  0
  1 30  2  0  0  0
  1 82  1  0  0  0
  2  3  1  0  0  0
  2 25  1  0  0  0
  2 84  1  0  0  0
  2 85  1  0  0  0
  3  4  1  0  0  0
  3 86  1  0  0  0
  3 87  1  0  0  0
  4  5  1  0  0  0
  4 88  1  0  0  0
  4 89  1  0  0  0
  5  6  1  0  0  0
  5 26  1  0  0  0
  5 90  1  0  0  0
  6 25  1  0  0  0
  6 91  1  0  0  0
  6 92  1  0  0  0
  7  8  2  0  0  0
  7 26  1  0  0  0
  7 29  1  0  0  0
  8  9  1  0  0  0
  8 22  1  0  0  0
  9 10  1  0  0  0
  9 27  2  0  0  0
 10 11  2  0  0  0
 10 15  1  0  0  0
 11 12  1  0  0  0
 11 93  1  0  0  0
 12 13  2  0  0  0
 12 94  1  0  0  0
 13 14  1  0  0  0
 13 31  1  0  0  0
 14 15  2  0  0  0
 14 95  1  0  0  0
 15 96  1  0  0  0
 16 17  2  0  0  0
 16 21  1  0  0  0
 16 31  1  0  0  0
 17 18  1  0  0  0
 17 97  1  0  0  0
 18 19  2  0  0  0
 18 98  1  0  0  0
 19 20  1  0  0  0
 19 24  1  0  0  0
 20 21  2  0  0  0
 20 99  1  0  0  0
 21 23  1  0  0  0
 22 28  1  0  0  0
 22 32  2  0  0  0
 26 27  1  0  0  0
 28100  1  0  0  0
 28101  1  0  0  0
 29102  1  0  0  0
 29103  1  0  0  0
 33 34  1  0  0  0
 33 66  1  0  0  0
 33 70  2  0  0  0
 34 36  1  0  0  0
 34 59  1  0  0  0
 34104  1  0  0  0
 35 44  2  0  0  0
 35 45  1  0  0  0
 35 68  1  0  0  0
 36 56  1  0  0  0
 36105  1  0  0  0
 37 39  1  0  0  0
 37 47  1  0  0  0
 37 66  1  0  0  0
 37106  1  0  0  0
 38 43  2  0  0  0
 38 46  1  0  0  0
 38 47  1  0  0  0
 39 64  1  0  0  0
 39 67  2  0  0  0
 40 52  1  0  0  0
 40 53  2  0  0  0
 40 58  1  0  0  0
 41107  1  0  0  0
 41108  1  0  0  0
 41109  1  0  0  0
 41 48  1  0  0  0
 42 43  1  0  0  0
 42 66  1  0  0  0
 42110  1  0  0  0
 42111  1  0  0  0
 43 44  1  0  0  0
 44112  1  0  0  0
 45 46  2  0  0  0
 45113  1  0  0  0
 46114  1  0  0  0
 47115  1  0  0  0
 47116  1  0  0  0
 48 56  1  0  0  0
 48 65  1  0  0  0
 48117  1  0  0  0
 49 50  1  0  0  0
 49 53  1  0  0  0
 49 64  1  0  0  0
 49118  1  0  0  0
 50 51  1  0  0  0
 50119  1  0  0  0
 50120  1  0  0  0
 51 52  1  0  0  0
 51121  1  0  0  0
 51122  1  0  0  0
 52123  1  0  0  0
 52124  1  0  0  0
 53 54  1  0  0  0
 54 55  2  0  0  0
 54125  1  0  0  0
 55 57  1  0  0  0
 55126  1  0  0  0
 56 69  2  0  0  0
 57 58  2  0  0  0
 57127  1  0  0  0
 58128  1  0  0  0
 59 60  1  0  0  0
 59 61  1  0  0  0
 59 62  1  0  0  0
 60129  1  0  0  0
 60130  1  0  0  0
 60131  1  0  0  0
 61132  1  0  0  0
 61133  1  0  0  0
 61134  1  0  0  0
 62135  1  0  0  0
 62136  1  0  0  0
 62137  1  0  0  0
 63 65  1  0  0  0
 63138  1  0  0  0
 63139  1  0  0  0
 63140  1  0  0  0
 64141  1  0  0  0
 65142  1  0  0  0
 68 78  1  0  0  0
 71 73  2  0  0  0
 71 80  1  0  0  0
 71143  1  0  0  0
 72 73  1  0  0  0
 72 81  2  0  0  0
 72144  1  0  0  0
 73 83  1  0  0  0
 74 76  1  0  0  0
 74 80  2  0  0  0
 74 81  1  0  0  0
 75 82  1  0  0  0
 75145  1  0  0  0
 75146  1  0  0  0
 75147  1  0  0  0
 76 77  1  0  0  0
 76148  1  0  0  0
 76149  1  0  0  0
 77 82  1  0  0  0
 77150  1  0  0  0
 77151  1  0  0  0
 78 79  1  0  0  0
 78152  1  0  0  0
 78153  1  0  0  0
 79 83  1  0  0  0
 79154  1  0  0  0
 79155  1  0  0  0
M  ISO  4   1 100  68 101  78 101  82 100
M  END
> <chiral flag>
0

> <version>
0

> <s_m_source_file>
/data/baiqing/PycharmProjects/Reinvent-master-3.2/result/LINK_invent/BTK/process_docking_weight1_custom_sum_contain_oxygen_bond_distance_aromatic_linkinvent_7_9_3/rearranged_h_0060.sdf

> <i_m_source_file_index>
74

> <r_mmod_Potential_Energy-OPLS-2005>
-197.309783935547

> <r_mmod_Stretch_Energy-OPLS-2005>
42.2758979797363

> <r_mmod_Bend_Energy-OPLS-2005>
113.049446105957

> <r_mmod_Torsional_Energy-OPLS-2005>
291.994293212891

> <r_mmod_Improper_Torsional_Energy-OPLS-2005>
3.90377497673035

> <r_mmod_Van_der_Waal_Energy-OPLS-2005>
153.944808959961

> <r_mmod_Electrostatic_Energy-OPLS-2005>
-598.122497558594

> <r_mmod_Solvation_Energy-OPLS-2005>
-216.722778320312

> <b_mmod_Minimization_Converged-OPLS-2005>
0

> <r_mmod_RMS_Derivative-OPLS-2005>
0.990393817424774

$$$$
78
                    3D
 Structure written by MMmdl.
147155  0  0  1  0            999 V2000
  -30.5232  -15.0412   20.3840 C   0  0  0  0  0  0
  -30.4481  -12.6509   19.5092 C   0  0  0  0  0  0
  -29.5369  -12.5342   18.2678 C   0  0  0  0  0  0
  -28.0679  -12.3274   18.6787 C   0  0  0  0  0  0
  -27.6261  -13.2698   19.8294 C   0  0  2  0  0  0
  -28.6676  -13.3529   20.9656 C   0  0  0  0  0  0
  -25.2445  -13.8265   20.5726 C   0  0  0  0  0  0
  -24.1772  -13.0434   20.9216 C   0  0  0  0  0  0
  -24.6454  -11.6942   20.8751 C   0  0  0  0  0  0
  -23.9152  -10.4289   21.0386 C   0  0  0  0  0  0
  -24.3670   -9.4215   21.9178 C   0  0  0  0  0  0
  -23.6332   -8.2262   22.0757 C   0  0  0  0  0  0
  -22.4314   -8.0305   21.3558 C   0  0  0  0  0  0
  -21.9950   -9.0280   20.4650 C   0  0  0  0  0  0
  -22.7301  -10.2161   20.3051 C   0  0  0  0  0  0
  -21.6865   -6.0757   22.5269 C   0  0  0  0  0  0
  -21.4030   -6.5650   23.8215 C   0  0  0  0  0  0
  -21.3657   -5.6793   24.9164 C   0  0  0  0  0  0
  -21.6061   -4.3056   24.7205 C   0  0  0  0  0  0
  -21.8813   -3.8159   23.4318 C   0  0  0  0  0  0
  -21.9207   -4.6985   22.3394 C   0  0  0  0  0  0
  -22.7799  -13.5191   21.1844 C   0  0  0  0  0  0
  -22.1665   -4.2178   21.0970 F   0  0  0  0  0  0
  -21.5618   -3.4539   25.7717 F   0  0  0  0  0  0
  -29.9343  -13.7724   20.3502 N   0  0  0  0  0  0
  -26.2890  -12.9541   20.3211 N   0  0  0  0  0  0
  -25.9390  -11.6661   20.5714 N   0  0  0  0  0  0
  -22.0473  -12.8197   22.0431 N   0  0  0  0  0  0
  -25.4054  -15.2004   20.4195 N   0  0  0  0  0  0
  -31.7361  -15.0830   20.1494 O   0  0  0  0  0  0
  -21.6663   -6.8916   21.4244 O   0  0  0  0  0  0
  -22.3488  -14.5473   20.6669 O   0  0  0  0  0  0
  -24.6469  -31.8420   23.1891 C   0  0  0  0  0  0
  -25.9225  -32.4680   23.8295 C   0  0  1  0  0  0
  -27.2200  -27.1029   20.1605 C   0  0  0  0  0  0
  -25.5988  -33.8503   24.2205 N   0  0  0  0  0  0
  -23.4543  -30.4603   21.5333 C   0  0  2  0  0  0
  -24.9076  -28.8865   20.1083 C   0  0  0  0  0  0
  -22.7593  -29.4522   22.4834 C   0  0  0  0  0  0
  -18.0303  -28.1417   22.8450 C   0  0  0  0  0  0
  -24.1495  -36.7237   23.2653 C   0  0  0  0  0  0
  -26.0144  -30.7073   21.3931 C   0  0  0  0  0  0
  -26.0862  -29.3158   20.7309 C   0  0  0  0  0  0
  -27.2434  -28.4431   20.7371 C   0  0  0  0  0  0
  -26.0138  -26.7887   19.4929 C   0  0  0  0  0  0
  -24.8891  -27.6401   19.4686 C   0  0  0  0  0  0
  -23.6859  -29.7917   20.1510 C   0  0  0  0  0  0
  -25.4130  -36.3031   24.0321 C   0  0  1  0  0  0
  -20.5924  -28.3733   23.1231 C   0  0  2  0  0  0
  -20.6784  -26.9437   22.5391 C   0  0  0  0  0  0
  -19.5765  -26.6392   21.5200 C   0  0  0  0  0  0
  -18.1950  -26.7956   22.1600 C   0  0  0  0  0  0
  -19.1559  -28.8892   23.2839 C   0  0  0  0  0  0
  -18.9478  -30.1497   23.8880 C   0  0  0  0  0  0
  -17.6469  -30.6603   24.0562 C   0  0  0  0  0  0
  -25.9067  -34.9403   23.5070 C   0  0  0  0  0  0
  -16.5362  -29.9101   23.6341 C   0  0  0  0  0  0
  -16.7288  -28.6524   23.0346 C   0  0  0  0  0  0
  -26.4543  -31.6574   25.0761 C   0  0  0  0  0  0
  -25.3745  -31.3759   26.1461 C   0  0  0  0  0  0
  -27.0417  -30.2969   24.6375 C   0  0  0  0  0  0
  -27.6070  -32.4356   25.7541 C   0  0  0  0  0  0
  -27.5565  -37.1777   24.8468 C   0  0  0  0  0  0
  -21.4281  -29.3060   22.3608 N   0  0  0  0  0  0
  -26.4274  -37.3742   23.9408 N   0  0  0  0  0  0
  -24.7259  -31.0235   22.0928 N   0  0  0  0  0  0
  -23.4210  -28.8049   23.2993 O   0  0  0  0  0  0
  -28.2514  -26.0833   20.2439 O   0  0  0  0  0  0
  -26.5637  -34.8904   22.4637 O   0  0  0  0  0  0
  -23.5571  -32.1303   23.7069 O   0  0  0  0  0  0
  -30.1447  -23.3861   20.9917 C   0  0  0  0  0  0
  -28.8797  -23.2268   20.3958 C   0  0  0  0  0  0
  -29.3985  -20.7790   20.4525 C   0  0  0  0  0  0
  -27.9089  -24.5503   20.1122 C   0  0  0  0  0  0
  -30.1108  -17.8158   20.4167 C   0  0  0  0  0  0
  -29.0241  -19.1416   20.3397 C   0  0  0  0  0  0
  -30.9471  -22.3239   21.2896 N   0  0  0  0  0  0
  -28.5331  -21.8584   20.1413 N   0  0  0  0  0  0
  -30.5790  -21.0483   21.0413 N   0  0  0  0  0  0
  -29.7508  -16.2477   20.4772 N   0  0  0  0  0  0
  -28.1223  -18.9083   21.2960 F   0  0  0  0  0  0
  -28.3882  -19.0002   19.1742 F   0  0  0  0  0  0
  -31.4791  -12.8244   19.1931 H   0  0  0  0  0  0
  -30.4682  -11.7238   20.0824 H   0  0  0  0  0  0
  -29.8704  -11.7123   17.6344 H   0  0  0  0  0  0
  -29.6309  -13.4423   17.6710 H   0  0  0  0  0  0
  -27.9561  -11.2888   18.9881 H   0  0  0  0  0  0
  -27.4168  -12.4591   17.8143 H   0  0  0  0  0  0
  -27.5710  -14.2616   19.3801 H   0  0  0  0  0  0
  -28.7781  -12.4021   21.4897 H   0  0  0  0  0  0
  -28.3532  -14.0897   21.7077 H   0  0  0  0  0  0
  -25.2834   -9.5679   22.4738 H   0  0  0  0  0  0
  -24.0030   -7.4665   22.7485 H   0  0  0  0  0  0
  -21.0879   -8.8842   19.8963 H   0  0  0  0  0  0
  -22.3790  -10.9703   19.6152 H   0  0  0  0  0  0
  -21.2038   -7.6162   23.9726 H   0  0  0  0  0  0
  -21.1473   -6.0515   25.9070 H   0  0  0  0  0  0
  -22.0600   -2.7623   23.2816 H   0  0  0  0  0  0
  -22.4101  -11.9900   22.4857 H   0  0  0  0  0  0
  -21.1095  -13.1213   22.2599 H   0  0  0  0  0  0
  -24.6308  -15.8438   20.5392 H   0  0  0  0  0  0
  -26.2448  -15.6568   20.0853 H   0  0  0  0  0  0
  -26.7319  -32.5267   23.1042 H   0  0  0  0  0  0
  -25.0181  -33.9633   25.0382 H   0  0  0  0  0  0
  -22.7611  -31.2900   21.3765 H   0  0  0  0  0  0
  -23.3748  -35.9569   23.3321 H   0  0  0  0  0  0
  -24.3562  -36.8847   22.2059 H   0  0  0  0  0  0
  -23.7237  -37.6439   23.6674 H   0  0  0  0  0  0
  -26.1809  -31.4643   20.6239 H   0  0  0  0  0  0
  -26.8793  -30.7503   22.0441 H   0  0  0  0  0  0
  -28.1384  -28.7706   21.2496 H   0  0  0  0  0  0
  -25.8989  -25.8338   19.0025 H   0  0  0  0  0  0
  -23.9901  -27.3133   18.9672 H   0  0  0  0  0  0
  -23.8351  -30.5698   19.4019 H   0  0  0  0  0  0
  -22.7993  -29.2432   19.8248 H   0  0  0  0  0  0
  -25.1311  -36.1860   25.0803 H   0  0  0  0  0  0
  -21.0016  -28.3327   24.1350 H   0  0  0  0  0  0
  -20.5686  -26.2351   23.3606 H   0  0  0  0  0  0
  -21.6657  -26.7446   22.1200 H   0  0  0  0  0  0
  -19.6941  -25.6304   21.1248 H   0  0  0  0  0  0
  -19.6725  -27.3181   20.6739 H   0  0  0  0  0  0
  -17.4213  -26.6699   21.4008 H   0  0  0  0  0  0
  -18.0363  -26.0110   22.9024 H   0  0  0  0  0  0
  -19.7958  -30.7317   24.2234 H   0  0  0  0  0  0
  -17.5024  -31.6271   24.5193 H   0  0  0  0  0  0
  -15.5369  -30.2990   23.7693 H   0  0  0  0  0  0
  -15.8686  -28.0846   22.7069 H   0  0  0  0  0  0
  -24.5942  -30.7083   25.7793 H   0  0  0  0  0  0
  -24.8917  -32.2928   26.4850 H   0  0  0  0  0  0
  -25.8049  -30.8971   27.0260 H   0  0  0  0  0  0
  -26.3056  -29.6684   24.1354 H   0  0  0  0  0  0
  -27.3978  -29.7293   25.4976 H   0  0  0  0  0  0
  -27.8982  -30.4190   23.9750 H   0  0  0  0  0  0
  -27.2666  -33.3674   26.2064 H   0  0  0  0  0  0
  -28.3905  -32.6871   25.0387 H   0  0  0  0  0  0
  -28.0718  -31.8522   26.5489 H   0  0  0  0  0  0
  -28.2590  -38.0075   24.7488 H   0  0  0  0  0  0
  -28.1062  -36.2584   24.6326 H   0  0  0  0  0  0
  -27.2279  -37.1471   25.8880 H   0  0  0  0  0  0
  -20.9512  -29.8822   21.6798 H   0  0  0  0  0  0
  -26.0142  -38.2803   24.1413 H   0  0  0  0  0  0
  -30.5184  -24.3685   21.2429 H   0  0  0  0  0  0
  -27.0459  -24.3913   20.7575 H   0  0  0  0  0  0
  -27.5560  -24.4016   19.0944 H   0  0  0  0  0  0
  -30.7275  -17.9939   21.2991 H   0  0  0  0  0  0
  -30.7982  -17.9373   19.5803 H   0  0  0  0  0  0
  -28.7643  -16.0757   20.6116 H   0  0  0  0  0  0
  1 25  1  0  0  0
  1 30  2  0  0  0
  1 80  1  0  0  0
  2  3  1  0  0  0
  2 25  1  0  0  0
  2 83  1  0  0  0
  2 84  1  0  0  0
  3  4  1  0  0  0
  3 85  1  0  0  0
  3 86  1  0  0  0
  4  5  1  0  0  0
  4 87  1  0  0  0
  4 88  1  0  0  0
  5  6  1  0  0  0
  5 26  1  0  0  0
  5 89  1  0  0  0
  6 25  1  0  0  0
  6 90  1  0  0  0
  6 91  1  0  0  0
  7  8  2  0  0  0
  7 26  1  0  0  0
  7 29  1  0  0  0
  8  9  1  0  0  0
  8 22  1  0  0  0
  9 10  1  0  0  0
  9 27  2  0  0  0
 10 11  2  0  0  0
 10 15  1  0  0  0
 11 12  1  0  0  0
 11 92  1  0  0  0
 12 13  2  0  0  0
 12 93  1  0  0  0
 13 14  1  0  0  0
 13 31  1  0  0  0
 14 15  2  0  0  0
 14 94  1  0  0  0
 15 95  1  0  0  0
 16 17  2  0  0  0
 16 21  1  0  0  0
 16 31  1  0  0  0
 17 18  1  0  0  0
 17 96  1  0  0  0
 18 19  2  0  0  0
 18 97  1  0  0  0
 19 20  1  0  0  0
 19 24  1  0  0  0
 20 21  2  0  0  0
 20 98  1  0  0  0
 21 23  1  0  0  0
 22 28  1  0  0  0
 22 32  2  0  0  0
 26 27  1  0  0  0
 28 99  1  0  0  0
 28100  1  0  0  0
 29101  1  0  0  0
 29102  1  0  0  0
 33 34  1  0  0  0
 33 66  1  0  0  0
 33 70  2  0  0  0
 34 36  1  0  0  0
 34 59  1  0  0  0
 34103  1  0  0  0
 35 44  2  0  0  0
 35 45  1  0  0  0
 35 68  1  0  0  0
 36 56  1  0  0  0
 36104  1  0  0  0
 37 39  1  0  0  0
 37 47  1  0  0  0
 37 66  1  0  0  0
 37105  1  0  0  0
 38 43  2  0  0  0
 38 46  1  0  0  0
 38 47  1  0  0  0
 39 64  1  0  0  0
 39 67  2  0  0  0
 40 52  1  0  0  0
 40 53  2  0  0  0
 40 58  1  0  0  0
 41106  1  0  0  0
 41107  1  0  0  0
 41108  1  0  0  0
 41 48  1  0  0  0
 42 43  1  0  0  0
 42 66  1  0  0  0
 42109  1  0  0  0
 42110  1  0  0  0
 43 44  1  0  0  0
 44111  1  0  0  0
 45 46  2  0  0  0
 45112  1  0  0  0
 46113  1  0  0  0
 47114  1  0  0  0
 47115  1  0  0  0
 48 56  1  0  0  0
 48 65  1  0  0  0
 48116  1  0  0  0
 49 50  1  0  0  0
 49 53  1  0  0  0
 49 64  1  0  0  0
 49117  1  0  0  0
 50 51  1  0  0  0
 50118  1  0  0  0
 50119  1  0  0  0
 51 52  1  0  0  0
 51120  1  0  0  0
 51121  1  0  0  0
 52122  1  0  0  0
 52123  1  0  0  0
 53 54  1  0  0  0
 54 55  2  0  0  0
 54124  1  0  0  0
 55 57  1  0  0  0
 55125  1  0  0  0
 56 69  2  0  0  0
 57 58  2  0  0  0
 57126  1  0  0  0
 58127  1  0  0  0
 59 60  1  0  0  0
 59 61  1  0  0  0
 59 62  1  0  0  0
 60128  1  0  0  0
 60129  1  0  0  0
 60130  1  0  0  0
 61131  1  0  0  0
 61132  1  0  0  0
 61133  1  0  0  0
 62134  1  0  0  0
 62135  1  0  0  0
 62136  1  0  0  0
 63 65  1  0  0  0
 63137  1  0  0  0
 63138  1  0  0  0
 63139  1  0  0  0
 64140  1  0  0  0
 65141  1  0  0  0
 68 74  1  0  0  0
 71 72  2  0  0  0
 71 77  1  0  0  0
 71142  1  0  0  0
 72 74  1  0  0  0
 72 78  1  0  0  0
 73 76  1  0  0  0
 73 78  2  0  0  0
 73 79  1  0  0  0
 74143  1  0  0  0
 74144  1  0  0  0
 75 76  1  0  0  0
 75 80  1  0  0  0
 75145  1  0  0  0
 75146  1  0  0  0
 76 81  1  0  0  0
 76 82  1  0  0  0
 77 79  2  0  0  0
 80147  1  0  0  0
M  ISO  4   1 100  68 101  74 101  80 100
M  END
> <chiral flag>
0

> <version>
0

> <s_m_source_file>
/data/baiqing/PycharmProjects/Reinvent-master-3.2/result/LINK_invent/BTK/process_docking_weight1_custom_sum_contain_oxygen_bond_distance_aromatic_linkinvent_7_9_3/rearranged_h_0060.sdf

> <i_m_source_file_index>
75

> <r_mmod_Potential_Energy-OPLS-2005>
637.868896484375

> <r_mmod_Stretch_Energy-OPLS-2005>
316.241729736328

> <r_mmod_Bend_Energy-OPLS-2005>
274.333038330078

> <r_mmod_Torsional_Energy-OPLS-2005>
224.803848266602

> <r_mmod_Improper_Torsional_Energy-OPLS-2005>
4.72658729553223

> <r_mmod_Van_der_Waal_Energy-OPLS-2005>
133.974212646484

> <r_mmod_Electrostatic_Energy-OPLS-2005>
-330.363494873047

> <r_mmod_Solvation_Energy-OPLS-2005>
-236.235321044922

> <b_mmod_Minimization_Converged-OPLS-2005>
0

> <r_mmod_RMS_Derivative-OPLS-2005>
4.18394565582275

$$$$
79
                    3D
 Structure written by MMmdl.
158166  0  0  1  0            999 V2000
  -30.5349  -15.0432   20.3780 C   0  0  0  0  0  0
  -30.4395  -12.6435   19.5132 C   0  0  0  0  0  0
  -29.5251  -12.5382   18.2695 C   0  0  0  0  0  0
  -28.0681  -12.2980   18.7010 C   0  0  0  0  0  0
  -27.6287  -13.2570   19.8367 C   0  0  2  0  0  0
  -28.6726  -13.3470   20.9729 C   0  0  0  0  0  0
  -25.2510  -13.8224   20.5783 C   0  0  0  0  0  0
  -24.1802  -13.0448   20.9283 C   0  0  0  0  0  0
  -24.6417  -11.6960   20.8733 C   0  0  0  0  0  0
  -23.9087  -10.4319   21.0377 C   0  0  0  0  0  0
  -24.3620   -9.4249   21.9162 C   0  0  0  0  0  0
  -23.6300   -8.2267   22.0741 C   0  0  0  0  0  0
  -22.4268   -8.0280   21.3558 C   0  0  0  0  0  0
  -21.9913   -9.0236   20.4652 C   0  0  0  0  0  0
  -22.7236  -10.2129   20.3063 C   0  0  0  0  0  0
  -21.6842   -6.0730   22.5274 C   0  0  0  0  0  0
  -21.4013   -6.5641   23.8206 C   0  0  0  0  0  0
  -21.3682   -5.6807   24.9176 C   0  0  0  0  0  0
  -21.6046   -4.3058   24.7230 C   0  0  0  0  0  0
  -21.8820   -3.8145   23.4341 C   0  0  0  0  0  0
  -21.9206   -4.6965   22.3405 C   0  0  0  0  0  0
  -22.7825  -13.5251   21.1877 C   0  0  0  0  0  0
  -22.1671   -4.2154   21.0984 F   0  0  0  0  0  0
  -21.5637   -3.4542   25.7742 F   0  0  0  0  0  0
  -29.9375  -13.7719   20.3598 N   0  0  0  0  0  0
  -26.2923  -12.9464   20.3294 N   0  0  0  0  0  0
  -25.9370  -11.6599   20.5738 N   0  0  0  0  0  0
  -22.0458  -12.8219   22.0434 N   0  0  0  0  0  0
  -25.4145  -15.1930   20.4241 N   0  0  0  0  0  0
  -31.7356  -15.0792   20.0980 O   0  0  0  0  0  0
  -21.6661   -6.8850   21.4220 O   0  0  0  0  0  0
  -22.3523  -14.5542   20.6710 O   0  0  0  0  0  0
  -24.6468  -31.8401   23.1836 C   0  0  0  0  0  0
  -25.9220  -32.4674   23.8238 C   0  0  1  0  0  0
  -27.2709  -27.1105   20.1542 C   0  0  0  0  0  0
  -25.5938  -33.8472   24.2148 N   0  0  0  0  0  0
  -23.4578  -30.4557   21.5263 C   0  0  2  0  0  0
  -24.9242  -28.8790   20.1138 C   0  0  0  0  0  0
  -22.7626  -29.4533   22.4821 C   0  0  0  0  0  0
  -18.0378  -28.1383   22.8534 C   0  0  0  0  0  0
  -24.1491  -36.7250   23.2636 C   0  0  0  0  0  0
  -26.0175  -30.7094   21.3905 C   0  0  0  0  0  0
  -26.1031  -29.3155   20.7341 C   0  0  0  0  0  0
  -27.2707  -28.4511   20.7402 C   0  0  0  0  0  0
  -26.0618  -26.8010   19.4796 C   0  0  0  0  0  0
  -24.9195  -27.6328   19.4726 C   0  0  0  0  0  0
  -23.6943  -29.7756   20.1512 C   0  0  0  0  0  0
  -25.4133  -36.2996   24.0290 C   0  0  1  0  0  0
  -20.5974  -28.3772   23.1247 C   0  0  2  0  0  0
  -20.6815  -26.9475   22.5417 C   0  0  0  0  0  0
  -19.5815  -26.6421   21.5221 C   0  0  0  0  0  0
  -18.2024  -26.7933   22.1682 C   0  0  0  0  0  0
  -19.1610  -28.8912   23.2878 C   0  0  0  0  0  0
  -18.9494  -30.1522   23.8873 C   0  0  0  0  0  0
  -17.6464  -30.6581   24.0546 C   0  0  0  0  0  0
  -25.9086  -34.9378   23.5038 C   0  0  0  0  0  0
  -16.5375  -29.9036   23.6314 C   0  0  0  0  0  0
  -16.7356  -28.6463   23.0350 C   0  0  0  0  0  0
  -26.4549  -31.6553   25.0701 C   0  0  0  0  0  0
  -25.3702  -31.3772   26.1376 C   0  0  0  0  0  0
  -27.0421  -30.2914   24.6348 C   0  0  0  0  0  0
  -27.6054  -32.4346   25.7510 C   0  0  0  0  0  0
  -27.5579  -37.1776   24.8462 C   0  0  0  0  0  0
  -21.4320  -29.3084   22.3604 N   0  0  0  0  0  0
  -26.4289  -37.3721   23.9406 N   0  0  0  0  0  0
  -24.7262  -31.0240   22.0875 N   0  0  0  0  0  0
  -23.4265  -28.8077   23.2968 O   0  0  0  0  0  0
  -28.3108  -26.0793   20.2382 O   0  0  0  0  0  0
  -26.5684  -34.8883   22.4625 O   0  0  0  0  0  0
  -23.5569  -32.1261   23.7039 O   0  0  0  0  0  0
  -28.7826  -23.1497   20.1841 C   0  0  0  0  0  0
  -29.2054  -20.8490   20.3476 C   0  0  0  0  0  0
  -25.8576  -22.3530   19.3017 C   0  0  0  0  0  0
  -29.0200  -19.0903   22.1751 C   0  0  0  0  0  0
  -27.6649  -18.6391   20.1907 C   0  0  0  0  0  0
  -27.9653  -24.5855   19.8700 C   0  0  0  0  0  0
  -27.1774  -21.6503   18.9130 C   0  0  0  0  0  0
  -30.0686  -17.8325   20.2098 C   0  0  0  0  0  0
  -29.0389  -19.1613   20.6358 C   0  0  0  0  0  0
  -29.9666  -22.9629   20.7965 N   0  0  0  0  0  0
  -30.2304  -21.5604   20.8744 N   0  0  0  0  0  0
  -28.3216  -21.8505   19.8152 N   0  0  0  0  0  0
  -29.7761  -16.2630   20.4981 N   0  0  0  0  0  0
  -31.4710  -12.7997   19.1995 H   0  0  0  0  0  0
  -30.4480  -11.7052   20.0731 H   0  0  0  0  0  0
  -29.8626  -11.7406   17.6085 H   0  0  0  0  0  0
  -29.5848  -13.4598   17.6905 H   0  0  0  0  0  0
  -28.0096  -11.2678   19.0586 H   0  0  0  0  0  0
  -27.3904  -12.3714   17.8495 H   0  0  0  0  0  0
  -27.5752  -14.2434   19.3773 H   0  0  0  0  0  0
  -28.7808  -12.3964   21.4971 H   0  0  0  0  0  0
  -28.3620  -14.0742   21.7239 H   0  0  0  0  0  0
  -25.2722   -9.5744   22.4786 H   0  0  0  0  0  0
  -24.0016   -7.4663   22.7465 H   0  0  0  0  0  0
  -21.0870   -8.8742   19.8952 H   0  0  0  0  0  0
  -22.3641  -10.9665   19.6210 H   0  0  0  0  0  0
  -21.1970   -7.6147   23.9718 H   0  0  0  0  0  0
  -21.1510   -6.0529   25.9094 H   0  0  0  0  0  0
  -22.0566   -2.7608   23.2848 H   0  0  0  0  0  0
  -22.4059  -11.9889   22.4822 H   0  0  0  0  0  0
  -21.1086  -13.1203   22.2642 H   0  0  0  0  0  0
  -24.6383  -15.8324   20.5590 H   0  0  0  0  0  0
  -26.2649  -15.6427   20.1072 H   0  0  0  0  0  0
  -26.7296  -32.5301   23.0978 H   0  0  0  0  0  0
  -25.0032  -33.9588   25.0248 H   0  0  0  0  0  0
  -22.7609  -31.2812   21.3631 H   0  0  0  0  0  0
  -23.3737  -35.9592   23.3278 H   0  0  0  0  0  0
  -24.3573  -36.8914   22.2055 H   0  0  0  0  0  0
  -23.7260  -37.6436   23.6711 H   0  0  0  0  0  0
  -26.1828  -31.4627   20.6189 H   0  0  0  0  0  0
  -26.8787  -30.7599   22.0453 H   0  0  0  0  0  0
  -28.1630  -28.7980   21.2459 H   0  0  0  0  0  0
  -25.9542  -25.8638   18.9591 H   0  0  0  0  0  0
  -24.0283  -27.2887   18.9693 H   0  0  0  0  0  0
  -23.8234  -30.5434   19.3865 H   0  0  0  0  0  0
  -22.8118  -29.2108   19.8467 H   0  0  0  0  0  0
  -25.1326  -36.1813   25.0775 H   0  0  0  0  0  0
  -21.0124  -28.3334   24.1354 H   0  0  0  0  0  0
  -20.5648  -26.2412   23.3655 H   0  0  0  0  0  0
  -21.6680  -26.7463   22.1236 H   0  0  0  0  0  0
  -19.6990  -25.6350   21.1240 H   0  0  0  0  0  0
  -19.6679  -27.3236   20.6755 H   0  0  0  0  0  0
  -17.4266  -26.6736   21.4093 H   0  0  0  0  0  0
  -18.0458  -26.0044   22.9074 H   0  0  0  0  0  0
  -19.7918  -30.7416   24.2177 H   0  0  0  0  0  0
  -17.4969  -31.6271   24.5144 H   0  0  0  0  0  0
  -15.5356  -30.2891   23.7644 H   0  0  0  0  0  0
  -15.8797  -28.0759   22.7004 H   0  0  0  0  0  0
  -24.5908  -30.7112   25.7678 H   0  0  0  0  0  0
  -24.8889  -32.2970   26.4696 H   0  0  0  0  0  0
  -25.7959  -30.9010   27.0214 H   0  0  0  0  0  0
  -26.3060  -29.6630   24.1337 H   0  0  0  0  0  0
  -27.3946  -29.7256   25.4982 H   0  0  0  0  0  0
  -27.9009  -30.4096   23.9739 H   0  0  0  0  0  0
  -27.2614  -33.3667   26.2011 H   0  0  0  0  0  0
  -28.3917  -32.6877   25.0382 H   0  0  0  0  0  0
  -28.0666  -31.8527   26.5501 H   0  0  0  0  0  0
  -28.2566  -38.0095   24.7508 H   0  0  0  0  0  0
  -28.1099  -36.2626   24.6291 H   0  0  0  0  0  0
  -27.2303  -37.1423   25.8859 H   0  0  0  0  0  0
  -20.9535  -29.8791   21.6783 H   0  0  0  0  0  0
  -26.0141  -38.2775   24.1406 H   0  0  0  0  0  0
  -25.6558  -22.3246   20.3707 H   0  0  0  0  0  0
  -25.0065  -21.8948   18.8024 H   0  0  0  0  0  0
  -25.8109  -23.3905   18.9748 H   0  0  0  0  0  0
  -28.7609  -18.0997   22.5475 H   0  0  0  0  0  0
  -28.3077  -19.8030   22.5896 H   0  0  0  0  0  0
  -30.0045  -19.3413   22.5734 H   0  0  0  0  0  0
  -27.6191  -18.5161   19.1083 H   0  0  0  0  0  0
  -26.8531  -19.2812   20.5372 H   0  0  0  0  0  0
  -27.4758  -17.6470   20.5999 H   0  0  0  0  0  0
  -27.0180  -24.4422   20.3773 H   0  0  0  0  0  0
  -27.7816  -24.5943   18.7965 H   0  0  0  0  0  0
  -27.4845  -21.9743   17.9176 H   0  0  0  0  0  0
  -26.9845  -20.5972   18.7777 H   0  0  0  0  0  0
  -30.2127  -17.8825   19.1279 H   0  0  0  0  0  0
  -31.0579  -18.0356   20.6174 H   0  0  0  0  0  0
  -28.8124  -16.0754   20.7243 H   0  0  0  0  0  0
  1 25  1  0  0  0
  1 30  2  0  0  0
  1 83  1  0  0  0
  2  3  1  0  0  0
  2 25  1  0  0  0
  2 84  1  0  0  0
  2 85  1  0  0  0
  3  4  1  0  0  0
  3 86  1  0  0  0
  3 87  1  0  0  0
  4  5  1  0  0  0
  4 88  1  0  0  0
  4 89  1  0  0  0
  5  6  1  0  0  0
  5 26  1  0  0  0
  5 90  1  0  0  0
  6 25  1  0  0  0
  6 91  1  0  0  0
  6 92  1  0  0  0
  7  8  2  0  0  0
  7 26  1  0  0  0
  7 29  1  0  0  0
  8  9  1  0  0  0
  8 22  1  0  0  0
  9 10  1  0  0  0
  9 27  2  0  0  0
 10 11  2  0  0  0
 10 15  1  0  0  0
 11 12  1  0  0  0
 11 93  1  0  0  0
 12 13  2  0  0  0
 12 94  1  0  0  0
 13 14  1  0  0  0
 13 31  1  0  0  0
 14 15  2  0  0  0
 14 95  1  0  0  0
 15 96  1  0  0  0
 16 17  2  0  0  0
 16 21  1  0  0  0
 16 31  1  0  0  0
 17 18  1  0  0  0
 17 97  1  0  0  0
 18 19  2  0  0  0
 18 98  1  0  0  0
 19 20  1  0  0  0
 19 24  1  0  0  0
 20 21  2  0  0  0
 20 99  1  0  0  0
 21 23  1  0  0  0
 22 28  1  0  0  0
 22 32  2  0  0  0
 26 27  1  0  0  0
 28100  1  0  0  0
 28101  1  0  0  0
 29102  1  0  0  0
 29103  1  0  0  0
 33 34  1  0  0  0
 33 66  1  0  0  0
 33 70  2  0  0  0
 34 36  1  0  0  0
 34 59  1  0  0  0
 34104  1  0  0  0
 35 44  2  0  0  0
 35 45  1  0  0  0
 35 68  1  0  0  0
 36 56  1  0  0  0
 36105  1  0  0  0
 37 39  1  0  0  0
 37 47  1  0  0  0
 37 66  1  0  0  0
 37106  1  0  0  0
 38 43  2  0  0  0
 38 46  1  0  0  0
 38 47  1  0  0  0
 39 64  1  0  0  0
 39 67  2  0  0  0
 40 52  1  0  0  0
 40 53  2  0  0  0
 40 58  1  0  0  0
 41107  1  0  0  0
 41108  1  0  0  0
 41109  1  0  0  0
 41 48  1  0  0  0
 42 43  1  0  0  0
 42 66  1  0  0  0
 42110  1  0  0  0
 42111  1  0  0  0
 43 44  1  0  0  0
 44112  1  0  0  0
 45 46  2  0  0  0
 45113  1  0  0  0
 46114  1  0  0  0
 47115  1  0  0  0
 47116  1  0  0  0
 48 56  1  0  0  0
 48 65  1  0  0  0
 48117  1  0  0  0
 49 50  1  0  0  0
 49 53  1  0  0  0
 49 64  1  0  0  0
 49118  1  0  0  0
 50 51  1  0  0  0
 50119  1  0  0  0
 50120  1  0  0  0
 51 52  1  0  0  0
 51121  1  0  0  0
 51122  1  0  0  0
 52123  1  0  0  0
 52124  1  0  0  0
 53 54  1  0  0  0
 54 55  2  0  0  0
 54125  1  0  0  0
 55 57  1  0  0  0
 55126  1  0  0  0
 56 69  2  0  0  0
 57 58  2  0  0  0
 57127  1  0  0  0
 58128  1  0  0  0
 59 60  1  0  0  0
 59 61  1  0  0  0
 59 62  1  0  0  0
 60129  1  0  0  0
 60130  1  0  0  0
 60131  1  0  0  0
 61132  1  0  0  0
 61133  1  0  0  0
 61134  1  0  0  0
 62135  1  0  0  0
 62136  1  0  0  0
 62137  1  0  0  0
 63 65  1  0  0  0
 63138  1  0  0  0
 63139  1  0  0  0
 63140  1  0  0  0
 64141  1  0  0  0
 65142  1  0  0  0
 68 76  1  0  0  0
 71 76  1  0  0  0
 71 80  2  0  0  0
 71 82  1  0  0  0
 72 79  1  0  0  0
 72 81  2  0  0  0
 72 82  1  0  0  0
 73 77  1  0  0  0
 73143  1  0  0  0
 73144  1  0  0  0
 73145  1  0  0  0
 74146  1  0  0  0
 74147  1  0  0  0
 74148  1  0  0  0
 74 79  1  0  0  0
 75 79  1  0  0  0
 75149  1  0  0  0
 75150  1  0  0  0
 75151  1  0  0  0
 76152  1  0  0  0
 76153  1  0  0  0
 77 82  1  0  0  0
 77154  1  0  0  0
 77155  1  0  0  0
 78 79  1  0  0  0
 78 83  1  0  0  0
 78156  1  0  0  0
 78157  1  0  0  0
 80 81  1  0  0  0
 83158  1  0  0  0
M  ISO  4   1 100  68 101  76 101  83 100
M  END
> <chiral flag>
0

> <version>
0

> <s_m_source_file>
/data/baiqing/PycharmProjects/Reinvent-master-3.2/result/LINK_invent/BTK/process_docking_weight1_custom_sum_contain_oxygen_bond_distance_aromatic_linkinvent_7_9_3/rearranged_h_0060.sdf

> <i_m_source_file_index>
76

> <r_mmod_Potential_Energy-OPLS-2005>
768.173522949219

> <r_mmod_Stretch_Energy-OPLS-2005>
379.243682861328

> <r_mmod_Bend_Energy-OPLS-2005>
369.840850830078

> <r_mmod_Torsional_Energy-OPLS-2005>
246.488662719727

> <r_mmod_Improper_Torsional_Energy-OPLS-2005>
6.34166860580444

> <r_mmod_Van_der_Waal_Energy-OPLS-2005>
122.574523925781

> <r_mmod_Electrostatic_Energy-OPLS-2005>
-350.955291748047

> <r_mmod_Solvation_Energy-OPLS-2005>
-252.259216308594

> <b_mmod_Minimization_Converged-OPLS-2005>
0

> <r_mmod_RMS_Derivative-OPLS-2005>
6.65930414199829

$$$$
80
                    3D
 Structure written by MMmdl.
167175  0  0  1  0            999 V2000
  -30.6748  -14.6096   20.5348 C   0  0  0  0  0  0
  -30.4304  -12.3785   19.4596 C   0  0  0  0  0  0
  -29.5085  -12.4999   18.2250 C   0  0  0  0  0  0
  -28.0308  -12.3354   18.6304 C   0  0  0  0  0  0
  -27.6508  -13.2152   19.8490 C   0  0  2  0  0  0
  -28.6897  -13.0858   20.9827 C   0  0  0  0  0  0
  -25.2587  -13.8157   20.5659 C   0  0  0  0  0  0
  -24.1847  -13.0439   20.9179 C   0  0  0  0  0  0
  -24.6405  -11.6910   20.8713 C   0  0  0  0  0  0
  -23.9070  -10.4301   21.0401 C   0  0  0  0  0  0
  -24.3620   -9.4219   21.9181 C   0  0  0  0  0  0
  -23.6294   -8.2256   22.0760 C   0  0  0  0  0  0
  -22.4277   -8.0291   21.3549 C   0  0  0  0  0  0
  -21.9913   -9.0264   20.4652 C   0  0  0  0  0  0
  -22.7239  -10.2143   20.3053 C   0  0  0  0  0  0
  -21.6858   -6.0743   22.5280 C   0  0  0  0  0  0
  -21.4013   -6.5644   23.8213 C   0  0  0  0  0  0
  -21.3651   -5.6792   24.9172 C   0  0  0  0  0  0
  -21.6042   -4.3059   24.7221 C   0  0  0  0  0  0
  -21.8813   -3.8152   23.4343 C   0  0  0  0  0  0
  -21.9197   -4.6968   22.3398 C   0  0  0  0  0  0
  -22.7875  -13.5247   21.1852 C   0  0  0  0  0  0
  -22.1668   -4.2156   21.0974 F   0  0  0  0  0  0
  -21.5630   -3.4549   25.7734 F   0  0  0  0  0  0
  -30.0143  -13.4109   20.4326 N   0  0  0  0  0  0
  -26.2992  -12.9334   20.3233 N   0  0  0  0  0  0
  -25.9326  -11.6499   20.5699 N   0  0  0  0  0  0
  -22.0512  -12.8242   22.0395 N   0  0  0  0  0  0
  -25.4315  -15.1882   20.4079 N   0  0  0  0  0  0
  -31.8103  -14.7258   20.0625 O   0  0  0  0  0  0
  -21.6637   -6.8891   21.4245 O   0  0  0  0  0  0
  -22.3573  -14.5562   20.6711 O   0  0  0  0  0  0
  -24.6230  -31.8613   23.2038 C   0  0  0  0  0  0
  -25.9092  -32.4781   23.8356 C   0  0  1  0  0  0
  -27.2308  -27.3502   20.1199 C   0  0  0  0  0  0
  -25.5918  -33.8586   24.2275 N   0  0  0  0  0  0
  -23.4166  -30.4840   21.5448 C   0  0  2  0  0  0
  -24.8690  -28.9439   20.1093 C   0  0  0  0  0  0
  -22.7463  -29.4627   22.4940 C   0  0  0  0  0  0
  -18.0284  -28.1377   22.8481 C   0  0  0  0  0  0
  -24.1492  -36.7303   23.2640 C   0  0  0  0  0  0
  -25.9543  -30.8027   21.3701 C   0  0  0  0  0  0
  -26.0351  -29.4326   20.7132 C   0  0  0  0  0  0
  -27.2241  -28.6478   20.7082 C   0  0  0  0  0  0
  -26.0500  -26.9082   19.4861 C   0  0  0  0  0  0
  -24.8766  -27.6851   19.4874 C   0  0  0  0  0  0
  -23.6322  -29.8173   20.1602 C   0  0  0  0  0  0
  -25.4114  -36.3089   24.0333 C   0  0  1  0  0  0
  -20.5881  -28.3690   23.1288 C   0  0  2  0  0  0
  -20.6771  -26.9414   22.5414 C   0  0  0  0  0  0
  -19.5752  -26.6377   21.5213 C   0  0  0  0  0  0
  -18.1924  -26.7920   22.1615 C   0  0  0  0  0  0
  -19.1534  -28.8847   23.2876 C   0  0  0  0  0  0
  -18.9467  -30.1439   23.8911 C   0  0  0  0  0  0
  -17.6472  -30.6584   24.0568 C   0  0  0  0  0  0
  -25.9056  -34.9460   23.5108 C   0  0  0  0  0  0
  -16.5360  -29.9087   23.6335 C   0  0  0  0  0  0
  -16.7272  -28.6501   23.0360 C   0  0  0  0  0  0
  -26.4498  -31.6584   25.0709 C   0  0  0  0  0  0
  -25.3745  -31.3718   26.1449 C   0  0  0  0  0  0
  -27.0339  -30.3018   24.6140 C   0  0  0  0  0  0
  -27.6061  -32.4320   25.7476 C   0  0  0  0  0  0
  -27.5581  -37.1797   24.8462 C   0  0  0  0  0  0
  -21.4177  -29.3050   22.3691 N   0  0  0  0  0  0
  -26.4295  -37.3778   23.9412 N   0  0  0  0  0  0
  -24.6830  -31.0639   22.0972 N   0  0  0  0  0  0
  -23.4191  -28.8177   23.3022 O   0  0  0  0  0  0
  -28.3222  -26.4790   20.1599 O   0  0  0  0  0  0
  -26.5618  -34.8918   22.4669 O   0  0  0  0  0  0
  -23.5406  -32.1405   23.7381 O   0  0  0  0  0  0
  -30.3395  -22.2417   21.0636 C   0  0  0  0  0  0
  -28.0451  -22.8976   19.8219 C   0  0  0  0  0  0
  -29.6341  -21.2496   20.3238 C   0  0  0  0  0  0
  -28.7407  -23.8872   20.5750 C   0  0  0  0  0  0
  -31.9386  -16.7447   22.7444 C   0  0  0  0  0  0
  -30.6496  -14.7542   23.4519 C   0  0  0  0  0  0
  -29.5412  -16.9404   23.5462 C   0  0  0  0  0  0
  -29.8934  -16.9058   18.8542 C   0  0  0  0  0  0
  -30.2353  -19.8310   20.0394 C   0  0  0  0  0  0
  -28.0791  -25.2598   20.9504 C   0  0  0  0  0  0
  -29.5956  -18.5243   20.6849 C   0  0  0  0  0  0
  -30.0321  -15.9274   21.1729 C   0  0  1  0  0  0
  -30.5300  -16.1043   22.6848 C   0  0  0  0  0  0
  -28.4823  -21.6051   19.6888 N   0  0  0  0  0  0
  -29.9026  -23.5335   21.1959 N   0  0  0  0  0  0
  -30.2270  -17.1834   20.2849 N   0  3  1  0  0  0
  -31.4758  -12.4739   19.1597 H   0  0  0  0  0  0
  -30.3454  -11.3854   19.9039 H   0  0  0  0  0  0
  -29.7786  -11.7493   17.4811 H   0  0  0  0  0  0
  -29.6523  -13.4691   17.7454 H   0  0  0  0  0  0
  -27.8710  -11.2836   18.8707 H   0  0  0  0  0  0
  -27.3773  -12.5554   17.7854 H   0  0  0  0  0  0
  -27.6654  -14.2463   19.4974 H   0  0  0  0  0  0
  -28.6959  -12.0713   21.3846 H   0  0  0  0  0  0
  -28.4091  -13.7266   21.8156 H   0  0  0  0  0  0
  -25.2761   -9.5701   22.4761 H   0  0  0  0  0  0
  -24.0010   -7.4645   22.7476 H   0  0  0  0  0  0
  -21.0851   -8.8769   19.8952 H   0  0  0  0  0  0
  -22.3692  -10.9678   19.6166 H   0  0  0  0  0  0
  -21.1999   -7.6153   23.9714 H   0  0  0  0  0  0
  -21.1478   -6.0527   25.9073 H   0  0  0  0  0  0
  -22.0599   -2.7615   23.2831 H   0  0  0  0  0  0
  -22.4124  -11.9883   22.4752 H   0  0  0  0  0  0
  -21.1129  -13.1268   22.2589 H   0  0  0  0  0  0
  -24.6609  -15.8387   20.5148 H   0  0  0  0  0  0
  -26.2687  -15.6254   20.0477 H   0  0  0  0  0  0
  -26.7159  -32.5476   23.1109 H   0  0  0  0  0  0
  -25.0071  -33.9730   25.0426 H   0  0  0  0  0  0
  -22.7101  -31.3040   21.3996 H   0  0  0  0  0  0
  -23.3753  -35.9630   23.3290 H   0  0  0  0  0  0
  -24.3592  -36.8946   22.2060 H   0  0  0  0  0  0
  -23.7248  -37.6497   23.6677 H   0  0  0  0  0  0
  -26.0773  -31.5674   20.6016 H   0  0  0  0  0  0
  -26.8363  -30.8545   21.9969 H   0  0  0  0  0  0
  -28.1173  -29.0174   21.1924 H   0  0  0  0  0  0
  -26.0286  -25.9383   19.0085 H   0  0  0  0  0  0
  -23.9847  -27.3043   19.0102 H   0  0  0  0  0  0
  -23.7441  -30.5943   19.4023 H   0  0  0  0  0  0
  -22.7524  -29.2431   19.8617 H   0  0  0  0  0  0
  -25.1290  -36.1945   25.0824 H   0  0  0  0  0  0
  -20.9963  -28.3263   24.1411 H   0  0  0  0  0  0
  -20.5678  -26.2301   23.3611 H   0  0  0  0  0  0
  -21.6640  -26.7444   22.1205 H   0  0  0  0  0  0
  -19.6925  -25.6287   21.1239 H   0  0  0  0  0  0
  -19.6698  -27.3192   20.6746 H   0  0  0  0  0  0
  -17.4200  -26.6692   21.4007 H   0  0  0  0  0  0
  -18.0313  -26.0046   22.8993 H   0  0  0  0  0  0
  -19.7946  -30.7236   24.2296 H   0  0  0  0  0  0
  -17.5036  -31.6273   24.5147 H   0  0  0  0  0  0
  -15.5363  -30.3001   23.7643 H   0  0  0  0  0  0
  -15.8671  -28.0823   22.7080 H   0  0  0  0  0  0
  -24.5922  -30.7061   25.7792 H   0  0  0  0  0  0
  -24.8929  -32.2876   26.4884 H   0  0  0  0  0  0
  -25.8080  -30.8901   27.0220 H   0  0  0  0  0  0
  -26.2893  -29.6760   24.1208 H   0  0  0  0  0  0
  -27.4101  -29.7291   25.4622 H   0  0  0  0  0  0
  -27.8733  -30.4313   23.9305 H   0  0  0  0  0  0
  -27.2682  -33.3641   26.2023 H   0  0  0  0  0  0
  -28.3886  -32.6857   25.0309 H   0  0  0  0  0  0
  -28.0706  -31.8461   26.5418 H   0  0  0  0  0  0
  -28.2586  -38.0103   24.7509 H   0  0  0  0  0  0
  -28.1085  -36.2632   24.6279 H   0  0  0  0  0  0
  -27.2296  -37.1448   25.8862 H   0  0  0  0  0  0
  -20.9344  -29.8797   21.6937 H   0  0  0  0  0  0
  -26.0182  -38.2852   24.1406 H   0  0  0  0  0  0
  -31.2837  -22.0045   21.5321 H   0  0  0  0  0  0
  -27.0959  -23.1311   19.3613 H   0  0  0  0  0  0
  -32.2871  -16.8414   23.7733 H   0  0  0  0  0  0
  -31.9644  -17.7454   22.3151 H   0  0  0  0  0  0
  -32.6802  -16.1414   22.2192 H   0  0  0  0  0  0
  -30.9780  -14.9105   24.4802 H   0  0  0  0  0  0
  -31.3872  -14.0743   23.0250 H   0  0  0  0  0  0
  -29.6990  -14.2270   23.5161 H   0  0  0  0  0  0
  -29.4660  -16.5710   24.5699 H   0  0  0  0  0  0
  -28.5275  -16.9260   23.1442 H   0  0  0  0  0  0
  -29.8521  -17.9768   23.6691 H   0  0  0  0  0  0
  -29.9634  -17.7870   18.2209 H   0  0  0  0  0  0
  -28.8757  -16.5268   18.7558 H   0  0  0  0  0  0
  -30.5664  -16.1869   18.3892 H   0  0  0  0  0  0
  -31.2842  -19.8674   20.3368 H   0  0  0  0  0  0
  -30.2580  -19.7502   18.9550 H   0  0  0  0  0  0
  -28.3849  -25.4958   21.9708 H   0  0  0  0  0  0
  -27.0105  -25.0581   21.0385 H   0  0  0  0  0  0
  -28.5282  -18.4931   20.4625 H   0  0  0  0  0  0
  -29.6662  -18.6877   21.7476 H   0  0  0  0  0  0
  -28.9555  -15.7630   21.1904 H   0  0  0  0  0  0
  -31.2270  -17.3264   20.2994 H   0  0  0  0  0  0
  1 25  1  0  0  0
  1 30  2  0  0  0
  1 82  1  0  0  0
  2  3  1  0  0  0
  2 25  1  0  0  0
  2 87  1  0  0  0
  2 88  1  0  0  0
  3  4  1  0  0  0
  3 89  1  0  0  0
  3 90  1  0  0  0
  4  5  1  0  0  0
  4 91  1  0  0  0
  4 92  1  0  0  0
  5  6  1  0  0  0
  5 26  1  0  0  0
  5 93  1  0  0  0
  6 25  1  0  0  0
  6 94  1  0  0  0
  6 95  1  0  0  0
  7  8  2  0  0  0
  7 26  1  0  0  0
  7 29  1  0  0  0
  8  9  1  0  0  0
  8 22  1  0  0  0
  9 10  1  0  0  0
  9 27  2  0  0  0
 10 11  2  0  0  0
 10 15  1  0  0  0
 11 12  1  0  0  0
 11 96  1  0  0  0
 12 13  2  0  0  0
 12 97  1  0  0  0
 13 14  1  0  0  0
 13 31  1  0  0  0
 14 15  2  0  0  0
 14 98  1  0  0  0
 15 99  1  0  0  0
 16 17  2  0  0  0
 16 21  1  0  0  0
 16 31  1  0  0  0
 17 18  1  0  0  0
 17100  1  0  0  0
 18 19  2  0  0  0
 18101  1  0  0  0
 19 20  1  0  0  0
 19 24  1  0  0  0
 20 21  2  0  0  0
 20102  1  0  0  0
 21 23  1  0  0  0
 22 28  1  0  0  0
 22 32  2  0  0  0
 26 27  1  0  0  0
 28103  1  0  0  0
 28104  1  0  0  0
 29105  1  0  0  0
 29106  1  0  0  0
 33 34  1  0  0  0
 33 66  1  0  0  0
 33 70  2  0  0  0
 34 36  1  0  0  0
 34 59  1  0  0  0
 34107  1  0  0  0
 35 44  2  0  0  0
 35 45  1  0  0  0
 35 68  1  0  0  0
 36 56  1  0  0  0
 36108  1  0  0  0
 37 39  1  0  0  0
 37 47  1  0  0  0
 37 66  1  0  0  0
 37109  1  0  0  0
 38 43  2  0  0  0
 38 46  1  0  0  0
 38 47  1  0  0  0
 39 64  1  0  0  0
 39 67  2  0  0  0
 40 52  1  0  0  0
 40 53  2  0  0  0
 40 58  1  0  0  0
 41110  1  0  0  0
 41111  1  0  0  0
 41112  1  0  0  0
 41 48  1  0  0  0
 42 43  1  0  0  0
 42 66  1  0  0  0
 42113  1  0  0  0
 42114  1  0  0  0
 43 44  1  0  0  0
 44115  1  0  0  0
 45 46  2  0  0  0
 45116  1  0  0  0
 46117  1  0  0  0
 47118  1  0  0  0
 47119  1  0  0  0
 48 56  1  0  0  0
 48 65  1  0  0  0
 48120  1  0  0  0
 49 50  1  0  0  0
 49 53  1  0  0  0
 49 64  1  0  0  0
 49121  1  0  0  0
 50 51  1  0  0  0
 50122  1  0  0  0
 50123  1  0  0  0
 51 52  1  0  0  0
 51124  1  0  0  0
 51125  1  0  0  0
 52126  1  0  0  0
 52127  1  0  0  0
 53 54  1  0  0  0
 54 55  2  0  0  0
 54128  1  0  0  0
 55 57  1  0  0  0
 55129  1  0  0  0
 56 69  2  0  0  0
 57 58  2  0  0  0
 57130  1  0  0  0
 58131  1  0  0  0
 59 60  1  0  0  0
 59 61  1  0  0  0
 59 62  1  0  0  0
 60132  1  0  0  0
 60133  1  0  0  0
 60134  1  0  0  0
 61135  1  0  0  0
 61136  1  0  0  0
 61137  1  0  0  0
 62138  1  0  0  0
 62139  1  0  0  0
 62140  1  0  0  0
 63 65  1  0  0  0
 63141  1  0  0  0
 63142  1  0  0  0
 63143  1  0  0  0
 64144  1  0  0  0
 65145  1  0  0  0
 68 80  1  0  0  0
 71 73  2  0  0  0
 71 85  1  0  0  0
 71146  1  0  0  0
 72 74  1  0  0  0
 72 84  2  0  0  0
 72147  1  0  0  0
 73 79  1  0  0  0
 73 84  1  0  0  0
 74 80  1  0  0  0
 74 85  2  0  0  0
 75148  1  0  0  0
 75149  1  0  0  0
 75150  1  0  0  0
 75 83  1  0  0  0
 76 83  1  0  0  0
 76151  1  0  0  0
 76152  1  0  0  0
 76153  1  0  0  0
 77 83  1  0  0  0
 77154  1  0  0  0
 77155  1  0  0  0
 77156  1  0  0  0
 78157  1  0  0  0
 78158  1  0  0  0
 78159  1  0  0  0
 78 86  1  0  0  0
 79 81  1  0  0  0
 79160  1  0  0  0
 79161  1  0  0  0
 80162  1  0  0  0
 80163  1  0  0  0
 81 86  1  0  0  0
 81164  1  0  0  0
 81165  1  0  0  0
 82 83  1  0  0  0
 82 86  1  0  0  0
 82166  1  0  0  0
 86167  1  0  0  0
M  CHG  1  86   1
M  ISO  4   1 100  68 101  80 101  82 100
M  END
> <chiral flag>
0

> <version>
0

> <s_m_source_file>
/data/baiqing/PycharmProjects/Reinvent-master-3.2/result/LINK_invent/BTK/process_docking_weight1_custom_sum_contain_oxygen_bond_distance_aromatic_linkinvent_7_9_3/rearranged_h_0060.sdf

> <i_m_source_file_index>
77

> <r_mmod_Potential_Energy-OPLS-2005>
122.207359313965

> <r_mmod_Stretch_Energy-OPLS-2005>
95.8882598876953

> <r_mmod_Bend_Energy-OPLS-2005>
149.288284301758

> <r_mmod_Torsional_Energy-OPLS-2005>
210.560195922852

> <r_mmod_Improper_Torsional_Energy-OPLS-2005>
4.53778791427612

> <r_mmod_Van_der_Waal_Energy-OPLS-2005>
165.170700073242

> <r_mmod_Electrostatic_Energy-OPLS-2005>
-123.339584350586

> <r_mmod_Solvation_Energy-OPLS-2005>
-419.810546875

> <b_mmod_Minimization_Converged-OPLS-2005>
0

> <r_mmod_RMS_Derivative-OPLS-2005>
1.8558429479599

$$$$
81
                    3D
 Structure written by MMmdl.
158166  0  0  1  0            999 V2000
  -30.6209  -14.7778   20.3777 C   0  0  0  0  0  0
  -30.4391  -12.4549   19.4706 C   0  0  0  0  0  0
  -29.5121  -12.4196   18.2358 C   0  0  0  0  0  0
  -28.0316  -12.2901   18.6549 C   0  0  0  0  0  0
  -27.6305  -13.2110   19.8395 C   0  0  2  0  0  0
  -28.6903  -13.2156   20.9614 C   0  0  0  0  0  0
  -25.2522  -13.8135   20.5751 C   0  0  0  0  0  0
  -24.1789  -13.0412   20.9244 C   0  0  0  0  0  0
  -24.6356  -11.6880   20.8793 C   0  0  0  0  0  0
  -23.9033  -10.4275   21.0434 C   0  0  0  0  0  0
  -24.3598   -9.4191   21.9199 C   0  0  0  0  0  0
  -23.6283   -8.2223   22.0754 C   0  0  0  0  0  0
  -22.4266   -8.0268   21.3541 C   0  0  0  0  0  0
  -21.9899   -9.0244   20.4645 C   0  0  0  0  0  0
  -22.7218  -10.2127   20.3066 C   0  0  0  0  0  0
  -21.6850   -6.0729   22.5276 C   0  0  0  0  0  0
  -21.4010   -6.5635   23.8211 C   0  0  0  0  0  0
  -21.3655   -5.6789   24.9173 C   0  0  0  0  0  0
  -21.6044   -4.3051   24.7221 C   0  0  0  0  0  0
  -21.8823   -3.8143   23.4342 C   0  0  0  0  0  0
  -21.9195   -4.6961   22.3400 C   0  0  0  0  0  0
  -22.7820  -13.5224   21.1879 C   0  0  0  0  0  0
  -22.1663   -4.2148   21.0978 F   0  0  0  0  0  0
  -21.5633   -3.4535   25.7733 F   0  0  0  0  0  0
  -29.9783  -13.5564   20.3433 N   0  0  0  0  0  0
  -26.2906  -12.9274   20.3333 N   0  0  0  0  0  0
  -25.9278  -11.6450   20.5823 N   0  0  0  0  0  0
  -22.0449  -12.8224   22.0427 N   0  0  0  0  0  0
  -25.4263  -15.1858   20.4178 N   0  0  0  0  0  0
  -31.8487  -14.8205   20.2669 O   0  0  0  0  0  0
  -21.6632   -6.8868   21.4236 O   0  0  0  0  0  0
  -22.3525  -14.5528   20.6711 O   0  0  0  0  0  0
  -24.6303  -31.8557   23.1985 C   0  0  0  0  0  0
  -25.9133  -32.4756   23.8329 C   0  0  1  0  0  0
  -27.2226  -27.2689   20.1309 C   0  0  0  0  0  0
  -25.5932  -33.8558   24.2251 N   0  0  0  0  0  0
  -23.4270  -30.4780   21.5417 C   0  0  2  0  0  0
  -24.8751  -28.9274   20.1088 C   0  0  0  0  0  0
  -22.7499  -29.4602   22.4912 C   0  0  0  0  0  0
  -18.0291  -28.1390   22.8483 C   0  0  0  0  0  0
  -24.1491  -36.7285   23.2639 C   0  0  0  0  0  0
  -25.9721  -30.7711   21.3779 C   0  0  0  0  0  0
  -26.0456  -29.3949   20.7189 C   0  0  0  0  0  0
  -27.2215  -28.5786   20.7181 C   0  0  0  0  0  0
  -26.0296  -26.8710   19.4845 C   0  0  0  0  0  0
  -24.8722  -27.6737   19.4795 C   0  0  0  0  0  0
  -23.6448  -29.8125   20.1573 C   0  0  0  0  0  0
  -25.4119  -36.3069   24.0322 C   0  0  1  0  0  0
  -20.5894  -28.3698   23.1271 C   0  0  2  0  0  0
  -20.6780  -26.9417   22.5409 C   0  0  0  0  0  0
  -19.5757  -26.6385   21.5213 C   0  0  0  0  0  0
  -18.1937  -26.7932   22.1623 C   0  0  0  0  0  0
  -19.1544  -28.8862   23.2871 C   0  0  0  0  0  0
  -18.9465  -30.1462   23.8889 C   0  0  0  0  0  0
  -17.6464  -30.6590   24.0562 C   0  0  0  0  0  0
  -25.9059  -34.9439   23.5089 C   0  0  0  0  0  0
  -16.5355  -29.9086   23.6333 C   0  0  0  0  0  0
  -16.7277  -28.6505   23.0351 C   0  0  0  0  0  0
  -26.4502  -31.6583   25.0721 C   0  0  0  0  0  0
  -25.3721  -31.3736   26.1438 C   0  0  0  0  0  0
  -27.0351  -30.2998   24.6215 C   0  0  0  0  0  0
  -27.6050  -32.4329   25.7498 C   0  0  0  0  0  0
  -27.5579  -37.1799   24.8464 C   0  0  0  0  0  0
  -21.4207  -29.3042   22.3658 N   0  0  0  0  0  0
  -26.4293  -37.3768   23.9404 N   0  0  0  0  0  0
  -24.6953  -31.0529   22.0956 N   0  0  0  0  0  0
  -23.4203  -28.8147   23.3015 O   0  0  0  0  0  0
  -28.3203  -26.3792   20.2092 O   0  0  0  0  0  0
  -26.5632  -34.8914   22.4659 O   0  0  0  0  0  0
  -23.5455  -32.1375   23.7286 O   0  0  0  0  0  0
  -28.0852  -19.4008   22.1617 C   0  0  0  0  0  0
  -28.7059  -21.1436   21.1283 C   0  0  0  0  0  0
  -27.7276  -17.9935   22.5282 C   0  0  0  0  0  0
  -29.1958  -16.1222   18.9467 C   0  0  0  0  0  0
  -29.0981  -22.2409   20.0924 C   0  0  0  0  0  0
  -29.1638  -23.8121   20.5316 C   0  0  0  0  0  0
  -29.6037  -18.7529   20.2216 C   0  0  0  0  0  0
  -30.2452  -17.3445   20.7973 C   0  0  0  0  0  0
  -28.0990  -24.9051   20.0097 C   0  0  0  0  0  0
  -27.5436  -20.4273   22.8170 N   0  0  0  0  0  0
  -27.9322  -21.5461   22.1443 N   0  0  0  0  0  0
  -28.9018  -19.7462   21.1311 N   0  0  0  0  0  0
  -29.8704  -15.9575   20.2408 N   0  0  0  0  0  0
  -31.4762  -12.5862   19.1561 H   0  0  0  0  0  0
  -30.4045  -11.5060   20.0083 H   0  0  0  0  0  0
  -29.7814  -11.5739   17.6014 H   0  0  0  0  0  0
  -29.6656  -13.2992   17.6138 H   0  0  0  0  0  0
  -27.8761  -11.2490   18.9400 H   0  0  0  0  0  0
  -27.3782  -12.4665   17.7997 H   0  0  0  0  0  0
  -27.5733  -14.2099   19.4274 H   0  0  0  0  0  0
  -28.7442  -12.2448   21.4568 H   0  0  0  0  0  0
  -28.4301  -13.9469   21.7284 H   0  0  0  0  0  0
  -25.2740   -9.5671   22.4778 H   0  0  0  0  0  0
  -23.9997   -7.4610   22.7463 H   0  0  0  0  0  0
  -21.0834   -8.8760   19.8949 H   0  0  0  0  0  0
  -22.3676  -10.9673   19.6185 H   0  0  0  0  0  0
  -21.1995   -7.6143   23.9712 H   0  0  0  0  0  0
  -21.1477   -6.0517   25.9075 H   0  0  0  0  0  0
  -22.0607   -2.7606   23.2841 H   0  0  0  0  0  0
  -22.4058  -11.9888   22.4827 H   0  0  0  0  0  0
  -21.1067  -13.1255   22.2618 H   0  0  0  0  0  0
  -24.6623  -15.8432   20.5287 H   0  0  0  0  0  0
  -26.2836  -15.6206   20.1041 H   0  0  0  0  0  0
  -26.7200  -32.5405   23.1071 H   0  0  0  0  0  0
  -25.0070  -33.9698   25.0390 H   0  0  0  0  0  0
  -22.7228  -31.2997   21.3961 H   0  0  0  0  0  0
  -23.3752  -35.9619   23.3302 H   0  0  0  0  0  0
  -24.3579  -36.8911   22.2053 H   0  0  0  0  0  0
  -23.7249  -37.6487   23.6667 H   0  0  0  0  0  0
  -26.1117  -31.5333   20.6102 H   0  0  0  0  0  0
  -26.8487  -30.8179   22.0121 H   0  0  0  0  0  0
  -28.1160  -28.9305   21.2124 H   0  0  0  0  0  0
  -25.9599  -25.9141   18.9895 H   0  0  0  0  0  0
  -23.9772  -27.3119   18.9923 H   0  0  0  0  0  0
  -23.7676  -30.5893   19.4014 H   0  0  0  0  0  0
  -22.7637  -29.2450   19.8525 H   0  0  0  0  0  0
  -25.1304  -36.1913   25.0815 H   0  0  0  0  0  0
  -20.9984  -28.3275   24.1393 H   0  0  0  0  0  0
  -20.5684  -26.2308   23.3613 H   0  0  0  0  0  0
  -21.6647  -26.7446   22.1198 H   0  0  0  0  0  0
  -19.6919  -25.6292   21.1251 H   0  0  0  0  0  0
  -19.6698  -27.3189   20.6739 H   0  0  0  0  0  0
  -17.4207  -26.6673   21.4026 H   0  0  0  0  0  0
  -18.0341  -26.0077   22.9023 H   0  0  0  0  0  0
  -19.7940  -30.7280   24.2253 H   0  0  0  0  0  0
  -17.5019  -31.6269   24.5164 H   0  0  0  0  0  0
  -15.5355  -30.2984   23.7664 H   0  0  0  0  0  0
  -15.8677  -28.0823   22.7070 H   0  0  0  0  0  0
  -24.5896  -30.7090   25.7760 H   0  0  0  0  0  0
  -24.8916  -32.2909   26.4851 H   0  0  0  0  0  0
  -25.8031  -30.8915   27.0220 H   0  0  0  0  0  0
  -26.2937  -29.6743   24.1229 H   0  0  0  0  0  0
  -27.4016  -29.7267   25.4742 H   0  0  0  0  0  0
  -27.8823  -30.4269   23.9471 H   0  0  0  0  0  0
  -27.2649  -33.3629   26.2066 H   0  0  0  0  0  0
  -28.3865  -32.6891   25.0333 H   0  0  0  0  0  0
  -28.0713  -31.8464   26.5424 H   0  0  0  0  0  0
  -28.2594  -38.0098   24.7508 H   0  0  0  0  0  0
  -28.1078  -36.2628   24.6295 H   0  0  0  0  0  0
  -27.2296  -37.1451   25.8867 H   0  0  0  0  0  0
  -20.9395  -29.8758   21.6854 H   0  0  0  0  0  0
  -26.0170  -38.2841   24.1404 H   0  0  0  0  0  0
  -28.4532  -17.5827   23.2287 H   0  0  0  0  0  0
  -27.6605  -17.3589   21.6453 H   0  0  0  0  0  0
  -26.7520  -17.9720   23.0139 H   0  0  0  0  0  0
  -28.1742  -16.4764   19.0840 H   0  0  0  0  0  0
  -29.1445  -15.2172   18.3508 H   0  0  0  0  0  0
  -29.7349  -16.8289   18.3146 H   0  0  0  0  0  0
  -28.4308  -22.1418   19.2366 H   0  0  0  0  0  0
  -30.0819  -21.9614   19.7153 H   0  0  0  0  0  0
  -30.1293  -24.1717   20.1766 H   0  0  0  0  0  0
  -29.2431  -23.8811   21.6167 H   0  0  0  0  0  0
  -28.8988  -18.5783   19.4132 H   0  0  0  0  0  0
  -30.4151  -19.3034   19.7439 H   0  0  0  0  0  0
  -30.1756  -17.3014   21.8812 H   0  0  0  0  0  0
  -31.3211  -17.4320   20.6385 H   0  0  0  0  0  0
  -27.1463  -24.6357   20.4676 H   0  0  0  0  0  0
  -27.9736  -24.7504   18.9377 H   0  0  0  0  0  0
  1 25  1  0  0  0
  1 30  2  0  0  0
  1 83  1  0  0  0
  2  3  1  0  0  0
  2 25  1  0  0  0
  2 84  1  0  0  0
  2 85  1  0  0  0
  3  4  1  0  0  0
  3 86  1  0  0  0
  3 87  1  0  0  0
  4  5  1  0  0  0
  4 88  1  0  0  0
  4 89  1  0  0  0
  5  6  1  0  0  0
  5 26  1  0  0  0
  5 90  1  0  0  0
  6 25  1  0  0  0
  6 91  1  0  0  0
  6 92  1  0  0  0
  7  8  2  0  0  0
  7 26  1  0  0  0
  7 29  1  0  0  0
  8  9  1  0  0  0
  8 22  1  0  0  0
  9 10  1  0  0  0
  9 27  2  0  0  0
 10 11  2  0  0  0
 10 15  1  0  0  0
 11 12  1  0  0  0
 11 93  1  0  0  0
 12 13  2  0  0  0
 12 94  1  0  0  0
 13 14  1  0  0  0
 13 31  1  0  0  0
 14 15  2  0  0  0
 14 95  1  0  0  0
 15 96  1  0  0  0
 16 17  2  0  0  0
 16 21  1  0  0  0
 16 31  1  0  0  0
 17 18  1  0  0  0
 17 97  1  0  0  0
 18 19  2  0  0  0
 18 98  1  0  0  0
 19 20  1  0  0  0
 19 24  1  0  0  0
 20 21  2  0  0  0
 20 99  1  0  0  0
 21 23  1  0  0  0
 22 28  1  0  0  0
 22 32  2  0  0  0
 26 27  1  0  0  0
 28100  1  0  0  0
 28101  1  0  0  0
 29102  1  0  0  0
 29103  1  0  0  0
 33 34  1  0  0  0
 33 66  1  0  0  0
 33 70  2  0  0  0
 34 36  1  0  0  0
 34 59  1  0  0  0
 34104  1  0  0  0
 35 44  2  0  0  0
 35 45  1  0  0  0
 35 68  1  0  0  0
 36 56  1  0  0  0
 36105  1  0  0  0
 37 39  1  0  0  0
 37 47  1  0  0  0
 37 66  1  0  0  0
 37106  1  0  0  0
 38 43  2  0  0  0
 38 46  1  0  0  0
 38 47  1  0  0  0
 39 64  1  0  0  0
 39 67  2  0  0  0
 40 52  1  0  0  0
 40 53  2  0  0  0
 40 58  1  0  0  0
 41107  1  0  0  0
 41108  1  0  0  0
 41109  1  0  0  0
 41 48  1  0  0  0
 42 43  1  0  0  0
 42 66  1  0  0  0
 42110  1  0  0  0
 42111  1  0  0  0
 43 44  1  0  0  0
 44112  1  0  0  0
 45 46  2  0  0  0
 45113  1  0  0  0
 46114  1  0  0  0
 47115  1  0  0  0
 47116  1  0  0  0
 48 56  1  0  0  0
 48 65  1  0  0  0
 48117  1  0  0  0
 49 50  1  0  0  0
 49 53  1  0  0  0
 49 64  1  0  0  0
 49118  1  0  0  0
 50 51  1  0  0  0
 50119  1  0  0  0
 50120  1  0  0  0
 51 52  1  0  0  0
 51121  1  0  0  0
 51122  1  0  0  0
 52123  1  0  0  0
 52124  1  0  0  0
 53 54  1  0  0  0
 54 55  2  0  0  0
 54125  1  0  0  0
 55 57  1  0  0  0
 55126  1  0  0  0
 56 69  2  0  0  0
 57 58  2  0  0  0
 57127  1  0  0  0
 58128  1  0  0  0
 59 60  1  0  0  0
 59 61  1  0  0  0
 59 62  1  0  0  0
 60129  1  0  0  0
 60130  1  0  0  0
 60131  1  0  0  0
 61132  1  0  0  0
 61133  1  0  0  0
 61134  1  0  0  0
 62135  1  0  0  0
 62136  1  0  0  0
 62137  1  0  0  0
 63 65  1  0  0  0
 63138  1  0  0  0
 63139  1  0  0  0
 63140  1  0  0  0
 64141  1  0  0  0
 65142  1  0  0  0
 68 79  1  0  0  0
 71 73  1  0  0  0
 71 80  2  0  0  0
 71 82  1  0  0  0
 72 75  1  0  0  0
 72 81  2  0  0  0
 72 82  1  0  0  0
 73143  1  0  0  0
 73144  1  0  0  0
 73145  1  0  0  0
 74 83  1  0  0  0
 74146  1  0  0  0
 74147  1  0  0  0
 74148  1  0  0  0
 75 76  1  0  0  0
 75149  1  0  0  0
 75150  1  0  0  0
 76 79  1  0  0  0
 76151  1  0  0  0
 76152  1  0  0  0
 77 78  1  0  0  0
 77 82  1  0  0  0
 77153  1  0  0  0
 77154  1  0  0  0
 78 83  1  0  0  0
 78155  1  0  0  0
 78156  1  0  0  0
 79157  1  0  0  0
 79158  1  0  0  0
 80 81  1  0  0  0
M  ISO  4   1 100  68 101  79 101  83 100
M  END
> <chiral flag>
0

> <version>
0

> <s_m_source_file>
/data/baiqing/PycharmProjects/Reinvent-master-3.2/result/LINK_invent/BTK/process_docking_weight1_custom_sum_contain_oxygen_bond_distance_aromatic_linkinvent_7_9_3/rearranged_h_0060.sdf

> <i_m_source_file_index>
78

> <r_mmod_Potential_Energy-OPLS-2005>
343.480010986328

> <r_mmod_Stretch_Energy-OPLS-2005>
137.841995239258

> <r_mmod_Bend_Energy-OPLS-2005>
203.792510986328

> <r_mmod_Torsional_Energy-OPLS-2005>
334.924774169922

> <r_mmod_Improper_Torsional_Energy-OPLS-2005>
11.3599300384521

> <r_mmod_Van_der_Waal_Energy-OPLS-2005>
130.336868286133

> <r_mmod_Electrostatic_Energy-OPLS-2005>
-339.702239990234

> <r_mmod_Solvation_Energy-OPLS-2005>
-237.494354248047

> <b_mmod_Minimization_Converged-OPLS-2005>
0

> <r_mmod_RMS_Derivative-OPLS-2005>
0.641728520393372

$$$$
82
                    3D
 Structure written by MMmdl.
157165  0  0  1  0            999 V2000
  -30.4217  -15.3710   20.3568 C   0  0  0  0  0  0
  -30.4435  -12.9010   19.4933 C   0  0  0  0  0  0
  -29.5276  -12.5972   18.2793 C   0  0  0  0  0  0
  -28.0932  -12.2765   18.7337 C   0  0  0  0  0  0
  -27.5997  -13.2666   19.8156 C   0  0  2  0  0  0
  -28.6437  -13.5228   20.9289 C   0  0  0  0  0  0
  -25.2298  -13.8155   20.5821 C   0  0  0  0  0  0
  -24.1654  -13.0336   20.9239 C   0  0  0  0  0  0
  -24.6350  -11.6854   20.8767 C   0  0  0  0  0  0
  -23.9066  -10.4246   21.0353 C   0  0  0  0  0  0
  -24.3643   -9.4216   21.9142 C   0  0  0  0  0  0
  -23.6328   -8.2262   22.0746 C   0  0  0  0  0  0
  -22.4299   -8.0298   21.3551 C   0  0  0  0  0  0
  -21.9928   -9.0223   20.4621 C   0  0  0  0  0  0
  -22.7227  -10.2097   20.3026 C   0  0  0  0  0  0
  -21.6866   -6.0769   22.5266 C   0  0  0  0  0  0
  -21.4010   -6.5665   23.8201 C   0  0  0  0  0  0
  -21.3655   -5.6820   24.9165 C   0  0  0  0  0  0
  -21.6047   -4.3084   24.7194 C   0  0  0  0  0  0
  -21.8826   -3.8171   23.4312 C   0  0  0  0  0  0
  -21.9216   -4.7001   22.3384 C   0  0  0  0  0  0
  -22.7669  -13.5075   21.1912 C   0  0  0  0  0  0
  -22.1710   -4.2208   21.0955 F   0  0  0  0  0  0
  -21.5627   -3.4554   25.7698 F   0  0  0  0  0  0
  -29.8551  -14.0556   20.2715 N   0  0  0  0  0  0
  -26.2775  -12.9457   20.3305 N   0  0  0  0  0  0
  -25.9300  -11.6556   20.5722 N   0  0  0  0  0  0
  -22.0436  -12.8005   22.0503 N   0  0  0  0  0  0
  -25.3751  -15.1888   20.4395 N   0  0  0  0  0  0
  -31.6635  -15.3332   20.3166 O   0  0  0  0  0  0
  -21.6658   -6.8906   21.4229 O   0  0  0  0  0  0
  -22.3311  -14.5391   20.6815 O   0  0  0  0  0  0
  -24.6647  -31.8272   23.1692 C   0  0  0  0  0  0
  -25.9293  -32.4590   23.8226 C   0  0  1  0  0  0
  -27.2025  -26.9283   20.2046 C   0  0  0  0  0  0
  -25.5973  -33.8426   24.2114 N   0  0  0  0  0  0
  -23.4784  -30.4325   21.5262 C   0  0  2  0  0  0
  -24.9233  -28.8263   20.1072 C   0  0  0  0  0  0
  -22.7664  -29.4424   22.4846 C   0  0  0  0  0  0
  -18.0279  -28.1397   22.8492 C   0  0  0  0  0  0
  -24.1462  -36.7226   23.2667 C   0  0  0  0  0  0
  -26.0436  -30.6289   21.3993 C   0  0  0  0  0  0
  -26.1037  -29.2207   20.7454 C   0  0  0  0  0  0
  -27.2327  -28.2936   20.7688 C   0  0  0  0  0  0
  -26.0001  -26.6811   19.5022 C   0  0  0  0  0  0
  -24.9002  -27.5771   19.4605 C   0  0  0  0  0  0
  -23.7130  -29.7578   20.1478 C   0  0  0  0  0  0
  -25.4104  -36.3005   24.0319 C   0  0  1  0  0  0
  -20.5897  -28.3754   23.1194 C   0  0  2  0  0  0
  -20.6770  -26.9446   22.5421 C   0  0  0  0  0  0
  -19.5747  -26.6384   21.5233 C   0  0  0  0  0  0
  -18.1912  -26.7932   22.1620 C   0  0  0  0  0  0
  -19.1561  -28.8899   23.2807 C   0  0  0  0  0  0
  -18.9476  -30.1474   23.8855 C   0  0  0  0  0  0
  -17.6485  -30.6596   24.0575 C   0  0  0  0  0  0
  -25.9079  -34.9358   23.5029 C   0  0  0  0  0  0
  -16.5355  -29.9104   23.6347 C   0  0  0  0  0  0
  -16.7269  -28.6500   23.0405 C   0  0  0  0  0  0
  -26.4529  -31.6548   25.0767 C   0  0  0  0  0  0
  -25.3697  -31.3790   26.1473 C   0  0  0  0  0  0
  -27.0447  -30.2926   24.6460 C   0  0  0  0  0  0
  -27.5987  -32.4417   25.7544 C   0  0  0  0  0  0
  -27.5553  -37.1745   24.8466 C   0  0  0  0  0  0
  -21.4331  -29.3031   22.3545 N   0  0  0  0  0  0
  -26.4261  -37.3730   23.9427 N   0  0  0  0  0  0
  -24.7503  -30.9909   22.0843 N   0  0  0  0  0  0
  -23.4199  -28.8004   23.3125 O   0  0  0  0  0  0
  -28.2036  -25.8380   20.3519 O   0  0  0  0  0  0
  -26.5691  -34.8873   22.4629 O   0  0  0  0  0  0
  -23.5676  -32.1285   23.6706 O   0  0  0  0  0  0
  -28.6416  -20.8689   22.4642 C   0  0  0  0  0  0
  -28.7646  -21.3302   21.1316 C   0  0  0  0  0  0
  -28.4739  -22.8931   21.0486 C   0  0  0  0  0  0
  -28.1273  -22.8737   23.3663 C   0  0  0  0  0  0
  -27.7024  -23.6912   24.5694 C   0  0  0  0  0  0
  -29.5486  -20.3682   18.8398 C   0  0  0  0  0  0
  -28.4700  -16.6035   19.4466 C   0  0  0  0  0  0
  -28.1337  -24.2234   20.0024 C   0  0  0  0  0  0
  -29.8690  -18.3100   20.6835 C   0  0  0  0  0  0
  -29.0453  -19.8853   20.2041 C   0  0  1  0  0  0
  -28.3108  -21.5909   23.5397 N   0  0  0  0  0  0
  -28.2242  -23.5137   22.2222 N   0  0  0  0  0  0
  -29.6632  -16.6790   20.2797 N   0  0  0  0  0  0
  -31.4441  -13.1414   19.1252 H   0  0  0  0  0  0
  -30.5709  -12.0254   20.1277 H   0  0  0  0  0  0
  -29.9260  -11.7722   17.6915 H   0  0  0  0  0  0
  -29.5129  -13.4640   17.6144 H   0  0  0  0  0  0
  -28.0921  -11.2672   19.1476 H   0  0  0  0  0  0
  -27.4087  -12.2683   17.8817 H   0  0  0  0  0  0
  -27.4713  -14.1892   19.2618 H   0  0  0  0  0  0
  -28.8612  -12.6265   21.5143 H   0  0  0  0  0  0
  -28.2651  -14.2667   21.6318 H   0  0  0  0  0  0
  -25.2799   -9.5752   22.4665 H   0  0  0  0  0  0
  -24.0094   -7.4668   22.7425 H   0  0  0  0  0  0
  -21.0902   -8.8695   19.8897 H   0  0  0  0  0  0
  -22.3680  -10.9637   19.6135 H   0  0  0  0  0  0
  -21.2025   -7.6172   23.9718 H   0  0  0  0  0  0
  -21.1449   -6.0541   25.9065 H   0  0  0  0  0  0
  -22.0623   -2.7633   23.2761 H   0  0  0  0  0  0
  -22.4199  -11.9642   22.4758 H   0  0  0  0  0  0
  -21.1045  -13.0856   22.2844 H   0  0  0  0  0  0
  -24.5985  -15.8233   20.5935 H   0  0  0  0  0  0
  -26.2204  -15.6628   20.1581 H   0  0  0  0  0  0
  -26.7404  -32.5063   23.0997 H   0  0  0  0  0  0
  -25.0132  -33.9556   25.0264 H   0  0  0  0  0  0
  -22.7895  -31.2628   21.3630 H   0  0  0  0  0  0
  -23.3746  -35.9535   23.3287 H   0  0  0  0  0  0
  -24.3568  -36.8938   22.2099 H   0  0  0  0  0  0
  -23.7161  -37.6375   23.6751 H   0  0  0  0  0  0
  -26.2237  -31.3615   20.6108 H   0  0  0  0  0  0
  -26.9020  -30.6853   22.0562 H   0  0  0  0  0  0
  -28.1203  -28.5989   21.3045 H   0  0  0  0  0  0
  -25.8690  -25.7269   19.0149 H   0  0  0  0  0  0
  -24.0026  -27.2751   18.9403 H   0  0  0  0  0  0
  -23.8770  -30.5400   19.4058 H   0  0  0  0  0  0
  -22.8181  -29.2287   19.8204 H   0  0  0  0  0  0
  -25.1256  -36.1870   25.0807 H   0  0  0  0  0  0
  -20.9916  -28.3395   24.1348 H   0  0  0  0  0  0
  -20.5665  -26.2396   23.3672 H   0  0  0  0  0  0
  -21.6618  -26.7444   22.1208 H   0  0  0  0  0  0
  -19.6906  -25.6293   21.1276 H   0  0  0  0  0  0
  -19.6652  -27.3177   20.6739 H   0  0  0  0  0  0
  -17.4180  -26.6722   21.4003 H   0  0  0  0  0  0
  -18.0249  -26.0074   22.9000 H   0  0  0  0  0  0
  -19.7976  -30.7274   24.2208 H   0  0  0  0  0  0
  -17.5059  -31.6248   24.5210 H   0  0  0  0  0  0
  -15.5362  -30.3009   23.7640 H   0  0  0  0  0  0
  -15.8682  -28.0761   22.7196 H   0  0  0  0  0  0
  -24.5885  -30.7095   25.7858 H   0  0  0  0  0  0
  -24.8879  -32.2990   26.4777 H   0  0  0  0  0  0
  -25.7993  -30.9113   27.0350 H   0  0  0  0  0  0
  -26.3134  -29.6592   24.1415 H   0  0  0  0  0  0
  -27.3978  -29.7250   25.5077 H   0  0  0  0  0  0
  -27.9054  -30.4133   23.9892 H   0  0  0  0  0  0
  -27.2516  -33.3795   26.1894 H   0  0  0  0  0  0
  -28.3873  -32.6878   25.0424 H   0  0  0  0  0  0
  -28.0595  -31.8768   26.5669 H   0  0  0  0  0  0
  -28.2496  -38.0102   24.7545 H   0  0  0  0  0  0
  -28.1120  -36.2604   24.6247 H   0  0  0  0  0  0
  -27.2302  -37.1344   25.8886 H   0  0  0  0  0  0
  -20.9587  -29.8810   21.6737 H   0  0  0  0  0  0
  -26.0125  -38.2778   24.1522 H   0  0  0  0  0  0
  -28.7216  -19.8217   22.6964 H   0  0  0  0  0  0
  -27.4445  -23.0667   25.4272 H   0  0  0  0  0  0
  -26.8236  -24.2875   24.3332 H   0  0  0  0  0  0
  -28.4990  -24.3725   24.8690 H   0  0  0  0  0  0
  -28.8515  -21.0893   18.4121 H   0  0  0  0  0  0
  -29.6565  -19.5547   18.1272 H   0  0  0  0  0  0
  -30.5150  -20.8708   18.9366 H   0  0  0  0  0  0
  -28.2056  -17.5520   18.9853 H   0  0  0  0  0  0
  -27.6359  -16.2939   20.0705 H   0  0  0  0  0  0
  -28.6191  -15.9066   18.6211 H   0  0  0  0  0  0
  -27.1037  -24.0359   19.7025 H   0  0  0  0  0  0
  -28.7246  -24.0908   19.0983 H   0  0  0  0  0  0
  -29.7808  -18.2526   21.7660 H   0  0  0  0  0  0
  -30.9351  -18.4807   20.5239 H   0  0  0  0  0  0
  -28.0149  -19.5692   20.0432 H   0  0  0  0  0  0
  1 25  1  0  0  0
  1 30  2  0  0  0
  1 83  1  0  0  0
  2  3  1  0  0  0
  2 25  1  0  0  0
  2 84  1  0  0  0
  2 85  1  0  0  0
  3  4  1  0  0  0
  3 86  1  0  0  0
  3 87  1  0  0  0
  4  5  1  0  0  0
  4 88  1  0  0  0
  4 89  1  0  0  0
  5  6  1  0  0  0
  5 26  1  0  0  0
  5 90  1  0  0  0
  6 25  1  0  0  0
  6 91  1  0  0  0
  6 92  1  0  0  0
  7  8  2  0  0  0
  7 26  1  0  0  0
  7 29  1  0  0  0
  8  9  1  0  0  0
  8 22  1  0  0  0
  9 10  1  0  0  0
  9 27  2  0  0  0
 10 11  2  0  0  0
 10 15  1  0  0  0
 11 12  1  0  0  0
 11 93  1  0  0  0
 12 13  2  0  0  0
 12 94  1  0  0  0
 13 14  1  0  0  0
 13 31  1  0  0  0
 14 15  2  0  0  0
 14 95  1  0  0  0
 15 96  1  0  0  0
 16 17  2  0  0  0
 16 21  1  0  0  0
 16 31  1  0  0  0
 17 18  1  0  0  0
 17 97  1  0  0  0
 18 19  2  0  0  0
 18 98  1  0  0  0
 19 20  1  0  0  0
 19 24  1  0  0  0
 20 21  2  0  0  0
 20 99  1  0  0  0
 21 23  1  0  0  0
 22 28  1  0  0  0
 22 32  2  0  0  0
 26 27  1  0  0  0
 28100  1  0  0  0
 28101  1  0  0  0
 29102  1  0  0  0
 29103  1  0  0  0
 33 34  1  0  0  0
 33 66  1  0  0  0
 33 70  2  0  0  0
 34 36  1  0  0  0
 34 59  1  0  0  0
 34104  1  0  0  0
 35 44  2  0  0  0
 35 45  1  0  0  0
 35 68  1  0  0  0
 36 56  1  0  0  0
 36105  1  0  0  0
 37 39  1  0  0  0
 37 47  1  0  0  0
 37 66  1  0  0  0
 37106  1  0  0  0
 38 43  2  0  0  0
 38 46  1  0  0  0
 38 47  1  0  0  0
 39 64  1  0  0  0
 39 67  2  0  0  0
 40 52  1  0  0  0
 40 53  2  0  0  0
 40 58  1  0  0  0
 41107  1  0  0  0
 41108  1  0  0  0
 41109  1  0  0  0
 41 48  1  0  0  0
 42 43  1  0  0  0
 42 66  1  0  0  0
 42110  1  0  0  0
 42111  1  0  0  0
 43 44  1  0  0  0
 44112  1  0  0  0
 45 46  2  0  0  0
 45113  1  0  0  0
 46114  1  0  0  0
 47115  1  0  0  0
 47116  1  0  0  0
 48 56  1  0  0  0
 48 65  1  0  0  0
 48117  1  0  0  0
 49 50  1  0  0  0
 49 53  1  0  0  0
 49 64  1  0  0  0
 49118  1  0  0  0
 50 51  1  0  0  0
 50119  1  0  0  0
 50120  1  0  0  0
 51 52  1  0  0  0
 51121  1  0  0  0
 51122  1  0  0  0
 52123  1  0  0  0
 52124  1  0  0  0
 53 54  1  0  0  0
 54 55  2  0  0  0
 54125  1  0  0  0
 55 57  1  0  0  0
 55126  1  0  0  0
 56 69  2  0  0  0
 57 58  2  0  0  0
 57127  1  0  0  0
 58128  1  0  0  0
 59 60  1  0  0  0
 59 61  1  0  0  0
 59 62  1  0  0  0
 60129  1  0  0  0
 60130  1  0  0  0
 60131  1  0  0  0
 61132  1  0  0  0
 61133  1  0  0  0
 61134  1  0  0  0
 62135  1  0  0  0
 62136  1  0  0  0
 62137  1  0  0  0
 63 65  1  0  0  0
 63138  1  0  0  0
 63139  1  0  0  0
 63140  1  0  0  0
 64141  1  0  0  0
 65142  1  0  0  0
 68 78  1  0  0  0
 71 72  2  0  0  0
 71 81  1  0  0  0
 71143  1  0  0  0
 72 73  1  0  0  0
 72 80  1  0  0  0
 73 78  1  0  0  0
 73 82  2  0  0  0
 74 75  1  0  0  0
 74 81  2  0  0  0
 74 82  1  0  0  0
 75144  1  0  0  0
 75145  1  0  0  0
 75146  1  0  0  0
 76147  1  0  0  0
 76148  1  0  0  0
 76149  1  0  0  0
 76 80  1  0  0  0
 77 83  1  0  0  0
 77150  1  0  0  0
 77151  1  0  0  0
 77152  1  0  0  0
 78153  1  0  0  0
 78154  1  0  0  0
 79 80  1  0  0  0
 79 83  1  0  0  0
 79155  1  0  0  0
 79156  1  0  0  0
 80157  1  0  0  0
M  ISO  4   1 100  68 101  78 101  83 100
M  END
> <chiral flag>
0

> <version>
0

> <s_m_source_file>
/data/baiqing/PycharmProjects/Reinvent-master-3.2/result/LINK_invent/BTK/process_docking_weight1_custom_sum_contain_oxygen_bond_distance_aromatic_linkinvent_7_9_3/rearranged_h_0060.sdf

> <i_m_source_file_index>
79

> <r_mmod_Potential_Energy-OPLS-2005>
1274.37475585938

> <r_mmod_Stretch_Energy-OPLS-2005>
654.1572265625

> <r_mmod_Bend_Energy-OPLS-2005>
543.248291015625

> <r_mmod_Torsional_Energy-OPLS-2005>
302.809143066406

> <r_mmod_Improper_Torsional_Energy-OPLS-2005>
5.89429712295532

> <r_mmod_Van_der_Waal_Energy-OPLS-2005>
134.123672485352

> <r_mmod_Electrostatic_Energy-OPLS-2005>
-666.690673828125

> <r_mmod_Solvation_Energy-OPLS-2005>
-235.410430908203

> <b_mmod_Minimization_Converged-OPLS-2005>
0

> <r_mmod_RMS_Derivative-OPLS-2005>
7.57215785980225

$$$$
83
                    3D
 Structure written by MMmdl.
151159  0  0  1  0            999 V2000
  -30.5337  -14.9998   20.4018 C   0  0  0  0  0  0
  -30.4348  -12.6225   19.4990 C   0  0  0  0  0  0
  -29.5196  -12.5357   18.2564 C   0  0  0  0  0  0
  -28.0543  -12.3156   18.6759 C   0  0  0  0  0  0
  -27.6238  -13.2549   19.8330 C   0  0  2  0  0  0
  -28.6670  -13.3118   20.9683 C   0  0  0  0  0  0
  -25.2435  -13.8227   20.5726 C   0  0  0  0  0  0
  -24.1765  -13.0443   20.9247 C   0  0  0  0  0  0
  -24.6390  -11.6929   20.8756 C   0  0  0  0  0  0
  -23.9072  -10.4295   21.0398 C   0  0  0  0  0  0
  -24.3621   -9.4211   21.9177 C   0  0  0  0  0  0
  -23.6302   -8.2243   22.0750 C   0  0  0  0  0  0
  -22.4283   -8.0279   21.3545 C   0  0  0  0  0  0
  -21.9919   -9.0248   20.4642 C   0  0  0  0  0  0
  -22.7242  -10.2130   20.3051 C   0  0  0  0  0  0
  -21.6860   -6.0730   22.5275 C   0  0  0  0  0  0
  -21.4017   -6.5634   23.8208 C   0  0  0  0  0  0
  -21.3668   -5.6790   24.9173 C   0  0  0  0  0  0
  -21.6047   -4.3052   24.7228 C   0  0  0  0  0  0
  -21.8817   -3.8143   23.4348 C   0  0  0  0  0  0
  -21.9197   -4.6956   22.3402 C   0  0  0  0  0  0
  -22.7786  -13.5202   21.1904 C   0  0  0  0  0  0
  -22.1664   -4.2141   21.0980 F   0  0  0  0  0  0
  -21.5634   -3.4536   25.7738 F   0  0  0  0  0  0
  -29.9335  -13.7370   20.3578 N   0  0  0  0  0  0
  -26.2860  -12.9470   20.3237 N   0  0  0  0  0  0
  -25.9323  -11.6594   20.5729 N   0  0  0  0  0  0
  -22.0447  -12.8178   22.0454 N   0  0  0  0  0  0
  -25.4087  -15.1959   20.4139 N   0  0  0  0  0  0
  -31.7450  -15.0364   20.1598 O   0  0  0  0  0  0
  -21.6652   -6.8873   21.4237 O   0  0  0  0  0  0
  -22.3461  -14.5510   20.6755 O   0  0  0  0  0  0
  -24.6478  -31.8412   23.1853 C   0  0  0  0  0  0
  -25.9228  -32.4682   23.8263 C   0  0  1  0  0  0
  -27.2167  -27.0922   20.1482 C   0  0  0  0  0  0
  -25.5961  -33.8490   24.2174 N   0  0  0  0  0  0
  -23.4540  -30.4594   21.5331 C   0  0  2  0  0  0
  -24.9036  -28.8795   20.1113 C   0  0  0  0  0  0
  -22.7586  -29.4541   22.4857 C   0  0  0  0  0  0
  -18.0311  -28.1394   22.8481 C   0  0  0  0  0  0
  -24.1493  -36.7246   23.2644 C   0  0  0  0  0  0
  -26.0137  -30.6986   21.3920 C   0  0  0  0  0  0
  -26.0846  -29.3063   20.7317 C   0  0  0  0  0  0
  -27.2418  -28.4307   20.7309 C   0  0  0  0  0  0
  -26.0063  -26.7812   19.4883 C   0  0  0  0  0  0
  -24.8802  -27.6315   19.4741 C   0  0  0  0  0  0
  -23.6822  -29.7870   20.1540 C   0  0  0  0  0  0
  -25.4127  -36.3023   24.0310 C   0  0  1  0  0  0
  -20.5925  -28.3731   23.1223 C   0  0  2  0  0  0
  -20.6790  -26.9429   22.5401 C   0  0  0  0  0  0
  -19.5762  -26.6379   21.5213 C   0  0  0  0  0  0
  -18.1948  -26.7933   22.1628 C   0  0  0  0  0  0
  -19.1567  -28.8881   23.2844 C   0  0  0  0  0  0
  -18.9481  -30.1475   23.8875 C   0  0  0  0  0  0
  -17.6475  -30.6591   24.0556 C   0  0  0  0  0  0
  -25.9080  -34.9400   23.5053 C   0  0  0  0  0  0
  -16.5368  -29.9078   23.6336 C   0  0  0  0  0  0
  -16.7294  -28.6494   23.0364 C   0  0  0  0  0  0
  -26.4528  -31.6564   25.0724 C   0  0  0  0  0  0
  -25.3694  -31.3764   26.1406 C   0  0  0  0  0  0
  -27.0402  -30.2954   24.6344 C   0  0  0  0  0  0
  -27.6052  -32.4339   25.7510 C   0  0  0  0  0  0
  -27.5575  -37.1780   24.8465 C   0  0  0  0  0  0
  -21.4277  -29.3057   22.3594 N   0  0  0  0  0  0
  -26.4286  -37.3739   23.9405 N   0  0  0  0  0  0
  -24.7256  -31.0216   22.0918 N   0  0  0  0  0  0
  -23.4204  -28.8095   23.3030 O   0  0  0  0  0  0
  -28.2511  -26.0702   20.2095 O   0  0  0  0  0  0
  -26.5669  -34.8904   22.4636 O   0  0  0  0  0  0
  -23.5582  -32.1319   23.7033 O   0  0  0  0  0  0
  -30.8196  -21.1220   20.1263 C   0  0  0  0  0  0
  -30.3252  -23.4282   20.0803 C   0  0  0  0  0  0
  -29.4653  -20.7365   20.2637 C   0  0  0  0  0  0
  -28.9343  -23.2177   20.1914 C   0  0  0  0  0  0
  -30.9835  -18.0112   21.7952 C   0  0  0  0  0  0
  -29.0901  -19.1027   20.3216 C   0  0  0  0  0  0
  -27.9102  -24.5319   20.0900 C   0  0  0  0  0  0
  -30.1646  -17.7738   20.5139 C   0  0  1  0  0  0
  -31.2370  -22.4166   20.0473 N   0  0  0  0  0  0
  -28.5342  -21.8346   20.2806 N   0  0  0  0  0  0
  -29.7748  -16.2149   20.5125 N   0  0  0  0  0  0
  -31.4679  -12.7793   19.1865 H   0  0  0  0  0  0
  -30.4325  -11.6799   20.0484 H   0  0  0  0  0  0
  -29.8470  -11.7309   17.5971 H   0  0  0  0  0  0
  -29.5998  -13.4579   17.6785 H   0  0  0  0  0  0
  -27.9576  -11.2759   18.9910 H   0  0  0  0  0  0
  -27.3901  -12.4366   17.8195 H   0  0  0  0  0  0
  -27.5767  -14.2513   19.3926 H   0  0  0  0  0  0
  -28.7686  -12.3434   21.4603 H   0  0  0  0  0  0
  -28.3603  -14.0218   21.7380 H   0  0  0  0  0  0
  -25.2760   -9.5695   22.4758 H   0  0  0  0  0  0
  -24.0018   -7.4630   22.7464 H   0  0  0  0  0  0
  -21.0859   -8.8757   19.8936 H   0  0  0  0  0  0
  -22.3695  -10.9667   19.6161 H   0  0  0  0  0  0
  -21.2006   -7.6140   23.9708 H   0  0  0  0  0  0
  -21.1499   -6.0522   25.9075 H   0  0  0  0  0  0
  -22.0591   -2.7604   23.2849 H   0  0  0  0  0  0
  -22.4090  -11.9850   22.4843 H   0  0  0  0  0  0
  -21.1049  -13.1158   22.2646 H   0  0  0  0  0  0
  -24.6377  -15.8453   20.5247 H   0  0  0  0  0  0
  -26.2443  -15.6352   20.0515 H   0  0  0  0  0  0
  -26.7295  -32.5266   23.0988 H   0  0  0  0  0  0
  -25.0074  -33.9606   25.0298 H   0  0  0  0  0  0
  -22.7591  -31.2867   21.3763 H   0  0  0  0  0  0
  -23.3763  -35.9569   23.3290 H   0  0  0  0  0  0
  -24.3580  -36.8900   22.2064 H   0  0  0  0  0  0
  -23.7242  -37.6432   23.6698 H   0  0  0  0  0  0
  -26.1758  -31.4510   20.6192 H   0  0  0  0  0  0
  -26.8810  -30.7490   22.0389 H   0  0  0  0  0  0
  -28.1397  -28.7551   21.2380 H   0  0  0  0  0  0
  -25.8862  -25.8335   18.9872 H   0  0  0  0  0  0
  -23.9799  -27.2989   18.9760 H   0  0  0  0  0  0
  -23.8206  -30.5611   19.3984 H   0  0  0  0  0  0
  -22.7955  -29.2310   19.8441 H   0  0  0  0  0  0
  -25.1317  -36.1848   25.0801 H   0  0  0  0  0  0
  -21.0018  -28.3322   24.1343 H   0  0  0  0  0  0
  -20.5684  -26.2348   23.3628 H   0  0  0  0  0  0
  -21.6655  -26.7431   22.1202 H   0  0  0  0  0  0
  -19.6924  -25.6282   21.1264 H   0  0  0  0  0  0
  -19.6692  -27.3168   20.6725 H   0  0  0  0  0  0
  -17.4215  -26.6679   21.4032 H   0  0  0  0  0  0
  -18.0348  -26.0078   22.9029 H   0  0  0  0  0  0
  -19.7956  -30.7296   24.2236 H   0  0  0  0  0  0
  -17.5028  -31.6274   24.5155 H   0  0  0  0  0  0
  -15.5367  -30.2969   23.7674 H   0  0  0  0  0  0
  -15.8699  -28.0800   22.7094 H   0  0  0  0  0  0
  -24.5884  -30.7106   25.7710 H   0  0  0  0  0  0
  -24.8869  -32.2948   26.4761 H   0  0  0  0  0  0
  -25.7956  -30.8977   27.0232 H   0  0  0  0  0  0
  -26.3036  -29.6667   24.1331 H   0  0  0  0  0  0
  -27.3971  -29.7269   25.4942 H   0  0  0  0  0  0
  -27.8961  -30.4175   23.9702 H   0  0  0  0  0  0
  -27.2647  -33.3667   26.2018 H   0  0  0  0  0  0
  -28.3897  -32.6859   25.0361 H   0  0  0  0  0  0
  -28.0685  -31.8516   26.5488 H   0  0  0  0  0  0
  -28.2576  -38.0089   24.7517 H   0  0  0  0  0  0
  -28.1088  -36.2621   24.6286 H   0  0  0  0  0  0
  -27.2295  -37.1413   25.8868 H   0  0  0  0  0  0
  -20.9494  -29.8758   21.6761 H   0  0  0  0  0  0
  -26.0151  -38.2805   24.1408 H   0  0  0  0  0  0
  -31.5985  -20.3767   20.0589 H   0  0  0  0  0  0
  -30.7177  -24.4304   19.9832 H   0  0  0  0  0  0
  -31.3960  -19.0168   21.8430 H   0  0  0  0  0  0
  -31.8264  -17.3230   21.8663 H   0  0  0  0  0  0
  -30.3664  -17.8733   22.6837 H   0  0  0  0  0  0
  -28.5328  -18.9161   19.4033 H   0  0  0  0  0  0
  -28.3459  -19.0150   21.1131 H   0  0  0  0  0  0
  -27.1062  -24.3376   20.8004 H   0  0  0  0  0  0
  -27.4644  -24.4042   19.1045 H   0  0  0  0  0  0
  -30.8616  -17.8642   19.6789 H   0  0  0  0  0  0
  -28.7866  -16.0428   20.6258 H   0  0  0  0  0  0
  1 25  1  0  0  0
  1 30  2  0  0  0
  1 81  1  0  0  0
  2  3  1  0  0  0
  2 25  1  0  0  0
  2 82  1  0  0  0
  2 83  1  0  0  0
  3  4  1  0  0  0
  3 84  1  0  0  0
  3 85  1  0  0  0
  4  5  1  0  0  0
  4 86  1  0  0  0
  4 87  1  0  0  0
  5  6  1  0  0  0
  5 26  1  0  0  0
  5 88  1  0  0  0
  6 25  1  0  0  0
  6 89  1  0  0  0
  6 90  1  0  0  0
  7  8  2  0  0  0
  7 26  1  0  0  0
  7 29  1  0  0  0
  8  9  1  0  0  0
  8 22  1  0  0  0
  9 10  1  0  0  0
  9 27  2  0  0  0
 10 11  2  0  0  0
 10 15  1  0  0  0
 11 12  1  0  0  0
 11 91  1  0  0  0
 12 13  2  0  0  0
 12 92  1  0  0  0
 13 14  1  0  0  0
 13 31  1  0  0  0
 14 15  2  0  0  0
 14 93  1  0  0  0
 15 94  1  0  0  0
 16 17  2  0  0  0
 16 21  1  0  0  0
 16 31  1  0  0  0
 17 18  1  0  0  0
 17 95  1  0  0  0
 18 19  2  0  0  0
 18 96  1  0  0  0
 19 20  1  0  0  0
 19 24  1  0  0  0
 20 21  2  0  0  0
 20 97  1  0  0  0
 21 23  1  0  0  0
 22 28  1  0  0  0
 22 32  2  0  0  0
 26 27  1  0  0  0
 28 98  1  0  0  0
 28 99  1  0  0  0
 29100  1  0  0  0
 29101  1  0  0  0
 33 34  1  0  0  0
 33 66  1  0  0  0
 33 70  2  0  0  0
 34 36  1  0  0  0
 34 59  1  0  0  0
 34102  1  0  0  0
 35 44  2  0  0  0
 35 45  1  0  0  0
 35 68  1  0  0  0
 36 56  1  0  0  0
 36103  1  0  0  0
 37 39  1  0  0  0
 37 47  1  0  0  0
 37 66  1  0  0  0
 37104  1  0  0  0
 38 43  2  0  0  0
 38 46  1  0  0  0
 38 47  1  0  0  0
 39 64  1  0  0  0
 39 67  2  0  0  0
 40 52  1  0  0  0
 40 53  2  0  0  0
 40 58  1  0  0  0
 41105  1  0  0  0
 41106  1  0  0  0
 41107  1  0  0  0
 41 48  1  0  0  0
 42 43  1  0  0  0
 42 66  1  0  0  0
 42108  1  0  0  0
 42109  1  0  0  0
 43 44  1  0  0  0
 44110  1  0  0  0
 45 46  2  0  0  0
 45111  1  0  0  0
 46112  1  0  0  0
 47113  1  0  0  0
 47114  1  0  0  0
 48 56  1  0  0  0
 48 65  1  0  0  0
 48115  1  0  0  0
 49 50  1  0  0  0
 49 53  1  0  0  0
 49 64  1  0  0  0
 49116  1  0  0  0
 50 51  1  0  0  0
 50117  1  0  0  0
 50118  1  0  0  0
 51 52  1  0  0  0
 51119  1  0  0  0
 51120  1  0  0  0
 52121  1  0  0  0
 52122  1  0  0  0
 53 54  1  0  0  0
 54 55  2  0  0  0
 54123  1  0  0  0
 55 57  1  0  0  0
 55124  1  0  0  0
 56 69  2  0  0  0
 57 58  2  0  0  0
 57125  1  0  0  0
 58126  1  0  0  0
 59 60  1  0  0  0
 59 61  1  0  0  0
 59 62  1  0  0  0
 60127  1  0  0  0
 60128  1  0  0  0
 60129  1  0  0  0
 61130  1  0  0  0
 61131  1  0  0  0
 61132  1  0  0  0
 62133  1  0  0  0
 62134  1  0  0  0
 62135  1  0  0  0
 63 65  1  0  0  0
 63136  1  0  0  0
 63137  1  0  0  0
 63138  1  0  0  0
 64139  1  0  0  0
 65140  1  0  0  0
 68 77  1  0  0  0
 71 73  2  0  0  0
 71 79  1  0  0  0
 71141  1  0  0  0
 72 74  1  0  0  0
 72 79  2  0  0  0
 72142  1  0  0  0
 73 76  1  0  0  0
 73 80  1  0  0  0
 74 77  1  0  0  0
 74 80  2  0  0  0
 75143  1  0  0  0
 75144  1  0  0  0
 75145  1  0  0  0
 75 78  1  0  0  0
 76 78  1  0  0  0
 76146  1  0  0  0
 76147  1  0  0  0
 77148  1  0  0  0
 77149  1  0  0  0
 78 81  1  0  0  0
 78150  1  0  0  0
 81151  1  0  0  0
M  ISO  4   1 100  68 101  77 101  81 100
M  END
> <chiral flag>
0

> <version>
0

> <s_m_source_file>
/data/baiqing/PycharmProjects/Reinvent-master-3.2/result/LINK_invent/BTK/process_docking_weight1_custom_sum_contain_oxygen_bond_distance_aromatic_linkinvent_7_9_3/rearranged_h_0060.sdf

> <i_m_source_file_index>
80

> <r_mmod_Potential_Energy-OPLS-2005>
685.339294433594

> <r_mmod_Stretch_Energy-OPLS-2005>
322.232299804688

> <r_mmod_Bend_Energy-OPLS-2005>
272.691070556641

> <r_mmod_Torsional_Energy-OPLS-2005>
207.504440307617

> <r_mmod_Improper_Torsional_Energy-OPLS-2005>
4.53450155258179

> <r_mmod_Van_der_Waal_Energy-OPLS-2005>
129.894989013672

> <r_mmod_Electrostatic_Energy-OPLS-2005>
-253.656829833984

> <r_mmod_Solvation_Energy-OPLS-2005>
-230.708419799805

> <b_mmod_Minimization_Converged-OPLS-2005>
0

> <r_mmod_RMS_Derivative-OPLS-2005>
1.00173950195312

$$$$
84
                    3D
 Structure written by MMmdl.
156164  0  0  1  0            999 V2000
  -30.6272  -14.8012   20.4738 C   0  0  0  0  0  0
  -30.4197  -12.4989   19.4889 C   0  0  0  0  0  0
  -29.5069  -12.5195   18.2453 C   0  0  0  0  0  0
  -28.0367  -12.3330   18.6599 C   0  0  0  0  0  0
  -27.6341  -13.2444   19.8499 C   0  0  2  0  0  0
  -28.6750  -13.2220   20.9899 C   0  0  0  0  0  0
  -25.2471  -13.8222   20.5739 C   0  0  0  0  0  0
  -24.1776  -13.0445   20.9228 C   0  0  0  0  0  0
  -24.6388  -11.6930   20.8753 C   0  0  0  0  0  0
  -23.9073  -10.4296   21.0406 C   0  0  0  0  0  0
  -24.3625   -9.4210   21.9182 C   0  0  0  0  0  0
  -23.6299   -8.2245   22.0751 C   0  0  0  0  0  0
  -22.4279   -8.0282   21.3543 C   0  0  0  0  0  0
  -21.9916   -9.0255   20.4645 C   0  0  0  0  0  0
  -22.7245  -10.2136   20.3054 C   0  0  0  0  0  0
  -21.6856   -6.0735   22.5277 C   0  0  0  0  0  0
  -21.4017   -6.5639   23.8210 C   0  0  0  0  0  0
  -21.3659   -5.6793   24.9173 C   0  0  0  0  0  0
  -21.6043   -4.3055   24.7224 C   0  0  0  0  0  0
  -21.8820   -3.8146   23.4345 C   0  0  0  0  0  0
  -21.9195   -4.6963   22.3403 C   0  0  0  0  0  0
  -22.7796  -13.5216   21.1880 C   0  0  0  0  0  0
  -22.1662   -4.2149   21.0980 F   0  0  0  0  0  0
  -21.5629   -3.4538   25.7735 F   0  0  0  0  0  0
  -29.9713  -13.5833   20.4050 N   0  0  0  0  0  0
  -26.2898  -12.9453   20.3296 N   0  0  0  0  0  0
  -25.9321  -11.6582   20.5760 N   0  0  0  0  0  0
  -22.0445  -12.8199   22.0433 N   0  0  0  0  0  0
  -25.4158  -15.1950   20.4199 N   0  0  0  0  0  0
  -31.7915  -14.8527   20.0617 O   0  0  0  0  0  0
  -21.6642   -6.8879   21.4239 O   0  0  0  0  0  0
  -22.3479  -14.5522   20.6727 O   0  0  0  0  0  0
  -24.6332  -31.8493   23.1914 C   0  0  0  0  0  0
  -25.9141  -32.4716   23.8278 C   0  0  1  0  0  0
  -27.2210  -27.2161   20.1344 C   0  0  0  0  0  0
  -25.5920  -33.8524   24.2197 N   0  0  0  0  0  0
  -23.4325  -30.4676   21.5354 C   0  0  2  0  0  0
  -24.8805  -28.9028   20.1033 C   0  0  0  0  0  0
  -22.7510  -29.4562   22.4889 C   0  0  0  0  0  0
  -18.0291  -28.1389   22.8484 C   0  0  0  0  0  0
  -24.1493  -36.7275   23.2643 C   0  0  0  0  0  0
  -25.9792  -30.7464   21.3773 C   0  0  0  0  0  0
  -26.0494  -29.3641   20.7201 C   0  0  0  0  0  0
  -27.2162  -28.5305   20.7267 C   0  0  0  0  0  0
  -26.0303  -26.8265   19.4862 C   0  0  0  0  0  0
  -24.8787  -27.6451   19.4749 C   0  0  0  0  0  0
  -23.6519  -29.7951   20.1524 C   0  0  0  0  0  0
  -25.4119  -36.3047   24.0318 C   0  0  1  0  0  0
  -20.5894  -28.3697   23.1270 C   0  0  2  0  0  0
  -20.6778  -26.9412   22.5418 C   0  0  0  0  0  0
  -19.5757  -26.6380   21.5220 C   0  0  0  0  0  0
  -18.1933  -26.7930   22.1626 C   0  0  0  0  0  0
  -19.1544  -28.8861   23.2873 C   0  0  0  0  0  0
  -18.9466  -30.1462   23.8890 C   0  0  0  0  0  0
  -17.6465  -30.6590   24.0563 C   0  0  0  0  0  0
  -25.9062  -34.9421   23.5068 C   0  0  0  0  0  0
  -16.5355  -29.9085   23.6337 C   0  0  0  0  0  0
  -16.7278  -28.6505   23.0355 C   0  0  0  0  0  0
  -26.4490  -31.6565   25.0694 C   0  0  0  0  0  0
  -25.3707  -31.3751   26.1420 C   0  0  0  0  0  0
  -27.0330  -30.2965   24.6221 C   0  0  0  0  0  0
  -27.6043  -32.4315   25.7463 C   0  0  0  0  0  0
  -27.5577  -37.1789   24.8461 C   0  0  0  0  0  0
  -21.4211  -29.3032   22.3646 N   0  0  0  0  0  0
  -26.4286  -37.3755   23.9409 N   0  0  0  0  0  0
  -24.7009  -31.0413   22.0907 N   0  0  0  0  0  0
  -23.4192  -28.8123   23.3018 O   0  0  0  0  0  0
  -28.3183  -26.3209   20.2525 O   0  0  0  0  0  0
  -26.5658  -34.8912   22.4653 O   0  0  0  0  0  0
  -23.5473  -32.1337   23.7187 O   0  0  0  0  0  0
  -30.4045  -19.7261   18.4698 C   0  0  0  0  0  0
  -29.2586  -20.8359   20.0493 C   0  0  0  0  0  0
  -29.5054  -18.4932   20.1071 C   0  0  0  0  0  0
  -31.2076  -19.7674   17.1868 C   0  0  0  0  0  0
  -30.8614  -16.4939   22.1794 C   0  0  0  0  0  0
  -29.0066  -22.2919   20.7038 C   0  0  0  0  0  0
  -29.0956  -16.9983   20.5459 C   0  0  0  0  0  0
  -28.0072  -23.4624   20.1242 C   0  0  0  0  0  0
  -28.4565  -24.9575   19.5966 C   0  0  0  0  0  0
  -29.9507  -20.8938   18.9191 N   0  0  0  0  0  0
  -30.2389  -18.5202   19.0047 N   0  0  0  0  0  0
  -28.9899  -19.6383   20.6813 N   0  0  0  0  0  0
  -30.0673  -15.9308   21.0832 N   0  0  0  0  0  0
  -31.4615  -12.6086   19.1842 H   0  0  0  0  0  0
  -30.3641  -11.5317   19.9910 H   0  0  0  0  0  0
  -29.8008  -11.7351   17.5466 H   0  0  0  0  0  0
  -29.6252  -13.4649   17.7136 H   0  0  0  0  0  0
  -27.9054  -11.2861   18.9359 H   0  0  0  0  0  0
  -27.3773  -12.5074   17.8086 H   0  0  0  0  0  0
  -27.6152  -14.2589   19.4522 H   0  0  0  0  0  0
  -28.7235  -12.2379   21.4588 H   0  0  0  0  0  0
  -28.3940  -13.9243   21.7763 H   0  0  0  0  0  0
  -25.2770   -9.5688   22.4759 H   0  0  0  0  0  0
  -24.0008   -7.4636   22.7469 H   0  0  0  0  0  0
  -21.0847   -8.8777   19.8949 H   0  0  0  0  0  0
  -22.3703  -10.9676   19.6164 H   0  0  0  0  0  0
  -21.2009   -7.6145   23.9715 H   0  0  0  0  0  0
  -21.1480   -6.0520   25.9076 H   0  0  0  0  0  0
  -22.0600   -2.7607   23.2846 H   0  0  0  0  0  0
  -22.4070  -11.9865   22.4827 H   0  0  0  0  0  0
  -21.1058  -13.1210   22.2633 H   0  0  0  0  0  0
  -24.6503  -15.8490   20.5436 H   0  0  0  0  0  0
  -26.2648  -15.6369   20.0954 H   0  0  0  0  0  0
  -26.7199  -32.5341   23.1007 H   0  0  0  0  0  0
  -25.0032  -33.9653   25.0318 H   0  0  0  0  0  0
  -22.7310  -31.2908   21.3850 H   0  0  0  0  0  0
  -23.3758  -35.9604   23.3281 H   0  0  0  0  0  0
  -24.3585  -36.8927   22.2064 H   0  0  0  0  0  0
  -23.7242  -37.6462   23.6694 H   0  0  0  0  0  0
  -26.1240  -31.5035   20.6054 H   0  0  0  0  0  0
  -26.8546  -30.7960   22.0133 H   0  0  0  0  0  0
  -28.1073  -28.8734   21.2332 H   0  0  0  0  0  0
  -25.9593  -25.8543   19.0208 H   0  0  0  0  0  0
  -23.9816  -27.2853   18.9897 H   0  0  0  0  0  0
  -23.7755  -30.5693   19.3943 H   0  0  0  0  0  0
  -22.7692  -29.2289   19.8497 H   0  0  0  0  0  0
  -25.1303  -36.1881   25.0809 H   0  0  0  0  0  0
  -20.9989  -28.3285   24.1391 H   0  0  0  0  0  0
  -20.5682  -26.2307   23.3626 H   0  0  0  0  0  0
  -21.6645  -26.7437   22.1210 H   0  0  0  0  0  0
  -19.6923  -25.6291   21.1254 H   0  0  0  0  0  0
  -19.6698  -27.3191   20.6753 H   0  0  0  0  0  0
  -17.4206  -26.6680   21.4026 H   0  0  0  0  0  0
  -18.0330  -26.0071   22.9020 H   0  0  0  0  0  0
  -19.7942  -30.7283   24.2250 H   0  0  0  0  0  0
  -17.5018  -31.6272   24.5163 H   0  0  0  0  0  0
  -15.5357  -30.2986   23.7667 H   0  0  0  0  0  0
  -15.8675  -28.0826   22.7072 H   0  0  0  0  0  0
  -24.5849  -30.7135   25.7747 H   0  0  0  0  0  0
  -24.8946  -32.2943   26.4845 H   0  0  0  0  0  0
  -25.8007  -30.8908   27.0196 H   0  0  0  0  0  0
  -26.2910  -29.6710   24.1243 H   0  0  0  0  0  0
  -27.3974  -29.7237   25.4759 H   0  0  0  0  0  0
  -27.8809  -30.4203   23.9482 H   0  0  0  0  0  0
  -27.2648  -33.3639   26.1987 H   0  0  0  0  0  0
  -28.3874  -32.6832   25.0300 H   0  0  0  0  0  0
  -28.0678  -31.8471   26.5420 H   0  0  0  0  0  0
  -28.2581  -38.0099   24.7512 H   0  0  0  0  0  0
  -28.1082  -36.2627   24.6270 H   0  0  0  0  0  0
  -27.2302  -37.1416   25.8867 H   0  0  0  0  0  0
  -20.9402  -29.8736   21.6832 H   0  0  0  0  0  0
  -26.0155  -38.2822   24.1417 H   0  0  0  0  0  0
  -31.3510  -20.7884   16.8319 H   0  0  0  0  0  0
  -30.6985  -19.2074   16.4026 H   0  0  0  0  0  0
  -32.1913  -19.3234   17.3385 H   0  0  0  0  0  0
  -30.2597  -17.1429   22.8170 H   0  0  0  0  0  0
  -31.6955  -17.0802   21.7896 H   0  0  0  0  0  0
  -31.2724  -15.7104   22.8197 H   0  0  0  0  0  0
  -29.9913  -22.7434   20.8226 H   0  0  0  0  0  0
  -28.6914  -22.0956   21.7286 H   0  0  0  0  0  0
  -28.5939  -16.5556   19.6852 H   0  0  0  0  0  0
  -28.3071  -17.0971   21.2924 H   0  0  0  0  0  0
  -27.2098  -23.6057   20.8527 H   0  0  0  0  0  0
  -27.4936  -22.9918   19.2858 H   0  0  0  0  0  0
  -28.0308  -25.0709   18.5995 H   0  0  0  0  0  0
  -29.5236  -24.8761   19.3889 H   0  0  0  0  0  0
  1 25  1  0  0  0
  1 30  2  0  0  0
  1 83  1  0  0  0
  2  3  1  0  0  0
  2 25  1  0  0  0
  2 84  1  0  0  0
  2 85  1  0  0  0
  3  4  1  0  0  0
  3 86  1  0  0  0
  3 87  1  0  0  0
  4  5  1  0  0  0
  4 88  1  0  0  0
  4 89  1  0  0  0
  5  6  1  0  0  0
  5 26  1  0  0  0
  5 90  1  0  0  0
  6 25  1  0  0  0
  6 91  1  0  0  0
  6 92  1  0  0  0
  7  8  2  0  0  0
  7 26  1  0  0  0
  7 29  1  0  0  0
  8  9  1  0  0  0
  8 22  1  0  0  0
  9 10  1  0  0  0
  9 27  2  0  0  0
 10 11  2  0  0  0
 10 15  1  0  0  0
 11 12  1  0  0  0
 11 93  1  0  0  0
 12 13  2  0  0  0
 12 94  1  0  0  0
 13 14  1  0  0  0
 13 31  1  0  0  0
 14 15  2  0  0  0
 14 95  1  0  0  0
 15 96  1  0  0  0
 16 17  2  0  0  0
 16 21  1  0  0  0
 16 31  1  0  0  0
 17 18  1  0  0  0
 17 97  1  0  0  0
 18 19  2  0  0  0
 18 98  1  0  0  0
 19 20  1  0  0  0
 19 24  1  0  0  0
 20 21  2  0  0  0
 20 99  1  0  0  0
 21 23  1  0  0  0
 22 28  1  0  0  0
 22 32  2  0  0  0
 26 27  1  0  0  0
 28100  1  0  0  0
 28101  1  0  0  0
 29102  1  0  0  0
 29103  1  0  0  0
 33 34  1  0  0  0
 33 66  1  0  0  0
 33 70  2  0  0  0
 34 36  1  0  0  0
 34 59  1  0  0  0
 34104  1  0  0  0
 35 44  2  0  0  0
 35 45  1  0  0  0
 35 68  1  0  0  0
 36 56  1  0  0  0
 36105  1  0  0  0
 37 39  1  0  0  0
 37 47  1  0  0  0
 37 66  1  0  0  0
 37106  1  0  0  0
 38 43  2  0  0  0
 38 46  1  0  0  0
 38 47  1  0  0  0
 39 64  1  0  0  0
 39 67  2  0  0  0
 40 52  1  0  0  0
 40 53  2  0  0  0
 40 58  1  0  0  0
 41107  1  0  0  0
 41108  1  0  0  0
 41109  1  0  0  0
 41 48  1  0  0  0
 42 43  1  0  0  0
 42 66  1  0  0  0
 42110  1  0  0  0
 42111  1  0  0  0
 43 44  1  0  0  0
 44112  1  0  0  0
 45 46  2  0  0  0
 45113  1  0  0  0
 46114  1  0  0  0
 47115  1  0  0  0
 47116  1  0  0  0
 48 56  1  0  0  0
 48 65  1  0  0  0
 48117  1  0  0  0
 49 50  1  0  0  0
 49 53  1  0  0  0
 49 64  1  0  0  0
 49118  1  0  0  0
 50 51  1  0  0  0
 50119  1  0  0  0
 50120  1  0  0  0
 51 52  1  0  0  0
 51121  1  0  0  0
 51122  1  0  0  0
 52123  1  0  0  0
 52124  1  0  0  0
 53 54  1  0  0  0
 54 55  2  0  0  0
 54125  1  0  0  0
 55 57  1  0  0  0
 55126  1  0  0  0
 56 69  2  0  0  0
 57 58  2  0  0  0
 57127  1  0  0  0
 58128  1  0  0  0
 59 60  1  0  0  0
 59 61  1  0  0  0
 59 62  1  0  0  0
 60129  1  0  0  0
 60130  1  0  0  0
 60131  1  0  0  0
 61132  1  0  0  0
 61133  1  0  0  0
 61134  1  0  0  0
 62135  1  0  0  0
 62136  1  0  0  0
 62137  1  0  0  0
 63 65  1  0  0  0
 63138  1  0  0  0
 63139  1  0  0  0
 63140  1  0  0  0
 64141  1  0  0  0
 65142  1  0  0  0
 68 79  1  0  0  0
 71 74  1  0  0  0
 71 80  2  0  0  0
 71 81  1  0  0  0
 72 76  1  0  0  0
 72 80  1  0  0  0
 72 82  2  0  0  0
 73 77  1  0  0  0
 73 81  2  0  0  0
 73 82  1  0  0  0
 74143  1  0  0  0
 74144  1  0  0  0
 74145  1  0  0  0
 75 83  1  0  0  0
 75146  1  0  0  0
 75147  1  0  0  0
 75148  1  0  0  0
 76 78  1  0  0  0
 76149  1  0  0  0
 76150  1  0  0  0
 77 83  1  0  0  0
 77151  1  0  0  0
 77152  1  0  0  0
 78 79  1  0  0  0
 78153  1  0  0  0
 78154  1  0  0  0
 79155  1  0  0  0
 79156  1  0  0  0
M  ISO  4   1 100  68 101  79 101  83 100
M  END
> <chiral flag>
0

> <version>
0

> <s_m_source_file>
/data/baiqing/PycharmProjects/Reinvent-master-3.2/result/LINK_invent/BTK/process_docking_weight1_custom_sum_contain_oxygen_bond_distance_aromatic_linkinvent_7_9_3/rearranged_h_0060.sdf

> <i_m_source_file_index>
81

> <r_mmod_Potential_Energy-OPLS-2005>
-341.442596435547

> <r_mmod_Stretch_Energy-OPLS-2005>
157.874435424805

> <r_mmod_Bend_Energy-OPLS-2005>
257.58251953125

> <r_mmod_Torsional_Energy-OPLS-2005>
276.782257080078

> <r_mmod_Improper_Torsional_Energy-OPLS-2005>
6.37377214431763

> <r_mmod_Van_der_Waal_Energy-OPLS-2005>
146.055572509766

> <r_mmod_Electrostatic_Energy-OPLS-2005>
-1065.46545410156

> <r_mmod_Solvation_Energy-OPLS-2005>
-233.094680786133

> <b_mmod_Minimization_Converged-OPLS-2005>
0

> <r_mmod_RMS_Derivative-OPLS-2005>
0.622076511383057

$$$$
85
                    3D
 Structure written by MMmdl.
154162  0  0  1  0            999 V2000
  -30.5795  -14.8743   20.4150 C   0  0  0  0  0  0
  -30.4441  -12.5349   19.4947 C   0  0  0  0  0  0
  -29.5221  -12.5072   18.2536 C   0  0  0  0  0  0
  -28.0532  -12.3090   18.6733 C   0  0  0  0  0  0
  -27.6396  -13.2385   19.8439 C   0  0  2  0  0  0
  -28.6841  -13.2430   20.9830 C   0  0  0  0  0  0
  -25.2514  -13.8203   20.5692 C   0  0  0  0  0  0
  -24.1805  -13.0454   20.9211 C   0  0  0  0  0  0
  -24.6396  -11.6931   20.8746 C   0  0  0  0  0  0
  -23.9047  -10.4305   21.0413 C   0  0  0  0  0  0
  -24.3604   -9.4216   21.9187 C   0  0  0  0  0  0
  -23.6290   -8.2248   22.0749 C   0  0  0  0  0  0
  -22.4268   -8.0280   21.3539 C   0  0  0  0  0  0
  -21.9909   -9.0250   20.4636 C   0  0  0  0  0  0
  -22.7225  -10.2136   20.3058 C   0  0  0  0  0  0
  -21.6856   -6.0726   22.5279 C   0  0  0  0  0  0
  -21.4007   -6.5632   23.8203 C   0  0  0  0  0  0
  -21.3656   -5.6778   24.9172 C   0  0  0  0  0  0
  -21.6051   -4.3044   24.7218 C   0  0  0  0  0  0
  -21.8829   -3.8131   23.4339 C   0  0  0  0  0  0
  -21.9198   -4.6956   22.3392 C   0  0  0  0  0  0
  -22.7826  -13.5239   21.1856 C   0  0  0  0  0  0
  -22.1665   -4.2151   21.0970 F   0  0  0  0  0  0
  -21.5635   -3.4525   25.7725 F   0  0  0  0  0  0
  -29.9744  -13.6257   20.3909 N   0  0  0  0  0  0
  -26.2944  -12.9417   20.3268 N   0  0  0  0  0  0
  -25.9335  -11.6560   20.5763 N   0  0  0  0  0  0
  -22.0451  -12.8244   22.0413 N   0  0  0  0  0  0
  -25.4191  -15.1926   20.4053 N   0  0  0  0  0  0
  -31.7684  -14.9553   20.0947 O   0  0  0  0  0  0
  -21.6639   -6.8877   21.4238 O   0  0  0  0  0  0
  -22.3516  -14.5533   20.6678 O   0  0  0  0  0  0
  -24.6431  -31.8456   23.1897 C   0  0  0  0  0  0
  -25.9212  -32.4699   23.8280 C   0  0  1  0  0  0
  -27.2210  -27.1494   20.1468 C   0  0  0  0  0  0
  -25.5960  -33.8507   24.2191 N   0  0  0  0  0  0
  -23.4461  -30.4686   21.5335 C   0  0  2  0  0  0
  -24.8987  -28.9027   20.1048 C   0  0  0  0  0  0
  -22.7580  -29.4569   22.4843 C   0  0  0  0  0  0
  -18.0312  -28.1397   22.8488 C   0  0  0  0  0  0
  -24.1470  -36.7240   23.2647 C   0  0  0  0  0  0
  -26.0020  -30.7232   21.3889 C   0  0  0  0  0  0
  -26.0742  -29.3359   20.7310 C   0  0  0  0  0  0
  -27.2347  -28.4735   20.7429 C   0  0  0  0  0  0
  -26.0234  -26.8328   19.4608 C   0  0  0  0  0  0
  -24.8871  -27.6638   19.4513 C   0  0  0  0  0  0
  -23.6725  -29.8003   20.1513 C   0  0  0  0  0  0
  -25.4105  -36.3026   24.0323 C   0  0  1  0  0  0
  -20.5930  -28.3722   23.1232 C   0  0  2  0  0  0
  -20.6784  -26.9426   22.5401 C   0  0  0  0  0  0
  -19.5742  -26.6395   21.5212 C   0  0  0  0  0  0
  -18.1936  -26.7943   22.1638 C   0  0  0  0  0  0
  -19.1573  -28.8882   23.2847 C   0  0  0  0  0  0
  -18.9490  -30.1487   23.8848 C   0  0  0  0  0  0
  -17.6484  -30.6589   24.0576 C   0  0  0  0  0  0
  -25.9072  -34.9411   23.5070 C   0  0  0  0  0  0
  -16.5377  -29.9085   23.6347 C   0  0  0  0  0  0
  -16.7305  -28.6513   23.0362 C   0  0  0  0  0  0
  -26.4541  -31.6565   25.0720 C   0  0  0  0  0  0
  -25.3738  -31.3765   26.1420 C   0  0  0  0  0  0
  -27.0399  -30.2958   24.6293 C   0  0  0  0  0  0
  -27.6065  -32.4346   25.7497 C   0  0  0  0  0  0
  -27.5553  -37.1775   24.8477 C   0  0  0  0  0  0
  -21.4274  -29.3048   22.3594 N   0  0  0  0  0  0
  -26.4253  -37.3757   23.9438 N   0  0  0  0  0  0
  -24.7162  -31.0333   22.0921 N   0  0  0  0  0  0
  -23.4234  -28.8134   23.3002 O   0  0  0  0  0  0
  -28.2537  -26.1394   20.2446 O   0  0  0  0  0  0
  -26.5646  -34.8924   22.4640 O   0  0  0  0  0  0
  -23.5556  -32.1319   23.7134 O   0  0  0  0  0  0
  -28.8162  -22.6309   21.5180 C   0  0  0  0  0  0
  -28.8807  -22.2398   19.2465 C   0  0  0  0  0  0
  -28.6484  -23.2411   20.2457 C   0  0  0  0  0  0
  -29.3231  -20.4090   20.7128 C   0  0  0  0  0  0
  -27.8380  -18.3846   21.2711 C   0  0  0  0  0  0
  -30.0468  -18.6272   22.4358 C   0  0  0  0  0  0
  -27.8868  -24.6681   19.9314 C   0  0  0  0  0  0
  -30.0155  -17.5524   20.2001 C   0  0  0  0  0  0
  -29.3153  -18.7836   21.0825 C   0  0  0  0  0  0
  -29.1269  -21.2961   21.7213 N   0  0  0  0  0  0
  -29.1726  -20.8959   19.4666 N   0  0  0  0  0  0
  -29.8003  -16.0357   20.5760 N   0  0  0  0  0  0
  -31.4806  -12.6784   19.1818 H   0  0  0  0  0  0
  -30.4178  -11.5774   20.0173 H   0  0  0  0  0  0
  -29.8314  -11.7082   17.5782 H   0  0  0  0  0  0
  -29.6262  -13.4384   17.6949 H   0  0  0  0  0  0
  -27.9407  -11.2668   18.9741 H   0  0  0  0  0  0
  -27.3886  -12.4512   17.8204 H   0  0  0  0  0  0
  -27.6135  -14.2453   19.4275 H   0  0  0  0  0  0
  -28.7531  -12.2636   21.4585 H   0  0  0  0  0  0
  -28.3929  -13.9434   21.7682 H   0  0  0  0  0  0
  -25.2758   -9.5706   22.4758 H   0  0  0  0  0  0
  -24.0012   -7.4644   22.7471 H   0  0  0  0  0  0
  -21.0840   -8.8747   19.8947 H   0  0  0  0  0  0
  -22.3669  -10.9664   19.6154 H   0  0  0  0  0  0
  -21.1980   -7.6142   23.9703 H   0  0  0  0  0  0
  -21.1469   -6.0507   25.9070 H   0  0  0  0  0  0
  -22.0609   -2.7603   23.2825 H   0  0  0  0  0  0
  -22.4048  -11.9918   22.4833 H   0  0  0  0  0  0
  -21.1067  -13.1279   22.2574 H   0  0  0  0  0  0
  -24.6426  -15.8403   20.4900 H   0  0  0  0  0  0
  -26.2559  -15.6254   20.0376 H   0  0  0  0  0  0
  -26.7293  -32.5307   23.1019 H   0  0  0  0  0  0
  -25.0113  -33.9614   25.0347 H   0  0  0  0  0  0
  -22.7457  -31.2928   21.3812 H   0  0  0  0  0  0
  -23.3744  -35.9559   23.3306 H   0  0  0  0  0  0
  -24.3563  -36.8875   22.2062 H   0  0  0  0  0  0
  -23.7207  -37.6436   23.6684 H   0  0  0  0  0  0
  -26.1573  -31.4779   20.6159 H   0  0  0  0  0  0
  -26.8729  -30.7719   22.0315 H   0  0  0  0  0  0
  -28.1208  -28.7989   21.2697 H   0  0  0  0  0  0
  -25.9107  -25.8976   18.9354 H   0  0  0  0  0  0
  -23.9961  -27.3327   18.9356 H   0  0  0  0  0  0
  -23.8071  -30.5735   19.3938 H   0  0  0  0  0  0
  -22.7871  -29.2409   19.8433 H   0  0  0  0  0  0
  -25.1294  -36.1828   25.0812 H   0  0  0  0  0  0
  -21.0037  -28.3301   24.1351 H   0  0  0  0  0  0
  -20.5657  -26.2356   23.3630 H   0  0  0  0  0  0
  -21.6650  -26.7410   22.1207 H   0  0  0  0  0  0
  -19.6891  -25.6303   21.1247 H   0  0  0  0  0  0
  -19.6656  -27.3202   20.6728 H   0  0  0  0  0  0
  -17.4213  -26.6724   21.4033 H   0  0  0  0  0  0
  -18.0313  -26.0076   22.9018 H   0  0  0  0  0  0
  -19.7967  -30.7335   24.2168 H   0  0  0  0  0  0
  -17.5044  -31.6251   24.5212 H   0  0  0  0  0  0
  -15.5374  -30.2979   23.7686 H   0  0  0  0  0  0
  -15.8718  -28.0822   22.7072 H   0  0  0  0  0  0
  -24.5907  -30.7101   25.7786 H   0  0  0  0  0  0
  -24.8921  -32.2945   26.4786 H   0  0  0  0  0  0
  -25.8034  -30.9000   27.0232 H   0  0  0  0  0  0
  -26.2996  -29.6691   24.1287 H   0  0  0  0  0  0
  -27.4016  -29.7250   25.4859 H   0  0  0  0  0  0
  -27.8928  -30.4223   23.9617 H   0  0  0  0  0  0
  -27.2635  -33.3687   26.1957 H   0  0  0  0  0  0
  -28.3912  -32.6825   25.0342 H   0  0  0  0  0  0
  -28.0674  -31.8540   26.5490 H   0  0  0  0  0  0
  -28.2584  -38.0059   24.7514 H   0  0  0  0  0  0
  -28.1026  -36.2594   24.6288 H   0  0  0  0  0  0
  -27.2295  -37.1415   25.8888 H   0  0  0  0  0  0
  -20.9483  -29.8756   21.6761 H   0  0  0  0  0  0
  -26.0104  -38.2825   24.1449 H   0  0  0  0  0  0
  -28.6026  -23.1972   22.4122 H   0  0  0  0  0  0
  -28.7376  -22.4959   18.2079 H   0  0  0  0  0  0
  -27.3577  -19.0096   22.0244 H   0  0  0  0  0  0
  -27.7204  -17.3498   21.5946 H   0  0  0  0  0  0
  -27.2824  -18.5066   20.3408 H   0  0  0  0  0  0
  -29.5738  -19.2026   23.2306 H   0  0  0  0  0  0
  -31.0801  -18.9682   22.3562 H   0  0  0  0  0  0
  -30.0734  -17.5912   22.7745 H   0  0  0  0  0  0
  -26.9142  -24.5051   20.3987 H   0  0  0  0  0  0
  -27.7086  -24.6429   18.8549 H   0  0  0  0  0  0
  -31.0887  -17.7323   20.1230 H   0  0  0  0  0  0
  -29.6489  -17.6556   19.1778 H   0  0  0  0  0  0
  -28.8545  -15.8232   20.8514 H   0  0  0  0  0  0
  1 25  1  0  0  0
  1 30  2  0  0  0
  1 82  1  0  0  0
  2  3  1  0  0  0
  2 25  1  0  0  0
  2 83  1  0  0  0
  2 84  1  0  0  0
  3  4  1  0  0  0
  3 85  1  0  0  0
  3 86  1  0  0  0
  4  5  1  0  0  0
  4 87  1  0  0  0
  4 88  1  0  0  0
  5  6  1  0  0  0
  5 26  1  0  0  0
  5 89  1  0  0  0
  6 25  1  0  0  0
  6 90  1  0  0  0
  6 91  1  0  0  0
  7  8  2  0  0  0
  7 26  1  0  0  0
  7 29  1  0  0  0
  8  9  1  0  0  0
  8 22  1  0  0  0
  9 10  1  0  0  0
  9 27  2  0  0  0
 10 11  2  0  0  0
 10 15  1  0  0  0
 11 12  1  0  0  0
 11 92  1  0  0  0
 12 13  2  0  0  0
 12 93  1  0  0  0
 13 14  1  0  0  0
 13 31  1  0  0  0
 14 15  2  0  0  0
 14 94  1  0  0  0
 15 95  1  0  0  0
 16 17  2  0  0  0
 16 21  1  0  0  0
 16 31  1  0  0  0
 17 18  1  0  0  0
 17 96  1  0  0  0
 18 19  2  0  0  0
 18 97  1  0  0  0
 19 20  1  0  0  0
 19 24  1  0  0  0
 20 21  2  0  0  0
 20 98  1  0  0  0
 21 23  1  0  0  0
 22 28  1  0  0  0
 22 32  2  0  0  0
 26 27  1  0  0  0
 28 99  1  0  0  0
 28100  1  0  0  0
 29101  1  0  0  0
 29102  1  0  0  0
 33 34  1  0  0  0
 33 66  1  0  0  0
 33 70  2  0  0  0
 34 36  1  0  0  0
 34 59  1  0  0  0
 34103  1  0  0  0
 35 44  2  0  0  0
 35 45  1  0  0  0
 35 68  1  0  0  0
 36 56  1  0  0  0
 36104  1  0  0  0
 37 39  1  0  0  0
 37 47  1  0  0  0
 37 66  1  0  0  0
 37105  1  0  0  0
 38 43  2  0  0  0
 38 46  1  0  0  0
 38 47  1  0  0  0
 39 64  1  0  0  0
 39 67  2  0  0  0
 40 52  1  0  0  0
 40 53  2  0  0  0
 40 58  1  0  0  0
 41106  1  0  0  0
 41107  1  0  0  0
 41108  1  0  0  0
 41 48  1  0  0  0
 42 43  1  0  0  0
 42 66  1  0  0  0
 42109  1  0  0  0
 42110  1  0  0  0
 43 44  1  0  0  0
 44111  1  0  0  0
 45 46  2  0  0  0
 45112  1  0  0  0
 46113  1  0  0  0
 47114  1  0  0  0
 47115  1  0  0  0
 48 56  1  0  0  0
 48 65  1  0  0  0
 48116  1  0  0  0
 49 50  1  0  0  0
 49 53  1  0  0  0
 49 64  1  0  0  0
 49117  1  0  0  0
 50 51  1  0  0  0
 50118  1  0  0  0
 50119  1  0  0  0
 51 52  1  0  0  0
 51120  1  0  0  0
 51121  1  0  0  0
 52122  1  0  0  0
 52123  1  0  0  0
 53 54  1  0  0  0
 54 55  2  0  0  0
 54124  1  0  0  0
 55 57  1  0  0  0
 55125  1  0  0  0
 56 69  2  0  0  0
 57 58  2  0  0  0
 57126  1  0  0  0
 58127  1  0  0  0
 59 60  1  0  0  0
 59 61  1  0  0  0
 59 62  1  0  0  0
 60128  1  0  0  0
 60129  1  0  0  0
 60130  1  0  0  0
 61131  1  0  0  0
 61132  1  0  0  0
 61133  1  0  0  0
 62134  1  0  0  0
 62135  1  0  0  0
 62136  1  0  0  0
 63 65  1  0  0  0
 63137  1  0  0  0
 63138  1  0  0  0
 63139  1  0  0  0
 64140  1  0  0  0
 65141  1  0  0  0
 68 77  1  0  0  0
 71 73  2  0  0  0
 71 80  1  0  0  0
 71142  1  0  0  0
 72 73  1  0  0  0
 72 81  2  0  0  0
 72143  1  0  0  0
 73 77  1  0  0  0
 74 79  1  0  0  0
 74 80  2  0  0  0
 74 81  1  0  0  0
 75144  1  0  0  0
 75145  1  0  0  0
 75146  1  0  0  0
 75 79  1  0  0  0
 76 79  1  0  0  0
 76147  1  0  0  0
 76148  1  0  0  0
 76149  1  0  0  0
 77150  1  0  0  0
 77151  1  0  0  0
 78 79  1  0  0  0
 78 82  1  0  0  0
 78152  1  0  0  0
 78153  1  0  0  0
 82154  1  0  0  0
M  ISO  4   1 100  68 101  77 101  82 100
M  END
> <chiral flag>
0

> <version>
0

> <s_m_source_file>
/data/baiqing/PycharmProjects/Reinvent-master-3.2/result/LINK_invent/BTK/process_docking_weight1_custom_sum_contain_oxygen_bond_distance_aromatic_linkinvent_7_9_3/rearranged_h_0060.sdf

> <i_m_source_file_index>
82

> <r_mmod_Potential_Energy-OPLS-2005>
12.4001836776733

> <r_mmod_Stretch_Energy-OPLS-2005>
217.6201171875

> <r_mmod_Bend_Energy-OPLS-2005>
266.183044433594

> <r_mmod_Torsional_Energy-OPLS-2005>
221.598297119141

> <r_mmod_Improper_Torsional_Energy-OPLS-2005>
12.434287071228

> <r_mmod_Van_der_Waal_Energy-OPLS-2005>
146.729080200195

> <r_mmod_Electrostatic_Energy-OPLS-2005>
-788.86181640625

> <r_mmod_Solvation_Energy-OPLS-2005>
-230.182220458984

> <b_mmod_Minimization_Converged-OPLS-2005>
0

> <r_mmod_RMS_Derivative-OPLS-2005>
2.75255560874939

$$$$
86
                    3D
 Structure written by MMmdl.
158166  0  0  1  0            999 V2000
  -30.6740  -14.5414   20.5265 C   0  0  0  0  0  0
  -30.4277  -12.3376   19.4366 C   0  0  0  0  0  0
  -29.5007  -12.5022   18.2137 C   0  0  0  0  0  0
  -28.0225  -12.3530   18.6253 C   0  0  0  0  0  0
  -27.6574  -13.2088   19.8675 C   0  0  2  0  0  0
  -28.7016  -13.0338   20.9942 C   0  0  0  0  0  0
  -25.2577  -13.8159   20.5680 C   0  0  0  0  0  0
  -24.1836  -13.0436   20.9188 C   0  0  0  0  0  0
  -24.6396  -11.6904   20.8741 C   0  0  0  0  0  0
  -23.9061  -10.4291   21.0409 C   0  0  0  0  0  0
  -24.3613   -9.4208   21.9185 C   0  0  0  0  0  0
  -23.6291   -8.2243   22.0755 C   0  0  0  0  0  0
  -22.4273   -8.0282   21.3543 C   0  0  0  0  0  0
  -21.9905   -9.0258   20.4648 C   0  0  0  0  0  0
  -22.7234  -10.2137   20.3059 C   0  0  0  0  0  0
  -21.6853   -6.0737   22.5282 C   0  0  0  0  0  0
  -21.4015   -6.5639   23.8216 C   0  0  0  0  0  0
  -21.3659   -5.6790   24.9175 C   0  0  0  0  0  0
  -21.6044   -4.3054   24.7226 C   0  0  0  0  0  0
  -21.8819   -3.8147   23.4347 C   0  0  0  0  0  0
  -21.9194   -4.6965   22.3403 C   0  0  0  0  0  0
  -22.7859  -13.5241   21.1844 C   0  0  0  0  0  0
  -22.1660   -4.2149   21.0980 F   0  0  0  0  0  0
  -21.5627   -3.4538   25.7739 F   0  0  0  0  0  0
  -30.0263  -13.3444   20.4337 N   0  0  0  0  0  0
  -26.3009  -12.9332   20.3337 N   0  0  0  0  0  0
  -25.9320  -11.6492   20.5764 N   0  0  0  0  0  0
  -22.0491  -12.8248   22.0404 N   0  0  0  0  0  0
  -25.4269  -15.1877   20.4073 N   0  0  0  0  0  0
  -31.8231  -14.7067   20.1105 O   0  0  0  0  0  0
  -21.6636   -6.8881   21.4244 O   0  0  0  0  0  0
  -22.3549  -14.5545   20.6685 O   0  0  0  0  0  0
  -24.6188  -31.8651   23.2076 C   0  0  0  0  0  0
  -25.9060  -32.4810   23.8388 C   0  0  1  0  0  0
  -27.2302  -27.3973   20.1094 C   0  0  0  0  0  0
  -25.5902  -33.8607   24.2315 N   0  0  0  0  0  0
  -23.4101  -30.4884   21.5479 C   0  0  2  0  0  0
  -24.8594  -28.9530   20.1105 C   0  0  0  0  0  0
  -22.7440  -29.4644   22.4961 C   0  0  0  0  0  0
  -18.0278  -28.1385   22.8493 C   0  0  0  0  0  0
  -24.1486  -36.7312   23.2639 C   0  0  0  0  0  0
  -25.9432  -30.8204   21.3675 C   0  0  0  0  0  0
  -26.0223  -29.4534   20.7116 C   0  0  0  0  0  0
  -27.2149  -28.6843   20.7054 C   0  0  0  0  0  0
  -26.0547  -26.9277   19.4868 C   0  0  0  0  0  0
  -24.8727  -27.6917   19.4916 C   0  0  0  0  0  0
  -23.6220  -29.8229   20.1620 C   0  0  0  0  0  0
  -25.4106  -36.3104   24.0336 C   0  0  1  0  0  0
  -20.5875  -28.3676   23.1304 C   0  0  2  0  0  0
  -20.6766  -26.9406   22.5416 C   0  0  0  0  0  0
  -19.5741  -26.6388   21.5215 C   0  0  0  0  0  0
  -18.1922  -26.7930   22.1629 C   0  0  0  0  0  0
  -19.1531  -28.8845   23.2898 C   0  0  0  0  0  0
  -18.9457  -30.1450   23.8909 C   0  0  0  0  0  0
  -17.6460  -30.6589   24.0567 C   0  0  0  0  0  0
  -25.9035  -34.9469   23.5124 C   0  0  0  0  0  0
  -16.5349  -29.9092   23.6329 C   0  0  0  0  0  0
  -16.7269  -28.6509   23.0350 C   0  0  0  0  0  0
  -26.4474  -31.6599   25.0730 C   0  0  0  0  0  0
  -25.3732  -31.3720   26.1476 C   0  0  0  0  0  0
  -27.0313  -30.3037   24.6134 C   0  0  0  0  0  0
  -27.6047  -32.4325   25.7493 C   0  0  0  0  0  0
  -27.5578  -37.1811   24.8464 C   0  0  0  0  0  0
  -21.4159  -29.3039   22.3706 N   0  0  0  0  0  0
  -26.4290  -37.3790   23.9407 N   0  0  0  0  0  0
  -24.6756  -31.0725   22.0992 N   0  0  0  0  0  0
  -23.4190  -28.8181   23.3017 O   0  0  0  0  0  0
  -28.3425  -26.5720   20.1429 O   0  0  0  0  0  0
  -26.5602  -34.8924   22.4690 O   0  0  0  0  0  0
  -23.5367  -32.1411   23.7447 O   0  0  0  0  0  0
  -28.3771  -20.4908   20.4141 C   0  0  0  0  0  0
  -29.1180  -21.6198   20.1673 C   0  0  0  0  0  0
  -27.9839  -17.7460   21.7079 C   0  0  0  0  0  0
  -28.3331  -17.5512   19.2256 C   0  0  0  0  0  0
  -28.6395  -23.0447   19.8623 C   0  0  0  0  0  0
  -29.1109  -24.1775   20.8261 C   0  0  0  0  0  0
  -30.2458  -17.0421   20.8051 C   0  0  0  0  0  0
  -28.1580  -25.4104   20.9947 C   0  0  0  0  0  0
  -28.9909  -17.9675   20.5571 C   0  0  0  0  0  0
  -30.4525  -21.2110   20.0881 N   0  0  0  0  0  0
  -30.5376  -19.9156   20.2579 N   0  0  0  0  0  0
  -29.2837  -19.4314   20.4658 N   0  0  0  0  0  0
  -29.9173  -15.5926   20.9162 N   0  0  0  0  0  0
  -31.4717  -12.4419   19.1361 H   0  0  0  0  0  0
  -30.3376  -11.3346   19.8564 H   0  0  0  0  0  0
  -29.7516  -11.7665   17.4483 H   0  0  0  0  0  0
  -29.6593  -13.4817   17.7596 H   0  0  0  0  0  0
  -27.8456  -11.2986   18.8387 H   0  0  0  0  0  0
  -27.3707  -12.6058   17.7881 H   0  0  0  0  0  0
  -27.6863  -14.2475   19.5434 H   0  0  0  0  0  0
  -28.6904  -12.0104   21.3714 H   0  0  0  0  0  0
  -28.4611  -13.6666   21.8497 H   0  0  0  0  0  0
  -25.2759   -9.5686   22.4759 H   0  0  0  0  0  0
  -24.0002   -7.4636   22.7476 H   0  0  0  0  0  0
  -21.0834   -8.8781   19.8956 H   0  0  0  0  0  0
  -22.3694  -10.9678   19.6168 H   0  0  0  0  0  0
  -21.2006   -7.6147   23.9722 H   0  0  0  0  0  0
  -21.1478   -6.0516   25.9079 H   0  0  0  0  0  0
  -22.0598   -2.7611   23.2846 H   0  0  0  0  0  0
  -22.4091  -11.9915   22.4814 H   0  0  0  0  0  0
  -21.1111  -13.1295   22.2597 H   0  0  0  0  0  0
  -24.6540  -15.8359   20.5116 H   0  0  0  0  0  0
  -26.2696  -15.6302   20.0671 H   0  0  0  0  0  0
  -26.7133  -32.5512   23.1152 H   0  0  0  0  0  0
  -25.0051  -33.9765   25.0460 H   0  0  0  0  0  0
  -22.7003  -31.3066   21.4080 H   0  0  0  0  0  0
  -23.3742  -35.9652   23.3312 H   0  0  0  0  0  0
  -24.3579  -36.8918   22.2052 H   0  0  0  0  0  0
  -23.7245  -37.6522   23.6648 H   0  0  0  0  0  0
  -26.0621  -31.5865   20.6003 H   0  0  0  0  0  0
  -26.8280  -30.8715   21.9903 H   0  0  0  0  0  0
  -28.1095  -29.0601   21.1821 H   0  0  0  0  0  0
  -26.0491  -25.9562   19.0127 H   0  0  0  0  0  0
  -23.9809  -27.3023   19.0202 H   0  0  0  0  0  0
  -23.7330  -30.5997   19.4046 H   0  0  0  0  0  0
  -22.7451  -29.2457   19.8632 H   0  0  0  0  0  0
  -25.1285  -36.1969   25.0829 H   0  0  0  0  0  0
  -20.9971  -28.3245   24.1423 H   0  0  0  0  0  0
  -20.5670  -26.2281   23.3607 H   0  0  0  0  0  0
  -21.6635  -26.7443   22.1206 H   0  0  0  0  0  0
  -19.6898  -25.6301   21.1238 H   0  0  0  0  0  0
  -19.6681  -27.3204   20.6750 H   0  0  0  0  0  0
  -17.4192  -26.6682   21.4032 H   0  0  0  0  0  0
  -18.0322  -26.0070   22.9024 H   0  0  0  0  0  0
  -19.7932  -30.7265   24.2282 H   0  0  0  0  0  0
  -17.5014  -31.6269   24.5170 H   0  0  0  0  0  0
  -15.5350  -30.2999   23.7644 H   0  0  0  0  0  0
  -15.8668  -28.0835   22.7054 H   0  0  0  0  0  0
  -24.5892  -30.7082   25.7811 H   0  0  0  0  0  0
  -24.8938  -32.2883   26.4933 H   0  0  0  0  0  0
  -25.8075  -30.8876   27.0230 H   0  0  0  0  0  0
  -26.2873  -29.6798   24.1165 H   0  0  0  0  0  0
  -27.4047  -29.7276   25.4611 H   0  0  0  0  0  0
  -27.8724  -30.4350   23.9320 H   0  0  0  0  0  0
  -27.2661  -33.3611   26.2102 H   0  0  0  0  0  0
  -28.3838  -32.6911   25.0309 H   0  0  0  0  0  0
  -28.0737  -31.8433   26.5383 H   0  0  0  0  0  0
  -28.2606  -38.0101   24.7503 H   0  0  0  0  0  0
  -28.1067  -36.2633   24.6299 H   0  0  0  0  0  0
  -27.2298  -37.1473   25.8869 H   0  0  0  0  0  0
  -20.9321  -29.8770   21.6936 H   0  0  0  0  0  0
  -26.0181  -38.2870   24.1403 H   0  0  0  0  0  0
  -27.3078  -20.3473   20.4981 H   0  0  0  0  0  0
  -27.6986  -16.7003   21.8158 H   0  0  0  0  0  0
  -27.0592  -18.3018   21.5555 H   0  0  0  0  0  0
  -28.4058  -18.0684   22.6604 H   0  0  0  0  0  0
  -28.0298  -16.5066   19.2229 H   0  0  0  0  0  0
  -29.0197  -17.6913   18.3899 H   0  0  0  0  0  0
  -27.4416  -18.1431   19.0164 H   0  0  0  0  0  0
  -27.5493  -23.0377   19.8561 H   0  0  0  0  0  0
  -28.9180  -23.3180   18.8441 H   0  0  0  0  0  0
  -30.1284  -24.4917   20.5933 H   0  0  0  0  0  0
  -29.1746  -23.7213   21.8146 H   0  0  0  0  0  0
  -30.7547  -17.3446   21.7213 H   0  0  0  0  0  0
  -30.9662  -17.1856   19.9976 H   0  0  0  0  0  0
  -28.2940  -25.7833   22.0114 H   0  0  0  0  0  0
  -27.1286  -25.0501   20.9732 H   0  0  0  0  0  0
  -28.9854  -15.3703   21.2295 H   0  0  0  0  0  0
  1 25  1  0  0  0
  1 30  2  0  0  0
  1 83  1  0  0  0
  2  3  1  0  0  0
  2 25  1  0  0  0
  2 84  1  0  0  0
  2 85  1  0  0  0
  3  4  1  0  0  0
  3 86  1  0  0  0
  3 87  1  0  0  0
  4  5  1  0  0  0
  4 88  1  0  0  0
  4 89  1  0  0  0
  5  6  1  0  0  0
  5 26  1  0  0  0
  5 90  1  0  0  0
  6 25  1  0  0  0
  6 91  1  0  0  0
  6 92  1  0  0  0
  7  8  2  0  0  0
  7 26  1  0  0  0
  7 29  1  0  0  0
  8  9  1  0  0  0
  8 22  1  0  0  0
  9 10  1  0  0  0
  9 27  2  0  0  0
 10 11  2  0  0  0
 10 15  1  0  0  0
 11 12  1  0  0  0
 11 93  1  0  0  0
 12 13  2  0  0  0
 12 94  1  0  0  0
 13 14  1  0  0  0
 13 31  1  0  0  0
 14 15  2  0  0  0
 14 95  1  0  0  0
 15 96  1  0  0  0
 16 17  2  0  0  0
 16 21  1  0  0  0
 16 31  1  0  0  0
 17 18  1  0  0  0
 17 97  1  0  0  0
 18 19  2  0  0  0
 18 98  1  0  0  0
 19 20  1  0  0  0
 19 24  1  0  0  0
 20 21  2  0  0  0
 20 99  1  0  0  0
 21 23  1  0  0  0
 22 28  1  0  0  0
 22 32  2  0  0  0
 26 27  1  0  0  0
 28100  1  0  0  0
 28101  1  0  0  0
 29102  1  0  0  0
 29103  1  0  0  0
 33 34  1  0  0  0
 33 66  1  0  0  0
 33 70  2  0  0  0
 34 36  1  0  0  0
 34 59  1  0  0  0
 34104  1  0  0  0
 35 44  2  0  0  0
 35 45  1  0  0  0
 35 68  1  0  0  0
 36 56  1  0  0  0
 36105  1  0  0  0
 37 39  1  0  0  0
 37 47  1  0  0  0
 37 66  1  0  0  0
 37106  1  0  0  0
 38 43  2  0  0  0
 38 46  1  0  0  0
 38 47  1  0  0  0
 39 64  1  0  0  0
 39 67  2  0  0  0
 40 52  1  0  0  0
 40 53  2  0  0  0
 40 58  1  0  0  0
 41107  1  0  0  0
 41108  1  0  0  0
 41109  1  0  0  0
 41 48  1  0  0  0
 42 43  1  0  0  0
 42 66  1  0  0  0
 42110  1  0  0  0
 42111  1  0  0  0
 43 44  1  0  0  0
 44112  1  0  0  0
 45 46  2  0  0  0
 45113  1  0  0  0
 46114  1  0  0  0
 47115  1  0  0  0
 47116  1  0  0  0
 48 56  1  0  0  0
 48 65  1  0  0  0
 48117  1  0  0  0
 49 50  1  0  0  0
 49 53  1  0  0  0
 49 64  1  0  0  0
 49118  1  0  0  0
 50 51  1  0  0  0
 50119  1  0  0  0
 50120  1  0  0  0
 51 52  1  0  0  0
 51121  1  0  0  0
 51122  1  0  0  0
 52123  1  0  0  0
 52124  1  0  0  0
 53 54  1  0  0  0
 54 55  2  0  0  0
 54125  1  0  0  0
 55 57  1  0  0  0
 55126  1  0  0  0
 56 69  2  0  0  0
 57 58  2  0  0  0
 57127  1  0  0  0
 58128  1  0  0  0
 59 60  1  0  0  0
 59 61  1  0  0  0
 59 62  1  0  0  0
 60129  1  0  0  0
 60130  1  0  0  0
 60131  1  0  0  0
 61132  1  0  0  0
 61133  1  0  0  0
 61134  1  0  0  0
 62135  1  0  0  0
 62136  1  0  0  0
 62137  1  0  0  0
 63 65  1  0  0  0
 63138  1  0  0  0
 63139  1  0  0  0
 63140  1  0  0  0
 64141  1  0  0  0
 65142  1  0  0  0
 68 78  1  0  0  0
 71 72  2  0  0  0
 71 82  1  0  0  0
 71143  1  0  0  0
 72 75  1  0  0  0
 72 80  1  0  0  0
 73144  1  0  0  0
 73145  1  0  0  0
 73146  1  0  0  0
 73 79  1  0  0  0
 74 79  1  0  0  0
 74147  1  0  0  0
 74148  1  0  0  0
 74149  1  0  0  0
 75 76  1  0  0  0
 75150  1  0  0  0
 75151  1  0  0  0
 76 78  1  0  0  0
 76152  1  0  0  0
 76153  1  0  0  0
 77 79  1  0  0  0
 77 83  1  0  0  0
 77154  1  0  0  0
 77155  1  0  0  0
 78156  1  0  0  0
 78157  1  0  0  0
 79 82  1  0  0  0
 80 81  2  0  0  0
 81 82  1  0  0  0
 83158  1  0  0  0
M  ISO  4   1 100  68 101  78 101  83 100
M  END
> <chiral flag>
0

> <version>
0

> <s_m_source_file>
/data/baiqing/PycharmProjects/Reinvent-master-3.2/result/LINK_invent/BTK/process_docking_weight1_custom_sum_contain_oxygen_bond_distance_aromatic_linkinvent_7_9_3/rearranged_h_0060.sdf

> <i_m_source_file_index>
83

> <r_mmod_Potential_Energy-OPLS-2005>
-98.7686004638672

> <r_mmod_Stretch_Energy-OPLS-2005>
49.6085929870605

> <r_mmod_Bend_Energy-OPLS-2005>
112.630874633789

> <r_mmod_Torsional_Energy-OPLS-2005>
265.53564453125

> <r_mmod_Improper_Torsional_Energy-OPLS-2005>
5.46203851699829

> <r_mmod_Van_der_Waal_Energy-OPLS-2005>
121.269645690918

> <r_mmod_Electrostatic_Energy-OPLS-2005>
-453.399078369141

> <r_mmod_Solvation_Energy-OPLS-2005>
-224.139434814453

> <b_mmod_Minimization_Converged-OPLS-2005>
0

> <r_mmod_RMS_Derivative-OPLS-2005>
0.638100981712341

$$$$
87
                    3D
 Structure written by MMmdl.
163171  0  0  1  0            999 V2000
  -30.7574  -14.3867   20.6525 C   0  0  0  0  0  0
  -30.4181  -12.2886   19.4024 C   0  0  0  0  0  0
  -29.4903  -12.5188   18.1951 C   0  0  0  0  0  0
  -28.0144  -12.3731   18.6114 C   0  0  0  0  0  0
  -27.6661  -13.2032   19.8773 C   0  0  2  0  0  0
  -28.7051  -12.9564   20.9945 C   0  0  0  0  0  0
  -25.2593  -13.8140   20.5675 C   0  0  0  0  0  0
  -24.1836  -13.0434   20.9157 C   0  0  0  0  0  0
  -24.6372  -11.6897   20.8702 C   0  0  0  0  0  0
  -23.9013  -10.4294   21.0363 C   0  0  0  0  0  0
  -24.3581   -9.4220   21.9151 C   0  0  0  0  0  0
  -23.6274   -8.2245   22.0731 C   0  0  0  0  0  0
  -22.4265   -8.0259   21.3525 C   0  0  0  0  0  0
  -21.9875   -9.0221   20.4637 C   0  0  0  0  0  0
  -22.7168  -10.2112   20.3035 C   0  0  0  0  0  0
  -21.6860   -6.0706   22.5255 C   0  0  0  0  0  0
  -21.4028   -6.5612   23.8191 C   0  0  0  0  0  0
  -21.3668   -5.6765   24.9153 C   0  0  0  0  0  0
  -21.6050   -4.3026   24.7208 C   0  0  0  0  0  0
  -21.8825   -3.8119   23.4332 C   0  0  0  0  0  0
  -21.9203   -4.6929   22.3393 C   0  0  0  0  0  0
  -22.7859  -13.5256   21.1816 C   0  0  0  0  0  0
  -22.1671   -4.2125   21.0967 F   0  0  0  0  0  0
  -21.5631   -3.4514   25.7722 F   0  0  0  0  0  0
  -30.0462  -13.2478   20.4540 N   0  0  0  0  0  0
  -26.3035  -12.9304   20.3358 N   0  0  0  0  0  0
  -25.9299  -11.6465   20.5722 N   0  0  0  0  0  0
  -22.0487  -12.8281   22.0400 N   0  0  0  0  0  0
  -25.4298  -15.1861   20.4149 N   0  0  0  0  0  0
  -31.8068  -14.6361   20.0523 O   0  0  0  0  0  0
  -21.6641   -6.8838   21.4221 O   0  0  0  0  0  0
  -22.3556  -14.5559   20.6636 O   0  0  0  0  0  0
  -24.6139  -31.8691   23.2112 C   0  0  0  0  0  0
  -25.9041  -32.4831   23.8401 C   0  0  1  0  0  0
  -27.2341  -27.4500   20.0707 C   0  0  0  0  0  0
  -25.5900  -33.8626   24.2329 N   0  0  0  0  0  0
  -23.4008  -30.4950   21.5522 C   0  0  2  0  0  0
  -24.8419  -28.9596   20.1185 C   0  0  0  0  0  0
  -22.7413  -29.4671   22.4996 C   0  0  0  0  0  0
  -18.0276  -28.1383   22.8513 C   0  0  0  0  0  0
  -24.1480  -36.7315   23.2639 C   0  0  0  0  0  0
  -25.9293  -30.8338   21.3661 C   0  0  0  0  0  0
  -26.0014  -29.4683   20.7152 C   0  0  0  0  0  0
  -27.1960  -28.7162   20.6969 C   0  0  0  0  0  0
  -26.0475  -26.9458   19.4877 C   0  0  0  0  0  0
  -24.8578  -27.6949   19.5091 C   0  0  0  0  0  0
  -23.6074  -29.8296   20.1664 C   0  0  0  0  0  0
  -25.4100  -36.3116   24.0352 C   0  0  1  0  0  0
  -20.5860  -28.3669   23.1336 C   0  0  2  0  0  0
  -20.6753  -26.9406   22.5421 C   0  0  0  0  0  0
  -19.5729  -26.6394   21.5221 C   0  0  0  0  0  0
  -18.1916  -26.7933   22.1637 C   0  0  0  0  0  0
  -19.1520  -28.8843   23.2924 C   0  0  0  0  0  0
  -18.9449  -30.1449   23.8940 C   0  0  0  0  0  0
  -17.6449  -30.6596   24.0575 C   0  0  0  0  0  0
  -25.9040  -34.9483   23.5133 C   0  0  0  0  0  0
  -16.5344  -29.9112   23.6319 C   0  0  0  0  0  0
  -16.7262  -28.6512   23.0360 C   0  0  0  0  0  0
  -26.4464  -31.6613   25.0729 C   0  0  0  0  0  0
  -25.3738  -31.3738   26.1491 C   0  0  0  0  0  0
  -27.0274  -30.3051   24.6097 C   0  0  0  0  0  0
  -27.6043  -32.4339   25.7472 C   0  0  0  0  0  0
  -27.5585  -37.1801   24.8467 C   0  0  0  0  0  0
  -21.4136  -29.3043   22.3744 N   0  0  0  0  0  0
  -26.4282  -37.3801   23.9435 N   0  0  0  0  0  0
  -24.6660  -31.0809   22.1015 N   0  0  0  0  0  0
  -23.4189  -28.8201   23.3026 O   0  0  0  0  0  0
  -28.4340  -26.7700   20.0471 O   0  0  0  0  0  0
  -26.5601  -34.8935   22.4701 O   0  0  0  0  0  0
  -23.5337  -32.1441   23.7524 O   0  0  0  0  0  0
  -29.4259  -23.6647   20.2923 C   0  0  0  0  0  0
  -29.1708  -22.3412   20.6708 C   0  0  0  0  0  0
  -28.4309  -24.3326   19.5669 C   0  0  0  0  0  0
  -27.0963  -22.4613   19.6826 C   0  0  0  0  0  0
  -28.8871  -20.4019   23.2149 C   0  0  0  0  0  0
  -30.1924  -21.5112   21.4386 C   0  0  0  0  0  0
  -28.6428  -25.7571   19.0559 C   0  0  0  0  0  0
  -29.8244  -17.7074   21.7899 C   0  0  0  0  0  0
  -30.8314  -16.5442   21.9086 C   0  0  0  0  0  0
  -30.5218  -19.0857   21.8872 C   0  0  0  0  0  0
  -25.7756  -21.7556   19.3200 C   0  0  0  0  0  0
  -28.0079  -21.7418   20.3494 N   0  0  0  0  0  0
  -27.2733  -23.7183   19.2663 N   0  0  0  0  0  0
  -30.2457  -15.2481   21.5450 N   0  0  0  0  0  0
  -29.5837  -20.2418   21.9139 N   0  3  1  0  0  0
  -25.3785  -20.9684   20.3242 F   0  0  0  0  0  0
  -24.7980  -22.6327   19.0727 F   0  0  0  0  0  0
  -25.9500  -20.9975   18.2347 F   0  0  0  0  0  0
  -31.4639  -12.3740   19.1023 H   0  0  0  0  0  0
  -30.3066  -11.2683   19.7747 H   0  0  0  0  0  0
  -29.7264  -11.8083   17.4025 H   0  0  0  0  0  0
  -29.6613  -13.5149   17.7790 H   0  0  0  0  0  0
  -27.8301  -11.3133   18.7976 H   0  0  0  0  0  0
  -27.3606  -12.6510   17.7843 H   0  0  0  0  0  0
  -27.7224  -14.2564   19.5997 H   0  0  0  0  0  0
  -28.6692  -11.9154   21.3180 H   0  0  0  0  0  0
  -28.4566  -13.5406   21.8817 H   0  0  0  0  0  0
  -25.2716   -9.5723   22.4730 H   0  0  0  0  0  0
  -23.9986   -7.4646   22.7465 H   0  0  0  0  0  0
  -21.0783   -8.8692   19.8981 H   0  0  0  0  0  0
  -22.3558  -10.9629   19.6150 H   0  0  0  0  0  0
  -21.2019   -7.6120   23.9678 H   0  0  0  0  0  0
  -21.1496   -6.0501   25.9051 H   0  0  0  0  0  0
  -22.0610   -2.7582   23.2827 H   0  0  0  0  0  0
  -22.4075  -11.9974   22.4874 H   0  0  0  0  0  0
  -21.1094  -13.1292   22.2547 H   0  0  0  0  0  0
  -24.6604  -15.8362   20.5329 H   0  0  0  0  0  0
  -26.2864  -15.6343   20.1152 H   0  0  0  0  0  0
  -26.7104  -32.5530   23.1155 H   0  0  0  0  0  0
  -25.0044  -33.9775   25.0468 H   0  0  0  0  0  0
  -22.6893  -31.3119   21.4159 H   0  0  0  0  0  0
  -23.3747  -35.9643   23.3302 H   0  0  0  0  0  0
  -24.3577  -36.8915   22.2050 H   0  0  0  0  0  0
  -23.7213  -37.6519   23.6643 H   0  0  0  0  0  0
  -26.0468  -31.5977   20.5967 H   0  0  0  0  0  0
  -26.8158  -30.8827   21.9861 H   0  0  0  0  0  0
  -28.0956  -29.1146   21.1451 H   0  0  0  0  0  0
  -26.0154  -25.9799   19.0084 H   0  0  0  0  0  0
  -23.9639  -27.2940   19.0509 H   0  0  0  0  0  0
  -23.7241  -30.6062   19.4097 H   0  0  0  0  0  0
  -22.7293  -29.2555   19.8647 H   0  0  0  0  0  0
  -25.1259  -36.1979   25.0841 H   0  0  0  0  0  0
  -20.9955  -28.3219   24.1458 H   0  0  0  0  0  0
  -20.5655  -26.2276   23.3607 H   0  0  0  0  0  0
  -21.6625  -26.7449   22.1209 H   0  0  0  0  0  0
  -19.6883  -25.6314   21.1240 H   0  0  0  0  0  0
  -19.6660  -27.3217   20.6768 H   0  0  0  0  0  0
  -17.4176  -26.6708   21.4043 H   0  0  0  0  0  0
  -18.0307  -26.0065   22.9019 H   0  0  0  0  0  0
  -19.7919  -30.7253   24.2324 H   0  0  0  0  0  0
  -17.5008  -31.6274   24.5177 H   0  0  0  0  0  0
  -15.5344  -30.3029   23.7612 H   0  0  0  0  0  0
  -15.8661  -28.0839   22.7070 H   0  0  0  0  0  0
  -24.5896  -30.7093   25.7845 H   0  0  0  0  0  0
  -24.8952  -32.2906   26.4947 H   0  0  0  0  0  0
  -25.8096  -30.8903   27.0241 H   0  0  0  0  0  0
  -26.2798  -29.6840   24.1149 H   0  0  0  0  0  0
  -27.4035  -29.7265   25.4542 H   0  0  0  0  0  0
  -27.8649  -30.4370   23.9244 H   0  0  0  0  0  0
  -27.2658  -33.3623   26.2088 H   0  0  0  0  0  0
  -28.3819  -32.6930   25.0275 H   0  0  0  0  0  0
  -28.0761  -31.8455   26.5350 H   0  0  0  0  0  0
  -28.2596  -38.0104   24.7537 H   0  0  0  0  0  0
  -28.1078  -36.2643   24.6244 H   0  0  0  0  0  0
  -27.2325  -37.1393   25.8872 H   0  0  0  0  0  0
  -20.9296  -29.8785   21.6984 H   0  0  0  0  0  0
  -26.0179  -38.2878   24.1449 H   0  0  0  0  0  0
  -30.3657  -24.1505   20.5256 H   0  0  0  0  0  0
  -29.5947  -20.5772   24.0257 H   0  0  0  0  0  0
  -28.3005  -19.5202   23.4709 H   0  0  0  0  0  0
  -28.1935  -21.2429   23.1941 H   0  0  0  0  0  0
  -30.6106  -22.0827   22.2668 H   0  0  0  0  0  0
  -31.0152  -21.3285   20.7481 H   0  0  0  0  0  0
  -28.0700  -25.9346   18.1442 H   0  0  0  0  0  0
  -29.6820  -25.8406   18.7416 H   0  0  0  0  0  0
  -29.0696  -17.5945   22.5692 H   0  0  0  0  0  0
  -29.2983  -17.6441   20.8355 H   0  0  0  0  0  0
  -31.1996  -16.4807   22.9342 H   0  0  0  0  0  0
  -31.7060  -16.7628   21.2934 H   0  0  0  0  0  0
  -31.1787  -19.1644   21.0202 H   0  0  0  0  0  0
  -31.1730  -19.1346   22.7624 H   0  0  0  0  0  0
  -29.3985  -14.9619   22.0120 H   0  0  0  0  0  0
  -28.8636  -20.1176   21.2093 H   0  0  0  0  0  0
  1 25  1  0  0  0
  1 30  2  0  0  0
  1 84  1  0  0  0
  2  3  1  0  0  0
  2 25  1  0  0  0
  2 89  1  0  0  0
  2 90  1  0  0  0
  3  4  1  0  0  0
  3 91  1  0  0  0
  3 92  1  0  0  0
  4  5  1  0  0  0
  4 93  1  0  0  0
  4 94  1  0  0  0
  5  6  1  0  0  0
  5 26  1  0  0  0
  5 95  1  0  0  0
  6 25  1  0  0  0
  6 96  1  0  0  0
  6 97  1  0  0  0
  7  8  2  0  0  0
  7 26  1  0  0  0
  7 29  1  0  0  0
  8  9  1  0  0  0
  8 22  1  0  0  0
  9 10  1  0  0  0
  9 27  2  0  0  0
 10 11  2  0  0  0
 10 15  1  0  0  0
 11 12  1  0  0  0
 11 98  1  0  0  0
 12 13  2  0  0  0
 12 99  1  0  0  0
 13 14  1  0  0  0
 13 31  1  0  0  0
 14 15  2  0  0  0
 14100  1  0  0  0
 15101  1  0  0  0
 16 17  2  0  0  0
 16 21  1  0  0  0
 16 31  1  0  0  0
 17 18  1  0  0  0
 17102  1  0  0  0
 18 19  2  0  0  0
 18103  1  0  0  0
 19 20  1  0  0  0
 19 24  1  0  0  0
 20 21  2  0  0  0
 20104  1  0  0  0
 21 23  1  0  0  0
 22 28  1  0  0  0
 22 32  2  0  0  0
 26 27  1  0  0  0
 28105  1  0  0  0
 28106  1  0  0  0
 29107  1  0  0  0
 29108  1  0  0  0
 33 34  1  0  0  0
 33 66  1  0  0  0
 33 70  2  0  0  0
 34 36  1  0  0  0
 34 59  1  0  0  0
 34109  1  0  0  0
 35 44  2  0  0  0
 35 45  1  0  0  0
 35 68  1  0  0  0
 36 56  1  0  0  0
 36110  1  0  0  0
 37 39  1  0  0  0
 37 47  1  0  0  0
 37 66  1  0  0  0
 37111  1  0  0  0
 38 43  2  0  0  0
 38 46  1  0  0  0
 38 47  1  0  0  0
 39 64  1  0  0  0
 39 67  2  0  0  0
 40 52  1  0  0  0
 40 53  2  0  0  0
 40 58  1  0  0  0
 41112  1  0  0  0
 41113  1  0  0  0
 41114  1  0  0  0
 41 48  1  0  0  0
 42 43  1  0  0  0
 42 66  1  0  0  0
 42115  1  0  0  0
 42116  1  0  0  0
 43 44  1  0  0  0
 44117  1  0  0  0
 45 46  2  0  0  0
 45118  1  0  0  0
 46119  1  0  0  0
 47120  1  0  0  0
 47121  1  0  0  0
 48 56  1  0  0  0
 48 65  1  0  0  0
 48122  1  0  0  0
 49 50  1  0  0  0
 49 53  1  0  0  0
 49 64  1  0  0  0
 49123  1  0  0  0
 50 51  1  0  0  0
 50124  1  0  0  0
 50125  1  0  0  0
 51 52  1  0  0  0
 51126  1  0  0  0
 51127  1  0  0  0
 52128  1  0  0  0
 52129  1  0  0  0
 53 54  1  0  0  0
 54 55  2  0  0  0
 54130  1  0  0  0
 55 57  1  0  0  0
 55131  1  0  0  0
 56 69  2  0  0  0
 57 58  2  0  0  0
 57132  1  0  0  0
 58133  1  0  0  0
 59 60  1  0  0  0
 59 61  1  0  0  0
 59 62  1  0  0  0
 60134  1  0  0  0
 60135  1  0  0  0
 60136  1  0  0  0
 61137  1  0  0  0
 61138  1  0  0  0
 61139  1  0  0  0
 62140  1  0  0  0
 62141  1  0  0  0
 62142  1  0  0  0
 63 65  1  0  0  0
 63143  1  0  0  0
 63144  1  0  0  0
 63145  1  0  0  0
 64146  1  0  0  0
 65147  1  0  0  0
 68 77  1  0  0  0
 71 72  2  0  0  0
 71 73  1  0  0  0
 71148  1  0  0  0
 72 76  1  0  0  0
 72 82  1  0  0  0
 73 77  1  0  0  0
 73 83  2  0  0  0
 74 81  1  0  0  0
 74 82  2  0  0  0
 74 83  1  0  0  0
 75149  1  0  0  0
 75150  1  0  0  0
 75151  1  0  0  0
 75 85  1  0  0  0
 76 85  1  0  0  0
 76152  1  0  0  0
 76153  1  0  0  0
 77154  1  0  0  0
 77155  1  0  0  0
 78 79  1  0  0  0
 78 80  1  0  0  0
 78156  1  0  0  0
 78157  1  0  0  0
 79 84  1  0  0  0
 79158  1  0  0  0
 79159  1  0  0  0
 80 85  1  0  0  0
 80160  1  0  0  0
 80161  1  0  0  0
 81 86  1  0  0  0
 81 87  1  0  0  0
 81 88  1  0  0  0
 84162  1  0  0  0
 85163  1  0  0  0
M  CHG  1  85   1
M  ISO  4   1 100  68 101  77 101  84 100
M  END
> <chiral flag>
0

> <version>
0

> <s_m_source_file>
/data/baiqing/PycharmProjects/Reinvent-master-3.2/result/LINK_invent/BTK/process_docking_weight1_custom_sum_contain_oxygen_bond_distance_aromatic_linkinvent_7_9_3/rearranged_h_0060.sdf

> <i_m_source_file_index>
84

> <r_mmod_Potential_Energy-OPLS-2005>
-515.973266601562

> <r_mmod_Stretch_Energy-OPLS-2005>
35.1867218017578

> <r_mmod_Bend_Energy-OPLS-2005>
103.777931213379

> <r_mmod_Torsional_Energy-OPLS-2005>
207.811157226562

> <r_mmod_Improper_Torsional_Energy-OPLS-2005>
1.80968725681305

> <r_mmod_Van_der_Waal_Energy-OPLS-2005>
174.098571777344

> <r_mmod_Electrostatic_Energy-OPLS-2005>
-595.713623046875

> <r_mmod_Solvation_Energy-OPLS-2005>
-451.21044921875

> <b_mmod_Minimization_Converged-OPLS-2005>
0

> <r_mmod_RMS_Derivative-OPLS-2005>
2.72043061256409

$$$$
88
                    3D
 Structure written by MMmdl.
152160  0  0  1  0            999 V2000
  -30.6424  -14.5523   20.5277 C   0  0  0  0  0  0
  -30.4371  -12.3473   19.4291 C   0  0  0  0  0  0
  -29.5029  -12.5152   18.2080 C   0  0  0  0  0  0
  -28.0237  -12.3671   18.6191 C   0  0  0  0  0  0
  -27.6610  -13.2069   19.8727 C   0  0  2  0  0  0
  -28.7065  -13.0028   20.9940 C   0  0  0  0  0  0
  -25.2594  -13.8153   20.5667 C   0  0  0  0  0  0
  -24.1851  -13.0424   20.9174 C   0  0  0  0  0  0
  -24.6401  -11.6890   20.8711 C   0  0  0  0  0  0
  -23.9056  -10.4286   21.0387 C   0  0  0  0  0  0
  -24.3611   -9.4211   21.9175 C   0  0  0  0  0  0
  -23.6295   -8.2246   22.0750 C   0  0  0  0  0  0
  -22.4272   -8.0276   21.3542 C   0  0  0  0  0  0
  -21.9899   -9.0247   20.4648 C   0  0  0  0  0  0
  -22.7224  -10.2131   20.3054 C   0  0  0  0  0  0
  -21.6854   -6.0740   22.5283 C   0  0  0  0  0  0
  -21.4019   -6.5633   23.8223 C   0  0  0  0  0  0
  -21.3660   -5.6780   24.9175 C   0  0  0  0  0  0
  -21.6049   -4.3045   24.7225 C   0  0  0  0  0  0
  -21.8821   -3.8146   23.4345 C   0  0  0  0  0  0
  -21.9199   -4.6969   22.3405 C   0  0  0  0  0  0
  -22.7873  -13.5227   21.1850 C   0  0  0  0  0  0
  -22.1663   -4.2148   21.0986 F   0  0  0  0  0  0
  -21.5633   -3.4531   25.7742 F   0  0  0  0  0  0
  -30.0318  -13.3335   20.4461 N   0  0  0  0  0  0
  -26.3028  -12.9322   20.3344 N   0  0  0  0  0  0
  -25.9327  -11.6466   20.5725 N   0  0  0  0  0  0
  -22.0510  -12.8242   22.0426 N   0  0  0  0  0  0
  -25.4299  -15.1872   20.4071 N   0  0  0  0  0  0
  -31.7725  -14.7599   20.0796 O   0  0  0  0  0  0
  -21.6639   -6.8876   21.4241 O   0  0  0  0  0  0
  -22.3573  -14.5547   20.6712 O   0  0  0  0  0  0
  -24.6214  -31.8619   23.2024 C   0  0  0  0  0  0
  -25.9081  -32.4781   23.8346 C   0  0  1  0  0  0
  -27.2430  -27.3756   20.1000 C   0  0  0  0  0  0
  -25.5928  -33.8584   24.2279 N   0  0  0  0  0  0
  -23.4124  -30.4832   21.5442 C   0  0  2  0  0  0
  -24.8583  -28.9365   20.1127 C   0  0  0  0  0  0
  -22.7450  -29.4630   22.4948 C   0  0  0  0  0  0
  -18.0287  -28.1378   22.8491 C   0  0  0  0  0  0
  -24.1489  -36.7294   23.2632 C   0  0  0  0  0  0
  -25.9452  -30.8066   21.3649 C   0  0  0  0  0  0
  -26.0194  -29.4358   20.7129 C   0  0  0  0  0  0
  -27.2089  -28.6636   20.7001 C   0  0  0  0  0  0
  -26.0531  -26.8964   19.5038 C   0  0  0  0  0  0
  -24.8730  -27.6681   19.5069 C   0  0  0  0  0  0
  -23.6232  -29.8104   20.1610 C   0  0  0  0  0  0
  -25.4113  -36.3085   24.0321 C   0  0  1  0  0  0
  -20.5884  -28.3667   23.1296 C   0  0  2  0  0  0
  -20.6771  -26.9390   22.5410 C   0  0  0  0  0  0
  -19.5749  -26.6373   21.5212 C   0  0  0  0  0  0
  -18.1930  -26.7921   22.1622 C   0  0  0  0  0  0
  -19.1541  -28.8838   23.2891 C   0  0  0  0  0  0
  -18.9462  -30.1448   23.8892 C   0  0  0  0  0  0
  -17.6463  -30.6578   24.0565 C   0  0  0  0  0  0
  -25.9049  -34.9453   23.5094 C   0  0  0  0  0  0
  -16.5357  -29.9076   23.6331 C   0  0  0  0  0  0
  -16.7277  -28.6497   23.0344 C   0  0  0  0  0  0
  -26.4483  -31.6582   25.0702 C   0  0  0  0  0  0
  -25.3724  -31.3725   26.1435 C   0  0  0  0  0  0
  -27.0303  -30.3006   24.6125 C   0  0  0  0  0  0
  -27.6054  -32.4298   25.7479 C   0  0  0  0  0  0
  -27.5573  -37.1804   24.8465 C   0  0  0  0  0  0
  -21.4165  -29.3033   22.3690 N   0  0  0  0  0  0
  -26.4289  -37.3773   23.9407 N   0  0  0  0  0  0
  -24.6782  -31.0667   22.0957 N   0  0  0  0  0  0
  -23.4193  -28.8179   23.3019 O   0  0  0  0  0  0
  -28.4263  -26.6434   20.1439 O   0  0  0  0  0  0
  -26.5601  -34.8919   22.4652 O   0  0  0  0  0  0
  -23.5389  -32.1407   23.7380 O   0  0  0  0  0  0
  -27.9644  -21.0364   21.2444 C   0  0  0  0  0  0
  -29.3455  -19.4731   21.1635 C   0  0  0  0  0  0
  -30.0035  -18.1148   21.4504 C   0  0  0  0  0  0
  -28.5153  -24.0782   20.4391 C   0  0  0  0  0  0
  -29.1874  -22.7894   19.8311 C   0  0  0  0  0  0
  -29.7975  -16.9723   20.3993 C   0  0  0  0  0  0
  -28.5884  -25.3427   19.5108 C   0  0  0  0  0  0
  -28.1054  -19.7764   21.6594 N   0  0  0  0  0  0
  -29.9186  -20.4764   20.4711 N   0  0  0  0  0  0
  -29.0068  -21.5064   20.5543 N   0  0  0  0  0  0
  -29.8322  -15.5709   20.9146 N   0  0  0  0  0  0
  -31.4760  -12.4746   19.1186 H   0  0  0  0  0  0
  -30.3672  -11.3340   19.8297 H   0  0  0  0  0  0
  -29.7520  -11.7827   17.4377 H   0  0  0  0  0  0
  -29.6613  -13.4959   17.7573 H   0  0  0  0  0  0
  -27.8361  -11.3109   18.8145 H   0  0  0  0  0  0
  -27.3770  -12.6410   17.7860 H   0  0  0  0  0  0
  -27.6974  -14.2523   19.5660 H   0  0  0  0  0  0
  -28.6972  -11.9676   21.3376 H   0  0  0  0  0  0
  -28.4649  -13.6057   21.8703 H   0  0  0  0  0  0
  -25.2761   -9.5696   22.4744 H   0  0  0  0  0  0
  -24.0008   -7.4643   22.7466 H   0  0  0  0  0  0
  -21.0837   -8.8770   19.8960 H   0  0  0  0  0  0
  -22.3679  -10.9672   19.6165 H   0  0  0  0  0  0
  -21.2001   -7.6138   23.9725 H   0  0  0  0  0  0
  -21.1484   -6.0507   25.9081 H   0  0  0  0  0  0
  -22.0605   -2.7608   23.2849 H   0  0  0  0  0  0
  -22.4095  -11.9885   22.4797 H   0  0  0  0  0  0
  -21.1145  -13.1321   22.2640 H   0  0  0  0  0  0
  -24.6601  -15.8381   20.5149 H   0  0  0  0  0  0
  -26.2773  -15.6309   20.0727 H   0  0  0  0  0  0
  -26.7146  -32.5467   23.1099 H   0  0  0  0  0  0
  -25.0155  -33.9736   25.0477 H   0  0  0  0  0  0
  -22.7047  -31.3011   21.3972 H   0  0  0  0  0  0
  -23.3745  -35.9632   23.3309 H   0  0  0  0  0  0
  -24.3591  -36.8901   22.2045 H   0  0  0  0  0  0
  -23.7243  -37.6503   23.6646 H   0  0  0  0  0  0
  -26.0718  -31.5696   20.5955 H   0  0  0  0  0  0
  -26.8275  -30.8569   21.9907 H   0  0  0  0  0  0
  -28.1056  -29.0472   21.1670 H   0  0  0  0  0  0
  -26.0026  -25.9212   19.0458 H   0  0  0  0  0  0
  -23.9781  -27.2725   19.0478 H   0  0  0  0  0  0
  -23.7371  -30.5807   19.3972 H   0  0  0  0  0  0
  -22.7465  -29.2317   19.8648 H   0  0  0  0  0  0
  -25.1292  -36.1946   25.0809 H   0  0  0  0  0  0
  -20.9984  -28.3230   24.1420 H   0  0  0  0  0  0
  -20.5684  -26.2265   23.3603 H   0  0  0  0  0  0
  -21.6640  -26.7432   22.1204 H   0  0  0  0  0  0
  -19.6917  -25.6292   21.1232 H   0  0  0  0  0  0
  -19.6695  -27.3187   20.6749 H   0  0  0  0  0  0
  -17.4205  -26.6674   21.4020 H   0  0  0  0  0  0
  -18.0334  -26.0057   22.9013 H   0  0  0  0  0  0
  -19.7943  -30.7266   24.2244 H   0  0  0  0  0  0
  -17.5024  -31.6264   24.5157 H   0  0  0  0  0  0
  -15.5362  -30.2976   23.7652 H   0  0  0  0  0  0
  -15.8681  -28.0818   22.7050 H   0  0  0  0  0  0
  -24.5938  -30.7016   25.7792 H   0  0  0  0  0  0
  -24.8862  -32.2884   26.4803 H   0  0  0  0  0  0
  -25.8057  -30.8979   27.0245 H   0  0  0  0  0  0
  -26.2868  -29.6798   24.1110 H   0  0  0  0  0  0
  -27.3973  -29.7222   25.4617 H   0  0  0  0  0  0
  -27.8751  -30.4298   23.9352 H   0  0  0  0  0  0
  -27.2692  -33.3621   26.2027 H   0  0  0  0  0  0
  -28.3890  -32.6809   25.0319 H   0  0  0  0  0  0
  -28.0683  -31.8427   26.5423 H   0  0  0  0  0  0
  -28.2598  -38.0094   24.7507 H   0  0  0  0  0  0
  -28.1060  -36.2628   24.6302 H   0  0  0  0  0  0
  -27.2293  -37.1461   25.8867 H   0  0  0  0  0  0
  -20.9322  -29.8761   21.6915 H   0  0  0  0  0  0
  -26.0177  -38.2850   24.1405 H   0  0  0  0  0  0
  -27.0751  -21.6223   21.4330 H   0  0  0  0  0  0
  -29.6164  -17.7747   22.4128 H   0  0  0  0  0  0
  -31.0734  -18.2667   21.6063 H   0  0  0  0  0  0
  -28.9987  -24.3033   21.3892 H   0  0  0  0  0  0
  -27.4671  -23.8863   20.6715 H   0  0  0  0  0  0
  -30.2587  -22.9706   19.7260 H   0  0  0  0  0  0
  -28.8101  -22.6356   18.8209 H   0  0  0  0  0  0
  -30.4818  -17.1034   19.5591 H   0  0  0  0  0  0
  -28.7979  -17.0893   19.9785 H   0  0  0  0  0  0
  -27.9490  -25.2149   18.6389 H   0  0  0  0  0  0
  -29.5957  -25.3706   19.0923 H   0  0  0  0  0  0
  -28.9677  -15.2535   21.3275 H   0  0  0  0  0  0
  1 25  1  0  0  0
  1 30  2  0  0  0
  1 81  1  0  0  0
  2  3  1  0  0  0
  2 25  1  0  0  0
  2 82  1  0  0  0
  2 83  1  0  0  0
  3  4  1  0  0  0
  3 84  1  0  0  0
  3 85  1  0  0  0
  4  5  1  0  0  0
  4 86  1  0  0  0
  4 87  1  0  0  0
  5  6  1  0  0  0
  5 26  1  0  0  0
  5 88  1  0  0  0
  6 25  1  0  0  0
  6 89  1  0  0  0
  6 90  1  0  0  0
  7  8  2  0  0  0
  7 26  1  0  0  0
  7 29  1  0  0  0
  8  9  1  0  0  0
  8 22  1  0  0  0
  9 10  1  0  0  0
  9 27  2  0  0  0
 10 11  2  0  0  0
 10 15  1  0  0  0
 11 12  1  0  0  0
 11 91  1  0  0  0
 12 13  2  0  0  0
 12 92  1  0  0  0
 13 14  1  0  0  0
 13 31  1  0  0  0
 14 15  2  0  0  0
 14 93  1  0  0  0
 15 94  1  0  0  0
 16 17  2  0  0  0
 16 21  1  0  0  0
 16 31  1  0  0  0
 17 18  1  0  0  0
 17 95  1  0  0  0
 18 19  2  0  0  0
 18 96  1  0  0  0
 19 20  1  0  0  0
 19 24  1  0  0  0
 20 21  2  0  0  0
 20 97  1  0  0  0
 21 23  1  0  0  0
 22 28  1  0  0  0
 22 32  2  0  0  0
 26 27  1  0  0  0
 28 98  1  0  0  0
 28 99  1  0  0  0
 29100  1  0  0  0
 29101  1  0  0  0
 33 34  1  0  0  0
 33 66  1  0  0  0
 33 70  2  0  0  0
 34 36  1  0  0  0
 34 59  1  0  0  0
 34102  1  0  0  0
 35 44  2  0  0  0
 35 45  1  0  0  0
 35 68  1  0  0  0
 36 56  1  0  0  0
 36103  1  0  0  0
 37 39  1  0  0  0
 37 47  1  0  0  0
 37 66  1  0  0  0
 37104  1  0  0  0
 38 43  2  0  0  0
 38 46  1  0  0  0
 38 47  1  0  0  0
 39 64  1  0  0  0
 39 67  2  0  0  0
 40 52  1  0  0  0
 40 53  2  0  0  0
 40 58  1  0  0  0
 41105  1  0  0  0
 41106  1  0  0  0
 41107  1  0  0  0
 41 48  1  0  0  0
 42 43  1  0  0  0
 42 66  1  0  0  0
 42108  1  0  0  0
 42109  1  0  0  0
 43 44  1  0  0  0
 44110  1  0  0  0
 45 46  2  0  0  0
 45111  1  0  0  0
 46112  1  0  0  0
 47113  1  0  0  0
 47114  1  0  0  0
 48 56  1  0  0  0
 48 65  1  0  0  0
 48115  1  0  0  0
 49 50  1  0  0  0
 49 53  1  0  0  0
 49 64  1  0  0  0
 49116  1  0  0  0
 50 51  1  0  0  0
 50117  1  0  0  0
 50118  1  0  0  0
 51 52  1  0  0  0
 51119  1  0  0  0
 51120  1  0  0  0
 52121  1  0  0  0
 52122  1  0  0  0
 53 54  1  0  0  0
 54 55  2  0  0  0
 54123  1  0  0  0
 55 57  1  0  0  0
 55124  1  0  0  0
 56 69  2  0  0  0
 57 58  2  0  0  0
 57125  1  0  0  0
 58126  1  0  0  0
 59 60  1  0  0  0
 59 61  1  0  0  0
 59 62  1  0  0  0
 60127  1  0  0  0
 60128  1  0  0  0
 60129  1  0  0  0
 61130  1  0  0  0
 61131  1  0  0  0
 61132  1  0  0  0
 62133  1  0  0  0
 62134  1  0  0  0
 62135  1  0  0  0
 63 65  1  0  0  0
 63136  1  0  0  0
 63137  1  0  0  0
 63138  1  0  0  0
 64139  1  0  0  0
 65140  1  0  0  0
 68 77  1  0  0  0
 71 78  2  0  0  0
 71 80  1  0  0  0
 71141  1  0  0  0
 72 73  1  0  0  0
 72 78  1  0  0  0
 72 79  2  0  0  0
 73 76  1  0  0  0
 73142  1  0  0  0
 73143  1  0  0  0
 74 75  1  0  0  0
 74 77  1  0  0  0
 74144  1  0  0  0
 74145  1  0  0  0
 75 80  1  0  0  0
 75146  1  0  0  0
 75147  1  0  0  0
 76 81  1  0  0  0
 76148  1  0  0  0
 76149  1  0  0  0
 77150  1  0  0  0
 77151  1  0  0  0
 79 80  1  0  0  0
 81152  1  0  0  0
M  ISO  4   1 100  68 101  77 101  81 100
M  END
> <chiral flag>
0

> <version>
0

> <s_m_source_file>
/data/baiqing/PycharmProjects/Reinvent-master-3.2/result/LINK_invent/BTK/process_docking_weight1_custom_sum_contain_oxygen_bond_distance_aromatic_linkinvent_7_9_3/rearranged_h_0060.sdf

> <i_m_source_file_index>
85

> <r_mmod_Potential_Energy-OPLS-2005>
-53.6350555419922

> <r_mmod_Stretch_Energy-OPLS-2005>
53.8119964599609

> <r_mmod_Bend_Energy-OPLS-2005>
129.350463867188

> <r_mmod_Torsional_Energy-OPLS-2005>
207.75163269043

> <r_mmod_Improper_Torsional_Energy-OPLS-2005>
7.51136207580566

> <r_mmod_Van_der_Waal_Energy-OPLS-2005>
120.891304016113

> <r_mmod_Electrostatic_Energy-OPLS-2005>
-360.598907470703

> <r_mmod_Solvation_Energy-OPLS-2005>
-236.943374633789

> <b_mmod_Minimization_Converged-OPLS-2005>
0

> <r_mmod_RMS_Derivative-OPLS-2005>
2.91217350959778

$$$$
89
                    3D
 Structure written by MMmdl.
162170  0  0  1  0            999 V2000
  -30.6044  -14.7634   20.3287 C   0  0  0  0  0  0
  -30.4221  -12.4423   19.4545 C   0  0  0  0  0  0
  -29.4882  -12.4500   18.2272 C   0  0  0  0  0  0
  -28.0143  -12.3193   18.6621 C   0  0  0  0  0  0
  -27.6379  -13.2053   19.8842 C   0  0  2  0  0  0
  -28.7078  -13.1791   20.9894 C   0  0  0  0  0  0
  -25.2508  -13.8129   20.5876 C   0  0  0  0  0  0
  -24.1725  -13.0410   20.9316 C   0  0  0  0  0  0
  -24.6286  -11.6887   20.8860 C   0  0  0  0  0  0
  -23.8993  -10.4257   21.0484 C   0  0  0  0  0  0
  -24.3560   -9.4164   21.9243 C   0  0  0  0  0  0
  -23.6220   -8.2195   22.0771 C   0  0  0  0  0  0
  -22.4212   -8.0265   21.3554 C   0  0  0  0  0  0
  -21.9871   -9.0257   20.4669 C   0  0  0  0  0  0
  -22.7201  -10.2124   20.3109 C   0  0  0  0  0  0
  -21.6796   -6.0713   22.5294 C   0  0  0  0  0  0
  -21.3974   -6.5615   23.8237 C   0  0  0  0  0  0
  -21.3651   -5.6767   24.9203 C   0  0  0  0  0  0
  -21.6034   -4.3037   24.7227 C   0  0  0  0  0  0
  -21.8814   -3.8135   23.4351 C   0  0  0  0  0  0
  -21.9168   -4.6946   22.3416 C   0  0  0  0  0  0
  -22.7760  -13.5275   21.1897 C   0  0  0  0  0  0
  -22.1649   -4.2130   21.0984 F   0  0  0  0  0  0
  -21.5635   -3.4528   25.7749 F   0  0  0  0  0  0
  -29.9727  -13.5405   20.3340 N   0  0  0  0  0  0
  -26.2899  -12.9259   20.3577 N   0  0  0  0  0  0
  -25.9235  -11.6445   20.5998 N   0  0  0  0  0  0
  -22.0305  -12.8320   22.0417 N   0  0  0  0  0  0
  -25.4298  -15.1821   20.4266 N   0  0  0  0  0  0
  -31.8388  -14.7981   20.2755 O   0  0  0  0  0  0
  -21.6600   -6.8853   21.4247 O   0  0  0  0  0  0
  -22.3520  -14.5593   20.6715 O   0  0  0  0  0  0
  -24.6343  -31.8536   23.1948 C   0  0  0  0  0  0
  -25.9170  -32.4733   23.8277 C   0  0  1  0  0  0
  -27.2348  -27.2621   20.1217 C   0  0  0  0  0  0
  -25.5940  -33.8524   24.2206 N   0  0  0  0  0  0
  -23.4306  -30.4737   21.5413 C   0  0  2  0  0  0
  -24.8795  -28.9155   20.1117 C   0  0  0  0  0  0
  -22.7541  -29.4558   22.4930 C   0  0  0  0  0  0
  -18.0327  -28.1331   22.8507 C   0  0  0  0  0  0
  -24.1495  -36.7265   23.2633 C   0  0  0  0  0  0
  -25.9753  -30.7619   21.3757 C   0  0  0  0  0  0
  -26.0520  -29.3844   20.7182 C   0  0  0  0  0  0
  -27.2335  -28.5740   20.7076 C   0  0  0  0  0  0
  -26.0401  -26.8646   19.4801 C   0  0  0  0  0  0
  -24.8799  -27.6636   19.4760 C   0  0  0  0  0  0
  -23.6502  -29.8010   20.1595 C   0  0  0  0  0  0
  -25.4113  -36.3034   24.0322 C   0  0  1  0  0  0
  -20.5942  -28.3633   23.1289 C   0  0  2  0  0  0
  -20.6806  -26.9339   22.5446 C   0  0  0  0  0  0
  -19.5810  -26.6313   21.5230 C   0  0  0  0  0  0
  -18.1973  -26.7886   22.1624 C   0  0  0  0  0  0
  -19.1585  -28.8794   23.2873 C   0  0  0  0  0  0
  -18.9518  -30.1405   23.8906 C   0  0  0  0  0  0
  -17.6511  -30.6549   24.0551 C   0  0  0  0  0  0
  -25.9069  -34.9420   23.5075 C   0  0  0  0  0  0
  -16.5414  -29.9029   23.6308 C   0  0  0  0  0  0
  -16.7319  -28.6441   23.0365 C   0  0  0  0  0  0
  -26.4514  -31.6558   25.0671 C   0  0  0  0  0  0
  -25.3725  -31.3741   26.1380 C   0  0  0  0  0  0
  -27.0361  -30.2970   24.6184 C   0  0  0  0  0  0
  -27.6081  -32.4285   25.7446 C   0  0  0  0  0  0
  -27.5570  -37.1774   24.8468 C   0  0  0  0  0  0
  -21.4248  -29.2989   22.3688 N   0  0  0  0  0  0
  -26.4279  -37.3738   23.9413 N   0  0  0  0  0  0
  -24.6992  -31.0467   22.0942 N   0  0  0  0  0  0
  -23.4247  -28.8095   23.3014 O   0  0  0  0  0  0
  -28.3429  -26.3849   20.1319 O   0  0  0  0  0  0
  -26.5632  -34.8917   22.4642 O   0  0  0  0  0  0
  -23.5504  -32.1347   23.7279 O   0  0  0  0  0  0
  -29.2053  -20.0085   20.3752 C   0  0  0  0  0  0
  -29.1669  -21.1512   19.5542 C   0  0  0  0  0  0
  -29.2112  -21.8403   21.6027 C   0  0  0  0  0  0
  -29.1043  -21.1863   18.0540 C   0  0  0  0  0  0
  -29.2899  -22.7077   22.8119 C   0  0  0  0  0  0
  -28.6723  -16.0800   17.5915 C   0  0  0  0  0  0
  -29.0319  -18.4689   20.0397 C   0  0  0  0  0  0
  -29.2341  -23.8244   19.9240 C   0  0  0  0  0  0
  -29.9909  -16.0764   18.4017 C   0  0  0  0  0  0
  -30.0429  -17.2903   20.5113 C   0  0  0  0  0  0
  -28.1367  -24.9152   20.4001 C   0  0  0  0  0  0
  -29.2039  -20.4989   21.6803 N   0  0  0  0  0  0
  -29.1608  -22.3465   20.3479 N   0  0  0  0  0  0
  -29.8885  -15.8906   19.8849 N   0  0  0  0  0  0
  -31.4647  -12.5553   19.1466 H   0  0  0  0  0  0
  -30.3625  -11.4851   19.9739 H   0  0  0  0  0  0
  -29.7516  -11.6327   17.5537 H   0  0  0  0  0  0
  -29.6207  -13.3606   17.6499 H   0  0  0  0  0  0
  -27.8449  -11.2722   18.9154 H   0  0  0  0  0  0
  -27.3538  -12.5454   17.8225 H   0  0  0  0  0  0
  -27.6223  -14.2272   19.5459 H   0  0  0  0  0  0
  -28.7735  -12.1941   21.4518 H   0  0  0  0  0  0
  -28.4700  -13.8823   21.7912 H   0  0  0  0  0  0
  -25.2677   -9.5593   22.4862 H   0  0  0  0  0  0
  -23.9916   -7.4541   22.7447 H   0  0  0  0  0  0
  -21.0808   -8.8759   19.8951 H   0  0  0  0  0  0
  -22.3662  -10.9676   19.6227 H   0  0  0  0  0  0
  -21.1965   -7.6119   23.9741 H   0  0  0  0  0  0
  -21.1477   -6.0499   25.9099 H   0  0  0  0  0  0
  -22.0603   -2.7594   23.2871 H   0  0  0  0  0  0
  -22.3834  -12.0008   22.4903 H   0  0  0  0  0  0
  -21.0921  -13.1436   22.2541 H   0  0  0  0  0  0
  -24.6705  -15.8442   20.5383 H   0  0  0  0  0  0
  -26.3011  -15.6203   20.1556 H   0  0  0  0  0  0
  -26.7239  -32.5379   23.1014 H   0  0  0  0  0  0
  -25.0120  -33.9630   25.0373 H   0  0  0  0  0  0
  -22.7300  -31.2974   21.3903 H   0  0  0  0  0  0
  -23.3756  -35.9600   23.3306 H   0  0  0  0  0  0
  -24.3615  -36.8891   22.2051 H   0  0  0  0  0  0
  -23.7260  -37.6478   23.6653 H   0  0  0  0  0  0
  -26.1170  -31.5259   20.6105 H   0  0  0  0  0  0
  -26.8494  -30.8091   22.0136 H   0  0  0  0  0  0
  -28.1360  -28.9310   21.1835 H   0  0  0  0  0  0
  -25.9884  -25.9203   18.9586 H   0  0  0  0  0  0
  -23.9893  -27.3056   18.9748 H   0  0  0  0  0  0
  -23.7758  -30.5725   19.3997 H   0  0  0  0  0  0
  -22.7689  -29.2289   19.8595 H   0  0  0  0  0  0
  -25.1304  -36.1871   25.0811 H   0  0  0  0  0  0
  -21.0082  -28.3233   24.1391 H   0  0  0  0  0  0
  -20.5616  -26.2203   23.3621 H   0  0  0  0  0  0
  -21.6693  -26.7284   22.1315 H   0  0  0  0  0  0
  -19.6950  -25.6200   21.1310 H   0  0  0  0  0  0
  -19.6743  -27.3107   20.6756 H   0  0  0  0  0  0
  -17.4262  -26.6663   21.4031 H   0  0  0  0  0  0
  -18.0380  -26.0042   22.9037 H   0  0  0  0  0  0
  -19.8023  -30.7161   24.2272 H   0  0  0  0  0  0
  -17.5044  -31.6226   24.5123 H   0  0  0  0  0  0
  -15.5394  -30.2909   23.7587 H   0  0  0  0  0  0
  -15.8708  -28.0731   22.7127 H   0  0  0  0  0  0
  -24.5899  -30.7090   25.7701 H   0  0  0  0  0  0
  -24.8895  -32.2921   26.4738 H   0  0  0  0  0  0
  -25.8010  -30.8952   27.0195 H   0  0  0  0  0  0
  -26.2945  -29.6696   24.1217 H   0  0  0  0  0  0
  -27.4063  -29.7254   25.4709 H   0  0  0  0  0  0
  -27.8819  -30.4248   23.9429 H   0  0  0  0  0  0
  -27.2710  -33.3599   26.2017 H   0  0  0  0  0  0
  -28.3887  -32.6823   25.0256 H   0  0  0  0  0  0
  -28.0736  -31.8392   26.5366 H   0  0  0  0  0  0
  -28.2581  -38.0065   24.7491 H   0  0  0  0  0  0
  -28.1071  -36.2607   24.6315 H   0  0  0  0  0  0
  -27.2311  -37.1453   25.8874 H   0  0  0  0  0  0
  -20.9436  -29.8832   21.7018 H   0  0  0  0  0  0
  -26.0181  -38.2836   24.1372 H   0  0  0  0  0  0
  -30.1038  -21.1556   17.6229 H   0  0  0  0  0  0
  -28.6058  -22.0830   17.6861 H   0  0  0  0  0  0
  -28.5545  -20.3303   17.6603 H   0  0  0  0  0  0
  -29.7794  -22.1723   23.6264 H   0  0  0  0  0  0
  -28.2851  -22.9845   23.1304 H   0  0  0  0  0  0
  -29.8659  -23.6099   22.6124 H   0  0  0  0  0  0
  -28.2280  -17.0704   17.4898 H   0  0  0  0  0  0
  -27.8939  -15.4315   17.9669 H   0  0  0  0  0  0
  -28.8840  -15.7410   16.5756 H   0  0  0  0  0  0
  -28.9851  -18.4246   18.9583 H   0  0  0  0  0  0
  -28.0325  -18.1634   20.3575 H   0  0  0  0  0  0
  -30.2112  -24.1821   20.2540 H   0  0  0  0  0  0
  -29.2966  -23.8628   18.8356 H   0  0  0  0  0  0
  -30.6513  -15.3349   17.9458 H   0  0  0  0  0  0
  -30.5025  -17.0130   18.1738 H   0  0  0  0  0  0
  -29.9929  -17.2020   21.5976 H   0  0  0  0  0  0
  -31.0639  -17.6194   20.3061 H   0  0  0  0  0  0
  -28.0185  -24.8361   21.4832 H   0  0  0  0  0  0
  -27.1866  -24.5730   19.9958 H   0  0  0  0  0  0
  1 25  1  0  0  0
  1 30  2  0  0  0
  1 84  1  0  0  0
  2  3  1  0  0  0
  2 25  1  0  0  0
  2 85  1  0  0  0
  2 86  1  0  0  0
  3  4  1  0  0  0
  3 87  1  0  0  0
  3 88  1  0  0  0
  4  5  1  0  0  0
  4 89  1  0  0  0
  4 90  1  0  0  0
  5  6  1  0  0  0
  5 26  1  0  0  0
  5 91  1  0  0  0
  6 25  1  0  0  0
  6 92  1  0  0  0
  6 93  1  0  0  0
  7  8  2  0  0  0
  7 26  1  0  0  0
  7 29  1  0  0  0
  8  9  1  0  0  0
  8 22  1  0  0  0
  9 10  1  0  0  0
  9 27  2  0  0  0
 10 11  2  0  0  0
 10 15  1  0  0  0
 11 12  1  0  0  0
 11 94  1  0  0  0
 12 13  2  0  0  0
 12 95  1  0  0  0
 13 14  1  0  0  0
 13 31  1  0  0  0
 14 15  2  0  0  0
 14 96  1  0  0  0
 15 97  1  0  0  0
 16 17  2  0  0  0
 16 21  1  0  0  0
 16 31  1  0  0  0
 17 18  1  0  0  0
 17 98  1  0  0  0
 18 19  2  0  0  0
 18 99  1  0  0  0
 19 20  1  0  0  0
 19 24  1  0  0  0
 20 21  2  0  0  0
 20100  1  0  0  0
 21 23  1  0  0  0
 22 28  1  0  0  0
 22 32  2  0  0  0
 26 27  1  0  0  0
 28101  1  0  0  0
 28102  1  0  0  0
 29103  1  0  0  0
 29104  1  0  0  0
 33 34  1  0  0  0
 33 66  1  0  0  0
 33 70  2  0  0  0
 34 36  1  0  0  0
 34 59  1  0  0  0
 34105  1  0  0  0
 35 44  2  0  0  0
 35 45  1  0  0  0
 35 68  1  0  0  0
 36 56  1  0  0  0
 36106  1  0  0  0
 37 39  1  0  0  0
 37 47  1  0  0  0
 37 66  1  0  0  0
 37107  1  0  0  0
 38 43  2  0  0  0
 38 46  1  0  0  0
 38 47  1  0  0  0
 39 64  1  0  0  0
 39 67  2  0  0  0
 40 52  1  0  0  0
 40 53  2  0  0  0
 40 58  1  0  0  0
 41108  1  0  0  0
 41109  1  0  0  0
 41110  1  0  0  0
 41 48  1  0  0  0
 42 43  1  0  0  0
 42 66  1  0  0  0
 42111  1  0  0  0
 42112  1  0  0  0
 43 44  1  0  0  0
 44113  1  0  0  0
 45 46  2  0  0  0
 45114  1  0  0  0
 46115  1  0  0  0
 47116  1  0  0  0
 47117  1  0  0  0
 48 56  1  0  0  0
 48 65  1  0  0  0
 48118  1  0  0  0
 49 50  1  0  0  0
 49 53  1  0  0  0
 49 64  1  0  0  0
 49119  1  0  0  0
 50 51  1  0  0  0
 50120  1  0  0  0
 50121  1  0  0  0
 51 52  1  0  0  0
 51122  1  0  0  0
 51123  1  0  0  0
 52124  1  0  0  0
 52125  1  0  0  0
 53 54  1  0  0  0
 54 55  2  0  0  0
 54126  1  0  0  0
 55 57  1  0  0  0
 55127  1  0  0  0
 56 69  2  0  0  0
 57 58  2  0  0  0
 57128  1  0  0  0
 58129  1  0  0  0
 59 60  1  0  0  0
 59 61  1  0  0  0
 59 62  1  0  0  0
 60130  1  0  0  0
 60131  1  0  0  0
 60132  1  0  0  0
 61133  1  0  0  0
 61134  1  0  0  0
 61135  1  0  0  0
 62136  1  0  0  0
 62137  1  0  0  0
 62138  1  0  0  0
 63 65  1  0  0  0
 63139  1  0  0  0
 63140  1  0  0  0
 63141  1  0  0  0
 64142  1  0  0  0
 65143  1  0  0  0
 68 81  1  0  0  0
 71 72  2  0  0  0
 71 77  1  0  0  0
 71 82  1  0  0  0
 72 74  1  0  0  0
 72 83  1  0  0  0
 73 75  1  0  0  0
 73 82  2  0  0  0
 73 83  1  0  0  0
 74144  1  0  0  0
 74145  1  0  0  0
 74146  1  0  0  0
 75147  1  0  0  0
 75148  1  0  0  0
 75149  1  0  0  0
 76 79  1  0  0  0
 76150  1  0  0  0
 76151  1  0  0  0
 76152  1  0  0  0
 77 80  1  0  0  0
 77153  1  0  0  0
 77154  1  0  0  0
 78 81  1  0  0  0
 78 83  1  0  0  0
 78155  1  0  0  0
 78156  1  0  0  0
 79 84  1  0  0  0
 79157  1  0  0  0
 79158  1  0  0  0
 80 84  1  0  0  0
 80159  1  0  0  0
 80160  1  0  0  0
 81161  1  0  0  0
 81162  1  0  0  0
M  ISO  4   1 100  68 101  81 101  84 100
M  END
> <chiral flag>
0

> <version>
0

> <s_m_source_file>
/data/baiqing/PycharmProjects/Reinvent-master-3.2/result/LINK_invent/BTK/process_docking_weight1_custom_sum_contain_oxygen_bond_distance_aromatic_linkinvent_7_9_3/rearranged_h_0060.sdf

> <i_m_source_file_index>
86

> <r_mmod_Potential_Energy-OPLS-2005>
367.132202148438

> <r_mmod_Stretch_Energy-OPLS-2005>
131.893966674805

> <r_mmod_Bend_Energy-OPLS-2005>
194.22151184082

> <r_mmod_Torsional_Energy-OPLS-2005>
329.917663574219

> <r_mmod_Improper_Torsional_Energy-OPLS-2005>
21.7079315185547

> <r_mmod_Van_der_Waal_Energy-OPLS-2005>
125.585998535156

> <r_mmod_Electrostatic_Energy-OPLS-2005>
-325.08740234375

> <r_mmod_Solvation_Energy-OPLS-2005>
-209.419982910156

> <b_mmod_Minimization_Converged-OPLS-2005>
0

> <r_mmod_RMS_Derivative-OPLS-2005>
5.76290798187256

$$$$
90
                    3D
 Structure written by MMmdl.
154162  0  0  1  0            999 V2000
  -30.4962  -15.0036   20.4596 C   0  0  0  0  0  0
  -30.4632  -12.6366   19.4788 C   0  0  0  0  0  0
  -29.5227  -12.5546   18.2481 C   0  0  0  0  0  0
  -28.0567  -12.3126   18.6650 C   0  0  0  0  0  0
  -27.6384  -13.2154   19.8502 C   0  0  2  0  0  0
  -28.7033  -13.1599   20.9754 C   0  0  0  0  0  0
  -25.2438  -13.8086   20.5613 C   0  0  0  0  0  0
  -24.1788  -13.0364   20.9294 C   0  0  0  0  0  0
  -24.6387  -11.6852   20.8821 C   0  0  0  0  0  0
  -23.9059  -10.4249   21.0449 C   0  0  0  0  0  0
  -24.3612   -9.4162   21.9213 C   0  0  0  0  0  0
  -23.6283   -8.2203   22.0762 C   0  0  0  0  0  0
  -22.4267   -8.0257   21.3544 C   0  0  0  0  0  0
  -21.9908   -9.0235   20.4649 C   0  0  0  0  0  0
  -22.7240  -10.2111   20.3077 C   0  0  0  0  0  0
  -21.6842   -6.0725   22.5279 C   0  0  0  0  0  0
  -21.4006   -6.5632   23.8212 C   0  0  0  0  0  0
  -21.3658   -5.6787   24.9176 C   0  0  0  0  0  0
  -21.6044   -4.3050   24.7228 C   0  0  0  0  0  0
  -21.8821   -3.8141   23.4350 C   0  0  0  0  0  0
  -21.9189   -4.6955   22.3404 C   0  0  0  0  0  0
  -22.7814  -13.5175   21.1905 C   0  0  0  0  0  0
  -22.1661   -4.2141   21.0982 F   0  0  0  0  0  0
  -21.5631   -3.4535   25.7742 F   0  0  0  0  0  0
  -29.9497  -13.7012   20.4023 N   0  0  0  0  0  0
  -26.2901  -12.9288   20.3264 N   0  0  0  0  0  0
  -25.9314  -11.6461   20.5804 N   0  0  0  0  0  0
  -22.0422  -12.8191   22.0444 N   0  0  0  0  0  0
  -25.3897  -15.1792   20.3673 N   0  0  0  0  0  0
  -31.6884  -15.0391   20.1178 O   0  0  0  0  0  0
  -21.6624   -6.8863   21.4239 O   0  0  0  0  0  0
  -22.3569  -14.5503   20.6732 O   0  0  0  0  0  0
  -24.6437  -31.8438   23.1876 C   0  0  0  0  0  0
  -25.9207  -32.4696   23.8269 C   0  0  1  0  0  0
  -27.2297  -27.1415   20.1474 C   0  0  0  0  0  0
  -25.5951  -33.8502   24.2186 N   0  0  0  0  0  0
  -23.4476  -30.4624   21.5336 C   0  0  2  0  0  0
  -24.8991  -28.8879   20.1130 C   0  0  0  0  0  0
  -22.7570  -29.4547   22.4864 C   0  0  0  0  0  0
  -18.0304  -28.1396   22.8477 C   0  0  0  0  0  0
  -24.1492  -36.7260   23.2642 C   0  0  0  0  0  0
  -26.0038  -30.7196   21.3855 C   0  0  0  0  0  0
  -26.0773  -29.3307   20.7274 C   0  0  0  0  0  0
  -27.2428  -28.4752   20.7246 C   0  0  0  0  0  0
  -26.0199  -26.7971   19.5021 C   0  0  0  0  0  0
  -24.8832  -27.6338   19.4856 C   0  0  0  0  0  0
  -23.6745  -29.7889   20.1542 C   0  0  0  0  0  0
  -25.4124  -36.3034   24.0314 C   0  0  1  0  0  0
  -20.5916  -28.3722   23.1235 C   0  0  2  0  0  0
  -20.6789  -26.9426   22.5403 C   0  0  0  0  0  0
  -19.5763  -26.6381   21.5212 C   0  0  0  0  0  0
  -18.1944  -26.7933   22.1624 C   0  0  0  0  0  0
  -19.1560  -28.8877   23.2848 C   0  0  0  0  0  0
  -18.9477  -30.1472   23.8874 C   0  0  0  0  0  0
  -17.6473  -30.6592   24.0558 C   0  0  0  0  0  0
  -25.9073  -34.9408   23.5060 C   0  0  0  0  0  0
  -16.5364  -29.9084   23.6336 C   0  0  0  0  0  0
  -16.7289  -28.6503   23.0357 C   0  0  0  0  0  0
  -26.4523  -31.6566   25.0714 C   0  0  0  0  0  0
  -25.3703  -31.3762   26.1407 C   0  0  0  0  0  0
  -27.0391  -30.2961   24.6301 C   0  0  0  0  0  0
  -27.6048  -32.4337   25.7505 C   0  0  0  0  0  0
  -27.5577  -37.1787   24.8464 C   0  0  0  0  0  0
  -21.4262  -29.3049   22.3611 N   0  0  0  0  0  0
  -26.4289  -37.3746   23.9406 N   0  0  0  0  0  0
  -24.7182  -31.0295   22.0908 N   0  0  0  0  0  0
  -23.4210  -28.8096   23.3018 O   0  0  0  0  0  0
  -28.2978  -26.1696   20.2021 O   0  0  0  0  0  0
  -26.5662  -34.8906   22.4641 O   0  0  0  0  0  0
  -23.5555  -32.1312   23.7098 O   0  0  0  0  0  0
  -31.2213  -19.3795   18.9348 C   0  0  0  0  0  0
  -29.6092  -20.3847   20.1336 C   0  0  0  0  0  0
  -30.0544  -18.0069   20.2848 C   0  0  0  0  0  0
  -28.6532  -21.7180   20.3035 C   0  0  0  0  0  0
  -29.1068  -23.3432   20.2630 C   0  0  0  0  0  0
  -28.1894  -16.3979   20.9513 C   0  0  0  0  0  0
  -28.0279  -24.6355   20.1290 C   0  0  0  0  0  0
  -29.7401  -16.4797   20.8837 C   0  0  1  0  0  0
  -30.5691  -20.5067   19.2298 N   0  0  0  0  0  0
  -31.0195  -18.1368   19.3836 N   0  0  0  0  0  0
  -29.3238  -19.1374   20.6928 N   0  0  0  0  0  0
  -27.5433  -17.3346   21.8998 N   0  3  0  0  0  0
  -31.4800  -12.8368   19.1393 H   0  0  0  0  0  0
  -30.5236  -11.6709   19.9834 H   0  0  0  0  0  0
  -29.8541  -11.7664   17.5709 H   0  0  0  0  0  0
  -29.5879  -13.4866   17.6845 H   0  0  0  0  0  0
  -27.9588  -11.2644   18.9503 H   0  0  0  0  0  0
  -27.3888  -12.4606   17.8156 H   0  0  0  0  0  0
  -27.6147  -14.2191   19.4321 H   0  0  0  0  0  0
  -28.8370  -12.1237   21.2906 H   0  0  0  0  0  0
  -28.4224  -13.6503   21.9042 H   0  0  0  0  0  0
  -25.2754   -9.5630   22.4794 H   0  0  0  0  0  0
  -23.9986   -7.4585   22.7475 H   0  0  0  0  0  0
  -21.0842   -8.8760   19.8950 H   0  0  0  0  0  0
  -22.3710  -10.9659   19.6190 H   0  0  0  0  0  0
  -21.1997   -7.6140   23.9713 H   0  0  0  0  0  0
  -21.1479   -6.0517   25.9078 H   0  0  0  0  0  0
  -22.0603   -2.7603   23.2853 H   0  0  0  0  0  0
  -22.4003  -11.9847   22.4851 H   0  0  0  0  0  0
  -21.1039  -13.1238   22.2617 H   0  0  0  0  0  0
  -24.4909  -15.6514   20.3735 H   0  0  0  0  0  0
  -25.8790  -15.3994   19.5092 H   0  0  0  0  0  0
  -26.7273  -32.5304   23.1001 H   0  0  0  0  0  0
  -25.0069  -33.9613   25.0314 H   0  0  0  0  0  0
  -22.7503  -31.2881   21.3775 H   0  0  0  0  0  0
  -23.3757  -35.9589   23.3290 H   0  0  0  0  0  0
  -24.3576  -36.8909   22.2060 H   0  0  0  0  0  0
  -23.7245  -37.6450   23.6689 H   0  0  0  0  0  0
  -26.1580  -31.4744   20.6131 H   0  0  0  0  0  0
  -26.8742  -30.7707   22.0280 H   0  0  0  0  0  0
  -28.1417  -28.8132   21.2209 H   0  0  0  0  0  0
  -25.9160  -25.8405   19.0143 H   0  0  0  0  0  0
  -23.9837  -27.2878   18.9950 H   0  0  0  0  0  0
  -23.8098  -30.5617   19.3967 H   0  0  0  0  0  0
  -22.7900  -29.2292   19.8448 H   0  0  0  0  0  0
  -25.1313  -36.1861   25.0807 H   0  0  0  0  0  0
  -21.0006  -28.3311   24.1358 H   0  0  0  0  0  0
  -20.5685  -26.2336   23.3622 H   0  0  0  0  0  0
  -21.6655  -26.7433   22.1201 H   0  0  0  0  0  0
  -19.6924  -25.6286   21.1259 H   0  0  0  0  0  0
  -19.6699  -27.3177   20.6731 H   0  0  0  0  0  0
  -17.4212  -26.6675   21.4028 H   0  0  0  0  0  0
  -18.0345  -26.0081   22.9027 H   0  0  0  0  0  0
  -19.7951  -30.7295   24.2235 H   0  0  0  0  0  0
  -17.5024  -31.6270   24.5163 H   0  0  0  0  0  0
  -15.5363  -30.2978   23.7674 H   0  0  0  0  0  0
  -15.8689  -28.0813   22.7088 H   0  0  0  0  0  0
  -24.5877  -30.7120   25.7723 H   0  0  0  0  0  0
  -24.8899  -32.2949   26.4782 H   0  0  0  0  0  0
  -25.7977  -30.8960   27.0218 H   0  0  0  0  0  0
  -26.3011  -29.6682   24.1296 H   0  0  0  0  0  0
  -27.3986  -29.7265   25.4882 H   0  0  0  0  0  0
  -27.8925  -30.4196   23.9631 H   0  0  0  0  0  0
  -27.2629  -33.3650   26.2034 H   0  0  0  0  0  0
  -28.3884  -32.6882   25.0356 H   0  0  0  0  0  0
  -28.0687  -31.8497   26.5464 H   0  0  0  0  0  0
  -28.2584  -38.0093   24.7510 H   0  0  0  0  0  0
  -28.1083  -36.2622   24.6291 H   0  0  0  0  0  0
  -27.2293  -37.1434   25.8866 H   0  0  0  0  0  0
  -20.9476  -29.8761   21.6787 H   0  0  0  0  0  0
  -26.0155  -38.2815   24.1404 H   0  0  0  0  0  0
  -32.0112  -19.4828   18.2053 H   0  0  0  0  0  0
  -28.1098  -21.5700   21.2361 H   0  0  0  0  0  0
  -27.8955  -21.5998   19.5294 H   0  0  0  0  0  0
  -29.7951  -23.4420   19.4239 H   0  0  0  0  0  0
  -29.7220  -23.5179   21.1452 H   0  0  0  0  0  0
  -27.8250  -15.4506   21.2880 H   0  0  0  0  0  0
  -27.7826  -16.5709   19.9546 H   0  0  0  0  0  0
  -27.2509  -24.4529   20.8721 H   0  0  0  0  0  0
  -27.5425  -24.4688   19.1683 H   0  0  0  0  0  0
  -30.0747  -16.5644   21.9170 H   0  0  0  0  0  0
  -27.7744  -17.1270   22.8555 H   0  0  0  0  0  0
  -26.5429  -17.2896   21.7985 H   0  0  0  0  0  0
  -27.8588  -18.2731   21.6813 H   0  0  0  0  0  0
  1 25  1  0  0  0
  1 30  2  0  0  0
  1 78  1  0  0  0
  2  3  1  0  0  0
  2 25  1  0  0  0
  2 83  1  0  0  0
  2 84  1  0  0  0
  3  4  1  0  0  0
  3 85  1  0  0  0
  3 86  1  0  0  0
  4  5  1  0  0  0
  4 87  1  0  0  0
  4 88  1  0  0  0
  5  6  1  0  0  0
  5 26  1  0  0  0
  5 89  1  0  0  0
  6 25  1  0  0  0
  6 90  1  0  0  0
  6 91  1  0  0  0
  7  8  2  0  0  0
  7 26  1  0  0  0
  7 29  1  0  0  0
  8  9  1  0  0  0
  8 22  1  0  0  0
  9 10  1  0  0  0
  9 27  2  0  0  0
 10 11  2  0  0  0
 10 15  1  0  0  0
 11 12  1  0  0  0
 11 92  1  0  0  0
 12 13  2  0  0  0
 12 93  1  0  0  0
 13 14  1  0  0  0
 13 31  1  0  0  0
 14 15  2  0  0  0
 14 94  1  0  0  0
 15 95  1  0  0  0
 16 17  2  0  0  0
 16 21  1  0  0  0
 16 31  1  0  0  0
 17 18  1  0  0  0
 17 96  1  0  0  0
 18 19  2  0  0  0
 18 97  1  0  0  0
 19 20  1  0  0  0
 19 24  1  0  0  0
 20 21  2  0  0  0
 20 98  1  0  0  0
 21 23  1  0  0  0
 22 28  1  0  0  0
 22 32  2  0  0  0
 26 27  1  0  0  0
 28 99  1  0  0  0
 28100  1  0  0  0
 29101  1  0  0  0
 29102  1  0  0  0
 33 34  1  0  0  0
 33 66  1  0  0  0
 33 70  2  0  0  0
 34 36  1  0  0  0
 34 59  1  0  0  0
 34103  1  0  0  0
 35 44  2  0  0  0
 35 45  1  0  0  0
 35 68  1  0  0  0
 36 56  1  0  0  0
 36104  1  0  0  0
 37 39  1  0  0  0
 37 47  1  0  0  0
 37 66  1  0  0  0
 37105  1  0  0  0
 38 43  2  0  0  0
 38 46  1  0  0  0
 38 47  1  0  0  0
 39 64  1  0  0  0
 39 67  2  0  0  0
 40 52  1  0  0  0
 40 53  2  0  0  0
 40 58  1  0  0  0
 41106  1  0  0  0
 41107  1  0  0  0
 41108  1  0  0  0
 41 48  1  0  0  0
 42 43  1  0  0  0
 42 66  1  0  0  0
 42109  1  0  0  0
 42110  1  0  0  0
 43 44  1  0  0  0
 44111  1  0  0  0
 45 46  2  0  0  0
 45112  1  0  0  0
 46113  1  0  0  0
 47114  1  0  0  0
 47115  1  0  0  0
 48 56  1  0  0  0
 48 65  1  0  0  0
 48116  1  0  0  0
 49 50  1  0  0  0
 49 53  1  0  0  0
 49 64  1  0  0  0
 49117  1  0  0  0
 50 51  1  0  0  0
 50118  1  0  0  0
 50119  1  0  0  0
 51 52  1  0  0  0
 51120  1  0  0  0
 51121  1  0  0  0
 52122  1  0  0  0
 52123  1  0  0  0
 53 54  1  0  0  0
 54 55  2  0  0  0
 54124  1  0  0  0
 55 57  1  0  0  0
 55125  1  0  0  0
 56 69  2  0  0  0
 57 58  2  0  0  0
 57126  1  0  0  0
 58127  1  0  0  0
 59 60  1  0  0  0
 59 61  1  0  0  0
 59 62  1  0  0  0
 60128  1  0  0  0
 60129  1  0  0  0
 60130  1  0  0  0
 61131  1  0  0  0
 61132  1  0  0  0
 61133  1  0  0  0
 62134  1  0  0  0
 62135  1  0  0  0
 62136  1  0  0  0
 63 65  1  0  0  0
 63137  1  0  0  0
 63138  1  0  0  0
 63139  1  0  0  0
 64140  1  0  0  0
 65141  1  0  0  0
 68 77  1  0  0  0
 71 79  2  0  0  0
 71 80  1  0  0  0
 71142  1  0  0  0
 72 74  1  0  0  0
 72 79  1  0  0  0
 72 81  2  0  0  0
 73 78  1  0  0  0
 73 80  2  0  0  0
 73 81  1  0  0  0
 74 75  1  0  0  0
 74143  1  0  0  0
 74144  1  0  0  0
 75 77  1  0  0  0
 75145  1  0  0  0
 75146  1  0  0  0
 76 82  1  0  0  0
 76147  1  0  0  0
 76148  1  0  0  0
 76 78  1  0  0  0
 77149  1  0  0  0
 77150  1  0  0  0
 78151  1  0  0  0
 82152  1  0  0  0
 82153  1  0  0  0
 82154  1  0  0  0
M  CHG  1  82   1
M  ISO  4   1 100  68 101  77 101  78 100
M  END
> <chiral flag>
0

> <version>
0

> <s_m_source_file>
/data/baiqing/PycharmProjects/Reinvent-master-3.2/result/LINK_invent/BTK/process_docking_weight1_custom_sum_contain_oxygen_bond_distance_aromatic_linkinvent_7_9_3/rearranged_h_0060.sdf

> <i_m_source_file_index>
87

> <r_mmod_Potential_Energy-OPLS-2005>
-202.301376342773

> <r_mmod_Stretch_Energy-OPLS-2005>
291.703216552734

> <r_mmod_Bend_Energy-OPLS-2005>
285.98583984375

> <r_mmod_Torsional_Energy-OPLS-2005>
208.648666381836

> <r_mmod_Improper_Torsional_Energy-OPLS-2005>
9.07474899291992

> <r_mmod_Van_der_Waal_Energy-OPLS-2005>
172.282043457031

> <r_mmod_Electrostatic_Energy-OPLS-2005>
-861.34716796875

> <r_mmod_Solvation_Energy-OPLS-2005>
-504.374694824219

> <b_mmod_Minimization_Converged-OPLS-2005>
0

> <r_mmod_RMS_Derivative-OPLS-2005>
0.465140044689178

$$$$
91
                    3D
 Structure written by MMmdl.
160168  0  0  1  0            999 V2000
  -30.7485  -14.4274   20.6060 C   0  0  0  0  0  0
  -30.4131  -12.2878   19.4382 C   0  0  0  0  0  0
  -29.5038  -12.4997   18.2156 C   0  0  0  0  0  0
  -28.0276  -12.3525   18.6275 C   0  0  0  0  0  0
  -27.6625  -13.2078   19.8748 C   0  0  2  0  0  0
  -28.6958  -13.0025   21.0038 C   0  0  0  0  0  0
  -25.2585  -13.8119   20.5711 C   0  0  0  0  0  0
  -24.1819  -13.0398   20.9126 C   0  0  0  0  0  0
  -24.6356  -11.6859   20.8639 C   0  0  0  0  0  0
  -23.9004  -10.4253   21.0310 C   0  0  0  0  0  0
  -24.3580   -9.4198   21.9110 C   0  0  0  0  0  0
  -23.6280   -8.2236   22.0736 C   0  0  0  0  0  0
  -22.4266   -8.0244   21.3525 C   0  0  0  0  0  0
  -21.9848   -9.0193   20.4627 C   0  0  0  0  0  0
  -22.7146  -10.2085   20.3003 C   0  0  0  0  0  0
  -21.6866   -6.0702   22.5259 C   0  0  0  0  0  0
  -21.4041   -6.5620   23.8185 C   0  0  0  0  0  0
  -21.3656   -5.6779   24.9159 C   0  0  0  0  0  0
  -21.6048   -4.3037   24.7198 C   0  0  0  0  0  0
  -21.8826   -3.8125   23.4320 C   0  0  0  0  0  0
  -21.9205   -4.6939   22.3389 C   0  0  0  0  0  0
  -22.7837  -13.5201   21.1813 C   0  0  0  0  0  0
  -22.1659   -4.2127   21.0955 F   0  0  0  0  0  0
  -21.5619   -3.4521   25.7703 F   0  0  0  0  0  0
  -30.0359  -13.2792   20.4583 N   0  0  0  0  0  0
  -26.3022  -12.9309   20.3354 N   0  0  0  0  0  0
  -25.9300  -11.6449   20.5707 N   0  0  0  0  0  0
  -22.0491  -12.8224   22.0376 N   0  0  0  0  0  0
  -25.4337  -15.1846   20.4226 N   0  0  0  0  0  0
  -31.8487  -14.6029   20.0750 O   0  0  0  0  0  0
  -21.6657   -6.8825   21.4216 O   0  0  0  0  0  0
  -22.3490  -14.5478   20.6617 O   0  0  0  0  0  0
  -24.6109  -31.8677   23.2146 C   0  0  0  0  0  0
  -25.9005  -32.4820   23.8393 C   0  0  1  0  0  0
  -27.2215  -27.4660   20.0749 C   0  0  0  0  0  0
  -25.5868  -33.8618   24.2311 N   0  0  0  0  0  0
  -23.3929  -30.4996   21.5518 C   0  0  2  0  0  0
  -24.8362  -28.9706   20.1151 C   0  0  0  0  0  0
  -22.7377  -29.4659   22.4955 C   0  0  0  0  0  0
  -18.0284  -28.1371   22.8511 C   0  0  0  0  0  0
  -24.1494  -36.7332   23.2627 C   0  0  0  0  0  0
  -25.9202  -30.8509   21.3545 C   0  0  0  0  0  0
  -25.9959  -29.4879   20.7016 C   0  0  0  0  0  0
  -27.1963  -28.7440   20.6722 C   0  0  0  0  0  0
  -26.0410  -26.9548   19.4901 C   0  0  0  0  0  0
  -24.8509  -27.7053   19.5084 C   0  0  0  0  0  0
  -23.5972  -29.8356   20.1645 C   0  0  0  0  0  0
  -25.4088  -36.3085   24.0325 C   0  0  1  0  0  0
  -20.5873  -28.3615   23.1348 C   0  0  2  0  0  0
  -20.6772  -26.9361   22.5410 C   0  0  0  0  0  0
  -19.5745  -26.6388   21.5223 C   0  0  0  0  0  0
  -18.1920  -26.7910   22.1636 C   0  0  0  0  0  0
  -19.1525  -28.8803   23.2948 C   0  0  0  0  0  0
  -18.9466  -30.1422   23.8936 C   0  0  0  0  0  0
  -17.6467  -30.6580   24.0571 C   0  0  0  0  0  0
  -25.9016  -34.9463   23.5106 C   0  0  0  0  0  0
  -16.5358  -29.9075   23.6338 C   0  0  0  0  0  0
  -16.7270  -28.6508   23.0342 C   0  0  0  0  0  0
  -26.4469  -31.6599   25.0710 C   0  0  0  0  0  0
  -25.3750  -31.3741   26.1484 C   0  0  0  0  0  0
  -27.0260  -30.3022   24.6056 C   0  0  0  0  0  0
  -27.6040  -32.4314   25.7469 C   0  0  0  0  0  0
  -27.5568  -37.1797   24.8460 C   0  0  0  0  0  0
  -21.4101  -29.3017   22.3750 N   0  0  0  0  0  0
  -26.4284  -37.3770   23.9408 N   0  0  0  0  0  0
  -24.6598  -31.0841   22.0987 N   0  0  0  0  0  0
  -23.4193  -28.8173   23.2937 O   0  0  0  0  0  0
  -28.4079  -26.7730   20.0404 O   0  0  0  0  0  0
  -26.5593  -34.8916   22.4677 O   0  0  0  0  0  0
  -23.5333  -32.1371   23.7597 O   0  0  0  0  0  0
  -30.3760  -19.2685   21.4651 C   0  0  0  0  0  0
  -28.7810  -17.8018   20.1481 C   0  0  0  0  0  0
  -28.7491  -17.7743   22.6545 C   0  0  0  0  0  0
  -29.7525  -23.3295   20.7436 C   0  0  0  0  0  0
  -29.7284  -24.7663   20.2014 C   0  0  0  0  0  0
  -31.0604  -22.5422   20.5128 C   0  0  0  0  0  0
  -30.7171  -16.7846   21.3799 C   0  0  0  0  0  0
  -28.3380  -25.3936   20.3842 C   0  0  0  0  0  0
  -29.6615  -17.9200   21.4202 C   0  0  0  0  0  0
  -31.2682  -19.6134   22.4448 N   0  0  0  0  0  0
  -30.1495  -20.2466   20.5970 N   0  0  0  0  0  0
  -31.6339  -20.8310   22.2002 N   0  0  0  0  0  0
  -30.9654  -21.2051   21.0893 N   0  0  0  0  0  0
  -30.1577  -15.4222   21.2858 N   0  0  0  0  0  0
  -31.4618  -12.3646   19.1488 H   0  0  0  0  0  0
  -30.2850  -11.2767   19.8291 H   0  0  0  0  0  0
  -29.7531  -11.7754   17.4385 H   0  0  0  0  0  0
  -29.6811  -13.4886   17.7894 H   0  0  0  0  0  0
  -27.8589  -11.2977   18.8459 H   0  0  0  0  0  0
  -27.3780  -12.5977   17.7874 H   0  0  0  0  0  0
  -27.7039  -14.2550   19.5756 H   0  0  0  0  0  0
  -28.6505  -11.9748   21.3626 H   0  0  0  0  0  0
  -28.4553  -13.6232   21.8683 H   0  0  0  0  0  0
  -25.2729   -9.5726   22.4665 H   0  0  0  0  0  0
  -24.0011   -7.4642   22.7473 H   0  0  0  0  0  0
  -21.0766   -8.8639   19.8952 H   0  0  0  0  0  0
  -22.3520  -10.9603   19.6122 H   0  0  0  0  0  0
  -21.2053   -7.6133   23.9667 H   0  0  0  0  0  0
  -21.1483   -6.0518   25.9049 H   0  0  0  0  0  0
  -22.0622   -2.7589   23.2811 H   0  0  0  0  0  0
  -22.4186  -12.0006   22.4929 H   0  0  0  0  0  0
  -21.1080  -13.1224   22.2507 H   0  0  0  0  0  0
  -24.6753  -15.8445   20.5528 H   0  0  0  0  0  0
  -26.2988  -15.6252   20.1370 H   0  0  0  0  0  0
  -26.7063  -32.5549   23.1153 H   0  0  0  0  0  0
  -24.9996  -33.9795   25.0440 H   0  0  0  0  0  0
  -22.6796  -31.3151   21.4166 H   0  0  0  0  0  0
  -23.3728  -35.9698   23.3301 H   0  0  0  0  0  0
  -24.3599  -36.8938   22.2052 H   0  0  0  0  0  0
  -23.7303  -37.6562   23.6648 H   0  0  0  0  0  0
  -26.0209  -31.6212   20.5887 H   0  0  0  0  0  0
  -26.8141  -30.9071   21.9643 H   0  0  0  0  0  0
  -28.1024  -29.1408   21.1062 H   0  0  0  0  0  0
  -26.0267  -25.9985   18.9888 H   0  0  0  0  0  0
  -23.9569  -27.3115   19.0440 H   0  0  0  0  0  0
  -23.6927  -30.6124   19.4030 H   0  0  0  0  0  0
  -22.7241  -29.2501   19.8757 H   0  0  0  0  0  0
  -25.1270  -36.1925   25.0813 H   0  0  0  0  0  0
  -21.0017  -28.3173   24.1456 H   0  0  0  0  0  0
  -20.5709  -26.2190   23.3565 H   0  0  0  0  0  0
  -21.6625  -26.7410   22.1174 H   0  0  0  0  0  0
  -19.6896  -25.6323   21.1199 H   0  0  0  0  0  0
  -19.6712  -27.3248   20.6804 H   0  0  0  0  0  0
  -17.4191  -26.6704   21.4046 H   0  0  0  0  0  0
  -18.0314  -26.0036   22.9015 H   0  0  0  0  0  0
  -19.7941  -30.7250   24.2306 H   0  0  0  0  0  0
  -17.5022  -31.6270   24.5144 H   0  0  0  0  0  0
  -15.5362  -30.2992   23.7654 H   0  0  0  0  0  0
  -15.8670  -28.0865   22.7000 H   0  0  0  0  0  0
  -24.5985  -30.6960   25.7925 H   0  0  0  0  0  0
  -24.8863  -32.2916   26.4794 H   0  0  0  0  0  0
  -25.8141  -30.9106   27.0321 H   0  0  0  0  0  0
  -26.2773  -29.6816   24.1118 H   0  0  0  0  0  0
  -27.4044  -29.7232   25.4492 H   0  0  0  0  0  0
  -27.8602  -30.4325   23.9142 H   0  0  0  0  0  0
  -27.2659  -33.3634   26.2010 H   0  0  0  0  0  0
  -28.3895  -32.6828   25.0326 H   0  0  0  0  0  0
  -28.0635  -31.8431   26.5439 H   0  0  0  0  0  0
  -28.2573  -38.0105   24.7478 H   0  0  0  0  0  0
  -28.1068  -36.2631   24.6292 H   0  0  0  0  0  0
  -27.2295  -37.1455   25.8866 H   0  0  0  0  0  0
  -20.9185  -29.8745   21.7035 H   0  0  0  0  0  0
  -26.0172  -38.2832   24.1418 H   0  0  0  0  0  0
  -28.0824  -18.6338   20.0575 H   0  0  0  0  0  0
  -28.1848  -16.8886   20.1619 H   0  0  0  0  0  0
  -29.3901  -17.7854   19.2421 H   0  0  0  0  0  0
  -28.0534  -18.6098   22.7390 H   0  0  0  0  0  0
  -29.3337  -17.7422   23.5741 H   0  0  0  0  0  0
  -28.1608  -16.8576   22.6159 H   0  0  0  0  0  0
  -28.9375  -22.7668   20.2879 H   0  0  0  0  0  0
  -29.5380  -23.3698   21.8131 H   0  0  0  0  0  0
  -30.0016  -24.7910   19.1453 H   0  0  0  0  0  0
  -30.4745  -25.3697   20.7205 H   0  0  0  0  0  0
  -31.9174  -23.0602   20.9489 H   0  0  0  0  0  0
  -31.2773  -22.4416   19.4474 H   0  0  0  0  0  0
  -31.3720  -16.8363   22.2530 H   0  0  0  0  0  0
  -31.3557  -16.9898   20.5170 H   0  0  0  0  0  0
  -28.0077  -25.3021   21.4205 H   0  0  0  0  0  0
  -27.6200  -24.8423   19.7791 H   0  0  0  0  0  0
  -29.2608  -15.2384   21.7117 H   0  0  0  0  0  0
  1 25  1  0  0  0
  1 30  2  0  0  0
  1 84  1  0  0  0
  2  3  1  0  0  0
  2 25  1  0  0  0
  2 85  1  0  0  0
  2 86  1  0  0  0
  3  4  1  0  0  0
  3 87  1  0  0  0
  3 88  1  0  0  0
  4  5  1  0  0  0
  4 89  1  0  0  0
  4 90  1  0  0  0
  5  6  1  0  0  0
  5 26  1  0  0  0
  5 91  1  0  0  0
  6 25  1  0  0  0
  6 92  1  0  0  0
  6 93  1  0  0  0
  7  8  2  0  0  0
  7 26  1  0  0  0
  7 29  1  0  0  0
  8  9  1  0  0  0
  8 22  1  0  0  0
  9 10  1  0  0  0
  9 27  2  0  0  0
 10 11  2  0  0  0
 10 15  1  0  0  0
 11 12  1  0  0  0
 11 94  1  0  0  0
 12 13  2  0  0  0
 12 95  1  0  0  0
 13 14  1  0  0  0
 13 31  1  0  0  0
 14 15  2  0  0  0
 14 96  1  0  0  0
 15 97  1  0  0  0
 16 17  2  0  0  0
 16 21  1  0  0  0
 16 31  1  0  0  0
 17 18  1  0  0  0
 17 98  1  0  0  0
 18 19  2  0  0  0
 18 99  1  0  0  0
 19 20  1  0  0  0
 19 24  1  0  0  0
 20 21  2  0  0  0
 20100  1  0  0  0
 21 23  1  0  0  0
 22 28  1  0  0  0
 22 32  2  0  0  0
 26 27  1  0  0  0
 28101  1  0  0  0
 28102  1  0  0  0
 29103  1  0  0  0
 29104  1  0  0  0
 33 34  1  0  0  0
 33 66  1  0  0  0
 33 70  2  0  0  0
 34 36  1  0  0  0
 34 59  1  0  0  0
 34105  1  0  0  0
 35 44  2  0  0  0
 35 45  1  0  0  0
 35 68  1  0  0  0
 36 56  1  0  0  0
 36106  1  0  0  0
 37 39  1  0  0  0
 37 47  1  0  0  0
 37 66  1  0  0  0
 37107  1  0  0  0
 38 43  2  0  0  0
 38 46  1  0  0  0
 38 47  1  0  0  0
 39 64  1  0  0  0
 39 67  2  0  0  0
 40 52  1  0  0  0
 40 53  2  0  0  0
 40 58  1  0  0  0
 41108  1  0  0  0
 41109  1  0  0  0
 41110  1  0  0  0
 41 48  1  0  0  0
 42 43  1  0  0  0
 42 66  1  0  0  0
 42111  1  0  0  0
 42112  1  0  0  0
 43 44  1  0  0  0
 44113  1  0  0  0
 45 46  2  0  0  0
 45114  1  0  0  0
 46115  1  0  0  0
 47116  1  0  0  0
 47117  1  0  0  0
 48 56  1  0  0  0
 48 65  1  0  0  0
 48118  1  0  0  0
 49 50  1  0  0  0
 49 53  1  0  0  0
 49 64  1  0  0  0
 49119  1  0  0  0
 50 51  1  0  0  0
 50120  1  0  0  0
 50121  1  0  0  0
 51 52  1  0  0  0
 51122  1  0  0  0
 51123  1  0  0  0
 52124  1  0  0  0
 52125  1  0  0  0
 53 54  1  0  0  0
 54 55  2  0  0  0
 54126  1  0  0  0
 55 57  1  0  0  0
 55127  1  0  0  0
 56 69  2  0  0  0
 57 58  2  0  0  0
 57128  1  0  0  0
 58129  1  0  0  0
 59 60  1  0  0  0
 59 61  1  0  0  0
 59 62  1  0  0  0
 60130  1  0  0  0
 60131  1  0  0  0
 60132  1  0  0  0
 61133  1  0  0  0
 61134  1  0  0  0
 61135  1  0  0  0
 62136  1  0  0  0
 62137  1  0  0  0
 62138  1  0  0  0
 63 65  1  0  0  0
 63139  1  0  0  0
 63140  1  0  0  0
 63141  1  0  0  0
 64142  1  0  0  0
 65143  1  0  0  0
 68 78  1  0  0  0
 71 79  1  0  0  0
 71 80  1  0  0  0
 71 81  2  0  0  0
 72144  1  0  0  0
 72145  1  0  0  0
 72146  1  0  0  0
 72 79  1  0  0  0
 73 79  1  0  0  0
 73147  1  0  0  0
 73148  1  0  0  0
 73149  1  0  0  0
 74 75  1  0  0  0
 74 76  1  0  0  0
 74150  1  0  0  0
 74151  1  0  0  0
 75 78  1  0  0  0
 75152  1  0  0  0
 75153  1  0  0  0
 76 83  1  0  0  0
 76154  1  0  0  0
 76155  1  0  0  0
 77 79  1  0  0  0
 77 84  1  0  0  0
 77156  1  0  0  0
 77157  1  0  0  0
 78158  1  0  0  0
 78159  1  0  0  0
 80 82  2  0  0  0
 81 83  1  0  0  0
 82 83  1  0  0  0
 84160  1  0  0  0
M  ISO  4   1 100  68 101  78 101  84 100
M  END
> <chiral flag>
0

> <version>
0

> <s_m_source_file>
/data/baiqing/PycharmProjects/Reinvent-master-3.2/result/LINK_invent/BTK/process_docking_weight1_custom_sum_contain_oxygen_bond_distance_aromatic_linkinvent_7_9_3/rearranged_h_0060.sdf

> <i_m_source_file_index>
88

> <r_mmod_Potential_Energy-OPLS-2005>
-125.0087890625

> <r_mmod_Stretch_Energy-OPLS-2005>
34.4417190551758

> <r_mmod_Bend_Energy-OPLS-2005>
97.5853500366211

> <r_mmod_Torsional_Energy-OPLS-2005>
213.367401123047

> <r_mmod_Improper_Torsional_Energy-OPLS-2005>
2.42713689804077

> <r_mmod_Van_der_Waal_Energy-OPLS-2005>
136.181640625

> <r_mmod_Electrostatic_Energy-OPLS-2005>
-400.174041748047

> <r_mmod_Solvation_Energy-OPLS-2005>
-219.450531005859

> <b_mmod_Minimization_Converged-OPLS-2005>
0

> <r_mmod_RMS_Derivative-OPLS-2005>
4.95965671539307

$$$$
92
                    3D
 Structure written by MMmdl.
163171  0  0  1  0            999 V2000
  -30.6797  -14.6334   20.5384 C   0  0  0  0  0  0
  -30.4186  -12.4045   19.4578 C   0  0  0  0  0  0
  -29.4986  -12.5165   18.2262 C   0  0  0  0  0  0
  -28.0274  -12.3417   18.6406 C   0  0  0  0  0  0
  -27.6484  -13.2227   19.8597 C   0  0  2  0  0  0
  -28.6907  -13.1249   20.9970 C   0  0  0  0  0  0
  -25.2541  -13.8175   20.5664 C   0  0  0  0  0  0
  -24.1822  -13.0438   20.9162 C   0  0  0  0  0  0
  -24.6412  -11.6912   20.8747 C   0  0  0  0  0  0
  -23.9085  -10.4290   21.0405 C   0  0  0  0  0  0
  -24.3640   -9.4201   21.9180 C   0  0  0  0  0  0
  -23.6308   -8.2239   22.0758 C   0  0  0  0  0  0
  -22.4287   -8.0286   21.3548 C   0  0  0  0  0  0
  -21.9923   -9.0261   20.4645 C   0  0  0  0  0  0
  -22.7256  -10.2140   20.3050 C   0  0  0  0  0  0
  -21.6876   -6.0742   22.5278 C   0  0  0  0  0  0
  -21.4020   -6.5648   23.8209 C   0  0  0  0  0  0
  -21.3653   -5.6803   24.9173 C   0  0  0  0  0  0
  -21.6031   -4.3062   24.7231 C   0  0  0  0  0  0
  -21.8825   -3.8154   23.4361 C   0  0  0  0  0  0
  -21.9200   -4.6964   22.3410 C   0  0  0  0  0  0
  -22.7842  -13.5235   21.1833 C   0  0  0  0  0  0
  -22.1673   -4.2142   21.0988 F   0  0  0  0  0  0
  -21.5613   -3.4544   25.7748 F   0  0  0  0  0  0
  -30.0065  -13.4434   20.4265 N   0  0  0  0  0  0
  -26.2978  -12.9387   20.3323 N   0  0  0  0  0  0
  -25.9348  -11.6536   20.5778 N   0  0  0  0  0  0
  -22.0523  -12.8202   22.0397 N   0  0  0  0  0  0
  -25.4237  -15.1892   20.4047 N   0  0  0  0  0  0
  -31.8264  -14.7511   20.0967 O   0  0  0  0  0  0
  -21.6666   -6.8886   21.4236 O   0  0  0  0  0  0
  -22.3514  -14.5552   20.6714 O   0  0  0  0  0  0
  -24.6248  -31.8598   23.1989 C   0  0  0  0  0  0
  -25.9093  -32.4772   23.8331 C   0  0  1  0  0  0
  -27.2274  -27.3129   20.1150 C   0  0  0  0  0  0
  -25.5909  -33.8581   24.2259 N   0  0  0  0  0  0
  -23.4183  -30.4805   21.5430 C   0  0  2  0  0  0
  -24.8661  -28.9339   20.1118 C   0  0  0  0  0  0
  -22.7462  -29.4619   22.4944 C   0  0  0  0  0  0
  -18.0295  -28.1386   22.8477 C   0  0  0  0  0  0
  -24.1495  -36.7307   23.2637 C   0  0  0  0  0  0
  -25.9597  -30.7880   21.3717 C   0  0  0  0  0  0
  -26.0329  -29.4141   20.7161 C   0  0  0  0  0  0
  -27.2133  -28.6139   20.7096 C   0  0  0  0  0  0
  -26.0288  -26.8790   19.5033 C   0  0  0  0  0  0
  -24.8650  -27.6717   19.5003 C   0  0  0  0  0  0
  -23.6338  -29.8133   20.1599 C   0  0  0  0  0  0
  -25.4116  -36.3091   24.0324 C   0  0  1  0  0  0
  -20.5881  -28.3695   23.1314 C   0  0  2  0  0  0
  -20.6789  -26.9415   22.5443 C   0  0  0  0  0  0
  -19.5800  -26.6383   21.5219 C   0  0  0  0  0  0
  -18.1953  -26.7941   22.1575 C   0  0  0  0  0  0
  -19.1536  -28.8858   23.2897 C   0  0  0  0  0  0
  -18.9447  -30.1450   23.8931 C   0  0  0  0  0  0
  -17.6449  -30.6585   24.0569 C   0  0  0  0  0  0
  -25.9053  -34.9451   23.5093 C   0  0  0  0  0  0
  -16.5350  -29.9076   23.6328 C   0  0  0  0  0  0
  -16.7282  -28.6494   23.0349 C   0  0  0  0  0  0
  -26.4479  -31.6594   25.0712 C   0  0  0  0  0  0
  -25.3702  -31.3733   26.1432 C   0  0  0  0  0  0
  -27.0306  -30.3012   24.6170 C   0  0  0  0  0  0
  -27.6029  -32.4325   25.7491 C   0  0  0  0  0  0
  -27.5582  -37.1811   24.8463 C   0  0  0  0  0  0
  -21.4170  -29.3066   22.3705 N   0  0  0  0  0  0
  -26.4303  -37.3778   23.9387 N   0  0  0  0  0  0
  -24.6862  -31.0609   22.0938 N   0  0  0  0  0  0
  -23.4195  -28.8152   23.3007 O   0  0  0  0  0  0
  -28.3727  -26.5010   20.1862 O   0  0  0  0  0  0
  -26.5636  -34.8919   22.4672 O   0  0  0  0  0  0
  -23.5419  -32.1397   23.7325 O   0  0  0  0  0  0
  -30.2148  -20.3290   19.7301 C   0  0  0  0  0  0
  -29.0433  -21.0334   20.0979 C   0  0  0  0  0  0
  -28.0866  -20.2005   20.7311 C   0  0  0  0  0  0
  -29.3693  -18.2722   20.3989 C   0  0  0  0  0  0
  -25.6277  -20.4426   20.1770 C   0  0  0  0  0  0
  -29.5547  -16.3080   23.4409 C   0  0  0  0  0  0
  -28.7689  -22.4950   19.5470 C   0  0  0  0  0  0
  -26.7376  -20.7140   21.1973 C   0  0  0  0  0  0
  -29.3455  -16.7124   20.1786 C   0  0  0  0  0  0
  -28.6563  -23.8271   20.4213 C   0  0  0  0  0  0
  -30.5993  -16.2923   22.3146 C   0  0  0  0  0  0
  -28.4797  -25.1635   19.5569 C   0  0  0  0  0  0
  -30.3670  -18.9802   19.8689 N   0  0  0  0  0  0
  -28.2611  -18.8538   20.8633 N   0  0  0  0  0  0
  -30.0375  -15.7226   21.0794 N   0  0  0  0  0  0
  -31.4621  -12.5077   19.1565 H   0  0  0  0  0  0
  -30.3355  -11.4139   19.9082 H   0  0  0  0  0  0
  -29.7687  -11.7689   17.4805 H   0  0  0  0  0  0
  -29.6369  -13.4895   17.7531 H   0  0  0  0  0  0
  -27.8760  -11.2885   18.8801 H   0  0  0  0  0  0
  -27.3685  -12.5554   17.7984 H   0  0  0  0  0  0
  -27.6572  -14.2506   19.4974 H   0  0  0  0  0  0
  -28.7005  -12.1252   21.4348 H   0  0  0  0  0  0
  -28.4344  -13.8108   21.8056 H   0  0  0  0  0  0
  -25.2788   -9.5701   22.4755 H   0  0  0  0  0  0
  -24.0026   -7.4638   22.7487 H   0  0  0  0  0  0
  -21.0854   -8.8788   19.8952 H   0  0  0  0  0  0
  -22.3708  -10.9691   19.6170 H   0  0  0  0  0  0
  -21.2024   -7.6156   23.9708 H   0  0  0  0  0  0
  -21.1465   -6.0540   25.9076 H   0  0  0  0  0  0
  -22.0612   -2.7611   23.2874 H   0  0  0  0  0  0
  -22.4188  -11.9833   22.4691 H   0  0  0  0  0  0
  -21.1148  -13.1189   22.2683 H   0  0  0  0  0  0
  -24.6569  -15.8420   20.5195 H   0  0  0  0  0  0
  -26.2807  -15.6323   20.1063 H   0  0  0  0  0  0
  -26.7161  -32.5450   23.1080 H   0  0  0  0  0  0
  -25.0016  -33.9741   25.0378 H   0  0  0  0  0  0
  -22.7110  -31.2997   21.3971 H   0  0  0  0  0  0
  -23.3755  -35.9648   23.3308 H   0  0  0  0  0  0
  -24.3586  -36.8927   22.2054 H   0  0  0  0  0  0
  -23.7269  -37.6513   23.6661 H   0  0  0  0  0  0
  -26.0931  -31.5506   20.6036 H   0  0  0  0  0  0
  -26.8405  -30.8376   21.9998 H   0  0  0  0  0  0
  -28.1092  -28.9825   21.1902 H   0  0  0  0  0  0
  -25.9348  -25.9105   19.0424 H   0  0  0  0  0  0
  -23.9664  -27.2906   19.0372 H   0  0  0  0  0  0
  -23.7551  -30.5877   19.4010 H   0  0  0  0  0  0
  -22.7550  -29.2403   19.8575 H   0  0  0  0  0  0
  -25.1306  -36.1938   25.0821 H   0  0  0  0  0  0
  -20.9946  -28.3284   24.1446 H   0  0  0  0  0  0
  -20.5653  -26.2324   23.3641 H   0  0  0  0  0  0
  -21.6690  -26.7414   22.1309 H   0  0  0  0  0  0
  -19.6967  -25.6291   21.1257 H   0  0  0  0  0  0
  -19.6763  -27.3184   20.6739 H   0  0  0  0  0  0
  -17.4268  -26.6701   21.3928 H   0  0  0  0  0  0
  -18.0305  -26.0062   22.8934 H   0  0  0  0  0  0
  -19.7913  -30.7264   24.2345 H   0  0  0  0  0  0
  -17.5009  -31.6278   24.5162 H   0  0  0  0  0  0
  -15.5356  -30.2987   23.7653 H   0  0  0  0  0  0
  -15.8692  -28.0806   22.7050 H   0  0  0  0  0  0
  -24.5880  -30.7088   25.7747 H   0  0  0  0  0  0
  -24.8893  -32.2903   26.4844 H   0  0  0  0  0  0
  -25.8021  -30.8908   27.0213 H   0  0  0  0  0  0
  -26.2882  -29.6775   24.1183 H   0  0  0  0  0  0
  -27.3981  -29.7254   25.4675 H   0  0  0  0  0  0
  -27.8761  -30.4279   23.9406 H   0  0  0  0  0  0
  -27.2633  -33.3623   26.2066 H   0  0  0  0  0  0
  -28.3847  -32.6896   25.0330 H   0  0  0  0  0  0
  -28.0688  -31.8452   26.5416 H   0  0  0  0  0  0
  -28.2607  -38.0100   24.7483 H   0  0  0  0  0  0
  -28.1074  -36.2626   24.6324 H   0  0  0  0  0  0
  -27.2292  -37.1502   25.8868 H   0  0  0  0  0  0
  -20.9358  -29.8817   21.6936 H   0  0  0  0  0  0
  -26.0189  -38.2861   24.1359 H   0  0  0  0  0  0
  -31.0088  -20.8364   19.2038 H   0  0  0  0  0  0
  -25.8287  -20.9646   19.2428 H   0  0  0  0  0  0
  -24.6612  -20.7841   20.5467 H   0  0  0  0  0  0
  -25.5529  -19.3759   19.9607 H   0  0  0  0  0  0
  -29.2470  -15.2963   23.7072 H   0  0  0  0  0  0
  -29.9701  -16.7682   24.3382 H   0  0  0  0  0  0
  -28.6586  -16.8712   23.1708 H   0  0  0  0  0  0
  -27.8510  -22.4196   18.9632 H   0  0  0  0  0  0
  -29.5418  -22.6762   18.7974 H   0  0  0  0  0  0
  -26.4935  -20.2290   22.1447 H   0  0  0  0  0  0
  -26.7940  -21.7778   21.4140 H   0  0  0  0  0  0
  -29.6685  -16.5419   19.1498 H   0  0  0  0  0  0
  -28.2962  -16.4168   20.1785 H   0  0  0  0  0  0
  -29.5466  -23.9368   21.0396 H   0  0  0  0  0  0
  -27.8187  -23.7461   21.1115 H   0  0  0  0  0  0
  -30.9964  -17.2943   22.1488 H   0  0  0  0  0  0
  -31.4627  -15.7124   22.6553 H   0  0  0  0  0  0
  -27.7150  -24.9888   18.8060 H   0  0  0  0  0  0
  -29.3827  -25.2412   18.9520 H   0  0  0  0  0  0
  1 25  1  0  0  0
  1 30  2  0  0  0
  1 85  1  0  0  0
  2  3  1  0  0  0
  2 25  1  0  0  0
  2 86  1  0  0  0
  2 87  1  0  0  0
  3  4  1  0  0  0
  3 88  1  0  0  0
  3 89  1  0  0  0
  4  5  1  0  0  0
  4 90  1  0  0  0
  4 91  1  0  0  0
  5  6  1  0  0  0
  5 26  1  0  0  0
  5 92  1  0  0  0
  6 25  1  0  0  0
  6 93  1  0  0  0
  6 94  1  0  0  0
  7  8  2  0  0  0
  7 26  1  0  0  0
  7 29  1  0  0  0
  8  9  1  0  0  0
  8 22  1  0  0  0
  9 10  1  0  0  0
  9 27  2  0  0  0
 10 11  2  0  0  0
 10 15  1  0  0  0
 11 12  1  0  0  0
 11 95  1  0  0  0
 12 13  2  0  0  0
 12 96  1  0  0  0
 13 14  1  0  0  0
 13 31  1  0  0  0
 14 15  2  0  0  0
 14 97  1  0  0  0
 15 98  1  0  0  0
 16 17  2  0  0  0
 16 21  1  0  0  0
 16 31  1  0  0  0
 17 18  1  0  0  0
 17 99  1  0  0  0
 18 19  2  0  0  0
 18100  1  0  0  0
 19 20  1  0  0  0
 19 24  1  0  0  0
 20 21  2  0  0  0
 20101  1  0  0  0
 21 23  1  0  0  0
 22 28  1  0  0  0
 22 32  2  0  0  0
 26 27  1  0  0  0
 28102  1  0  0  0
 28103  1  0  0  0
 29104  1  0  0  0
 29105  1  0  0  0
 33 34  1  0  0  0
 33 66  1  0  0  0
 33 70  2  0  0  0
 34 36  1  0  0  0
 34 59  1  0  0  0
 34106  1  0  0  0
 35 44  2  0  0  0
 35 45  1  0  0  0
 35 68  1  0  0  0
 36 56  1  0  0  0
 36107  1  0  0  0
 37 39  1  0  0  0
 37 47  1  0  0  0
 37 66  1  0  0  0
 37108  1  0  0  0
 38 43  2  0  0  0
 38 46  1  0  0  0
 38 47  1  0  0  0
 39 64  1  0  0  0
 39 67  2  0  0  0
 40 52  1  0  0  0
 40 53  2  0  0  0
 40 58  1  0  0  0
 41109  1  0  0  0
 41110  1  0  0  0
 41111  1  0  0  0
 41 48  1  0  0  0
 42 43  1  0  0  0
 42 66  1  0  0  0
 42112  1  0  0  0
 42113  1  0  0  0
 43 44  1  0  0  0
 44114  1  0  0  0
 45 46  2  0  0  0
 45115  1  0  0  0
 46116  1  0  0  0
 47117  1  0  0  0
 47118  1  0  0  0
 48 56  1  0  0  0
 48 65  1  0  0  0
 48119  1  0  0  0
 49 50  1  0  0  0
 49 53  1  0  0  0
 49 64  1  0  0  0
 49120  1  0  0  0
 50 51  1  0  0  0
 50121  1  0  0  0
 50122  1  0  0  0
 51 52  1  0  0  0
 51123  1  0  0  0
 51124  1  0  0  0
 52125  1  0  0  0
 52126  1  0  0  0
 53 54  1  0  0  0
 54 55  2  0  0  0
 54127  1  0  0  0
 55 57  1  0  0  0
 55128  1  0  0  0
 56 69  2  0  0  0
 57 58  2  0  0  0
 57129  1  0  0  0
 58130  1  0  0  0
 59 60  1  0  0  0
 59 61  1  0  0  0
 59 62  1  0  0  0
 60131  1  0  0  0
 60132  1  0  0  0
 60133  1  0  0  0
 61134  1  0  0  0
 61135  1  0  0  0
 61136  1  0  0  0
 62137  1  0  0  0
 62138  1  0  0  0
 62139  1  0  0  0
 63 65  1  0  0  0
 63140  1  0  0  0
 63141  1  0  0  0
 63142  1  0  0  0
 64143  1  0  0  0
 65144  1  0  0  0
 68 82  1  0  0  0
 71 72  2  0  0  0
 71 83  1  0  0  0
 71145  1  0  0  0
 72 73  1  0  0  0
 72 77  1  0  0  0
 73 78  1  0  0  0
 73 84  2  0  0  0
 74 79  1  0  0  0
 74 83  2  0  0  0
 74 84  1  0  0  0
 75 78  1  0  0  0
 75146  1  0  0  0
 75147  1  0  0  0
 75148  1  0  0  0
 76 81  1  0  0  0
 76149  1  0  0  0
 76150  1  0  0  0
 76151  1  0  0  0
 77 80  1  0  0  0
 77152  1  0  0  0
 77153  1  0  0  0
 78154  1  0  0  0
 78155  1  0  0  0
 79 85  1  0  0  0
 79156  1  0  0  0
 79157  1  0  0  0
 80 82  1  0  0  0
 80158  1  0  0  0
 80159  1  0  0  0
 81 85  1  0  0  0
 81160  1  0  0  0
 81161  1  0  0  0
 82162  1  0  0  0
 82163  1  0  0  0
M  ISO  4   1 100  68 101  82 101  85 100
M  END
> <chiral flag>
0

> <version>
0

> <s_m_source_file>
/data/baiqing/PycharmProjects/Reinvent-master-3.2/result/LINK_invent/BTK/process_docking_weight1_custom_sum_contain_oxygen_bond_distance_aromatic_linkinvent_7_9_3/rearranged_h_0060.sdf

> <i_m_source_file_index>
89

> <r_mmod_Potential_Energy-OPLS-2005>
-236.896713256836

> <r_mmod_Stretch_Energy-OPLS-2005>
82.3628158569336

> <r_mmod_Bend_Energy-OPLS-2005>
173.024963378906

> <r_mmod_Torsional_Energy-OPLS-2005>
282.409942626953

> <r_mmod_Improper_Torsional_Energy-OPLS-2005>
8.78205490112305

> <r_mmod_Van_der_Waal_Energy-OPLS-2005>
142.837707519531

> <r_mmod_Electrostatic_Energy-OPLS-2005>
-763.172302246094

> <r_mmod_Solvation_Energy-OPLS-2005>
-210.807312011719

> <b_mmod_Minimization_Converged-OPLS-2005>
0

> <r_mmod_RMS_Derivative-OPLS-2005>
3.20388197898865

$$$$
93
                    3D
 Structure written by MMmdl.
150158  0  0  1  0            999 V2000
  -30.3595  -15.3076   20.3173 C   0  0  0  0  0  0
  -30.4522  -12.8188   19.5383 C   0  0  0  0  0  0
  -29.5530  -12.5880   18.2931 C   0  0  0  0  0  0
  -28.0886  -12.3202   18.6951 C   0  0  0  0  0  0
  -27.6122  -13.2675   19.8234 C   0  0  2  0  0  0
  -28.6458  -13.4402   20.9543 C   0  0  0  0  0  0
  -25.2416  -13.8205   20.5758 C   0  0  0  0  0  0
  -24.1756  -13.0410   20.9240 C   0  0  0  0  0  0
  -24.6405  -11.6900   20.8741 C   0  0  0  0  0  0
  -23.9093  -10.4280   21.0400 C   0  0  0  0  0  0
  -24.3648   -9.4192   21.9177 C   0  0  0  0  0  0
  -23.6315   -8.2235   22.0752 C   0  0  0  0  0  0
  -22.4288   -8.0290   21.3552 C   0  0  0  0  0  0
  -21.9923   -9.0266   20.4650 C   0  0  0  0  0  0
  -22.7257  -10.2136   20.3053 C   0  0  0  0  0  0
  -21.6858   -6.0741   22.5280 C   0  0  0  0  0  0
  -21.4013   -6.5639   23.8218 C   0  0  0  0  0  0
  -21.3658   -5.6784   24.9174 C   0  0  0  0  0  0
  -21.6046   -4.3050   24.7221 C   0  0  0  0  0  0
  -21.8825   -3.8147   23.4346 C   0  0  0  0  0  0
  -21.9194   -4.6967   22.3399 C   0  0  0  0  0  0
  -22.7777  -13.5174   21.1891 C   0  0  0  0  0  0
  -22.1667   -4.2150   21.0975 F   0  0  0  0  0  0
  -21.5632   -3.4540   25.7733 F   0  0  0  0  0  0
  -29.8855  -13.9581   20.3491 N   0  0  0  0  0  0
  -26.2833  -12.9450   20.3213 N   0  0  0  0  0  0
  -25.9341  -11.6572   20.5703 N   0  0  0  0  0  0
  -22.0439  -12.8189   22.0456 N   0  0  0  0  0  0
  -25.4060  -15.1946   20.4247 N   0  0  0  0  0  0
  -31.5873  -15.3523   20.1353 O   0  0  0  0  0  0
  -21.6646   -6.8890   21.4243 O   0  0  0  0  0  0
  -22.3465  -14.5475   20.6714 O   0  0  0  0  0  0
  -24.6652  -31.8201   23.1679 C   0  0  0  0  0  0
  -25.9322  -32.4560   23.8167 C   0  0  1  0  0  0
  -27.2184  -26.8984   20.1853 C   0  0  0  0  0  0
  -25.5981  -33.8381   24.2053 N   0  0  0  0  0  0
  -23.4807  -30.4293   21.5168 C   0  0  2  0  0  0
  -24.9324  -28.8082   20.1073 C   0  0  0  0  0  0
  -22.7678  -29.4422   22.4778 C   0  0  0  0  0  0
  -18.0330  -28.1415   22.8459 C   0  0  0  0  0  0
  -24.1490  -36.7194   23.2653 C   0  0  0  0  0  0
  -26.0499  -30.6112   21.4066 C   0  0  0  0  0  0
  -26.1130  -29.1998   20.7489 C   0  0  0  0  0  0
  -27.2439  -28.2639   20.7674 C   0  0  0  0  0  0
  -26.0129  -26.6659   19.4841 C   0  0  0  0  0  0
  -24.9085  -27.5628   19.4557 C   0  0  0  0  0  0
  -23.7204  -29.7420   20.1431 C   0  0  0  0  0  0
  -25.4137  -36.2952   24.0295 C   0  0  1  0  0  0
  -20.5949  -28.3764   23.1180 C   0  0  2  0  0  0
  -20.6805  -26.9444   22.5408 C   0  0  0  0  0  0
  -19.5781  -26.6367   21.5221 C   0  0  0  0  0  0
  -18.1963  -26.7942   22.1622 C   0  0  0  0  0  0
  -19.1590  -28.8910   23.2800 C   0  0  0  0  0  0
  -18.9498  -30.1500   23.8833 C   0  0  0  0  0  0
  -17.6491  -30.6601   24.0550 C   0  0  0  0  0  0
  -25.9105  -34.9338   23.5001 C   0  0  0  0  0  0
  -16.5381  -29.9086   23.6347 C   0  0  0  0  0  0
  -16.7310  -28.6509   23.0363 C   0  0  0  0  0  0
  -26.4554  -31.6535   25.0727 C   0  0  0  0  0  0
  -25.3672  -31.3806   26.1376 C   0  0  0  0  0  0
  -27.0457  -30.2891   24.6514 C   0  0  0  0  0  0
  -27.6027  -32.4371   25.7533 C   0  0  0  0  0  0
  -27.5566  -37.1763   24.8465 C   0  0  0  0  0  0
  -21.4349  -29.3039   22.3519 N   0  0  0  0  0  0
  -26.4278  -37.3691   23.9404 N   0  0  0  0  0  0
  -24.7532  -30.9828   22.0831 N   0  0  0  0  0  0
  -23.4209  -28.8024   23.3060 O   0  0  0  0  0  0
  -28.2307  -25.8001   20.3176 O   0  0  0  0  0  0
  -26.5721  -34.8880   22.4602 O   0  0  0  0  0  0
  -23.5719  -32.1192   23.6753 O   0  0  0  0  0  0
  -28.6018  -19.6030   20.6217 C   0  0  0  0  0  0
  -29.0736  -20.9572   20.3513 C   0  0  0  0  0  0
  -28.5999  -16.6309   18.8833 C   0  0  0  0  0  0
  -29.5557  -23.0100   21.8965 C   0  0  0  0  0  0
  -28.2417  -24.1802   19.9064 C   0  0  0  0  0  0
  -29.3611  -16.7785   20.2221 C   0  0  2  0  0  0
  -28.5932  -22.6183   20.7687 C   0  0  1  0  0  0
  -30.3493  -20.5433   19.8616 N   0  0  0  0  0  0
  -30.5691  -19.2021   19.8077 N   0  0  0  0  0  0
  -29.5293  -18.4643   20.3268 N   0  0  0  0  0  0
  -27.4248  -22.4922   21.4005 F   0  0  0  0  0  0
  -31.4733  -13.0315   19.2199 H   0  0  0  0  0  0
  -30.5157  -11.9085   20.1374 H   0  0  0  0  0  0
  -29.9346  -11.7574   17.6981 H   0  0  0  0  0  0
  -29.6000  -13.4676   17.6496 H   0  0  0  0  0  0
  -28.0143  -11.2839   19.0253 H   0  0  0  0  0  0
  -27.4380  -12.4115   17.8251 H   0  0  0  0  0  0
  -27.5073  -14.2327   19.3393 H   0  0  0  0  0  0
  -28.8170  -12.5046   21.4882 H   0  0  0  0  0  0
  -28.2782  -14.1521   21.6949 H   0  0  0  0  0  0
  -25.2802   -9.5666   22.4736 H   0  0  0  0  0  0
  -24.0024   -7.4623   22.7472 H   0  0  0  0  0  0
  -21.0849   -8.8801   19.8965 H   0  0  0  0  0  0
  -22.3727  -10.9688   19.6173 H   0  0  0  0  0  0
  -21.2000   -7.6150   23.9718 H   0  0  0  0  0  0
  -21.1479   -6.0517   25.9073 H   0  0  0  0  0  0
  -22.0603   -2.7613   23.2842 H   0  0  0  0  0  0
  -22.4080  -11.9871   22.4867 H   0  0  0  0  0  0
  -21.1065  -13.1226   22.2662 H   0  0  0  0  0  0
  -24.6363  -15.8440   20.5428 H   0  0  0  0  0  0
  -26.2558  -15.6418   20.1102 H   0  0  0  0  0  0
  -26.7405  -32.5065   23.0888 H   0  0  0  0  0  0
  -25.0076  -33.9459   25.0168 H   0  0  0  0  0  0
  -22.7959  -31.2622   21.3455 H   0  0  0  0  0  0
  -23.3754  -35.9521   23.3309 H   0  0  0  0  0  0
  -24.3554  -36.8850   22.2065 H   0  0  0  0  0  0
  -23.7245  -37.6382   23.6717 H   0  0  0  0  0  0
  -26.2432  -31.3502   20.6278 H   0  0  0  0  0  0
  -26.9049  -30.6602   22.0688 H   0  0  0  0  0  0
  -28.1308  -28.5554   21.3116 H   0  0  0  0  0  0
  -25.8823  -25.7177   18.9838 H   0  0  0  0  0  0
  -24.0116  -27.2590   18.9327 H   0  0  0  0  0  0
  -23.8807  -30.5096   19.3856 H   0  0  0  0  0  0
  -22.8273  -29.2018   19.8249 H   0  0  0  0  0  0
  -25.1339  -36.1748   25.0785 H   0  0  0  0  0  0
  -21.0029  -28.3386   24.1305 H   0  0  0  0  0  0
  -20.5687  -26.2400   23.3662 H   0  0  0  0  0  0
  -21.6674  -26.7419   22.1223 H   0  0  0  0  0  0
  -19.6947  -25.6256   21.1313 H   0  0  0  0  0  0
  -19.6723  -27.3128   20.6714 H   0  0  0  0  0  0
  -17.4236  -26.6681   21.4021 H   0  0  0  0  0  0
  -18.0351  -26.0099   22.9034 H   0  0  0  0  0  0
  -19.7974  -30.7334   24.2172 H   0  0  0  0  0  0
  -17.5043  -31.6276   24.5167 H   0  0  0  0  0  0
  -15.5380  -30.2968   23.7698 H   0  0  0  0  0  0
  -15.8714  -28.0802   22.7109 H   0  0  0  0  0  0
  -24.5845  -30.7165   25.7688 H   0  0  0  0  0  0
  -24.8869  -32.3015   26.4693 H   0  0  0  0  0  0
  -25.7883  -30.9039   27.0235 H   0  0  0  0  0  0
  -26.3138  -29.6557   24.1485 H   0  0  0  0  0  0
  -27.3914  -29.7273   25.5203 H   0  0  0  0  0  0
  -27.9116  -30.4049   23.9990 H   0  0  0  0  0  0
  -27.2563  -33.3698   26.1995 H   0  0  0  0  0  0
  -28.3891  -32.6899   25.0411 H   0  0  0  0  0  0
  -28.0645  -31.8596   26.5549 H   0  0  0  0  0  0
  -28.2575  -38.0065   24.7494 H   0  0  0  0  0  0
  -28.1073  -36.2592   24.6314 H   0  0  0  0  0  0
  -27.2290  -37.1432   25.8871 H   0  0  0  0  0  0
  -20.9626  -29.8691   21.6596 H   0  0  0  0  0  0
  -26.0123  -38.2755   24.1391 H   0  0  0  0  0  0
  -27.6317  -19.3503   21.0303 H   0  0  0  0  0  0
  -27.5244  -16.7291   19.0267 H   0  0  0  0  0  0
  -28.7868  -15.6884   18.3706 H   0  0  0  0  0  0
  -28.8957  -17.4032   18.1734 H   0  0  0  0  0  0
  -30.5744  -23.0996   21.5216 H   0  0  0  0  0  0
  -29.5563  -22.2598   22.6881 H   0  0  0  0  0  0
  -29.2786  -23.9635   22.3462 H   0  0  0  0  0  0
  -27.3084  -24.0088   19.3720 H   0  0  0  0  0  0
  -28.9873  -24.1799   19.1112 H   0  0  0  0  0  0
  -28.6425  -16.5613   21.0119 H   0  0  0  0  0  0
  1 25  1  0  0  0
  1 30  2  0  0  0
  1 76  1  0  0  0
  2  3  1  0  0  0
  2 25  1  0  0  0
  2 82  1  0  0  0
  2 83  1  0  0  0
  3  4  1  0  0  0
  3 84  1  0  0  0
  3 85  1  0  0  0
  4  5  1  0  0  0
  4 86  1  0  0  0
  4 87  1  0  0  0
  5  6  1  0  0  0
  5 26  1  0  0  0
  5 88  1  0  0  0
  6 25  1  0  0  0
  6 89  1  0  0  0
  6 90  1  0  0  0
  7  8  2  0  0  0
  7 26  1  0  0  0
  7 29  1  0  0  0
  8  9  1  0  0  0
  8 22  1  0  0  0
  9 10  1  0  0  0
  9 27  2  0  0  0
 10 11  2  0  0  0
 10 15  1  0  0  0
 11 12  1  0  0  0
 11 91  1  0  0  0
 12 13  2  0  0  0
 12 92  1  0  0  0
 13 14  1  0  0  0
 13 31  1  0  0  0
 14 15  2  0  0  0
 14 93  1  0  0  0
 15 94  1  0  0  0
 16 17  2  0  0  0
 16 21  1  0  0  0
 16 31  1  0  0  0
 17 18  1  0  0  0
 17 95  1  0  0  0
 18 19  2  0  0  0
 18 96  1  0  0  0
 19 20  1  0  0  0
 19 24  1  0  0  0
 20 21  2  0  0  0
 20 97  1  0  0  0
 21 23  1  0  0  0
 22 28  1  0  0  0
 22 32  2  0  0  0
 26 27  1  0  0  0
 28 98  1  0  0  0
 28 99  1  0  0  0
 29100  1  0  0  0
 29101  1  0  0  0
 33 34  1  0  0  0
 33 66  1  0  0  0
 33 70  2  0  0  0
 34 36  1  0  0  0
 34 59  1  0  0  0
 34102  1  0  0  0
 35 44  2  0  0  0
 35 45  1  0  0  0
 35 68  1  0  0  0
 36 56  1  0  0  0
 36103  1  0  0  0
 37 39  1  0  0  0
 37 47  1  0  0  0
 37 66  1  0  0  0
 37104  1  0  0  0
 38 43  2  0  0  0
 38 46  1  0  0  0
 38 47  1  0  0  0
 39 64  1  0  0  0
 39 67  2  0  0  0
 40 52  1  0  0  0
 40 53  2  0  0  0
 40 58  1  0  0  0
 41105  1  0  0  0
 41106  1  0  0  0
 41107  1  0  0  0
 41 48  1  0  0  0
 42 43  1  0  0  0
 42 66  1  0  0  0
 42108  1  0  0  0
 42109  1  0  0  0
 43 44  1  0  0  0
 44110  1  0  0  0
 45 46  2  0  0  0
 45111  1  0  0  0
 46112  1  0  0  0
 47113  1  0  0  0
 47114  1  0  0  0
 48 56  1  0  0  0
 48 65  1  0  0  0
 48115  1  0  0  0
 49 50  1  0  0  0
 49 53  1  0  0  0
 49 64  1  0  0  0
 49116  1  0  0  0
 50 51  1  0  0  0
 50117  1  0  0  0
 50118  1  0  0  0
 51 52  1  0  0  0
 51119  1  0  0  0
 51120  1  0  0  0
 52121  1  0  0  0
 52122  1  0  0  0
 53 54  1  0  0  0
 54 55  2  0  0  0
 54123  1  0  0  0
 55 57  1  0  0  0
 55124  1  0  0  0
 56 69  2  0  0  0
 57 58  2  0  0  0
 57125  1  0  0  0
 58126  1  0  0  0
 59 60  1  0  0  0
 59 61  1  0  0  0
 59 62  1  0  0  0
 60127  1  0  0  0
 60128  1  0  0  0
 60129  1  0  0  0
 61130  1  0  0  0
 61131  1  0  0  0
 61132  1  0  0  0
 62133  1  0  0  0
 62134  1  0  0  0
 62135  1  0  0  0
 63 65  1  0  0  0
 63136  1  0  0  0
 63137  1  0  0  0
 63138  1  0  0  0
 64139  1  0  0  0
 65140  1  0  0  0
 68 75  1  0  0  0
 71 72  2  0  0  0
 71 80  1  0  0  0
 71141  1  0  0  0
 72 77  1  0  0  0
 72 78  1  0  0  0
 73142  1  0  0  0
 73143  1  0  0  0
 73144  1  0  0  0
 73 76  1  0  0  0
 74145  1  0  0  0
 74146  1  0  0  0
 74147  1  0  0  0
 74 77  1  0  0  0
 75 77  1  0  0  0
 75148  1  0  0  0
 75149  1  0  0  0
 76 80  1  0  0  0
 76150  1  0  0  0
 77 81  1  0  0  0
 78 79  2  0  0  0
 79 80  1  0  0  0
M  ISO  4   1 100  68 101  75 101  76 100
M  END
> <chiral flag>
0

> <version>
0

> <s_m_source_file>
/data/baiqing/PycharmProjects/Reinvent-master-3.2/result/LINK_invent/BTK/process_docking_weight1_custom_sum_contain_oxygen_bond_distance_aromatic_linkinvent_7_9_3/rearranged_h_0060.sdf

> <i_m_source_file_index>
90

> <r_mmod_Potential_Energy-OPLS-2005>
1478.54577636719

> <r_mmod_Stretch_Energy-OPLS-2005>
633.688659667969

> <r_mmod_Bend_Energy-OPLS-2005>
512.451049804688

> <r_mmod_Torsional_Energy-OPLS-2005>
218.414321899414

> <r_mmod_Improper_Torsional_Energy-OPLS-2005>
8.96450042724609

> <r_mmod_Van_der_Waal_Energy-OPLS-2005>
102.755386352539

> <r_mmod_Electrostatic_Energy-OPLS-2005>
-286.34716796875

> <r_mmod_Solvation_Energy-OPLS-2005>
-217.666778564453

> <b_mmod_Minimization_Converged-OPLS-2005>
0

> <r_mmod_RMS_Derivative-OPLS-2005>
1.92880403995514

$$$$
94
                    3D
 Structure written by MMmdl.
145153  0  0  1  0            999 V2000
  -30.3950  -15.4210   20.3377 C   0  0  0  0  0  0
  -30.4267  -12.9080   19.5574 C   0  0  0  0  0  0
  -29.5438  -12.6083   18.3156 C   0  0  0  0  0  0
  -28.1032  -12.2935   18.7449 C   0  0  0  0  0  0
  -27.6008  -13.2932   19.8135 C   0  0  2  0  0  0
  -28.6175  -13.5498   20.9474 C   0  0  0  0  0  0
  -25.2357  -13.8284   20.5795 C   0  0  0  0  0  0
  -24.1720  -13.0444   20.9261 C   0  0  0  0  0  0
  -24.6399  -11.6946   20.8742 C   0  0  0  0  0  0
  -23.9103  -10.4294   21.0386 C   0  0  0  0  0  0
  -24.3647   -9.4207   21.9165 C   0  0  0  0  0  0
  -23.6310   -8.2246   22.0745 C   0  0  0  0  0  0
  -22.4291   -8.0281   21.3537 C   0  0  0  0  0  0
  -21.9932   -9.0257   20.4642 C   0  0  0  0  0  0
  -22.7273  -10.2129   20.3040 C   0  0  0  0  0  0
  -21.6861   -6.0741   22.5280 C   0  0  0  0  0  0
  -21.4019   -6.5647   23.8213 C   0  0  0  0  0  0
  -21.3659   -5.6800   24.9175 C   0  0  0  0  0  0
  -21.6041   -4.3062   24.7229 C   0  0  0  0  0  0
  -21.8817   -3.8150   23.4353 C   0  0  0  0  0  0
  -21.9196   -4.6966   22.3407 C   0  0  0  0  0  0
  -22.7738  -13.5176   21.1925 C   0  0  0  0  0  0
  -22.1662   -4.2151   21.0986 F   0  0  0  0  0  0
  -21.5626   -3.4548   25.7743 F   0  0  0  0  0  0
  -29.8462  -14.0845   20.3314 N   0  0  0  0  0  0
  -26.2774  -12.9585   20.3194 N   0  0  0  0  0  0
  -25.9341  -11.6669   20.5684 N   0  0  0  0  0  0
  -22.0427  -12.8130   22.0478 N   0  0  0  0  0  0
  -25.4022  -15.2029   20.4354 N   0  0  0  0  0  0
  -31.6128  -15.3572   20.0834 O   0  0  0  0  0  0
  -21.6644   -6.8885   21.4244 O   0  0  0  0  0  0
  -22.3403  -14.5481   20.6787 O   0  0  0  0  0  0
  -24.6708  -31.8132   23.1612 C   0  0  0  0  0  0
  -25.9345  -32.4537   23.8116 C   0  0  1  0  0  0
  -27.2248  -26.8278   20.2013 C   0  0  0  0  0  0
  -25.5970  -33.8356   24.2015 N   0  0  0  0  0  0
  -23.4916  -30.4185   21.5119 C   0  0  2  0  0  0
  -24.9497  -28.7861   20.1102 C   0  0  0  0  0  0
  -22.7708  -29.4384   22.4748 C   0  0  0  0  0  0
  -18.0329  -28.1404   22.8471 C   0  0  0  0  0  0
  -24.1489  -36.7187   23.2651 C   0  0  0  0  0  0
  -26.0651  -30.5869   21.4071 C   0  0  0  0  0  0
  -26.1325  -29.1650   20.7551 C   0  0  0  0  0  0
  -27.2579  -28.2081   20.7762 C   0  0  0  0  0  0
  -26.0157  -26.6293   19.4932 C   0  0  0  0  0  0
  -24.9231  -27.5420   19.4566 C   0  0  0  0  0  0
  -23.7385  -29.7247   20.1417 C   0  0  0  0  0  0
  -25.4133  -36.2936   24.0295 C   0  0  1  0  0  0
  -20.5964  -28.3759   23.1177 C   0  0  2  0  0  0
  -20.6808  -26.9432   22.5407 C   0  0  0  0  0  0
  -19.5772  -26.6367   21.5219 C   0  0  0  0  0  0
  -18.1957  -26.7935   22.1628 C   0  0  0  0  0  0
  -19.1595  -28.8905   23.2810 C   0  0  0  0  0  0
  -18.9501  -30.1490   23.8852 C   0  0  0  0  0  0
  -17.6490  -30.6591   24.0554 C   0  0  0  0  0  0
  -25.9102  -34.9321   23.4986 C   0  0  0  0  0  0
  -16.5381  -29.9074   23.6343 C   0  0  0  0  0  0
  -16.7313  -28.6498   23.0369 C   0  0  0  0  0  0
  -26.4563  -31.6523   25.0685 C   0  0  0  0  0  0
  -25.3660  -31.3807   26.1321 C   0  0  0  0  0  0
  -27.0488  -30.2883   24.6485 C   0  0  0  0  0  0
  -27.6030  -32.4361   25.7502 C   0  0  0  0  0  0
  -27.5562  -37.1750   24.8470 C   0  0  0  0  0  0
  -21.4364  -29.3041   22.3513 N   0  0  0  0  0  0
  -26.4273  -37.3681   23.9406 N   0  0  0  0  0  0
  -24.7645  -30.9697   22.0798 N   0  0  0  0  0  0
  -23.4210  -28.7961   23.3029 O   0  0  0  0  0  0
  -28.2059  -25.6740   20.3258 O   0  0  0  0  0  0
  -26.5736  -34.8881   22.4592 O   0  0  0  0  0  0
  -23.5754  -32.1149   23.6636 O   0  0  0  0  0  0
  -29.6831  -17.0017   20.4637 C   0  0  0  0  0  0
  -29.2246  -19.3927   20.3345 C   0  0  0  0  0  0
  -27.4134  -19.2963   22.0892 C   0  0  0  0  0  0
  -28.1012  -24.0125   19.9638 C   0  0  0  0  0  0
  -28.7033  -22.3430   20.5698 C   0  0  0  0  0  0
  -30.0184  -18.2972   19.8229 N   0  0  0  0  0  0
  -28.7289  -17.3365   21.3605 N   0  0  0  0  0  0
  -28.4632  -18.7400   21.2614 N   0  0  0  0  0  0
  -29.0394  -20.8364   19.8809 O   0  0  0  0  0  0
  -31.4460  -13.1036   19.2240 H   0  0  0  0  0  0
  -30.5028  -12.0258   20.1950 H   0  0  0  0  0  0
  -29.9563  -11.7762   17.7455 H   0  0  0  0  0  0
  -29.5483  -13.4719   17.6476 H   0  0  0  0  0  0
  -28.0971  -11.2846   19.1608 H   0  0  0  0  0  0
  -27.4351  -12.2747   17.8827 H   0  0  0  0  0  0
  -27.4914  -14.2364   19.2760 H   0  0  0  0  0  0
  -28.8065  -12.6472   21.5305 H   0  0  0  0  0  0
  -28.2182  -14.2895   21.6427 H   0  0  0  0  0  0
  -25.2789   -9.5687   22.4744 H   0  0  0  0  0  0
  -24.0024   -7.4644   22.7465 H   0  0  0  0  0  0
  -21.0864   -8.8779   19.8949 H   0  0  0  0  0  0
  -22.3724  -10.9668   19.6151 H   0  0  0  0  0  0
  -21.2008   -7.6155   23.9715 H   0  0  0  0  0  0
  -21.1482   -6.0532   25.9077 H   0  0  0  0  0  0
  -22.0592   -2.7613   23.2856 H   0  0  0  0  0  0
  -22.4099  -11.9795   22.4825 H   0  0  0  0  0  0
  -21.1027  -13.1085   22.2702 H   0  0  0  0  0  0
  -24.6453  -15.8587   20.5927 H   0  0  0  0  0  0
  -26.2775  -15.6554   20.2047 H   0  0  0  0  0  0
  -26.7421  -32.5052   23.0833 H   0  0  0  0  0  0
  -25.0048  -33.9418   25.0120 H   0  0  0  0  0  0
  -22.8102  -31.2526   21.3314 H   0  0  0  0  0  0
  -23.3759  -35.9509   23.3289 H   0  0  0  0  0  0
  -24.3561  -36.8860   22.2070 H   0  0  0  0  0  0
  -23.7244  -37.6364   23.6729 H   0  0  0  0  0  0
  -26.2519  -31.3201   20.6210 H   0  0  0  0  0  0
  -26.9223  -30.6516   22.0648 H   0  0  0  0  0  0
  -28.1460  -28.4968   21.3210 H   0  0  0  0  0  0
  -25.8731  -25.6818   18.9942 H   0  0  0  0  0  0
  -24.0287  -27.2453   18.9260 H   0  0  0  0  0  0
  -23.8993  -30.4893   19.3808 H   0  0  0  0  0  0
  -22.8472  -29.1814   19.8247 H   0  0  0  0  0  0
  -25.1331  -36.1719   25.0787 H   0  0  0  0  0  0
  -21.0052  -28.3369   24.1299 H   0  0  0  0  0  0
  -20.5674  -26.2386   23.3659 H   0  0  0  0  0  0
  -21.6668  -26.7386   22.1221 H   0  0  0  0  0  0
  -19.6926  -25.6258   21.1286 H   0  0  0  0  0  0
  -19.6706  -27.3150   20.6727 H   0  0  0  0  0  0
  -17.4219  -26.6686   21.4029 H   0  0  0  0  0  0
  -18.0348  -26.0087   22.9038 H   0  0  0  0  0  0
  -19.7974  -30.7318   24.2206 H   0  0  0  0  0  0
  -17.5034  -31.6269   24.5158 H   0  0  0  0  0  0
  -15.5376  -30.2957   23.7684 H   0  0  0  0  0  0
  -15.8716  -28.0790   22.7118 H   0  0  0  0  0  0
  -24.5860  -30.7139   25.7625 H   0  0  0  0  0  0
  -24.8828  -32.3022   26.4579 H   0  0  0  0  0  0
  -25.7859  -30.9080   27.0208 H   0  0  0  0  0  0
  -26.3185  -29.6527   24.1468 H   0  0  0  0  0  0
  -27.3976  -29.7279   25.5169 H   0  0  0  0  0  0
  -27.9133  -30.4060   23.9952 H   0  0  0  0  0  0
  -27.2571  -33.3701   26.1946 H   0  0  0  0  0  0
  -28.3912  -32.6869   25.0389 H   0  0  0  0  0  0
  -28.0626  -31.8584   26.5533 H   0  0  0  0  0  0
  -28.2564  -38.0056   24.7492 H   0  0  0  0  0  0
  -28.1068  -36.2579   24.6322 H   0  0  0  0  0  0
  -27.2278  -37.1423   25.8874 H   0  0  0  0  0  0
  -20.9626  -29.8731   21.6632 H   0  0  0  0  0  0
  -26.0112  -38.2735   24.1405 H   0  0  0  0  0  0
  -26.7815  -18.5037   22.4907 H   0  0  0  0  0  0
  -26.7928  -19.9678   21.4963 H   0  0  0  0  0  0
  -27.8534  -19.8544   22.9148 H   0  0  0  0  0  0
  -27.0319  -23.8564   19.8281 H   0  0  0  0  0  0
  -28.4826  -24.0250   18.9435 H   0  0  0  0  0  0
  -28.0752  -22.1130   21.4293 H   0  0  0  0  0  0
  -29.6675  -22.5796   21.0209 H   0  0  0  0  0  0
  1 25  1  0  0  0
  1 30  2  0  0  0
  1 71  1  0  0  0
  2  3  1  0  0  0
  2 25  1  0  0  0
  2 80  1  0  0  0
  2 81  1  0  0  0
  3  4  1  0  0  0
  3 82  1  0  0  0
  3 83  1  0  0  0
  4  5  1  0  0  0
  4 84  1  0  0  0
  4 85  1  0  0  0
  5  6  1  0  0  0
  5 26  1  0  0  0
  5 86  1  0  0  0
  6 25  1  0  0  0
  6 87  1  0  0  0
  6 88  1  0  0  0
  7  8  2  0  0  0
  7 26  1  0  0  0
  7 29  1  0  0  0
  8  9  1  0  0  0
  8 22  1  0  0  0
  9 10  1  0  0  0
  9 27  2  0  0  0
 10 11  2  0  0  0
 10 15  1  0  0  0
 11 12  1  0  0  0
 11 89  1  0  0  0
 12 13  2  0  0  0
 12 90  1  0  0  0
 13 14  1  0  0  0
 13 31  1  0  0  0
 14 15  2  0  0  0
 14 91  1  0  0  0
 15 92  1  0  0  0
 16 17  2  0  0  0
 16 21  1  0  0  0
 16 31  1  0  0  0
 17 18  1  0  0  0
 17 93  1  0  0  0
 18 19  2  0  0  0
 18 94  1  0  0  0
 19 20  1  0  0  0
 19 24  1  0  0  0
 20 21  2  0  0  0
 20 95  1  0  0  0
 21 23  1  0  0  0
 22 28  1  0  0  0
 22 32  2  0  0  0
 26 27  1  0  0  0
 28 96  1  0  0  0
 28 97  1  0  0  0
 29 98  1  0  0  0
 29 99  1  0  0  0
 33 34  1  0  0  0
 33 66  1  0  0  0
 33 70  2  0  0  0
 34 36  1  0  0  0
 34 59  1  0  0  0
 34100  1  0  0  0
 35 44  2  0  0  0
 35 45  1  0  0  0
 35 68  1  0  0  0
 36 56  1  0  0  0
 36101  1  0  0  0
 37 39  1  0  0  0
 37 47  1  0  0  0
 37 66  1  0  0  0
 37102  1  0  0  0
 38 43  2  0  0  0
 38 46  1  0  0  0
 38 47  1  0  0  0
 39 64  1  0  0  0
 39 67  2  0  0  0
 40 52  1  0  0  0
 40 53  2  0  0  0
 40 58  1  0  0  0
 41103  1  0  0  0
 41104  1  0  0  0
 41105  1  0  0  0
 41 48  1  0  0  0
 42 43  1  0  0  0
 42 66  1  0  0  0
 42106  1  0  0  0
 42107  1  0  0  0
 43 44  1  0  0  0
 44108  1  0  0  0
 45 46  2  0  0  0
 45109  1  0  0  0
 46110  1  0  0  0
 47111  1  0  0  0
 47112  1  0  0  0
 48 56  1  0  0  0
 48 65  1  0  0  0
 48113  1  0  0  0
 49 50  1  0  0  0
 49 53  1  0  0  0
 49 64  1  0  0  0
 49114  1  0  0  0
 50 51  1  0  0  0
 50115  1  0  0  0
 50116  1  0  0  0
 51 52  1  0  0  0
 51117  1  0  0  0
 51118  1  0  0  0
 52119  1  0  0  0
 52120  1  0  0  0
 53 54  1  0  0  0
 54 55  2  0  0  0
 54121  1  0  0  0
 55 57  1  0  0  0
 55122  1  0  0  0
 56 69  2  0  0  0
 57 58  2  0  0  0
 57123  1  0  0  0
 58124  1  0  0  0
 59 60  1  0  0  0
 59 61  1  0  0  0
 59 62  1  0  0  0
 60125  1  0  0  0
 60126  1  0  0  0
 60127  1  0  0  0
 61128  1  0  0  0
 61129  1  0  0  0
 61130  1  0  0  0
 62131  1  0  0  0
 62132  1  0  0  0
 62133  1  0  0  0
 63 65  1  0  0  0
 63134  1  0  0  0
 63135  1  0  0  0
 63136  1  0  0  0
 64137  1  0  0  0
 65138  1  0  0  0
 68 74  1  0  0  0
 71 76  1  0  0  0
 71 77  2  0  0  0
 72 76  2  0  0  0
 72 78  1  0  0  0
 72 79  1  0  0  0
 73 78  1  0  0  0
 73139  1  0  0  0
 73140  1  0  0  0
 73141  1  0  0  0
 74 75  1  0  0  0
 74142  1  0  0  0
 74143  1  0  0  0
 75 79  1  0  0  0
 75144  1  0  0  0
 75145  1  0  0  0
 77 78  1  0  0  0
M  ISO  4   1 100  68 101  71 100  74 101
M  END
> <chiral flag>
0

> <version>
0

> <s_m_source_file>
/data/baiqing/PycharmProjects/Reinvent-master-3.2/result/LINK_invent/BTK/process_docking_weight1_custom_sum_contain_oxygen_bond_distance_aromatic_linkinvent_7_9_3/rearranged_h_0060.sdf

> <i_m_source_file_index>
91

> <r_mmod_Potential_Energy-OPLS-2005>
1805.62048339844

> <r_mmod_Stretch_Energy-OPLS-2005>
749.827819824219

> <r_mmod_Bend_Energy-OPLS-2005>
557.910095214844

> <r_mmod_Torsional_Energy-OPLS-2005>
211.064010620117

> <r_mmod_Improper_Torsional_Energy-OPLS-2005>
4.77832412719727

> <r_mmod_Van_der_Waal_Energy-OPLS-2005>
104.340171813965

> <r_mmod_Electrostatic_Energy-OPLS-2005>
-231.67138671875

> <r_mmod_Solvation_Energy-OPLS-2005>
-217.216003417969

> <b_mmod_Minimization_Converged-OPLS-2005>
0

> <r_mmod_RMS_Derivative-OPLS-2005>
1.52968156337738

$$$$
95
                    3D
 Structure written by MMmdl.
155163  0  0  1  0            999 V2000
  -30.6387  -14.7160   20.5546 C   0  0  0  0  0  0
  -30.4377  -12.4625   19.4704 C   0  0  0  0  0  0
  -29.5121  -12.5327   18.2342 C   0  0  0  0  0  0
  -28.0352  -12.3572   18.6368 C   0  0  0  0  0  0
  -27.6490  -13.2276   19.8606 C   0  0  2  0  0  0
  -28.6881  -13.0848   20.9885 C   0  0  0  0  0  0
  -25.2545  -13.8197   20.5689 C   0  0  0  0  0  0
  -24.1815  -13.0438   20.9157 C   0  0  0  0  0  0
  -24.6404  -11.6915   20.8711 C   0  0  0  0  0  0
  -23.9077  -10.4289   21.0389 C   0  0  0  0  0  0
  -24.3630   -9.4209   21.9171 C   0  0  0  0  0  0
  -23.6307   -8.2244   22.0753 C   0  0  0  0  0  0
  -22.4284   -8.0279   21.3551 C   0  0  0  0  0  0
  -21.9925   -9.0247   20.4649 C   0  0  0  0  0  0
  -22.7247  -10.2127   20.3053 C   0  0  0  0  0  0
  -21.6860   -6.0733   22.5279 C   0  0  0  0  0  0
  -21.4010   -6.5637   23.8206 C   0  0  0  0  0  0
  -21.3662   -5.6789   24.9170 C   0  0  0  0  0  0
  -21.6057   -4.3055   24.7221 C   0  0  0  0  0  0
  -21.8820   -3.8146   23.4340 C   0  0  0  0  0  0
  -21.9195   -4.6961   22.3399 C   0  0  0  0  0  0
  -22.7842  -13.5219   21.1837 C   0  0  0  0  0  0
  -22.1662   -4.2150   21.0974 F   0  0  0  0  0  0
  -21.5638   -3.4538   25.7729 F   0  0  0  0  0  0
  -29.9942  -13.4947   20.4428 N   0  0  0  0  0  0
  -26.2969  -12.9390   20.3293 N   0  0  0  0  0  0
  -25.9333  -11.6532   20.5721 N   0  0  0  0  0  0
  -22.0514  -12.8201   22.0411 N   0  0  0  0  0  0
  -25.4285  -15.1922   20.4186 N   0  0  0  0  0  0
  -31.7653  -14.8406   20.0606 O   0  0  0  0  0  0
  -21.6652   -6.8876   21.4243 O   0  0  0  0  0  0
  -22.3516  -14.5529   20.6703 O   0  0  0  0  0  0
  -24.6308  -31.8568   23.1980 C   0  0  0  0  0  0
  -25.9126  -32.4769   23.8331 C   0  0  1  0  0  0
  -27.2222  -27.2700   20.1232 C   0  0  0  0  0  0
  -25.5921  -33.8573   24.2251 N   0  0  0  0  0  0
  -23.4273  -30.4796   21.5431 C   0  0  2  0  0  0
  -24.8758  -28.9321   20.1098 C   0  0  0  0  0  0
  -22.7500  -29.4610   22.4921 C   0  0  0  0  0  0
  -18.0283  -28.1391   22.8483 C   0  0  0  0  0  0
  -24.1488  -36.7285   23.2641 C   0  0  0  0  0  0
  -25.9751  -30.7723   21.3778 C   0  0  0  0  0  0
  -26.0487  -29.3975   20.7171 C   0  0  0  0  0  0
  -27.2254  -28.5804   20.7115 C   0  0  0  0  0  0
  -26.0231  -26.8763   19.4836 C   0  0  0  0  0  0
  -24.8685  -27.6796   19.4825 C   0  0  0  0  0  0
  -23.6447  -29.8151   20.1593 C   0  0  0  0  0  0
  -25.4119  -36.3086   24.0328 C   0  0  1  0  0  0
  -20.5890  -28.3700   23.1281 C   0  0  2  0  0  0
  -20.6776  -26.9418   22.5419 C   0  0  0  0  0  0
  -19.5754  -26.6385   21.5222 C   0  0  0  0  0  0
  -18.1929  -26.7930   22.1626 C   0  0  0  0  0  0
  -19.1542  -28.8861   23.2871 C   0  0  0  0  0  0
  -18.9460  -30.1458   23.8900 C   0  0  0  0  0  0
  -17.6468  -30.6594   24.0562 C   0  0  0  0  0  0
  -25.9067  -34.9455   23.5098 C   0  0  0  0  0  0
  -16.5354  -29.9093   23.6340 C   0  0  0  0  0  0
  -16.7273  -28.6508   23.0360 C   0  0  0  0  0  0
  -26.4491  -31.6600   25.0722 C   0  0  0  0  0  0
  -25.3686  -31.3761   26.1419 C   0  0  0  0  0  0
  -27.0333  -30.3017   24.6205 C   0  0  0  0  0  0
  -27.6046  -32.4347   25.7484 C   0  0  0  0  0  0
  -27.5584  -37.1788   24.8462 C   0  0  0  0  0  0
  -21.4209  -29.3041   22.3662 N   0  0  0  0  0  0
  -26.4294  -37.3785   23.9414 N   0  0  0  0  0  0
  -24.6970  -31.0528   22.0963 N   0  0  0  0  0  0
  -23.4203  -28.8146   23.3011 O   0  0  0  0  0  0
  -28.3153  -26.3709   20.1917 O   0  0  0  0  0  0
  -26.5646  -34.8927   22.4672 O   0  0  0  0  0  0
  -23.5455  -32.1402   23.7267 O   0  0  0  0  0  0
  -26.9438  -18.4160   19.6487 C   0  0  0  0  0  0
  -28.9363  -18.1253   20.2322 C   0  0  0  0  0  0
  -29.4070  -15.8461   22.3721 C   0  0  0  0  0  0
  -30.2142  -17.2919   20.5499 C   0  0  0  0  0  0
  -28.5559  -22.1954   20.1512 C   0  0  0  0  0  0
  -29.0759  -23.7135   20.3816 C   0  0  0  0  0  0
  -29.3971  -20.8303   20.4761 C   0  0  0  0  0  0
  -28.0424  -24.9034   20.0158 C   0  0  0  0  0  0
  -27.8528  -17.4316   19.8709 N   0  0  0  0  0  0
  -27.3840  -19.6517   19.8340 N   0  0  0  0  0  0
  -28.6850  -19.5067   20.2078 N   0  0  0  0  0  0
  -29.9557  -15.8461   21.0075 N   0  0  0  0  0  0
  -31.4767  -12.5924   19.1646 H   0  0  0  0  0  0
  -30.3953  -11.4714   19.9233 H   0  0  0  0  0  0
  -29.7943  -11.7692   17.5081 H   0  0  0  0  0  0
  -29.6409  -13.4933   17.7330 H   0  0  0  0  0  0
  -27.8799  -11.3034   18.8690 H   0  0  0  0  0  0
  -27.3839  -12.5821   17.7915 H   0  0  0  0  0  0
  -27.6639  -14.2660   19.5262 H   0  0  0  0  0  0
  -28.7309  -12.0510   21.3345 H   0  0  0  0  0  0
  -28.3708  -13.6482   21.8576 H   0  0  0  0  0  0
  -25.2773   -9.5690   22.4742 H   0  0  0  0  0  0
  -24.0022   -7.4638   22.7473 H   0  0  0  0  0  0
  -21.0864   -8.8758   19.8950 H   0  0  0  0  0  0
  -22.3699  -10.9665   19.6166 H   0  0  0  0  0  0
  -21.1992   -7.6143   23.9709 H   0  0  0  0  0  0
  -21.1491   -6.0520   25.9073 H   0  0  0  0  0  0
  -22.0603   -2.7611   23.2836 H   0  0  0  0  0  0
  -22.4140  -11.9856   22.4779 H   0  0  0  0  0  0
  -21.1142  -13.1229   22.2639 H   0  0  0  0  0  0
  -24.6698  -15.8506   20.5513 H   0  0  0  0  0  0
  -26.3093  -15.6402   20.1826 H   0  0  0  0  0  0
  -26.7182  -32.5416   23.1064 H   0  0  0  0  0  0
  -25.0030  -33.9721   25.0367 H   0  0  0  0  0  0
  -22.7235  -31.3018   21.3957 H   0  0  0  0  0  0
  -23.3772  -35.9594   23.3309 H   0  0  0  0  0  0
  -24.3575  -36.8916   22.2054 H   0  0  0  0  0  0
  -23.7217  -37.6475   23.6667 H   0  0  0  0  0  0
  -26.1136  -31.5342   20.6090 H   0  0  0  0  0  0
  -26.8529  -30.8208   22.0106 H   0  0  0  0  0  0
  -28.1225  -28.9315   21.2017 H   0  0  0  0  0  0
  -25.9376  -25.9203   18.9893 H   0  0  0  0  0  0
  -23.9711  -27.3173   19.0010 H   0  0  0  0  0  0
  -23.7642  -30.5923   19.4040 H   0  0  0  0  0  0
  -22.7648  -29.2441   19.8562 H   0  0  0  0  0  0
  -25.1293  -36.1947   25.0819 H   0  0  0  0  0  0
  -20.9965  -28.3272   24.1407 H   0  0  0  0  0  0
  -20.5696  -26.2292   23.3612 H   0  0  0  0  0  0
  -21.6636  -26.7451   22.1193 H   0  0  0  0  0  0
  -19.6925  -25.6297   21.1248 H   0  0  0  0  0  0
  -19.6709  -27.3193   20.6755 H   0  0  0  0  0  0
  -17.4197  -26.6681   21.4027 H   0  0  0  0  0  0
  -18.0325  -26.0075   22.9027 H   0  0  0  0  0  0
  -19.7939  -30.7258   24.2279 H   0  0  0  0  0  0
  -17.5025  -31.6278   24.5147 H   0  0  0  0  0  0
  -15.5357  -30.2993   23.7673 H   0  0  0  0  0  0
  -15.8665  -28.0830   22.7090 H   0  0  0  0  0  0
  -24.5848  -30.7142   25.7718 H   0  0  0  0  0  0
  -24.8878  -32.2932   26.4828 H   0  0  0  0  0  0
  -25.7950  -30.8921   27.0210 H   0  0  0  0  0  0
  -26.2920  -29.6765   24.1206 H   0  0  0  0  0  0
  -27.4003  -29.7282   25.4729 H   0  0  0  0  0  0
  -27.8803  -30.4306   23.9462 H   0  0  0  0  0  0
  -27.2665  -33.3661   26.2036 H   0  0  0  0  0  0
  -28.3845  -32.6894   25.0297 H   0  0  0  0  0  0
  -28.0712  -31.8487   26.5410 H   0  0  0  0  0  0
  -28.2586  -38.0102   24.7536 H   0  0  0  0  0  0
  -28.1102  -36.2632   24.6258 H   0  0  0  0  0  0
  -27.2301  -37.1396   25.8865 H   0  0  0  0  0  0
  -20.9392  -29.8760   21.6865 H   0  0  0  0  0  0
  -26.0190  -38.2864   24.1431 H   0  0  0  0  0  0
  -25.9274  -18.2180   19.3380 H   0  0  0  0  0  0
  -29.6993  -16.7347   22.9322 H   0  0  0  0  0  0
  -29.7527  -14.9948   22.9620 H   0  0  0  0  0  0
  -28.3168  -15.8297   22.3405 H   0  0  0  0  0  0
  -30.8093  -17.8245   21.2921 H   0  0  0  0  0  0
  -30.8221  -17.2767   19.6450 H   0  0  0  0  0  0
  -28.2642  -22.1355   19.1020 H   0  0  0  0  0  0
  -27.6204  -22.1250   20.7069 H   0  0  0  0  0  0
  -29.9861  -23.8602   19.7996 H   0  0  0  0  0  0
  -29.3721  -23.8269   21.4245 H   0  0  0  0  0  0
  -29.6888  -20.8322   21.5269 H   0  0  0  0  0  0
  -30.3267  -20.8279   19.9073 H   0  0  0  0  0  0
  -27.1340  -24.6805   20.5777 H   0  0  0  0  0  0
  -27.7869  -24.7611   18.9651 H   0  0  0  0  0  0
  1 25  1  0  0  0
  1 30  2  0  0  0
  1 82  1  0  0  0
  2  3  1  0  0  0
  2 25  1  0  0  0
  2 83  1  0  0  0
  2 84  1  0  0  0
  3  4  1  0  0  0
  3 85  1  0  0  0
  3 86  1  0  0  0
  4  5  1  0  0  0
  4 87  1  0  0  0
  4 88  1  0  0  0
  5  6  1  0  0  0
  5 26  1  0  0  0
  5 89  1  0  0  0
  6 25  1  0  0  0
  6 90  1  0  0  0
  6 91  1  0  0  0
  7  8  2  0  0  0
  7 26  1  0  0  0
  7 29  1  0  0  0
  8  9  1  0  0  0
  8 22  1  0  0  0
  9 10  1  0  0  0
  9 27  2  0  0  0
 10 11  2  0  0  0
 10 15  1  0  0  0
 11 12  1  0  0  0
 11 92  1  0  0  0
 12 13  2  0  0  0
 12 93  1  0  0  0
 13 14  1  0  0  0
 13 31  1  0  0  0
 14 15  2  0  0  0
 14 94  1  0  0  0
 15 95  1  0  0  0
 16 17  2  0  0  0
 16 21  1  0  0  0
 16 31  1  0  0  0
 17 18  1  0  0  0
 17 96  1  0  0  0
 18 19  2  0  0  0
 18 97  1  0  0  0
 19 20  1  0  0  0
 19 24  1  0  0  0
 20 21  2  0  0  0
 20 98  1  0  0  0
 21 23  1  0  0  0
 22 28  1  0  0  0
 22 32  2  0  0  0
 26 27  1  0  0  0
 28 99  1  0  0  0
 28100  1  0  0  0
 29101  1  0  0  0
 29102  1  0  0  0
 33 34  1  0  0  0
 33 66  1  0  0  0
 33 70  2  0  0  0
 34 36  1  0  0  0
 34 59  1  0  0  0
 34103  1  0  0  0
 35 44  2  0  0  0
 35 45  1  0  0  0
 35 68  1  0  0  0
 36 56  1  0  0  0
 36104  1  0  0  0
 37 39  1  0  0  0
 37 47  1  0  0  0
 37 66  1  0  0  0
 37105  1  0  0  0
 38 43  2  0  0  0
 38 46  1  0  0  0
 38 47  1  0  0  0
 39 64  1  0  0  0
 39 67  2  0  0  0
 40 52  1  0  0  0
 40 53  2  0  0  0
 40 58  1  0  0  0
 41106  1  0  0  0
 41107  1  0  0  0
 41108  1  0  0  0
 41 48  1  0  0  0
 42 43  1  0  0  0
 42 66  1  0  0  0
 42109  1  0  0  0
 42110  1  0  0  0
 43 44  1  0  0  0
 44111  1  0  0  0
 45 46  2  0  0  0
 45112  1  0  0  0
 46113  1  0  0  0
 47114  1  0  0  0
 47115  1  0  0  0
 48 56  1  0  0  0
 48 65  1  0  0  0
 48116  1  0  0  0
 49 50  1  0  0  0
 49 53  1  0  0  0
 49 64  1  0  0  0
 49117  1  0  0  0
 50 51  1  0  0  0
 50118  1  0  0  0
 50119  1  0  0  0
 51 52  1  0  0  0
 51120  1  0  0  0
 51121  1  0  0  0
 52122  1  0  0  0
 52123  1  0  0  0
 53 54  1  0  0  0
 54 55  2  0  0  0
 54124  1  0  0  0
 55 57  1  0  0  0
 55125  1  0  0  0
 56 69  2  0  0  0
 57 58  2  0  0  0
 57126  1  0  0  0
 58127  1  0  0  0
 59 60  1  0  0  0
 59 61  1  0  0  0
 59 62  1  0  0  0
 60128  1  0  0  0
 60129  1  0  0  0
 60130  1  0  0  0
 61131  1  0  0  0
 61132  1  0  0  0
 61133  1  0  0  0
 62134  1  0  0  0
 62135  1  0  0  0
 62136  1  0  0  0
 63 65  1  0  0  0
 63137  1  0  0  0
 63138  1  0  0  0
 63139  1  0  0  0
 64140  1  0  0  0
 65141  1  0  0  0
 68 78  1  0  0  0
 71 79  1  0  0  0
 71 80  2  0  0  0
 71142  1  0  0  0
 72 74  1  0  0  0
 72 79  2  0  0  0
 72 81  1  0  0  0
 73 82  1  0  0  0
 73143  1  0  0  0
 73144  1  0  0  0
 73145  1  0  0  0
 74 82  1  0  0  0
 74146  1  0  0  0
 74147  1  0  0  0
 75 76  1  0  0  0
 75 77  1  0  0  0
 75148  1  0  0  0
 75149  1  0  0  0
 76 78  1  0  0  0
 76150  1  0  0  0
 76151  1  0  0  0
 77 81  1  0  0  0
 77152  1  0  0  0
 77153  1  0  0  0
 78154  1  0  0  0
 78155  1  0  0  0
 80 81  1  0  0  0
M  ISO  4   1 100  68 101  78 101  82 100
M  END
> <chiral flag>
0

> <version>
0

> <s_m_source_file>
/data/baiqing/PycharmProjects/Reinvent-master-3.2/result/LINK_invent/BTK/process_docking_weight1_custom_sum_contain_oxygen_bond_distance_aromatic_linkinvent_7_9_3/rearranged_h_0060.sdf

> <i_m_source_file_index>
92

> <r_mmod_Potential_Energy-OPLS-2005>
228.787094116211

> <r_mmod_Stretch_Energy-OPLS-2005>
131.096252441406

> <r_mmod_Bend_Energy-OPLS-2005>
196.559524536133

> <r_mmod_Torsional_Energy-OPLS-2005>
252.018493652344

> <r_mmod_Improper_Torsional_Energy-OPLS-2005>
6.77660131454468

> <r_mmod_Van_der_Waal_Energy-OPLS-2005>
131.031951904297

> <r_mmod_Electrostatic_Energy-OPLS-2005>
-357.165191650391

> <r_mmod_Solvation_Energy-OPLS-2005>
-204.291046142578

> <b_mmod_Minimization_Converged-OPLS-2005>
0

> <r_mmod_RMS_Derivative-OPLS-2005>
1.61831629276276

$$$$
96
                    3D
 Structure written by MMmdl.
144152  0  0  1  0            999 V2000
  -30.2362  -15.7628   20.3339 C   0  0  0  0  0  0
  -30.4216  -13.1557   19.5816 C   0  0  0  0  0  0
  -29.5659  -12.7049   18.3583 C   0  0  0  0  0  0
  -28.1460  -12.3120   18.7903 C   0  0  0  0  0  0
  -27.5969  -13.3207   19.8221 C   0  0  2  0  0  0
  -28.5959  -13.6926   20.9481 C   0  0  0  0  0  0
  -25.2328  -13.8281   20.5874 C   0  0  0  0  0  0
  -24.1698  -13.0412   20.9287 C   0  0  0  0  0  0
  -24.6417  -11.6933   20.8731 C   0  0  0  0  0  0
  -23.9125  -10.4261   21.0367 C   0  0  0  0  0  0
  -24.3644   -9.4176   21.9164 C   0  0  0  0  0  0
  -23.6299   -8.2224   22.0746 C   0  0  0  0  0  0
  -22.4283   -8.0260   21.3544 C   0  0  0  0  0  0
  -21.9935   -9.0224   20.4626 C   0  0  0  0  0  0
  -22.7284  -10.2094   20.3032 C   0  0  0  0  0  0
  -21.6844   -6.0721   22.5293 C   0  0  0  0  0  0
  -21.4012   -6.5625   23.8228 C   0  0  0  0  0  0
  -21.3691   -5.6781   24.9188 C   0  0  0  0  0  0
  -21.6053   -4.3041   24.7246 C   0  0  0  0  0  0
  -21.8804   -3.8132   23.4361 C   0  0  0  0  0  0
  -21.9181   -4.6947   22.3411 C   0  0  0  0  0  0
  -22.7702  -13.5132   21.1933 C   0  0  0  0  0  0
  -22.1640   -4.2122   21.0989 F   0  0  0  0  0  0
  -21.5652   -3.4532   25.7764 F   0  0  0  0  0  0
  -29.7745  -14.3498   20.3212 N   0  0  0  0  0  0
  -26.2779  -12.9635   20.3279 N   0  0  0  0  0  0
  -25.9370  -11.6687   20.5680 N   0  0  0  0  0  0
  -22.0356  -12.8109   22.0477 N   0  0  0  0  0  0
  -25.3990  -15.2032   20.4527 N   0  0  0  0  0  0
  -31.4405  -15.6833   19.9997 O   0  0  0  0  0  0
  -21.6630   -6.8870   21.4256 O   0  0  0  0  0  0
  -22.3357  -14.5427   20.6780 O   0  0  0  0  0  0
  -24.6917  -31.7872   23.1402 C   0  0  0  0  0  0
  -25.9446  -32.4396   23.7989 C   0  0  1  0  0  0
  -27.2389  -26.6058   20.2194 C   0  0  0  0  0  0
  -25.5992  -33.8230   24.1870 N   0  0  0  0  0  0
  -23.5231  -30.3811   21.4971 C   0  0  2  0  0  0
  -24.9866  -28.7038   20.1122 C   0  0  0  0  0  0
  -22.7802  -29.4234   22.4691 C   0  0  0  0  0  0
  -18.0340  -28.1433   22.8439 C   0  0  0  0  0  0
  -24.1510  -36.7131   23.2644 C   0  0  0  0  0  0
  -26.1065  -30.4863   21.4209 C   0  0  0  0  0  0
  -26.1728  -29.0408   20.7739 C   0  0  0  0  0  0
  -27.2720  -28.0173   20.8042 C   0  0  0  0  0  0
  -26.0295  -26.5130   19.4769 C   0  0  0  0  0  0
  -24.9597  -27.4672   19.4402 C   0  0  0  0  0  0
  -23.7812  -29.6644   20.1372 C   0  0  0  0  0  0
  -25.4156  -36.2861   24.0266 C   0  0  1  0  0  0
  -20.5978  -28.3795   23.1125 C   0  0  2  0  0  0
  -20.6803  -26.9445   22.5409 C   0  0  0  0  0  0
  -19.5788  -26.6366   21.5215 C   0  0  0  0  0  0
  -18.1969  -26.7951   22.1610 C   0  0  0  0  0  0
  -19.1610  -28.8940   23.2757 C   0  0  0  0  0  0
  -18.9514  -30.1522   23.8807 C   0  0  0  0  0  0
  -17.6503  -30.6609   24.0547 C   0  0  0  0  0  0
  -25.9142  -34.9251   23.4919 C   0  0  0  0  0  0
  -16.5392  -29.9087   23.6352 C   0  0  0  0  0  0
  -16.7320  -28.6513   23.0362 C   0  0  0  0  0  0
  -26.4601  -31.6457   25.0639 C   0  0  0  0  0  0
  -25.3631  -31.3798   26.1222 C   0  0  0  0  0  0
  -27.0546  -30.2780   24.6598 C   0  0  0  0  0  0
  -27.6035  -32.4335   25.7471 C   0  0  0  0  0  0
  -27.5579  -37.1705   24.8450 C   0  0  0  0  0  0
  -21.4437  -29.3007   22.3435 N   0  0  0  0  0  0
  -26.4277  -37.3629   23.9412 N   0  0  0  0  0  0
  -24.7985  -30.9204   22.0722 N   0  0  0  0  0  0
  -23.4193  -28.7867   23.3091 O   0  0  0  0  0  0
  -28.1512  -25.3230   20.3940 O   0  0  0  0  0  0
  -26.5821  -34.8851   22.4560 O   0  0  0  0  0  0
  -23.5918  -32.1008   23.6284 O   0  0  0  0  0  0
  -27.7283  -19.6787   20.6002 C   0  0  0  0  0  0
  -28.5024  -21.8046   20.3028 C   0  0  0  0  0  0
  -28.2462  -23.6358   19.7620 C   0  0  0  0  0  0
  -29.4991  -17.4730   20.8387 C   0  0  1  0  0  0
  -29.9669  -17.5867   22.3103 C   0  0  0  0  0  0
  -27.3789  -21.0274   20.5704 N   0  0  0  0  0  0
  -29.5168  -20.7035   20.2078 N   0  0  0  0  0  0
  -28.9992  -19.2197   20.4066 N   0  0  0  0  0  0
  -31.2364  -17.9905   22.3596 F   0  0  0  0  0  0
  -29.8776  -16.4171   22.9508 F   0  0  0  0  0  0
  -29.2130  -18.4551   22.9878 F   0  0  0  0  0  0
  -31.4206  -13.4120   19.2256 H   0  0  0  0  0  0
  -30.5832  -12.3171   20.2618 H   0  0  0  0  0  0
  -30.0465  -11.8743   17.8414 H   0  0  0  0  0  0
  -29.5122  -13.5264   17.6437 H   0  0  0  0  0  0
  -28.1921  -11.3182   19.2365 H   0  0  0  0  0  0
  -27.4840  -12.2311   17.9274 H   0  0  0  0  0  0
  -27.4495  -14.2314   19.2394 H   0  0  0  0  0  0
  -28.8656  -12.8244   21.5522 H   0  0  0  0  0  0
  -28.1287  -14.4008   21.6338 H   0  0  0  0  0  0
  -25.2764   -9.5629   22.4774 H   0  0  0  0  0  0
  -23.9961   -7.4602   22.7476 H   0  0  0  0  0  0
  -21.0867   -8.8748   19.8919 H   0  0  0  0  0  0
  -22.3731  -10.9627   19.6152 H   0  0  0  0  0  0
  -21.1998   -7.6129   23.9740 H   0  0  0  0  0  0
  -21.1555   -6.0504   25.9103 H   0  0  0  0  0  0
  -22.0558   -2.7589   23.2873 H   0  0  0  0  0  0
  -22.3972  -11.9813   22.4938 H   0  0  0  0  0  0
  -21.0964  -13.1132   22.2664 H   0  0  0  0  0  0
  -24.6463  -15.8598   20.6262 H   0  0  0  0  0  0
  -26.2813  -15.6544   20.2600 H   0  0  0  0  0  0
  -26.7532  -32.4838   23.0699 H   0  0  0  0  0  0
  -24.9984  -33.9249   24.9919 H   0  0  0  0  0  0
  -22.8536  -31.2202   21.2966 H   0  0  0  0  0  0
  -23.3792  -35.9440   23.3235 H   0  0  0  0  0  0
  -24.3584  -36.8870   22.2075 H   0  0  0  0  0  0
  -23.7245  -37.6272   23.6779 H   0  0  0  0  0  0
  -26.3142  -31.2035   20.6250 H   0  0  0  0  0  0
  -26.9563  -30.5650   22.0867 H   0  0  0  0  0  0
  -28.1490  -28.2756   21.3801 H   0  0  0  0  0  0
  -25.8484  -25.5798   18.9619 H   0  0  0  0  0  0
  -24.0674  -27.1994   18.8904 H   0  0  0  0  0  0
  -23.9486  -30.4174   19.3662 H   0  0  0  0  0  0
  -22.8876  -29.1231   19.8232 H   0  0  0  0  0  0
  -25.1366  -36.1606   25.0754 H   0  0  0  0  0  0
  -21.0052  -28.3435   24.1256 H   0  0  0  0  0  0
  -20.5655  -26.2418   23.3686 H   0  0  0  0  0  0
  -21.6665  -26.7373   22.1239 H   0  0  0  0  0  0
  -19.6955  -25.6256   21.1303 H   0  0  0  0  0  0
  -19.6739  -27.3133   20.6721 H   0  0  0  0  0  0
  -17.4234  -26.6677   21.4027 H   0  0  0  0  0  0
  -18.0371  -26.0127   22.9044 H   0  0  0  0  0  0
  -19.7996  -30.7360   24.2140 H   0  0  0  0  0  0
  -17.5055  -31.6286   24.5170 H   0  0  0  0  0  0
  -15.5391  -30.2965   23.7737 H   0  0  0  0  0  0
  -15.8716  -28.0811   22.7122 H   0  0  0  0  0  0
  -24.5895  -30.7065   25.7513 H   0  0  0  0  0  0
  -24.8726  -32.3017   26.4357 H   0  0  0  0  0  0
  -25.7774  -30.9160   27.0180 H   0  0  0  0  0  0
  -26.3295  -29.6375   24.1567 H   0  0  0  0  0  0
  -27.3917  -29.7244   25.5374 H   0  0  0  0  0  0
  -27.9288  -30.3880   24.0181 H   0  0  0  0  0  0
  -27.2554  -33.3690   26.1857 H   0  0  0  0  0  0
  -28.3934  -32.6800   25.0364 H   0  0  0  0  0  0
  -28.0606  -31.8584   26.5532 H   0  0  0  0  0  0
  -28.2504  -38.0090   24.7570 H   0  0  0  0  0  0
  -28.1176  -36.2612   24.6196 H   0  0  0  0  0  0
  -27.2309  -37.1226   25.8852 H   0  0  0  0  0  0
  -20.9788  -29.8621   21.6440 H   0  0  0  0  0  0
  -26.0096  -38.2664   24.1458 H   0  0  0  0  0  0
  -26.9615  -18.9599   20.8553 H   0  0  0  0  0  0
  -27.3014  -23.5814   19.2229 H   0  0  0  0  0  0
  -28.9709  -23.7551   18.9576 H   0  0  0  0  0  0
  -28.4947  -17.0588   20.9213 H   0  0  0  0  0  0
  1 25  1  0  0  0
  1 30  2  0  0  0
  1 74  1  0  0  0
  2  3  1  0  0  0
  2 25  1  0  0  0
  2 82  1  0  0  0
  2 83  1  0  0  0
  3  4  1  0  0  0
  3 84  1  0  0  0
  3 85  1  0  0  0
  4  5  1  0  0  0
  4 86  1  0  0  0
  4 87  1  0  0  0
  5  6  1  0  0  0
  5 26  1  0  0  0
  5 88  1  0  0  0
  6 25  1  0  0  0
  6 89  1  0  0  0
  6 90  1  0  0  0
  7  8  2  0  0  0
  7 26  1  0  0  0
  7 29  1  0  0  0
  8  9  1  0  0  0
  8 22  1  0  0  0
  9 10  1  0  0  0
  9 27  2  0  0  0
 10 11  2  0  0  0
 10 15  1  0  0  0
 11 12  1  0  0  0
 11 91  1  0  0  0
 12 13  2  0  0  0
 12 92  1  0  0  0
 13 14  1  0  0  0
 13 31  1  0  0  0
 14 15  2  0  0  0
 14 93  1  0  0  0
 15 94  1  0  0  0
 16 17  2  0  0  0
 16 21  1  0  0  0
 16 31  1  0  0  0
 17 18  1  0  0  0
 17 95  1  0  0  0
 18 19  2  0  0  0
 18 96  1  0  0  0
 19 20  1  0  0  0
 19 24  1  0  0  0
 20 21  2  0  0  0
 20 97  1  0  0  0
 21 23  1  0  0  0
 22 28  1  0  0  0
 22 32  2  0  0  0
 26 27  1  0  0  0
 28 98  1  0  0  0
 28 99  1  0  0  0
 29100  1  0  0  0
 29101  1  0  0  0
 33 34  1  0  0  0
 33 66  1  0  0  0
 33 70  2  0  0  0
 34 36  1  0  0  0
 34 59  1  0  0  0
 34102  1  0  0  0
 35 44  2  0  0  0
 35 45  1  0  0  0
 35 68  1  0  0  0
 36 56  1  0  0  0
 36103  1  0  0  0
 37 39  1  0  0  0
 37 47  1  0  0  0
 37 66  1  0  0  0
 37104  1  0  0  0
 38 43  2  0  0  0
 38 46  1  0  0  0
 38 47  1  0  0  0
 39 64  1  0  0  0
 39 67  2  0  0  0
 40 52  1  0  0  0
 40 53  2  0  0  0
 40 58  1  0  0  0
 41105  1  0  0  0
 41106  1  0  0  0
 41107  1  0  0  0
 41 48  1  0  0  0
 42 43  1  0  0  0
 42 66  1  0  0  0
 42108  1  0  0  0
 42109  1  0  0  0
 43 44  1  0  0  0
 44110  1  0  0  0
 45 46  2  0  0  0
 45111  1  0  0  0
 46112  1  0  0  0
 47113  1  0  0  0
 47114  1  0  0  0
 48 56  1  0  0  0
 48 65  1  0  0  0
 48115  1  0  0  0
 49 50  1  0  0  0
 49 53  1  0  0  0
 49 64  1  0  0  0
 49116  1  0  0  0
 50 51  1  0  0  0
 50117  1  0  0  0
 50118  1  0  0  0
 51 52  1  0  0  0
 51119  1  0  0  0
 51120  1  0  0  0
 52121  1  0  0  0
 52122  1  0  0  0
 53 54  1  0  0  0
 54 55  2  0  0  0
 54123  1  0  0  0
 55 57  1  0  0  0
 55124  1  0  0  0
 56 69  2  0  0  0
 57 58  2  0  0  0
 57125  1  0  0  0
 58126  1  0  0  0
 59 60  1  0  0  0
 59 61  1  0  0  0
 59 62  1  0  0  0
 60127  1  0  0  0
 60128  1  0  0  0
 60129  1  0  0  0
 61130  1  0  0  0
 61131  1  0  0  0
 61132  1  0  0  0
 62133  1  0  0  0
 62134  1  0  0  0
 62135  1  0  0  0
 63 65  1  0  0  0
 63136  1  0  0  0
 63137  1  0  0  0
 63138  1  0  0  0
 64139  1  0  0  0
 65140  1  0  0  0
 68 73  1  0  0  0
 71 76  2  0  0  0
 71 78  1  0  0  0
 71141  1  0  0  0
 72 73  1  0  0  0
 72 76  1  0  0  0
 72 77  2  0  0  0
 73142  1  0  0  0
 73143  1  0  0  0
 74 75  1  0  0  0
 74 78  1  0  0  0
 74144  1  0  0  0
 75 79  1  0  0  0
 75 80  1  0  0  0
 75 81  1  0  0  0
 77 78  1  0  0  0
M  ISO  4   1 100  68 101  73 101  74 100
M  END
> <chiral flag>
0

> <version>
0

> <s_m_source_file>
/data/baiqing/PycharmProjects/Reinvent-master-3.2/result/LINK_invent/BTK/process_docking_weight1_custom_sum_contain_oxygen_bond_distance_aromatic_linkinvent_7_9_3/rearranged_h_0060.sdf

> <i_m_source_file_index>
93

> <r_mmod_Potential_Energy-OPLS-2005>
3235.17944335938

> <r_mmod_Stretch_Energy-OPLS-2005>
1343.98474121094

> <r_mmod_Bend_Energy-OPLS-2005>
910.001708984375

> <r_mmod_Torsional_Energy-OPLS-2005>
207.861053466797

> <r_mmod_Improper_Torsional_Energy-OPLS-2005>
11.4699478149414

> <r_mmod_Van_der_Waal_Energy-OPLS-2005>
111.841079711914

> <r_mmod_Electrostatic_Energy-OPLS-2005>
-226.170684814453

> <r_mmod_Solvation_Energy-OPLS-2005>
-238.709426879883

> <b_mmod_Minimization_Converged-OPLS-2005>
0

> <r_mmod_RMS_Derivative-OPLS-2005>
2.39322853088379

$$$$
97
                    3D
 Structure written by MMmdl.
157165  0  0  1  0            999 V2000
  -30.6682  -14.5864   20.4228 C   0  0  0  0  0  0
  -30.4320  -12.3293   19.4516 C   0  0  0  0  0  0
  -29.4997  -12.3722   18.2224 C   0  0  0  0  0  0
  -28.0151  -12.2905   18.6391 C   0  0  0  0  0  0
  -27.6406  -13.1902   19.8512 C   0  0  2  0  0  0
  -28.6964  -13.1077   20.9751 C   0  0  0  0  0  0
  -25.2544  -13.8098   20.5732 C   0  0  0  0  0  0
  -24.1795  -13.0405   20.9218 C   0  0  0  0  0  0
  -24.6330  -11.6858   20.8786 C   0  0  0  0  0  0
  -23.9003  -10.4263   21.0441 C   0  0  0  0  0  0
  -24.3584   -9.4178   21.9201 C   0  0  0  0  0  0
  -23.6266   -8.2221   22.0754 C   0  0  0  0  0  0
  -22.4249   -8.0271   21.3547 C   0  0  0  0  0  0
  -21.9887   -9.0237   20.4651 C   0  0  0  0  0  0
  -22.7201  -10.2116   20.3067 C   0  0  0  0  0  0
  -21.6843   -6.0729   22.5280 C   0  0  0  0  0  0
  -21.4012   -6.5634   23.8215 C   0  0  0  0  0  0
  -21.3658   -5.6791   24.9181 C   0  0  0  0  0  0
  -21.6034   -4.3054   24.7236 C   0  0  0  0  0  0
  -21.8817   -3.8138   23.4361 C   0  0  0  0  0  0
  -21.9191   -4.6954   22.3412 C   0  0  0  0  0  0
  -22.7822  -13.5218   21.1870 C   0  0  0  0  0  0
  -22.1658   -4.2143   21.0993 F   0  0  0  0  0  0
  -21.5625   -3.4541   25.7751 F   0  0  0  0  0  0
  -30.0092  -13.3914   20.3788 N   0  0  0  0  0  0
  -26.2914  -12.9202   20.3357 N   0  0  0  0  0  0
  -25.9245  -11.6391   20.5844 N   0  0  0  0  0  0
  -22.0461  -12.8225   22.0430 N   0  0  0  0  0  0
  -25.4307  -15.1831   20.4175 N   0  0  0  0  0  0
  -31.8851  -14.6706   20.2420 O   0  0  0  0  0  0
  -21.6625   -6.8866   21.4238 O   0  0  0  0  0  0
  -22.3520  -14.5535   20.6716 O   0  0  0  0  0  0
  -24.6194  -31.8675   23.2121 C   0  0  0  0  0  0
  -25.9077  -32.4818   23.8416 C   0  0  1  0  0  0
  -27.2194  -27.4004   20.0825 C   0  0  0  0  0  0
  -25.5927  -33.8617   24.2335 N   0  0  0  0  0  0
  -23.4065  -30.4977   21.5538 C   0  0  2  0  0  0
  -24.8482  -28.9746   20.1090 C   0  0  0  0  0  0
  -22.7436  -29.4670   22.4977 C   0  0  0  0  0  0
  -18.0286  -28.1375   22.8489 C   0  0  0  0  0  0
  -24.1494  -36.7324   23.2636 C   0  0  0  0  0  0
  -25.9423  -30.8211   21.3733 C   0  0  0  0  0  0
  -26.0130  -29.4564   20.7158 C   0  0  0  0  0  0
  -27.1998  -28.6748   20.7071 C   0  0  0  0  0  0
  -26.0304  -26.9689   19.4364 C   0  0  0  0  0  0
  -24.8543  -27.7308   19.4645 C   0  0  0  0  0  0
  -23.6138  -29.8440   20.1642 C   0  0  0  0  0  0
  -25.4109  -36.3107   24.0336 C   0  0  1  0  0  0
  -20.5875  -28.3666   23.1299 C   0  0  2  0  0  0
  -20.6779  -26.9398   22.5407 C   0  0  0  0  0  0
  -19.5752  -26.6385   21.5208 C   0  0  0  0  0  0
  -18.1936  -26.7926   22.1628 C   0  0  0  0  0  0
  -19.1535  -28.8839   23.2904 C   0  0  0  0  0  0
  -18.9460  -30.1441   23.8911 C   0  0  0  0  0  0
  -17.6458  -30.6579   24.0560 C   0  0  0  0  0  0
  -25.9031  -34.9471   23.5129 C   0  0  0  0  0  0
  -16.5349  -29.9075   23.6317 C   0  0  0  0  0  0
  -16.7280  -28.6500   23.0344 C   0  0  0  0  0  0
  -26.4492  -31.6595   25.0740 C   0  0  0  0  0  0
  -25.3745  -31.3709   26.1476 C   0  0  0  0  0  0
  -27.0316  -30.3033   24.6121 C   0  0  0  0  0  0
  -27.6073  -32.4301   25.7504 C   0  0  0  0  0  0
  -27.5579  -37.1824   24.8468 C   0  0  0  0  0  0
  -21.4161  -29.3046   22.3720 N   0  0  0  0  0  0
  -26.4301  -37.3786   23.9399 N   0  0  0  0  0  0
  -24.6744  -31.0762   22.1041 N   0  0  0  0  0  0
  -23.4220  -28.8186   23.3000 O   0  0  0  0  0  0
  -28.3573  -26.5979   20.1333 O   0  0  0  0  0  0
  -26.5587  -34.8923   22.4683 O   0  0  0  0  0  0
  -23.5372  -32.1451   23.7491 O   0  0  0  0  0  0
  -31.1460  -23.5582   21.0722 C   0  0  0  0  0  0
  -29.1708  -24.1503   20.2501 C   0  0  0  0  0  0
  -29.6056  -22.0063   20.7325 C   0  0  0  0  0  0
  -32.5521  -23.9071   21.5048 C   0  0  0  0  0  0
  -29.3372  -16.0067   19.0110 C   0  0  0  0  0  0
  -28.1771  -25.2086   19.7396 C   0  0  0  0  0  0
  -29.5372  -18.3033   20.6059 C   0  0  0  0  0  0
  -30.2512  -16.9763   21.0802 C   0  0  0  0  0  0
  -29.9612  -19.6413   21.2777 C   0  0  0  0  0  0
  -30.3793  -24.5523   20.6347 N   0  0  0  0  0  0
  -30.8276  -22.2727   21.1643 N   0  0  0  0  0  0
  -28.7298  -22.8857   20.2586 N   0  0  0  0  0  0
  -29.8947  -15.7189   20.3457 N   0  0  0  0  0  0
  -29.1666  -20.7154   20.7252 O   0  0  0  0  0  0
  -31.4696  -12.4441   19.1353 H   0  0  0  0  0  0
  -30.3752  -11.3570   19.9432 H   0  0  0  0  0  0
  -29.7320  -11.5333   17.5653 H   0  0  0  0  0  0
  -29.6995  -13.2568   17.6214 H   0  0  0  0  0  0
  -27.8201  -11.2484   18.8920 H   0  0  0  0  0  0
  -27.3725  -12.5168   17.7878 H   0  0  0  0  0  0
  -27.6127  -14.2086   19.4834 H   0  0  0  0  0  0
  -28.6943  -12.1218   21.4436 H   0  0  0  0  0  0
  -28.4638  -13.8289   21.7617 H   0  0  0  0  0  0
  -25.2732   -9.5663   22.4783 H   0  0  0  0  0  0
  -23.9985   -7.4598   22.7469 H   0  0  0  0  0  0
  -21.0818   -8.8743   19.8955 H   0  0  0  0  0  0
  -22.3657  -10.9660   19.6178 H   0  0  0  0  0  0
  -21.2012   -7.6143   23.9720 H   0  0  0  0  0  0
  -21.1476   -6.0526   25.9085 H   0  0  0  0  0  0
  -22.0601   -2.7605   23.2863 H   0  0  0  0  0  0
  -22.4068  -11.9869   22.4816 H   0  0  0  0  0  0
  -21.1067  -13.1250   22.2652 H   0  0  0  0  0  0
  -24.6716  -15.8427   20.5493 H   0  0  0  0  0  0
  -26.2984  -15.6239   20.1425 H   0  0  0  0  0  0
  -26.7150  -32.5520   23.1177 H   0  0  0  0  0  0
  -25.0095  -33.9779   25.0498 H   0  0  0  0  0  0
  -22.6963  -31.3162   21.4202 H   0  0  0  0  0  0
  -23.3729  -35.9688   23.3327 H   0  0  0  0  0  0
  -24.3587  -36.8902   22.2043 H   0  0  0  0  0  0
  -23.7280  -37.6557   23.6624 H   0  0  0  0  0  0
  -26.0598  -31.5862   20.6042 H   0  0  0  0  0  0
  -26.8296  -30.8722   21.9925 H   0  0  0  0  0  0
  -28.0918  -29.0373   21.1995 H   0  0  0  0  0  0
  -25.9671  -26.0399   18.8900 H   0  0  0  0  0  0
  -23.9638  -27.3619   18.9739 H   0  0  0  0  0  0
  -23.7266  -30.6242   19.4109 H   0  0  0  0  0  0
  -22.7359  -29.2696   19.8632 H   0  0  0  0  0  0
  -25.1284  -36.1979   25.0831 H   0  0  0  0  0  0
  -20.9980  -28.3227   24.1410 H   0  0  0  0  0  0
  -20.5677  -26.2270   23.3600 H   0  0  0  0  0  0
  -21.6650  -26.7441   22.1186 H   0  0  0  0  0  0
  -19.6904  -25.6298   21.1230 H   0  0  0  0  0  0
  -19.6677  -27.3203   20.6739 H   0  0  0  0  0  0
  -17.4199  -26.6669   21.4038 H   0  0  0  0  0  0
  -18.0336  -26.0068   22.9021 H   0  0  0  0  0  0
  -19.7931  -30.7262   24.2286 H   0  0  0  0  0  0
  -17.5007  -31.6252   24.5170 H   0  0  0  0  0  0
  -15.5347  -30.2982   23.7628 H   0  0  0  0  0  0
  -15.8687  -28.0824   22.7034 H   0  0  0  0  0  0
  -24.5942  -30.7019   25.7824 H   0  0  0  0  0  0
  -24.8894  -32.2854   26.4895 H   0  0  0  0  0  0
  -25.8083  -30.8916   27.0259 H   0  0  0  0  0  0
  -26.2858  -29.6803   24.1159 H   0  0  0  0  0  0
  -27.4071  -29.7260   25.4583 H   0  0  0  0  0  0
  -27.8711  -30.4356   23.9288 H   0  0  0  0  0  0
  -27.2709  -33.3596   26.2116 H   0  0  0  0  0  0
  -28.3873  -32.6862   25.0319 H   0  0  0  0  0  0
  -28.0756  -31.8396   26.5394 H   0  0  0  0  0  0
  -28.2612  -38.0102   24.7474 H   0  0  0  0  0  0
  -28.1057  -36.2629   24.6339 H   0  0  0  0  0  0
  -27.2296  -37.1534   25.8873 H   0  0  0  0  0  0
  -20.9318  -29.8801   21.6971 H   0  0  0  0  0  0
  -26.0188  -38.2875   24.1364 H   0  0  0  0  0  0
  -32.7844  -24.9545   21.3285 H   0  0  0  0  0  0
  -33.2729  -23.3052   20.9517 H   0  0  0  0  0  0
  -32.6784  -23.7017   22.5676 H   0  0  0  0  0  0
  -28.3486  -16.4652   19.0726 H   0  0  0  0  0  0
  -29.2234  -15.1303   18.3876 H   0  0  0  0  0  0
  -29.9924  -16.6585   18.4356 H   0  0  0  0  0  0
  -28.1473  -25.1553   18.6501 H   0  0  0  0  0  0
  -27.2187  -24.8441   20.1097 H   0  0  0  0  0  0
  -28.4594  -18.1847   20.7002 H   0  0  0  0  0  0
  -29.7276  -18.4696   19.5468 H   0  0  0  0  0  0
  -30.0231  -16.8189   22.1365 H   0  0  0  0  0  0
  -31.3320  -17.1239   21.0262 H   0  0  0  0  0  0
  -31.0313  -19.7865   21.1166 H   0  0  0  0  0  0
  -29.7954  -19.5927   22.3543 H   0  0  0  0  0  0
  1 25  1  0  0  0
  1 30  2  0  0  0
  1 83  1  0  0  0
  2  3  1  0  0  0
  2 25  1  0  0  0
  2 85  1  0  0  0
  2 86  1  0  0  0
  3  4  1  0  0  0
  3 87  1  0  0  0
  3 88  1  0  0  0
  4  5  1  0  0  0
  4 89  1  0  0  0
  4 90  1  0  0  0
  5  6  1  0  0  0
  5 26  1  0  0  0
  5 91  1  0  0  0
  6 25  1  0  0  0
  6 92  1  0  0  0
  6 93  1  0  0  0
  7  8  2  0  0  0
  7 26  1  0  0  0
  7 29  1  0  0  0
  8  9  1  0  0  0
  8 22  1  0  0  0
  9 10  1  0  0  0
  9 27  2  0  0  0
 10 11  2  0  0  0
 10 15  1  0  0  0
 11 12  1  0  0  0
 11 94  1  0  0  0
 12 13  2  0  0  0
 12 95  1  0  0  0
 13 14  1  0  0  0
 13 31  1  0  0  0
 14 15  2  0  0  0
 14 96  1  0  0  0
 15 97  1  0  0  0
 16 17  2  0  0  0
 16 21  1  0  0  0
 16 31  1  0  0  0
 17 18  1  0  0  0
 17 98  1  0  0  0
 18 19  2  0  0  0
 18 99  1  0  0  0
 19 20  1  0  0  0
 19 24  1  0  0  0
 20 21  2  0  0  0
 20100  1  0  0  0
 21 23  1  0  0  0
 22 28  1  0  0  0
 22 32  2  0  0  0
 26 27  1  0  0  0
 28101  1  0  0  0
 28102  1  0  0  0
 29103  1  0  0  0
 29104  1  0  0  0
 33 34  1  0  0  0
 33 66  1  0  0  0
 33 70  2  0  0  0
 34 36  1  0  0  0
 34 59  1  0  0  0
 34105  1  0  0  0
 35 44  2  0  0  0
 35 45  1  0  0  0
 35 68  1  0  0  0
 36 56  1  0  0  0
 36106  1  0  0  0
 37 39  1  0  0  0
 37 47  1  0  0  0
 37 66  1  0  0  0
 37107  1  0  0  0
 38 43  2  0  0  0
 38 46  1  0  0  0
 38 47  1  0  0  0
 39 64  1  0  0  0
 39 67  2  0  0  0
 40 52  1  0  0  0
 40 53  2  0  0  0
 40 58  1  0  0  0
 41108  1  0  0  0
 41109  1  0  0  0
 41110  1  0  0  0
 41 48  1  0  0  0
 42 43  1  0  0  0
 42 66  1  0  0  0
 42111  1  0  0  0
 42112  1  0  0  0
 43 44  1  0  0  0
 44113  1  0  0  0
 45 46  2  0  0  0
 45114  1  0  0  0
 46115  1  0  0  0
 47116  1  0  0  0
 47117  1  0  0  0
 48 56  1  0  0  0
 48 65  1  0  0  0
 48118  1  0  0  0
 49 50  1  0  0  0
 49 53  1  0  0  0
 49 64  1  0  0  0
 49119  1  0  0  0
 50 51  1  0  0  0
 50120  1  0  0  0
 50121  1  0  0  0
 51 52  1  0  0  0
 51122  1  0  0  0
 51123  1  0  0  0
 52124  1  0  0  0
 52125  1  0  0  0
 53 54  1  0  0  0
 54 55  2  0  0  0
 54126  1  0  0  0
 55 57  1  0  0  0
 55127  1  0  0  0
 56 69  2  0  0  0
 57 58  2  0  0  0
 57128  1  0  0  0
 58129  1  0  0  0
 59 60  1  0  0  0
 59 61  1  0  0  0
 59 62  1  0  0  0
 60130  1  0  0  0
 60131  1  0  0  0
 60132  1  0  0  0
 61133  1  0  0  0
 61134  1  0  0  0
 61135  1  0  0  0
 62136  1  0  0  0
 62137  1  0  0  0
 62138  1  0  0  0
 63 65  1  0  0  0
 63139  1  0  0  0
 63140  1  0  0  0
 63141  1  0  0  0
 64142  1  0  0  0
 65143  1  0  0  0
 68 76  1  0  0  0
 71 74  1  0  0  0
 71 80  2  0  0  0
 71 81  1  0  0  0
 72 76  1  0  0  0
 72 80  1  0  0  0
 72 82  2  0  0  0
 73 81  2  0  0  0
 73 82  1  0  0  0
 73 84  1  0  0  0
 74144  1  0  0  0
 74145  1  0  0  0
 74146  1  0  0  0
 75 83  1  0  0  0
 75147  1  0  0  0
 75148  1  0  0  0
 75149  1  0  0  0
 76150  1  0  0  0
 76151  1  0  0  0
 77 78  1  0  0  0
 77 79  1  0  0  0
 77152  1  0  0  0
 77153  1  0  0  0
 78 83  1  0  0  0
 78154  1  0  0  0
 78155  1  0  0  0
 79 84  1  0  0  0
 79156  1  0  0  0
 79157  1  0  0  0
M  ISO  4   1 100  68 101  76 101  83 100
M  END
> <chiral flag>
0

> <version>
0

> <s_m_source_file>
/data/baiqing/PycharmProjects/Reinvent-master-3.2/result/LINK_invent/BTK/process_docking_weight1_custom_sum_contain_oxygen_bond_distance_aromatic_linkinvent_7_9_3/rearranged_h_0060.sdf

> <i_m_source_file_index>
94

> <r_mmod_Potential_Energy-OPLS-2005>
-444.384490966797

> <r_mmod_Stretch_Energy-OPLS-2005>
51.1448745727539

> <r_mmod_Bend_Energy-OPLS-2005>
123.378715515137

> <r_mmod_Torsional_Energy-OPLS-2005>
294.24072265625

> <r_mmod_Improper_Torsional_Energy-OPLS-2005>
11.0650854110718

> <r_mmod_Van_der_Waal_Energy-OPLS-2005>
202.699569702148

> <r_mmod_Electrostatic_Energy-OPLS-2005>
-948.080078125

> <r_mmod_Solvation_Energy-OPLS-2005>
-220.890823364258

> <b_mmod_Minimization_Converged-OPLS-2005>
0

> <r_mmod_RMS_Derivative-OPLS-2005>
4.11770057678223

$$$$
98
                    3D
 Structure written by MMmdl.
153161  0  0  1  0            999 V2000
  -30.6531  -14.7109   20.5266 C   0  0  0  0  0  0
  -30.4338  -12.4406   19.4883 C   0  0  0  0  0  0
  -29.5199  -12.5337   18.2434 C   0  0  0  0  0  0
  -28.0391  -12.3619   18.6353 C   0  0  0  0  0  0
  -27.6522  -13.2266   19.8629 C   0  0  2  0  0  0
  -28.6915  -13.1057   20.9978 C   0  0  0  0  0  0
  -25.2537  -13.8137   20.5712 C   0  0  0  0  0  0
  -24.1800  -13.0423   20.9196 C   0  0  0  0  0  0
  -24.6382  -11.6891   20.8757 C   0  0  0  0  0  0
  -23.9046  -10.4291   21.0423 C   0  0  0  0  0  0
  -24.3601   -9.4216   21.9190 C   0  0  0  0  0  0
  -23.6307   -8.2233   22.0753 C   0  0  0  0  0  0
  -22.4276   -8.0265   21.3550 C   0  0  0  0  0  0
  -21.9925   -9.0235   20.4637 C   0  0  0  0  0  0
  -22.7225  -10.2128   20.3068 C   0  0  0  0  0  0
  -21.6874   -6.0736   22.5283 C   0  0  0  0  0  0
  -21.4012   -6.5647   23.8215 C   0  0  0  0  0  0
  -21.3682   -5.6806   24.9182 C   0  0  0  0  0  0
  -21.6071   -4.3065   24.7241 C   0  0  0  0  0  0
  -21.8787   -3.8158   23.4356 C   0  0  0  0  0  0
  -21.9190   -4.6969   22.3411 C   0  0  0  0  0  0
  -22.7833  -13.5247   21.1888 C   0  0  0  0  0  0
  -22.1674   -4.2184   21.0982 F   0  0  0  0  0  0
  -21.5669   -3.4528   25.7744 F   0  0  0  0  0  0
  -30.0028  -13.4920   20.4438 N   0  0  0  0  0  0
  -26.2986  -12.9361   20.3306 N   0  0  0  0  0  0
  -25.9316  -11.6509   20.5744 N   0  0  0  0  0  0
  -22.0476  -12.8230   22.0421 N   0  0  0  0  0  0
  -25.4253  -15.1855   20.4170 N   0  0  0  0  0  0
  -31.7857  -14.8151   20.0419 O   0  0  0  0  0  0
  -21.6656   -6.8849   21.4231 O   0  0  0  0  0  0
  -22.3555  -14.5597   20.6792 O   0  0  0  0  0  0
  -24.6289  -31.8573   23.2029 C   0  0  0  0  0  0
  -25.9128  -32.4751   23.8396 C   0  0  1  0  0  0
  -27.2173  -27.2747   20.1310 C   0  0  0  0  0  0
  -25.5949  -33.8551   24.2321 N   0  0  0  0  0  0
  -23.4269  -30.4821   21.5446 C   0  0  2  0  0  0
  -24.8766  -28.9380   20.1161 C   0  0  0  0  0  0
  -22.7519  -29.4572   22.4891 C   0  0  0  0  0  0
  -18.0307  -28.1325   22.8455 C   0  0  0  0  0  0
  -24.1469  -36.7276   23.2627 C   0  0  0  0  0  0
  -25.9728  -30.7771   21.3817 C   0  0  0  0  0  0
  -26.0483  -29.4019   20.7243 C   0  0  0  0  0  0
  -27.2248  -28.5861   20.7149 C   0  0  0  0  0  0
  -26.0189  -26.8785   19.4941 C   0  0  0  0  0  0
  -24.8673  -27.6838   19.4890 C   0  0  0  0  0  0
  -23.6493  -29.8244   20.1601 C   0  0  0  0  0  0
  -25.4101  -36.3088   24.0308 C   0  0  1  0  0  0
  -20.5909  -28.3630   23.1223 C   0  0  2  0  0  0
  -20.6795  -26.9336   22.5386 C   0  0  0  0  0  0
  -19.5771  -26.6335   21.5161 C   0  0  0  0  0  0
  -18.1941  -26.7881   22.1570 C   0  0  0  0  0  0
  -19.1571  -28.8802   23.2843 C   0  0  0  0  0  0
  -18.9474  -30.1412   23.8840 C   0  0  0  0  0  0
  -17.6472  -30.6523   24.0523 C   0  0  0  0  0  0
  -25.9030  -34.9433   23.5116 C   0  0  0  0  0  0
  -16.5357  -29.9010   23.6318 C   0  0  0  0  0  0
  -16.7301  -28.6441   23.0319 C   0  0  0  0  0  0
  -26.4558  -31.6564   25.0745 C   0  0  0  0  0  0
  -25.3792  -31.3673   26.1461 C   0  0  0  0  0  0
  -27.0403  -30.2967   24.6229 C   0  0  0  0  0  0
  -27.6147  -32.4294   25.7497 C   0  0  0  0  0  0
  -27.5576  -37.1762   24.8444 C   0  0  0  0  0  0
  -21.4217  -29.3008   22.3634 N   0  0  0  0  0  0
  -26.4302  -37.3765   23.9396 N   0  0  0  0  0  0
  -24.6954  -31.0558   22.0996 N   0  0  0  0  0  0
  -23.4210  -28.8065   23.2968 O   0  0  0  0  0  0
  -28.3111  -26.3837   20.1848 O   0  0  0  0  0  0
  -26.5550  -34.8889   22.4653 O   0  0  0  0  0  0
  -23.5448  -32.1424   23.7327 O   0  0  0  0  0  0
  -29.4581  -21.2404   21.0998 C   0  0  0  0  0  0
  -28.9601  -20.3162   19.2258 C   0  0  0  0  0  0
  -29.1396  -22.2859   20.2162 C   0  0  0  0  0  0
  -29.5754  -15.9217   22.3457 C   0  0  0  0  0  0
  -29.2854  -23.8692   20.3375 C   0  0  0  0  0  0
  -29.5519  -18.5785   21.0883 C   0  0  0  0  0  0
  -30.0652  -17.2566   20.2802 C   0  0  0  0  0  0
  -28.0556  -24.8987   20.1683 C   0  0  0  0  0  0
  -28.8302  -21.6401   19.0103 N   0  0  0  0  0  0
  -29.3708  -19.9633   20.4583 N   0  0  0  0  0  0
  -29.9645  -15.8580   20.9337 N   0  0  0  0  0  0
  -31.4799  -12.5443   19.1957 H   0  0  0  0  0  0
  -30.3732  -11.4478   19.9422 H   0  0  0  0  0  0
  -29.8049  -11.7764   17.5138 H   0  0  0  0  0  0
  -29.6612  -13.4951   17.7482 H   0  0  0  0  0  0
  -27.8742  -11.3104   18.8636 H   0  0  0  0  0  0
  -27.3890  -12.5940   17.7935 H   0  0  0  0  0  0
  -27.6660  -14.2603   19.5210 H   0  0  0  0  0  0
  -28.7282  -12.0821   21.3770 H   0  0  0  0  0  0
  -28.3789  -13.7134   21.8421 H   0  0  0  0  0  0
  -25.2733   -9.5756   22.4779 H   0  0  0  0  0  0
  -24.0079   -7.4626   22.7460 H   0  0  0  0  0  0
  -21.0890   -8.8733   19.8897 H   0  0  0  0  0  0
  -22.3685  -10.9685   19.6208 H   0  0  0  0  0  0
  -21.1971   -7.6152   23.9725 H   0  0  0  0  0  0
  -21.1580   -6.0534   25.9094 H   0  0  0  0  0  0
  -22.0545   -2.7632   23.2820 H   0  0  0  0  0  0
  -22.4153  -11.9927   22.4843 H   0  0  0  0  0  0
  -21.1060  -13.1214   22.2551 H   0  0  0  0  0  0
  -24.6592  -15.8365   20.5345 H   0  0  0  0  0  0
  -26.2842  -15.6328   20.1274 H   0  0  0  0  0  0
  -26.7163  -32.5436   23.1145 H   0  0  0  0  0  0
  -25.0185  -33.9716   25.0517 H   0  0  0  0  0  0
  -22.7230  -31.3049   21.4011 H   0  0  0  0  0  0
  -23.3735  -35.9589   23.3275 H   0  0  0  0  0  0
  -24.3584  -36.8947   22.2056 H   0  0  0  0  0  0
  -23.7228  -37.6464   23.6666 H   0  0  0  0  0  0
  -26.1161  -31.5420   20.6173 H   0  0  0  0  0  0
  -26.8490  -30.8259   22.0180 H   0  0  0  0  0  0
  -28.1288  -28.9397   21.1943 H   0  0  0  0  0  0
  -25.9391  -25.9287   18.9883 H   0  0  0  0  0  0
  -23.9697  -27.3307   19.0043 H   0  0  0  0  0  0
  -23.7737  -30.6035   19.4096 H   0  0  0  0  0  0
  -22.7688  -29.2603   19.8480 H   0  0  0  0  0  0
  -25.1283  -36.1952   25.0798 H   0  0  0  0  0  0
  -21.0001  -28.3194   24.1342 H   0  0  0  0  0  0
  -20.5619  -26.2216   23.3575 H   0  0  0  0  0  0
  -21.6656  -26.7303   22.1192 H   0  0  0  0  0  0
  -19.6893  -25.6234   21.1192 H   0  0  0  0  0  0
  -19.6709  -27.3130   20.6670 H   0  0  0  0  0  0
  -17.4202  -26.6584   21.3991 H   0  0  0  0  0  0
  -18.0369  -26.0037   22.8990 H   0  0  0  0  0  0
  -19.7951  -30.7252   24.2147 H   0  0  0  0  0  0
  -17.5009  -31.6181   24.5133 H   0  0  0  0  0  0
  -15.5358  -30.2853   23.7673 H   0  0  0  0  0  0
  -15.8710  -28.0731   22.7019 H   0  0  0  0  0  0
  -24.5964  -30.7042   25.7774 H   0  0  0  0  0  0
  -24.8955  -32.2795   26.4931 H   0  0  0  0  0  0
  -25.8111  -30.8818   27.0225 H   0  0  0  0  0  0
  -26.2966  -29.6652   24.1339 H   0  0  0  0  0  0
  -27.4192  -29.7309   25.4761 H   0  0  0  0  0  0
  -27.8824  -30.4215   23.9416 H   0  0  0  0  0  0
  -27.2813  -33.3622   26.2075 H   0  0  0  0  0  0
  -28.3971  -32.6829   25.0314 H   0  0  0  0  0  0
  -28.0805  -31.8411   26.5427 H   0  0  0  0  0  0
  -28.2554  -38.0104   24.7570 H   0  0  0  0  0  0
  -28.1151  -36.2633   24.6220 H   0  0  0  0  0  0
  -27.2288  -37.1363   25.8852 H   0  0  0  0  0  0
  -20.9358  -29.8879   21.6987 H   0  0  0  0  0  0
  -26.0179  -38.2822   24.1480 H   0  0  0  0  0  0
  -29.7614  -21.2972   22.1385 H   0  0  0  0  0  0
  -28.7444  -19.5820   18.4604 H   0  0  0  0  0  0
  -28.5128  -16.1396   22.4471 H   0  0  0  0  0  0
  -30.1325  -16.6997   22.8636 H   0  0  0  0  0  0
  -29.7791  -14.9993   22.8910 H   0  0  0  0  0  0
  -30.0191  -24.1789   19.5915 H   0  0  0  0  0  0
  -29.7710  -24.1005   21.2874 H   0  0  0  0  0  0
  -30.2289  -18.7388   21.9317 H   0  0  0  0  0  0
  -28.5861  -18.3363   21.5358 H   0  0  0  0  0  0
  -31.1067  -17.4179   19.9998 H   0  0  0  0  0  0
  -29.5215  -17.1916   19.3345 H   0  0  0  0  0  0
  -27.3290  -24.6849   20.9570 H   0  0  0  0  0  0
  -27.5793  -24.6357   19.2220 H   0  0  0  0  0  0
  1 25  1  0  0  0
  1 30  2  0  0  0
  1 81  1  0  0  0
  2  3  1  0  0  0
  2 25  1  0  0  0
  2 82  1  0  0  0
  2 83  1  0  0  0
  3  4  1  0  0  0
  3 84  1  0  0  0
  3 85  1  0  0  0
  4  5  1  0  0  0
  4 86  1  0  0  0
  4 87  1  0  0  0
  5  6  1  0  0  0
  5 26  1  0  0  0
  5 88  1  0  0  0
  6 25  1  0  0  0
  6 89  1  0  0  0
  6 90  1  0  0  0
  7  8  2  0  0  0
  7 26  1  0  0  0
  7 29  1  0  0  0
  8  9  1  0  0  0
  8 22  1  0  0  0
  9 10  1  0  0  0
  9 27  2  0  0  0
 10 11  2  0  0  0
 10 15  1  0  0  0
 11 12  1  0  0  0
 11 91  1  0  0  0
 12 13  2  0  0  0
 12 92  1  0  0  0
 13 14  1  0  0  0
 13 31  1  0  0  0
 14 15  2  0  0  0
 14 93  1  0  0  0
 15 94  1  0  0  0
 16 17  2  0  0  0
 16 21  1  0  0  0
 16 31  1  0  0  0
 17 18  1  0  0  0
 17 95  1  0  0  0
 18 19  2  0  0  0
 18 96  1  0  0  0
 19 20  1  0  0  0
 19 24  1  0  0  0
 20 21  2  0  0  0
 20 97  1  0  0  0
 21 23  1  0  0  0
 22 28  1  0  0  0
 22 32  2  0  0  0
 26 27  1  0  0  0
 28 98  1  0  0  0
 28 99  1  0  0  0
 29100  1  0  0  0
 29101  1  0  0  0
 33 34  1  0  0  0
 33 66  1  0  0  0
 33 70  2  0  0  0
 34 36  1  0  0  0
 34 59  1  0  0  0
 34102  1  0  0  0
 35 44  2  0  0  0
 35 45  1  0  0  0
 35 68  1  0  0  0
 36 56  1  0  0  0
 36103  1  0  0  0
 37 39  1  0  0  0
 37 47  1  0  0  0
 37 66  1  0  0  0
 37104  1  0  0  0
 38 43  2  0  0  0
 38 46  1  0  0  0
 38 47  1  0  0  0
 39 64  1  0  0  0
 39 67  2  0  0  0
 40 52  1  0  0  0
 40 53  2  0  0  0
 40 58  1  0  0  0
 41105  1  0  0  0
 41106  1  0  0  0
 41107  1  0  0  0
 41 48  1  0  0  0
 42 43  1  0  0  0
 42 66  1  0  0  0
 42108  1  0  0  0
 42109  1  0  0  0
 43 44  1  0  0  0
 44110  1  0  0  0
 45 46  2  0  0  0
 45111  1  0  0  0
 46112  1  0  0  0
 47113  1  0  0  0
 47114  1  0  0  0
 48 56  1  0  0  0
 48 65  1  0  0  0
 48115  1  0  0  0
 49 50  1  0  0  0
 49 53  1  0  0  0
 49 64  1  0  0  0
 49116  1  0  0  0
 50 51  1  0  0  0
 50117  1  0  0  0
 50118  1  0  0  0
 51 52  1  0  0  0
 51119  1  0  0  0
 51120  1  0  0  0
 52121  1  0  0  0
 52122  1  0  0  0
 53 54  1  0  0  0
 54 55  2  0  0  0
 54123  1  0  0  0
 55 57  1  0  0  0
 55124  1  0  0  0
 56 69  2  0  0  0
 57 58  2  0  0  0
 57125  1  0  0  0
 58126  1  0  0  0
 59 60  1  0  0  0
 59 61  1  0  0  0
 59 62  1  0  0  0
 60127  1  0  0  0
 60128  1  0  0  0
 60129  1  0  0  0
 61130  1  0  0  0
 61131  1  0  0  0
 61132  1  0  0  0
 62133  1  0  0  0
 62134  1  0  0  0
 62135  1  0  0  0
 63 65  1  0  0  0
 63136  1  0  0  0
 63137  1  0  0  0
 63138  1  0  0  0
 64139  1  0  0  0
 65140  1  0  0  0
 68 78  1  0  0  0
 71 73  2  0  0  0
 71 80  1  0  0  0
 71141  1  0  0  0
 72 79  2  0  0  0
 72 80  1  0  0  0
 72142  1  0  0  0
 73 75  1  0  0  0
 73 79  1  0  0  0
 74 81  1  0  0  0
 74143  1  0  0  0
 74144  1  0  0  0
 74145  1  0  0  0
 75 78  1  0  0  0
 75146  1  0  0  0
 75147  1  0  0  0
 76 77  1  0  0  0
 76 80  1  0  0  0
 76148  1  0  0  0
 76149  1  0  0  0
 77 81  1  0  0  0
 77150  1  0  0  0
 77151  1  0  0  0
 78152  1  0  0  0
 78153  1  0  0  0
M  ISO  4   1 100  68 101  78 101  81 100
M  END
> <chiral flag>
0

> <version>
0

> <s_m_source_file>
/data/baiqing/PycharmProjects/Reinvent-master-3.2/result/LINK_invent/BTK/process_docking_weight1_custom_sum_contain_oxygen_bond_distance_aromatic_linkinvent_7_9_3/rearranged_h_0060.sdf

> <i_m_source_file_index>
95

> <r_mmod_Potential_Energy-OPLS-2005>
291.251281738281

> <r_mmod_Stretch_Energy-OPLS-2005>
129.639053344727

> <r_mmod_Bend_Energy-OPLS-2005>
180.176422119141

> <r_mmod_Torsional_Energy-OPLS-2005>
280.095092773438

> <r_mmod_Improper_Torsional_Energy-OPLS-2005>
8.00396919250488

> <r_mmod_Van_der_Waal_Energy-OPLS-2005>
126.587036132812

> <r_mmod_Electrostatic_Energy-OPLS-2005>
-281.933288574219

> <r_mmod_Solvation_Energy-OPLS-2005>
-221.417572021484

> <b_mmod_Minimization_Converged-OPLS-2005>
0

> <r_mmod_RMS_Derivative-OPLS-2005>
5.84772348403931

$$$$
