0
                    3D
 Structure written by MMmdl.
156164  0  0  1  0            999 V2000
  -30.6506  -14.5625   20.5469 C   0  0  0  0  0  0
  -30.4284  -12.3615   19.4241 C   0  0  0  0  0  0
  -29.4923  -12.5095   18.2059 C   0  0  0  0  0  0
  -28.0175  -12.3522   18.6268 C   0  0  0  0  0  0
  -27.6527  -13.2108   19.8679 C   0  0  2  0  0  0
  -28.6969  -13.0328   20.9916 C   0  0  0  0  0  0
  -25.2553  -13.8142   20.5694 C   0  0  0  0  0  0
  -24.1823  -13.0422   20.9192 C   0  0  0  0  0  0
  -24.6384  -11.6889   20.8731 C   0  0  0  0  0  0
  -23.9051  -10.4285   21.0410 C   0  0  0  0  0  0
  -24.3606   -9.4207   21.9190 C   0  0  0  0  0  0
  -23.6287   -8.2240   22.0751 C   0  0  0  0  0  0
  -22.4268   -8.0280   21.3544 C   0  0  0  0  0  0
  -21.9906   -9.0251   20.4645 C   0  0  0  0  0  0
  -22.7223  -10.2136   20.3064 C   0  0  0  0  0  0
  -21.6853   -6.0747   22.5286 C   0  0  0  0  0  0
  -21.4021   -6.5651   23.8220 C   0  0  0  0  0  0
  -21.3657   -5.6801   24.9179 C   0  0  0  0  0  0
  -21.6037   -4.3064   24.7224 C   0  0  0  0  0  0
  -21.8812   -3.8157   23.4345 C   0  0  0  0  0  0
  -21.9191   -4.6976   22.3405 C   0  0  0  0  0  0
  -22.7854  -13.5225   21.1880 C   0  0  0  0  0  0
  -22.1659   -4.2169   21.0979 F   0  0  0  0  0  0
  -21.5622   -3.4539   25.7732 F   0  0  0  0  0  0
  -30.0133  -13.3618   20.4243 N   0  0  0  0  0  0
  -26.2979  -12.9324   20.3344 N   0  0  0  0  0  0
  -25.9308  -11.6476   20.5752 N   0  0  0  0  0  0
  -22.0499  -12.8213   22.0427 N   0  0  0  0  0  0
  -25.4237  -15.1866   20.4111 N   0  0  0  0  0  0
  -31.8107  -14.7325   20.1627 O   0  0  0  0  0  0
  -21.6633   -6.8881   21.4241 O   0  0  0  0  0  0
  -22.3551  -14.5554   20.6754 O   0  0  0  0  0  0
  -24.6209  -31.8638   23.2049 C   0  0  0  0  0  0
  -25.9080  -32.4800   23.8368 C   0  0  1  0  0  0
  -27.2312  -27.3744   20.1174 C   0  0  0  0  0  0
  -25.5915  -33.8598   24.2301 N   0  0  0  0  0  0
  -23.4116  -30.4847   21.5467 C   0  0  2  0  0  0
  -24.8575  -28.9359   20.1231 C   0  0  0  0  0  0
  -22.7436  -29.4633   22.4966 C   0  0  0  0  0  0
  -18.0272  -28.1383   22.8487 C   0  0  0  0  0  0
  -24.1484  -36.7297   23.2639 C   0  0  0  0  0  0
  -25.9446  -30.8131   21.3650 C   0  0  0  0  0  0
  -26.0220  -29.4407   20.7154 C   0  0  0  0  0  0
  -27.2142  -28.6709   20.6991 C   0  0  0  0  0  0
  -26.0462  -26.8923   19.5257 C   0  0  0  0  0  0
  -24.8666  -27.6638   19.5234 C   0  0  0  0  0  0
  -23.6245  -29.8129   20.1643 C   0  0  0  0  0  0
  -25.4111  -36.3087   24.0325 C   0  0  1  0  0  0
  -20.5869  -28.3675   23.1300 C   0  0  2  0  0  0
  -20.6753  -26.9406   22.5414 C   0  0  0  0  0  0
  -19.5734  -26.6382   21.5207 C   0  0  0  0  0  0
  -18.1915  -26.7926   22.1622 C   0  0  0  0  0  0
  -19.1527  -28.8843   23.2890 C   0  0  0  0  0  0
  -18.9457  -30.1447   23.8907 C   0  0  0  0  0  0
  -17.6462  -30.6587   24.0567 C   0  0  0  0  0  0
  -25.9045  -34.9453   23.5112 C   0  0  0  0  0  0
  -16.5349  -29.9093   23.6331 C   0  0  0  0  0  0
  -16.7263  -28.6509   23.0351 C   0  0  0  0  0  0
  -26.4490  -31.6591   25.0718 C   0  0  0  0  0  0
  -25.3749  -31.3715   26.1466 C   0  0  0  0  0  0
  -27.0332  -30.3025   24.6130 C   0  0  0  0  0  0
  -27.6055  -32.4319   25.7492 C   0  0  0  0  0  0
  -27.5573  -37.1805   24.8466 C   0  0  0  0  0  0
  -21.4156  -29.3042   22.3703 N   0  0  0  0  0  0
  -26.4289  -37.3777   23.9406 N   0  0  0  0  0  0
  -24.6772  -31.0695   22.0969 N   0  0  0  0  0  0
  -23.4180  -28.8179   23.3032 O   0  0  0  0  0  0
  -28.3927  -26.6179   20.0599 O   0  0  0  0  0  0
  -26.5609  -34.8908   22.4673 O   0  0  0  0  0  0
  -23.5385  -32.1413   23.7413 O   0  0  0  0  0  0
  -30.5035  -21.3967   19.5543 C   0  0  0  0  0  0
  -29.6245  -20.8804   20.5447 C   0  0  0  0  0  0
  -30.0104  -22.6308   19.2234 C   0  0  0  0  0  0
  -30.5222  -23.6216   18.2279 C   0  0  0  0  0  0
  -29.8076  -19.5729   21.3391 C   0  0  0  0  0  0
  -29.6218  -18.1934   20.6002 C   0  0  0  0  0  0
  -27.9707  -24.0371   19.9458 C   0  0  0  0  0  0
  -30.3063  -16.9829   21.3463 C   0  0  0  0  0  0
  -28.4330  -25.3203   20.7265 C   0  0  0  0  0  0
  -28.6409  -21.7654   20.7923 N   0  0  0  0  0  0
  -28.8824  -22.8590   19.9946 N   0  0  0  0  0  0
  -29.8847  -15.6004   20.9786 N   0  0  0  0  0  0
  -31.4680  -12.4856   19.1170 H   0  0  0  0  0  0
  -30.3561  -11.3565   19.8409 H   0  0  0  0  0  0
  -29.7428  -11.7699   17.4439 H   0  0  0  0  0  0
  -29.6391  -13.4861   17.7412 H   0  0  0  0  0  0
  -27.8474  -11.2974   18.8474 H   0  0  0  0  0  0
  -27.3592  -12.5978   17.7933 H   0  0  0  0  0  0
  -27.6817  -14.2524   19.5474 H   0  0  0  0  0  0
  -28.6950  -12.0066   21.3598 H   0  0  0  0  0  0
  -28.4538  -13.6557   21.8527 H   0  0  0  0  0  0
  -25.2752   -9.5686   22.4775 H   0  0  0  0  0  0
  -24.0000   -7.4629   22.7465 H   0  0  0  0  0  0
  -21.0843   -8.8762   19.8949 H   0  0  0  0  0  0
  -22.3673  -10.9679   19.6188 H   0  0  0  0  0  0
  -21.2023   -7.6166   23.9725 H   0  0  0  0  0  0
  -21.1485   -6.0538   25.9083 H   0  0  0  0  0  0
  -22.0591   -2.7622   23.2837 H   0  0  0  0  0  0
  -22.4105  -11.9871   22.4825 H   0  0  0  0  0  0
  -21.1119  -13.1246   22.2637 H   0  0  0  0  0  0
  -24.6477  -15.8307   20.5172 H   0  0  0  0  0  0
  -26.2658  -15.6332   20.0706 H   0  0  0  0  0  0
  -26.7151  -32.5496   23.1122 H   0  0  0  0  0  0
  -25.0048  -33.9759   25.0438 H   0  0  0  0  0  0
  -22.7026  -31.3020   21.4011 H   0  0  0  0  0  0
  -23.3733  -35.9645   23.3316 H   0  0  0  0  0  0
  -24.3575  -36.8909   22.2053 H   0  0  0  0  0  0
  -23.7247  -37.6502   23.6660 H   0  0  0  0  0  0
  -26.0633  -31.5777   20.5954 H   0  0  0  0  0  0
  -26.8293  -30.8668   21.9871 H   0  0  0  0  0  0
  -28.1179  -29.0641   21.1441 H   0  0  0  0  0  0
  -26.0326  -25.9210   19.0548 H   0  0  0  0  0  0
  -23.9715  -27.2707   19.0614 H   0  0  0  0  0  0
  -23.7444  -30.5862   19.4041 H   0  0  0  0  0  0
  -22.7457  -29.2395   19.8631 H   0  0  0  0  0  0
  -25.1290  -36.1930   25.0817 H   0  0  0  0  0  0
  -20.9960  -28.3244   24.1420 H   0  0  0  0  0  0
  -20.5627  -26.2295   23.3611 H   0  0  0  0  0  0
  -21.6629  -26.7424   22.1229 H   0  0  0  0  0  0
  -19.6897  -25.6292   21.1233 H   0  0  0  0  0  0
  -19.6668  -27.3195   20.6739 H   0  0  0  0  0  0
  -17.4181  -26.6669   21.4025 H   0  0  0  0  0  0
  -18.0324  -26.0072   22.9023 H   0  0  0  0  0  0
  -19.7938  -30.7254   24.2278 H   0  0  0  0  0  0
  -17.5024  -31.6269   24.5168 H   0  0  0  0  0  0
  -15.5354  -30.3001   23.7646 H   0  0  0  0  0  0
  -15.8663  -28.0828   22.7065 H   0  0  0  0  0  0
  -24.5905  -30.7084   25.7795 H   0  0  0  0  0  0
  -24.8975  -32.2890   26.4921 H   0  0  0  0  0  0
  -25.8104  -30.8865   27.0217 H   0  0  0  0  0  0
  -26.2899  -29.6768   24.1181 H   0  0  0  0  0  0
  -27.4075  -29.7268   25.4604 H   0  0  0  0  0  0
  -27.8737  -30.4309   23.9308 H   0  0  0  0  0  0
  -27.2662  -33.3607   26.2088 H   0  0  0  0  0  0
  -28.3868  -32.6908   25.0334 H   0  0  0  0  0  0
  -28.0729  -31.8444   26.5400 H   0  0  0  0  0  0
  -28.2596  -38.0095   24.7502 H   0  0  0  0  0  0
  -28.1059  -36.2623   24.6306 H   0  0  0  0  0  0
  -27.2298  -37.1480   25.8873 H   0  0  0  0  0  0
  -20.9314  -29.8789   21.6945 H   0  0  0  0  0  0
  -26.0159  -38.2842   24.1426 H   0  0  0  0  0  0
  -31.3938  -20.9295   19.1562 H   0  0  0  0  0  0
  -30.6499  -24.6026   18.6860 H   0  0  0  0  0  0
  -29.8359  -23.7193   17.3863 H   0  0  0  0  0  0
  -31.4896  -23.3146   17.8310 H   0  0  0  0  0  0
  -29.1599  -19.5833   22.2172 H   0  0  0  0  0  0
  -30.8182  -19.5874   21.7488 H   0  0  0  0  0  0
  -30.0530  -18.2632   19.6009 H   0  0  0  0  0  0
  -28.5565  -18.0120   20.4590 H   0  0  0  0  0  0
  -27.8241  -24.2888   18.8956 H   0  0  0  0  0  0
  -26.9910  -23.7310   20.3150 H   0  0  0  0  0  0
  -31.3896  -17.0796   21.2567 H   0  0  0  0  0  0
  -30.0927  -17.0809   22.4115 H   0  0  0  0  0  0
  -29.4743  -25.1801   21.0182 H   0  0  0  0  0  0
  -27.8876  -25.3787   21.6699 H   0  0  0  0  0  0
  -28.9305  -15.3578   21.2015 H   0  0  0  0  0  0
  1 25  1  0  0  0
  1 30  2  0  0  0
  1 82  1  0  0  0
  2  3  1  0  0  0
  2 25  1  0  0  0
  2 83  1  0  0  0
  2 84  1  0  0  0
  3  4  1  0  0  0
  3 85  1  0  0  0
  3 86  1  0  0  0
  4  5  1  0  0  0
  4 87  1  0  0  0
  4 88  1  0  0  0
  5  6  1  0  0  0
  5 26  1  0  0  0
  5 89  1  0  0  0
  6 25  1  0  0  0
  6 90  1  0  0  0
  6 91  1  0  0  0
  7  8  2  0  0  0
  7 26  1  0  0  0
  7 29  1  0  0  0
  8  9  1  0  0  0
  8 22  1  0  0  0
  9 10  1  0  0  0
  9 27  2  0  0  0
 10 11  2  0  0  0
 10 15  1  0  0  0
 11 12  1  0  0  0
 11 92  1  0  0  0
 12 13  2  0  0  0
 12 93  1  0  0  0
 13 14  1  0  0  0
 13 31  1  0  0  0
 14 15  2  0  0  0
 14 94  1  0  0  0
 15 95  1  0  0  0
 16 17  2  0  0  0
 16 21  1  0  0  0
 16 31  1  0  0  0
 17 18  1  0  0  0
 17 96  1  0  0  0
 18 19  2  0  0  0
 18 97  1  0  0  0
 19 20  1  0  0  0
 19 24  1  0  0  0
 20 21  2  0  0  0
 20 98  1  0  0  0
 21 23  1  0  0  0
 22 28  1  0  0  0
 22 32  2  0  0  0
 26 27  1  0  0  0
 28 99  1  0  0  0
 28100  1  0  0  0
 29101  1  0  0  0
 29102  1  0  0  0
 33 34  1  0  0  0
 33 66  1  0  0  0
 33 70  2  0  0  0
 34 36  1  0  0  0
 34 59  1  0  0  0
 34103  1  0  0  0
 35 44  2  0  0  0
 35 45  1  0  0  0
 35 68  1  0  0  0
 36 56  1  0  0  0
 36104  1  0  0  0
 37 39  1  0  0  0
 37 47  1  0  0  0
 37 66  1  0  0  0
 37105  1  0  0  0
 38 43  2  0  0  0
 38 46  1  0  0  0
 38 47  1  0  0  0
 39 64  1  0  0  0
 39 67  2  0  0  0
 40 52  1  0  0  0
 40 53  2  0  0  0
 40 58  1  0  0  0
 41106  1  0  0  0
 41107  1  0  0  0
 41108  1  0  0  0
 41 48  1  0  0  0
 42 43  1  0  0  0
 42 66  1  0  0  0
 42109  1  0  0  0
 42110  1  0  0  0
 43 44  1  0  0  0
 44111  1  0  0  0
 45 46  2  0  0  0
 45112  1  0  0  0
 46113  1  0  0  0
 47114  1  0  0  0
 47115  1  0  0  0
 48 56  1  0  0  0
 48 65  1  0  0  0
 48116  1  0  0  0
 49 50  1  0  0  0
 49 53  1  0  0  0
 49 64  1  0  0  0
 49117  1  0  0  0
 50 51  1  0  0  0
 50118  1  0  0  0
 50119  1  0  0  0
 51 52  1  0  0  0
 51120  1  0  0  0
 51121  1  0  0  0
 52122  1  0  0  0
 52123  1  0  0  0
 53 54  1  0  0  0
 54 55  2  0  0  0
 54124  1  0  0  0
 55 57  1  0  0  0
 55125  1  0  0  0
 56 69  2  0  0  0
 57 58  2  0  0  0
 57126  1  0  0  0
 58127  1  0  0  0
 59 60  1  0  0  0
 59 61  1  0  0  0
 59 62  1  0  0  0
 60128  1  0  0  0
 60129  1  0  0  0
 60130  1  0  0  0
 61131  1  0  0  0
 61132  1  0  0  0
 61133  1  0  0  0
 62134  1  0  0  0
 62135  1  0  0  0
 62136  1  0  0  0
 63 65  1  0  0  0
 63137  1  0  0  0
 63138  1  0  0  0
 63139  1  0  0  0
 64140  1  0  0  0
 65141  1  0  0  0
 68 79  1  0  0  0
 71 72  1  0  0  0
 71 73  2  0  0  0
 71142  1  0  0  0
 72 75  1  0  0  0
 72 80  2  0  0  0
 73 74  1  0  0  0
 73 81  1  0  0  0
 74143  1  0  0  0
 74144  1  0  0  0
 74145  1  0  0  0
 75 76  1  0  0  0
 75146  1  0  0  0
 75147  1  0  0  0
 76 78  1  0  0  0
 76148  1  0  0  0
 76149  1  0  0  0
 77 79  1  0  0  0
 77 81  1  0  0  0
 77150  1  0  0  0
 77151  1  0  0  0
 78 82  1  0  0  0
 78152  1  0  0  0
 78153  1  0  0  0
 79154  1  0  0  0
 79155  1  0  0  0
 80 81  1  0  0  0
 82156  1  0  0  0
M  ISO  4   1 100  68 101  79 101  82 100
M  END
> <chiral flag>
0

> <version>
0

> <s_m_source_file>
/data/baiqing/PycharmProjects/Reinvent-master-3.2/result/LINK_invent/BTK/process_docking_weight1_custom_sum_contain_oxygen_bond_distance_aromatic_linkinvent_7_9_3/rearranged_h_0045.sdf

> <i_m_source_file_index>
1

> <r_mmod_Potential_Energy-OPLS-2005>
-76.3907089233398

> <r_mmod_Stretch_Energy-OPLS-2005>
53.9353485107422

> <r_mmod_Bend_Energy-OPLS-2005>
118.897552490234

> <r_mmod_Torsional_Energy-OPLS-2005>
234.504104614258

> <r_mmod_Improper_Torsional_Energy-OPLS-2005>
3.99392104148865

> <r_mmod_Van_der_Waal_Energy-OPLS-2005>
115.043029785156

> <r_mmod_Electrostatic_Energy-OPLS-2005>
-408.039276123047

> <r_mmod_Solvation_Energy-OPLS-2005>
-220.123107910156

> <b_mmod_Minimization_Converged-OPLS-2005>
0

> <r_mmod_RMS_Derivative-OPLS-2005>
2.05350875854492

$$$$
1
                    3D
 Structure written by MMmdl.
171179  0  0  1  0            999 V2000
  -30.7709  -14.3369   20.7227 C   0  0  0  0  0  0
  -30.4175  -12.2995   19.3616 C   0  0  0  0  0  0
  -29.4719  -12.5515   18.1743 C   0  0  0  0  0  0
  -28.0020  -12.3912   18.6051 C   0  0  0  0  0  0
  -27.6711  -13.1984   19.8888 C   0  0  2  0  0  0
  -28.7164  -12.9183   20.9928 C   0  0  0  0  0  0
  -25.2636  -13.8144   20.5719 C   0  0  0  0  0  0
  -24.1870  -13.0453   20.9203 C   0  0  0  0  0  0
  -24.6402  -11.6906   20.8770 C   0  0  0  0  0  0
  -23.9054  -10.4293   21.0423 C   0  0  0  0  0  0
  -24.3608   -9.4208   21.9200 C   0  0  0  0  0  0
  -23.6296   -8.2234   22.0755 C   0  0  0  0  0  0
  -22.4290   -8.0271   21.3537 C   0  0  0  0  0  0
  -21.9925   -9.0243   20.4643 C   0  0  0  0  0  0
  -22.7229  -10.2137   20.3068 C   0  0  0  0  0  0
  -21.6844   -6.0759   22.5296 C   0  0  0  0  0  0
  -21.3986   -6.5661   23.8227 C   0  0  0  0  0  0
  -21.3659   -5.6807   24.9189 C   0  0  0  0  0  0
  -21.6050   -4.3073   24.7233 C   0  0  0  0  0  0
  -21.8816   -3.8167   23.4358 C   0  0  0  0  0  0
  -21.9192   -4.6990   22.3410 C   0  0  0  0  0  0
  -22.7885  -13.5253   21.1879 C   0  0  0  0  0  0
  -22.1654   -4.2168   21.0988 F   0  0  0  0  0  0
  -21.5649   -3.4542   25.7736 F   0  0  0  0  0  0
  -30.0501  -13.2207   20.4466 N   0  0  0  0  0  0
  -26.3088  -12.9292   20.3468 N   0  0  0  0  0  0
  -25.9331  -11.6461   20.5805 N   0  0  0  0  0  0
  -22.0530  -12.8220   22.0414 N   0  0  0  0  0  0
  -25.4433  -15.1848   20.4057 N   0  0  0  0  0  0
  -31.7567  -14.6700   20.0553 O   0  0  0  0  0  0
  -21.6644   -6.8882   21.4244 O   0  0  0  0  0  0
  -22.3579  -14.5586   20.6749 O   0  0  0  0  0  0
  -24.6109  -31.8696   23.2139 C   0  0  0  0  0  0
  -25.9016  -32.4834   23.8423 C   0  0  1  0  0  0
  -27.2466  -27.4637   20.1017 C   0  0  0  0  0  0
  -25.5889  -33.8632   24.2350 N   0  0  0  0  0  0
  -23.4004  -30.4914   21.5515 C   0  0  2  0  0  0
  -24.8529  -28.9625   20.1163 C   0  0  0  0  0  0
  -22.7405  -29.4651   22.4996 C   0  0  0  0  0  0
  -18.0269  -28.1374   22.8486 C   0  0  0  0  0  0
  -24.1474  -36.7315   23.2646 C   0  0  0  0  0  0
  -25.9259  -30.8453   21.3634 C   0  0  0  0  0  0
  -26.0091  -29.4796   20.7150 C   0  0  0  0  0  0
  -27.2098  -28.7358   20.7123 C   0  0  0  0  0  0
  -26.0780  -26.9571   19.4935 C   0  0  0  0  0  0
  -24.8806  -27.6968   19.5041 C   0  0  0  0  0  0
  -23.6097  -29.8220   20.1664 C   0  0  0  0  0  0
  -25.4101  -36.3118   24.0337 C   0  0  1  0  0  0
  -20.5856  -28.3645   23.1330 C   0  0  2  0  0  0
  -20.6740  -26.9367   22.5448 C   0  0  0  0  0  0
  -19.5743  -26.6362   21.5218 C   0  0  0  0  0  0
  -18.1909  -26.7936   22.1598 C   0  0  0  0  0  0
  -19.1520  -28.8826   23.2907 C   0  0  0  0  0  0
  -18.9453  -30.1438   23.8910 C   0  0  0  0  0  0
  -17.6451  -30.6573   24.0562 C   0  0  0  0  0  0
  -25.9024  -34.9482   23.5143 C   0  0  0  0  0  0
  -16.5339  -29.9078   23.6321 C   0  0  0  0  0  0
  -16.7259  -28.6492   23.0338 C   0  0  0  0  0  0
  -26.4458  -31.6598   25.0731 C   0  0  0  0  0  0
  -25.3727  -31.3653   26.1458 C   0  0  0  0  0  0
  -27.0305  -30.3061   24.6069 C   0  0  0  0  0  0
  -27.6014  -32.4329   25.7519 C   0  0  0  0  0  0
  -27.5573  -37.1818   24.8473 C   0  0  0  0  0  0
  -21.4139  -29.3012   22.3726 N   0  0  0  0  0  0
  -26.4297  -37.3796   23.9399 N   0  0  0  0  0  0
  -24.6634  -31.0822   22.1019 N   0  0  0  0  0  0
  -23.4200  -28.8200   23.3034 O   0  0  0  0  0  0
  -28.3961  -26.7112   20.0986 O   0  0  0  0  0  0
  -26.5579  -34.8939   22.4702 O   0  0  0  0  0  0
  -23.5300  -32.1426   23.7532 O   0  0  0  0  0  0
  -31.3833  -23.6434   21.9897 C   0  0  0  0  0  0
  -31.1985  -22.5901   21.0557 C   0  0  0  0  0  0
  -29.3637  -23.6901   20.1800 C   0  0  0  0  0  0
  -29.5286  -24.7442   21.1191 C   0  0  0  0  0  0
  -32.4922  -23.6291   23.0275 C   0  0  0  0  0  0
  -32.8509  -18.5941   20.2909 C   0  0  0  0  0  0
  -32.0229  -21.3104   21.0185 C   0  0  0  0  0  0
  -28.2101  -23.6058   19.1953 C   0  0  0  0  0  0
  -28.5182  -25.8869   21.2629 C   0  0  0  0  0  0
  -30.3827  -15.1849   21.9485 C   0  0  0  0  0  0
  -31.2581  -16.4382   22.1870 C   0  0  0  0  0  0
  -31.1326  -20.0804   21.3313 C   0  0  0  0  0  0
  -30.8344  -17.6351   21.3127 C   0  0  0  0  0  0
  -27.2160  -22.4757   19.5230 C   0  0  0  0  0  0
  -30.5566  -24.7211   22.0105 N   0  0  0  0  0  0
  -30.2151  -22.6415   20.1313 N   0  0  0  0  0  0
  -31.8158  -18.7545   21.3429 N   0  3  1  0  0  0
  -26.4730  -22.7439   20.7044 O   0  0  0  0  0  0
  -31.4556  -12.4167   19.0433 H   0  0  0  0  0  0
  -30.3236  -11.2682   19.7055 H   0  0  0  0  0  0
  -29.6991  -11.8685   17.3553 H   0  0  0  0  0  0
  -29.6326  -13.5593   17.7864 H   0  0  0  0  0  0
  -27.8195  -11.3294   18.7777 H   0  0  0  0  0  0
  -27.3367  -12.6864   17.7935 H   0  0  0  0  0  0
  -27.7364  -14.2570   19.6358 H   0  0  0  0  0  0
  -28.6821  -11.8704   21.2914 H   0  0  0  0  0  0
  -28.4705  -13.4753   21.8951 H   0  0  0  0  0  0
  -25.2753   -9.5695   22.4788 H   0  0  0  0  0  0
  -24.0015   -7.4629   22.7472 H   0  0  0  0  0  0
  -21.0864   -8.8760   19.8942 H   0  0  0  0  0  0
  -22.3682  -10.9684   19.6199 H   0  0  0  0  0  0
  -21.1953   -7.6167   23.9720 H   0  0  0  0  0  0
  -21.1491   -6.0547   25.9084 H   0  0  0  0  0  0
  -22.0605   -2.7638   23.2846 H   0  0  0  0  0  0
  -22.4096  -11.9827   22.4767 H   0  0  0  0  0  0
  -21.1157  -13.1243   22.2639 H   0  0  0  0  0  0
  -24.6923  -15.8576   20.5138 H   0  0  0  0  0  0
  -26.3127  -15.6077   20.1052 H   0  0  0  0  0  0
  -26.7094  -32.5566   23.1202 H   0  0  0  0  0  0
  -25.0061  -33.9792   25.0505 H   0  0  0  0  0  0
  -22.6868  -31.3059   21.4131 H   0  0  0  0  0  0
  -23.3744  -35.9645   23.3322 H   0  0  0  0  0  0
  -24.3560  -36.8927   22.2063 H   0  0  0  0  0  0
  -23.7237  -37.6518   23.6669 H   0  0  0  0  0  0
  -26.0299  -31.6109   20.5934 H   0  0  0  0  0  0
  -26.8163  -30.9047   21.9775 H   0  0  0  0  0  0
  -28.1020  -29.1292   21.1794 H   0  0  0  0  0  0
  -26.0804  -25.9898   19.0141 H   0  0  0  0  0  0
  -23.9926  -27.2923   19.0360 H   0  0  0  0  0  0
  -23.7128  -30.5956   19.4052 H   0  0  0  0  0  0
  -22.7377  -29.2354   19.8731 H   0  0  0  0  0  0
  -25.1289  -36.1984   25.0830 H   0  0  0  0  0  0
  -20.9960  -28.3215   24.1454 H   0  0  0  0  0  0
  -20.5603  -26.2251   23.3643 H   0  0  0  0  0  0
  -21.6619  -26.7388   22.1278 H   0  0  0  0  0  0
  -19.6895  -25.6276   21.1242 H   0  0  0  0  0  0
  -19.6714  -27.3156   20.6739 H   0  0  0  0  0  0
  -17.4213  -26.6746   21.3954 H   0  0  0  0  0  0
  -18.0244  -26.0049   22.8950 H   0  0  0  0  0  0
  -19.7931  -30.7250   24.2288 H   0  0  0  0  0  0
  -17.5009  -31.6250   24.5176 H   0  0  0  0  0  0
  -15.5337  -30.2982   23.7641 H   0  0  0  0  0  0
  -15.8655  -28.0810   22.7051 H   0  0  0  0  0  0
  -24.6054  -30.6800   25.7838 H   0  0  0  0  0  0
  -24.8706  -32.2750   26.4754 H   0  0  0  0  0  0
  -25.8124  -30.9033   27.0306 H   0  0  0  0  0  0
  -26.2849  -29.6829   24.1127 H   0  0  0  0  0  0
  -27.4099  -29.7285   25.4505 H   0  0  0  0  0  0
  -27.8664  -30.4402   23.9201 H   0  0  0  0  0  0
  -27.2599  -33.3595   26.2144 H   0  0  0  0  0  0
  -28.3811  -32.6949   25.0356 H   0  0  0  0  0  0
  -28.0704  -31.8434   26.5404 H   0  0  0  0  0  0
  -28.2632  -38.0068   24.7461 H   0  0  0  0  0  0
  -28.1022  -36.2606   24.6383 H   0  0  0  0  0  0
  -27.2281  -37.1554   25.8871 H   0  0  0  0  0  0
  -20.9291  -29.8752   21.6960 H   0  0  0  0  0  0
  -26.0189  -38.2881   24.1392 H   0  0  0  0  0  0
  -33.4447  -23.8857   22.5624 H   0  0  0  0  0  0
  -32.5892  -22.6456   23.4882 H   0  0  0  0  0  0
  -32.2976  -24.3439   23.8281 H   0  0  0  0  0  0
  -33.7316  -19.1991   20.5078 H   0  0  0  0  0  0
  -32.4609  -18.8879   19.3152 H   0  0  0  0  0  0
  -33.1897  -17.5597   20.2176 H   0  0  0  0  0  0
  -32.8707  -21.3540   21.7002 H   0  0  0  0  0  0
  -32.4462  -21.2396   20.0169 H   0  0  0  0  0  0
  -28.6418  -23.4264   18.2104 H   0  0  0  0  0  0
  -27.6881  -24.5517   19.1049 H   0  0  0  0  0  0
  -28.7957  -26.5171   22.1103 H   0  0  0  0  0  0
  -27.5552  -25.4404   21.5171 H   0  0  0  0  0  0
  -29.3395  -15.4916   21.8684 H   0  0  0  0  0  0
  -30.4564  -14.5305   22.8186 H   0  0  0  0  0  0
  -32.3096  -16.1934   22.0351 H   0  0  0  0  0  0
  -31.1731  -16.7238   23.2359 H   0  0  0  0  0  0
  -30.3258  -20.0448   20.5962 H   0  0  0  0  0  0
  -30.6513  -20.2291   22.3002 H   0  0  0  0  0  0
  -29.8599  -17.9722   21.6716 H   0  0  0  0  0  0
  -30.6717  -17.3288   20.2768 H   0  0  0  0  0  0
  -27.7326  -21.5178   19.6167 H   0  0  0  0  0  0
  -26.5160  -22.3661   18.6943 H   0  0  0  0  0  0
  -32.2928  -18.6924   22.2316 H   0  0  0  0  0  0
  -27.0218  -22.5259   21.4513 H   0  0  0  0  0  0
  1 25  1  0  0  0
  1 30  2  0  0  0
  1 80  1  0  0  0
  2  3  1  0  0  0
  2 25  1  0  0  0
  2 89  1  0  0  0
  2 90  1  0  0  0
  3  4  1  0  0  0
  3 91  1  0  0  0
  3 92  1  0  0  0
  4  5  1  0  0  0
  4 93  1  0  0  0
  4 94  1  0  0  0
  5  6  1  0  0  0
  5 26  1  0  0  0
  5 95  1  0  0  0
  6 25  1  0  0  0
  6 96  1  0  0  0
  6 97  1  0  0  0
  7  8  2  0  0  0
  7 26  1  0  0  0
  7 29  1  0  0  0
  8  9  1  0  0  0
  8 22  1  0  0  0
  9 10  1  0  0  0
  9 27  2  0  0  0
 10 11  2  0  0  0
 10 15  1  0  0  0
 11 12  1  0  0  0
 11 98  1  0  0  0
 12 13  2  0  0  0
 12 99  1  0  0  0
 13 14  1  0  0  0
 13 31  1  0  0  0
 14 15  2  0  0  0
 14100  1  0  0  0
 15101  1  0  0  0
 16 17  2  0  0  0
 16 21  1  0  0  0
 16 31  1  0  0  0
 17 18  1  0  0  0
 17102  1  0  0  0
 18 19  2  0  0  0
 18103  1  0  0  0
 19 20  1  0  0  0
 19 24  1  0  0  0
 20 21  2  0  0  0
 20104  1  0  0  0
 21 23  1  0  0  0
 22 28  1  0  0  0
 22 32  2  0  0  0
 26 27  1  0  0  0
 28105  1  0  0  0
 28106  1  0  0  0
 29107  1  0  0  0
 29108  1  0  0  0
 33 34  1  0  0  0
 33 66  1  0  0  0
 33 70  2  0  0  0
 34 36  1  0  0  0
 34 59  1  0  0  0
 34109  1  0  0  0
 35 44  2  0  0  0
 35 45  1  0  0  0
 35 68  1  0  0  0
 36 56  1  0  0  0
 36110  1  0  0  0
 37 39  1  0  0  0
 37 47  1  0  0  0
 37 66  1  0  0  0
 37111  1  0  0  0
 38 43  2  0  0  0
 38 46  1  0  0  0
 38 47  1  0  0  0
 39 64  1  0  0  0
 39 67  2  0  0  0
 40 52  1  0  0  0
 40 53  2  0  0  0
 40 58  1  0  0  0
 41112  1  0  0  0
 41113  1  0  0  0
 41114  1  0  0  0
 41 48  1  0  0  0
 42 43  1  0  0  0
 42 66  1  0  0  0
 42115  1  0  0  0
 42116  1  0  0  0
 43 44  1  0  0  0
 44117  1  0  0  0
 45 46  2  0  0  0
 45118  1  0  0  0
 46119  1  0  0  0
 47120  1  0  0  0
 47121  1  0  0  0
 48 56  1  0  0  0
 48 65  1  0  0  0
 48122  1  0  0  0
 49 50  1  0  0  0
 49 53  1  0  0  0
 49 64  1  0  0  0
 49123  1  0  0  0
 50 51  1  0  0  0
 50124  1  0  0  0
 50125  1  0  0  0
 51 52  1  0  0  0
 51126  1  0  0  0
 51127  1  0  0  0
 52128  1  0  0  0
 52129  1  0  0  0
 53 54  1  0  0  0
 54 55  2  0  0  0
 54130  1  0  0  0
 55 57  1  0  0  0
 55131  1  0  0  0
 56 69  2  0  0  0
 57 58  2  0  0  0
 57132  1  0  0  0
 58133  1  0  0  0
 59 60  1  0  0  0
 59 61  1  0  0  0
 59 62  1  0  0  0
 60134  1  0  0  0
 60135  1  0  0  0
 60136  1  0  0  0
 61137  1  0  0  0
 61138  1  0  0  0
 61139  1  0  0  0
 62140  1  0  0  0
 62141  1  0  0  0
 62142  1  0  0  0
 63 65  1  0  0  0
 63143  1  0  0  0
 63144  1  0  0  0
 63145  1  0  0  0
 64146  1  0  0  0
 65147  1  0  0  0
 68 79  1  0  0  0
 71 72  2  0  0  0
 71 75  1  0  0  0
 71 85  1  0  0  0
 72 77  1  0  0  0
 72 86  1  0  0  0
 73 74  1  0  0  0
 73 78  1  0  0  0
 73 86  2  0  0  0
 74 79  1  0  0  0
 74 85  2  0  0  0
 75148  1  0  0  0
 75149  1  0  0  0
 75150  1  0  0  0
 76151  1  0  0  0
 76152  1  0  0  0
 76153  1  0  0  0
 76 87  1  0  0  0
 77 82  1  0  0  0
 77154  1  0  0  0
 77155  1  0  0  0
 78 84  1  0  0  0
 78156  1  0  0  0
 78157  1  0  0  0
 79158  1  0  0  0
 79159  1  0  0  0
 80 81  1  0  0  0
 80160  1  0  0  0
 80161  1  0  0  0
 81 83  1  0  0  0
 81162  1  0  0  0
 81163  1  0  0  0
 82 87  1  0  0  0
 82164  1  0  0  0
 82165  1  0  0  0
 83 87  1  0  0  0
 83166  1  0  0  0
 83167  1  0  0  0
 84 88  1  0  0  0
 84168  1  0  0  0
 84169  1  0  0  0
 87170  1  0  0  0
 88171  1  0  0  0
M  CHG  1  87   1
M  ISO  4   1 100  68 101  79 101  80 100
M  END
> <chiral flag>
0

> <version>
0

> <s_m_source_file>
/data/baiqing/PycharmProjects/Reinvent-master-3.2/result/LINK_invent/BTK/process_docking_weight1_custom_sum_contain_oxygen_bond_distance_aromatic_linkinvent_7_9_3/rearranged_h_0045.sdf

> <i_m_source_file_index>
2

> <r_mmod_Potential_Energy-OPLS-2005>
-129.485198974609

> <r_mmod_Stretch_Energy-OPLS-2005>
37.7216186523438

> <r_mmod_Bend_Energy-OPLS-2005>
96.2033843994141

> <r_mmod_Torsional_Energy-OPLS-2005>
196.51953125

> <r_mmod_Improper_Torsional_Energy-OPLS-2005>
1.99816823005676

> <r_mmod_Van_der_Waal_Energy-OPLS-2005>
158.083374023438

> <r_mmod_Electrostatic_Energy-OPLS-2005>
-176.513107299805

> <r_mmod_Solvation_Energy-OPLS-2005>
-451.063659667969

> <b_mmod_Minimization_Converged-OPLS-2005>
0

> <r_mmod_RMS_Derivative-OPLS-2005>
2.9468936920166

$$$$
2
                    3D
 Structure written by MMmdl.
151159  0  0  1  0            999 V2000
  -30.5771  -14.8757   20.4408 C   0  0  0  0  0  0
  -30.4399  -12.5430   19.4872 C   0  0  0  0  0  0
  -29.5172  -12.5216   18.2467 C   0  0  0  0  0  0
  -28.0478  -12.3208   18.6639 C   0  0  0  0  0  0
  -27.6343  -13.2424   19.8415 C   0  0  2  0  0  0
  -28.6803  -13.2378   20.9775 C   0  0  0  0  0  0
  -25.2478  -13.8200   20.5705 C   0  0  0  0  0  0
  -24.1790  -13.0427   20.9222 C   0  0  0  0  0  0
  -24.6400  -11.6912   20.8751 C   0  0  0  0  0  0
  -23.9079  -10.4285   21.0412 C   0  0  0  0  0  0
  -24.3624   -9.4203   21.9192 C   0  0  0  0  0  0
  -23.6285   -8.2241   22.0768 C   0  0  0  0  0  0
  -22.4272   -8.0277   21.3549 C   0  0  0  0  0  0
  -21.9916   -9.0254   20.4652 C   0  0  0  0  0  0
  -22.7255  -10.2126   20.3055 C   0  0  0  0  0  0
  -21.6850   -6.0731   22.5281 C   0  0  0  0  0  0
  -21.4012   -6.5637   23.8214 C   0  0  0  0  0  0
  -21.3661   -5.6790   24.9177 C   0  0  0  0  0  0
  -21.6039   -4.3052   24.7231 C   0  0  0  0  0  0
  -21.8814   -3.8143   23.4354 C   0  0  0  0  0  0
  -21.9197   -4.6958   22.3409 C   0  0  0  0  0  0
  -22.7802  -13.5196   21.1869 C   0  0  0  0  0  0
  -22.1663   -4.2136   21.0991 F   0  0  0  0  0  0
  -21.5621   -3.4546   25.7752 F   0  0  0  0  0  0
  -29.9652  -13.6302   20.3840 N   0  0  0  0  0  0
  -26.2907  -12.9424   20.3252 N   0  0  0  0  0  0
  -25.9335  -11.6555   20.5740 N   0  0  0  0  0  0
  -22.0441  -12.8186   22.0412 N   0  0  0  0  0  0
  -25.4130  -15.1928   20.4126 N   0  0  0  0  0  0
  -31.7772  -14.9498   20.1628 O   0  0  0  0  0  0
  -21.6634   -6.8874   21.4242 O   0  0  0  0  0  0
  -22.3490  -14.5501   20.6703 O   0  0  0  0  0  0
  -24.6425  -31.8461   23.1930 C   0  0  0  0  0  0
  -25.9209  -32.4702   23.8297 C   0  0  1  0  0  0
  -27.2160  -27.1582   20.1416 C   0  0  0  0  0  0
  -25.5965  -33.8507   24.2213 N   0  0  0  0  0  0
  -23.4448  -30.4702   21.5372 C   0  0  2  0  0  0
  -24.8952  -28.9092   20.1068 C   0  0  0  0  0  0
  -22.7559  -29.4570   22.4856 C   0  0  0  0  0  0
  -18.0308  -28.1397   22.8477 C   0  0  0  0  0  0
  -24.1497  -36.7256   23.2638 C   0  0  0  0  0  0
  -26.0016  -30.7266   21.3919 C   0  0  0  0  0  0
  -26.0723  -29.3419   20.7309 C   0  0  0  0  0  0
  -27.2327  -28.4811   20.7376 C   0  0  0  0  0  0
  -26.0158  -26.8388   19.4616 C   0  0  0  0  0  0
  -24.8800  -27.6706   19.4558 C   0  0  0  0  0  0
  -23.6704  -29.8068   20.1541 C   0  0  0  0  0  0
  -25.4124  -36.3029   24.0314 C   0  0  1  0  0  0
  -20.5922  -28.3728   23.1224 C   0  0  2  0  0  0
  -20.6790  -26.9428   22.5399 C   0  0  0  0  0  0
  -19.5763  -26.6383   21.5207 C   0  0  0  0  0  0
  -18.1944  -26.7934   22.1622 C   0  0  0  0  0  0
  -19.1566  -28.8878   23.2850 C   0  0  0  0  0  0
  -18.9478  -30.1468   23.8886 C   0  0  0  0  0  0
  -17.6474  -30.6591   24.0555 C   0  0  0  0  0  0
  -25.9072  -34.9405   23.5066 C   0  0  0  0  0  0
  -16.5367  -29.9082   23.6331 C   0  0  0  0  0  0
  -16.7291  -28.6498   23.0358 C   0  0  0  0  0  0
  -26.4533  -31.6566   25.0733 C   0  0  0  0  0  0
  -25.3723  -31.3758   26.1433 C   0  0  0  0  0  0
  -27.0390  -30.2962   24.6304 C   0  0  0  0  0  0
  -27.6064  -32.4331   25.7521 C   0  0  0  0  0  0
  -27.5573  -37.1788   24.8461 C   0  0  0  0  0  0
  -21.4257  -29.3057   22.3596 N   0  0  0  0  0  0
  -26.4287  -37.3739   23.9402 N   0  0  0  0  0  0
  -24.7158  -31.0341   22.0958 N   0  0  0  0  0  0
  -23.4204  -28.8101   23.2991 O   0  0  0  0  0  0
  -28.2496  -26.1561   20.2339 O   0  0  0  0  0  0
  -26.5649  -34.8889   22.4638 O   0  0  0  0  0  0
  -23.5551  -32.1326   23.7164 O   0  0  0  0  0  0
  -29.5014  -21.2351   19.3048 C   0  0  0  0  0  0
  -29.1237  -20.3742   20.3800 C   0  0  0  0  0  0
  -28.5647  -21.1720   21.4273 C   0  0  0  0  0  0
  -28.6680  -23.2696   20.2608 C   0  0  0  0  0  0
  -28.0619  -20.5136   22.6968 C   0  0  0  0  0  0
  -29.0278  -18.7328   20.2887 C   0  0  0  0  0  0
  -27.8678  -24.6799   19.9623 C   0  0  0  0  0  0
  -30.1682  -17.5709   20.6089 C   0  0  0  0  0  0
  -29.2691  -22.6011   19.2502 N   0  0  0  0  0  0
  -28.3485  -22.5390   21.3537 N   0  0  0  0  0  0
  -29.8053  -16.0454   20.6050 N   0  0  0  0  0  0
  -31.4757  -12.6899   19.1777 H   0  0  0  0  0  0
  -30.4161  -11.5823   20.0040 H   0  0  0  0  0  0
  -29.8243  -11.7307   17.5609 H   0  0  0  0  0  0
  -29.6161  -13.4596   17.6980 H   0  0  0  0  0  0
  -27.9322  -11.2761   18.9555 H   0  0  0  0  0  0
  -27.3854  -12.4731   17.8105 H   0  0  0  0  0  0
  -27.6080  -14.2520   19.4302 H   0  0  0  0  0  0
  -28.7512  -12.2522   21.4391 H   0  0  0  0  0  0
  -28.3927  -13.9300   21.7702 H   0  0  0  0  0  0
  -25.2771   -9.5666   22.4768 H   0  0  0  0  0  0
  -23.9973   -7.4641   22.7508 H   0  0  0  0  0  0
  -21.0840   -8.8784   19.8961 H   0  0  0  0  0  0
  -22.3727  -10.9661   19.6152 H   0  0  0  0  0  0
  -21.1994   -7.6145   23.9717 H   0  0  0  0  0  0
  -21.1491   -6.0521   25.9079 H   0  0  0  0  0  0
  -22.0592   -2.7603   23.2861 H   0  0  0  0  0  0
  -22.4062  -11.9852   22.4805 H   0  0  0  0  0  0
  -21.1044  -13.1191   22.2596 H   0  0  0  0  0  0
  -24.6394  -15.8397   20.5224 H   0  0  0  0  0  0
  -26.2491  -15.6364   20.0562 H   0  0  0  0  0  0
  -26.7275  -32.5313   23.1026 H   0  0  0  0  0  0
  -25.0095  -33.9624   25.0349 H   0  0  0  0  0  0
  -22.7480  -31.2972   21.3866 H   0  0  0  0  0  0
  -23.3754  -35.9594   23.3293 H   0  0  0  0  0  0
  -24.3577  -36.8892   22.2052 H   0  0  0  0  0  0
  -23.7262  -37.6454   23.6678 H   0  0  0  0  0  0
  -26.1580  -31.4842   20.6226 H   0  0  0  0  0  0
  -26.8722  -30.7720   22.0344 H   0  0  0  0  0  0
  -28.1240  -28.8033   21.2572 H   0  0  0  0  0  0
  -25.9004  -25.9043   18.9355 H   0  0  0  0  0  0
  -23.9870  -27.3391   18.9443 H   0  0  0  0  0  0
  -23.8027  -30.5846   19.4012 H   0  0  0  0  0  0
  -22.7867  -29.2465   19.8436 H   0  0  0  0  0  0
  -25.1315  -36.1856   25.0808 H   0  0  0  0  0  0
  -21.0022  -28.3325   24.1341 H   0  0  0  0  0  0
  -20.5672  -26.2343   23.3622 H   0  0  0  0  0  0
  -21.6656  -26.7425   22.1203 H   0  0  0  0  0  0
  -19.6925  -25.6286   21.1252 H   0  0  0  0  0  0
  -19.6700  -27.3182   20.6728 H   0  0  0  0  0  0
  -17.4209  -26.6674   21.4028 H   0  0  0  0  0  0
  -18.0353  -26.0085   22.9032 H   0  0  0  0  0  0
  -19.7955  -30.7284   24.2258 H   0  0  0  0  0  0
  -17.5027  -31.6271   24.5156 H   0  0  0  0  0  0
  -15.5365  -30.2978   23.7660 H   0  0  0  0  0  0
  -15.8693  -28.0802   22.7092 H   0  0  0  0  0  0
  -24.5913  -30.7088   25.7765 H   0  0  0  0  0  0
  -24.8896  -32.2941   26.4792 H   0  0  0  0  0  0
  -25.8013  -30.8986   27.0255 H   0  0  0  0  0  0
  -26.3005  -29.6694   24.1293 H   0  0  0  0  0  0
  -27.3986  -29.7248   25.4871 H   0  0  0  0  0  0
  -27.8923  -30.4193   23.9631 H   0  0  0  0  0  0
  -27.2656  -33.3648   26.2052 H   0  0  0  0  0  0
  -28.3908  -32.6870   25.0377 H   0  0  0  0  0  0
  -28.0697  -31.8486   26.5481 H   0  0  0  0  0  0
  -28.2583  -38.0089   24.7491 H   0  0  0  0  0  0
  -28.1079  -36.2616   24.6314 H   0  0  0  0  0  0
  -27.2285  -37.1461   25.8862 H   0  0  0  0  0  0
  -20.9463  -29.8769   21.6778 H   0  0  0  0  0  0
  -26.0152  -38.2807   24.1403 H   0  0  0  0  0  0
  -29.9155  -20.8036   18.4051 H   0  0  0  0  0  0
  -27.0865  -20.0594   22.5236 H   0  0  0  0  0  0
  -27.9651  -21.2320   23.5108 H   0  0  0  0  0  0
  -28.7493  -19.7338   23.0252 H   0  0  0  0  0  0
  -28.7001  -18.5425   19.2660 H   0  0  0  0  0  0
  -28.1553  -18.4650   20.8843 H   0  0  0  0  0  0
  -26.9068  -24.5264   20.4547 H   0  0  0  0  0  0
  -27.6577  -24.6324   18.8939 H   0  0  0  0  0  0
  -30.5752  -17.7742   21.6000 H   0  0  0  0  0  0
  -31.0050  -17.7114   19.9233 H   0  0  0  0  0  0
  -28.8287  -15.8535   20.7743 H   0  0  0  0  0  0
  1 25  1  0  0  0
  1 30  2  0  0  0
  1 81  1  0  0  0
  2  3  1  0  0  0
  2 25  1  0  0  0
  2 82  1  0  0  0
  2 83  1  0  0  0
  3  4  1  0  0  0
  3 84  1  0  0  0
  3 85  1  0  0  0
  4  5  1  0  0  0
  4 86  1  0  0  0
  4 87  1  0  0  0
  5  6  1  0  0  0
  5 26  1  0  0  0
  5 88  1  0  0  0
  6 25  1  0  0  0
  6 89  1  0  0  0
  6 90  1  0  0  0
  7  8  2  0  0  0
  7 26  1  0  0  0
  7 29  1  0  0  0
  8  9  1  0  0  0
  8 22  1  0  0  0
  9 10  1  0  0  0
  9 27  2  0  0  0
 10 11  2  0  0  0
 10 15  1  0  0  0
 11 12  1  0  0  0
 11 91  1  0  0  0
 12 13  2  0  0  0
 12 92  1  0  0  0
 13 14  1  0  0  0
 13 31  1  0  0  0
 14 15  2  0  0  0
 14 93  1  0  0  0
 15 94  1  0  0  0
 16 17  2  0  0  0
 16 21  1  0  0  0
 16 31  1  0  0  0
 17 18  1  0  0  0
 17 95  1  0  0  0
 18 19  2  0  0  0
 18 96  1  0  0  0
 19 20  1  0  0  0
 19 24  1  0  0  0
 20 21  2  0  0  0
 20 97  1  0  0  0
 21 23  1  0  0  0
 22 28  1  0  0  0
 22 32  2  0  0  0
 26 27  1  0  0  0
 28 98  1  0  0  0
 28 99  1  0  0  0
 29100  1  0  0  0
 29101  1  0  0  0
 33 34  1  0  0  0
 33 66  1  0  0  0
 33 70  2  0  0  0
 34 36  1  0  0  0
 34 59  1  0  0  0
 34102  1  0  0  0
 35 44  2  0  0  0
 35 45  1  0  0  0
 35 68  1  0  0  0
 36 56  1  0  0  0
 36103  1  0  0  0
 37 39  1  0  0  0
 37 47  1  0  0  0
 37 66  1  0  0  0
 37104  1  0  0  0
 38 43  2  0  0  0
 38 46  1  0  0  0
 38 47  1  0  0  0
 39 64  1  0  0  0
 39 67  2  0  0  0
 40 52  1  0  0  0
 40 53  2  0  0  0
 40 58  1  0  0  0
 41105  1  0  0  0
 41106  1  0  0  0
 41107  1  0  0  0
 41 48  1  0  0  0
 42 43  1  0  0  0
 42 66  1  0  0  0
 42108  1  0  0  0
 42109  1  0  0  0
 43 44  1  0  0  0
 44110  1  0  0  0
 45 46  2  0  0  0
 45111  1  0  0  0
 46112  1  0  0  0
 47113  1  0  0  0
 47114  1  0  0  0
 48 56  1  0  0  0
 48 65  1  0  0  0
 48115  1  0  0  0
 49 50  1  0  0  0
 49 53  1  0  0  0
 49 64  1  0  0  0
 49116  1  0  0  0
 50 51  1  0  0  0
 50117  1  0  0  0
 50118  1  0  0  0
 51 52  1  0  0  0
 51119  1  0  0  0
 51120  1  0  0  0
 52121  1  0  0  0
 52122  1  0  0  0
 53 54  1  0  0  0
 54 55  2  0  0  0
 54123  1  0  0  0
 55 57  1  0  0  0
 55124  1  0  0  0
 56 69  2  0  0  0
 57 58  2  0  0  0
 57125  1  0  0  0
 58126  1  0  0  0
 59 60  1  0  0  0
 59 61  1  0  0  0
 59 62  1  0  0  0
 60127  1  0  0  0
 60128  1  0  0  0
 60129  1  0  0  0
 61130  1  0  0  0
 61131  1  0  0  0
 61132  1  0  0  0
 62133  1  0  0  0
 62134  1  0  0  0
 62135  1  0  0  0
 63 65  1  0  0  0
 63136  1  0  0  0
 63137  1  0  0  0
 63138  1  0  0  0
 64139  1  0  0  0
 65140  1  0  0  0
 68 77  1  0  0  0
 71 72  2  0  0  0
 71 79  1  0  0  0
 71141  1  0  0  0
 72 73  1  0  0  0
 72 76  1  0  0  0
 73 75  1  0  0  0
 73 80  2  0  0  0
 74 77  1  0  0  0
 74 79  2  0  0  0
 74 80  1  0  0  0
 75142  1  0  0  0
 75143  1  0  0  0
 75144  1  0  0  0
 76 78  1  0  0  0
 76145  1  0  0  0
 76146  1  0  0  0
 77147  1  0  0  0
 77148  1  0  0  0
 78 81  1  0  0  0
 78149  1  0  0  0
 78150  1  0  0  0
 81151  1  0  0  0
M  ISO  4   1 100  68 101  77 101  81 100
M  END
> <chiral flag>
0

> <version>
0

> <s_m_source_file>
/data/baiqing/PycharmProjects/Reinvent-master-3.2/result/LINK_invent/BTK/process_docking_weight1_custom_sum_contain_oxygen_bond_distance_aromatic_linkinvent_7_9_3/rearranged_h_0045.sdf

> <i_m_source_file_index>
3

> <r_mmod_Potential_Energy-OPLS-2005>
-3.08358550071716

> <r_mmod_Stretch_Energy-OPLS-2005>
201.374572753906

> <r_mmod_Bend_Energy-OPLS-2005>
246.576446533203

> <r_mmod_Torsional_Energy-OPLS-2005>
219.929809570312

> <r_mmod_Improper_Torsional_Energy-OPLS-2005>
11.7913522720337

> <r_mmod_Van_der_Waal_Energy-OPLS-2005>
145.13134765625

> <r_mmod_Electrostatic_Energy-OPLS-2005>
-747.092956542969

> <r_mmod_Solvation_Energy-OPLS-2005>
-243.331848144531

> <b_mmod_Minimization_Converged-OPLS-2005>
0

> <r_mmod_RMS_Derivative-OPLS-2005>
1.13184225559235

$$$$
3
                    3D
 Structure written by MMmdl.
166174  0  0  1  0            999 V2000
  -30.7070  -14.4181   20.5863 C   0  0  0  0  0  0
  -30.4180  -12.2723   19.4238 C   0  0  0  0  0  0
  -29.5018  -12.5252   18.2103 C   0  0  0  0  0  0
  -28.0169  -12.4054   18.6067 C   0  0  0  0  0  0
  -27.6679  -13.2136   19.8895 C   0  0  2  0  0  0
  -28.7061  -12.9459   21.0057 C   0  0  0  0  0  0
  -25.2548  -13.8163   20.5662 C   0  0  0  0  0  0
  -24.1822  -13.0416   20.9115 C   0  0  0  0  0  0
  -24.6407  -11.6900   20.8687 C   0  0  0  0  0  0
  -23.9068  -10.4286   21.0385 C   0  0  0  0  0  0
  -24.3615   -9.4194   21.9151 C   0  0  0  0  0  0
  -23.6292   -8.2227   22.0726 C   0  0  0  0  0  0
  -22.4274   -8.0262   21.3509 C   0  0  0  0  0  0
  -21.9902   -9.0243   20.4615 C   0  0  0  0  0  0
  -22.7243  -10.2118   20.3032 C   0  0  0  0  0  0
  -21.6875   -6.0726   22.5289 C   0  0  0  0  0  0
  -21.4028   -6.5635   23.8218 C   0  0  0  0  0  0
  -21.3656   -5.6775   24.9180 C   0  0  0  0  0  0
  -21.6052   -4.3025   24.7255 C   0  0  0  0  0  0
  -21.8815   -3.8128   23.4362 C   0  0  0  0  0  0
  -21.9191   -4.6951   22.3418 C   0  0  0  0  0  0
  -22.7839  -13.5167   21.1856 C   0  0  0  0  0  0
  -22.1650   -4.2139   21.0982 F   0  0  0  0  0  0
  -21.5646   -3.4493   25.7756 F   0  0  0  0  0  0
  -30.0445  -13.2408   20.4610 N   0  0  0  0  0  0
  -26.3048  -12.9382   20.3419 N   0  0  0  0  0  0
  -25.9333  -11.6534   20.5731 N   0  0  0  0  0  0
  -22.0536  -12.8129   22.0435 N   0  0  0  0  0  0
  -25.4219  -15.1903   20.4114 N   0  0  0  0  0  0
  -31.8090  -14.6348   20.0700 O   0  0  0  0  0  0
  -21.6645   -6.8855   21.4234 O   0  0  0  0  0  0
  -22.3492  -14.5470   20.6734 O   0  0  0  0  0  0
  -24.6189  -31.8679   23.2105 C   0  0  0  0  0  0
  -25.9070  -32.4805   23.8401 C   0  0  1  0  0  0
  -27.2278  -27.4107   20.0675 C   0  0  0  0  0  0
  -25.5894  -33.8605   24.2307 N   0  0  0  0  0  0
  -23.4055  -30.4988   21.5517 C   0  0  2  0  0  0
  -24.8487  -28.9696   20.1118 C   0  0  0  0  0  0
  -22.7422  -29.4685   22.4941 C   0  0  0  0  0  0
  -18.0281  -28.1404   22.8483 C   0  0  0  0  0  0
  -24.1480  -36.7321   23.2623 C   0  0  0  0  0  0
  -25.9426  -30.8214   21.3743 C   0  0  0  0  0  0
  -26.0145  -29.4570   20.7140 C   0  0  0  0  0  0
  -27.2032  -28.6834   20.6935 C   0  0  0  0  0  0
  -26.0286  -26.9490   19.4667 C   0  0  0  0  0  0
  -24.8510  -27.7137   19.4918 C   0  0  0  0  0  0
  -23.6174  -29.8460   20.1627 C   0  0  0  0  0  0
  -25.4091  -36.3105   24.0332 C   0  0  1  0  0  0
  -20.5868  -28.3705   23.1293 C   0  0  2  0  0  0
  -20.6767  -26.9429   22.5408 C   0  0  0  0  0  0
  -19.5741  -26.6407   21.5207 C   0  0  0  0  0  0
  -18.1926  -26.7952   22.1617 C   0  0  0  0  0  0
  -19.1530  -28.8866   23.2896 C   0  0  0  0  0  0
  -18.9461  -30.1461   23.8924 C   0  0  0  0  0  0
  -17.6469  -30.6597   24.0586 C   0  0  0  0  0  0
  -25.9041  -34.9470   23.5115 C   0  0  0  0  0  0
  -16.5358  -29.9117   23.6314 C   0  0  0  0  0  0
  -16.7271  -28.6535   23.0325 C   0  0  0  0  0  0
  -26.4480  -31.6589   25.0734 C   0  0  0  0  0  0
  -25.3736  -31.3718   26.1474 C   0  0  0  0  0  0
  -27.0289  -30.3004   24.6152 C   0  0  0  0  0  0
  -27.6058  -32.4313   25.7484 C   0  0  0  0  0  0
  -27.5609  -37.1761   24.8423 C   0  0  0  0  0  0
  -21.4147  -29.3068   22.3686 N   0  0  0  0  0  0
  -26.4257  -37.3821   23.9468 N   0  0  0  0  0  0
  -24.6733  -31.0779   22.1024 N   0  0  0  0  0  0
  -23.4182  -28.8223   23.2985 O   0  0  0  0  0  0
  -28.3981  -26.6569   20.0683 O   0  0  0  0  0  0
  -26.5642  -34.8931   22.4706 O   0  0  0  0  0  0
  -23.5376  -32.1446   23.7488 O   0  0  0  0  0  0
  -30.8452  -23.6220   21.4163 C   0  0  0  0  0  0
  -31.0358  -22.5375   22.2841 C   0  0  0  0  0  0
  -29.7798  -23.5426   20.5054 C   0  0  0  0  0  0
  -29.2024  -21.4940   21.3908 C   0  0  0  0  0  0
  -33.4892  -22.2143   25.3489 C   0  0  0  0  0  0
  -32.3099  -22.3714   23.0977 C   0  0  0  0  0  0
  -29.6589  -24.5362   19.3468 C   0  0  0  0  0  0
  -28.4261  -20.1816   21.2885 C   0  0  0  0  0  0
  -32.1424  -22.4193   24.6284 C   0  0  0  0  0  0
  -29.2139  -19.1188   20.4833 C   0  0  0  0  0  0
  -28.9469  -17.6457   20.8679 C   0  0  0  0  0  0
  -30.2558  -16.8300   20.9682 C   0  0  0  0  0  0
  -28.4021  -25.4358   19.2911 C   0  0  0  0  0  0
  -30.1927  -21.4946   22.2774 N   0  0  0  0  0  0
  -28.9699  -22.4564   20.4939 N   0  0  0  0  0  0
  -30.0028  -15.3998   21.1625 N   0  0  0  0  0  0
  -31.4702  -12.3477   19.1395 H   0  0  0  0  0  0
  -30.2864  -11.2575   19.8053 H   0  0  0  0  0  0
  -29.7368  -11.8214   17.4100 H   0  0  0  0  0  0
  -29.6832  -13.5209   17.8041 H   0  0  0  0  0  0
  -27.7916  -11.3500   18.7555 H   0  0  0  0  0  0
  -27.3897  -12.7319   17.7792 H   0  0  0  0  0  0
  -27.7189  -14.2694   19.6237 H   0  0  0  0  0  0
  -28.6669  -11.9009   21.3129 H   0  0  0  0  0  0
  -28.4793  -13.5128   21.9092 H   0  0  0  0  0  0
  -25.2786   -9.5648   22.4685 H   0  0  0  0  0  0
  -24.0020   -7.4601   22.7421 H   0  0  0  0  0  0
  -21.0845   -8.8734   19.8905 H   0  0  0  0  0  0
  -22.3706  -10.9630   19.6104 H   0  0  0  0  0  0
  -21.2018   -7.6136   23.9715 H   0  0  0  0  0  0
  -21.1497   -6.0516   25.9076 H   0  0  0  0  0  0
  -22.0608   -2.7599   23.2873 H   0  0  0  0  0  0
  -22.4243  -11.9820   22.4784 H   0  0  0  0  0  0
  -21.1134  -13.1091   22.2664 H   0  0  0  0  0  0
  -24.6489  -15.8366   20.5196 H   0  0  0  0  0  0
  -26.2807  -15.6377   20.1214 H   0  0  0  0  0  0
  -26.7132  -32.5510   23.1163 H   0  0  0  0  0  0
  -24.9958  -33.9752   25.0390 H   0  0  0  0  0  0
  -22.6961  -31.3180   21.4159 H   0  0  0  0  0  0
  -23.3779  -35.9604   23.3143 H   0  0  0  0  0  0
  -24.3619  -36.9104   22.2070 H   0  0  0  0  0  0
  -23.7152  -37.6443   23.6741 H   0  0  0  0  0  0
  -26.0669  -31.5945   20.6153 H   0  0  0  0  0  0
  -26.8260  -30.8644   21.9990 H   0  0  0  0  0  0
  -28.1049  -29.0620   21.1540 H   0  0  0  0  0  0
  -25.9570  -26.0018   18.9561 H   0  0  0  0  0  0
  -23.9551  -27.3312   19.0217 H   0  0  0  0  0  0
  -23.7418  -30.6320   19.4165 H   0  0  0  0  0  0
  -22.7363  -29.2847   19.8481 H   0  0  0  0  0  0
  -25.1242  -36.1942   25.0816 H   0  0  0  0  0  0
  -20.9962  -28.3289   24.1415 H   0  0  0  0  0  0
  -20.5669  -26.2324   23.3613 H   0  0  0  0  0  0
  -21.6638  -26.7469   22.1200 H   0  0  0  0  0  0
  -19.6903  -25.6326   21.1221 H   0  0  0  0  0  0
  -19.6670  -27.3233   20.6751 H   0  0  0  0  0  0
  -17.4183  -26.6711   21.4026 H   0  0  0  0  0  0
  -18.0327  -26.0093   22.9015 H   0  0  0  0  0  0
  -19.7934  -30.7273   24.2306 H   0  0  0  0  0  0
  -17.5018  -31.6270   24.5205 H   0  0  0  0  0  0
  -15.5358  -30.3039   23.7608 H   0  0  0  0  0  0
  -15.8674  -28.0878   22.6995 H   0  0  0  0  0  0
  -24.5901  -30.7069   25.7817 H   0  0  0  0  0  0
  -24.8941  -32.2879   26.4937 H   0  0  0  0  0  0
  -25.8087  -30.8870   27.0219 H   0  0  0  0  0  0
  -26.2827  -29.6768   24.1201 H   0  0  0  0  0  0
  -27.3998  -29.7255   25.4650 H   0  0  0  0  0  0
  -27.8714  -30.4263   23.9345 H   0  0  0  0  0  0
  -27.2677  -33.3619   26.2057 H   0  0  0  0  0  0
  -28.3875  -32.6851   25.0308 H   0  0  0  0  0  0
  -28.0708  -31.8424   26.5403 H   0  0  0  0  0  0
  -28.2459  -38.0217   24.7727 H   0  0  0  0  0  0
  -28.1269  -36.2785   24.5896 H   0  0  0  0  0  0
  -27.2387  -37.0986   25.8819 H   0  0  0  0  0  0
  -20.9313  -29.8822   21.6941 H   0  0  0  0  0  0
  -26.0126  -38.2851   24.1641 H   0  0  0  0  0  0
  -31.5545  -24.4374   21.3713 H   0  0  0  0  0  0
  -33.4042  -22.3886   26.4222 H   0  0  0  0  0  0
  -34.2464  -22.8998   24.9633 H   0  0  0  0  0  0
  -33.8664  -21.1995   25.2083 H   0  0  0  0  0  0
  -33.0140  -23.1422   22.7839 H   0  0  0  0  0  0
  -32.7615  -21.4218   22.8076 H   0  0  0  0  0  0
  -29.6479  -23.9241   18.4430 H   0  0  0  0  0  0
  -30.5635  -25.1368   19.2718 H   0  0  0  0  0  0
  -27.4404  -20.3480   20.8519 H   0  0  0  0  0  0
  -28.2477  -19.8262   22.3066 H   0  0  0  0  0  0
  -31.7156  -23.3817   24.9188 H   0  0  0  0  0  0
  -31.4321  -21.6565   24.9567 H   0  0  0  0  0  0
  -30.2753  -19.3093   20.6488 H   0  0  0  0  0  0
  -29.0655  -19.2673   19.4109 H   0  0  0  0  0  0
  -28.2925  -17.2024   20.1153 H   0  0  0  0  0  0
  -28.4106  -17.5881   21.8186 H   0  0  0  0  0  0
  -30.8830  -17.1977   21.7804 H   0  0  0  0  0  0
  -30.8291  -16.9766   20.0505 H   0  0  0  0  0  0
  -27.5516  -24.7951   19.5223 H   0  0  0  0  0  0
  -28.2965  -25.7452   18.2489 H   0  0  0  0  0  0
  -29.1564  -15.1252   21.6427 H   0  0  0  0  0  0
  1 25  1  0  0  0
  1 30  2  0  0  0
  1 86  1  0  0  0
  2  3  1  0  0  0
  2 25  1  0  0  0
  2 87  1  0  0  0
  2 88  1  0  0  0
  3  4  1  0  0  0
  3 89  1  0  0  0
  3 90  1  0  0  0
  4  5  1  0  0  0
  4 91  1  0  0  0
  4 92  1  0  0  0
  5  6  1  0  0  0
  5 26  1  0  0  0
  5 93  1  0  0  0
  6 25  1  0  0  0
  6 94  1  0  0  0
  6 95  1  0  0  0
  7  8  2  0  0  0
  7 26  1  0  0  0
  7 29  1  0  0  0
  8  9  1  0  0  0
  8 22  1  0  0  0
  9 10  1  0  0  0
  9 27  2  0  0  0
 10 11  2  0  0  0
 10 15  1  0  0  0
 11 12  1  0  0  0
 11 96  1  0  0  0
 12 13  2  0  0  0
 12 97  1  0  0  0
 13 14  1  0  0  0
 13 31  1  0  0  0
 14 15  2  0  0  0
 14 98  1  0  0  0
 15 99  1  0  0  0
 16 17  2  0  0  0
 16 21  1  0  0  0
 16 31  1  0  0  0
 17 18  1  0  0  0
 17100  1  0  0  0
 18 19  2  0  0  0
 18101  1  0  0  0
 19 20  1  0  0  0
 19 24  1  0  0  0
 20 21  2  0  0  0
 20102  1  0  0  0
 21 23  1  0  0  0
 22 28  1  0  0  0
 22 32  2  0  0  0
 26 27  1  0  0  0
 28103  1  0  0  0
 28104  1  0  0  0
 29105  1  0  0  0
 29106  1  0  0  0
 33 34  1  0  0  0
 33 66  1  0  0  0
 33 70  2  0  0  0
 34 36  1  0  0  0
 34 59  1  0  0  0
 34107  1  0  0  0
 35 44  2  0  0  0
 35 45  1  0  0  0
 35 68  1  0  0  0
 36 56  1  0  0  0
 36108  1  0  0  0
 37 39  1  0  0  0
 37 47  1  0  0  0
 37 66  1  0  0  0
 37109  1  0  0  0
 38 43  2  0  0  0
 38 46  1  0  0  0
 38 47  1  0  0  0
 39 64  1  0  0  0
 39 67  2  0  0  0
 40 52  1  0  0  0
 40 53  2  0  0  0
 40 58  1  0  0  0
 41110  1  0  0  0
 41111  1  0  0  0
 41112  1  0  0  0
 41 48  1  0  0  0
 42 43  1  0  0  0
 42 66  1  0  0  0
 42113  1  0  0  0
 42114  1  0  0  0
 43 44  1  0  0  0
 44115  1  0  0  0
 45 46  2  0  0  0
 45116  1  0  0  0
 46117  1  0  0  0
 47118  1  0  0  0
 47119  1  0  0  0
 48 56  1  0  0  0
 48 65  1  0  0  0
 48120  1  0  0  0
 49 50  1  0  0  0
 49 53  1  0  0  0
 49 64  1  0  0  0
 49121  1  0  0  0
 50 51  1  0  0  0
 50122  1  0  0  0
 50123  1  0  0  0
 51 52  1  0  0  0
 51124  1  0  0  0
 51125  1  0  0  0
 52126  1  0  0  0
 52127  1  0  0  0
 53 54  1  0  0  0
 54 55  2  0  0  0
 54128  1  0  0  0
 55 57  1  0  0  0
 55129  1  0  0  0
 56 69  2  0  0  0
 57 58  2  0  0  0
 57130  1  0  0  0
 58131  1  0  0  0
 59 60  1  0  0  0
 59 61  1  0  0  0
 59 62  1  0  0  0
 60132  1  0  0  0
 60133  1  0  0  0
 60134  1  0  0  0
 61135  1  0  0  0
 61136  1  0  0  0
 61137  1  0  0  0
 62138  1  0  0  0
 62139  1  0  0  0
 62140  1  0  0  0
 63 65  1  0  0  0
 63141  1  0  0  0
 63142  1  0  0  0
 63143  1  0  0  0
 64144  1  0  0  0
 65145  1  0  0  0
 68 83  1  0  0  0
 71 72  2  0  0  0
 71 73  1  0  0  0
 71146  1  0  0  0
 72 76  1  0  0  0
 72 84  1  0  0  0
 73 77  1  0  0  0
 73 85  2  0  0  0
 74 78  1  0  0  0
 74 84  2  0  0  0
 74 85  1  0  0  0
 75 79  1  0  0  0
 75147  1  0  0  0
 75148  1  0  0  0
 75149  1  0  0  0
 76 79  1  0  0  0
 76150  1  0  0  0
 76151  1  0  0  0
 77 83  1  0  0  0
 77152  1  0  0  0
 77153  1  0  0  0
 78 80  1  0  0  0
 78154  1  0  0  0
 78155  1  0  0  0
 79156  1  0  0  0
 79157  1  0  0  0
 80 81  1  0  0  0
 80158  1  0  0  0
 80159  1  0  0  0
 81 82  1  0  0  0
 81160  1  0  0  0
 81161  1  0  0  0
 82 86  1  0  0  0
 82162  1  0  0  0
 82163  1  0  0  0
 83164  1  0  0  0
 83165  1  0  0  0
 86166  1  0  0  0
M  ISO  4   1 100  68 101  83 101  86 100
M  END
> <chiral flag>
0

> <version>
0

> <s_m_source_file>
/data/baiqing/PycharmProjects/Reinvent-master-3.2/result/LINK_invent/BTK/process_docking_weight1_custom_sum_contain_oxygen_bond_distance_aromatic_linkinvent_7_9_3/rearranged_h_0045.sdf

> <i_m_source_file_index>
4

> <r_mmod_Potential_Energy-OPLS-2005>
-450.698028564453

> <r_mmod_Stretch_Energy-OPLS-2005>
37.5068778991699

> <r_mmod_Bend_Energy-OPLS-2005>
107.508361816406

> <r_mmod_Torsional_Energy-OPLS-2005>
186.012924194336

> <r_mmod_Improper_Torsional_Energy-OPLS-2005>
7.37764644622803

> <r_mmod_Van_der_Waal_Energy-OPLS-2005>
166.483703613281

> <r_mmod_Electrostatic_Energy-OPLS-2005>
-736.831176757812

> <r_mmod_Solvation_Energy-OPLS-2005>
-231.232894897461

> <b_mmod_Minimization_Converged-OPLS-2005>
0

> <r_mmod_RMS_Derivative-OPLS-2005>
5.24404525756836

$$$$
4
                    3D
 Structure written by MMmdl.
165173  0  0  1  0            999 V2000
  -30.7397  -14.3882   20.7228 C   0  0  0  0  0  0
  -30.4388  -12.3207   19.3896 C   0  0  0  0  0  0
  -29.4960  -12.5416   18.1939 C   0  0  0  0  0  0
  -28.0198  -12.3903   18.6105 C   0  0  0  0  0  0
  -27.6744  -13.2011   19.8871 C   0  0  2  0  0  0
  -28.7133  -12.9334   20.9970 C   0  0  0  0  0  0
  -25.2666  -13.8154   20.5671 C   0  0  0  0  0  0
  -24.1888  -13.0441   20.9163 C   0  0  0  0  0  0
  -24.6429  -11.6907   20.8731 C   0  0  0  0  0  0
  -23.9089  -10.4288   21.0402 C   0  0  0  0  0  0
  -24.3627   -9.4207   21.9194 C   0  0  0  0  0  0
  -23.6292   -8.2253   22.0762 C   0  0  0  0  0  0
  -22.4285   -8.0290   21.3537 C   0  0  0  0  0  0
  -21.9916   -9.0275   20.4650 C   0  0  0  0  0  0
  -22.7256  -10.2153   20.3058 C   0  0  0  0  0  0
  -21.6855   -6.0745   22.5279 C   0  0  0  0  0  0
  -21.4012   -6.5645   23.8213 C   0  0  0  0  0  0
  -21.3652   -5.6792   24.9170 C   0  0  0  0  0  0
  -21.6051   -4.3055   24.7218 C   0  0  0  0  0  0
  -21.8819   -3.8156   23.4332 C   0  0  0  0  0  0
  -21.9196   -4.6976   22.3399 C   0  0  0  0  0  0
  -22.7910  -13.5259   21.1832 C   0  0  0  0  0  0
  -22.1669   -4.2156   21.0973 F   0  0  0  0  0  0
  -21.5629   -3.4545   25.7730 F   0  0  0  0  0  0
  -30.0470  -13.2499   20.4603 N   0  0  0  0  0  0
  -26.3096  -12.9307   20.3404 N   0  0  0  0  0  0
  -25.9358  -11.6472   20.5765 N   0  0  0  0  0  0
  -22.0519  -12.8254   22.0364 N   0  0  0  0  0  0
  -25.4398  -15.1857   20.4058 N   0  0  0  0  0  0
  -31.7728  -14.6771   20.1117 O   0  0  0  0  0  0
  -21.6643   -6.8893   21.4238 O   0  0  0  0  0  0
  -22.3608  -14.5568   20.6683 O   0  0  0  0  0  0
  -24.6142  -31.8675   23.2086 C   0  0  0  0  0  0
  -25.9031  -32.4807   23.8386 C   0  0  1  0  0  0
  -27.2448  -27.4396   20.0797 C   0  0  0  0  0  0
  -25.5909  -33.8613   24.2333 N   0  0  0  0  0  0
  -23.4016  -30.4923   21.5483 C   0  0  2  0  0  0
  -24.8480  -28.9592   20.1118 C   0  0  0  0  0  0
  -22.7411  -29.4633   22.4961 C   0  0  0  0  0  0
  -18.0283  -28.1360   22.8495 C   0  0  0  0  0  0
  -24.1484  -36.7309   23.2647 C   0  0  0  0  0  0
  -25.9310  -30.8311   21.3633 C   0  0  0  0  0  0
  -26.0052  -29.4669   20.7126 C   0  0  0  0  0  0
  -27.1977  -28.7106   20.6993 C   0  0  0  0  0  0
  -26.0554  -26.9376   19.4948 C   0  0  0  0  0  0
  -24.8699  -27.6945   19.5026 C   0  0  0  0  0  0
  -23.6111  -29.8264   20.1619 C   0  0  0  0  0  0
  -25.4108  -36.3111   24.0351 C   0  0  1  0  0  0
  -20.5876  -28.3602   23.1348 C   0  0  2  0  0  0
  -20.6763  -26.9341   22.5437 C   0  0  0  0  0  0
  -19.5741  -26.6354   21.5229 C   0  0  0  0  0  0
  -18.1905  -26.7908   22.1618 C   0  0  0  0  0  0
  -19.1529  -28.8798   23.2921 C   0  0  0  0  0  0
  -18.9456  -30.1415   23.8900 C   0  0  0  0  0  0
  -17.6458  -30.6566   24.0535 C   0  0  0  0  0  0
  -25.9050  -34.9476   23.5139 C   0  0  0  0  0  0
  -16.5352  -29.9052   23.6333 C   0  0  0  0  0  0
  -16.7270  -28.6484   23.0341 C   0  0  0  0  0  0
  -26.4475  -31.6588   25.0710 C   0  0  0  0  0  0
  -25.3765  -31.3702   26.1472 C   0  0  0  0  0  0
  -27.0312  -30.3056   24.6043 C   0  0  0  0  0  0
  -27.6052  -32.4302   25.7471 C   0  0  0  0  0  0
  -27.5580  -37.1799   24.8469 C   0  0  0  0  0  0
  -21.4129  -29.2995   22.3751 N   0  0  0  0  0  0
  -26.4293  -37.3799   23.9424 N   0  0  0  0  0  0
  -24.6667  -31.0787   22.0986 N   0  0  0  0  0  0
  -23.4214  -28.8156   23.2962 O   0  0  0  0  0  0
  -28.4485  -26.7599   20.1100 O   0  0  0  0  0  0
  -26.5611  -34.8919   22.4703 O   0  0  0  0  0  0
  -23.5339  -32.1385   23.7520 O   0  0  0  0  0  0
  -30.0549  -24.6472   21.2041 C   0  0  0  0  0  0
  -29.1461  -23.1259   19.5633 C   0  0  0  0  0  0
  -29.3043  -24.4481   20.0288 C   0  0  0  0  0  0
  -30.6104  -23.5283   21.8546 C   0  0  0  0  0  0
  -29.7144  -22.0613   20.2925 C   0  0  0  0  0  0
  -31.3953  -23.6848   23.1397 C   0  0  0  0  0  0
  -32.0640  -17.9699   20.3362 C   0  0  0  0  0  0
  -28.6988  -25.6240   19.2691 C   0  0  0  0  0  0
  -29.5528  -20.6177   19.8236 C   0  0  0  0  0  0
  -30.2114  -15.3478   21.8156 C   0  0  0  0  0  0
  -29.1561  -19.6081   20.9271 C   0  0  0  0  0  0
  -31.0590  -16.6090   22.1304 C   0  0  0  0  0  0
  -30.3082  -18.9868   21.7590 C   0  0  0  0  0  0
  -30.4548  -22.2649   21.4047 N   0  0  0  0  0  0
  -30.8562  -17.7302   21.1606 N   0  3  1  0  0  0
  -31.4741  -12.4650   19.0721 H   0  0  0  0  0  0
  -30.3803  -11.2920   19.7455 H   0  0  0  0  0  0
  -29.7311  -11.8387   17.3936 H   0  0  0  0  0  0
  -29.6593  -13.5401   17.7844 H   0  0  0  0  0  0
  -27.8268  -11.3295   18.7827 H   0  0  0  0  0  0
  -27.3671  -12.6908   17.7882 H   0  0  0  0  0  0
  -27.7364  -14.2578   19.6259 H   0  0  0  0  0  0
  -28.6872  -11.8869   21.3009 H   0  0  0  0  0  0
  -28.4550  -13.4953   21.8928 H   0  0  0  0  0  0
  -25.2770   -9.5691   22.4764 H   0  0  0  0  0  0
  -24.0007   -7.4648   22.7475 H   0  0  0  0  0  0
  -21.0850   -8.8803   19.8946 H   0  0  0  0  0  0
  -22.3723  -10.9698   19.6165 H   0  0  0  0  0  0
  -21.1992   -7.6151   23.9711 H   0  0  0  0  0  0
  -21.1475   -6.0523   25.9070 H   0  0  0  0  0  0
  -22.0599   -2.7615   23.2833 H   0  0  0  0  0  0
  -22.4109  -11.9921   22.4778 H   0  0  0  0  0  0
  -21.1123  -13.1291   22.2512 H   0  0  0  0  0  0
  -24.6776  -15.8449   20.5119 H   0  0  0  0  0  0
  -26.2936  -15.6173   20.0748 H   0  0  0  0  0  0
  -26.7092  -32.5520   23.1141 H   0  0  0  0  0  0
  -25.0083  -33.9775   25.0488 H   0  0  0  0  0  0
  -22.6889  -31.3078   21.4118 H   0  0  0  0  0  0
  -23.3759  -35.9631   23.3335 H   0  0  0  0  0  0
  -24.3578  -36.8888   22.2054 H   0  0  0  0  0  0
  -23.7217  -37.6521   23.6642 H   0  0  0  0  0  0
  -26.0481  -31.5941   20.5914 H   0  0  0  0  0  0
  -26.8193  -30.8839   21.9808 H   0  0  0  0  0  0
  -28.0920  -29.1041   21.1628 H   0  0  0  0  0  0
  -25.9907  -25.9601   19.0461 H   0  0  0  0  0  0
  -23.9761  -27.2964   19.0409 H   0  0  0  0  0  0
  -23.7206  -30.6020   19.4052 H   0  0  0  0  0  0
  -22.7309  -29.2533   19.8613 H   0  0  0  0  0  0
  -25.1284  -36.1986   25.0850 H   0  0  0  0  0  0
  -20.9988  -28.3145   24.1452 H   0  0  0  0  0  0
  -20.5650  -26.2186   23.3604 H   0  0  0  0  0  0
  -21.6615  -26.7364   22.1200 H   0  0  0  0  0  0
  -19.6884  -25.6280   21.1199 H   0  0  0  0  0  0
  -19.6684  -27.3204   20.6803 H   0  0  0  0  0  0
  -17.4184  -26.6691   21.4012 H   0  0  0  0  0  0
  -18.0251  -26.0045   22.9006 H   0  0  0  0  0  0
  -19.7935  -30.7232   24.2240 H   0  0  0  0  0  0
  -17.5020  -31.6235   24.5122 H   0  0  0  0  0  0
  -15.5344  -30.2931   23.7678 H   0  0  0  0  0  0
  -15.8682  -28.0809   22.7031 H   0  0  0  0  0  0
  -24.5939  -30.7034   25.7841 H   0  0  0  0  0  0
  -24.8960  -32.2848   26.4938 H   0  0  0  0  0  0
  -25.8135  -30.8876   27.0208 H   0  0  0  0  0  0
  -26.2821  -29.6798   24.1192 H   0  0  0  0  0  0
  -27.4228  -29.7317   25.4448 H   0  0  0  0  0  0
  -27.8578  -30.4442   23.9084 H   0  0  0  0  0  0
  -27.2690  -33.3602   26.2082 H   0  0  0  0  0  0
  -28.3858  -32.6861   25.0293 H   0  0  0  0  0  0
  -28.0725  -31.8401   26.5362 H   0  0  0  0  0  0
  -28.2614  -38.0086   24.7527 H   0  0  0  0  0  0
  -28.1052  -36.2616   24.6289 H   0  0  0  0  0  0
  -27.2295  -37.1458   25.8872 H   0  0  0  0  0  0
  -20.9269  -29.8760   21.7028 H   0  0  0  0  0  0
  -26.0187  -38.2878   24.1444 H   0  0  0  0  0  0
  -30.1948  -25.6450   21.5992 H   0  0  0  0  0  0
  -28.5900  -22.9380   18.6543 H   0  0  0  0  0  0
  -31.5631  -24.7349   23.3792 H   0  0  0  0  0  0
  -32.3657  -23.1933   23.0816 H   0  0  0  0  0  0
  -30.8423  -23.2315   23.9629 H   0  0  0  0  0  0
  -32.4202  -17.0452   19.8891 H   0  0  0  0  0  0
  -32.8825  -18.3757   20.9317 H   0  0  0  0  0  0
  -31.8540  -18.6526   19.5161 H   0  0  0  0  0  0
  -27.8463  -25.2599   18.7069 H   0  0  0  0  0  0
  -29.4276  -25.9352   18.5180 H   0  0  0  0  0  0
  -30.4356  -20.3093   19.2666 H   0  0  0  0  0  0
  -28.7418  -20.6185   19.0946 H   0  0  0  0  0  0
  -29.1868  -15.6394   21.5850 H   0  0  0  0  0  0
  -30.1586  -14.7582   22.7316 H   0  0  0  0  0  0
  -28.5741  -18.7953   20.4917 H   0  0  0  0  0  0
  -28.4630  -20.1083   21.6045 H   0  0  0  0  0  0
  -32.1139  -16.3441   22.2031 H   0  0  0  0  0  0
  -30.8078  -16.9287   23.1409 H   0  0  0  0  0  0
  -29.8753  -18.7712   22.7348 H   0  0  0  0  0  0
  -31.1018  -19.7056   21.9607 H   0  0  0  0  0  0
  -30.1450  -17.4072   20.5260 H   0  0  0  0  0  0
  1 25  1  0  0  0
  1 30  2  0  0  0
  1 80  1  0  0  0
  2  3  1  0  0  0
  2 25  1  0  0  0
  2 86  1  0  0  0
  2 87  1  0  0  0
  3  4  1  0  0  0
  3 88  1  0  0  0
  3 89  1  0  0  0
  4  5  1  0  0  0
  4 90  1  0  0  0
  4 91  1  0  0  0
  5  6  1  0  0  0
  5 26  1  0  0  0
  5 92  1  0  0  0
  6 25  1  0  0  0
  6 93  1  0  0  0
  6 94  1  0  0  0
  7  8  2  0  0  0
  7 26  1  0  0  0
  7 29  1  0  0  0
  8  9  1  0  0  0
  8 22  1  0  0  0
  9 10  1  0  0  0
  9 27  2  0  0  0
 10 11  2  0  0  0
 10 15  1  0  0  0
 11 12  1  0  0  0
 11 95  1  0  0  0
 12 13  2  0  0  0
 12 96  1  0  0  0
 13 14  1  0  0  0
 13 31  1  0  0  0
 14 15  2  0  0  0
 14 97  1  0  0  0
 15 98  1  0  0  0
 16 17  2  0  0  0
 16 21  1  0  0  0
 16 31  1  0  0  0
 17 18  1  0  0  0
 17 99  1  0  0  0
 18 19  2  0  0  0
 18100  1  0  0  0
 19 20  1  0  0  0
 19 24  1  0  0  0
 20 21  2  0  0  0
 20101  1  0  0  0
 21 23  1  0  0  0
 22 28  1  0  0  0
 22 32  2  0  0  0
 26 27  1  0  0  0
 28102  1  0  0  0
 28103  1  0  0  0
 29104  1  0  0  0
 29105  1  0  0  0
 33 34  1  0  0  0
 33 66  1  0  0  0
 33 70  2  0  0  0
 34 36  1  0  0  0
 34 59  1  0  0  0
 34106  1  0  0  0
 35 44  2  0  0  0
 35 45  1  0  0  0
 35 68  1  0  0  0
 36 56  1  0  0  0
 36107  1  0  0  0
 37 39  1  0  0  0
 37 47  1  0  0  0
 37 66  1  0  0  0
 37108  1  0  0  0
 38 43  2  0  0  0
 38 46  1  0  0  0
 38 47  1  0  0  0
 39 64  1  0  0  0
 39 67  2  0  0  0
 40 52  1  0  0  0
 40 53  2  0  0  0
 40 58  1  0  0  0
 41109  1  0  0  0
 41110  1  0  0  0
 41111  1  0  0  0
 41 48  1  0  0  0
 42 43  1  0  0  0
 42 66  1  0  0  0
 42112  1  0  0  0
 42113  1  0  0  0
 43 44  1  0  0  0
 44114  1  0  0  0
 45 46  2  0  0  0
 45115  1  0  0  0
 46116  1  0  0  0
 47117  1  0  0  0
 47118  1  0  0  0
 48 56  1  0  0  0
 48 65  1  0  0  0
 48119  1  0  0  0
 49 50  1  0  0  0
 49 53  1  0  0  0
 49 64  1  0  0  0
 49120  1  0  0  0
 50 51  1  0  0  0
 50121  1  0  0  0
 50122  1  0  0  0
 51 52  1  0  0  0
 51123  1  0  0  0
 51124  1  0  0  0
 52125  1  0  0  0
 52126  1  0  0  0
 53 54  1  0  0  0
 54 55  2  0  0  0
 54127  1  0  0  0
 55 57  1  0  0  0
 55128  1  0  0  0
 56 69  2  0  0  0
 57 58  2  0  0  0
 57129  1  0  0  0
 58130  1  0  0  0
 59 60  1  0  0  0
 59 61  1  0  0  0
 59 62  1  0  0  0
 60131  1  0  0  0
 60132  1  0  0  0
 60133  1  0  0  0
 61134  1  0  0  0
 61135  1  0  0  0
 61136  1  0  0  0
 62137  1  0  0  0
 62138  1  0  0  0
 62139  1  0  0  0
 63 65  1  0  0  0
 63140  1  0  0  0
 63141  1  0  0  0
 63142  1  0  0  0
 64143  1  0  0  0
 65144  1  0  0  0
 68 78  1  0  0  0
 71 73  2  0  0  0
 71 74  1  0  0  0
 71145  1  0  0  0
 72 73  1  0  0  0
 72 75  2  0  0  0
 72146  1  0  0  0
 73 78  1  0  0  0
 74 76  1  0  0  0
 74 84  2  0  0  0
 75 79  1  0  0  0
 75 84  1  0  0  0
 76147  1  0  0  0
 76148  1  0  0  0
 76149  1  0  0  0
 77150  1  0  0  0
 77151  1  0  0  0
 77152  1  0  0  0
 77 85  1  0  0  0
 78153  1  0  0  0
 78154  1  0  0  0
 79 81  1  0  0  0
 79155  1  0  0  0
 79156  1  0  0  0
 80 82  1  0  0  0
 80157  1  0  0  0
 80158  1  0  0  0
 81 83  1  0  0  0
 81159  1  0  0  0
 81160  1  0  0  0
 82 85  1  0  0  0
 82161  1  0  0  0
 82162  1  0  0  0
 83 85  1  0  0  0
 83163  1  0  0  0
 83164  1  0  0  0
 85165  1  0  0  0
M  CHG  1  85   1
M  ISO  4   1 100  68 101  78 101  80 100
M  END
> <chiral flag>
0

> <version>
0

> <s_m_source_file>
/data/baiqing/PycharmProjects/Reinvent-master-3.2/result/LINK_invent/BTK/process_docking_weight1_custom_sum_contain_oxygen_bond_distance_aromatic_linkinvent_7_9_3/rearranged_h_0045.sdf

> <i_m_source_file_index>
5

> <r_mmod_Potential_Energy-OPLS-2005>
-335.70703125

> <r_mmod_Stretch_Energy-OPLS-2005>
36.9853820800781

> <r_mmod_Bend_Energy-OPLS-2005>
111.007774353027

> <r_mmod_Torsional_Energy-OPLS-2005>
194.814361572266

> <r_mmod_Improper_Torsional_Energy-OPLS-2005>
1.63683331012726

> <r_mmod_Van_der_Waal_Energy-OPLS-2005>
161.430328369141

> <r_mmod_Electrostatic_Energy-OPLS-2005>
-439.247436523438

> <r_mmod_Solvation_Energy-OPLS-2005>
-412.257537841797

> <b_mmod_Minimization_Converged-OPLS-2005>
0

> <r_mmod_RMS_Derivative-OPLS-2005>
3.87928605079651

$$$$
5
                    3D
 Structure written by MMmdl.
177185  0  0  1  0            999 V2000
  -31.8267  -14.1897   20.0948 C   0  0  0  0  0  0
  -30.7260  -11.9937   19.4599 C   0  0  0  0  0  0
  -29.3072  -11.6891   18.3028 C   0  0  0  0  0  0
  -27.5962  -12.3817   18.3392 C   0  0  0  0  0  0
  -27.0590  -13.7416   19.5627 C   0  0  2  0  0  0
  -29.7495  -14.3044   21.2423 C   0  0  0  0  0  0
  -24.8662  -13.9334   20.5259 C   0  0  0  0  0  0
  -23.9322  -13.0634   20.9516 C   0  0  0  0  0  0
  -24.4792  -11.7443   20.8712 C   0  0  0  0  0  0
  -23.8421  -10.4387   21.0508 C   0  0  0  0  0  0
  -24.3381   -9.4371   21.9182 C   0  0  0  0  0  0
  -23.6313   -8.2232   22.0696 C   0  0  0  0  0  0
  -22.4311   -8.0094   21.3529 C   0  0  0  0  0  0
  -21.9766   -8.9887   20.4608 C   0  0  0  0  0  0
  -22.6744  -10.1913   20.3059 C   0  0  0  0  0  0
  -21.6878   -6.0661   22.5285 C   0  0  0  0  0  0
  -21.4042   -6.5612   23.8208 C   0  0  0  0  0  0
  -21.3718   -5.6786   24.9217 C   0  0  0  0  0  0
  -21.6037   -4.3030   24.7259 C   0  0  0  0  0  0
  -21.8782   -3.8108   23.4384 C   0  0  0  0  0  0
  -21.9171   -4.6906   22.3443 C   0  0  0  0  0  0
  -22.5549  -13.4883   21.2548 C   0  0  0  0  0  0
  -22.1660   -4.2118   21.1019 F   0  0  0  0  0  0
  -21.5619   -3.4514   25.7780 F   0  0  0  0  0  0
  -30.9544  -13.2924   20.5558 N   0  0  0  0  0  0
  -25.8647  -13.1451   20.1127 N   0  0  0  0  0  0
  -25.6995  -11.8097   20.3986 N   0  0  0  0  0  0
  -21.8802  -12.7641   22.1341 N   0  0  0  0  0  0
  -24.9443  -15.3155   20.3800 N   0  0  0  0  0  0
  -32.2206  -15.1584   20.6822 O   0  0  0  0  0  0
  -21.6707   -6.8721   21.4228 O   0  0  0  0  0  0
  -22.0926  -14.5084   20.7443 O   0  0  0  0  0  0
  -24.6366  -31.8496   23.1899 C   0  0  0  0  0  0
  -25.9181  -32.4712   23.8263 C   0  0  1  0  0  0
  -27.1492  -27.1386   20.1643 C   0  0  0  0  0  0
  -25.5948  -33.8520   24.2183 N   0  0  0  0  0  0
  -23.4377  -30.4757   21.5396 C   0  0  2  0  0  0
  -24.8727  -28.9081   20.1016 C   0  0  0  0  0  0
  -22.7505  -29.4585   22.4873 C   0  0  0  0  0  0
  -18.0335  -28.1390   22.8526 C   0  0  0  0  0  0
  -24.1517  -36.7270   23.2627 C   0  0  0  0  0  0
  -25.9908  -30.7252   21.3871 C   0  0  0  0  0  0
  -26.0497  -29.3390   20.7240 C   0  0  0  0  0  0
  -27.1933  -28.4666   20.7400 C   0  0  0  0  0  0
  -25.9588  -26.7996   19.5027 C   0  0  0  0  0  0
  -24.8401  -27.6530   19.4728 C   0  0  0  0  0  0
  -23.6543  -29.8123   20.1537 C   0  0  0  0  0  0
  -25.4143  -36.3028   24.0285 C   0  0  1  0  0  0
  -20.5930  -28.3702   23.1269 C   0  0  2  0  0  0
  -20.6820  -26.9433   22.5403 C   0  0  0  0  0  0
  -19.5755  -26.6385   21.5253 C   0  0  0  0  0  0
  -18.1946  -26.7932   22.1670 C   0  0  0  0  0  0
  -19.1595  -28.8868   23.2887 C   0  0  0  0  0  0
  -18.9489  -30.1485   23.8879 C   0  0  0  0  0  0
  -17.6474  -30.6582   24.0581 C   0  0  0  0  0  0
  -25.9088  -34.9397   23.5033 C   0  0  0  0  0  0
  -16.5374  -29.9072   23.6343 C   0  0  0  0  0  0
  -16.7311  -28.6500   23.0352 C   0  0  0  0  0  0
  -26.4500  -31.6585   25.0705 C   0  0  0  0  0  0
  -25.3658  -31.3833   26.1379 C   0  0  0  0  0  0
  -27.0353  -30.2969   24.6299 C   0  0  0  0  0  0
  -27.6027  -32.4360   25.7472 C   0  0  0  0  0  0
  -27.5600  -37.1771   24.8422 C   0  0  0  0  0  0
  -21.4210  -29.3060   22.3582 N   0  0  0  0  0  0
  -26.4309  -37.3744   23.9374 N   0  0  0  0  0  0
  -24.7102  -31.0387   22.0939 N   0  0  0  0  0  0
  -23.4176  -28.8117   23.2999 O   0  0  0  0  0  0
  -28.1709  -26.1491   20.2825 O   0  0  0  0  0  0
  -26.5678  -34.8873   22.4615 O   0  0  0  0  0  0
  -23.5479  -32.1350   23.7173 O   0  0  0  0  0  0
  -27.7387  -13.2806   21.8232 C   0  0  0  0  0  0
  -28.7153  -15.5283   19.4331 C   0  0  0  0  0  0
  -28.5887  -12.5558   20.5874 C   0  0  0  0  0  0
  -27.4452  -14.8690   21.7927 C   0  0  0  0  0  0
  -29.1939  -14.0307   19.1091 C   0  0  0  0  0  0
  -27.8969  -15.9430   20.6854 C   0  0  0  0  0  0
  -28.6214  -11.0332   20.9452 C   0  0  0  0  0  0
  -26.7749  -15.4124   23.0494 C   0  0  0  0  0  0
  -28.4387  -18.9229   18.7509 C   0  0  0  0  0  0
  -27.7763  -20.3573   22.1412 C   0  0  0  0  0  0
  -29.9787  -14.1903   17.7241 C   0  0  0  0  0  0
  -27.8465  -17.5654   21.0162 C   0  0  0  0  0  0
  -27.6853  -23.2642   20.5973 C   0  0  0  0  0  0
  -31.5114  -13.9458   17.6054 C   0  0  0  0  0  0
  -27.9863  -21.7123   19.9952 C   0  0  0  0  0  0
  -28.0950  -24.6799   19.7922 C   0  0  0  0  0  0
  -27.5952  -18.9207   20.0472 C   0  0  1  0  0  0
  -32.2973  -14.0528   18.8442 N   0  0  0  0  0  0
  -27.4950  -20.3767   20.6917 N   0  3  1  0  0  0
  -31.6373  -11.7536   18.9156 H   0  0  0  0  0  0
  -30.8593  -11.1181   20.0863 H   0  0  0  0  0  0
  -29.1761  -10.6086   18.2696 H   0  0  0  0  0  0
  -29.6891  -11.7622   17.2850 H   0  0  0  0  0  0
  -26.9278  -11.5229   18.3594 H   0  0  0  0  0  0
  -27.3820  -12.7843   17.3475 H   0  0  0  0  0  0
  -26.6927  -14.5186   18.8746 H   0  0  0  0  0  0
  -29.8319  -14.0143   22.3002 H   0  0  0  0  0  0
  -30.0613  -15.3390   21.4000 H   0  0  0  0  0  0
  -25.2446   -9.6072   22.4830 H   0  0  0  0  0  0
  -24.0103   -7.4697   22.7407 H   0  0  0  0  0  0
  -21.0756   -8.8182   19.8995 H   0  0  0  0  0  0
  -22.2914  -10.9406   19.6271 H   0  0  0  0  0  0
  -21.2078   -7.6136   23.9724 H   0  0  0  0  0  0
  -21.1638   -6.0549   25.9135 H   0  0  0  0  0  0
  -22.0548   -2.7568   23.2851 H   0  0  0  0  0  0
  -22.2845  -11.9508   22.5677 H   0  0  0  0  0  0
  -20.9477  -13.0480   22.4086 H   0  0  0  0  0  0
  -24.2309  -15.9185   20.7689 H   0  0  0  0  0  0
  -25.8635  -15.7377   20.3068 H   0  0  0  0  0  0
  -26.7224  -32.5281   23.0960 H   0  0  0  0  0  0
  -25.0049  -33.9680   25.0295 H   0  0  0  0  0  0
  -22.7408  -31.3030   21.3927 H   0  0  0  0  0  0
  -23.3773  -35.9612   23.3226 H   0  0  0  0  0  0
  -24.3632  -36.8972   22.2064 H   0  0  0  0  0  0
  -23.7289  -37.6438   23.6719 H   0  0  0  0  0  0
  -26.1493  -31.4868   20.6217 H   0  0  0  0  0  0
  -26.8620  -30.7622   22.0327 H   0  0  0  0  0  0
  -28.0980  -28.7910   21.2475 H   0  0  0  0  0  0
  -25.8380  -25.8317   19.0462 H   0  0  0  0  0  0
  -23.9379  -27.3205   18.9814 H   0  0  0  0  0  0
  -23.7754  -30.5890   19.3980 H   0  0  0  0  0  0
  -22.7694  -29.2488   19.8527 H   0  0  0  0  0  0
  -25.1348  -36.1834   25.0780 H   0  0  0  0  0  0
  -21.0098  -28.3326   24.1365 H   0  0  0  0  0  0
  -20.5751  -26.2354   23.3627 H   0  0  0  0  0  0
  -21.6670  -26.7439   22.1185 H   0  0  0  0  0  0
  -19.6884  -25.6291   21.1280 H   0  0  0  0  0  0
  -19.6670  -27.3202   20.6781 H   0  0  0  0  0  0
  -17.4229  -26.6772   21.4048 H   0  0  0  0  0  0
  -18.0289  -26.0069   22.9045 H   0  0  0  0  0  0
  -19.7949  -30.7351   24.2208 H   0  0  0  0  0  0
  -17.4995  -31.6244   24.5171 H   0  0  0  0  0  0
  -15.5348  -30.2923   23.7645 H   0  0  0  0  0  0
  -15.8760  -28.0774   22.7036 H   0  0  0  0  0  0
  -24.5838  -30.7203   25.7679 H   0  0  0  0  0  0
  -24.8861  -32.3055   26.4639 H   0  0  0  0  0  0
  -25.7871  -30.9084   27.0241 H   0  0  0  0  0  0
  -26.3005  -29.6715   24.1234 H   0  0  0  0  0  0
  -27.3872  -29.7240   25.4881 H   0  0  0  0  0  0
  -27.8918  -30.4169   23.9682 H   0  0  0  0  0  0
  -27.2615  -33.3675   26.1966 H   0  0  0  0  0  0
  -28.3838  -32.6893   25.0313 H   0  0  0  0  0  0
  -28.0661  -31.8553   26.5434 H   0  0  0  0  0  0
  -28.2509  -38.0170   24.7561 H   0  0  0  0  0  0
  -28.1198  -36.2685   24.6130 H   0  0  0  0  0  0
  -27.2305  -37.1265   25.8819 H   0  0  0  0  0  0
  -20.9381  -29.8787   21.6816 H   0  0  0  0  0  0
  -26.0138  -38.2780   24.1445 H   0  0  0  0  0  0
  -27.3920  -12.6874   22.6615 H   0  0  0  0  0  0
  -29.0803  -16.3257   18.8138 H   0  0  0  0  0  0
  -27.7792  -10.7859   21.5914 H   0  0  0  0  0  0
  -29.4681  -10.7943   21.5848 H   0  0  0  0  0  0
  -28.5200  -10.2992   20.1548 H   0  0  0  0  0  0
  -27.4904  -15.9890   23.6346 H   0  0  0  0  0  0
  -26.3934  -14.6154   23.6897 H   0  0  0  0  0  0
  -25.9307  -16.0626   22.8074 H   0  0  0  0  0  0
  -28.2517  -18.0263   18.1658 H   0  0  0  0  0  0
  -29.5120  -19.0245   18.9297 H   0  0  0  0  0  0
  -28.1284  -19.7087   18.0652 H   0  0  0  0  0  0
  -27.6330  -21.3396   22.5905 H   0  0  0  0  0  0
  -28.7979  -20.0230   22.3316 H   0  0  0  0  0  0
  -27.0754  -19.6919   22.6515 H   0  0  0  0  0  0
  -29.9244  -15.2300   17.4086 H   0  0  0  0  0  0
  -29.4356  -13.7740   16.8743 H   0  0  0  0  0  0
  -28.8414  -17.7262   21.4356 H   0  0  0  0  0  0
  -27.1715  -17.6671   21.8582 H   0  0  0  0  0  0
  -28.1781  -23.3179   21.5664 H   0  0  0  0  0  0
  -26.6259  -23.3366   20.8351 H   0  0  0  0  0  0
  -31.9380  -14.6283   16.8672 H   0  0  0  0  0  0
  -31.6894  -12.9643   17.1718 H   0  0  0  0  0  0
  -29.0706  -21.6296   19.8807 H   0  0  0  0  0  0
  -27.5678  -21.6744   18.9862 H   0  0  0  0  0  0
  -29.1381  -24.5119   19.5164 H   0  0  0  0  0  0
  -27.5977  -24.6696   18.8246 H   0  0  0  0  0  0
  -26.5774  -18.7811   19.6821 H   0  0  0  0  0  0
  -33.1657  -14.5465   18.6974 H   0  0  0  0  0  0
  -26.4947  -20.5212   20.6683 H   0  0  0  0  0  0
  1 25  1  0  0  0
  1 30  2  0  0  0
  1 88  1  0  0  0
  2  3  1  0  0  0
  2 25  1  0  0  0
  2 90  1  0  0  0
  2 91  1  0  0  0
  3  4  1  0  0  0
  3 92  1  0  0  0
  3 93  1  0  0  0
  4  5  1  0  0  0
  4 94  1  0  0  0
  4 95  1  0  0  0
  5  6  1  0  0  0
  5 26  1  0  0  0
  5 96  1  0  0  0
  6 25  1  0  0  0
  6 97  1  0  0  0
  6 98  1  0  0  0
  7  8  2  0  0  0
  7 26  1  0  0  0
  7 29  1  0  0  0
  8  9  1  0  0  0
  8 22  1  0  0  0
  9 10  1  0  0  0
  9 27  2  0  0  0
 10 11  2  0  0  0
 10 15  1  0  0  0
 11 12  1  0  0  0
 11 99  1  0  0  0
 12 13  2  0  0  0
 12100  1  0  0  0
 13 14  1  0  0  0
 13 31  1  0  0  0
 14 15  2  0  0  0
 14101  1  0  0  0
 15102  1  0  0  0
 16 17  2  0  0  0
 16 21  1  0  0  0
 16 31  1  0  0  0
 17 18  1  0  0  0
 17103  1  0  0  0
 18 19  2  0  0  0
 18104  1  0  0  0
 19 20  1  0  0  0
 19 24  1  0  0  0
 20 21  2  0  0  0
 20105  1  0  0  0
 21 23  1  0  0  0
 22 28  1  0  0  0
 22 32  2  0  0  0
 26 27  1  0  0  0
 28106  1  0  0  0
 28107  1  0  0  0
 29108  1  0  0  0
 29109  1  0  0  0
 33 34  1  0  0  0
 33 66  1  0  0  0
 33 70  2  0  0  0
 34 36  1  0  0  0
 34 59  1  0  0  0
 34110  1  0  0  0
 35 44  2  0  0  0
 35 45  1  0  0  0
 35 68  1  0  0  0
 36 56  1  0  0  0
 36111  1  0  0  0
 37 39  1  0  0  0
 37 47  1  0  0  0
 37 66  1  0  0  0
 37112  1  0  0  0
 38 43  2  0  0  0
 38 46  1  0  0  0
 38 47  1  0  0  0
 39 64  1  0  0  0
 39 67  2  0  0  0
 40 52  1  0  0  0
 40 53  2  0  0  0
 40 58  1  0  0  0
 41113  1  0  0  0
 41114  1  0  0  0
 41115  1  0  0  0
 41 48  1  0  0  0
 42 43  1  0  0  0
 42 66  1  0  0  0
 42116  1  0  0  0
 42117  1  0  0  0
 43 44  1  0  0  0
 44118  1  0  0  0
 45 46  2  0  0  0
 45119  1  0  0  0
 46120  1  0  0  0
 47121  1  0  0  0
 47122  1  0  0  0
 48 56  1  0  0  0
 48 65  1  0  0  0
 48123  1  0  0  0
 49 50  1  0  0  0
 49 53  1  0  0  0
 49 64  1  0  0  0
 49124  1  0  0  0
 50 51  1  0  0  0
 50125  1  0  0  0
 50126  1  0  0  0
 51 52  1  0  0  0
 51127  1  0  0  0
 51128  1  0  0  0
 52129  1  0  0  0
 52130  1  0  0  0
 53 54  1  0  0  0
 54 55  2  0  0  0
 54131  1  0  0  0
 55 57  1  0  0  0
 55132  1  0  0  0
 56 69  2  0  0  0
 57 58  2  0  0  0
 57133  1  0  0  0
 58134  1  0  0  0
 59 60  1  0  0  0
 59 61  1  0  0  0
 59 62  1  0  0  0
 60135  1  0  0  0
 60136  1  0  0  0
 60137  1  0  0  0
 61138  1  0  0  0
 61139  1  0  0  0
 61140  1  0  0  0
 62141  1  0  0  0
 62142  1  0  0  0
 62143  1  0  0  0
 63 65  1  0  0  0
 63144  1  0  0  0
 63145  1  0  0  0
 63146  1  0  0  0
 64147  1  0  0  0
 65148  1  0  0  0
 68 86  1  0  0  0
 71 73  2  0  0  0
 71 74  1  0  0  0
 71149  1  0  0  0
 72 75  2  0  0  0
 72 76  1  0  0  0
 72150  1  0  0  0
 73 75  1  0  0  0
 73 77  1  0  0  0
 74 76  2  0  0  0
 74 78  1  0  0  0
 75 81  1  0  0  0
 76 82  1  0  0  0
 77151  1  0  0  0
 77152  1  0  0  0
 77153  1  0  0  0
 78154  1  0  0  0
 78155  1  0  0  0
 78156  1  0  0  0
 79157  1  0  0  0
 79158  1  0  0  0
 79159  1  0  0  0
 79 87  1  0  0  0
 80160  1  0  0  0
 80161  1  0  0  0
 80162  1  0  0  0
 80 89  1  0  0  0
 81 84  1  0  0  0
 81163  1  0  0  0
 81164  1  0  0  0
 82 87  1  0  0  0
 82165  1  0  0  0
 82166  1  0  0  0
 83 85  1  0  0  0
 83 86  1  0  0  0
 83167  1  0  0  0
 83168  1  0  0  0
 84 88  1  0  0  0
 84169  1  0  0  0
 84170  1  0  0  0
 85 89  1  0  0  0
 85171  1  0  0  0
 85172  1  0  0  0
 86173  1  0  0  0
 86174  1  0  0  0
 87 89  1  0  0  0
 87175  1  0  0  0
 88176  1  0  0  0
 89177  1  0  0  0
M  CHG  1  89   1
M  ISO  4   1 100  68 101  86 101  88 100
M  END
> <chiral flag>
0

> <version>
0

> <s_m_source_file>
/data/baiqing/PycharmProjects/Reinvent-master-3.2/result/LINK_invent/BTK/process_docking_weight1_custom_sum_contain_oxygen_bond_distance_aromatic_linkinvent_7_9_3/rearranged_h_0045.sdf

> <i_m_source_file_index>
6

> <r_mmod_Potential_Energy-OPLS-2005>
9853.923828125

> <r_mmod_Stretch_Energy-OPLS-2005>
5671.09716796875

> <r_mmod_Bend_Energy-OPLS-2005>
675.57080078125

> <r_mmod_Torsional_Energy-OPLS-2005>
353.007690429688

> <r_mmod_Improper_Torsional_Energy-OPLS-2005>
14.3138055801392

> <r_mmod_Van_der_Waal_Energy-OPLS-2005>
2868.90380859375

> <r_mmod_Electrostatic_Energy-OPLS-2005>
-286.163146972656

> <r_mmod_Solvation_Energy-OPLS-2005>
-449.936767578125

> <b_mmod_Minimization_Converged-OPLS-2005>
0

> <r_mmod_RMS_Derivative-OPLS-2005>
15.250207901001

$$$$
6
                    3D
 Structure written by MMmdl.
159167  0  0  1  0            999 V2000
  -30.7149  -14.4326   20.6137 C   0  0  0  0  0  0
  -30.4184  -12.3001   19.3983 C   0  0  0  0  0  0
  -29.4809  -12.5144   18.1950 C   0  0  0  0  0  0
  -28.0067  -12.3717   18.6174 C   0  0  0  0  0  0
  -27.6651  -13.2031   19.8820 C   0  0  2  0  0  0
  -28.7113  -12.9605   20.9935 C   0  0  0  0  0  0
  -25.2608  -13.8139   20.5736 C   0  0  0  0  0  0
  -24.1857  -13.0427   20.9219 C   0  0  0  0  0  0
  -24.6424  -11.6893   20.8797 C   0  0  0  0  0  0
  -23.9102  -10.4272   21.0458 C   0  0  0  0  0  0
  -24.3644   -9.4167   21.9217 C   0  0  0  0  0  0
  -23.6299   -8.2224   22.0773 C   0  0  0  0  0  0
  -22.4281   -8.0293   21.3555 C   0  0  0  0  0  0
  -21.9944   -9.0275   20.4645 C   0  0  0  0  0  0
  -22.7298  -10.2140   20.3073 C   0  0  0  0  0  0
  -21.6835   -6.0759   22.5293 C   0  0  0  0  0  0
  -21.3999   -6.5655   23.8231 C   0  0  0  0  0  0
  -21.3659   -5.6812   24.9188 C   0  0  0  0  0  0
  -21.6052   -4.3080   24.7230 C   0  0  0  0  0  0
  -21.8817   -3.8165   23.4351 C   0  0  0  0  0  0
  -21.9183   -4.6986   22.3407 C   0  0  0  0  0  0
  -22.7870  -13.5218   21.1891 C   0  0  0  0  0  0
  -22.1654   -4.2175   21.0987 F   0  0  0  0  0  0
  -21.5630   -3.4566   25.7745 F   0  0  0  0  0  0
  -30.0397  -13.2659   20.4417 N   0  0  0  0  0  0
  -26.3062  -12.9318   20.3448 N   0  0  0  0  0  0
  -25.9345  -11.6479   20.5830 N   0  0  0  0  0  0
  -22.0490  -12.8179   22.0404 N   0  0  0  0  0  0
  -25.4330  -15.1854   20.4135 N   0  0  0  0  0  0
  -31.8132  -14.6267   20.0798 O   0  0  0  0  0  0
  -21.6617   -6.8913   21.4262 O   0  0  0  0  0  0
  -22.3565  -14.5552   20.6774 O   0  0  0  0  0  0
  -24.6132  -31.8691   23.2098 C   0  0  0  0  0  0
  -25.9036  -32.4826   23.8394 C   0  0  1  0  0  0
  -27.2446  -27.4482   20.0798 C   0  0  0  0  0  0
  -25.5892  -33.8623   24.2319 N   0  0  0  0  0  0
  -23.3997  -30.4921   21.5501 C   0  0  2  0  0  0
  -24.8476  -28.9555   20.1140 C   0  0  0  0  0  0
  -22.7393  -29.4676   22.4991 C   0  0  0  0  0  0
  -18.0272  -28.1382   22.8510 C   0  0  0  0  0  0
  -24.1481  -36.7315   23.2638 C   0  0  0  0  0  0
  -25.9274  -30.8304   21.3672 C   0  0  0  0  0  0
  -26.0031  -29.4632   20.7202 C   0  0  0  0  0  0
  -27.1975  -28.7090   20.7160 C   0  0  0  0  0  0
  -26.0677  -26.9477   19.4775 C   0  0  0  0  0  0
  -24.8731  -27.6931   19.4949 C   0  0  0  0  0  0
  -23.6078  -29.8210   20.1647 C   0  0  0  0  0  0
  -25.4102  -36.3115   24.0335 C   0  0  1  0  0  0
  -20.5864  -28.3677   23.1325 C   0  0  2  0  0  0
  -20.6762  -26.9417   22.5418 C   0  0  0  0  0  0
  -19.5733  -26.6396   21.5222 C   0  0  0  0  0  0
  -18.1914  -26.7926   22.1637 C   0  0  0  0  0  0
  -19.1524  -28.8841   23.2915 C   0  0  0  0  0  0
  -18.9448  -30.1446   23.8924 C   0  0  0  0  0  0
  -17.6455  -30.6587   24.0578 C   0  0  0  0  0  0
  -25.9038  -34.9482   23.5127 C   0  0  0  0  0  0
  -16.5344  -29.9098   23.6325 C   0  0  0  0  0  0
  -16.7263  -28.6508   23.0354 C   0  0  0  0  0  0
  -26.4449  -31.6600   25.0726 C   0  0  0  0  0  0
  -25.3702  -31.3666   26.1446 C   0  0  0  0  0  0
  -27.0315  -30.3057   24.6099 C   0  0  0  0  0  0
  -27.6006  -32.4326   25.7507 C   0  0  0  0  0  0
  -27.5589  -37.1809   24.8450 C   0  0  0  0  0  0
  -21.4122  -29.3046   22.3721 N   0  0  0  0  0  0
  -26.4276  -37.3810   23.9423 N   0  0  0  0  0  0
  -24.6643  -31.0794   22.1000 N   0  0  0  0  0  0
  -23.4166  -28.8228   23.3040 O   0  0  0  0  0  0
  -28.4306  -26.7411   20.0780 O   0  0  0  0  0  0
  -26.5623  -34.8942   22.4702 O   0  0  0  0  0  0
  -23.5327  -32.1456   23.7490 O   0  0  0  0  0  0
  -30.9480  -18.8196   20.0918 C   0  0  0  0  0  0
  -30.0325  -17.8008   20.1152 C   0  0  0  0  0  0
  -28.7665  -17.5810   19.3491 C   0  0  0  0  0  0
  -31.0186  -20.0310   19.2008 C   0  0  0  0  0  0
  -30.0736  -15.5819   21.4286 C   0  0  0  0  0  0
  -30.8159  -21.3887   19.9145 C   0  0  0  0  0  0
  -29.5673  -22.1579   19.4339 C   0  0  0  0  0  0
  -29.5816  -23.6615   19.7896 C   0  0  0  0  0  0
  -28.4939  -24.4582   19.0346 C   0  0  0  0  0  0
  -28.7533  -25.9777   18.9124 C   0  0  0  0  0  0
  -31.9558  -18.5246   21.0097 N   0  0  0  0  0  0
  -31.7081  -17.3830   21.5736 N   0  0  0  0  0  0
  -30.5631  -16.9017   21.0305 N   0  0  0  0  0  0
  -31.4585  -12.4008   19.0849 H   0  0  0  0  0  0
  -30.3206  -11.2820   19.7783 H   0  0  0  0  0  0
  -29.7113  -11.7984   17.4052 H   0  0  0  0  0  0
  -29.6481  -13.5061   17.7713 H   0  0  0  0  0  0
  -27.8164  -11.3140   18.8070 H   0  0  0  0  0  0
  -27.3492  -12.6514   17.7936 H   0  0  0  0  0  0
  -27.7158  -14.2541   19.5967 H   0  0  0  0  0  0
  -28.6827  -11.9184   21.3145 H   0  0  0  0  0  0
  -28.4791  -13.5383   21.8877 H   0  0  0  0  0  0
  -25.2789   -9.5622   22.4809 H   0  0  0  0  0  0
  -23.9984   -7.4610   22.7496 H   0  0  0  0  0  0
  -21.0885   -8.8828   19.8929 H   0  0  0  0  0  0
  -22.3797  -10.9708   19.6190 H   0  0  0  0  0  0
  -21.1984   -7.6166   23.9740 H   0  0  0  0  0  0
  -21.1488   -6.0544   25.9103 H   0  0  0  0  0  0
  -22.0594   -2.7629   23.2854 H   0  0  0  0  0  0
  -22.4083  -11.9768   22.4682 H   0  0  0  0  0  0
  -21.1136  -13.1223   22.2682 H   0  0  0  0  0  0
  -24.6652  -15.8408   20.5110 H   0  0  0  0  0  0
  -26.2883  -15.6202   20.0944 H   0  0  0  0  0  0
  -26.7100  -32.5550   23.1157 H   0  0  0  0  0  0
  -24.9977  -33.9776   25.0419 H   0  0  0  0  0  0
  -22.6893  -31.3093   21.4108 H   0  0  0  0  0  0
  -23.3766  -35.9626   23.3249 H   0  0  0  0  0  0
  -24.3585  -36.8994   22.2065 H   0  0  0  0  0  0
  -23.7204  -37.6487   23.6692 H   0  0  0  0  0  0
  -26.0417  -31.5903   20.5937 H   0  0  0  0  0  0
  -26.8165  -30.8861   21.9838 H   0  0  0  0  0  0
  -28.0888  -29.0985   21.1887 H   0  0  0  0  0  0
  -26.0619  -25.9819   18.9933 H   0  0  0  0  0  0
  -23.9856  -27.2926   19.0247 H   0  0  0  0  0  0
  -23.7113  -30.5947   19.4033 H   0  0  0  0  0  0
  -22.7319  -29.2385   19.8734 H   0  0  0  0  0  0
  -25.1268  -36.1964   25.0827 H   0  0  0  0  0  0
  -20.9968  -28.3254   24.1443 H   0  0  0  0  0  0
  -20.5693  -26.2287   23.3605 H   0  0  0  0  0  0
  -21.6631  -26.7471   22.1207 H   0  0  0  0  0  0
  -19.6903  -25.6314   21.1235 H   0  0  0  0  0  0
  -19.6661  -27.3219   20.6761 H   0  0  0  0  0  0
  -17.4191  -26.6695   21.4033 H   0  0  0  0  0  0
  -18.0306  -26.0056   22.9016 H   0  0  0  0  0  0
  -19.7927  -30.7255   24.2310 H   0  0  0  0  0  0
  -17.5010  -31.6273   24.5181 H   0  0  0  0  0  0
  -15.5346  -30.3016   23.7615 H   0  0  0  0  0  0
  -15.8662  -28.0829   22.7063 H   0  0  0  0  0  0
  -24.5866  -30.7049   25.7734 H   0  0  0  0  0  0
  -24.8903  -32.2804   26.4946 H   0  0  0  0  0  0
  -25.8034  -30.8761   27.0169 H   0  0  0  0  0  0
  -26.2883  -29.6812   24.1120 H   0  0  0  0  0  0
  -27.4071  -29.7284   25.4563 H   0  0  0  0  0  0
  -27.8713  -30.4404   23.9274 H   0  0  0  0  0  0
  -27.2615  -33.3637   26.2059 H   0  0  0  0  0  0
  -28.3831  -32.6865   25.0347 H   0  0  0  0  0  0
  -28.0642  -31.8460   26.5450 H   0  0  0  0  0  0
  -28.2523  -38.0189   24.7624 H   0  0  0  0  0  0
  -28.1172  -36.2728   24.6117 H   0  0  0  0  0  0
  -27.2324  -37.1265   25.8851 H   0  0  0  0  0  0
  -20.9281  -29.8764   21.6938 H   0  0  0  0  0  0
  -26.0158  -38.2875   24.1482 H   0  0  0  0  0  0
  -28.5315  -18.4376   18.7181 H   0  0  0  0  0  0
  -27.9243  -17.4374   20.0258 H   0  0  0  0  0  0
  -28.8404  -16.7041   18.7063 H   0  0  0  0  0  0
  -30.3103  -19.9265   18.3790 H   0  0  0  0  0  0
  -31.9924  -20.0466   18.7085 H   0  0  0  0  0  0
  -28.9919  -15.5915   21.3124 H   0  0  0  0  0  0
  -30.2795  -15.4275   22.4888 H   0  0  0  0  0  0
  -31.6972  -21.9957   19.7005 H   0  0  0  0  0  0
  -30.8040  -21.2712   20.9994 H   0  0  0  0  0  0
  -28.6671  -21.6854   19.8297 H   0  0  0  0  0  0
  -29.5056  -22.0627   18.3481 H   0  0  0  0  0  0
  -30.5594  -24.0693   19.5298 H   0  0  0  0  0  0
  -29.4693  -23.7997   20.8665 H   0  0  0  0  0  0
  -27.5112  -24.2556   19.4592 H   0  0  0  0  0  0
  -28.4538  -24.0770   18.0132 H   0  0  0  0  0  0
  -28.2299  -26.3689   18.0377 H   0  0  0  0  0  0
  -29.8087  -26.1442   18.6943 H   0  0  0  0  0  0
  1 25  1  0  0  0
  1 30  2  0  0  0
  1 75  1  0  0  0
  2  3  1  0  0  0
  2 25  1  0  0  0
  2 84  1  0  0  0
  2 85  1  0  0  0
  3  4  1  0  0  0
  3 86  1  0  0  0
  3 87  1  0  0  0
  4  5  1  0  0  0
  4 88  1  0  0  0
  4 89  1  0  0  0
  5  6  1  0  0  0
  5 26  1  0  0  0
  5 90  1  0  0  0
  6 25  1  0  0  0
  6 91  1  0  0  0
  6 92  1  0  0  0
  7  8  2  0  0  0
  7 26  1  0  0  0
  7 29  1  0  0  0
  8  9  1  0  0  0
  8 22  1  0  0  0
  9 10  1  0  0  0
  9 27  2  0  0  0
 10 11  2  0  0  0
 10 15  1  0  0  0
 11 12  1  0  0  0
 11 93  1  0  0  0
 12 13  2  0  0  0
 12 94  1  0  0  0
 13 14  1  0  0  0
 13 31  1  0  0  0
 14 15  2  0  0  0
 14 95  1  0  0  0
 15 96  1  0  0  0
 16 17  2  0  0  0
 16 21  1  0  0  0
 16 31  1  0  0  0
 17 18  1  0  0  0
 17 97  1  0  0  0
 18 19  2  0  0  0
 18 98  1  0  0  0
 19 20  1  0  0  0
 19 24  1  0  0  0
 20 21  2  0  0  0
 20 99  1  0  0  0
 21 23  1  0  0  0
 22 28  1  0  0  0
 22 32  2  0  0  0
 26 27  1  0  0  0
 28100  1  0  0  0
 28101  1  0  0  0
 29102  1  0  0  0
 29103  1  0  0  0
 33 34  1  0  0  0
 33 66  1  0  0  0
 33 70  2  0  0  0
 34 36  1  0  0  0
 34 59  1  0  0  0
 34104  1  0  0  0
 35 44  2  0  0  0
 35 45  1  0  0  0
 35 68  1  0  0  0
 36 56  1  0  0  0
 36105  1  0  0  0
 37 39  1  0  0  0
 37 47  1  0  0  0
 37 66  1  0  0  0
 37106  1  0  0  0
 38 43  2  0  0  0
 38 46  1  0  0  0
 38 47  1  0  0  0
 39 64  1  0  0  0
 39 67  2  0  0  0
 40 52  1  0  0  0
 40 53  2  0  0  0
 40 58  1  0  0  0
 41107  1  0  0  0
 41108  1  0  0  0
 41109  1  0  0  0
 41 48  1  0  0  0
 42 43  1  0  0  0
 42 66  1  0  0  0
 42110  1  0  0  0
 42111  1  0  0  0
 43 44  1  0  0  0
 44112  1  0  0  0
 45 46  2  0  0  0
 45113  1  0  0  0
 46114  1  0  0  0
 47115  1  0  0  0
 47116  1  0  0  0
 48 56  1  0  0  0
 48 65  1  0  0  0
 48117  1  0  0  0
 49 50  1  0  0  0
 49 53  1  0  0  0
 49 64  1  0  0  0
 49118  1  0  0  0
 50 51  1  0  0  0
 50119  1  0  0  0
 50120  1  0  0  0
 51 52  1  0  0  0
 51121  1  0  0  0
 51122  1  0  0  0
 52123  1  0  0  0
 52124  1  0  0  0
 53 54  1  0  0  0
 54 55  2  0  0  0
 54125  1  0  0  0
 55 57  1  0  0  0
 55126  1  0  0  0
 56 69  2  0  0  0
 57 58  2  0  0  0
 57127  1  0  0  0
 58128  1  0  0  0
 59 60  1  0  0  0
 59 61  1  0  0  0
 59 62  1  0  0  0
 60129  1  0  0  0
 60130  1  0  0  0
 60131  1  0  0  0
 61132  1  0  0  0
 61133  1  0  0  0
 61134  1  0  0  0
 62135  1  0  0  0
 62136  1  0  0  0
 62137  1  0  0  0
 63 65  1  0  0  0
 63138  1  0  0  0
 63139  1  0  0  0
 63140  1  0  0  0
 64141  1  0  0  0
 65142  1  0  0  0
 68 80  1  0  0  0
 71 72  2  0  0  0
 71 74  1  0  0  0
 71 81  1  0  0  0
 72 73  1  0  0  0
 72 83  1  0  0  0
 73143  1  0  0  0
 73144  1  0  0  0
 73145  1  0  0  0
 74 76  1  0  0  0
 74146  1  0  0  0
 74147  1  0  0  0
 75 83  1  0  0  0
 75148  1  0  0  0
 75149  1  0  0  0
 76 77  1  0  0  0
 76150  1  0  0  0
 76151  1  0  0  0
 77 78  1  0  0  0
 77152  1  0  0  0
 77153  1  0  0  0
 78 79  1  0  0  0
 78154  1  0  0  0
 78155  1  0  0  0
 79 80  1  0  0  0
 79156  1  0  0  0
 79157  1  0  0  0
 80158  1  0  0  0
 80159  1  0  0  0
 81 82  2  0  0  0
 82 83  1  0  0  0
M  ISO  4   1 100  68 101  75 100  80 101
M  END
> <chiral flag>
0

> <version>
0

> <s_m_source_file>
/data/baiqing/PycharmProjects/Reinvent-master-3.2/result/LINK_invent/BTK/process_docking_weight1_custom_sum_contain_oxygen_bond_distance_aromatic_linkinvent_7_9_3/rearranged_h_0045.sdf

> <i_m_source_file_index>
7

> <r_mmod_Potential_Energy-OPLS-2005>
-63.7998657226562

> <r_mmod_Stretch_Energy-OPLS-2005>
32.959774017334

> <r_mmod_Bend_Energy-OPLS-2005>
94.5525360107422

> <r_mmod_Torsional_Energy-OPLS-2005>
193.385803222656

> <r_mmod_Improper_Torsional_Energy-OPLS-2005>
2.35746312141418

> <r_mmod_Van_der_Waal_Energy-OPLS-2005>
124.67610168457

> <r_mmod_Electrostatic_Energy-OPLS-2005>
-309.658203125

> <r_mmod_Solvation_Energy-OPLS-2005>
-211.503433227539

> <b_mmod_Minimization_Converged-OPLS-2005>
0

> <r_mmod_RMS_Derivative-OPLS-2005>
2.1965651512146

$$$$
7
                    3D
 Structure written by MMmdl.
175184  0  0  1  0            999 V2000
  -30.7682  -14.4195   20.6367 C   0  0  0  0  0  0
  -30.4098  -12.3059   19.4358 C   0  0  0  0  0  0
  -29.4979  -12.5264   18.2118 C   0  0  0  0  0  0
  -28.0139  -12.3842   18.6105 C   0  0  0  0  0  0
  -27.6599  -13.2012   19.8821 C   0  0  2  0  0  0
  -28.6965  -12.9274   20.9929 C   0  0  0  0  0  0
  -25.2566  -13.8130   20.5664 C   0  0  0  0  0  0
  -24.1822  -13.0454   20.9103 C   0  0  0  0  0  0
  -24.6360  -11.6895   20.8713 C   0  0  0  0  0  0
  -23.9031  -10.4316   21.0397 C   0  0  0  0  0  0
  -24.3613   -9.4241   21.9174 C   0  0  0  0  0  0
  -23.6294   -8.2282   22.0771 C   0  0  0  0  0  0
  -22.4273   -8.0308   21.3558 C   0  0  0  0  0  0
  -21.9886   -9.0272   20.4654 C   0  0  0  0  0  0
  -22.7207  -10.2148   20.3045 C   0  0  0  0  0  0
  -21.6870   -6.0742   22.5275 C   0  0  0  0  0  0
  -21.4031   -6.5644   23.8213 C   0  0  0  0  0  0
  -21.3652   -5.6791   24.9167 C   0  0  0  0  0  0
  -21.6040   -4.3054   24.7236 C   0  0  0  0  0  0
  -21.8819   -3.8149   23.4359 C   0  0  0  0  0  0
  -21.9205   -4.6960   22.3415 C   0  0  0  0  0  0
  -22.7854  -13.5258   21.1787 C   0  0  0  0  0  0
  -22.1669   -4.2147   21.0990 F   0  0  0  0  0  0
  -21.5618   -3.4544   25.7755 F   0  0  0  0  0  0
  -30.0270  -13.2816   20.4775 N   0  0  0  0  0  0
  -26.3002  -12.9309   20.3366 N   0  0  0  0  0  0
  -25.9282  -11.6471   20.5750 N   0  0  0  0  0  0
  -22.0523  -12.8303   22.0359 N   0  0  0  0  0  0
  -25.4263  -15.1872   20.4159 N   0  0  0  0  0  0
  -31.8414  -14.5739   20.0546 O   0  0  0  0  0  0
  -21.6648   -6.8893   21.4250 O   0  0  0  0  0  0
  -22.3575  -14.5594   20.6625 O   0  0  0  0  0  0
  -24.6081  -31.8765   23.2216 C   0  0  0  0  0  0
  -25.9005  -32.4888   23.8501 C   0  0  1  0  0  0
  -27.2430  -27.4954   20.0751 C   0  0  0  0  0  0
  -25.5905  -33.8685   24.2416 N   0  0  0  0  0  0
  -23.3955  -30.4987   21.5622 C   0  0  2  0  0  0
  -24.8482  -28.9779   20.1362 C   0  0  0  0  0  0
  -22.7382  -29.4736   22.5100 C   0  0  0  0  0  0
  -18.0243  -28.1232   22.8607 C   0  0  0  0  0  0
  -24.1475  -36.7335   23.2652 C   0  0  0  0  0  0
  -25.9205  -30.8661   21.3670 C   0  0  0  0  0  0
  -26.0086  -29.4992   20.7223 C   0  0  0  0  0  0
  -27.2095  -28.7553   20.7099 C   0  0  0  0  0  0
  -26.0716  -26.9943   19.4737 C   0  0  0  0  0  0
  -24.8693  -27.7135   19.5264 C   0  0  0  0  0  0
  -23.6054  -29.8344   20.1796 C   0  0  0  0  0  0
  -25.4106  -36.3169   24.0362 C   0  0  1  0  0  0
  -20.5885  -28.3574   23.1432 C   0  0  2  0  0  0
  -20.6855  -26.9487   22.5180 C   0  0  0  0  0  0
  -19.5780  -26.6753   21.4953 C   0  0  0  0  0  0
  -18.1959  -26.7961   22.1447 C   0  0  0  0  0  0
  -19.1500  -28.8679   23.3092 C   0  0  0  0  0  0
  -18.9395  -30.1226   23.9159 C   0  0  0  0  0  0
  -17.6403  -30.6431   24.0638 C   0  0  0  0  0  0
  -25.9033  -34.9530   23.5192 C   0  0  0  0  0  0
  -16.5316  -29.8951   23.6302 C   0  0  0  0  0  0
  -16.7220  -28.6336   23.0415 C   0  0  0  0  0  0
  -26.4461  -31.6597   25.0737 C   0  0  0  0  0  0
  -25.3706  -31.3685   26.1448 C   0  0  0  0  0  0
  -27.0251  -30.3073   24.5973 C   0  0  0  0  0  0
  -27.6102  -32.4248   25.7438 C   0  0  0  0  0  0
  -27.5589  -37.1832   24.8468 C   0  0  0  0  0  0
  -21.4091  -29.3075   22.3922 N   0  0  0  0  0  0
  -26.4303  -37.3845   23.9403 N   0  0  0  0  0  0
  -24.6597  -31.0855   22.1130 N   0  0  0  0  0  0
  -23.4219  -28.8343   23.3119 O   0  0  0  0  0  0
  -28.3916  -26.7466   20.0499 O   0  0  0  0  0  0
  -26.5579  -34.8986   22.4738 O   0  0  0  0  0  0
  -23.5282  -32.1544   23.7606 O   0  0  0  0  0  0
  -27.0369  -19.2343   20.7082 C   0  0  0  0  0  0
  -28.1213  -17.1001   20.4037 C   0  0  0  0  0  0
  -25.5423  -22.0691   21.5711 C   0  0  0  0  0  0
  -27.3892  -18.1684   19.8669 C   0  0  0  0  0  0
  -27.4061  -19.2548   22.0804 C   0  0  0  0  0  0
  -28.4724  -17.0676   21.7736 C   0  0  0  0  0  0
  -28.0677  -18.1236   22.6408 C   0  0  0  0  0  0
  -26.8072  -21.7232   22.1041 C   0  0  0  0  0  0
  -25.8175  -23.0113   20.6259 C   0  0  0  0  0  0
  -27.0494  -18.2081   18.3845 C   0  0  0  0  0  0
  -27.4146  -16.9797   24.8418 C   0  0  0  0  0  0
  -23.5997  -22.8047   19.4233 C   0  0  0  0  0  0
  -27.1106  -20.5018   22.9311 C   0  0  0  0  0  0
  -28.3090  -18.0275   24.1590 C   0  0  0  0  0  0
  -29.3314  -15.9087   22.2706 C   0  0  0  0  0  0
  -24.8941  -23.6003   19.6059 C   0  0  0  0  0  0
  -27.9708  -24.2650   19.9758 C   0  0  0  0  0  0
  -28.2843  -25.5390   20.8069 C   0  0  0  0  0  0
  -27.7748  -22.5081   21.6439 N   0  0  0  0  0  0
  -27.1702  -23.3056   20.7283 N   0  0  0  0  0  0
  -30.3205  -15.5148   21.2709 N   0  0  0  0  0  0
  -31.4582  -12.3777   19.1433 H   0  0  0  0  0  0
  -30.2903  -11.2894   19.8109 H   0  0  0  0  0  0
  -29.7525  -11.8139   17.4260 H   0  0  0  0  0  0
  -29.6748  -13.5193   17.7946 H   0  0  0  0  0  0
  -27.8147  -11.3245   18.7835 H   0  0  0  0  0  0
  -27.3726  -12.6829   17.7817 H   0  0  0  0  0  0
  -27.7074  -14.2514   19.6085 H   0  0  0  0  0  0
  -28.6740  -11.8629   21.2345 H   0  0  0  0  0  0
  -28.4299  -13.3804   21.9321 H   0  0  0  0  0  0
  -25.2790   -9.5745   22.4696 H   0  0  0  0  0  0
  -24.0022   -7.4702   22.7514 H   0  0  0  0  0  0
  -21.0804   -8.8785   19.8986 H   0  0  0  0  0  0
  -22.3670  -10.9678   19.6143 H   0  0  0  0  0  0
  -21.2025   -7.6157   23.9710 H   0  0  0  0  0  0
  -21.1453   -6.0526   25.9060 H   0  0  0  0  0  0
  -22.0597   -2.7615   23.2864 H   0  0  0  0  0  0
  -22.4182  -11.9955   22.4715 H   0  0  0  0  0  0
  -21.1177  -13.1374   22.2648 H   0  0  0  0  0  0
  -24.6662  -15.8417   20.5574 H   0  0  0  0  0  0
  -26.3058  -15.6474   20.2199 H   0  0  0  0  0  0
  -26.7064  -32.5663   23.1285 H   0  0  0  0  0  0
  -24.9921  -33.9821   25.0466 H   0  0  0  0  0  0
  -22.6839  -31.3105   21.4216 H   0  0  0  0  0  0
  -23.3779  -35.9632   23.3332 H   0  0  0  0  0  0
  -24.3595  -36.8900   22.2071 H   0  0  0  0  0  0
  -23.7175  -37.6542   23.6602 H   0  0  0  0  0  0
  -25.9865  -31.6394   20.5984 H   0  0  0  0  0  0
  -26.8269  -30.9569   21.9539 H   0  0  0  0  0  0
  -28.0982  -29.1344   21.1973 H   0  0  0  0  0  0
  -26.0938  -26.0559   18.9511 H   0  0  0  0  0  0
  -23.9727  -27.3094   19.0777 H   0  0  0  0  0  0
  -23.7020  -30.6161   19.4226 H   0  0  0  0  0  0
  -22.7387  -29.2386   19.8871 H   0  0  0  0  0  0
  -25.1277  -36.2077   25.0864 H   0  0  0  0  0  0
  -21.0016  -28.2835   24.1504 H   0  0  0  0  0  0
  -20.6019  -26.2038   23.3068 H   0  0  0  0  0  0
  -21.6716  -26.7906   22.0820 H   0  0  0  0  0  0
  -19.7111  -25.6984   21.0318 H   0  0  0  0  0  0
  -19.6570  -27.4127   20.6948 H   0  0  0  0  0  0
  -17.4237  -26.7063   21.3803 H   0  0  0  0  0  0
  -18.0278  -25.9856   22.8529 H   0  0  0  0  0  0
  -19.7851  -30.6924   24.2704 H   0  0  0  0  0  0
  -17.4918  -31.6128   24.5215 H   0  0  0  0  0  0
  -15.5326  -30.2914   23.7429 H   0  0  0  0  0  0
  -15.8586  -28.0713   22.7085 H   0  0  0  0  0  0
  -24.5883  -30.7032   25.7756 H   0  0  0  0  0  0
  -24.8885  -32.2838   26.4905 H   0  0  0  0  0  0
  -25.8026  -30.8833   27.0202 H   0  0  0  0  0  0
  -26.2758  -29.6848   24.1058 H   0  0  0  0  0  0
  -27.4145  -29.7251   25.4339 H   0  0  0  0  0  0
  -27.8542  -30.4474   23.9028 H   0  0  0  0  0  0
  -27.2821  -33.3556   26.2085 H   0  0  0  0  0  0
  -28.3867  -32.6775   25.0187 H   0  0  0  0  0  0
  -28.0817  -31.8297   26.5258 H   0  0  0  0  0  0
  -28.2641  -38.0099   24.7525 H   0  0  0  0  0  0
  -28.1036  -36.2639   24.6271 H   0  0  0  0  0  0
  -27.2298  -37.1486   25.8868 H   0  0  0  0  0  0
  -20.9162  -29.8630   21.7087 H   0  0  0  0  0  0
  -26.0219  -38.2938   24.1401 H   0  0  0  0  0  0
  -26.4940  -20.0524   20.2560 H   0  0  0  0  0  0
  -28.4240  -16.2990   19.7488 H   0  0  0  0  0  0
  -24.5953  -21.5834   21.7458 H   0  0  0  0  0  0
  -25.9888  -18.0174   18.2096 H   0  0  0  0  0  0
  -27.6202  -17.4629   17.8296 H   0  0  0  0  0  0
  -27.2890  -19.1853   17.9583 H   0  0  0  0  0  0
  -27.6129  -16.9249   25.9135 H   0  0  0  0  0  0
  -27.5775  -15.9808   24.4431 H   0  0  0  0  0  0
  -26.3604  -17.2293   24.7080 H   0  0  0  0  0  0
  -23.0353  -23.1811   18.5711 H   0  0  0  0  0  0
  -22.9654  -22.8812   20.3053 H   0  0  0  0  0  0
  -23.8102  -21.7478   19.2516 H   0  0  0  0  0  0
  -27.9609  -20.7221   23.5751 H   0  0  0  0  0  0
  -26.2689  -20.2799   23.5875 H   0  0  0  0  0  0
  -28.0909  -18.9633   24.6601 H   0  0  0  0  0  0
  -29.3607  -17.8637   24.3942 H   0  0  0  0  0  0
  -28.6911  -15.1431   22.6757 H   0  0  0  0  0  0
  -29.9267  -16.2449   23.1187 H   0  0  0  0  0  0
  -25.3889  -23.6419   18.6354 H   0  0  0  0  0  0
  -24.6453  -24.6238   19.8813 H   0  0  0  0  0  0
  -28.8782  -23.7724   19.6286 H   0  0  0  0  0  0
  -27.4366  -24.4949   19.0613 H   0  0  0  0  0  0
  -27.5221  -25.6689   21.5794 H   0  0  0  0  0  0
  -29.2239  -25.4246   21.3477 H   0  0  0  0  0  0
  -30.9496  -16.2816   21.0860 H   0  0  0  0  0  0
  1 25  1  0  0  0
  1 30  2  0  0  0
  1 91  1  0  0  0
  2  3  1  0  0  0
  2 25  1  0  0  0
  2 92  1  0  0  0
  2 93  1  0  0  0
  3  4  1  0  0  0
  3 94  1  0  0  0
  3 95  1  0  0  0
  4  5  1  0  0  0
  4 96  1  0  0  0
  4 97  1  0  0  0
  5  6  1  0  0  0
  5 26  1  0  0  0
  5 98  1  0  0  0
  6 25  1  0  0  0
  6 99  1  0  0  0
  6100  1  0  0  0
  7  8  2  0  0  0
  7 26  1  0  0  0
  7 29  1  0  0  0
  8  9  1  0  0  0
  8 22  1  0  0  0
  9 10  1  0  0  0
  9 27  2  0  0  0
 10 11  2  0  0  0
 10 15  1  0  0  0
 11 12  1  0  0  0
 11101  1  0  0  0
 12 13  2  0  0  0
 12102  1  0  0  0
 13 14  1  0  0  0
 13 31  1  0  0  0
 14 15  2  0  0  0
 14103  1  0  0  0
 15104  1  0  0  0
 16 17  2  0  0  0
 16 21  1  0  0  0
 16 31  1  0  0  0
 17 18  1  0  0  0
 17105  1  0  0  0
 18 19  2  0  0  0
 18106  1  0  0  0
 19 20  1  0  0  0
 19 24  1  0  0  0
 20 21  2  0  0  0
 20107  1  0  0  0
 21 23  1  0  0  0
 22 28  1  0  0  0
 22 32  2  0  0  0
 26 27  1  0  0  0
 28108  1  0  0  0
 28109  1  0  0  0
 29110  1  0  0  0
 29111  1  0  0  0
 33 34  1  0  0  0
 33 66  1  0  0  0
 33 70  2  0  0  0
 34 36  1  0  0  0
 34 59  1  0  0  0
 34112  1  0  0  0
 35 44  2  0  0  0
 35 45  1  0  0  0
 35 68  1  0  0  0
 36 56  1  0  0  0
 36113  1  0  0  0
 37 39  1  0  0  0
 37 47  1  0  0  0
 37 66  1  0  0  0
 37114  1  0  0  0
 38 43  2  0  0  0
 38 46  1  0  0  0
 38 47  1  0  0  0
 39 64  1  0  0  0
 39 67  2  0  0  0
 40 52  1  0  0  0
 40 53  2  0  0  0
 40 58  1  0  0  0
 41115  1  0  0  0
 41116  1  0  0  0
 41117  1  0  0  0
 41 48  1  0  0  0
 42 43  1  0  0  0
 42 66  1  0  0  0
 42118  1  0  0  0
 42119  1  0  0  0
 43 44  1  0  0  0
 44120  1  0  0  0
 45 46  2  0  0  0
 45121  1  0  0  0
 46122  1  0  0  0
 47123  1  0  0  0
 47124  1  0  0  0
 48 56  1  0  0  0
 48 65  1  0  0  0
 48125  1  0  0  0
 49 50  1  0  0  0
 49 53  1  0  0  0
 49 64  1  0  0  0
 49126  1  0  0  0
 50 51  1  0  0  0
 50127  1  0  0  0
 50128  1  0  0  0
 51 52  1  0  0  0
 51129  1  0  0  0
 51130  1  0  0  0
 52131  1  0  0  0
 52132  1  0  0  0
 53 54  1  0  0  0
 54 55  2  0  0  0
 54133  1  0  0  0
 55 57  1  0  0  0
 55134  1  0  0  0
 56 69  2  0  0  0
 57 58  2  0  0  0
 57135  1  0  0  0
 58136  1  0  0  0
 59 60  1  0  0  0
 59 61  1  0  0  0
 59 62  1  0  0  0
 60137  1  0  0  0
 60138  1  0  0  0
 60139  1  0  0  0
 61140  1  0  0  0
 61141  1  0  0  0
 61142  1  0  0  0
 62143  1  0  0  0
 62144  1  0  0  0
 62145  1  0  0  0
 63 65  1  0  0  0
 63146  1  0  0  0
 63147  1  0  0  0
 63148  1  0  0  0
 64149  1  0  0  0
 65150  1  0  0  0
 68 88  1  0  0  0
 71 74  2  0  0  0
 71 75  1  0  0  0
 71151  1  0  0  0
 72 74  1  0  0  0
 72 76  2  0  0  0
 72152  1  0  0  0
 73 78  1  0  0  0
 73 79  2  0  0  0
 73153  1  0  0  0
 74 80  1  0  0  0
 75 77  2  0  0  0
 75 83  1  0  0  0
 76 77  1  0  0  0
 76 85  1  0  0  0
 77 84  1  0  0  0
 78 83  1  0  0  0
 78 89  2  0  0  0
 79 86  1  0  0  0
 79 90  1  0  0  0
 80154  1  0  0  0
 80155  1  0  0  0
 80156  1  0  0  0
 81 84  1  0  0  0
 81157  1  0  0  0
 81158  1  0  0  0
 81159  1  0  0  0
 82 86  1  0  0  0
 82160  1  0  0  0
 82161  1  0  0  0
 82162  1  0  0  0
 83163  1  0  0  0
 83164  1  0  0  0
 84165  1  0  0  0
 84166  1  0  0  0
 85 91  1  0  0  0
 85167  1  0  0  0
 85168  1  0  0  0
 86169  1  0  0  0
 86170  1  0  0  0
 87 88  1  0  0  0
 87 90  1  0  0  0
 87171  1  0  0  0
 87172  1  0  0  0
 88173  1  0  0  0
 88174  1  0  0  0
 89 90  1  0  0  0
 91175  1  0  0  0
M  ISO  4   1 100  68 101  88 101  91 100
M  END
> <chiral flag>
0

> <version>
0

> <s_m_source_file>
/data/baiqing/PycharmProjects/Reinvent-master-3.2/result/LINK_invent/BTK/process_docking_weight1_custom_sum_contain_oxygen_bond_distance_aromatic_linkinvent_7_9_3/rearranged_h_0045.sdf

> <i_m_source_file_index>
8

> <r_mmod_Potential_Energy-OPLS-2005>
16.1989345550537

> <r_mmod_Stretch_Energy-OPLS-2005>
38.7536849975586

> <r_mmod_Bend_Energy-OPLS-2005>
155.519912719727

> <r_mmod_Torsional_Energy-OPLS-2005>
281.507537841797

> <r_mmod_Improper_Torsional_Energy-OPLS-2005>
5.53834819793701

> <r_mmod_Van_der_Waal_Energy-OPLS-2005>
161.523406982422

> <r_mmod_Electrostatic_Energy-OPLS-2005>
-431.302825927734

> <r_mmod_Solvation_Energy-OPLS-2005>
-205.064910888672

> <b_mmod_Minimization_Converged-OPLS-2005>
0

> <r_mmod_RMS_Derivative-OPLS-2005>
7.51147556304932

$$$$
8
                    3D
 Structure written by MMmdl.
173181  0  0  1  0            999 V2000
  -30.6220  -14.4967   20.4761 C   0  0  0  0  0  0
  -30.4098  -12.2936   19.4248 C   0  0  0  0  0  0
  -29.4816  -12.4973   18.2039 C   0  0  0  0  0  0
  -28.0025  -12.3541   18.6155 C   0  0  0  0  0  0
  -27.6459  -13.1911   19.8716 C   0  0  2  0  0  0
  -28.6881  -12.9692   20.9927 C   0  0  0  0  0  0
  -25.2503  -13.8086   20.5669 C   0  0  0  0  0  0
  -24.1774  -13.0395   20.9194 C   0  0  0  0  0  0
  -24.6295  -11.6850   20.8721 C   0  0  0  0  0  0
  -23.8981  -10.4276   21.0446 C   0  0  0  0  0  0
  -24.3572   -9.4200   21.9212 C   0  0  0  0  0  0
  -23.6280   -8.2213   22.0750 C   0  0  0  0  0  0
  -22.4237   -8.0273   21.3575 C   0  0  0  0  0  0
  -21.9893   -9.0219   20.4630 C   0  0  0  0  0  0
  -22.7177  -10.2115   20.3057 C   0  0  0  0  0  0
  -21.6847   -6.0729   22.5302 C   0  0  0  0  0  0
  -21.3993   -6.5659   23.8229 C   0  0  0  0  0  0
  -21.3641   -5.6808   24.9200 C   0  0  0  0  0  0
  -21.6037   -4.3066   24.7243 C   0  0  0  0  0  0
  -21.8812   -3.8144   23.4365 C   0  0  0  0  0  0
  -21.9197   -4.6956   22.3417 C   0  0  0  0  0  0
  -22.7812  -13.5183   21.1930 C   0  0  0  0  0  0
  -22.1682   -4.2129   21.0998 F   0  0  0  0  0  0
  -21.5625   -3.4564   25.7772 F   0  0  0  0  0  0
  -30.0198  -13.2786   20.4423 N   0  0  0  0  0  0
  -26.2898  -12.9229   20.3333 N   0  0  0  0  0  0
  -25.9209  -11.6410   20.5748 N   0  0  0  0  0  0
  -22.0503  -12.8137   22.0459 N   0  0  0  0  0  0
  -25.4231  -15.1836   20.4143 N   0  0  0  0  0  0
  -31.7809  -14.6902   20.0905 O   0  0  0  0  0  0
  -21.6611   -6.8863   21.4262 O   0  0  0  0  0  0
  -22.3522  -14.5536   20.6848 O   0  0  0  0  0  0
  -24.6142  -31.8702   23.2112 C   0  0  0  0  0  0
  -25.9035  -32.4817   23.8397 C   0  0  1  0  0  0
  -27.2065  -27.4285   20.0370 C   0  0  0  0  0  0
  -25.5898  -33.8617   24.2342 N   0  0  0  0  0  0
  -23.3979  -30.4953   21.5596 C   0  0  2  0  0  0
  -24.8295  -28.9651   20.1141 C   0  0  0  0  0  0
  -22.7383  -29.4663   22.5062 C   0  0  0  0  0  0
  -18.0252  -28.1333   22.8512 C   0  0  0  0  0  0
  -24.1492  -36.7288   23.2646 C   0  0  0  0  0  0
  -25.9336  -30.8177   21.3736 C   0  0  0  0  0  0
  -25.9977  -29.4571   20.7102 C   0  0  0  0  0  0
  -27.1874  -28.6901   20.6803 C   0  0  0  0  0  0
  -26.0069  -26.9453   19.4672 C   0  0  0  0  0  0
  -24.8296  -27.7054   19.4990 C   0  0  0  0  0  0
  -23.5937  -29.8326   20.1741 C   0  0  0  0  0  0
  -25.4121  -36.3124   24.0367 C   0  0  1  0  0  0
  -20.5847  -28.3625   23.1346 C   0  0  2  0  0  0
  -20.6743  -26.9366   22.5431 C   0  0  0  0  0  0
  -19.5715  -26.6356   21.5226 C   0  0  0  0  0  0
  -18.1892  -26.7887   22.1632 C   0  0  0  0  0  0
  -19.1502  -28.8793   23.2922 C   0  0  0  0  0  0
  -18.9436  -30.1412   23.8913 C   0  0  0  0  0  0
  -17.6441  -30.6558   24.0550 C   0  0  0  0  0  0
  -25.9044  -34.9482   23.5155 C   0  0  0  0  0  0
  -16.5332  -29.9058   23.6316 C   0  0  0  0  0  0
  -16.7248  -28.6464   23.0361 C   0  0  0  0  0  0
  -26.4439  -31.6581   25.0720 C   0  0  0  0  0  0
  -25.3680  -31.3677   26.1444 C   0  0  0  0  0  0
  -27.0275  -30.3017   24.6110 C   0  0  0  0  0  0
  -27.6029  -32.4306   25.7440 C   0  0  0  0  0  0
  -27.5611  -37.1790   24.8473 C   0  0  0  0  0  0
  -21.4114  -29.3007   22.3760 N   0  0  0  0  0  0
  -26.4315  -37.3814   23.9419 N   0  0  0  0  0  0
  -24.6674  -31.0779   22.1028 N   0  0  0  0  0  0
  -23.4164  -28.8203   23.3098 O   0  0  0  0  0  0
  -28.3829  -26.7085   19.9762 O   0  0  0  0  0  0
  -26.5634  -34.8941   22.4725 O   0  0  0  0  0  0
  -23.5339  -32.1495   23.7483 O   0  0  0  0  0  0
  -28.8888  -23.0920   19.9485 C   0  0  0  0  0  0
  -28.5488  -21.7472   19.5614 C   0  0  0  0  0  0
  -29.9851  -23.2635   20.8666 C   0  0  0  0  0  0
  -29.3945  -20.6677   19.9419 C   0  0  0  0  0  0
  -30.6852  -22.0867   21.2625 C   0  0  0  0  0  0
  -27.2723  -21.4680   18.7591 C   0  0  0  0  0  0
  -33.1795  -21.9843   21.7791 C   0  0  0  0  0  0
  -31.7897  -25.0882   21.6257 C   0  0  0  0  0  0
  -29.4684  -24.9579   22.7153 C   0  0  0  0  0  0
  -27.9784  -24.2427   19.4034 C   0  0  0  0  0  0
  -29.3273  -19.2295   19.3818 C   0  0  0  0  0  0
  -31.7516  -22.0148   22.3463 C   0  0  0  0  0  0
  -29.4414  -18.0613   20.4160 C   0  0  0  0  0  0
  -29.6945  -16.6929   19.7276 C   0  0  0  0  0  0
  -28.5074  -25.6575   18.9875 C   0  0  0  0  0  0
  -30.3170  -24.6510   21.4744 C   0  0  0  0  0  0
  -30.4428  -20.8687   20.7480 N   0  0  0  0  0  0
  -29.7544  -15.5219   20.6275 N   0  0  0  0  0  0
  -31.4594  -12.3816   19.1294 H   0  0  0  0  0  0
  -30.3053  -11.2828   19.8186 H   0  0  0  0  0  0
  -29.7176  -11.7779   17.4173 H   0  0  0  0  0  0
  -29.6411  -13.4873   17.7707 H   0  0  0  0  0  0
  -27.8079  -11.2995   18.8084 H   0  0  0  0  0  0
  -27.3533  -12.6335   17.7829 H   0  0  0  0  0  0
  -27.6785  -14.2312   19.5561 H   0  0  0  0  0  0
  -28.6625  -11.9299   21.3243 H   0  0  0  0  0  0
  -28.4555  -13.5679   21.8790 H   0  0  0  0  0  0
  -25.2745   -9.5668   22.4758 H   0  0  0  0  0  0
  -24.0015   -7.4573   22.7434 H   0  0  0  0  0  0
  -21.0851   -8.8680   19.8899 H   0  0  0  0  0  0
  -22.3646  -10.9650   19.6115 H   0  0  0  0  0  0
  -21.1990   -7.6166   23.9731 H   0  0  0  0  0  0
  -21.1461   -6.0558   25.9107 H   0  0  0  0  0  0
  -22.0603   -2.7603   23.2882 H   0  0  0  0  0  0
  -22.4214  -11.9757   22.4705 H   0  0  0  0  0  0
  -21.1097  -13.1061   22.2760 H   0  0  0  0  0  0
  -24.6487  -15.8310   20.5129 H   0  0  0  0  0  0
  -26.2702  -15.6264   20.0827 H   0  0  0  0  0  0
  -26.7071  -32.5487   23.1125 H   0  0  0  0  0  0
  -25.0001  -33.9779   25.0454 H   0  0  0  0  0  0
  -22.6874  -31.3142   21.4297 H   0  0  0  0  0  0
  -23.3812  -35.9557   23.3273 H   0  0  0  0  0  0
  -24.3611  -36.8926   22.2067 H   0  0  0  0  0  0
  -23.7156  -37.6451   23.6661 H   0  0  0  0  0  0
  -26.0724  -31.5886   20.6149 H   0  0  0  0  0  0
  -26.8135  -30.8489   22.0049 H   0  0  0  0  0  0
  -28.0929  -29.0710   21.1286 H   0  0  0  0  0  0
  -25.9493  -25.9857   18.9767 H   0  0  0  0  0  0
  -23.9284  -27.3167   19.0446 H   0  0  0  0  0  0
  -23.6849  -30.6087   19.4136 H   0  0  0  0  0  0
  -22.7145  -29.2491   19.8913 H   0  0  0  0  0  0
  -25.1275  -36.2026   25.0869 H   0  0  0  0  0  0
  -20.9949  -28.3160   24.1466 H   0  0  0  0  0  0
  -20.5647  -26.2210   23.3599 H   0  0  0  0  0  0
  -21.6604  -26.7379   22.1211 H   0  0  0  0  0  0
  -19.6861  -25.6273   21.1213 H   0  0  0  0  0  0
  -19.6650  -27.3200   20.6781 H   0  0  0  0  0  0
  -17.4167  -26.6681   21.4025 H   0  0  0  0  0  0
  -18.0258  -26.0007   22.9000 H   0  0  0  0  0  0
  -19.7911  -30.7225   24.2291 H   0  0  0  0  0  0
  -17.4986  -31.6251   24.5117 H   0  0  0  0  0  0
  -15.5326  -30.2961   23.7611 H   0  0  0  0  0  0
  -15.8652  -28.0777   22.7084 H   0  0  0  0  0  0
  -24.5858  -30.7039   25.7732 H   0  0  0  0  0  0
  -24.8860  -32.2827   26.4897 H   0  0  0  0  0  0
  -25.8007  -30.8804   27.0190 H   0  0  0  0  0  0
  -26.2823  -29.6766   24.1170 H   0  0  0  0  0  0
  -27.4040  -29.7265   25.4579 H   0  0  0  0  0  0
  -27.8664  -30.4333   23.9273 H   0  0  0  0  0  0
  -27.2671  -33.3633   26.1979 H   0  0  0  0  0  0
  -28.3797  -32.6814   25.0205 H   0  0  0  0  0  0
  -28.0711  -31.8442   26.5351 H   0  0  0  0  0  0
  -28.2601  -38.0118   24.7592 H   0  0  0  0  0  0
  -28.1140  -36.2654   24.6214 H   0  0  0  0  0  0
  -27.2338  -37.1335   25.8879 H   0  0  0  0  0  0
  -20.9263  -29.8744   21.7002 H   0  0  0  0  0  0
  -26.0226  -38.2899   24.1436 H   0  0  0  0  0  0
  -26.8792  -20.4617   18.9152 H   0  0  0  0  0  0
  -27.4340  -21.6282   17.6895 H   0  0  0  0  0  0
  -26.4596  -22.1230   19.0793 H   0  0  0  0  0  0
  -33.9087  -21.8557   22.5790 H   0  0  0  0  0  0
  -33.4286  -22.8971   21.2419 H   0  0  0  0  0  0
  -33.3026  -21.1549   21.0813 H   0  0  0  0  0  0
  -32.3548  -24.9179   20.7077 H   0  0  0  0  0  0
  -32.3242  -24.6381   22.4550 H   0  0  0  0  0  0
  -31.8315  -26.1635   21.8185 H   0  0  0  0  0  0
  -28.4037  -24.8536   22.4931 H   0  0  0  0  0  0
  -29.6243  -25.9813   23.0561 H   0  0  0  0  0  0
  -29.6998  -24.2907   23.5444 H   0  0  0  0  0  0
  -27.0895  -24.3203   20.0339 H   0  0  0  0  0  0
  -27.6244  -23.8893   18.4349 H   0  0  0  0  0  0
  -30.1545  -19.1451   18.6729 H   0  0  0  0  0  0
  -28.4381  -19.0628   18.7759 H   0  0  0  0  0  0
  -31.5972  -21.0905   22.9079 H   0  0  0  0  0  0
  -31.6090  -22.7891   23.0950 H   0  0  0  0  0  0
  -28.5430  -18.0222   21.0349 H   0  0  0  0  0  0
  -30.2714  -18.2487   21.0930 H   0  0  0  0  0  0
  -28.8824  -16.5037   19.0241 H   0  0  0  0  0  0
  -30.5955  -16.7544   19.1147 H   0  0  0  0  0  0
  -27.9962  -25.9851   18.0785 H   0  0  0  0  0  0
  -29.5410  -25.5750   18.6527 H   0  0  0  0  0  0
  -30.0505  -25.3792   20.7429 H   0  0  0  0  0  0
  -28.8650  -15.2522   21.0257 H   0  0  0  0  0  0
  1 25  1  0  0  0
  1 30  2  0  0  0
  1 88  1  0  0  0
  2  3  1  0  0  0
  2 25  1  0  0  0
  2 89  1  0  0  0
  2 90  1  0  0  0
  3  4  1  0  0  0
  3 91  1  0  0  0
  3 92  1  0  0  0
  4  5  1  0  0  0
  4 93  1  0  0  0
  4 94  1  0  0  0
  5  6  1  0  0  0
  5 26  1  0  0  0
  5 95  1  0  0  0
  6 25  1  0  0  0
  6 96  1  0  0  0
  6 97  1  0  0  0
  7  8  2  0  0  0
  7 26  1  0  0  0
  7 29  1  0  0  0
  8  9  1  0  0  0
  8 22  1  0  0  0
  9 10  1  0  0  0
  9 27  2  0  0  0
 10 11  2  0  0  0
 10 15  1  0  0  0
 11 12  1  0  0  0
 11 98  1  0  0  0
 12 13  2  0  0  0
 12 99  1  0  0  0
 13 14  1  0  0  0
 13 31  1  0  0  0
 14 15  2  0  0  0
 14100  1  0  0  0
 15101  1  0  0  0
 16 17  2  0  0  0
 16 21  1  0  0  0
 16 31  1  0  0  0
 17 18  1  0  0  0
 17102  1  0  0  0
 18 19  2  0  0  0
 18103  1  0  0  0
 19 20  1  0  0  0
 19 24  1  0  0  0
 20 21  2  0  0  0
 20104  1  0  0  0
 21 23  1  0  0  0
 22 28  1  0  0  0
 22 32  2  0  0  0
 26 27  1  0  0  0
 28105  1  0  0  0
 28106  1  0  0  0
 29107  1  0  0  0
 29108  1  0  0  0
 33 34  1  0  0  0
 33 66  1  0  0  0
 33 70  2  0  0  0
 34 36  1  0  0  0
 34 59  1  0  0  0
 34109  1  0  0  0
 35 44  2  0  0  0
 35 45  1  0  0  0
 35 68  1  0  0  0
 36 56  1  0  0  0
 36110  1  0  0  0
 37 39  1  0  0  0
 37 47  1  0  0  0
 37 66  1  0  0  0
 37111  1  0  0  0
 38 43  2  0  0  0
 38 46  1  0  0  0
 38 47  1  0  0  0
 39 64  1  0  0  0
 39 67  2  0  0  0
 40 52  1  0  0  0
 40 53  2  0  0  0
 40 58  1  0  0  0
 41112  1  0  0  0
 41113  1  0  0  0
 41114  1  0  0  0
 41 48  1  0  0  0
 42 43  1  0  0  0
 42 66  1  0  0  0
 42115  1  0  0  0
 42116  1  0  0  0
 43 44  1  0  0  0
 44117  1  0  0  0
 45 46  2  0  0  0
 45118  1  0  0  0
 46119  1  0  0  0
 47120  1  0  0  0
 47121  1  0  0  0
 48 56  1  0  0  0
 48 65  1  0  0  0
 48122  1  0  0  0
 49 50  1  0  0  0
 49 53  1  0  0  0
 49 64  1  0  0  0
 49123  1  0  0  0
 50 51  1  0  0  0
 50124  1  0  0  0
 50125  1  0  0  0
 51 52  1  0  0  0
 51126  1  0  0  0
 51127  1  0  0  0
 52128  1  0  0  0
 52129  1  0  0  0
 53 54  1  0  0  0
 54 55  2  0  0  0
 54130  1  0  0  0
 55 57  1  0  0  0
 55131  1  0  0  0
 56 69  2  0  0  0
 57 58  2  0  0  0
 57132  1  0  0  0
 58133  1  0  0  0
 59 60  1  0  0  0
 59 61  1  0  0  0
 59 62  1  0  0  0
 60134  1  0  0  0
 60135  1  0  0  0
 60136  1  0  0  0
 61137  1  0  0  0
 61138  1  0  0  0
 61139  1  0  0  0
 62140  1  0  0  0
 62141  1  0  0  0
 62142  1  0  0  0
 63 65  1  0  0  0
 63143  1  0  0  0
 63144  1  0  0  0
 63145  1  0  0  0
 64146  1  0  0  0
 65147  1  0  0  0
 68 85  1  0  0  0
 71 72  2  0  0  0
 71 73  1  0  0  0
 71 80  1  0  0  0
 72 74  1  0  0  0
 72 76  1  0  0  0
 73 75  2  0  0  0
 73 86  1  0  0  0
 74 81  1  0  0  0
 74 87  2  0  0  0
 75 82  1  0  0  0
 75 87  1  0  0  0
 76148  1  0  0  0
 76149  1  0  0  0
 76150  1  0  0  0
 77 82  1  0  0  0
 77151  1  0  0  0
 77152  1  0  0  0
 77153  1  0  0  0
 78154  1  0  0  0
 78155  1  0  0  0
 78156  1  0  0  0
 78 86  1  0  0  0
 79 86  1  0  0  0
 79157  1  0  0  0
 79158  1  0  0  0
 79159  1  0  0  0
 80 85  1  0  0  0
 80160  1  0  0  0
 80161  1  0  0  0
 81 83  1  0  0  0
 81162  1  0  0  0
 81163  1  0  0  0
 82164  1  0  0  0
 82165  1  0  0  0
 83 84  1  0  0  0
 83166  1  0  0  0
 83167  1  0  0  0
 84 88  1  0  0  0
 84168  1  0  0  0
 84169  1  0  0  0
 85170  1  0  0  0
 85171  1  0  0  0
 86172  1  0  0  0
 88173  1  0  0  0
M  ISO  4   1 100  68 101  85 101  88 100
M  END
> <chiral flag>
0

> <version>
0

> <s_m_source_file>
/data/baiqing/PycharmProjects/Reinvent-master-3.2/result/LINK_invent/BTK/process_docking_weight1_custom_sum_contain_oxygen_bond_distance_aromatic_linkinvent_7_9_3/rearranged_h_0045.sdf

> <i_m_source_file_index>
9

> <r_mmod_Potential_Energy-OPLS-2005>
-111.477348327637

> <r_mmod_Stretch_Energy-OPLS-2005>
55.7902946472168

> <r_mmod_Bend_Energy-OPLS-2005>
152.6064453125

> <r_mmod_Torsional_Energy-OPLS-2005>
224.560760498047

> <r_mmod_Improper_Torsional_Energy-OPLS-2005>
12.6125440597534

> <r_mmod_Van_der_Waal_Energy-OPLS-2005>
182.81950378418

> <r_mmod_Electrostatic_Energy-OPLS-2005>
-535.294860839844

> <r_mmod_Solvation_Energy-OPLS-2005>
-223.897171020508

> <b_mmod_Minimization_Converged-OPLS-2005>
0

> <r_mmod_RMS_Derivative-OPLS-2005>
6.09801959991455

$$$$
9
                    3D
 Structure written by MMmdl.
157165  0  0  1  0            999 V2000
  -30.6078  -14.7284   20.4607 C   0  0  0  0  0  0
  -30.4223  -12.4430   19.4694 C   0  0  0  0  0  0
  -29.5061  -12.5276   18.2294 C   0  0  0  0  0  0
  -28.0317  -12.3644   18.6497 C   0  0  0  0  0  0
  -27.6420  -13.2441   19.8675 C   0  0  2  0  0  0
  -28.6899  -13.1547   20.9988 C   0  0  0  0  0  0
  -25.2503  -13.8206   20.5777 C   0  0  0  0  0  0
  -24.1784  -13.0424   20.9253 C   0  0  0  0  0  0
  -24.6380  -11.6903   20.8758 C   0  0  0  0  0  0
  -23.9046  -10.4260   21.0389 C   0  0  0  0  0  0
  -24.3605   -9.4187   21.9172 C   0  0  0  0  0  0
  -23.6298   -8.2208   22.0751 C   0  0  0  0  0  0
  -22.4290   -8.0220   21.3524 C   0  0  0  0  0  0
  -21.9903   -9.0186   20.4637 C   0  0  0  0  0  0
  -22.7205  -10.2085   20.3048 C   0  0  0  0  0  0
  -21.6849   -6.0688   22.5267 C   0  0  0  0  0  0
  -21.3990   -6.5609   23.8185 C   0  0  0  0  0  0
  -21.3690   -5.6787   24.9175 C   0  0  0  0  0  0
  -21.6064   -4.3044   24.7244 C   0  0  0  0  0  0
  -21.8816   -3.8107   23.4373 C   0  0  0  0  0  0
  -21.9192   -4.6915   22.3409 C   0  0  0  0  0  0
  -22.7803  -13.5183   21.1916 C   0  0  0  0  0  0
  -22.1659   -4.2089   21.0996 F   0  0  0  0  0  0
  -21.5666   -3.4534   25.7767 F   0  0  0  0  0  0
  -29.9877  -13.5016   20.4113 N   0  0  0  0  0  0
  -26.2942  -12.9428   20.3408 N   0  0  0  0  0  0
  -25.9319  -11.6549   20.5777 N   0  0  0  0  0  0
  -22.0478  -12.8130   22.0479 N   0  0  0  0  0  0
  -25.4224  -15.1923   20.4184 N   0  0  0  0  0  0
  -31.7940  -14.8287   20.1361 O   0  0  0  0  0  0
  -21.6656   -6.8819   21.4215 O   0  0  0  0  0  0
  -22.3472  -14.5489   20.6771 O   0  0  0  0  0  0
  -24.6301  -31.8540   23.1963 C   0  0  0  0  0  0
  -25.9113  -32.4729   23.8339 C   0  0  1  0  0  0
  -27.2157  -27.2688   20.1295 C   0  0  0  0  0  0
  -25.5906  -33.8544   24.2266 N   0  0  0  0  0  0
  -23.4260  -30.4754   21.5398 C   0  0  2  0  0  0
  -24.8711  -28.9153   20.1172 C   0  0  0  0  0  0
  -22.7488  -29.4602   22.4912 C   0  0  0  0  0  0
  -18.0276  -28.1386   22.8457 C   0  0  0  0  0  0
  -24.1483  -36.7298   23.2645 C   0  0  0  0  0  0
  -25.9707  -30.7719   21.3682 C   0  0  0  0  0  0
  -26.0447  -29.3934   20.7137 C   0  0  0  0  0  0
  -27.2260  -28.5852   20.6963 C   0  0  0  0  0  0
  -26.0212  -26.8443   19.5177 C   0  0  0  0  0  0
  -24.8637  -27.6492   19.5068 C   0  0  0  0  0  0
  -23.6423  -29.8028   20.1590 C   0  0  0  0  0  0
  -25.4099  -36.3064   24.0331 C   0  0  1  0  0  0
  -20.5879  -28.3705   23.1252 C   0  0  2  0  0  0
  -20.6774  -26.9424   22.5402 C   0  0  0  0  0  0
  -19.5761  -26.6386   21.5197 C   0  0  0  0  0  0
  -18.1933  -26.7921   22.1597 C   0  0  0  0  0  0
  -19.1530  -28.8862   23.2837 C   0  0  0  0  0  0
  -18.9454  -30.1455   23.8867 C   0  0  0  0  0  0
  -17.6455  -30.6587   24.0559 C   0  0  0  0  0  0
  -25.9051  -34.9432   23.5110 C   0  0  0  0  0  0
  -16.5345  -29.9085   23.6328 C   0  0  0  0  0  0
  -16.7261  -28.6505   23.0337 C   0  0  0  0  0  0
  -26.4524  -31.6540   25.0719 C   0  0  0  0  0  0
  -25.3771  -31.3640   26.1443 C   0  0  0  0  0  0
  -27.0369  -30.2943   24.6203 C   0  0  0  0  0  0
  -27.6082  -32.4289   25.7479 C   0  0  0  0  0  0
  -27.5574  -37.1786   24.8462 C   0  0  0  0  0  0
  -21.4187  -29.3040   22.3636 N   0  0  0  0  0  0
  -26.4285  -37.3753   23.9419 N   0  0  0  0  0  0
  -24.6953  -31.0529   22.0929 N   0  0  0  0  0  0
  -23.4174  -28.8151   23.3030 O   0  0  0  0  0  0
  -28.3255  -26.4038   20.1037 O   0  0  0  0  0  0
  -26.5639  -34.8908   22.4696 O   0  0  0  0  0  0
  -23.5446  -32.1372   23.7269 O   0  0  0  0  0  0
  -30.7475  -20.4332   19.2023 C   0  0  0  0  0  0
  -30.1397  -22.6884   19.1147 C   0  0  0  0  0  0
  -29.5981  -20.0926   19.9828 C   0  0  0  0  0  0
  -28.9738  -22.4571   19.8776 C   0  0  0  0  0  0
  -31.7701  -19.4456   18.6712 C   0  0  0  0  0  0
  -30.4664  -24.0454   18.5210 C   0  0  0  0  0  0
  -29.2116  -18.5784   20.3983 C   0  0  0  0  0  0
  -27.9164  -23.6441   20.0424 C   0  0  0  0  0  0
  -30.2522  -17.3138   20.3619 C   0  0  0  0  0  0
  -28.2658  -25.0556   20.7594 C   0  0  0  0  0  0
  -31.0073  -21.7029   18.8018 N   0  0  0  0  0  0
  -28.7251  -21.1450   20.3076 N   0  0  0  0  0  0
  -29.8345  -15.8673   20.6454 N   0  0  0  0  0  0
  -31.4703  -12.5384   19.1814 H   0  0  0  0  0  0
  -30.3280  -11.4596   19.9313 H   0  0  0  0  0  0
  -29.7734  -11.7558   17.5068 H   0  0  0  0  0  0
  -29.6536  -13.4801   17.7144 H   0  0  0  0  0  0
  -27.8827  -11.3149   18.9038 H   0  0  0  0  0  0
  -27.3686  -12.5717   17.8093 H   0  0  0  0  0  0
  -27.6387  -14.2748   19.5117 H   0  0  0  0  0  0
  -28.7215  -12.1471   21.4142 H   0  0  0  0  0  0
  -28.4452  -13.8180   21.8310 H   0  0  0  0  0  0
  -25.2740   -9.5672   22.4773 H   0  0  0  0  0  0
  -24.0006   -7.4601   22.7479 H   0  0  0  0  0  0
  -21.0829   -8.8658   19.8956 H   0  0  0  0  0  0
  -22.3604  -10.9613   19.6176 H   0  0  0  0  0  0
  -21.1928   -7.6107   23.9658 H   0  0  0  0  0  0
  -21.1565   -6.0536   25.9081 H   0  0  0  0  0  0
  -22.0582   -2.7560   23.2902 H   0  0  0  0  0  0
  -22.4129  -11.9772   22.4806 H   0  0  0  0  0  0
  -21.1084  -13.1097   22.2725 H   0  0  0  0  0  0
  -24.6594  -15.8543   20.5119 H   0  0  0  0  0  0
  -26.2701  -15.6164   20.0632 H   0  0  0  0  0  0
  -26.7172  -32.5372   23.1078 H   0  0  0  0  0  0
  -25.0005  -33.9702   25.0370 H   0  0  0  0  0  0
  -22.7203  -31.2945   21.3883 H   0  0  0  0  0  0
  -23.3747  -35.9630   23.3285 H   0  0  0  0  0  0
  -24.3584  -36.8962   22.2071 H   0  0  0  0  0  0
  -23.7242  -37.6493   23.6694 H   0  0  0  0  0  0
  -26.1029  -31.5285   20.5943 H   0  0  0  0  0  0
  -26.8521  -30.8283   21.9953 H   0  0  0  0  0  0
  -28.1382  -28.9544   21.1442 H   0  0  0  0  0  0
  -25.9794  -25.8723   19.0486 H   0  0  0  0  0  0
  -23.9636  -27.2820   19.0339 H   0  0  0  0  0  0
  -23.7604  -30.5764   19.3992 H   0  0  0  0  0  0
  -22.7636  -29.2279   19.8595 H   0  0  0  0  0  0
  -25.1266  -36.1934   25.0821 H   0  0  0  0  0  0
  -20.9943  -28.3304   24.1382 H   0  0  0  0  0  0
  -20.5683  -26.2321   23.3607 H   0  0  0  0  0  0
  -21.6651  -26.7468   22.1200 H   0  0  0  0  0  0
  -19.6969  -25.6301   21.1225 H   0  0  0  0  0  0
  -19.6721  -27.3199   20.6734 H   0  0  0  0  0  0
  -17.4209  -26.6631   21.3999 H   0  0  0  0  0  0
  -18.0364  -26.0057   22.8998 H   0  0  0  0  0  0
  -19.7935  -30.7261   24.2244 H   0  0  0  0  0  0
  -17.5014  -31.6261   24.5172 H   0  0  0  0  0  0
  -15.5354  -30.2985   23.7676 H   0  0  0  0  0  0
  -15.8641  -28.0826   22.7079 H   0  0  0  0  0  0
  -24.6007  -30.6913   25.7773 H   0  0  0  0  0  0
  -24.8899  -32.2776   26.4855 H   0  0  0  0  0  0
  -25.8141  -30.8853   27.0219 H   0  0  0  0  0  0
  -26.2947  -29.6639   24.1292 H   0  0  0  0  0  0
  -27.4098  -29.7247   25.4730 H   0  0  0  0  0  0
  -27.8798  -30.4171   23.9396 H   0  0  0  0  0  0
  -27.2719  -33.3629   26.1988 H   0  0  0  0  0  0
  -28.3928  -32.6783   25.0322 H   0  0  0  0  0  0
  -28.0703  -31.8448   26.5446 H   0  0  0  0  0  0
  -28.2559  -38.0108   24.7525 H   0  0  0  0  0  0
  -28.1101  -36.2645   24.6257 H   0  0  0  0  0  0
  -27.2306  -37.1398   25.8865 H   0  0  0  0  0  0
  -20.9398  -29.8697   21.6762 H   0  0  0  0  0  0
  -26.0167  -38.2832   24.1425 H   0  0  0  0  0  0
  -32.2896  -18.9259   19.4752 H   0  0  0  0  0  0
  -32.5343  -19.9438   18.0731 H   0  0  0  0  0  0
  -31.2923  -18.7354   17.9999 H   0  0  0  0  0  0
  -29.5963  -24.4671   18.0193 H   0  0  0  0  0  0
  -31.2653  -23.9672   17.7835 H   0  0  0  0  0  0
  -30.7945  -24.7339   19.2984 H   0  0  0  0  0  0
  -28.3645  -18.3202   19.7610 H   0  0  0  0  0  0
  -28.7978  -18.6306   21.4067 H   0  0  0  0  0  0
  -27.0609  -23.2161   20.5687 H   0  0  0  0  0  0
  -27.5217  -23.8650   19.0518 H   0  0  0  0  0  0
  -31.0895  -17.5309   21.0240 H   0  0  0  0  0  0
  -30.6566  -17.2369   19.3583 H   0  0  0  0  0  0
  -29.2327  -24.9288   21.2486 H   0  0  0  0  0  0
  -27.5644  -25.1562   21.5898 H   0  0  0  0  0  0
  -28.8740  -15.7109   20.9128 H   0  0  0  0  0  0
  1 25  1  0  0  0
  1 30  2  0  0  0
  1 83  1  0  0  0
  2  3  1  0  0  0
  2 25  1  0  0  0
  2 84  1  0  0  0
  2 85  1  0  0  0
  3  4  1  0  0  0
  3 86  1  0  0  0
  3 87  1  0  0  0
  4  5  1  0  0  0
  4 88  1  0  0  0
  4 89  1  0  0  0
  5  6  1  0  0  0
  5 26  1  0  0  0
  5 90  1  0  0  0
  6 25  1  0  0  0
  6 91  1  0  0  0
  6 92  1  0  0  0
  7  8  2  0  0  0
  7 26  1  0  0  0
  7 29  1  0  0  0
  8  9  1  0  0  0
  8 22  1  0  0  0
  9 10  1  0  0  0
  9 27  2  0  0  0
 10 11  2  0  0  0
 10 15  1  0  0  0
 11 12  1  0  0  0
 11 93  1  0  0  0
 12 13  2  0  0  0
 12 94  1  0  0  0
 13 14  1  0  0  0
 13 31  1  0  0  0
 14 15  2  0  0  0
 14 95  1  0  0  0
 15 96  1  0  0  0
 16 17  2  0  0  0
 16 21  1  0  0  0
 16 31  1  0  0  0
 17 18  1  0  0  0
 17 97  1  0  0  0
 18 19  2  0  0  0
 18 98  1  0  0  0
 19 20  1  0  0  0
 19 24  1  0  0  0
 20 21  2  0  0  0
 20 99  1  0  0  0
 21 23  1  0  0  0
 22 28  1  0  0  0
 22 32  2  0  0  0
 26 27  1  0  0  0
 28100  1  0  0  0
 28101  1  0  0  0
 29102  1  0  0  0
 29103  1  0  0  0
 33 34  1  0  0  0
 33 66  1  0  0  0
 33 70  2  0  0  0
 34 36  1  0  0  0
 34 59  1  0  0  0
 34104  1  0  0  0
 35 44  2  0  0  0
 35 45  1  0  0  0
 35 68  1  0  0  0
 36 56  1  0  0  0
 36105  1  0  0  0
 37 39  1  0  0  0
 37 47  1  0  0  0
 37 66  1  0  0  0
 37106  1  0  0  0
 38 43  2  0  0  0
 38 46  1  0  0  0
 38 47  1  0  0  0
 39 64  1  0  0  0
 39 67  2  0  0  0
 40 52  1  0  0  0
 40 53  2  0  0  0
 40 58  1  0  0  0
 41107  1  0  0  0
 41108  1  0  0  0
 41109  1  0  0  0
 41 48  1  0  0  0
 42 43  1  0  0  0
 42 66  1  0  0  0
 42110  1  0  0  0
 42111  1  0  0  0
 43 44  1  0  0  0
 44112  1  0  0  0
 45 46  2  0  0  0
 45113  1  0  0  0
 46114  1  0  0  0
 47115  1  0  0  0
 47116  1  0  0  0
 48 56  1  0  0  0
 48 65  1  0  0  0
 48117  1  0  0  0
 49 50  1  0  0  0
 49 53  1  0  0  0
 49 64  1  0  0  0
 49118  1  0  0  0
 50 51  1  0  0  0
 50119  1  0  0  0
 50120  1  0  0  0
 51 52  1  0  0  0
 51121  1  0  0  0
 51122  1  0  0  0
 52123  1  0  0  0
 52124  1  0  0  0
 53 54  1  0  0  0
 54 55  2  0  0  0
 54125  1  0  0  0
 55 57  1  0  0  0
 55126  1  0  0  0
 56 69  2  0  0  0
 57 58  2  0  0  0
 57127  1  0  0  0
 58128  1  0  0  0
 59 60  1  0  0  0
 59 61  1  0  0  0
 59 62  1  0  0  0
 60129  1  0  0  0
 60130  1  0  0  0
 60131  1  0  0  0
 61132  1  0  0  0
 61133  1  0  0  0
 61134  1  0  0  0
 62135  1  0  0  0
 62136  1  0  0  0
 62137  1  0  0  0
 63 65  1  0  0  0
 63138  1  0  0  0
 63139  1  0  0  0
 63140  1  0  0  0
 64141  1  0  0  0
 65142  1  0  0  0
 68 80  1  0  0  0
 71 73  2  0  0  0
 71 75  1  0  0  0
 71 81  1  0  0  0
 72 74  1  0  0  0
 72 76  1  0  0  0
 72 81  2  0  0  0
 73 77  1  0  0  0
 73 82  1  0  0  0
 74 78  1  0  0  0
 74 82  2  0  0  0
 75143  1  0  0  0
 75144  1  0  0  0
 75145  1  0  0  0
 76146  1  0  0  0
 76147  1  0  0  0
 76148  1  0  0  0
 77 79  1  0  0  0
 77149  1  0  0  0
 77150  1  0  0  0
 78 80  1  0  0  0
 78151  1  0  0  0
 78152  1  0  0  0
 79 83  1  0  0  0
 79153  1  0  0  0
 79154  1  0  0  0
 80155  1  0  0  0
 80156  1  0  0  0
 83157  1  0  0  0
M  ISO  4   1 100  68 101  80 101  83 100
M  END
> <chiral flag>
0

> <version>
0

> <s_m_source_file>
/data/baiqing/PycharmProjects/Reinvent-master-3.2/result/LINK_invent/BTK/process_docking_weight1_custom_sum_contain_oxygen_bond_distance_aromatic_linkinvent_7_9_3/rearranged_h_0045.sdf

> <i_m_source_file_index>
10

> <r_mmod_Potential_Energy-OPLS-2005>
193.148422241211

> <r_mmod_Stretch_Energy-OPLS-2005>
136.470520019531

> <r_mmod_Bend_Energy-OPLS-2005>
194.281158447266

> <r_mmod_Torsional_Energy-OPLS-2005>
233.308898925781

> <r_mmod_Improper_Torsional_Energy-OPLS-2005>
6.54612398147583

> <r_mmod_Van_der_Waal_Energy-OPLS-2005>
140.969573974609

> <r_mmod_Electrostatic_Energy-OPLS-2005>
-365.847381591797

> <r_mmod_Solvation_Energy-OPLS-2005>
-228.303726196289

> <b_mmod_Minimization_Converged-OPLS-2005>
0

> <r_mmod_RMS_Derivative-OPLS-2005>
3.86537933349609

$$$$
10
                    3D
 Structure written by MMmdl.
166174  0  0  1  0            999 V2000
  -30.6207  -14.7235   20.4775 C   0  0  0  0  0  0
  -30.4513  -12.4483   19.4645 C   0  0  0  0  0  0
  -29.5183  -12.5190   18.2341 C   0  0  0  0  0  0
  -28.0419  -12.3443   18.6473 C   0  0  0  0  0  0
  -27.6545  -13.2302   19.8614 C   0  0  2  0  0  0
  -28.7056  -13.1317   20.9921 C   0  0  0  0  0  0
  -25.2569  -13.8203   20.5707 C   0  0  0  0  0  0
  -24.1837  -13.0442   20.9232 C   0  0  0  0  0  0
  -24.6429  -11.6923   20.8759 C   0  0  0  0  0  0
  -23.9087  -10.4298   21.0427 C   0  0  0  0  0  0
  -24.3625   -9.4207   21.9209 C   0  0  0  0  0  0
  -23.6291   -8.2244   22.0761 C   0  0  0  0  0  0
  -22.4272   -8.0297   21.3560 C   0  0  0  0  0  0
  -21.9914   -9.0282   20.4661 C   0  0  0  0  0  0
  -22.7253  -10.2154   20.3078 C   0  0  0  0  0  0
  -21.6846   -6.0755   22.5294 C   0  0  0  0  0  0
  -21.4012   -6.5643   23.8241 C   0  0  0  0  0  0
  -21.3658   -5.6787   24.9195 C   0  0  0  0  0  0
  -21.6042   -4.3055   24.7231 C   0  0  0  0  0  0
  -21.8819   -3.8154   23.4350 C   0  0  0  0  0  0
  -21.9190   -4.6977   22.3410 C   0  0  0  0  0  0
  -22.7860  -13.5231   21.1861 C   0  0  0  0  0  0
  -22.1658   -4.2159   21.0986 F   0  0  0  0  0  0
  -21.5627   -3.4535   25.7751 F   0  0  0  0  0  0
  -30.0099  -13.4907   20.4171 N   0  0  0  0  0  0
  -26.3017  -12.9399   20.3327 N   0  0  0  0  0  0
  -25.9367  -11.6547   20.5789 N   0  0  0  0  0  0
  -22.0456  -12.8263   22.0426 N   0  0  0  0  0  0
  -25.4205  -15.1928   20.4109 N   0  0  0  0  0  0
  -31.7921  -14.8556   20.1187 O   0  0  0  0  0  0
  -21.6631   -6.8893   21.4257 O   0  0  0  0  0  0
  -22.3566  -14.5525   20.6682 O   0  0  0  0  0  0
  -24.6305  -31.8588   23.2018 C   0  0  0  0  0  0
  -25.9156  -32.4754   23.8347 C   0  0  1  0  0  0
  -27.1936  -27.2722   20.1367 C   0  0  0  0  0  0
  -25.6002  -33.8558   24.2284 N   0  0  0  0  0  0
  -23.4177  -30.4917   21.5422 C   0  0  2  0  0  0
  -24.8616  -28.9401   20.1057 C   0  0  0  0  0  0
  -22.7470  -29.4662   22.4884 C   0  0  0  0  0  0
  -18.0308  -28.1366   22.8533 C   0  0  0  0  0  0
  -24.1485  -36.7240   23.2628 C   0  0  0  0  0  0
  -25.9646  -30.7777   21.3762 C   0  0  0  0  0  0
  -26.0312  -29.3980   20.7264 C   0  0  0  0  0  0
  -27.1991  -28.5742   20.7400 C   0  0  0  0  0  0
  -26.0116  -26.8901   19.4662 C   0  0  0  0  0  0
  -24.8563  -27.6942   19.4638 C   0  0  0  0  0  0
  -23.6332  -29.8290   20.1550 C   0  0  0  0  0  0
  -25.4113  -36.3055   24.0332 C   0  0  1  0  0  0
  -20.5922  -28.3682   23.1263 C   0  0  2  0  0  0
  -20.6777  -26.9388   22.5412 C   0  0  0  0  0  0
  -19.5733  -26.6368   21.5231 C   0  0  0  0  0  0
  -18.1919  -26.7911   22.1661 C   0  0  0  0  0  0
  -19.1567  -28.8842   23.2898 C   0  0  0  0  0  0
  -18.9493  -30.1459   23.8890 C   0  0  0  0  0  0
  -17.6486  -30.6575   24.0569 C   0  0  0  0  0  0
  -25.9078  -34.9437   23.5088 C   0  0  0  0  0  0
  -16.5379  -29.9077   23.6326 C   0  0  0  0  0  0
  -16.7294  -28.6495   23.0349 C   0  0  0  0  0  0
  -26.4528  -31.6546   25.0704 C   0  0  0  0  0  0
  -25.3773  -31.3684   26.1434 C   0  0  0  0  0  0
  -27.0357  -30.2978   24.6133 C   0  0  0  0  0  0
  -27.6089  -32.4247   25.7502 C   0  0  0  0  0  0
  -27.5551  -37.1775   24.8476 C   0  0  0  0  0  0
  -21.4184  -29.3050   22.3639 N   0  0  0  0  0  0
  -26.4261  -37.3776   23.9432 N   0  0  0  0  0  0
  -24.6900  -31.0605   22.0956 N   0  0  0  0  0  0
  -23.4223  -28.8176   23.2915 O   0  0  0  0  0  0
  -28.2726  -26.3648   20.1727 O   0  0  0  0  0  0
  -26.5600  -34.8916   22.4630 O   0  0  0  0  0  0
  -23.5476  -32.1392   23.7360 O   0  0  0  0  0  0
  -29.2373  -20.9494   20.3512 C   0  0  0  0  0  0
  -28.4393  -22.1748   20.4781 C   0  0  0  0  0  0
  -28.6105  -19.8234   20.8869 C   0  0  0  0  0  0
  -27.3200  -21.7376   21.1481 C   0  0  0  0  0  0
  -26.1092  -22.5322   21.5633 C   0  0  0  0  0  0
  -29.3960  -22.8235   17.5656 C   0  0  0  0  0  0
  -26.7258  -19.7906   23.7431 C   0  0  0  0  0  0
  -28.8425  -18.2561   21.0390 C   0  0  0  0  0  0
  -28.4606  -23.7039   18.4092 C   0  0  0  0  0  0
  -26.4641  -19.6052   22.2382 C   0  0  0  0  0  0
  -30.0530  -17.3243   20.5323 C   0  0  0  0  0  0
  -27.9819  -24.9444   20.5763 C   0  0  0  0  0  0
  -28.7315  -23.6608   19.9273 C   0  0  1  0  0  0
  -27.4366  -20.3626   21.4364 N   0  0  0  0  0  0
  -29.8227  -15.8226   20.7353 N   0  0  0  0  0  0
  -31.4887  -12.5821   19.1518 H   0  0  0  0  0  0
  -30.4102  -11.4614   19.9281 H   0  0  0  0  0  0
  -29.7950  -11.7573   17.5042 H   0  0  0  0  0  0
  -29.6476  -13.4813   17.7369 H   0  0  0  0  0  0
  -27.8932  -11.2929   18.8940 H   0  0  0  0  0  0
  -27.3859  -12.5507   17.8023 H   0  0  0  0  0  0
  -27.6582  -14.2589   19.5013 H   0  0  0  0  0  0
  -28.7424  -12.1204   21.3996 H   0  0  0  0  0  0
  -28.4504  -13.7877   21.8259 H   0  0  0  0  0  0
  -25.2765   -9.5674   22.4801 H   0  0  0  0  0  0
  -23.9996   -7.4621   22.7472 H   0  0  0  0  0  0
  -21.0841   -8.8809   19.8973 H   0  0  0  0  0  0
  -22.3714  -10.9706   19.6195 H   0  0  0  0  0  0
  -21.2001   -7.6152   23.9742 H   0  0  0  0  0  0
  -21.1478   -6.0523   25.9101 H   0  0  0  0  0  0
  -22.0594   -2.7610   23.2854 H   0  0  0  0  0  0
  -22.4004  -11.9903   22.4835 H   0  0  0  0  0  0
  -21.1097  -13.1366   22.2618 H   0  0  0  0  0  0
  -24.6401  -15.8340   20.5086 H   0  0  0  0  0  0
  -26.2455  -15.6332   20.0270 H   0  0  0  0  0  0
  -26.7200  -32.5404   23.1076 H   0  0  0  0  0  0
  -25.0251  -33.9693   25.0502 H   0  0  0  0  0  0
  -22.7141  -31.3169   21.4023 H   0  0  0  0  0  0
  -23.3772  -35.9551   23.3304 H   0  0  0  0  0  0
  -24.3565  -36.8836   22.2034 H   0  0  0  0  0  0
  -23.7221  -37.6446   23.6629 H   0  0  0  0  0  0
  -26.0993  -31.5334   20.5997 H   0  0  0  0  0  0
  -26.8465  -30.8320   22.0031 H   0  0  0  0  0  0
  -28.0846  -28.9112   21.2585 H   0  0  0  0  0  0
  -25.9690  -25.9474   18.9380 H   0  0  0  0  0  0
  -23.9668  -27.3518   18.9531 H   0  0  0  0  0  0
  -23.7523  -30.6074   19.4010 H   0  0  0  0  0  0
  -22.7487  -29.2654   19.8511 H   0  0  0  0  0  0
  -25.1304  -36.1865   25.0822 H   0  0  0  0  0  0
  -21.0089  -28.3255   24.1352 H   0  0  0  0  0  0
  -20.5646  -26.2296   23.3637 H   0  0  0  0  0  0
  -21.6631  -26.7341   22.1206 H   0  0  0  0  0  0
  -19.6846  -25.6287   21.1228 H   0  0  0  0  0  0
  -19.6613  -27.3218   20.6791 H   0  0  0  0  0  0
  -17.4178  -26.6724   21.4058 H   0  0  0  0  0  0
  -18.0261  -26.0024   22.9025 H   0  0  0  0  0  0
  -19.7961  -30.7301   24.2202 H   0  0  0  0  0  0
  -17.5028  -31.6240   24.5187 H   0  0  0  0  0  0
  -15.5378  -30.2966   23.7615 H   0  0  0  0  0  0
  -15.8711  -28.0811   22.7017 H   0  0  0  0  0  0
  -24.5980  -30.6983   25.7776 H   0  0  0  0  0  0
  -24.8949  -32.2862   26.4803 H   0  0  0  0  0  0
  -25.8134  -30.8910   27.0223 H   0  0  0  0  0  0
  -26.2946  -29.6790   24.1057 H   0  0  0  0  0  0
  -27.3982  -29.7147   25.4608 H   0  0  0  0  0  0
  -27.8849  -30.4291   23.9423 H   0  0  0  0  0  0
  -27.2705  -33.3555   26.2063 H   0  0  0  0  0  0
  -28.3951  -32.6765   25.0368 H   0  0  0  0  0  0
  -28.0702  -31.8353   26.5447 H   0  0  0  0  0  0
  -28.2594  -38.0044   24.7515 H   0  0  0  0  0  0
  -28.1016  -36.2588   24.6304 H   0  0  0  0  0  0
  -27.2259  -37.1418   25.8874 H   0  0  0  0  0  0
  -20.9311  -29.8785   21.6897 H   0  0  0  0  0  0
  -26.0127  -38.2842   24.1464 H   0  0  0  0  0  0
  -30.2026  -20.8954   19.8657 H   0  0  0  0  0  0
  -25.3208  -21.9515   22.0316 H   0  0  0  0  0  0
  -25.6368  -23.0052   20.7016 H   0  0  0  0  0  0
  -26.3853  -23.3084   22.2762 H   0  0  0  0  0  0
  -29.1183  -22.8611   16.5126 H   0  0  0  0  0  0
  -29.3501  -21.7774   17.8605 H   0  0  0  0  0  0
  -30.4297  -23.1618   17.6553 H   0  0  0  0  0  0
  -25.9277  -19.3547   24.3456 H   0  0  0  0  0  0
  -26.8054  -20.8444   24.0124 H   0  0  0  0  0  0
  -27.6603  -19.3098   24.0372 H   0  0  0  0  0  0
  -27.9685  -17.7862   20.5874 H   0  0  0  0  0  0
  -28.7596  -18.0458   22.1069 H   0  0  0  0  0  0
  -27.4244  -23.4172   18.2236 H   0  0  0  0  0  0
  -28.5535  -24.7311   18.0521 H   0  0  0  0  0  0
  -25.4476  -19.8898   21.9660 H   0  0  0  0  0  0
  -26.4956  -18.5457   21.9967 H   0  0  0  0  0  0
  -30.2192  -17.4953   19.4671 H   0  0  0  0  0  0
  -30.9794  -17.6170   21.0306 H   0  0  0  0  0  0
  -28.1520  -24.9129   21.6502 H   0  0  0  0  0  0
  -26.9196  -24.7666   20.4619 H   0  0  0  0  0  0
  -29.8005  -23.8254   20.0809 H   0  0  0  0  0  0
  -28.8867  -15.5782   21.0164 H   0  0  0  0  0  0
  1 25  1  0  0  0
  1 30  2  0  0  0
  1 85  1  0  0  0
  2  3  1  0  0  0
  2 25  1  0  0  0
  2 86  1  0  0  0
  2 87  1  0  0  0
  3  4  1  0  0  0
  3 88  1  0  0  0
  3 89  1  0  0  0
  4  5  1  0  0  0
  4 90  1  0  0  0
  4 91  1  0  0  0
  5  6  1  0  0  0
  5 26  1  0  0  0
  5 92  1  0  0  0
  6 25  1  0  0  0
  6 93  1  0  0  0
  6 94  1  0  0  0
  7  8  2  0  0  0
  7 26  1  0  0  0
  7 29  1  0  0  0
  8  9  1  0  0  0
  8 22  1  0  0  0
  9 10  1  0  0  0
  9 27  2  0  0  0
 10 11  2  0  0  0
 10 15  1  0  0  0
 11 12  1  0  0  0
 11 95  1  0  0  0
 12 13  2  0  0  0
 12 96  1  0  0  0
 13 14  1  0  0  0
 13 31  1  0  0  0
 14 15  2  0  0  0
 14 97  1  0  0  0
 15 98  1  0  0  0
 16 17  2  0  0  0
 16 21  1  0  0  0
 16 31  1  0  0  0
 17 18  1  0  0  0
 17 99  1  0  0  0
 18 19  2  0  0  0
 18100  1  0  0  0
 19 20  1  0  0  0
 19 24  1  0  0  0
 20 21  2  0  0  0
 20101  1  0  0  0
 21 23  1  0  0  0
 22 28  1  0  0  0
 22 32  2  0  0  0
 26 27  1  0  0  0
 28102  1  0  0  0
 28103  1  0  0  0
 29104  1  0  0  0
 29105  1  0  0  0
 33 34  1  0  0  0
 33 66  1  0  0  0
 33 70  2  0  0  0
 34 36  1  0  0  0
 34 59  1  0  0  0
 34106  1  0  0  0
 35 44  2  0  0  0
 35 45  1  0  0  0
 35 68  1  0  0  0
 36 56  1  0  0  0
 36107  1  0  0  0
 37 39  1  0  0  0
 37 47  1  0  0  0
 37 66  1  0  0  0
 37108  1  0  0  0
 38 43  2  0  0  0
 38 46  1  0  0  0
 38 47  1  0  0  0
 39 64  1  0  0  0
 39 67  2  0  0  0
 40 52  1  0  0  0
 40 53  2  0  0  0
 40 58  1  0  0  0
 41109  1  0  0  0
 41110  1  0  0  0
 41111  1  0  0  0
 41 48  1  0  0  0
 42 43  1  0  0  0
 42 66  1  0  0  0
 42112  1  0  0  0
 42113  1  0  0  0
 43 44  1  0  0  0
 44114  1  0  0  0
 45 46  2  0  0  0
 45115  1  0  0  0
 46116  1  0  0  0
 47117  1  0  0  0
 47118  1  0  0  0
 48 56  1  0  0  0
 48 65  1  0  0  0
 48119  1  0  0  0
 49 50  1  0  0  0
 49 53  1  0  0  0
 49 64  1  0  0  0
 49120  1  0  0  0
 50 51  1  0  0  0
 50121  1  0  0  0
 50122  1  0  0  0
 51 52  1  0  0  0
 51123  1  0  0  0
 51124  1  0  0  0
 52125  1  0  0  0
 52126  1  0  0  0
 53 54  1  0  0  0
 54 55  2  0  0  0
 54127  1  0  0  0
 55 57  1  0  0  0
 55128  1  0  0  0
 56 69  2  0  0  0
 57 58  2  0  0  0
 57129  1  0  0  0
 58130  1  0  0  0
 59 60  1  0  0  0
 59 61  1  0  0  0
 59 62  1  0  0  0
 60131  1  0  0  0
 60132  1  0  0  0
 60133  1  0  0  0
 61134  1  0  0  0
 61135  1  0  0  0
 61136  1  0  0  0
 62137  1  0  0  0
 62138  1  0  0  0
 62139  1  0  0  0
 63 65  1  0  0  0
 63140  1  0  0  0
 63141  1  0  0  0
 63142  1  0  0  0
 64143  1  0  0  0
 65144  1  0  0  0
 68 82  1  0  0  0
 71 72  1  0  0  0
 71 73  2  0  0  0
 71145  1  0  0  0
 72 74  2  0  0  0
 72 83  1  0  0  0
 73 78  1  0  0  0
 73 84  1  0  0  0
 74 75  1  0  0  0
 74 84  1  0  0  0
 75146  1  0  0  0
 75147  1  0  0  0
 75148  1  0  0  0
 76 79  1  0  0  0
 76149  1  0  0  0
 76150  1  0  0  0
 76151  1  0  0  0
 77 80  1  0  0  0
 77152  1  0  0  0
 77153  1  0  0  0
 77154  1  0  0  0
 78 81  1  0  0  0
 78155  1  0  0  0
 78156  1  0  0  0
 79157  1  0  0  0
 79158  1  0  0  0
 79 83  1  0  0  0
 80 84  1  0  0  0
 80159  1  0  0  0
 80160  1  0  0  0
 81 85  1  0  0  0
 81161  1  0  0  0
 81162  1  0  0  0
 82 83  1  0  0  0
 82163  1  0  0  0
 82164  1  0  0  0
 83165  1  0  0  0
 85166  1  0  0  0
M  ISO  4   1 100  68 101  82 101  85 100
M  END
> <chiral flag>
0

> <version>
0

> <s_m_source_file>
/data/baiqing/PycharmProjects/Reinvent-master-3.2/result/LINK_invent/BTK/process_docking_weight1_custom_sum_contain_oxygen_bond_distance_aromatic_linkinvent_7_9_3/rearranged_h_0045.sdf

> <i_m_source_file_index>
11

> <r_mmod_Potential_Energy-OPLS-2005>
148.702392578125

> <r_mmod_Stretch_Energy-OPLS-2005>
122.234588623047

> <r_mmod_Bend_Energy-OPLS-2005>
182.035049438477

> <r_mmod_Torsional_Energy-OPLS-2005>
235.095840454102

> <r_mmod_Improper_Torsional_Energy-OPLS-2005>
5.36178255081177

> <r_mmod_Van_der_Waal_Energy-OPLS-2005>
126.482963562012

> <r_mmod_Electrostatic_Energy-OPLS-2005>
-390.515594482422

> <r_mmod_Solvation_Energy-OPLS-2005>
-210.233673095703

> <b_mmod_Minimization_Converged-OPLS-2005>
0

> <r_mmod_RMS_Derivative-OPLS-2005>
4.17743873596191

$$$$
11
                    3D
 Structure written by MMmdl.
161169  0  0  1  0            999 V2000
  -30.6738  -14.5243   20.5623 C   0  0  0  0  0  0
  -30.4311  -12.3419   19.4206 C   0  0  0  0  0  0
  -29.4953  -12.5102   18.2043 C   0  0  0  0  0  0
  -28.0177  -12.3563   18.6188 C   0  0  0  0  0  0
  -27.6579  -13.2072   19.8666 C   0  0  2  0  0  0
  -28.7036  -13.0062   20.9868 C   0  0  0  0  0  0
  -25.2581  -13.8164   20.5656 C   0  0  0  0  0  0
  -24.1844  -13.0435   20.9182 C   0  0  0  0  0  0
  -24.6396  -11.6899   20.8740 C   0  0  0  0  0  0
  -23.9061  -10.4288   21.0402 C   0  0  0  0  0  0
  -24.3618   -9.4199   21.9180 C   0  0  0  0  0  0
  -23.6293   -8.2238   22.0744 C   0  0  0  0  0  0
  -22.4268   -8.0276   21.3547 C   0  0  0  0  0  0
  -21.9909   -9.0249   20.4640 C   0  0  0  0  0  0
  -22.7237  -10.2124   20.3047 C   0  0  0  0  0  0
  -21.6857   -6.0737   22.5290 C   0  0  0  0  0  0
  -21.4012   -6.5644   23.8214 C   0  0  0  0  0  0
  -21.3665   -5.6795   24.9184 C   0  0  0  0  0  0
  -21.6042   -4.3060   24.7233 C   0  0  0  0  0  0
  -21.8822   -3.8150   23.4357 C   0  0  0  0  0  0
  -21.9189   -4.6967   22.3410 C   0  0  0  0  0  0
  -22.7873  -13.5224   21.1863 C   0  0  0  0  0  0
  -22.1666   -4.2148   21.0992 F   0  0  0  0  0  0
  -21.5623   -3.4541   25.7750 F   0  0  0  0  0  0
  -30.0285  -13.3315   20.4313 N   0  0  0  0  0  0
  -26.3004  -12.9326   20.3338 N   0  0  0  0  0  0
  -25.9320  -11.6493   20.5764 N   0  0  0  0  0  0
  -22.0515  -12.8197   22.0414 N   0  0  0  0  0  0
  -25.4314  -15.1878   20.4056 N   0  0  0  0  0  0
  -31.8134  -14.7219   20.1352 O   0  0  0  0  0  0
  -21.6634   -6.8876   21.4245 O   0  0  0  0  0  0
  -22.3548  -14.5535   20.6715 O   0  0  0  0  0  0
  -24.6203  -31.8658   23.2094 C   0  0  0  0  0  0
  -25.9093  -32.4804   23.8384 C   0  0  1  0  0  0
  -27.2332  -27.3946   20.0745 C   0  0  0  0  0  0
  -25.5956  -33.8605   24.2313 N   0  0  0  0  0  0
  -23.4083  -30.4935   21.5515 C   0  0  2  0  0  0
  -24.8516  -28.9614   20.1073 C   0  0  0  0  0  0
  -22.7426  -29.4665   22.4964 C   0  0  0  0  0  0
  -18.0295  -28.1396   22.8481 C   0  0  0  0  0  0
  -24.1499  -36.7298   23.2638 C   0  0  0  0  0  0
  -25.9460  -30.8091   21.3774 C   0  0  0  0  0  0
  -26.0170  -29.4467   20.7130 C   0  0  0  0  0  0
  -27.2068  -28.6716   20.6967 C   0  0  0  0  0  0
  -26.0446  -26.9521   19.4411 C   0  0  0  0  0  0
  -24.8646  -27.7145   19.4665 C   0  0  0  0  0  0
  -23.6174  -29.8367   20.1628 C   0  0  0  0  0  0
  -25.4123  -36.3093   24.0332 C   0  0  1  0  0  0
  -20.5877  -28.3684   23.1313 C   0  0  2  0  0  0
  -20.6793  -26.9413   22.5426 C   0  0  0  0  0  0
  -19.5764  -26.6386   21.5216 C   0  0  0  0  0  0
  -18.1939  -26.7940   22.1612 C   0  0  0  0  0  0
  -19.1537  -28.8854   23.2893 C   0  0  0  0  0  0
  -18.9460  -30.1467   23.8888 C   0  0  0  0  0  0
  -17.6464  -30.6598   24.0572 C   0  0  0  0  0  0
  -25.9055  -34.9464   23.5105 C   0  0  0  0  0  0
  -16.5354  -29.9091   23.6349 C   0  0  0  0  0  0
  -16.7272  -28.6527   23.0336 C   0  0  0  0  0  0
  -26.4520  -31.6592   25.0723 C   0  0  0  0  0  0
  -25.3782  -31.3669   26.1458 C   0  0  0  0  0  0
  -27.0354  -30.3028   24.6152 C   0  0  0  0  0  0
  -27.6103  -32.4304   25.7477 C   0  0  0  0  0  0
  -27.5587  -37.1806   24.8468 C   0  0  0  0  0  0
  -21.4148  -29.3041   22.3701 N   0  0  0  0  0  0
  -26.4310  -37.3789   23.9401 N   0  0  0  0  0  0
  -24.6760  -31.0720   22.1026 N   0  0  0  0  0  0
  -23.4182  -28.8223   23.3036 O   0  0  0  0  0  0
  -28.3909  -26.6163   20.1046 O   0  0  0  0  0  0
  -26.5582  -34.8920   22.4646 O   0  0  0  0  0  0
  -23.5386  -32.1450   23.7457 O   0  0  0  0  0  0
  -29.9128  -20.4484   19.8163 C   0  0  0  0  0  0
  -28.0068  -19.0453   20.2813 C   0  0  0  0  0  0
  -29.3916  -19.1506   20.0799 C   0  0  0  0  0  0
  -29.0314  -21.5621   19.6821 C   0  0  0  0  0  0
  -27.6459  -21.2949   19.8059 C   0  0  0  0  0  0
  -26.5777  -22.3194   19.4808 C   0  0  0  0  0  0
  -29.1962  -23.8896   21.6299 C   0  0  0  0  0  0
  -30.2352  -17.8605   20.0033 C   0  0  0  0  0  0
  -29.5655  -22.9532   19.2332 C   0  0  0  0  0  0
  -30.2627  -16.9544   21.2773 C   0  0  0  0  0  0
  -28.2968  -25.2406   19.6459 C   0  0  0  0  0  0
  -29.3878  -24.2333   20.1433 C   0  0  1  0  0  0
  -27.1595  -20.0828   20.1430 N   0  0  0  0  0  0
  -29.9189  -15.5304   21.0543 N   0  0  0  0  0  0
  -31.4708  -12.4616   19.1134 H   0  0  0  0  0  0
  -30.3495  -11.3342   19.8302 H   0  0  0  0  0  0
  -29.7466  -11.7806   17.4324 H   0  0  0  0  0  0
  -29.6470  -13.4943   17.7554 H   0  0  0  0  0  0
  -27.8405  -11.3000   18.8285 H   0  0  0  0  0  0
  -27.3620  -12.6124   17.7855 H   0  0  0  0  0  0
  -27.6921  -14.2519   19.5545 H   0  0  0  0  0  0
  -28.6973  -11.9706   21.3303 H   0  0  0  0  0  0
  -28.4603  -13.6058   21.8649 H   0  0  0  0  0  0
  -25.2759   -9.5673   22.4750 H   0  0  0  0  0  0
  -24.0008   -7.4619   22.7446 H   0  0  0  0  0  0
  -21.0845   -8.8762   19.8935 H   0  0  0  0  0  0
  -22.3699  -10.9664   19.6153 H   0  0  0  0  0  0
  -21.2005   -7.6148   23.9726 H   0  0  0  0  0  0
  -21.1493   -6.0525   25.9086 H   0  0  0  0  0  0
  -22.0593   -2.7608   23.2861 H   0  0  0  0  0  0
  -22.4146  -11.9850   22.4800 H   0  0  0  0  0  0
  -21.1133  -13.1213   22.2636 H   0  0  0  0  0  0
  -24.6623  -15.8416   20.4946 H   0  0  0  0  0  0
  -26.2840  -15.6219   20.0767 H   0  0  0  0  0  0
  -26.7154  -32.5492   23.1116 H   0  0  0  0  0  0
  -25.0149  -33.9768   25.0489 H   0  0  0  0  0  0
  -22.7023  -31.3144   21.4151 H   0  0  0  0  0  0
  -23.3759  -35.9633   23.3301 H   0  0  0  0  0  0
  -24.3580  -36.8899   22.2053 H   0  0  0  0  0  0
  -23.7243  -37.6506   23.6644 H   0  0  0  0  0  0
  -26.0844  -31.5794   20.6190 H   0  0  0  0  0  0
  -26.8261  -30.8429   22.0065 H   0  0  0  0  0  0
  -28.1027  -29.0443   21.1731 H   0  0  0  0  0  0
  -25.9921  -26.0171   18.9050 H   0  0  0  0  0  0
  -23.9764  -27.3423   18.9731 H   0  0  0  0  0  0
  -23.7329  -30.6194   19.4113 H   0  0  0  0  0  0
  -22.7390  -29.2670   19.8550 H   0  0  0  0  0  0
  -25.1303  -36.1962   25.0830 H   0  0  0  0  0  0
  -20.9979  -28.3266   24.1424 H   0  0  0  0  0  0
  -20.5725  -26.2283   23.3615 H   0  0  0  0  0  0
  -21.6669  -26.7479   22.1193 H   0  0  0  0  0  0
  -19.6938  -25.6288   21.1258 H   0  0  0  0  0  0
  -19.6731  -27.3189   20.6736 H   0  0  0  0  0  0
  -17.4226  -26.6688   21.4007 H   0  0  0  0  0  0
  -18.0337  -26.0100   22.9023 H   0  0  0  0  0  0
  -19.7935  -30.7300   24.2247 H   0  0  0  0  0  0
  -17.5011  -31.6274   24.5173 H   0  0  0  0  0  0
  -15.5356  -30.2980   23.7701 H   0  0  0  0  0  0
  -15.8665  -28.0856   22.7014 H   0  0  0  0  0  0
  -24.5995  -30.6979   25.7780 H   0  0  0  0  0  0
  -24.8936  -32.2800   26.4936 H   0  0  0  0  0  0
  -25.8162  -30.8832   27.0190 H   0  0  0  0  0  0
  -26.2897  -29.6764   24.1246 H   0  0  0  0  0  0
  -27.4131  -29.7319   25.4635 H   0  0  0  0  0  0
  -27.8744  -30.4313   23.9299 H   0  0  0  0  0  0
  -27.2747  -33.3596   26.2076 H   0  0  0  0  0  0
  -28.3904  -32.6846   25.0295 H   0  0  0  0  0  0
  -28.0773  -31.8398   26.5359 H   0  0  0  0  0  0
  -28.2617  -38.0099   24.7516 H   0  0  0  0  0  0
  -28.1072  -36.2621   24.6302 H   0  0  0  0  0  0
  -27.2290  -37.1463   25.8872 H   0  0  0  0  0  0
  -20.9311  -29.8725   21.6877 H   0  0  0  0  0  0
  -26.0187  -38.2866   24.1404 H   0  0  0  0  0  0
  -30.9723  -20.5755   19.6440 H   0  0  0  0  0  0
  -27.5484  -18.0894   20.4857 H   0  0  0  0  0  0
  -26.8694  -22.9543   18.6442 H   0  0  0  0  0  0
  -26.3655  -22.9340   20.3520 H   0  0  0  0  0  0
  -25.6446  -21.8374   19.1896 H   0  0  0  0  0  0
  -29.9788  -23.2172   21.9774 H   0  0  0  0  0  0
  -28.2349  -23.4102   21.8167 H   0  0  0  0  0  0
  -29.2416  -24.7866   22.2463 H   0  0  0  0  0  0
  -31.2576  -18.1232   19.7257 H   0  0  0  0  0  0
  -29.8521  -17.2874   19.1578 H   0  0  0  0  0  0
  -29.1877  -23.1551   18.2313 H   0  0  0  0  0  0
  -30.6392  -22.8281   19.0778 H   0  0  0  0  0  0
  -29.5620  -17.3363   22.0217 H   0  0  0  0  0  0
  -31.2443  -17.0196   21.7499 H   0  0  0  0  0  0
  -27.3506  -24.8276   19.9800 H   0  0  0  0  0  0
  -28.2778  -25.2566   18.5549 H   0  0  0  0  0  0
  -30.3293  -24.7799   20.0603 H   0  0  0  0  0  0
  -28.9894  -15.2572   21.3358 H   0  0  0  0  0  0
  1 25  1  0  0  0
  1 30  2  0  0  0
  1 84  1  0  0  0
  2  3  1  0  0  0
  2 25  1  0  0  0
  2 85  1  0  0  0
  2 86  1  0  0  0
  3  4  1  0  0  0
  3 87  1  0  0  0
  3 88  1  0  0  0
  4  5  1  0  0  0
  4 89  1  0  0  0
  4 90  1  0  0  0
  5  6  1  0  0  0
  5 26  1  0  0  0
  5 91  1  0  0  0
  6 25  1  0  0  0
  6 92  1  0  0  0
  6 93  1  0  0  0
  7  8  2  0  0  0
  7 26  1  0  0  0
  7 29  1  0  0  0
  8  9  1  0  0  0
  8 22  1  0  0  0
  9 10  1  0  0  0
  9 27  2  0  0  0
 10 11  2  0  0  0
 10 15  1  0  0  0
 11 12  1  0  0  0
 11 94  1  0  0  0
 12 13  2  0  0  0
 12 95  1  0  0  0
 13 14  1  0  0  0
 13 31  1  0  0  0
 14 15  2  0  0  0
 14 96  1  0  0  0
 15 97  1  0  0  0
 16 17  2  0  0  0
 16 21  1  0  0  0
 16 31  1  0  0  0
 17 18  1  0  0  0
 17 98  1  0  0  0
 18 19  2  0  0  0
 18 99  1  0  0  0
 19 20  1  0  0  0
 19 24  1  0  0  0
 20 21  2  0  0  0
 20100  1  0  0  0
 21 23  1  0  0  0
 22 28  1  0  0  0
 22 32  2  0  0  0
 26 27  1  0  0  0
 28101  1  0  0  0
 28102  1  0  0  0
 29103  1  0  0  0
 29104  1  0  0  0
 33 34  1  0  0  0
 33 66  1  0  0  0
 33 70  2  0  0  0
 34 36  1  0  0  0
 34 59  1  0  0  0
 34105  1  0  0  0
 35 44  2  0  0  0
 35 45  1  0  0  0
 35 68  1  0  0  0
 36 56  1  0  0  0
 36106  1  0  0  0
 37 39  1  0  0  0
 37 47  1  0  0  0
 37 66  1  0  0  0
 37107  1  0  0  0
 38 43  2  0  0  0
 38 46  1  0  0  0
 38 47  1  0  0  0
 39 64  1  0  0  0
 39 67  2  0  0  0
 40 52  1  0  0  0
 40 53  2  0  0  0
 40 58  1  0  0  0
 41108  1  0  0  0
 41109  1  0  0  0
 41110  1  0  0  0
 41 48  1  0  0  0
 42 43  1  0  0  0
 42 66  1  0  0  0
 42111  1  0  0  0
 42112  1  0  0  0
 43 44  1  0  0  0
 44113  1  0  0  0
 45 46  2  0  0  0
 45114  1  0  0  0
 46115  1  0  0  0
 47116  1  0  0  0
 47117  1  0  0  0
 48 56  1  0  0  0
 48 65  1  0  0  0
 48118  1  0  0  0
 49 50  1  0  0  0
 49 53  1  0  0  0
 49 64  1  0  0  0
 49119  1  0  0  0
 50 51  1  0  0  0
 50120  1  0  0  0
 50121  1  0  0  0
 51 52  1  0  0  0
 51122  1  0  0  0
 51123  1  0  0  0
 52124  1  0  0  0
 52125  1  0  0  0
 53 54  1  0  0  0
 54 55  2  0  0  0
 54126  1  0  0  0
 55 57  1  0  0  0
 55127  1  0  0  0
 56 69  2  0  0  0
 57 58  2  0  0  0
 57128  1  0  0  0
 58129  1  0  0  0
 59 60  1  0  0  0
 59 61  1  0  0  0
 59 62  1  0  0  0
 60130  1  0  0  0
 60131  1  0  0  0
 60132  1  0  0  0
 61133  1  0  0  0
 61134  1  0  0  0
 61135  1  0  0  0
 62136  1  0  0  0
 62137  1  0  0  0
 62138  1  0  0  0
 63 65  1  0  0  0
 63139  1  0  0  0
 63140  1  0  0  0
 63141  1  0  0  0
 64142  1  0  0  0
 65143  1  0  0  0
 68 81  1  0  0  0
 71 73  2  0  0  0
 71 74  1  0  0  0
 71144  1  0  0  0
 72 73  1  0  0  0
 72 83  2  0  0  0
 72145  1  0  0  0
 73 78  1  0  0  0
 74 75  2  0  0  0
 74 79  1  0  0  0
 75 76  1  0  0  0
 75 83  1  0  0  0
 76146  1  0  0  0
 76147  1  0  0  0
 76148  1  0  0  0
 77149  1  0  0  0
 77150  1  0  0  0
 77151  1  0  0  0
 77 82  1  0  0  0
 78 80  1  0  0  0
 78152  1  0  0  0
 78153  1  0  0  0
 79 82  1  0  0  0
 79154  1  0  0  0
 79155  1  0  0  0
 80 84  1  0  0  0
 80156  1  0  0  0
 80157  1  0  0  0
 81 82  1  0  0  0
 81158  1  0  0  0
 81159  1  0  0  0
 82160  1  0  0  0
 84161  1  0  0  0
M  ISO  4   1 100  68 101  81 101  84 100
M  END
> <chiral flag>
0

> <version>
0

> <s_m_source_file>
/data/baiqing/PycharmProjects/Reinvent-master-3.2/result/LINK_invent/BTK/process_docking_weight1_custom_sum_contain_oxygen_bond_distance_aromatic_linkinvent_7_9_3/rearranged_h_0045.sdf

> <i_m_source_file_index>
12

> <r_mmod_Potential_Energy-OPLS-2005>
-212.43879699707

> <r_mmod_Stretch_Energy-OPLS-2005>
50.6866683959961

> <r_mmod_Bend_Energy-OPLS-2005>
118.351623535156

> <r_mmod_Torsional_Energy-OPLS-2005>
219.884582519531

> <r_mmod_Improper_Torsional_Energy-OPLS-2005>
4.83842372894287

> <r_mmod_Van_der_Waal_Energy-OPLS-2005>
154.863586425781

> <r_mmod_Electrostatic_Energy-OPLS-2005>
-561.774780273438

> <r_mmod_Solvation_Energy-OPLS-2005>
-220.805130004883

> <b_mmod_Minimization_Converged-OPLS-2005>
0

> <r_mmod_RMS_Derivative-OPLS-2005>
2.92635107040405

$$$$
12
                    3D
 Structure written by MMmdl.
153161  0  0  1  0            999 V2000
  -30.6238  -14.7379   20.4466 C   0  0  0  0  0  0
  -30.4275  -12.4509   19.4752 C   0  0  0  0  0  0
  -29.5058  -12.4967   18.2370 C   0  0  0  0  0  0
  -28.0305  -12.3427   18.6471 C   0  0  0  0  0  0
  -27.6420  -13.2347   19.8529 C   0  0  2  0  0  0
  -28.6856  -13.1796   20.9923 C   0  0  0  0  0  0
  -25.2494  -13.8219   20.5640 C   0  0  0  0  0  0
  -24.1801  -13.0439   20.9214 C   0  0  0  0  0  0
  -24.6396  -11.6937   20.8763 C   0  0  0  0  0  0
  -23.9094  -10.4316   21.0431 C   0  0  0  0  0  0
  -24.3666   -9.4209   21.9165 C   0  0  0  0  0  0
  -23.6334   -8.2254   22.0739 C   0  0  0  0  0  0
  -22.4301   -8.0309   21.3549 C   0  0  0  0  0  0
  -21.9961   -9.0282   20.4635 C   0  0  0  0  0  0
  -22.7306  -10.2150   20.3044 C   0  0  0  0  0  0
  -21.6865   -6.0746   22.5279 C   0  0  0  0  0  0
  -21.4034   -6.5642   23.8223 C   0  0  0  0  0  0
  -21.3665   -5.6788   24.9173 C   0  0  0  0  0  0
  -21.6051   -4.3060   24.7225 C   0  0  0  0  0  0
  -21.8819   -3.8155   23.4351 C   0  0  0  0  0  0
  -21.9204   -4.6971   22.3409 C   0  0  0  0  0  0
  -22.7841  -13.5211   21.1887 C   0  0  0  0  0  0
  -22.1659   -4.2169   21.0990 F   0  0  0  0  0  0
  -21.5637   -3.4525   25.7729 F   0  0  0  0  0  0
  -29.9913  -13.5153   20.4114 N   0  0  0  0  0  0
  -26.2929  -12.9427   20.3271 N   0  0  0  0  0  0
  -25.9342  -11.6554   20.5766 N   0  0  0  0  0  0
  -22.0497  -12.8196   22.0457 N   0  0  0  0  0  0
  -25.4145  -15.1939   20.4001 N   0  0  0  0  0  0
  -31.8079  -14.8238   20.1073 O   0  0  0  0  0  0
  -21.6658   -6.8898   21.4242 O   0  0  0  0  0  0
  -22.3514  -14.5522   20.6767 O   0  0  0  0  0  0
  -24.6272  -31.8564   23.2011 C   0  0  0  0  0  0
  -25.9093  -32.4755   23.8322 C   0  0  1  0  0  0
  -27.2179  -27.2905   20.1239 C   0  0  0  0  0  0
  -25.5936  -33.8562   24.2268 N   0  0  0  0  0  0
  -23.4190  -30.4814   21.5406 C   0  0  2  0  0  0
  -24.8673  -28.9342   20.1094 C   0  0  0  0  0  0
  -22.7468  -29.4624   22.4917 C   0  0  0  0  0  0
  -18.0289  -28.1388   22.8480 C   0  0  0  0  0  0
  -24.1501  -36.7299   23.2642 C   0  0  0  0  0  0
  -25.9593  -30.7888   21.3651 C   0  0  0  0  0  0
  -26.0356  -29.4109   20.7146 C   0  0  0  0  0  0
  -27.2100  -28.5954   20.7170 C   0  0  0  0  0  0
  -26.0183  -26.8715   19.5062 C   0  0  0  0  0  0
  -24.8613  -27.6716   19.4993 C   0  0  0  0  0  0
  -23.6369  -29.8210   20.1548 C   0  0  0  0  0  0
  -25.4116  -36.3069   24.0327 C   0  0  1  0  0  0
  -20.5893  -28.3690   23.1297 C   0  0  2  0  0  0
  -20.6789  -26.9404   22.5446 C   0  0  0  0  0  0
  -19.5777  -26.6363   21.5251 C   0  0  0  0  0  0
  -18.1946  -26.7925   22.1640 C   0  0  0  0  0  0
  -19.1533  -28.8870   23.2884 C   0  0  0  0  0  0
  -18.9453  -30.1473   23.8891 C   0  0  0  0  0  0
  -17.6459  -30.6597   24.0558 C   0  0  0  0  0  0
  -25.9058  -34.9444   23.5081 C   0  0  0  0  0  0
  -16.5351  -29.9090   23.6332 C   0  0  0  0  0  0
  -16.7274  -28.6515   23.0332 C   0  0  0  0  0  0
  -26.4520  -31.6558   25.0659 C   0  0  0  0  0  0
  -25.3797  -31.3628   26.1408 C   0  0  0  0  0  0
  -27.0343  -30.2999   24.6047 C   0  0  0  0  0  0
  -27.6103  -32.4265   25.7427 C   0  0  0  0  0  0
  -27.5573  -37.1796   24.8464 C   0  0  0  0  0  0
  -21.4189  -29.3034   22.3661 N   0  0  0  0  0  0
  -26.4294  -37.3770   23.9410 N   0  0  0  0  0  0
  -24.6879  -31.0585   22.0948 N   0  0  0  0  0  0
  -23.4194  -28.8169   23.2984 O   0  0  0  0  0  0
  -28.3338  -26.4323   20.2181 O   0  0  0  0  0  0
  -26.5609  -34.8910   22.4639 O   0  0  0  0  0  0
  -23.5425  -32.1358   23.7354 O   0  0  0  0  0  0
  -28.9747  -22.5377   19.2226 C   0  0  0  0  0  0
  -28.6440  -23.7438   19.9499 C   0  0  0  0  0  0
  -29.1536  -21.4621   20.0827 C   0  0  0  0  0  0
  -28.8511  -21.4203   22.6160 C   0  0  0  0  0  0
  -28.4926  -25.2146   19.3753 C   0  0  0  0  0  0
  -29.7463  -20.0164   19.8173 C   0  0  0  0  0  0
  -29.3367  -18.6186   20.5263 C   0  0  0  0  0  0
  -30.2104  -17.3050   20.1282 C   0  0  0  0  0  0
  -28.5350  -23.3963   21.2334 N   0  0  0  0  0  0
  -28.8387  -22.0486   21.3092 N   0  0  0  0  0  0
  -29.8664  -15.8911   20.6103 N   0  0  0  0  0  0
  -29.2196  -22.4763   17.5129 Cl  0  0  0  0  0  0
  -31.4658  -12.5788   19.1640 H   0  0  0  0  0  0
  -30.3771  -11.4702   19.9526 H   0  0  0  0  0  0
  -29.7794  -11.7034   17.5393 H   0  0  0  0  0  0
  -29.6471  -13.4376   17.7064 H   0  0  0  0  0  0
  -27.8697  -11.2932   18.8979 H   0  0  0  0  0  0
  -27.3853  -12.5536   17.7933 H   0  0  0  0  0  0
  -27.6358  -14.2568   19.4744 H   0  0  0  0  0  0
  -28.7114  -12.1965   21.4625 H   0  0  0  0  0  0
  -28.4220  -13.8856   21.7821 H   0  0  0  0  0  0
  -25.2824   -9.5691   22.4715 H   0  0  0  0  0  0
  -24.0059   -7.4656   22.7458 H   0  0  0  0  0  0
  -21.0887   -8.8798   19.8957 H   0  0  0  0  0  0
  -22.3752  -10.9686   19.6154 H   0  0  0  0  0  0
  -21.2001   -7.6142   23.9736 H   0  0  0  0  0  0
  -21.1501   -6.0505   25.9084 H   0  0  0  0  0  0
  -22.0597   -2.7619   23.2835 H   0  0  0  0  0  0
  -22.4154  -11.9894   22.4871 H   0  0  0  0  0  0
  -21.1090  -13.1187   22.2618 H   0  0  0  0  0  0
  -24.6402  -15.8433   20.4933 H   0  0  0  0  0  0
  -26.2439  -15.6311   20.0246 H   0  0  0  0  0  0
  -26.7155  -32.5427   23.1058 H   0  0  0  0  0  0
  -25.0136  -33.9726   25.0445 H   0  0  0  0  0  0
  -22.7126  -31.3013   21.3982 H   0  0  0  0  0  0
  -23.3750  -35.9635   23.3293 H   0  0  0  0  0  0
  -24.3612  -36.8931   22.2062 H   0  0  0  0  0  0
  -23.7264  -37.6501   23.6668 H   0  0  0  0  0  0
  -26.0773  -31.5497   20.5908 H   0  0  0  0  0  0
  -26.8459  -30.8519   21.9847 H   0  0  0  0  0  0
  -28.1054  -28.9554   21.2058 H   0  0  0  0  0  0
  -25.9209  -25.8923   19.0651 H   0  0  0  0  0  0
  -23.9572  -27.2961   19.0404 H   0  0  0  0  0  0
  -23.7622  -30.5987   19.4007 H   0  0  0  0  0  0
  -22.7522  -29.2603   19.8448 H   0  0  0  0  0  0
  -25.1303  -36.1918   25.0816 H   0  0  0  0  0  0
  -20.9982  -28.3288   24.1425 H   0  0  0  0  0  0
  -20.5715  -26.2300   23.3646 H   0  0  0  0  0  0
  -21.6654  -26.7454   22.1236 H   0  0  0  0  0  0
  -19.6924  -25.6266   21.1321 H   0  0  0  0  0  0
  -19.6723  -27.3143   20.6758 H   0  0  0  0  0  0
  -17.4211  -26.6651   21.4042 H   0  0  0  0  0  0
  -18.0330  -26.0098   22.9066 H   0  0  0  0  0  0
  -19.7936  -30.7285   24.2245 H   0  0  0  0  0  0
  -17.5016  -31.6280   24.5130 H   0  0  0  0  0  0
  -15.5353  -30.2978   23.7678 H   0  0  0  0  0  0
  -15.8681  -28.0853   22.7021 H   0  0  0  0  0  0
  -24.6047  -30.6883   25.7758 H   0  0  0  0  0  0
  -24.8900  -32.2742   26.4838 H   0  0  0  0  0  0
  -25.8200  -30.8853   27.0171 H   0  0  0  0  0  0
  -26.2868  -29.6744   24.1159 H   0  0  0  0  0  0
  -27.4183  -29.7253   25.4483 H   0  0  0  0  0  0
  -27.8680  -30.4314   23.9144 H   0  0  0  0  0  0
  -27.2772  -33.3616   26.1950 H   0  0  0  0  0  0
  -28.3960  -32.6731   25.0263 H   0  0  0  0  0  0
  -28.0712  -31.8390   26.5384 H   0  0  0  0  0  0
  -28.2593  -38.0105   24.7512 H   0  0  0  0  0  0
  -28.1082  -36.2621   24.6289 H   0  0  0  0  0  0
  -27.2298  -37.1457   25.8879 H   0  0  0  0  0  0
  -20.9338  -29.8756   21.6897 H   0  0  0  0  0  0
  -26.0165  -38.2831   24.1428 H   0  0  0  0  0  0
  -28.5078  -22.1196   23.3796 H   0  0  0  0  0  0
  -29.8632  -21.0911   22.8581 H   0  0  0  0  0  0
  -28.1818  -20.5587   22.6138 H   0  0  0  0  0  0
  -27.7949  -25.2025   18.5432 H   0  0  0  0  0  0
  -29.4405  -25.4220   18.8780 H   0  0  0  0  0  0
  -30.8294  -20.1109   19.9148 H   0  0  0  0  0  0
  -29.6200  -19.8397   18.7490 H   0  0  0  0  0  0
  -28.2850  -18.4313   20.3052 H   0  0  0  0  0  0
  -29.4116  -18.7472   21.6062 H   0  0  0  0  0  0
  -30.2372  -17.2507   19.0365 H   0  0  0  0  0  0
  -31.2399  -17.5026   20.4249 H   0  0  0  0  0  0
  -28.9202  -15.7451   20.9263 H   0  0  0  0  0  0
  1 25  1  0  0  0
  1 30  2  0  0  0
  1 81  1  0  0  0
  2  3  1  0  0  0
  2 25  1  0  0  0
  2 83  1  0  0  0
  2 84  1  0  0  0
  3  4  1  0  0  0
  3 85  1  0  0  0
  3 86  1  0  0  0
  4  5  1  0  0  0
  4 87  1  0  0  0
  4 88  1  0  0  0
  5  6  1  0  0  0
  5 26  1  0  0  0
  5 89  1  0  0  0
  6 25  1  0  0  0
  6 90  1  0  0  0
  6 91  1  0  0  0
  7  8  2  0  0  0
  7 26  1  0  0  0
  7 29  1  0  0  0
  8  9  1  0  0  0
  8 22  1  0  0  0
  9 10  1  0  0  0
  9 27  2  0  0  0
 10 11  2  0  0  0
 10 15  1  0  0  0
 11 12  1  0  0  0
 11 92  1  0  0  0
 12 13  2  0  0  0
 12 93  1  0  0  0
 13 14  1  0  0  0
 13 31  1  0  0  0
 14 15  2  0  0  0
 14 94  1  0  0  0
 15 95  1  0  0  0
 16 17  2  0  0  0
 16 21  1  0  0  0
 16 31  1  0  0  0
 17 18  1  0  0  0
 17 96  1  0  0  0
 18 19  2  0  0  0
 18 97  1  0  0  0
 19 20  1  0  0  0
 19 24  1  0  0  0
 20 21  2  0  0  0
 20 98  1  0  0  0
 21 23  1  0  0  0
 22 28  1  0  0  0
 22 32  2  0  0  0
 26 27  1  0  0  0
 28 99  1  0  0  0
 28100  1  0  0  0
 29101  1  0  0  0
 29102  1  0  0  0
 33 34  1  0  0  0
 33 66  1  0  0  0
 33 70  2  0  0  0
 34 36  1  0  0  0
 34 59  1  0  0  0
 34103  1  0  0  0
 35 44  2  0  0  0
 35 45  1  0  0  0
 35 68  1  0  0  0
 36 56  1  0  0  0
 36104  1  0  0  0
 37 39  1  0  0  0
 37 47  1  0  0  0
 37 66  1  0  0  0
 37105  1  0  0  0
 38 43  2  0  0  0
 38 46  1  0  0  0
 38 47  1  0  0  0
 39 64  1  0  0  0
 39 67  2  0  0  0
 40 52  1  0  0  0
 40 53  2  0  0  0
 40 58  1  0  0  0
 41106  1  0  0  0
 41107  1  0  0  0
 41108  1  0  0  0
 41 48  1  0  0  0
 42 43  1  0  0  0
 42 66  1  0  0  0
 42109  1  0  0  0
 42110  1  0  0  0
 43 44  1  0  0  0
 44111  1  0  0  0
 45 46  2  0  0  0
 45112  1  0  0  0
 46113  1  0  0  0
 47114  1  0  0  0
 47115  1  0  0  0
 48 56  1  0  0  0
 48 65  1  0  0  0
 48116  1  0  0  0
 49 50  1  0  0  0
 49 53  1  0  0  0
 49 64  1  0  0  0
 49117  1  0  0  0
 50 51  1  0  0  0
 50118  1  0  0  0
 50119  1  0  0  0
 51 52  1  0  0  0
 51120  1  0  0  0
 51121  1  0  0  0
 52122  1  0  0  0
 52123  1  0  0  0
 53 54  1  0  0  0
 54 55  2  0  0  0
 54124  1  0  0  0
 55 57  1  0  0  0
 55125  1  0  0  0
 56 69  2  0  0  0
 57 58  2  0  0  0
 57126  1  0  0  0
 58127  1  0  0  0
 59 60  1  0  0  0
 59 61  1  0  0  0
 59 62  1  0  0  0
 60128  1  0  0  0
 60129  1  0  0  0
 60130  1  0  0  0
 61131  1  0  0  0
 61132  1  0  0  0
 61133  1  0  0  0
 62134  1  0  0  0
 62135  1  0  0  0
 62136  1  0  0  0
 63 65  1  0  0  0
 63137  1  0  0  0
 63138  1  0  0  0
 63139  1  0  0  0
 64140  1  0  0  0
 65141  1  0  0  0
 68 75  1  0  0  0
 71 72  1  0  0  0
 71 73  2  0  0  0
 71 82  1  0  0  0
 72 75  1  0  0  0
 72 79  2  0  0  0
 73 76  1  0  0  0
 73 80  1  0  0  0
 74 80  1  0  0  0
 74142  1  0  0  0
 74143  1  0  0  0
 74144  1  0  0  0
 75145  1  0  0  0
 75146  1  0  0  0
 76 77  1  0  0  0
 76147  1  0  0  0
 76148  1  0  0  0
 77 78  1  0  0  0
 77149  1  0  0  0
 77150  1  0  0  0
 78 81  1  0  0  0
 78151  1  0  0  0
 78152  1  0  0  0
 79 80  1  0  0  0
 81153  1  0  0  0
M  ISO  4   1 100  68 101  75 101  81 100
M  END
> <chiral flag>
0

> <version>
0

> <s_m_source_file>
/data/baiqing/PycharmProjects/Reinvent-master-3.2/result/LINK_invent/BTK/process_docking_weight1_custom_sum_contain_oxygen_bond_distance_aromatic_linkinvent_7_9_3/rearranged_h_0045.sdf

> <i_m_source_file_index>
13

> <r_mmod_Potential_Energy-OPLS-2005>
155.34114074707

> <r_mmod_Stretch_Energy-OPLS-2005>
111.281143188477

> <r_mmod_Bend_Energy-OPLS-2005>
195.345916748047

> <r_mmod_Torsional_Energy-OPLS-2005>
214.044860839844

> <r_mmod_Improper_Torsional_Energy-OPLS-2005>
7.58909273147583

> <r_mmod_Van_der_Waal_Energy-OPLS-2005>
114.252822875977

> <r_mmod_Electrostatic_Energy-OPLS-2005>
-333.55615234375

> <r_mmod_Solvation_Energy-OPLS-2005>
-230.026123046875

> <b_mmod_Minimization_Converged-OPLS-2005>
0

> <r_mmod_RMS_Derivative-OPLS-2005>
5.33609104156494

$$$$
13
                    3D
 Structure written by MMmdl.
159167  0  0  1  0            999 V2000
  -30.6866  -14.5558   20.4961 C   0  0  0  0  0  0
  -30.4204  -12.3427   19.4448 C   0  0  0  0  0  0
  -29.4975  -12.4884   18.2192 C   0  0  0  0  0  0
  -28.0205  -12.3377   18.6314 C   0  0  0  0  0  0
  -27.6492  -13.2160   19.8565 C   0  0  2  0  0  0
  -28.6922  -13.0805   20.9898 C   0  0  0  0  0  0
  -25.2519  -13.8185   20.5653 C   0  0  0  0  0  0
  -24.1788  -13.0442   20.9178 C   0  0  0  0  0  0
  -24.6359  -11.6915   20.8731 C   0  0  0  0  0  0
  -23.9035  -10.4289   21.0388 C   0  0  0  0  0  0
  -24.3590   -9.4204   21.9162 C   0  0  0  0  0  0
  -23.6276   -8.2232   22.0742 C   0  0  0  0  0  0
  -22.4264   -8.0259   21.3531 C   0  0  0  0  0  0
  -21.9886   -9.0227   20.4640 C   0  0  0  0  0  0
  -22.7203  -10.2115   20.3043 C   0  0  0  0  0  0
  -21.6857   -6.0707   22.5267 C   0  0  0  0  0  0
  -21.4022   -6.5619   23.8198 C   0  0  0  0  0  0
  -21.3667   -5.6777   24.9163 C   0  0  0  0  0  0
  -21.6054   -4.3040   24.7215 C   0  0  0  0  0  0
  -21.8825   -3.8120   23.4339 C   0  0  0  0  0  0
  -21.9190   -4.6936   22.3393 C   0  0  0  0  0  0
  -22.7810  -13.5224   21.1831 C   0  0  0  0  0  0
  -22.1655   -4.2121   21.0968 F   0  0  0  0  0  0
  -21.5637   -3.4532   25.7733 F   0  0  0  0  0  0
  -30.0168  -13.3710   20.4197 N   0  0  0  0  0  0
  -26.2952  -12.9363   20.3285 N   0  0  0  0  0  0
  -25.9288  -11.6522   20.5749 N   0  0  0  0  0  0
  -22.0447  -12.8243   22.0414 N   0  0  0  0  0  0
  -25.4213  -15.1902   20.4060 N   0  0  0  0  0  0
  -31.8610  -14.6660   20.1370 O   0  0  0  0  0  0
  -21.6636   -6.8848   21.4228 O   0  0  0  0  0  0
  -22.3487  -14.5495   20.6638 O   0  0  0  0  0  0
  -24.6201  -31.8628   23.2072 C   0  0  0  0  0  0
  -25.9081  -32.4784   23.8357 C   0  0  1  0  0  0
  -27.2268  -27.3737   20.0795 C   0  0  0  0  0  0
  -25.5935  -33.8587   24.2278 N   0  0  0  0  0  0
  -23.4069  -30.4920   21.5494 C   0  0  2  0  0  0
  -24.8520  -28.9580   20.1073 C   0  0  0  0  0  0
  -22.7413  -29.4657   22.4955 C   0  0  0  0  0  0
  -18.0275  -28.1377   22.8513 C   0  0  0  0  0  0
  -24.1494  -36.7263   23.2638 C   0  0  0  0  0  0
  -25.9471  -30.8097   21.3729 C   0  0  0  0  0  0
  -26.0208  -29.4473   20.7029 C   0  0  0  0  0  0
  -27.2059  -28.6613   20.6892 C   0  0  0  0  0  0
  -26.0236  -26.9117   19.5092 C   0  0  0  0  0  0
  -24.8507  -27.6879   19.5122 C   0  0  0  0  0  0
  -23.6164  -29.8304   20.1625 C   0  0  0  0  0  0
  -25.4124  -36.3066   24.0319 C   0  0  1  0  0  0
  -20.5870  -28.3667   23.1310 C   0  0  2  0  0  0
  -20.6775  -26.9400   22.5425 C   0  0  0  0  0  0
  -19.5751  -26.6384   21.5229 C   0  0  0  0  0  0
  -18.1924  -26.7931   22.1633 C   0  0  0  0  0  0
  -19.1529  -28.8835   23.2914 C   0  0  0  0  0  0
  -18.9463  -30.1447   23.8913 C   0  0  0  0  0  0
  -17.6469  -30.6597   24.0563 C   0  0  0  0  0  0
  -25.9060  -34.9443   23.5087 C   0  0  0  0  0  0
  -16.5353  -29.9095   23.6343 C   0  0  0  0  0  0
  -16.7265  -28.6503   23.0380 C   0  0  0  0  0  0
  -26.4506  -31.6596   25.0717 C   0  0  0  0  0  0
  -25.3762  -31.3760   26.1464 C   0  0  0  0  0  0
  -27.0361  -30.3017   24.6189 C   0  0  0  0  0  0
  -27.6063  -32.4351   25.7476 C   0  0  0  0  0  0
  -27.5572  -37.1785   24.8467 C   0  0  0  0  0  0
  -21.4137  -29.3025   22.3684 N   0  0  0  0  0  0
  -26.4288  -37.3770   23.9411 N   0  0  0  0  0  0
  -24.6756  -31.0700   22.0996 N   0  0  0  0  0  0
  -23.4160  -28.8197   23.3013 O   0  0  0  0  0  0
  -28.3568  -26.5646   20.1897 O   0  0  0  0  0  0
  -26.5628  -34.8906   22.4652 O   0  0  0  0  0  0
  -23.5382  -32.1408   23.7449 O   0  0  0  0  0  0
  -27.3143  -22.3181   18.2743 C   0  0  0  0  0  0
  -28.2366  -22.9279   19.0877 C   0  0  0  0  0  0
  -28.0712  -24.3472   18.7795 C   0  0  0  0  0  0
  -25.8134  -23.0938   16.3818 C   0  0  0  0  0  0
  -29.2322  -22.1587   19.9812 C   0  0  0  0  0  0
  -28.8420  -25.6332   19.1706 C   0  0  0  0  0  0
  -29.3480  -18.2090   20.5591 C   0  0  0  0  0  0
  -30.4273  -17.0653   20.4977 C   0  0  0  0  0  0
  -29.8672  -19.6710   20.2566 C   0  0  0  0  0  0
  -27.2167  -24.4943   17.7680 N   0  0  0  0  0  0
  -26.7448  -23.2733   17.4756 N   0  0  0  0  0  0
  -29.9499  -15.6695   20.7444 N   0  0  0  0  0  0
  -28.8140  -20.7459   20.2979 N   0  3  0  0  0  0
  -31.4632  -12.4440   19.1361 H   0  0  0  0  0  0
  -30.3328  -11.3472   19.8835 H   0  0  0  0  0  0
  -29.7558  -11.7445   17.4650 H   0  0  0  0  0  0
  -29.6522  -13.4632   17.7559 H   0  0  0  0  0  0
  -27.8554  -11.2856   18.8656 H   0  0  0  0  0  0
  -27.3671  -12.5643   17.7894 H   0  0  0  0  0  0
  -27.6686  -14.2503   19.5115 H   0  0  0  0  0  0
  -28.6782  -12.0758   21.4146 H   0  0  0  0  0  0
  -28.4519  -13.7603   21.8089 H   0  0  0  0  0  0
  -25.2735   -9.5699   22.4737 H   0  0  0  0  0  0
  -23.9994   -7.4636   22.7474 H   0  0  0  0  0  0
  -21.0811   -8.8723   19.8961 H   0  0  0  0  0  0
  -22.3628  -10.9638   19.6157 H   0  0  0  0  0  0
  -21.2019   -7.6131   23.9695 H   0  0  0  0  0  0
  -21.1497   -6.0505   25.9069 H   0  0  0  0  0  0
  -22.0602   -2.7582   23.2838 H   0  0  0  0  0  0
  -22.4080  -11.9946   22.4855 H   0  0  0  0  0  0
  -21.1048  -13.1268   22.2588 H   0  0  0  0  0  0
  -24.6482  -15.8403   20.5030 H   0  0  0  0  0  0
  -26.2668  -15.6299   20.0665 H   0  0  0  0  0  0
  -26.7138  -32.5466   23.1090 H   0  0  0  0  0  0
  -25.0107  -33.9751   25.0437 H   0  0  0  0  0  0
  -22.6977  -31.3119   21.4122 H   0  0  0  0  0  0
  -23.3760  -35.9594   23.3321 H   0  0  0  0  0  0
  -24.3579  -36.8865   22.2048 H   0  0  0  0  0  0
  -23.7253  -37.6469   23.6653 H   0  0  0  0  0  0
  -26.0880  -31.5883   20.6208 H   0  0  0  0  0  0
  -26.8218  -30.8402   22.0101 H   0  0  0  0  0  0
  -28.0984  -29.0311   21.1747 H   0  0  0  0  0  0
  -25.9286  -25.9165   19.1258 H   0  0  0  0  0  0
  -23.9432  -27.2837   19.0866 H   0  0  0  0  0  0
  -23.7219  -30.6081   19.4062 H   0  0  0  0  0  0
  -22.7386  -29.2538   19.8648 H   0  0  0  0  0  0
  -25.1312  -36.1894   25.0813 H   0  0  0  0  0  0
  -20.9992  -28.3252   24.1419 H   0  0  0  0  0  0
  -20.5700  -26.2272   23.3619 H   0  0  0  0  0  0
  -21.6644  -26.7463   22.1194 H   0  0  0  0  0  0
  -19.6915  -25.6296   21.1249 H   0  0  0  0  0  0
  -19.6691  -27.3210   20.6770 H   0  0  0  0  0  0
  -17.4202  -26.6699   21.4022 H   0  0  0  0  0  0
  -18.0303  -26.0063   22.9012 H   0  0  0  0  0  0
  -19.7940  -30.7263   24.2279 H   0  0  0  0  0  0
  -17.5030  -31.6289   24.5147 H   0  0  0  0  0  0
  -15.5356  -30.3008   23.7673 H   0  0  0  0  0  0
  -15.8658  -28.0824   22.7114 H   0  0  0  0  0  0
  -24.5878  -30.7183   25.7792 H   0  0  0  0  0  0
  -24.9044  -32.2963   26.4914 H   0  0  0  0  0  0
  -25.8088  -30.8888   27.0211 H   0  0  0  0  0  0
  -26.2946  -29.6746   24.1232 H   0  0  0  0  0  0
  -27.4078  -29.7292   25.4694 H   0  0  0  0  0  0
  -27.8799  -30.4288   23.9407 H   0  0  0  0  0  0
  -27.2642  -33.3622   26.2081 H   0  0  0  0  0  0
  -28.3845  -32.6973   25.0297 H   0  0  0  0  0  0
  -28.0772  -31.8485   26.5371 H   0  0  0  0  0  0
  -28.2600  -38.0070   24.7512 H   0  0  0  0  0  0
  -28.1053  -36.2603   24.6296 H   0  0  0  0  0  0
  -27.2284  -37.1429   25.8868 H   0  0  0  0  0  0
  -20.9275  -29.8701   21.6887 H   0  0  0  0  0  0
  -26.0149  -38.2828   24.1456 H   0  0  0  0  0  0
  -27.0559  -21.2760   18.1321 H   0  0  0  0  0  0
  -26.1015  -22.2168   15.8012 H   0  0  0  0  0  0
  -25.8313  -23.9613   15.7199 H   0  0  0  0  0  0
  -24.8020  -22.9525   16.7624 H   0  0  0  0  0  0
  -29.4068  -22.6904   20.9180 H   0  0  0  0  0  0
  -30.2028  -22.1250   19.4858 H   0  0  0  0  0  0
  -29.0268  -26.2265   18.2737 H   0  0  0  0  0  0
  -29.8370  -25.3345   19.5025 H   0  0  0  0  0  0
  -28.8828  -18.1945   21.5453 H   0  0  0  0  0  0
  -28.5553  -17.9714   19.8476 H   0  0  0  0  0  0
  -31.2315  -17.2843   21.2018 H   0  0  0  0  0  0
  -30.8889  -17.0890   19.5084 H   0  0  0  0  0  0
  -30.6617  -19.9330   20.9583 H   0  0  0  0  0  0
  -30.3209  -19.6788   19.2635 H   0  0  0  0  0  0
  -28.9825  -15.5333   21.0015 H   0  0  0  0  0  0
  -28.0923  -20.4858   19.6494 H   0  0  0  0  0  0
  -28.3991  -20.7594   21.2158 H   0  0  0  0  0  0
  1 25  1  0  0  0
  1 30  2  0  0  0
  1 82  1  0  0  0
  2  3  1  0  0  0
  2 25  1  0  0  0
  2 84  1  0  0  0
  2 85  1  0  0  0
  3  4  1  0  0  0
  3 86  1  0  0  0
  3 87  1  0  0  0
  4  5  1  0  0  0
  4 88  1  0  0  0
  4 89  1  0  0  0
  5  6  1  0  0  0
  5 26  1  0  0  0
  5 90  1  0  0  0
  6 25  1  0  0  0
  6 91  1  0  0  0
  6 92  1  0  0  0
  7  8  2  0  0  0
  7 26  1  0  0  0
  7 29  1  0  0  0
  8  9  1  0  0  0
  8 22  1  0  0  0
  9 10  1  0  0  0
  9 27  2  0  0  0
 10 11  2  0  0  0
 10 15  1  0  0  0
 11 12  1  0  0  0
 11 93  1  0  0  0
 12 13  2  0  0  0
 12 94  1  0  0  0
 13 14  1  0  0  0
 13 31  1  0  0  0
 14 15  2  0  0  0
 14 95  1  0  0  0
 15 96  1  0  0  0
 16 17  2  0  0  0
 16 21  1  0  0  0
 16 31  1  0  0  0
 17 18  1  0  0  0
 17 97  1  0  0  0
 18 19  2  0  0  0
 18 98  1  0  0  0
 19 20  1  0  0  0
 19 24  1  0  0  0
 20 21  2  0  0  0
 20 99  1  0  0  0
 21 23  1  0  0  0
 22 28  1  0  0  0
 22 32  2  0  0  0
 26 27  1  0  0  0
 28100  1  0  0  0
 28101  1  0  0  0
 29102  1  0  0  0
 29103  1  0  0  0
 33 34  1  0  0  0
 33 66  1  0  0  0
 33 70  2  0  0  0
 34 36  1  0  0  0
 34 59  1  0  0  0
 34104  1  0  0  0
 35 44  2  0  0  0
 35 45  1  0  0  0
 35 68  1  0  0  0
 36 56  1  0  0  0
 36105  1  0  0  0
 37 39  1  0  0  0
 37 47  1  0  0  0
 37 66  1  0  0  0
 37106  1  0  0  0
 38 43  2  0  0  0
 38 46  1  0  0  0
 38 47  1  0  0  0
 39 64  1  0  0  0
 39 67  2  0  0  0
 40 52  1  0  0  0
 40 53  2  0  0  0
 40 58  1  0  0  0
 41107  1  0  0  0
 41108  1  0  0  0
 41109  1  0  0  0
 41 48  1  0  0  0
 42 43  1  0  0  0
 42 66  1  0  0  0
 42110  1  0  0  0
 42111  1  0  0  0
 43 44  1  0  0  0
 44112  1  0  0  0
 45 46  2  0  0  0
 45113  1  0  0  0
 46114  1  0  0  0
 47115  1  0  0  0
 47116  1  0  0  0
 48 56  1  0  0  0
 48 65  1  0  0  0
 48117  1  0  0  0
 49 50  1  0  0  0
 49 53  1  0  0  0
 49 64  1  0  0  0
 49118  1  0  0  0
 50 51  1  0  0  0
 50119  1  0  0  0
 50120  1  0  0  0
 51 52  1  0  0  0
 51121  1  0  0  0
 51122  1  0  0  0
 52123  1  0  0  0
 52124  1  0  0  0
 53 54  1  0  0  0
 54 55  2  0  0  0
 54125  1  0  0  0
 55 57  1  0  0  0
 55126  1  0  0  0
 56 69  2  0  0  0
 57 58  2  0  0  0
 57127  1  0  0  0
 58128  1  0  0  0
 59 60  1  0  0  0
 59 61  1  0  0  0
 59 62  1  0  0  0
 60129  1  0  0  0
 60130  1  0  0  0
 60131  1  0  0  0
 61132  1  0  0  0
 61133  1  0  0  0
 61134  1  0  0  0
 62135  1  0  0  0
 62136  1  0  0  0
 62137  1  0  0  0
 63 65  1  0  0  0
 63138  1  0  0  0
 63139  1  0  0  0
 63140  1  0  0  0
 64141  1  0  0  0
 65142  1  0  0  0
 68 76  1  0  0  0
 71 72  2  0  0  0
 71 81  1  0  0  0
 71143  1  0  0  0
 72 73  1  0  0  0
 72 75  1  0  0  0
 73 76  1  0  0  0
 73 80  2  0  0  0
 74 81  1  0  0  0
 74144  1  0  0  0
 74145  1  0  0  0
 74146  1  0  0  0
 75 83  1  0  0  0
 75147  1  0  0  0
 75148  1  0  0  0
 76149  1  0  0  0
 76150  1  0  0  0
 77 78  1  0  0  0
 77 79  1  0  0  0
 77151  1  0  0  0
 77152  1  0  0  0
 78 82  1  0  0  0
 78153  1  0  0  0
 78154  1  0  0  0
 79 83  1  0  0  0
 79155  1  0  0  0
 79156  1  0  0  0
 80 81  1  0  0  0
 82157  1  0  0  0
 83158  1  0  0  0
 83159  1  0  0  0
M  CHG  1  83   1
M  ISO  4   1 100  68 101  76 101  82 100
M  END
> <chiral flag>
0

> <version>
0

> <s_m_source_file>
/data/baiqing/PycharmProjects/Reinvent-master-3.2/result/LINK_invent/BTK/process_docking_weight1_custom_sum_contain_oxygen_bond_distance_aromatic_linkinvent_7_9_3/rearranged_h_0045.sdf

> <i_m_source_file_index>
14

> <r_mmod_Potential_Energy-OPLS-2005>
-181.234497070312

> <r_mmod_Stretch_Energy-OPLS-2005>
59.5278167724609

> <r_mmod_Bend_Energy-OPLS-2005>
140.414093017578

> <r_mmod_Torsional_Energy-OPLS-2005>
217.36799621582

> <r_mmod_Improper_Torsional_Energy-OPLS-2005>
8.13833427429199

> <r_mmod_Van_der_Waal_Energy-OPLS-2005>
123.960563659668

> <r_mmod_Electrostatic_Energy-OPLS-2005>
-248.022506713867

> <r_mmod_Solvation_Energy-OPLS-2005>
-515.14013671875

> <b_mmod_Minimization_Converged-OPLS-2005>
0

> <r_mmod_RMS_Derivative-OPLS-2005>
2.76046109199524

$$$$
14
                    3D
 Structure written by MMmdl.
153161  0  0  1  0            999 V2000
  -30.5238  -14.9883   20.4027 C   0  0  0  0  0  0
  -30.4389  -12.6109   19.5085 C   0  0  0  0  0  0
  -29.5250  -12.5375   18.2625 C   0  0  0  0  0  0
  -28.0584  -12.3180   18.6773 C   0  0  0  0  0  0
  -27.6272  -13.2531   19.8378 C   0  0  2  0  0  0
  -28.6673  -13.2964   20.9775 C   0  0  0  0  0  0
  -25.2441  -13.8223   20.5705 C   0  0  0  0  0  0
  -24.1767  -13.0436   20.9221 C   0  0  0  0  0  0
  -24.6390  -11.6923   20.8741 C   0  0  0  0  0  0
  -23.9077  -10.4289   21.0394 C   0  0  0  0  0  0
  -24.3623   -9.4210   21.9178 C   0  0  0  0  0  0
  -23.6302   -8.2245   22.0750 C   0  0  0  0  0  0
  -22.4287   -8.0273   21.3539 C   0  0  0  0  0  0
  -21.9924   -9.0241   20.4637 C   0  0  0  0  0  0
  -22.7249  -10.2124   20.3044 C   0  0  0  0  0  0
  -21.6855   -6.0737   22.5277 C   0  0  0  0  0  0
  -21.4015   -6.5641   23.8212 C   0  0  0  0  0  0
  -21.3658   -5.6793   24.9171 C   0  0  0  0  0  0
  -21.6044   -4.3054   24.7220 C   0  0  0  0  0  0
  -21.8820   -3.8148   23.4339 C   0  0  0  0  0  0
  -21.9197   -4.6965   22.3399 C   0  0  0  0  0  0
  -22.7785  -13.5204   21.1872 C   0  0  0  0  0  0
  -22.1666   -4.2153   21.0974 F   0  0  0  0  0  0
  -21.5626   -3.4539   25.7733 F   0  0  0  0  0  0
  -29.9402  -13.7180   20.3796 N   0  0  0  0  0  0
  -26.2872  -12.9465   20.3240 N   0  0  0  0  0  0
  -25.9325  -11.6587   20.5727 N   0  0  0  0  0  0
  -22.0431  -12.8203   22.0431 N   0  0  0  0  0  0
  -25.4090  -15.1957   20.4125 N   0  0  0  0  0  0
  -31.7237  -15.0481   20.1124 O   0  0  0  0  0  0
  -21.6646   -6.8873   21.4237 O   0  0  0  0  0  0
  -22.3470  -14.5507   20.6710 O   0  0  0  0  0  0
  -24.6449  -31.8394   23.1847 C   0  0  0  0  0  0
  -25.9207  -32.4667   23.8248 C   0  0  1  0  0  0
  -27.2193  -27.1052   20.1538 C   0  0  0  0  0  0
  -25.5942  -33.8479   24.2161 N   0  0  0  0  0  0
  -23.4497  -30.4564   21.5296 C   0  0  2  0  0  0
  -24.8993  -28.8734   20.1063 C   0  0  0  0  0  0
  -22.7572  -29.4520   22.4845 C   0  0  0  0  0  0
  -18.0304  -28.1401   22.8476 C   0  0  0  0  0  0
  -24.1495  -36.7252   23.2646 C   0  0  0  0  0  0
  -26.0056  -30.7026   21.3866 C   0  0  0  0  0  0
  -26.0742  -29.3100   20.7293 C   0  0  0  0  0  0
  -27.2295  -28.4402   20.7375 C   0  0  0  0  0  0
  -26.0186  -26.7718   19.4908 C   0  0  0  0  0  0
  -24.8857  -27.6196   19.4721 C   0  0  0  0  0  0
  -23.6773  -29.7801   20.1497 C   0  0  0  0  0  0
  -25.4128  -36.3018   24.0311 C   0  0  1  0  0  0
  -20.5919  -28.3724   23.1235 C   0  0  2  0  0  0
  -20.6790  -26.9424   22.5415 C   0  0  0  0  0  0
  -19.5767  -26.6381   21.5221 C   0  0  0  0  0  0
  -18.1946  -26.7938   22.1627 C   0  0  0  0  0  0
  -19.1563  -28.8882   23.2846 C   0  0  0  0  0  0
  -18.9478  -30.1480   23.8870 C   0  0  0  0  0  0
  -17.6474  -30.6594   24.0562 C   0  0  0  0  0  0
  -25.9077  -34.9392   23.5050 C   0  0  0  0  0  0
  -16.5365  -29.9088   23.6339 C   0  0  0  0  0  0
  -16.7289  -28.6512   23.0348 C   0  0  0  0  0  0
  -26.4526  -31.6552   25.0705 C   0  0  0  0  0  0
  -25.3709  -31.3745   26.1400 C   0  0  0  0  0  0
  -27.0399  -30.2945   24.6306 C   0  0  0  0  0  0
  -27.6046  -32.4332   25.7493 C   0  0  0  0  0  0
  -27.5575  -37.1784   24.8463 C   0  0  0  0  0  0
  -21.4264  -29.3038   22.3596 N   0  0  0  0  0  0
  -26.4287  -37.3735   23.9403 N   0  0  0  0  0  0
  -24.7200  -31.0221   22.0887 N   0  0  0  0  0  0
  -23.4204  -28.8081   23.3013 O   0  0  0  0  0  0
  -28.2892  -26.1366   20.2675 O   0  0  0  0  0  0
  -26.5681  -34.8895   22.4641 O   0  0  0  0  0  0
  -23.5564  -32.1284   23.7052 O   0  0  0  0  0  0
  -27.4891  -23.6667   21.9321 C   0  0  0  0  0  0
  -27.3859  -22.4548   22.6502 C   0  0  0  0  0  0
  -28.1817  -23.3967   20.7817 C   0  0  0  0  0  0
  -26.7030  -22.2084   23.9637 C   0  0  0  0  0  0
  -28.3522  -24.6492   19.7514 C   0  0  0  0  0  0
  -29.1045  -19.0771   20.6549 C   0  0  0  0  0  0
  -29.2422  -20.7138   20.1375 C   0  0  0  0  0  0
  -30.0277  -17.7192   20.1863 C   0  0  0  0  0  0
  -27.9815  -21.4592   22.0327 N   0  0  0  0  0  0
  -28.5008  -21.9161   20.8656 N   0  0  0  0  0  0
  -29.7454  -16.1845   20.5343 N   0  0  0  0  0  0
  -31.4730  -12.7688   19.1986 H   0  0  0  0  0  0
  -30.4360  -11.6630   20.0490 H   0  0  0  0  0  0
  -29.8503  -11.7373   17.5963 H   0  0  0  0  0  0
  -29.6098  -13.4640   17.6923 H   0  0  0  0  0  0
  -27.9593  -11.2775   18.9873 H   0  0  0  0  0  0
  -27.3967  -12.4455   17.8193 H   0  0  0  0  0  0
  -27.5851  -14.2526   19.4037 H   0  0  0  0  0  0
  -28.7604  -12.3247   21.4650 H   0  0  0  0  0  0
  -28.3618  -14.0029   21.7508 H   0  0  0  0  0  0
  -25.2756   -9.5704   22.4767 H   0  0  0  0  0  0
  -24.0004   -7.4640   22.7478 H   0  0  0  0  0  0
  -21.0857   -8.8752   19.8941 H   0  0  0  0  0  0
  -22.3692  -10.9664   19.6161 H   0  0  0  0  0  0
  -21.2006   -7.6150   23.9719 H   0  0  0  0  0  0
  -21.1481   -6.0516   25.9077 H   0  0  0  0  0  0
  -22.0602   -2.7612   23.2832 H   0  0  0  0  0  0
  -22.4039  -11.9867   22.4833 H   0  0  0  0  0  0
  -21.1053  -13.1247   22.2630 H   0  0  0  0  0  0
  -24.6358  -15.8432   20.5195 H   0  0  0  0  0  0
  -26.2497  -15.6411   20.0686 H   0  0  0  0  0  0
  -26.7269  -32.5258   23.0970 H   0  0  0  0  0  0
  -25.0032  -33.9588   25.0268 H   0  0  0  0  0  0
  -22.7534  -31.2830   21.3722 H   0  0  0  0  0  0
  -23.3755  -35.9585   23.3290 H   0  0  0  0  0  0
  -24.3580  -36.8911   22.2065 H   0  0  0  0  0  0
  -23.7255  -37.6442   23.6703 H   0  0  0  0  0  0
  -26.1626  -31.4532   20.6106 H   0  0  0  0  0  0
  -26.8763  -30.7558   22.0290 H   0  0  0  0  0  0
  -28.1223  -28.7676   21.2515 H   0  0  0  0  0  0
  -25.9151  -25.8093   19.0144 H   0  0  0  0  0  0
  -23.9863  -27.2804   18.9765 H   0  0  0  0  0  0
  -23.8154  -30.5530   19.3927 H   0  0  0  0  0  0
  -22.7911  -29.2238   19.8402 H   0  0  0  0  0  0
  -25.1321  -36.1839   25.0803 H   0  0  0  0  0  0
  -21.0009  -28.3323   24.1357 H   0  0  0  0  0  0
  -20.5683  -26.2340   23.3638 H   0  0  0  0  0  0
  -21.6654  -26.7428   22.1214 H   0  0  0  0  0  0
  -19.6925  -25.6285   21.1267 H   0  0  0  0  0  0
  -19.6705  -27.3178   20.6740 H   0  0  0  0  0  0
  -17.4216  -26.6680   21.4029 H   0  0  0  0  0  0
  -18.0340  -26.0090   22.9035 H   0  0  0  0  0  0
  -19.7954  -30.7309   24.2218 H   0  0  0  0  0  0
  -17.5026  -31.6268   24.5178 H   0  0  0  0  0  0
  -15.5365  -30.2981   23.7677 H   0  0  0  0  0  0
  -15.8691  -28.0829   22.7061 H   0  0  0  0  0  0
  -24.5901  -30.7075   25.7728 H   0  0  0  0  0  0
  -24.8881  -32.2924   26.4762 H   0  0  0  0  0  0
  -25.7997  -30.8967   27.0218 H   0  0  0  0  0  0
  -26.3022  -29.6654   24.1314 H   0  0  0  0  0  0
  -27.3999  -29.7259   25.4892 H   0  0  0  0  0  0
  -27.8931  -30.4176   23.9632 H   0  0  0  0  0  0
  -27.2629  -33.3655   26.2000 H   0  0  0  0  0  0
  -28.3891  -32.6858   25.0348 H   0  0  0  0  0  0
  -28.0673  -31.8506   26.5468 H   0  0  0  0  0  0
  -28.2580  -38.0091   24.7503 H   0  0  0  0  0  0
  -28.1083  -36.2618   24.6297 H   0  0  0  0  0  0
  -27.2292  -37.1438   25.8867 H   0  0  0  0  0  0
  -20.9479  -29.8735   21.6760 H   0  0  0  0  0  0
  -26.0147  -38.2800   24.1402 H   0  0  0  0  0  0
  -27.0847  -24.6290   22.2150 H   0  0  0  0  0  0
  -25.9566  -22.9762   24.1704 H   0  0  0  0  0  0
  -27.4187  -22.2129   24.7858 H   0  0  0  0  0  0
  -26.1904  -21.2463   23.9750 H   0  0  0  0  0  0
  -27.6494  -24.5208   18.9301 H   0  0  0  0  0  0
  -29.3300  -24.5471   19.2815 H   0  0  0  0  0  0
  -28.0626  -18.8087   20.4805 H   0  0  0  0  0  0
  -29.1929  -19.1031   21.7410 H   0  0  0  0  0  0
  -28.9603  -20.7626   19.0856 H   0  0  0  0  0  0
  -30.3022  -20.9679   20.1542 H   0  0  0  0  0  0
  -30.0765  -17.7494   19.0970 H   0  0  0  0  0  0
  -31.0532  -17.9122   20.5046 H   0  0  0  0  0  0
  -28.7848  -15.9960   20.7809 H   0  0  0  0  0  0
  1 25  1  0  0  0
  1 30  2  0  0  0
  1 81  1  0  0  0
  2  3  1  0  0  0
  2 25  1  0  0  0
  2 82  1  0  0  0
  2 83  1  0  0  0
  3  4  1  0  0  0
  3 84  1  0  0  0
  3 85  1  0  0  0
  4  5  1  0  0  0
  4 86  1  0  0  0
  4 87  1  0  0  0
  5  6  1  0  0  0
  5 26  1  0  0  0
  5 88  1  0  0  0
  6 25  1  0  0  0
  6 89  1  0  0  0
  6 90  1  0  0  0
  7  8  2  0  0  0
  7 26  1  0  0  0
  7 29  1  0  0  0
  8  9  1  0  0  0
  8 22  1  0  0  0
  9 10  1  0  0  0
  9 27  2  0  0  0
 10 11  2  0  0  0
 10 15  1  0  0  0
 11 12  1  0  0  0
 11 91  1  0  0  0
 12 13  2  0  0  0
 12 92  1  0  0  0
 13 14  1  0  0  0
 13 31  1  0  0  0
 14 15  2  0  0  0
 14 93  1  0  0  0
 15 94  1  0  0  0
 16 17  2  0  0  0
 16 21  1  0  0  0
 16 31  1  0  0  0
 17 18  1  0  0  0
 17 95  1  0  0  0
 18 19  2  0  0  0
 18 96  1  0  0  0
 19 20  1  0  0  0
 19 24  1  0  0  0
 20 21  2  0  0  0
 20 97  1  0  0  0
 21 23  1  0  0  0
 22 28  1  0  0  0
 22 32  2  0  0  0
 26 27  1  0  0  0
 28 98  1  0  0  0
 28 99  1  0  0  0
 29100  1  0  0  0
 29101  1  0  0  0
 33 34  1  0  0  0
 33 66  1  0  0  0
 33 70  2  0  0  0
 34 36  1  0  0  0
 34 59  1  0  0  0
 34102  1  0  0  0
 35 44  2  0  0  0
 35 45  1  0  0  0
 35 68  1  0  0  0
 36 56  1  0  0  0
 36103  1  0  0  0
 37 39  1  0  0  0
 37 47  1  0  0  0
 37 66  1  0  0  0
 37104  1  0  0  0
 38 43  2  0  0  0
 38 46  1  0  0  0
 38 47  1  0  0  0
 39 64  1  0  0  0
 39 67  2  0  0  0
 40 52  1  0  0  0
 40 53  2  0  0  0
 40 58  1  0  0  0
 41105  1  0  0  0
 41106  1  0  0  0
 41107  1  0  0  0
 41 48  1  0  0  0
 42 43  1  0  0  0
 42 66  1  0  0  0
 42108  1  0  0  0
 42109  1  0  0  0
 43 44  1  0  0  0
 44110  1  0  0  0
 45 46  2  0  0  0
 45111  1  0  0  0
 46112  1  0  0  0
 47113  1  0  0  0
 47114  1  0  0  0
 48 56  1  0  0  0
 48 65  1  0  0  0
 48115  1  0  0  0
 49 50  1  0  0  0
 49 53  1  0  0  0
 49 64  1  0  0  0
 49116  1  0  0  0
 50 51  1  0  0  0
 50117  1  0  0  0
 50118  1  0  0  0
 51 52  1  0  0  0
 51119  1  0  0  0
 51120  1  0  0  0
 52121  1  0  0  0
 52122  1  0  0  0
 53 54  1  0  0  0
 54 55  2  0  0  0
 54123  1  0  0  0
 55 57  1  0  0  0
 55124  1  0  0  0
 56 69  2  0  0  0
 57 58  2  0  0  0
 57125  1  0  0  0
 58126  1  0  0  0
 59 60  1  0  0  0
 59 61  1  0  0  0
 59 62  1  0  0  0
 60127  1  0  0  0
 60128  1  0  0  0
 60129  1  0  0  0
 61130  1  0  0  0
 61131  1  0  0  0
 61132  1  0  0  0
 62133  1  0  0  0
 62134  1  0  0  0
 62135  1  0  0  0
 63 65  1  0  0  0
 63136  1  0  0  0
 63137  1  0  0  0
 63138  1  0  0  0
 64139  1  0  0  0
 65140  1  0  0  0
 68 75  1  0  0  0
 71 72  1  0  0  0
 71 73  2  0  0  0
 71141  1  0  0  0
 72 74  1  0  0  0
 72 79  2  0  0  0
 73 75  1  0  0  0
 73 80  1  0  0  0
 74142  1  0  0  0
 74143  1  0  0  0
 74144  1  0  0  0
 75145  1  0  0  0
 75146  1  0  0  0
 76 77  1  0  0  0
 76 78  1  0  0  0
 76147  1  0  0  0
 76148  1  0  0  0
 77 80  1  0  0  0
 77149  1  0  0  0
 77150  1  0  0  0
 78 81  1  0  0  0
 78151  1  0  0  0
 78152  1  0  0  0
 79 80  1  0  0  0
 81153  1  0  0  0
M  ISO  4   1 100  68 101  75 101  81 100
M  END
> <chiral flag>
0

> <version>
0

> <s_m_source_file>
/data/baiqing/PycharmProjects/Reinvent-master-3.2/result/LINK_invent/BTK/process_docking_weight1_custom_sum_contain_oxygen_bond_distance_aromatic_linkinvent_7_9_3/rearranged_h_0045.sdf

> <i_m_source_file_index>
15

> <r_mmod_Potential_Energy-OPLS-2005>
577.38427734375

> <r_mmod_Stretch_Energy-OPLS-2005>
318.545104980469

> <r_mmod_Bend_Energy-OPLS-2005>
327.501861572266

> <r_mmod_Torsional_Energy-OPLS-2005>
216.314498901367

> <r_mmod_Improper_Torsional_Energy-OPLS-2005>
5.09269523620605

> <r_mmod_Van_der_Waal_Energy-OPLS-2005>
106.378845214844

> <r_mmod_Electrostatic_Energy-OPLS-2005>
-393.233795166016

> <r_mmod_Solvation_Energy-OPLS-2005>
-222.064056396484

> <b_mmod_Minimization_Converged-OPLS-2005>
0

> <r_mmod_RMS_Derivative-OPLS-2005>
0.810960412025452

$$$$
15
                    3D
 Structure written by MMmdl.
166174  0  0  1  0            999 V2000
  -30.6517  -14.5550   20.5195 C   0  0  0  0  0  0
  -30.4258  -12.3385   19.4475 C   0  0  0  0  0  0
  -29.5037  -12.4961   18.2201 C   0  0  0  0  0  0
  -28.0249  -12.3456   18.6279 C   0  0  0  0  0  0
  -27.6546  -13.2083   19.8649 C   0  0  2  0  0  0
  -28.6933  -13.0421   20.9969 C   0  0  0  0  0  0
  -25.2566  -13.8151   20.5669 C   0  0  0  0  0  0
  -24.1837  -13.0427   20.9181 C   0  0  0  0  0  0
  -24.6394  -11.6897   20.8718 C   0  0  0  0  0  0
  -23.9066  -10.4287   21.0381 C   0  0  0  0  0  0
  -24.3618   -9.4207   21.9166 C   0  0  0  0  0  0
  -23.6299   -8.2239   22.0744 C   0  0  0  0  0  0
  -22.4281   -8.0272   21.3534 C   0  0  0  0  0  0
  -21.9909   -9.0243   20.4627 C   0  0  0  0  0  0
  -22.7235  -10.2125   20.3033 C   0  0  0  0  0  0
  -21.6855   -6.0739   22.5283 C   0  0  0  0  0  0
  -21.4020   -6.5641   23.8217 C   0  0  0  0  0  0
  -21.3663   -5.6794   24.9177 C   0  0  0  0  0  0
  -21.6043   -4.3055   24.7230 C   0  0  0  0  0  0
  -21.8822   -3.8145   23.4348 C   0  0  0  0  0  0
  -21.9195   -4.6966   22.3401 C   0  0  0  0  0  0
  -22.7858  -13.5209   21.1889 C   0  0  0  0  0  0
  -22.1661   -4.2144   21.0984 F   0  0  0  0  0  0
  -21.5626   -3.4545   25.7743 F   0  0  0  0  0  0
  -30.0183  -13.3507   20.4366 N   0  0  0  0  0  0
  -26.2990  -12.9325   20.3299 N   0  0  0  0  0  0
  -25.9314  -11.6497   20.5721 N   0  0  0  0  0  0
  -22.0551  -12.8147   22.0433 N   0  0  0  0  0  0
  -25.4269  -15.1886   20.4120 N   0  0  0  0  0  0
  -31.8096  -14.7194   20.1269 O   0  0  0  0  0  0
  -21.6644   -6.8872   21.4240 O   0  0  0  0  0  0
  -22.3519  -14.5534   20.6773 O   0  0  0  0  0  0
  -24.6232  -31.8640   23.1988 C   0  0  0  0  0  0
  -25.9084  -32.4796   23.8328 C   0  0  1  0  0  0
  -27.2276  -27.3652   20.1187 C   0  0  0  0  0  0
  -25.5863  -33.8595   24.2232 N   0  0  0  0  0  0
  -23.4152  -30.4817   21.5452 C   0  0  2  0  0  0
  -24.8607  -28.9377   20.1102 C   0  0  0  0  0  0
  -22.7481  -29.4631   22.4989 C   0  0  0  0  0  0
  -18.0284  -28.1365   22.8478 C   0  0  0  0  0  0
  -24.1506  -36.7316   23.2643 C   0  0  0  0  0  0
  -25.9486  -30.8068   21.3631 C   0  0  0  0  0  0
  -26.0245  -29.4364   20.7102 C   0  0  0  0  0  0
  -27.2160  -28.6618   20.6997 C   0  0  0  0  0  0
  -26.0461  -26.8962   19.5082 C   0  0  0  0  0  0
  -24.8713  -27.6731   19.4978 C   0  0  0  0  0  0
  -23.6226  -29.8075   20.1625 C   0  0  0  0  0  0
  -25.4134  -36.3094   24.0309 C   0  0  1  0  0  0
  -20.5878  -28.3693   23.1278 C   0  0  2  0  0  0
  -20.6783  -26.9426   22.5392 C   0  0  0  0  0  0
  -19.5749  -26.6386   21.5197 C   0  0  0  0  0  0
  -18.1924  -26.7914   22.1607 C   0  0  0  0  0  0
  -19.1527  -28.8843   23.2878 C   0  0  0  0  0  0
  -18.9449  -30.1432   23.8920 C   0  0  0  0  0  0
  -17.6451  -30.6579   24.0531 C   0  0  0  0  0  0
  -25.9051  -34.9474   23.5083 C   0  0  0  0  0  0
  -16.5347  -29.9063   23.6321 C   0  0  0  0  0  0
  -16.7262  -28.6466   23.0366 C   0  0  0  0  0  0
  -26.4449  -31.6616   25.0703 C   0  0  0  0  0  0
  -25.3647  -31.3710   26.1398 C   0  0  0  0  0  0
  -27.0316  -30.3063   24.6135 C   0  0  0  0  0  0
  -27.6027  -32.4361   25.7443 C   0  0  0  0  0  0
  -27.5598  -37.1797   24.8452 C   0  0  0  0  0  0
  -21.4200  -29.3034   22.3698 N   0  0  0  0  0  0
  -26.4317  -37.3764   23.9387 N   0  0  0  0  0  0
  -24.6812  -31.0678   22.0932 N   0  0  0  0  0  0
  -23.4219  -28.8211   23.3092 O   0  0  0  0  0  0
  -28.3685  -26.5723   20.1364 O   0  0  0  0  0  0
  -26.5675  -34.8941   22.4682 O   0  0  0  0  0  0
  -23.5393  -32.1436   23.7319 O   0  0  0  0  0  0
  -29.8007  -19.6701   17.9703 C   0  0  0  0  0  0
  -29.6595  -20.5861   16.8999 C   0  0  0  0  0  0
  -29.3104  -20.2347   19.1136 C   0  0  0  0  0  0
  -29.0879  -21.7175   17.4170 C   0  0  0  0  0  0
  -28.6227  -22.9088   16.6343 C   0  0  0  0  0  0
  -28.8909  -19.6088   14.7001 C   0  0  0  0  0  0
  -30.0199  -20.3209   15.4558 C   0  0  0  0  0  0
  -29.1484  -19.5399   20.4596 C   0  0  0  0  0  0
  -28.9656  -17.9702   20.4396 C   0  0  0  0  0  0
  -28.6632  -24.1281   19.4571 C   0  0  0  0  0  0
  -28.4140  -22.5955   19.7658 C   0  0  0  0  0  0
  -30.1952  -17.0597   20.7847 C   0  0  0  0  0  0
  -28.2150  -25.1704   20.5296 C   0  0  0  0  0  0
  -28.9556  -21.5755   18.8096 N   0  0  0  0  0  0
  -29.8690  -15.6084   20.8655 N   0  0  0  0  0  0
  -31.4721  -12.4414   19.1533 H   0  0  0  0  0  0
  -30.3318  -11.3378   19.8731 H   0  0  0  0  0  0
  -29.7598  -11.7573   17.4596 H   0  0  0  0  0  0
  -29.6615  -13.4744   17.7621 H   0  0  0  0  0  0
  -27.8481  -11.2914   18.8441 H   0  0  0  0  0  0
  -27.3757  -12.5947   17.7874 H   0  0  0  0  0  0
  -27.6827  -14.2462   19.5351 H   0  0  0  0  0  0
  -28.6806  -12.0240   21.3896 H   0  0  0  0  0  0
  -28.4469  -13.6850   21.8433 H   0  0  0  0  0  0
  -25.2776   -9.5690   22.4721 H   0  0  0  0  0  0
  -24.0023   -7.4629   22.7452 H   0  0  0  0  0  0
  -21.0845   -8.8747   19.8913 H   0  0  0  0  0  0
  -22.3696  -10.9659   19.6122 H   0  0  0  0  0  0
  -21.2019   -7.6153   23.9715 H   0  0  0  0  0  0
  -21.1481   -6.0530   25.9081 H   0  0  0  0  0  0
  -22.0599   -2.7611   23.2858 H   0  0  0  0  0  0
  -22.4224  -11.9785   22.4736 H   0  0  0  0  0  0
  -21.1165  -13.1093   22.2709 H   0  0  0  0  0  0
  -24.6554  -15.8383   20.5220 H   0  0  0  0  0  0
  -26.2731  -15.6339   20.0810 H   0  0  0  0  0  0
  -26.7182  -32.5482   23.1119 H   0  0  0  0  0  0
  -24.9871  -33.9722   25.0284 H   0  0  0  0  0  0
  -22.7049  -31.2985   21.4031 H   0  0  0  0  0  0
  -23.3747  -35.9661   23.3294 H   0  0  0  0  0  0
  -24.3595  -36.8974   22.2055 H   0  0  0  0  0  0
  -23.7291  -37.6521   23.6702 H   0  0  0  0  0  0
  -26.0737  -31.5678   20.5920 H   0  0  0  0  0  0
  -26.8305  -30.8580   21.9905 H   0  0  0  0  0  0
  -28.1179  -29.0367   21.1659 H   0  0  0  0  0  0
  -26.0219  -25.9177   19.0496 H   0  0  0  0  0  0
  -23.9800  -27.2815   19.0278 H   0  0  0  0  0  0
  -23.7154  -30.5752   19.3928 H   0  0  0  0  0  0
  -22.7457  -29.2181   19.8858 H   0  0  0  0  0  0
  -25.1328  -36.1930   25.0788 H   0  0  0  0  0  0
  -20.9955  -28.3277   24.1405 H   0  0  0  0  0  0
  -20.5706  -26.2310   23.3598 H   0  0  0  0  0  0
  -21.6653  -26.7478   22.1178 H   0  0  0  0  0  0
  -19.6923  -25.6303   21.1216 H   0  0  0  0  0  0
  -19.6668  -27.3200   20.6734 H   0  0  0  0  0  0
  -17.4210  -26.6655   21.3998 H   0  0  0  0  0  0
  -18.0315  -26.0043   22.8985 H   0  0  0  0  0  0
  -19.7922  -30.7195   24.2362 H   0  0  0  0  0  0
  -17.5007  -31.6268   24.5101 H   0  0  0  0  0  0
  -15.5338  -30.2949   23.7647 H   0  0  0  0  0  0
  -15.8664  -28.0753   22.7132 H   0  0  0  0  0  0
  -24.5831  -30.7084   25.7647 H   0  0  0  0  0  0
  -24.8789  -32.2839   26.4854 H   0  0  0  0  0  0
  -25.7910  -30.8819   27.0165 H   0  0  0  0  0  0
  -26.2877  -29.6776   24.1221 H   0  0  0  0  0  0
  -27.4114  -29.7362   25.4624 H   0  0  0  0  0  0
  -27.8698  -30.4380   23.9288 H   0  0  0  0  0  0
  -27.2690  -33.3706   26.1970 H   0  0  0  0  0  0
  -28.3823  -32.6869   25.0232 H   0  0  0  0  0  0
  -28.0716  -31.8516   26.5367 H   0  0  0  0  0  0
  -28.2597  -38.0123   24.7553 H   0  0  0  0  0  0
  -28.1131  -36.2651   24.6235 H   0  0  0  0  0  0
  -27.2306  -37.1386   25.8856 H   0  0  0  0  0  0
  -20.9434  -29.8731   21.6848 H   0  0  0  0  0  0
  -26.0205  -38.2851   24.1347 H   0  0  0  0  0  0
  -30.1778  -18.6595   17.8934 H   0  0  0  0  0  0
  -29.2793  -23.7679   16.7723 H   0  0  0  0  0  0
  -27.6024  -23.1759   16.9042 H   0  0  0  0  0  0
  -28.5932  -22.6987   15.5655 H   0  0  0  0  0  0
  -29.1733  -19.4243   13.6636 H   0  0  0  0  0  0
  -27.9799  -20.2062   14.6930 H   0  0  0  0  0  0
  -28.6565  -18.6461   15.1526 H   0  0  0  0  0  0
  -30.9292  -19.7193   15.4223 H   0  0  0  0  0  0
  -30.2607  -21.2617   14.9565 H   0  0  0  0  0  0
  -28.2474  -19.9442   20.9237 H   0  0  0  0  0  0
  -29.9652  -19.8144   21.1283 H   0  0  0  0  0  0
  -28.5157  -17.6572   19.4963 H   0  0  0  0  0  0
  -28.2068  -17.7477   21.1915 H   0  0  0  0  0  0
  -28.1023  -24.4176   18.5768 H   0  0  0  0  0  0
  -29.7171  -24.2846   19.2308 H   0  0  0  0  0  0
  -27.3416  -22.4178   19.8482 H   0  0  0  0  0  0
  -28.8323  -22.3724   20.7475 H   0  0  0  0  0  0
  -30.6056  -17.3612   21.7491 H   0  0  0  0  0  0
  -30.9874  -17.2245   20.0530 H   0  0  0  0  0  0
  -28.8097  -25.0181   21.4296 H   0  0  0  0  0  0
  -27.1905  -24.9500   20.8329 H   0  0  0  0  0  0
  -28.9385  -15.3692   21.1713 H   0  0  0  0  0  0
  1 25  1  0  0  0
  1 30  2  0  0  0
  1 85  1  0  0  0
  2  3  1  0  0  0
  2 25  1  0  0  0
  2 86  1  0  0  0
  2 87  1  0  0  0
  3  4  1  0  0  0
  3 88  1  0  0  0
  3 89  1  0  0  0
  4  5  1  0  0  0
  4 90  1  0  0  0
  4 91  1  0  0  0
  5  6  1  0  0  0
  5 26  1  0  0  0
  5 92  1  0  0  0
  6 25  1  0  0  0
  6 93  1  0  0  0
  6 94  1  0  0  0
  7  8  2  0  0  0
  7 26  1  0  0  0
  7 29  1  0  0  0
  8  9  1  0  0  0
  8 22  1  0  0  0
  9 10  1  0  0  0
  9 27  2  0  0  0
 10 11  2  0  0  0
 10 15  1  0  0  0
 11 12  1  0  0  0
 11 95  1  0  0  0
 12 13  2  0  0  0
 12 96  1  0  0  0
 13 14  1  0  0  0
 13 31  1  0  0  0
 14 15  2  0  0  0
 14 97  1  0  0  0
 15 98  1  0  0  0
 16 17  2  0  0  0
 16 21  1  0  0  0
 16 31  1  0  0  0
 17 18  1  0  0  0
 17 99  1  0  0  0
 18 19  2  0  0  0
 18100  1  0  0  0
 19 20  1  0  0  0
 19 24  1  0  0  0
 20 21  2  0  0  0
 20101  1  0  0  0
 21 23  1  0  0  0
 22 28  1  0  0  0
 22 32  2  0  0  0
 26 27  1  0  0  0
 28102  1  0  0  0
 28103  1  0  0  0
 29104  1  0  0  0
 29105  1  0  0  0
 33 34  1  0  0  0
 33 66  1  0  0  0
 33 70  2  0  0  0
 34 36  1  0  0  0
 34 59  1  0  0  0
 34106  1  0  0  0
 35 44  2  0  0  0
 35 45  1  0  0  0
 35 68  1  0  0  0
 36 56  1  0  0  0
 36107  1  0  0  0
 37 39  1  0  0  0
 37 47  1  0  0  0
 37 66  1  0  0  0
 37108  1  0  0  0
 38 43  2  0  0  0
 38 46  1  0  0  0
 38 47  1  0  0  0
 39 64  1  0  0  0
 39 67  2  0  0  0
 40 52  1  0  0  0
 40 53  2  0  0  0
 40 58  1  0  0  0
 41109  1  0  0  0
 41110  1  0  0  0
 41111  1  0  0  0
 41 48  1  0  0  0
 42 43  1  0  0  0
 42 66  1  0  0  0
 42112  1  0  0  0
 42113  1  0  0  0
 43 44  1  0  0  0
 44114  1  0  0  0
 45 46  2  0  0  0
 45115  1  0  0  0
 46116  1  0  0  0
 47117  1  0  0  0
 47118  1  0  0  0
 48 56  1  0  0  0
 48 65  1  0  0  0
 48119  1  0  0  0
 49 50  1  0  0  0
 49 53  1  0  0  0
 49 64  1  0  0  0
 49120  1  0  0  0
 50 51  1  0  0  0
 50121  1  0  0  0
 50122  1  0  0  0
 51 52  1  0  0  0
 51123  1  0  0  0
 51124  1  0  0  0
 52125  1  0  0  0
 52126  1  0  0  0
 53 54  1  0  0  0
 54 55  2  0  0  0
 54127  1  0  0  0
 55 57  1  0  0  0
 55128  1  0  0  0
 56 69  2  0  0  0
 57 58  2  0  0  0
 57129  1  0  0  0
 58130  1  0  0  0
 59 60  1  0  0  0
 59 61  1  0  0  0
 59 62  1  0  0  0
 60131  1  0  0  0
 60132  1  0  0  0
 60133  1  0  0  0
 61134  1  0  0  0
 61135  1  0  0  0
 61136  1  0  0  0
 62137  1  0  0  0
 62138  1  0  0  0
 62139  1  0  0  0
 63 65  1  0  0  0
 63140  1  0  0  0
 63141  1  0  0  0
 63142  1  0  0  0
 64143  1  0  0  0
 65144  1  0  0  0
 68 83  1  0  0  0
 71 72  1  0  0  0
 71 73  2  0  0  0
 71145  1  0  0  0
 72 74  2  0  0  0
 72 77  1  0  0  0
 73 78  1  0  0  0
 73 84  1  0  0  0
 74 75  1  0  0  0
 74 84  1  0  0  0
 75146  1  0  0  0
 75147  1  0  0  0
 75148  1  0  0  0
 76 77  1  0  0  0
 76149  1  0  0  0
 76150  1  0  0  0
 76151  1  0  0  0
 77152  1  0  0  0
 77153  1  0  0  0
 78 79  1  0  0  0
 78154  1  0  0  0
 78155  1  0  0  0
 79 82  1  0  0  0
 79156  1  0  0  0
 79157  1  0  0  0
 80 81  1  0  0  0
 80 83  1  0  0  0
 80158  1  0  0  0
 80159  1  0  0  0
 81 84  1  0  0  0
 81160  1  0  0  0
 81161  1  0  0  0
 82 85  1  0  0  0
 82162  1  0  0  0
 82163  1  0  0  0
 83164  1  0  0  0
 83165  1  0  0  0
 85166  1  0  0  0
M  ISO  4   1 100  68 101  83 101  85 100
M  END
> <chiral flag>
0

> <version>
0

> <s_m_source_file>
/data/baiqing/PycharmProjects/Reinvent-master-3.2/result/LINK_invent/BTK/process_docking_weight1_custom_sum_contain_oxygen_bond_distance_aromatic_linkinvent_7_9_3/rearranged_h_0045.sdf

> <i_m_source_file_index>
16

> <r_mmod_Potential_Energy-OPLS-2005>
-54.0722541809082

> <r_mmod_Stretch_Energy-OPLS-2005>
58.3697509765625

> <r_mmod_Bend_Energy-OPLS-2005>
121.41512298584

> <r_mmod_Torsional_Energy-OPLS-2005>
236.314468383789

> <r_mmod_Improper_Torsional_Energy-OPLS-2005>
5.19186639785767

> <r_mmod_Van_der_Waal_Energy-OPLS-2005>
124.993812561035

> <r_mmod_Electrostatic_Energy-OPLS-2005>
-414.900939941406

> <r_mmod_Solvation_Energy-OPLS-2005>
-213.706619262695

> <b_mmod_Minimization_Converged-OPLS-2005>
0

> <r_mmod_RMS_Derivative-OPLS-2005>
3.41273665428162

$$$$
16
                    3D
 Structure written by MMmdl.
164173  0  0  1  0            999 V2000
  -30.6265  -14.7105   20.4591 C   0  0  0  0  0  0
  -30.4313  -12.4295   19.4762 C   0  0  0  0  0  0
  -29.5088  -12.4972   18.2389 C   0  0  0  0  0  0
  -28.0341  -12.3308   18.6509 C   0  0  0  0  0  0
  -27.6458  -13.2279   19.8560 C   0  0  2  0  0  0
  -28.6900  -13.1501   20.9926 C   0  0  0  0  0  0
  -25.2535  -13.8210   20.5696 C   0  0  0  0  0  0
  -24.1818  -13.0464   20.9211 C   0  0  0  0  0  0
  -24.6403  -11.6937   20.8770 C   0  0  0  0  0  0
  -23.9078  -10.4309   21.0426 C   0  0  0  0  0  0
  -24.3626   -9.4217   21.9198 C   0  0  0  0  0  0
  -23.6299   -8.2254   22.0757 C   0  0  0  0  0  0
  -22.4283   -8.0296   21.3544 C   0  0  0  0  0  0
  -21.9928   -9.0273   20.4644 C   0  0  0  0  0  0
  -22.7259  -10.2151   20.3063 C   0  0  0  0  0  0
  -21.6855   -6.0745   22.5282 C   0  0  0  0  0  0
  -21.4011   -6.5646   23.8216 C   0  0  0  0  0  0
  -21.3650   -5.6795   24.9174 C   0  0  0  0  0  0
  -21.6043   -4.3060   24.7229 C   0  0  0  0  0  0
  -21.8820   -3.8155   23.4349 C   0  0  0  0  0  0
  -21.9194   -4.6970   22.3403 C   0  0  0  0  0  0
  -22.7841  -13.5249   21.1868 C   0  0  0  0  0  0
  -22.1664   -4.2160   21.0977 F   0  0  0  0  0  0
  -21.5625   -3.4538   25.7738 F   0  0  0  0  0  0
  -29.9986  -13.4880   20.4164 N   0  0  0  0  0  0
  -26.2962  -12.9408   20.3314 N   0  0  0  0  0  0
  -25.9334  -11.6557   20.5784 N   0  0  0  0  0  0
  -22.0484  -12.8221   22.0403 N   0  0  0  0  0  0
  -25.4230  -15.1927   20.4045 N   0  0  0  0  0  0
  -31.8019  -14.8198   20.1030 O   0  0  0  0  0  0
  -21.6644   -6.8895   21.4246 O   0  0  0  0  0  0
  -22.3522  -14.5550   20.6707 O   0  0  0  0  0  0
  -24.6310  -31.8547   23.2009 C   0  0  0  0  0  0
  -25.9137  -32.4748   23.8347 C   0  0  1  0  0  0
  -27.2216  -27.2651   20.1338 C   0  0  0  0  0  0
  -25.5921  -33.8556   24.2252 N   0  0  0  0  0  0
  -23.4290  -30.4783   21.5430 C   0  0  2  0  0  0
  -24.8775  -28.9288   20.1094 C   0  0  0  0  0  0
  -22.7501  -29.4594   22.4900 C   0  0  0  0  0  0
  -18.0286  -28.1394   22.8493 C   0  0  0  0  0  0
  -24.1481  -36.7283   23.2640 C   0  0  0  0  0  0
  -25.9745  -30.7697   21.3821 C   0  0  0  0  0  0
  -26.0481  -29.3938   20.7227 C   0  0  0  0  0  0
  -27.2202  -28.5736   20.7263 C   0  0  0  0  0  0
  -26.0299  -26.8705   19.4844 C   0  0  0  0  0  0
  -24.8729  -27.6737   19.4823 C   0  0  0  0  0  0
  -23.6474  -29.8153   20.1578 C   0  0  0  0  0  0
  -25.4111  -36.3069   24.0325 C   0  0  1  0  0  0
  -20.5902  -28.3702   23.1277 C   0  0  2  0  0  0
  -20.6795  -26.9422   22.5411 C   0  0  0  0  0  0
  -19.5757  -26.6401   21.5230 C   0  0  0  0  0  0
  -18.1929  -26.7939   22.1638 C   0  0  0  0  0  0
  -19.1546  -28.8863   23.2878 C   0  0  0  0  0  0
  -18.9464  -30.1465   23.8893 C   0  0  0  0  0  0
  -17.6462  -30.6596   24.0567 C   0  0  0  0  0  0
  -25.9064  -34.9441   23.5103 C   0  0  0  0  0  0
  -16.5347  -29.9088   23.6357 C   0  0  0  0  0  0
  -16.7275  -28.6514   23.0369 C   0  0  0  0  0  0
  -26.4501  -31.6589   25.0746 C   0  0  0  0  0  0
  -25.3699  -31.3740   26.1438 C   0  0  0  0  0  0
  -27.0383  -30.3015   24.6266 C   0  0  0  0  0  0
  -27.6042  -32.4348   25.7519 C   0  0  0  0  0  0
  -27.5571  -37.1782   24.8457 C   0  0  0  0  0  0
  -21.4212  -29.3031   22.3642 N   0  0  0  0  0  0
  -26.4281  -37.3767   23.9411 N   0  0  0  0  0  0
  -24.6974  -31.0512   22.0981 N   0  0  0  0  0  0
  -23.4199  -28.8121   23.2990 O   0  0  0  0  0  0
  -28.3182  -26.3755   20.2149 O   0  0  0  0  0  0
  -26.5643  -34.8904   22.4674 O   0  0  0  0  0  0
  -23.5465  -32.1368   23.7300 O   0  0  0  0  0  0
  -26.3185  -19.6932   22.0918 C   0  0  0  0  0  0
  -25.5885  -18.5486   22.4689 C   0  0  0  0  0  0
  -27.1642  -18.1406   24.2776 C   0  0  0  0  0  0
  -29.8825  -20.4368   19.1757 C   0  0  0  0  0  0
  -27.4873  -20.0656   22.7962 C   0  0  0  0  0  0
  -26.0143  -17.7675   23.5582 C   0  0  0  0  0  0
  -27.8996  -19.2851   23.9072 C   0  0  0  0  0  0
  -29.3968  -19.9667   20.3747 C   0  0  0  0  0  0
  -29.1950  -22.2888   20.2693 C   0  0  0  0  0  0
  -28.2824  -21.2877   22.3333 C   0  0  0  0  0  0
  -29.3341  -18.4843   20.9253 C   0  0  0  0  0  0
  -29.1366  -23.8316   20.6460 C   0  0  0  0  0  0
  -30.1405  -17.2755   20.2305 C   0  0  0  0  0  0
  -28.1292  -24.8996   19.9782 C   0  0  0  0  0  0
  -28.9241  -21.1541   21.0042 N   0  0  0  0  0  0
  -29.7480  -21.8092   19.1464 N   0  3  0  0  0  0
  -29.8540  -15.8382   20.6653 N   0  0  0  0  0  0
  -25.1312  -16.3534   24.0076 Cl  0  0  0  0  0  0
  -29.3207  -19.6742   24.8122 Cl  0  0  0  0  0  0
  -31.4734  -12.5425   19.1749 H   0  0  0  0  0  0
  -30.3659  -11.4509   19.9552 H   0  0  0  0  0  0
  -29.7850  -11.7229   17.5216 H   0  0  0  0  0  0
  -29.6423  -13.4524   17.7278 H   0  0  0  0  0  0
  -27.8823  -11.2813   18.9078 H   0  0  0  0  0  0
  -27.3792  -12.5319   17.8026 H   0  0  0  0  0  0
  -27.6457  -14.2507   19.4797 H   0  0  0  0  0  0
  -28.7168  -12.1513   21.4302 H   0  0  0  0  0  0
  -28.4299  -13.8314   21.8044 H   0  0  0  0  0  0
  -25.2773   -9.5685   22.4770 H   0  0  0  0  0  0
  -24.0007   -7.4640   22.7475 H   0  0  0  0  0  0
  -21.0866   -8.8798   19.8945 H   0  0  0  0  0  0
  -22.3735  -10.9689   19.6169 H   0  0  0  0  0  0
  -21.2002   -7.6153   23.9723 H   0  0  0  0  0  0
  -21.1467   -6.0520   25.9073 H   0  0  0  0  0  0
  -22.0607   -2.7621   23.2844 H   0  0  0  0  0  0
  -22.4105  -11.9881   22.4786 H   0  0  0  0  0  0
  -21.1097  -13.1228   22.2607 H   0  0  0  0  0  0
  -24.6552  -15.8423   20.5242 H   0  0  0  0  0  0
  -26.2685  -15.6330   20.0681 H   0  0  0  0  0  0
  -26.7195  -32.5406   23.1078 H   0  0  0  0  0  0
  -25.0014  -33.9690   25.0357 H   0  0  0  0  0  0
  -22.7266  -31.3023   21.3981 H   0  0  0  0  0  0
  -23.3751  -35.9605   23.3302 H   0  0  0  0  0  0
  -24.3564  -36.8938   22.2056 H   0  0  0  0  0  0
  -23.7248  -37.6481   23.6686 H   0  0  0  0  0  0
  -26.1125  -31.5341   20.6159 H   0  0  0  0  0  0
  -26.8514  -30.8171   22.0168 H   0  0  0  0  0  0
  -28.1129  -28.9187   21.2308 H   0  0  0  0  0  0
  -25.9612  -25.9167   18.9830 H   0  0  0  0  0  0
  -23.9785  -27.3149   18.9947 H   0  0  0  0  0  0
  -23.7673  -30.5930   19.4022 H   0  0  0  0  0  0
  -22.7660  -29.2465   19.8554 H   0  0  0  0  0  0
  -25.1286  -36.1908   25.0819 H   0  0  0  0  0  0
  -20.9987  -28.3284   24.1410 H   0  0  0  0  0  0
  -20.5751  -26.2290   23.3603 H   0  0  0  0  0  0
  -21.6650  -26.7478   22.1163 H   0  0  0  0  0  0
  -19.6937  -25.6322   21.1255 H   0  0  0  0  0  0
  -19.6721  -27.3220   20.6765 H   0  0  0  0  0  0
  -17.4211  -26.6706   21.4019 H   0  0  0  0  0  0
  -18.0299  -26.0073   22.9021 H   0  0  0  0  0  0
  -19.7934  -30.7279   24.2271 H   0  0  0  0  0  0
  -17.5017  -31.6282   24.5144 H   0  0  0  0  0  0
  -15.5352  -30.2971   23.7718 H   0  0  0  0  0  0
  -15.8674  -28.0834   22.7089 H   0  0  0  0  0  0
  -24.5859  -30.7124   25.7736 H   0  0  0  0  0  0
  -24.8879  -32.2905   26.4858 H   0  0  0  0  0  0
  -25.7963  -30.8893   27.0233 H   0  0  0  0  0  0
  -26.3002  -29.6720   24.1273 H   0  0  0  0  0  0
  -27.4054  -29.7323   25.4826 H   0  0  0  0  0  0
  -27.8881  -30.4312   23.9557 H   0  0  0  0  0  0
  -27.2651  -33.3669   26.2063 H   0  0  0  0  0  0
  -28.3858  -32.6893   25.0342 H   0  0  0  0  0  0
  -28.0698  -31.8498   26.5459 H   0  0  0  0  0  0
  -28.2554  -38.0105   24.7519 H   0  0  0  0  0  0
  -28.1105  -36.2631   24.6269 H   0  0  0  0  0  0
  -27.2282  -37.1416   25.8857 H   0  0  0  0  0  0
  -20.9397  -29.8726   21.6828 H   0  0  0  0  0  0
  -26.0164  -38.2843   24.1421 H   0  0  0  0  0  0
  -25.9884  -20.2720   21.2405 H   0  0  0  0  0  0
  -24.7050  -18.2605   21.9157 H   0  0  0  0  0  0
  -27.4892  -17.5391   25.1137 H   0  0  0  0  0  0
  -30.3329  -19.8994   18.3530 H   0  0  0  0  0  0
  -29.0565  -21.5798   23.0406 H   0  0  0  0  0  0
  -27.5830  -22.1235   22.2846 H   0  0  0  0  0  0
  -28.2850  -18.1922   20.9404 H   0  0  0  0  0  0
  -29.6602  -18.5145   21.9643 H   0  0  0  0  0  0
  -30.1482  -24.1845   20.4437 H   0  0  0  0  0  0
  -29.0421  -23.8816   21.7296 H   0  0  0  0  0  0
  -31.2110  -17.4683   20.3273 H   0  0  0  0  0  0
  -29.9357  -17.3044   19.1604 H   0  0  0  0  0  0
  -27.1330  -24.6069   20.3080 H   0  0  0  0  0  0
  -28.1484  -24.7562   18.8971 H   0  0  0  0  0  0
  -30.0834  -22.3890   18.3856 H   0  0  0  0  0  0
  -28.9095  -15.6489   20.9626 H   0  0  0  0  0  0
  1 25  1  0  0  0
  1 30  2  0  0  0
  1 87  1  0  0  0
  2  3  1  0  0  0
  2 25  1  0  0  0
  2 90  1  0  0  0
  2 91  1  0  0  0
  3  4  1  0  0  0
  3 92  1  0  0  0
  3 93  1  0  0  0
  4  5  1  0  0  0
  4 94  1  0  0  0
  4 95  1  0  0  0
  5  6  1  0  0  0
  5 26  1  0  0  0
  5 96  1  0  0  0
  6 25  1  0  0  0
  6 97  1  0  0  0
  6 98  1  0  0  0
  7  8  2  0  0  0
  7 26  1  0  0  0
  7 29  1  0  0  0
  8  9  1  0  0  0
  8 22  1  0  0  0
  9 10  1  0  0  0
  9 27  2  0  0  0
 10 11  2  0  0  0
 10 15  1  0  0  0
 11 12  1  0  0  0
 11 99  1  0  0  0
 12 13  2  0  0  0
 12100  1  0  0  0
 13 14  1  0  0  0
 13 31  1  0  0  0
 14 15  2  0  0  0
 14101  1  0  0  0
 15102  1  0  0  0
 16 17  2  0  0  0
 16 21  1  0  0  0
 16 31  1  0  0  0
 17 18  1  0  0  0
 17103  1  0  0  0
 18 19  2  0  0  0
 18104  1  0  0  0
 19 20  1  0  0  0
 19 24  1  0  0  0
 20 21  2  0  0  0
 20105  1  0  0  0
 21 23  1  0  0  0
 22 28  1  0  0  0
 22 32  2  0  0  0
 26 27  1  0  0  0
 28106  1  0  0  0
 28107  1  0  0  0
 29108  1  0  0  0
 29109  1  0  0  0
 33 34  1  0  0  0
 33 66  1  0  0  0
 33 70  2  0  0  0
 34 36  1  0  0  0
 34 59  1  0  0  0
 34110  1  0  0  0
 35 44  2  0  0  0
 35 45  1  0  0  0
 35 68  1  0  0  0
 36 56  1  0  0  0
 36111  1  0  0  0
 37 39  1  0  0  0
 37 47  1  0  0  0
 37 66  1  0  0  0
 37112  1  0  0  0
 38 43  2  0  0  0
 38 46  1  0  0  0
 38 47  1  0  0  0
 39 64  1  0  0  0
 39 67  2  0  0  0
 40 52  1  0  0  0
 40 53  2  0  0  0
 40 58  1  0  0  0
 41113  1  0  0  0
 41114  1  0  0  0
 41115  1  0  0  0
 41 48  1  0  0  0
 42 43  1  0  0  0
 42 66  1  0  0  0
 42116  1  0  0  0
 42117  1  0  0  0
 43 44  1  0  0  0
 44118  1  0  0  0
 45 46  2  0  0  0
 45119  1  0  0  0
 46120  1  0  0  0
 47121  1  0  0  0
 47122  1  0  0  0
 48 56  1  0  0  0
 48 65  1  0  0  0
 48123  1  0  0  0
 49 50  1  0  0  0
 49 53  1  0  0  0
 49 64  1  0  0  0
 49124  1  0  0  0
 50 51  1  0  0  0
 50125  1  0  0  0
 50126  1  0  0  0
 51 52  1  0  0  0
 51127  1  0  0  0
 51128  1  0  0  0
 52129  1  0  0  0
 52130  1  0  0  0
 53 54  1  0  0  0
 54 55  2  0  0  0
 54131  1  0  0  0
 55 57  1  0  0  0
 55132  1  0  0  0
 56 69  2  0  0  0
 57 58  2  0  0  0
 57133  1  0  0  0
 58134  1  0  0  0
 59 60  1  0  0  0
 59 61  1  0  0  0
 59 62  1  0  0  0
 60135  1  0  0  0
 60136  1  0  0  0
 60137  1  0  0  0
 61138  1  0  0  0
 61139  1  0  0  0
 61140  1  0  0  0
 62141  1  0  0  0
 62142  1  0  0  0
 62143  1  0  0  0
 63 65  1  0  0  0
 63144  1  0  0  0
 63145  1  0  0  0
 63146  1  0  0  0
 64147  1  0  0  0
 65148  1  0  0  0
 68 84  1  0  0  0
 71 72  2  0  0  0
 71 75  1  0  0  0
 71149  1  0  0  0
 72 76  1  0  0  0
 72150  1  0  0  0
 73 76  2  0  0  0
 73 77  1  0  0  0
 73151  1  0  0  0
 74 78  2  0  0  0
 74 86  1  0  0  0
 74152  1  0  0  0
 75 77  2  0  0  0
 75 80  1  0  0  0
 76 88  1  0  0  0
 77 89  1  0  0  0
 78 81  1  0  0  0
 78 85  1  0  0  0
 79 82  1  0  0  0
 79 85  1  0  0  0
 79 86  2  0  0  0
 80 85  1  0  0  0
 80153  1  0  0  0
 80154  1  0  0  0
 81 83  1  0  0  0
 81155  1  0  0  0
 81156  1  0  0  0
 82 84  1  0  0  0
 82157  1  0  0  0
 82158  1  0  0  0
 83 87  1  0  0  0
 83159  1  0  0  0
 83160  1  0  0  0
 84161  1  0  0  0
 84162  1  0  0  0
 86163  1  0  0  0
 87164  1  0  0  0
M  CHG  1  86   1
M  ISO  4   1 100  68 101  84 101  87 100
M  END
> <chiral flag>
0

> <version>
0

> <s_m_source_file>
/data/baiqing/PycharmProjects/Reinvent-master-3.2/result/LINK_invent/BTK/process_docking_weight1_custom_sum_contain_oxygen_bond_distance_aromatic_linkinvent_7_9_3/rearranged_h_0045.sdf

> <i_m_source_file_index>
17

> <r_mmod_Potential_Energy-OPLS-2005>
17.5281505584717

> <r_mmod_Stretch_Energy-OPLS-2005>
119.490509033203

> <r_mmod_Bend_Energy-OPLS-2005>
159.456817626953

> <r_mmod_Torsional_Energy-OPLS-2005>
223.295669555664

> <r_mmod_Improper_Torsional_Energy-OPLS-2005>
7.08935785293579

> <r_mmod_Van_der_Waal_Energy-OPLS-2005>
126.019355773926

> <r_mmod_Electrostatic_Energy-OPLS-2005>
-240.587646484375

> <r_mmod_Solvation_Energy-OPLS-2005>
-454.830780029297

> <b_mmod_Minimization_Converged-OPLS-2005>
0

> <r_mmod_RMS_Derivative-OPLS-2005>
2.14929795265198

$$$$
17
                    3D
 Structure written by MMmdl.
160168  0  0  1  0            999 V2000
  -30.5760  -14.7581   20.4503 C   0  0  0  0  0  0
  -30.4198  -12.4544   19.4863 C   0  0  0  0  0  0
  -29.4968  -12.4300   18.2485 C   0  0  0  0  0  0
  -28.0352  -12.2301   18.6808 C   0  0  0  0  0  0
  -27.6183  -13.2063   19.8056 C   0  0  2  0  0  0
  -28.6479  -13.2168   20.9523 C   0  0  0  0  0  0
  -25.2446  -13.8146   20.5613 C   0  0  0  0  0  0
  -24.1757  -13.0471   20.9214 C   0  0  0  0  0  0
  -24.6285  -11.6901   20.8760 C   0  0  0  0  0  0
  -23.8976  -10.4302   21.0388 C   0  0  0  0  0  0
  -24.3583   -9.4229   21.9143 C   0  0  0  0  0  0
  -23.6288   -8.2245   22.0710 C   0  0  0  0  0  0
  -22.4260   -8.0263   21.3528 C   0  0  0  0  0  0
  -21.9871   -9.0216   20.4598 C   0  0  0  0  0  0
  -22.7158  -10.2114   20.3004 C   0  0  0  0  0  0
  -21.6856   -6.0711   22.5270 C   0  0  0  0  0  0
  -21.4007   -6.5620   23.8213 C   0  0  0  0  0  0
  -21.3667   -5.6773   24.9178 C   0  0  0  0  0  0
  -21.6074   -4.3039   24.7212 C   0  0  0  0  0  0
  -21.8821   -3.8117   23.4336 C   0  0  0  0  0  0
  -21.9183   -4.6931   22.3391 C   0  0  0  0  0  0
  -22.7787  -13.5228   21.1928 C   0  0  0  0  0  0
  -22.1674   -4.2127   21.0965 F   0  0  0  0  0  0
  -21.5636   -3.4527   25.7722 F   0  0  0  0  0  0
  -29.9471  -13.5416   20.3691 N   0  0  0  0  0  0
  -26.2773  -12.9289   20.3042 N   0  0  0  0  0  0
  -25.9184  -11.6495   20.5686 N   0  0  0  0  0  0
  -22.0465  -12.8197   22.0463 N   0  0  0  0  0  0
  -25.4234  -15.1877   20.4070 N   0  0  0  0  0  0
  -31.7761  -14.8483   20.1988 O   0  0  0  0  0  0
  -21.6655   -6.8845   21.4222 O   0  0  0  0  0  0
  -22.3445  -14.5528   20.6702 O   0  0  0  0  0  0
  -24.6321  -31.8502   23.1986 C   0  0  0  0  0  0
  -25.9114  -32.4747   23.8342 C   0  0  1  0  0  0
  -27.2449  -27.2521   20.0880 C   0  0  0  0  0  0
  -25.5902  -33.8561   24.2256 N   0  0  0  0  0  0
  -23.4343  -30.4686   21.5399 C   0  0  2  0  0  0
  -24.8811  -28.9143   20.1122 C   0  0  0  0  0  0
  -22.7525  -29.4551   22.4882 C   0  0  0  0  0  0
  -18.0276  -28.1390   22.8496 C   0  0  0  0  0  0
  -24.1457  -36.7267   23.2662 C   0  0  0  0  0  0
  -25.9812  -30.7446   21.3880 C   0  0  0  0  0  0
  -26.0518  -29.3682   20.7321 C   0  0  0  0  0  0
  -27.2276  -28.5454   20.7186 C   0  0  0  0  0  0
  -26.0475  -26.8809   19.4284 C   0  0  0  0  0  0
  -24.8853  -27.6775   19.4556 C   0  0  0  0  0  0
  -23.6534  -29.8038   20.1555 C   0  0  0  0  0  0
  -25.4088  -36.3085   24.0358 C   0  0  1  0  0  0
  -20.5890  -28.3691   23.1259 C   0  0  2  0  0  0
  -20.6755  -26.9391   22.5426 C   0  0  0  0  0  0
  -19.5736  -26.6377   21.5228 C   0  0  0  0  0  0
  -18.1912  -26.7941   22.1622 C   0  0  0  0  0  0
  -19.1548  -28.8868   23.2868 C   0  0  0  0  0  0
  -18.9471  -30.1465   23.8882 C   0  0  0  0  0  0
  -17.6474  -30.6588   24.0567 C   0  0  0  0  0  0
  -25.9033  -34.9444   23.5109 C   0  0  0  0  0  0
  -16.5349  -29.9091   23.6357 C   0  0  0  0  0  0
  -16.7283  -28.6504   23.0377 C   0  0  0  0  0  0
  -26.4492  -31.6611   25.0752 C   0  0  0  0  0  0
  -25.3745  -31.3767   26.1515 C   0  0  0  0  0  0
  -27.0362  -30.3044   24.6243 C   0  0  0  0  0  0
  -27.6064  -32.4372   25.7467 C   0  0  0  0  0  0
  -27.5562  -37.1775   24.8474 C   0  0  0  0  0  0
  -21.4222  -29.3019   22.3648 N   0  0  0  0  0  0
  -26.4261  -37.3786   23.9441 N   0  0  0  0  0  0
  -24.7016  -31.0422   22.0967 N   0  0  0  0  0  0
  -23.4212  -28.8034   23.2962 O   0  0  0  0  0  0
  -28.3614  -26.3683   20.1329 O   0  0  0  0  0  0
  -26.5625  -34.8923   22.4691 O   0  0  0  0  0  0
  -23.5445  -32.1328   23.7227 O   0  0  0  0  0  0
  -31.7237  -21.2071   17.7704 C   0  0  0  0  0  0
  -29.9920  -19.6854   19.2076 C   0  0  0  0  0  0
  -30.7849  -19.1743   18.1514 C   0  0  0  0  0  0
  -29.9527  -21.1601   19.2652 C   0  0  0  0  0  0
  -29.7511  -17.9973   16.1959 C   0  0  0  0  0  0
  -29.2994  -18.5953   20.1196 C   0  0  0  0  0  0
  -30.5452  -17.8167   17.4977 C   0  0  0  0  0  0
  -28.8632  -22.1420   19.8711 C   0  0  0  0  0  0
  -29.2022  -23.7148   20.2004 C   0  0  0  0  0  0
  -30.2304  -17.3548   20.6682 C   0  0  0  0  0  0
  -28.2596  -24.9321   19.6652 C   0  0  0  0  0  0
  -31.6935  -19.9168   17.5021 N   0  0  0  0  0  0
  -30.8477  -21.8542   18.5289 N   0  0  0  0  0  0
  -29.7886  -15.8979   20.6083 N   0  0  0  0  0  0
  -31.4576  -12.6006   19.1860 H   0  0  0  0  0  0
  -30.3745  -11.5074   20.0277 H   0  0  0  0  0  0
  -29.7979  -11.6201   17.5800 H   0  0  0  0  0  0
  -29.5864  -13.3580   17.6851 H   0  0  0  0  0  0
  -27.9592  -11.2098   19.0574 H   0  0  0  0  0  0
  -27.3629  -12.3009   17.8239 H   0  0  0  0  0  0
  -27.5907  -14.1868   19.3298 H   0  0  0  0  0  0
  -28.6930  -12.2583   21.4689 H   0  0  0  0  0  0
  -28.3683  -13.9651   21.6948 H   0  0  0  0  0  0
  -25.2729   -9.5744   22.4727 H   0  0  0  0  0  0
  -24.0018   -7.4617   22.7388 H   0  0  0  0  0  0
  -21.0827   -8.8667   19.8910 H   0  0  0  0  0  0
  -22.3557  -10.9635   19.6121 H   0  0  0  0  0  0
  -21.2011   -7.6126   23.9708 H   0  0  0  0  0  0
  -21.1512   -6.0509   25.9095 H   0  0  0  0  0  0
  -22.0586   -2.7562   23.2838 H   0  0  0  0  0  0
  -22.4121  -11.9904   22.4943 H   0  0  0  0  0  0
  -21.1039  -13.1127   22.2626 H   0  0  0  0  0  0
  -24.6651  -15.8466   20.5370 H   0  0  0  0  0  0
  -26.2707  -15.6217   20.0722 H   0  0  0  0  0  0
  -26.7151  -32.5336   23.1036 H   0  0  0  0  0  0
  -25.0078  -33.9666   25.0431 H   0  0  0  0  0  0
  -22.7370  -31.2941   21.3938 H   0  0  0  0  0  0
  -23.3742  -35.9577   23.3334 H   0  0  0  0  0  0
  -24.3530  -36.8858   22.2074 H   0  0  0  0  0  0
  -23.7163  -37.6459   23.6658 H   0  0  0  0  0  0
  -26.1236  -31.4879   20.6050 H   0  0  0  0  0  0
  -26.8646  -30.8000   22.0114 H   0  0  0  0  0  0
  -28.1137  -28.8817   21.2366 H   0  0  0  0  0  0
  -25.9709  -25.9565   18.8765 H   0  0  0  0  0  0
  -23.9908  -27.3514   18.9400 H   0  0  0  0  0  0
  -23.7666  -30.5808   19.3961 H   0  0  0  0  0  0
  -22.7758  -29.2259   19.8572 H   0  0  0  0  0  0
  -25.1244  -36.1957   25.0852 H   0  0  0  0  0  0
  -20.9985  -28.3266   24.1374 H   0  0  0  0  0  0
  -20.5644  -26.2276   23.3623 H   0  0  0  0  0  0
  -21.6619  -26.7387   22.1210 H   0  0  0  0  0  0
  -19.6882  -25.6306   21.1228 H   0  0  0  0  0  0
  -19.6691  -27.3205   20.6787 H   0  0  0  0  0  0
  -17.4182  -26.6721   21.4016 H   0  0  0  0  0  0
  -18.0288  -26.0080   22.9017 H   0  0  0  0  0  0
  -19.7948  -30.7295   24.2231 H   0  0  0  0  0  0
  -17.5024  -31.6275   24.5162 H   0  0  0  0  0  0
  -15.5358  -30.2977   23.7718 H   0  0  0  0  0  0
  -15.8664  -28.0819   22.7120 H   0  0  0  0  0  0
  -24.5914  -30.7100   25.7875 H   0  0  0  0  0  0
  -24.8962  -32.2958   26.4947 H   0  0  0  0  0  0
  -25.8123  -30.8970   27.0295 H   0  0  0  0  0  0
  -26.2958  -29.6772   24.1287 H   0  0  0  0  0  0
  -27.4089  -29.7310   25.4742 H   0  0  0  0  0  0
  -27.8815  -30.4338   23.9478 H   0  0  0  0  0  0
  -27.2708  -33.3689   26.2025 H   0  0  0  0  0  0
  -28.3876  -32.6914   25.0291 H   0  0  0  0  0  0
  -28.0770  -31.8547   26.5391 H   0  0  0  0  0  0
  -28.2605  -38.0045   24.7529 H   0  0  0  0  0  0
  -28.1018  -36.2590   24.6285 H   0  0  0  0  0  0
  -27.2292  -37.1428   25.8875 H   0  0  0  0  0  0
  -20.9415  -29.8715   21.6820 H   0  0  0  0  0  0
  -26.0148  -38.2849   24.1505 H   0  0  0  0  0  0
  -32.4898  -21.7807   17.2641 H   0  0  0  0  0  0
  -29.5055  -17.0380   15.7427 H   0  0  0  0  0  0
  -30.3544  -18.5460   15.4698 H   0  0  0  0  0  0
  -28.8177  -18.5514   16.3380 H   0  0  0  0  0  0
  -28.3750  -18.2280   19.6513 H   0  0  0  0  0  0
  -28.9801  -19.1819   20.9814 H   0  0  0  0  0  0
  -30.0170  -17.1064   18.1295 H   0  0  0  0  0  0
  -31.5050  -17.3637   17.2484 H   0  0  0  0  0  0
  -28.0245  -22.1143   19.1732 H   0  0  0  0  0  0
  -28.4765  -21.6741   20.7765 H   0  0  0  0  0  0
  -30.2423  -23.8995   19.9315 H   0  0  0  0  0  0
  -29.2163  -23.7900   21.2866 H   0  0  0  0  0  0
  -30.4249  -17.5775   21.7169 H   0  0  0  0  0  0
  -31.2478  -17.3781   20.2851 H   0  0  0  0  0  0
  -28.3902  -24.9727   18.5818 H   0  0  0  0  0  0
  -27.2478  -24.5851   19.8633 H   0  0  0  0  0  0
  -28.7949  -15.7394   20.6792 H   0  0  0  0  0  0
  1 25  1  0  0  0
  1 30  2  0  0  0
  1 84  1  0  0  0
  2  3  1  0  0  0
  2 25  1  0  0  0
  2 85  1  0  0  0
  2 86  1  0  0  0
  3  4  1  0  0  0
  3 87  1  0  0  0
  3 88  1  0  0  0
  4  5  1  0  0  0
  4 89  1  0  0  0
  4 90  1  0  0  0
  5  6  1  0  0  0
  5 26  1  0  0  0
  5 91  1  0  0  0
  6 25  1  0  0  0
  6 92  1  0  0  0
  6 93  1  0  0  0
  7  8  2  0  0  0
  7 26  1  0  0  0
  7 29  1  0  0  0
  8  9  1  0  0  0
  8 22  1  0  0  0
  9 10  1  0  0  0
  9 27  2  0  0  0
 10 11  2  0  0  0
 10 15  1  0  0  0
 11 12  1  0  0  0
 11 94  1  0  0  0
 12 13  2  0  0  0
 12 95  1  0  0  0
 13 14  1  0  0  0
 13 31  1  0  0  0
 14 15  2  0  0  0
 14 96  1  0  0  0
 15 97  1  0  0  0
 16 17  2  0  0  0
 16 21  1  0  0  0
 16 31  1  0  0  0
 17 18  1  0  0  0
 17 98  1  0  0  0
 18 19  2  0  0  0
 18 99  1  0  0  0
 19 20  1  0  0  0
 19 24  1  0  0  0
 20 21  2  0  0  0
 20100  1  0  0  0
 21 23  1  0  0  0
 22 28  1  0  0  0
 22 32  2  0  0  0
 26 27  1  0  0  0
 28101  1  0  0  0
 28102  1  0  0  0
 29103  1  0  0  0
 29104  1  0  0  0
 33 34  1  0  0  0
 33 66  1  0  0  0
 33 70  2  0  0  0
 34 36  1  0  0  0
 34 59  1  0  0  0
 34105  1  0  0  0
 35 44  2  0  0  0
 35 45  1  0  0  0
 35 68  1  0  0  0
 36 56  1  0  0  0
 36106  1  0  0  0
 37 39  1  0  0  0
 37 47  1  0  0  0
 37 66  1  0  0  0
 37107  1  0  0  0
 38 43  2  0  0  0
 38 46  1  0  0  0
 38 47  1  0  0  0
 39 64  1  0  0  0
 39 67  2  0  0  0
 40 52  1  0  0  0
 40 53  2  0  0  0
 40 58  1  0  0  0
 41108  1  0  0  0
 41109  1  0  0  0
 41110  1  0  0  0
 41 48  1  0  0  0
 42 43  1  0  0  0
 42 66  1  0  0  0
 42111  1  0  0  0
 42112  1  0  0  0
 43 44  1  0  0  0
 44113  1  0  0  0
 45 46  2  0  0  0
 45114  1  0  0  0
 46115  1  0  0  0
 47116  1  0  0  0
 47117  1  0  0  0
 48 56  1  0  0  0
 48 65  1  0  0  0
 48118  1  0  0  0
 49 50  1  0  0  0
 49 53  1  0  0  0
 49 64  1  0  0  0
 49119  1  0  0  0
 50 51  1  0  0  0
 50120  1  0  0  0
 50121  1  0  0  0
 51 52  1  0  0  0
 51122  1  0  0  0
 51123  1  0  0  0
 52124  1  0  0  0
 52125  1  0  0  0
 53 54  1  0  0  0
 54 55  2  0  0  0
 54126  1  0  0  0
 55 57  1  0  0  0
 55127  1  0  0  0
 56 69  2  0  0  0
 57 58  2  0  0  0
 57128  1  0  0  0
 58129  1  0  0  0
 59 60  1  0  0  0
 59 61  1  0  0  0
 59 62  1  0  0  0
 60130  1  0  0  0
 60131  1  0  0  0
 60132  1  0  0  0
 61133  1  0  0  0
 61134  1  0  0  0
 61135  1  0  0  0
 62136  1  0  0  0
 62137  1  0  0  0
 62138  1  0  0  0
 63 65  1  0  0  0
 63139  1  0  0  0
 63140  1  0  0  0
 63141  1  0  0  0
 64142  1  0  0  0
 65143  1  0  0  0
 68 81  1  0  0  0
 71 82  2  0  0  0
 71 83  1  0  0  0
 71144  1  0  0  0
 72 73  2  0  0  0
 72 74  1  0  0  0
 72 76  1  0  0  0
 73 77  1  0  0  0
 73 82  1  0  0  0
 74 78  1  0  0  0
 74 83  2  0  0  0
 75 77  1  0  0  0
 75145  1  0  0  0
 75146  1  0  0  0
 75147  1  0  0  0
 76 80  1  0  0  0
 76148  1  0  0  0
 76149  1  0  0  0
 77150  1  0  0  0
 77151  1  0  0  0
 78 79  1  0  0  0
 78152  1  0  0  0
 78153  1  0  0  0
 79 81  1  0  0  0
 79154  1  0  0  0
 79155  1  0  0  0
 80 84  1  0  0  0
 80156  1  0  0  0
 80157  1  0  0  0
 81158  1  0  0  0
 81159  1  0  0  0
 84160  1  0  0  0
M  ISO  4   1 100  68 101  81 101  84 100
M  END
> <chiral flag>
0

> <version>
0

> <s_m_source_file>
/data/baiqing/PycharmProjects/Reinvent-master-3.2/result/LINK_invent/BTK/process_docking_weight1_custom_sum_contain_oxygen_bond_distance_aromatic_linkinvent_7_9_3/rearranged_h_0045.sdf

> <i_m_source_file_index>
18

> <r_mmod_Potential_Energy-OPLS-2005>
-207.825790405273

> <r_mmod_Stretch_Energy-OPLS-2005>
141.97883605957

> <r_mmod_Bend_Energy-OPLS-2005>
202.445587158203

> <r_mmod_Torsional_Energy-OPLS-2005>
260.365020751953

> <r_mmod_Improper_Torsional_Energy-OPLS-2005>
6.08367395401001

> <r_mmod_Van_der_Waal_Energy-OPLS-2005>
153.062545776367

> <r_mmod_Electrostatic_Energy-OPLS-2005>
-837.290893554688

> <r_mmod_Solvation_Energy-OPLS-2005>
-236.214279174805

> <b_mmod_Minimization_Converged-OPLS-2005>
0

> <r_mmod_RMS_Derivative-OPLS-2005>
11.7672185897827

$$$$
18
                    3D
 Structure written by MMmdl.
155162  0  0  1  0            999 V2000
  -30.3318  -15.5558   20.3361 C   0  0  0  0  0  0
  -30.4254  -13.0227   19.5334 C   0  0  0  0  0  0
  -29.5448  -12.6420   18.3116 C   0  0  0  0  0  0
  -28.1095  -12.3075   18.7461 C   0  0  0  0  0  0
  -27.5973  -13.3016   19.8144 C   0  0  2  0  0  0
  -28.6189  -13.6023   20.9345 C   0  0  0  0  0  0
  -25.2332  -13.8282   20.5774 C   0  0  0  0  0  0
  -24.1712  -13.0433   20.9266 C   0  0  0  0  0  0
  -24.6401  -11.6946   20.8744 C   0  0  0  0  0  0
  -23.9102  -10.4296   21.0379 C   0  0  0  0  0  0
  -24.3649   -9.4218   21.9166 C   0  0  0  0  0  0
  -23.6319   -8.2254   22.0749 C   0  0  0  0  0  0
  -22.4297   -8.0281   21.3543 C   0  0  0  0  0  0
  -21.9931   -9.0249   20.4638 C   0  0  0  0  0  0
  -22.7261  -10.2129   20.3039 C   0  0  0  0  0  0
  -21.6867   -6.0728   22.5268 C   0  0  0  0  0  0
  -21.4018   -6.5632   23.8198 C   0  0  0  0  0  0
  -21.3669   -5.6789   24.9164 C   0  0  0  0  0  0
  -21.6053   -4.3052   24.7215 C   0  0  0  0  0  0
  -21.8823   -3.8139   23.4336 C   0  0  0  0  0  0
  -21.9199   -4.6955   22.3393 C   0  0  0  0  0  0
  -22.7727  -13.5167   21.1911 C   0  0  0  0  0  0
  -22.1669   -4.2139   21.0972 F   0  0  0  0  0  0
  -21.5641   -3.4538   25.7731 F   0  0  0  0  0  0
  -29.8022  -14.2012   20.2799 N   0  0  0  0  0  0
  -26.2770  -12.9597   20.3222 N   0  0  0  0  0  0
  -25.9348  -11.6675   20.5687 N   0  0  0  0  0  0
  -22.0412  -12.8134   22.0470 N   0  0  0  0  0  0
  -25.3938  -15.2022   20.4217 N   0  0  0  0  0  0
  -31.5662  -15.5053   20.1867 O   0  0  0  0  0  0
  -21.6665   -6.8875   21.4233 O   0  0  0  0  0  0
  -22.3394  -14.5460   20.6753 O   0  0  0  0  0  0
  -24.6802  -31.8032   23.1540 C   0  0  0  0  0  0
  -25.9394  -32.4487   23.8080 C   0  0  1  0  0  0
  -27.2275  -26.7370   20.2074 C   0  0  0  0  0  0
  -25.5987  -33.8312   24.1974 N   0  0  0  0  0  0
  -23.5052  -30.4047   21.5079 C   0  0  2  0  0  0
  -24.9627  -28.7517   20.1178 C   0  0  0  0  0  0
  -22.7756  -29.4323   22.4735 C   0  0  0  0  0  0
  -18.0337  -28.1419   22.8461 C   0  0  0  0  0  0
  -24.1495  -36.7157   23.2655 C   0  0  0  0  0  0
  -26.0843  -30.5462   21.4142 C   0  0  0  0  0  0
  -26.1513  -29.1152   20.7622 C   0  0  0  0  0  0
  -27.2704  -28.1350   20.7735 C   0  0  0  0  0  0
  -26.0064  -26.5724   19.5088 C   0  0  0  0  0  0
  -24.9272  -27.5056   19.4679 C   0  0  0  0  0  0
  -23.7569  -29.7017   20.1430 C   0  0  0  0  0  0
  -25.4147  -36.2914   24.0289 C   0  0  1  0  0  0
  -20.5973  -28.3773   23.1164 C   0  0  2  0  0  0
  -20.6805  -26.9435   22.5417 C   0  0  0  0  0  0
  -19.5778  -26.6368   21.5231 C   0  0  0  0  0  0
  -18.1958  -26.7948   22.1627 C   0  0  0  0  0  0
  -19.1603  -28.8922   23.2789 C   0  0  0  0  0  0
  -18.9505  -30.1511   23.8826 C   0  0  0  0  0  0
  -17.6493  -30.6600   24.0552 C   0  0  0  0  0  0
  -25.9120  -34.9298   23.4968 C   0  0  0  0  0  0
  -16.5385  -29.9080   23.6354 C   0  0  0  0  0  0
  -16.7316  -28.6505   23.0367 C   0  0  0  0  0  0
  -26.4584  -31.6508   25.0686 C   0  0  0  0  0  0
  -25.3649  -31.3814   26.1298 C   0  0  0  0  0  0
  -27.0523  -30.2851   24.6571 C   0  0  0  0  0  0
  -27.6039  -32.4363   25.7496 C   0  0  0  0  0  0
  -27.5570  -37.1741   24.8467 C   0  0  0  0  0  0
  -21.4409  -29.3023   22.3486 N   0  0  0  0  0  0
  -26.4281  -37.3666   23.9407 N   0  0  0  0  0  0
  -24.7795  -30.9509   22.0776 N   0  0  0  0  0  0
  -23.4215  -28.7921   23.3065 O   0  0  0  0  0  0
  -28.2040  -25.5422   20.2844 O   0  0  0  0  0  0
  -26.5757  -34.8867   22.4583 O   0  0  0  0  0  0
  -23.5827  -32.1092   23.6511 O   0  0  0  0  0  0
  -27.1968  -18.8961   18.6286 C   0  0  0  0  0  0
  -30.2587  -22.4273   19.5063 C   0  0  0  0  0  0
  -29.4337  -22.2796   21.8475 C   0  0  0  0  0  0
  -28.0865  -20.1380   18.7980 C   0  0  0  0  0  0
  -29.7863  -18.6572   20.3934 C   0  0  0  0  0  0
  -28.0206  -23.8110   20.1410 C   0  0  0  0  0  0
  -28.7558  -20.2721   20.1802 C   0  0  1  0  0  0
  -29.0162  -22.1748   20.3736 C   0  0  0  0  0  0
  -29.5709  -16.9032   20.3716 N   0  0  0  0  0  0
  -31.4239  -13.2747   19.1748 H   0  0  0  0  0  0
  -30.5669  -12.1644   20.1922 H   0  0  0  0  0  0
  -29.9808  -11.8032   17.7683 H   0  0  0  0  0  0
  -29.5241  -13.4812   17.6152 H   0  0  0  0  0  0
  -28.1111  -11.2965   19.1542 H   0  0  0  0  0  0
  -27.4417  -12.2928   17.8838 H   0  0  0  0  0  0
  -27.4697  -14.2356   19.2662 H   0  0  0  0  0  0
  -28.8632  -12.7116   21.5150 H   0  0  0  0  0  0
  -28.2003  -14.3245   21.6374 H   0  0  0  0  0  0
  -25.2793   -9.5707   22.4743 H   0  0  0  0  0  0
  -24.0032   -7.4654   22.7473 H   0  0  0  0  0  0
  -21.0862   -8.8752   19.8947 H   0  0  0  0  0  0
  -22.3699  -10.9663   19.6152 H   0  0  0  0  0  0
  -21.2007   -7.6140   23.9691 H   0  0  0  0  0  0
  -21.1496   -6.0525   25.9066 H   0  0  0  0  0  0
  -22.0597   -2.7597   23.2837 H   0  0  0  0  0  0
  -22.4071  -11.9813   22.4861 H   0  0  0  0  0  0
  -21.1012  -13.1106   22.2674 H   0  0  0  0  0  0
  -24.6212  -15.8501   20.5287 H   0  0  0  0  0  0
  -26.2319  -15.6422   20.0667 H   0  0  0  0  0  0
  -26.7471  -32.4968   23.0788 H   0  0  0  0  0  0
  -25.0056  -33.9358   25.0076 H   0  0  0  0  0  0
  -22.8280  -31.2403   21.3195 H   0  0  0  0  0  0
  -23.3785  -35.9459   23.3270 H   0  0  0  0  0  0
  -24.3564  -36.8860   22.2079 H   0  0  0  0  0  0
  -23.7224  -37.6313   23.6752 H   0  0  0  0  0  0
  -26.2875  -31.2744   20.6280 H   0  0  0  0  0  0
  -26.9353  -30.6102   22.0801 H   0  0  0  0  0  0
  -28.1671  -28.4184   21.3066 H   0  0  0  0  0  0
  -25.8463  -25.6262   19.0116 H   0  0  0  0  0  0
  -24.0282  -27.2192   18.9398 H   0  0  0  0  0  0
  -23.9286  -30.4616   19.3799 H   0  0  0  0  0  0
  -22.8628  -29.1646   19.8211 H   0  0  0  0  0  0
  -25.1356  -36.1688   25.0780 H   0  0  0  0  0  0
  -21.0050  -28.3390   24.1292 H   0  0  0  0  0  0
  -20.5691  -26.2386   23.3672 H   0  0  0  0  0  0
  -21.6662  -26.7391   22.1219 H   0  0  0  0  0  0
  -19.6934  -25.6262   21.1300 H   0  0  0  0  0  0
  -19.6723  -27.3150   20.6739 H   0  0  0  0  0  0
  -17.4235  -26.6710   21.4019 H   0  0  0  0  0  0
  -18.0328  -26.0104   22.9034 H   0  0  0  0  0  0
  -19.7978  -30.7355   24.2152 H   0  0  0  0  0  0
  -17.5038  -31.6274   24.5167 H   0  0  0  0  0  0
  -15.5379  -30.2954   23.7720 H   0  0  0  0  0  0
  -15.8719  -28.0801   22.7116 H   0  0  0  0  0  0
  -24.5859  -30.7142   25.7585 H   0  0  0  0  0  0
  -24.8809  -32.3033   26.4532 H   0  0  0  0  0  0
  -25.7820  -30.9094   27.0203 H   0  0  0  0  0  0
  -26.3248  -29.6459   24.1559 H   0  0  0  0  0  0
  -27.3959  -29.7298   25.5309 H   0  0  0  0  0  0
  -27.9218  -30.3990   24.0092 H   0  0  0  0  0  0
  -27.2590  -33.3737   26.1873 H   0  0  0  0  0  0
  -28.3946  -32.6809   25.0389 H   0  0  0  0  0  0
  -28.0598  -31.8626   26.5576 H   0  0  0  0  0  0
  -28.2558  -38.0065   24.7523 H   0  0  0  0  0  0
  -28.1098  -36.2588   24.6290 H   0  0  0  0  0  0
  -27.2282  -37.1366   25.8868 H   0  0  0  0  0  0
  -20.9710  -29.8663   21.6545 H   0  0  0  0  0  0
  -26.0114  -38.2718   24.1416 H   0  0  0  0  0  0
  -27.7738  -17.9723   18.6384 H   0  0  0  0  0  0
  -26.6711  -18.9311   17.6740 H   0  0  0  0  0  0
  -26.4445  -18.8309   19.4152 H   0  0  0  0  0  0
  -30.6974  -23.4045   19.7119 H   0  0  0  0  0  0
  -30.0063  -22.4009   18.4464 H   0  0  0  0  0  0
  -31.0293  -21.6757   19.6826 H   0  0  0  0  0  0
  -29.8425  -23.2640   22.0776 H   0  0  0  0  0  0
  -30.1934  -21.5417   22.1056 H   0  0  0  0  0  0
  -28.5791  -22.1201   22.5058 H   0  0  0  0  0  0
  -27.4714  -21.0200   18.6144 H   0  0  0  0  0  0
  -28.8538  -20.1468   18.0229 H   0  0  0  0  0  0
  -30.2696  -18.8004   21.3603 H   0  0  0  0  0  0
  -30.6033  -18.7859   19.6824 H   0  0  0  0  0  0
  -27.1329  -23.6438   20.7512 H   0  0  0  0  0  0
  -27.6431  -23.7212   19.1224 H   0  0  0  0  0  0
  -27.9545  -20.1109   20.9020 H   0  0  0  0  0  0
  -28.5848  -16.6910   20.4288 H   0  0  0  0  0  0
  1 25  1  0  0  0
  1 30  2  0  0  0
  1 79  1  0  0  0
  2  3  1  0  0  0
  2 25  1  0  0  0
  2 80  1  0  0  0
  2 81  1  0  0  0
  3  4  1  0  0  0
  3 82  1  0  0  0
  3 83  1  0  0  0
  4  5  1  0  0  0
  4 84  1  0  0  0
  4 85  1  0  0  0
  5  6  1  0  0  0
  5 26  1  0  0  0
  5 86  1  0  0  0
  6 25  1  0  0  0
  6 87  1  0  0  0
  6 88  1  0  0  0
  7  8  2  0  0  0
  7 26  1  0  0  0
  7 29  1  0  0  0
  8  9  1  0  0  0
  8 22  1  0  0  0
  9 10  1  0  0  0
  9 27  2  0  0  0
 10 11  2  0  0  0
 10 15  1  0  0  0
 11 12  1  0  0  0
 11 89  1  0  0  0
 12 13  2  0  0  0
 12 90  1  0  0  0
 13 14  1  0  0  0
 13 31  1  0  0  0
 14 15  2  0  0  0
 14 91  1  0  0  0
 15 92  1  0  0  0
 16 17  2  0  0  0
 16 21  1  0  0  0
 16 31  1  0  0  0
 17 18  1  0  0  0
 17 93  1  0  0  0
 18 19  2  0  0  0
 18 94  1  0  0  0
 19 20  1  0  0  0
 19 24  1  0  0  0
 20 21  2  0  0  0
 20 95  1  0  0  0
 21 23  1  0  0  0
 22 28  1  0  0  0
 22 32  2  0  0  0
 26 27  1  0  0  0
 28 96  1  0  0  0
 28 97  1  0  0  0
 29 98  1  0  0  0
 29 99  1  0  0  0
 33 34  1  0  0  0
 33 66  1  0  0  0
 33 70  2  0  0  0
 34 36  1  0  0  0
 34 59  1  0  0  0
 34100  1  0  0  0
 35 44  2  0  0  0
 35 45  1  0  0  0
 35 68  1  0  0  0
 36 56  1  0  0  0
 36101  1  0  0  0
 37 39  1  0  0  0
 37 47  1  0  0  0
 37 66  1  0  0  0
 37102  1  0  0  0
 38 43  2  0  0  0
 38 46  1  0  0  0
 38 47  1  0  0  0
 39 64  1  0  0  0
 39 67  2  0  0  0
 40 52  1  0  0  0
 40 53  2  0  0  0
 40 58  1  0  0  0
 41103  1  0  0  0
 41104  1  0  0  0
 41105  1  0  0  0
 41 48  1  0  0  0
 42 43  1  0  0  0
 42 66  1  0  0  0
 42106  1  0  0  0
 42107  1  0  0  0
 43 44  1  0  0  0
 44108  1  0  0  0
 45 46  2  0  0  0
 45109  1  0  0  0
 46110  1  0  0  0
 47111  1  0  0  0
 47112  1  0  0  0
 48 56  1  0  0  0
 48 65  1  0  0  0
 48113  1  0  0  0
 49 50  1  0  0  0
 49 53  1  0  0  0
 49 64  1  0  0  0
 49114  1  0  0  0
 50 51  1  0  0  0
 50115  1  0  0  0
 50116  1  0  0  0
 51 52  1  0  0  0
 51117  1  0  0  0
 51118  1  0  0  0
 52119  1  0  0  0
 52120  1  0  0  0
 53 54  1  0  0  0
 54 55  2  0  0  0
 54121  1  0  0  0
 55 57  1  0  0  0
 55122  1  0  0  0
 56 69  2  0  0  0
 57 58  2  0  0  0
 57123  1  0  0  0
 58124  1  0  0  0
 59 60  1  0  0  0
 59 61  1  0  0  0
 59 62  1  0  0  0
 60125  1  0  0  0
 60126  1  0  0  0
 60127  1  0  0  0
 61128  1  0  0  0
 61129  1  0  0  0
 61130  1  0  0  0
 62131  1  0  0  0
 62132  1  0  0  0
 62133  1  0  0  0
 63 65  1  0  0  0
 63134  1  0  0  0
 63135  1  0  0  0
 63136  1  0  0  0
 64137  1  0  0  0
 65138  1  0  0  0
 68 76  1  0  0  0
 71 74  1  0  0  0
 71139  1  0  0  0
 71140  1  0  0  0
 71141  1  0  0  0
 72142  1  0  0  0
 72143  1  0  0  0
 72144  1  0  0  0
 72 78  1  0  0  0
 73 78  1  0  0  0
 73145  1  0  0  0
 73146  1  0  0  0
 73147  1  0  0  0
 74148  1  0  0  0
 74149  1  0  0  0
 74 77  1  0  0  0
 75 77  1  0  0  0
 75 79  1  0  0  0
 75150  1  0  0  0
 75151  1  0  0  0
 76 78  1  0  0  0
 76152  1  0  0  0
 76153  1  0  0  0
 77 78  1  0  0  0
 77154  1  0  0  0
 79155  1  0  0  0
M  ISO  4   1 100  68 101  76 101  79 100
M  END
> <chiral flag>
0

> <version>
0

> <s_m_source_file>
/data/baiqing/PycharmProjects/Reinvent-master-3.2/result/LINK_invent/BTK/process_docking_weight1_custom_sum_contain_oxygen_bond_distance_aromatic_linkinvent_7_9_3/rearranged_h_0045.sdf

> <i_m_source_file_index>
19

> <r_mmod_Potential_Energy-OPLS-2005>
2302.26513671875

> <r_mmod_Stretch_Energy-OPLS-2005>
1109.26098632812

> <r_mmod_Bend_Energy-OPLS-2005>
609.850952148438

> <r_mmod_Torsional_Energy-OPLS-2005>
236.544952392578

> <r_mmod_Improper_Torsional_Energy-OPLS-2005>
3.71682071685791

> <r_mmod_Van_der_Waal_Energy-OPLS-2005>
103.221473693848

> <r_mmod_Electrostatic_Energy-OPLS-2005>
-360.572387695312

> <r_mmod_Solvation_Energy-OPLS-2005>
-203.858505249023

> <b_mmod_Minimization_Converged-OPLS-2005>
0

> <r_mmod_RMS_Derivative-OPLS-2005>
1.15757894515991

$$$$
19
                    3D
 Structure written by MMmdl.
153161  0  0  1  0            999 V2000
  -30.6340  -14.7202   20.4592 C   0  0  0  0  0  0
  -30.4375  -12.4387   19.4789 C   0  0  0  0  0  0
  -29.5152  -12.4871   18.2409 C   0  0  0  0  0  0
  -28.0387  -12.3260   18.6498 C   0  0  0  0  0  0
  -27.6470  -13.2313   19.8491 C   0  0  2  0  0  0
  -28.6894  -13.1637   20.9863 C   0  0  0  0  0  0
  -25.2543  -13.8217   20.5668 C   0  0  0  0  0  0
  -24.1831  -13.0478   20.9196 C   0  0  0  0  0  0
  -24.6413  -11.6949   20.8750 C   0  0  0  0  0  0
  -23.9080  -10.4317   21.0406 C   0  0  0  0  0  0
  -24.3633   -9.4226   21.9180 C   0  0  0  0  0  0
  -23.6309   -8.2262   22.0749 C   0  0  0  0  0  0
  -22.4286   -8.0302   21.3550 C   0  0  0  0  0  0
  -21.9927   -9.0277   20.4652 C   0  0  0  0  0  0
  -22.7259  -10.2149   20.3055 C   0  0  0  0  0  0
  -21.6859   -6.0758   22.5293 C   0  0  0  0  0  0
  -21.4019   -6.5646   23.8232 C   0  0  0  0  0  0
  -21.3656   -5.6790   24.9188 C   0  0  0  0  0  0
  -21.6051   -4.3054   24.7231 C   0  0  0  0  0  0
  -21.8814   -3.8154   23.4345 C   0  0  0  0  0  0
  -21.9185   -4.6984   22.3409 C   0  0  0  0  0  0
  -22.7841  -13.5248   21.1846 C   0  0  0  0  0  0
  -22.1652   -4.2180   21.0982 F   0  0  0  0  0  0
  -21.5618   -3.4524   25.7725 F   0  0  0  0  0  0
  -29.9962  -13.5033   20.4081 N   0  0  0  0  0  0
  -26.2972  -12.9418   20.3273 N   0  0  0  0  0  0
  -25.9343  -11.6561   20.5769 N   0  0  0  0  0  0
  -22.0475  -12.8269   22.0416 N   0  0  0  0  0  0
  -25.4227  -15.1938   20.4042 N   0  0  0  0  0  0
  -31.8189  -14.8120   20.1269 O   0  0  0  0  0  0
  -21.6645   -6.8910   21.4256 O   0  0  0  0  0  0
  -22.3522  -14.5558   20.6687 O   0  0  0  0  0  0
  -24.6320  -31.8530   23.1973 C   0  0  0  0  0  0
  -25.9137  -32.4735   23.8330 C   0  0  1  0  0  0
  -27.2249  -27.2543   20.1181 C   0  0  0  0  0  0
  -25.5944  -33.8544   24.2264 N   0  0  0  0  0  0
  -23.4284  -30.4798   21.5375 C   0  0  2  0  0  0
  -24.8757  -28.9248   20.1052 C   0  0  0  0  0  0
  -22.7494  -29.4629   22.4868 C   0  0  0  0  0  0
  -18.0312  -28.1367   22.8475 C   0  0  0  0  0  0
  -24.1490  -36.7285   23.2639 C   0  0  0  0  0  0
  -25.9730  -30.7663   21.3738 C   0  0  0  0  0  0
  -26.0457  -29.3862   20.7182 C   0  0  0  0  0  0
  -27.2167  -28.5598   20.7214 C   0  0  0  0  0  0
  -26.0221  -26.8576   19.4898 C   0  0  0  0  0  0
  -24.8705  -27.6688   19.4816 C   0  0  0  0  0  0
  -23.6477  -29.8143   20.1522 C   0  0  0  0  0  0
  -25.4113  -36.3057   24.0329 C   0  0  1  0  0  0
  -20.5911  -28.3726   23.1235 C   0  0  2  0  0  0
  -20.6811  -26.9439   22.5378 C   0  0  0  0  0  0
  -19.5787  -26.6412   21.5177 C   0  0  0  0  0  0
  -18.1962  -26.7927   22.1590 C   0  0  0  0  0  0
  -19.1556  -28.8858   23.2861 C   0  0  0  0  0  0
  -18.9469  -30.1450   23.8886 C   0  0  0  0  0  0
  -17.6469  -30.6568   24.0547 C   0  0  0  0  0  0
  -25.9061  -34.9426   23.5094 C   0  0  0  0  0  0
  -16.5364  -29.9058   23.6301 C   0  0  0  0  0  0
  -16.7301  -28.6469   23.0347 C   0  0  0  0  0  0
  -26.4521  -31.6551   25.0709 C   0  0  0  0  0  0
  -25.3757  -31.3685   26.1433 C   0  0  0  0  0  0
  -27.0358  -30.2974   24.6158 C   0  0  0  0  0  0
  -27.6081  -32.4268   25.7490 C   0  0  0  0  0  0
  -27.5567  -37.1799   24.8469 C   0  0  0  0  0  0
  -21.4195  -29.3090   22.3623 N   0  0  0  0  0  0
  -26.4282  -37.3758   23.9407 N   0  0  0  0  0  0
  -24.6974  -31.0518   22.0930 N   0  0  0  0  0  0
  -23.4187  -28.8143   23.2953 O   0  0  0  0  0  0
  -28.3357  -26.3759   20.2123 O   0  0  0  0  0  0
  -26.5627  -34.8899   22.4657 O   0  0  0  0  0  0
  -23.5460  -32.1339   23.7267 O   0  0  0  0  0  0
  -28.4690  -23.1691   21.4589 C   0  0  0  0  0  0
  -29.1972  -22.4978   19.5489 C   0  0  0  0  0  0
  -28.7059  -23.6651   20.1378 C   0  0  0  0  0  0
  -28.9707  -18.5389   22.1763 C   0  0  0  0  0  0
  -28.4587  -25.0861   19.4521 C   0  0  0  0  0  0
  -29.9466  -20.0405   20.2626 C   0  0  0  0  0  0
  -30.3124  -17.3048   20.3513 C   0  0  0  0  0  0
  -29.3627  -18.5813   20.6935 C   0  0  1  0  0  0
  -28.8087  -21.8732   21.6375 N   0  0  0  0  0  0
  -29.2548  -21.4018   20.4413 N   0  0  0  0  0  0
  -29.8831  -15.8648   20.6501 N   0  0  0  0  0  0
  -28.2413  -18.3916   19.9948 F   0  0  0  0  0  0
  -31.4778  -12.5593   19.1716 H   0  0  0  0  0  0
  -30.3827  -11.4647   19.9683 H   0  0  0  0  0  0
  -29.7941  -11.7017   17.5370 H   0  0  0  0  0  0
  -29.6523  -13.4322   17.7140 H   0  0  0  0  0  0
  -27.8855  -11.2768   18.9083 H   0  0  0  0  0  0
  -27.3867  -12.5242   17.7984 H   0  0  0  0  0  0
  -27.6465  -14.2544   19.4699 H   0  0  0  0  0  0
  -28.7177  -12.1677   21.4294 H   0  0  0  0  0  0
  -28.4245  -13.8508   21.7921 H   0  0  0  0  0  0
  -25.2770   -9.5703   22.4770 H   0  0  0  0  0  0
  -24.0019   -7.4646   22.7455 H   0  0  0  0  0  0
  -21.0869   -8.8822   19.8943 H   0  0  0  0  0  0
  -22.3742  -10.9703   19.6171 H   0  0  0  0  0  0
  -21.2030   -7.6154   23.9759 H   0  0  0  0  0  0
  -21.1465   -6.0505   25.9099 H   0  0  0  0  0  0
  -22.0590   -2.7619   23.2836 H   0  0  0  0  0  0
  -22.4045  -11.9937   22.4860 H   0  0  0  0  0  0
  -21.1093  -13.1316   22.2587 H   0  0  0  0  0  0
  -24.6475  -15.8397   20.5005 H   0  0  0  0  0  0
  -26.2732  -15.6431   20.0889 H   0  0  0  0  0  0
  -26.7193  -32.5383   23.1059 H   0  0  0  0  0  0
  -25.0098  -33.9681   25.0416 H   0  0  0  0  0  0
  -22.7248  -31.3024   21.3909 H   0  0  0  0  0  0
  -23.3735  -35.9634   23.3302 H   0  0  0  0  0  0
  -24.3582  -36.8905   22.2054 H   0  0  0  0  0  0
  -23.7263  -37.6497   23.6663 H   0  0  0  0  0  0
  -26.1004  -31.5261   20.6008 H   0  0  0  0  0  0
  -26.8541  -30.8229   22.0014 H   0  0  0  0  0  0
  -28.1085  -28.9096   21.2228 H   0  0  0  0  0  0
  -25.9091  -25.8899   19.0307 H   0  0  0  0  0  0
  -23.9728  -27.3043   19.0014 H   0  0  0  0  0  0
  -23.7716  -30.5922   19.3965 H   0  0  0  0  0  0
  -22.7662  -29.2489   19.8470 H   0  0  0  0  0  0
  -25.1287  -36.1903   25.0819 H   0  0  0  0  0  0
  -21.0013  -28.3323   24.1349 H   0  0  0  0  0  0
  -20.5688  -26.2338   23.3594 H   0  0  0  0  0  0
  -21.6681  -26.7458   22.1177 H   0  0  0  0  0  0
  -19.6958  -25.6323   21.1194 H   0  0  0  0  0  0
  -19.6708  -27.3228   20.6712 H   0  0  0  0  0  0
  -17.4239  -26.6692   21.3981 H   0  0  0  0  0  0
  -18.0353  -26.0048   22.8954 H   0  0  0  0  0  0
  -19.7948  -30.7276   24.2240 H   0  0  0  0  0  0
  -17.5014  -31.6254   24.5141 H   0  0  0  0  0  0
  -15.5361  -30.2947   23.7610 H   0  0  0  0  0  0
  -15.8707  -28.0773   22.7061 H   0  0  0  0  0  0
  -24.5965  -30.6989   25.7779 H   0  0  0  0  0  0
  -24.8919  -32.2848   26.4834 H   0  0  0  0  0  0
  -25.8106  -30.8906   27.0226 H   0  0  0  0  0  0
  -26.2928  -29.6704   24.1219 H   0  0  0  0  0  0
  -27.4101  -29.7240   25.4653 H   0  0  0  0  0  0
  -27.8780  -30.4253   23.9348 H   0  0  0  0  0  0
  -27.2713  -33.3573   26.2067 H   0  0  0  0  0  0
  -28.3923  -32.6802   25.0343 H   0  0  0  0  0  0
  -28.0715  -31.8377   26.5414 H   0  0  0  0  0  0
  -28.2591  -38.0087   24.7481 H   0  0  0  0  0  0
  -28.1055  -36.2614   24.6333 H   0  0  0  0  0  0
  -27.2284  -37.1489   25.8874 H   0  0  0  0  0  0
  -20.9358  -29.8859   21.6881 H   0  0  0  0  0  0
  -26.0154  -38.2828   24.1406 H   0  0  0  0  0  0
  -28.0733  -23.7161   22.3034 H   0  0  0  0  0  0
  -29.5489  -22.3608   18.5355 H   0  0  0  0  0  0
  -28.2216  -19.2914   22.4162 H   0  0  0  0  0  0
  -29.8375  -18.7180   22.8126 H   0  0  0  0  0  0
  -28.5496  -17.5702   22.4452 H   0  0  0  0  0  0
  -29.3273  -25.2761   18.8219 H   0  0  0  0  0  0
  -27.6781  -24.9807   18.7044 H   0  0  0  0  0  0
  -30.1961  -19.9745   19.2049 H   0  0  0  0  0  0
  -30.9105  -20.1414   20.7616 H   0  0  0  0  0  0
  -30.5303  -17.3407   19.2835 H   0  0  0  0  0  0
  -31.2779  -17.4597   20.8352 H   0  0  0  0  0  0
  -28.9094  -15.7249   20.8706 H   0  0  0  0  0  0
  1 25  1  0  0  0
  1 30  2  0  0  0
  1 81  1  0  0  0
  2  3  1  0  0  0
  2 25  1  0  0  0
  2 83  1  0  0  0
  2 84  1  0  0  0
  3  4  1  0  0  0
  3 85  1  0  0  0
  3 86  1  0  0  0
  4  5  1  0  0  0
  4 87  1  0  0  0
  4 88  1  0  0  0
  5  6  1  0  0  0
  5 26  1  0  0  0
  5 89  1  0  0  0
  6 25  1  0  0  0
  6 90  1  0  0  0
  6 91  1  0  0  0
  7  8  2  0  0  0
  7 26  1  0  0  0
  7 29  1  0  0  0
  8  9  1  0  0  0
  8 22  1  0  0  0
  9 10  1  0  0  0
  9 27  2  0  0  0
 10 11  2  0  0  0
 10 15  1  0  0  0
 11 12  1  0  0  0
 11 92  1  0  0  0
 12 13  2  0  0  0
 12 93  1  0  0  0
 13 14  1  0  0  0
 13 31  1  0  0  0
 14 15  2  0  0  0
 14 94  1  0  0  0
 15 95  1  0  0  0
 16 17  2  0  0  0
 16 21  1  0  0  0
 16 31  1  0  0  0
 17 18  1  0  0  0
 17 96  1  0  0  0
 18 19  2  0  0  0
 18 97  1  0  0  0
 19 20  1  0  0  0
 19 24  1  0  0  0
 20 21  2  0  0  0
 20 98  1  0  0  0
 21 23  1  0  0  0
 22 28  1  0  0  0
 22 32  2  0  0  0
 26 27  1  0  0  0
 28 99  1  0  0  0
 28100  1  0  0  0
 29101  1  0  0  0
 29102  1  0  0  0
 33 34  1  0  0  0
 33 66  1  0  0  0
 33 70  2  0  0  0
 34 36  1  0  0  0
 34 59  1  0  0  0
 34103  1  0  0  0
 35 44  2  0  0  0
 35 45  1  0  0  0
 35 68  1  0  0  0
 36 56  1  0  0  0
 36104  1  0  0  0
 37 39  1  0  0  0
 37 47  1  0  0  0
 37 66  1  0  0  0
 37105  1  0  0  0
 38 43  2  0  0  0
 38 46  1  0  0  0
 38 47  1  0  0  0
 39 64  1  0  0  0
 39 67  2  0  0  0
 40 52  1  0  0  0
 40 53  2  0  0  0
 40 58  1  0  0  0
 41106  1  0  0  0
 41107  1  0  0  0
 41108  1  0  0  0
 41 48  1  0  0  0
 42 43  1  0  0  0
 42 66  1  0  0  0
 42109  1  0  0  0
 42110  1  0  0  0
 43 44  1  0  0  0
 44111  1  0  0  0
 45 46  2  0  0  0
 45112  1  0  0  0
 46113  1  0  0  0
 47114  1  0  0  0
 47115  1  0  0  0
 48 56  1  0  0  0
 48 65  1  0  0  0
 48116  1  0  0  0
 49 50  1  0  0  0
 49 53  1  0  0  0
 49 64  1  0  0  0
 49117  1  0  0  0
 50 51  1  0  0  0
 50118  1  0  0  0
 50119  1  0  0  0
 51 52  1  0  0  0
 51120  1  0  0  0
 51121  1  0  0  0
 52122  1  0  0  0
 52123  1  0  0  0
 53 54  1  0  0  0
 54 55  2  0  0  0
 54124  1  0  0  0
 55 57  1  0  0  0
 55125  1  0  0  0
 56 69  2  0  0  0
 57 58  2  0  0  0
 57126  1  0  0  0
 58127  1  0  0  0
 59 60  1  0  0  0
 59 61  1  0  0  0
 59 62  1  0  0  0
 60128  1  0  0  0
 60129  1  0  0  0
 60130  1  0  0  0
 61131  1  0  0  0
 61132  1  0  0  0
 61133  1  0  0  0
 62134  1  0  0  0
 62135  1  0  0  0
 62136  1  0  0  0
 63 65  1  0  0  0
 63137  1  0  0  0
 63138  1  0  0  0
 63139  1  0  0  0
 64140  1  0  0  0
 65141  1  0  0  0
 68 75  1  0  0  0
 71 73  1  0  0  0
 71 79  2  0  0  0
 71142  1  0  0  0
 72 73  2  0  0  0
 72 80  1  0  0  0
 72143  1  0  0  0
 73 75  1  0  0  0
 74144  1  0  0  0
 74145  1  0  0  0
 74146  1  0  0  0
 74 78  1  0  0  0
 75147  1  0  0  0
 75148  1  0  0  0
 76 78  1  0  0  0
 76 80  1  0  0  0
 76149  1  0  0  0
 76150  1  0  0  0
 77 78  1  0  0  0
 77 81  1  0  0  0
 77151  1  0  0  0
 77152  1  0  0  0
 78 82  1  0  0  0
 79 80  1  0  0  0
 81153  1  0  0  0
M  ISO  4   1 100  68 101  75 101  81 100
M  END
> <chiral flag>
0

> <version>
0

> <s_m_source_file>
/data/baiqing/PycharmProjects/Reinvent-master-3.2/result/LINK_invent/BTK/process_docking_weight1_custom_sum_contain_oxygen_bond_distance_aromatic_linkinvent_7_9_3/rearranged_h_0045.sdf

> <i_m_source_file_index>
20

> <r_mmod_Potential_Energy-OPLS-2005>
108.946914672852

> <r_mmod_Stretch_Energy-OPLS-2005>
121.177909851074

> <r_mmod_Bend_Energy-OPLS-2005>
189.447830200195

> <r_mmod_Torsional_Energy-OPLS-2005>
229.535354614258

> <r_mmod_Improper_Torsional_Energy-OPLS-2005>
7.19673681259155

> <r_mmod_Van_der_Waal_Energy-OPLS-2005>
115.196586608887

> <r_mmod_Electrostatic_Energy-OPLS-2005>
-414.147796630859

> <r_mmod_Solvation_Energy-OPLS-2005>
-221.101928710938

> <b_mmod_Minimization_Converged-OPLS-2005>
0

> <r_mmod_RMS_Derivative-OPLS-2005>
2.9216582775116

$$$$
20
                    3D
 Structure written by MMmdl.
163171  0  0  1  0            999 V2000
  -30.7536  -14.3661   20.6902 C   0  0  0  0  0  0
  -30.4207  -12.2998   19.3843 C   0  0  0  0  0  0
  -29.4820  -12.5242   18.1843 C   0  0  0  0  0  0
  -28.0062  -12.3886   18.6037 C   0  0  0  0  0  0
  -27.6660  -13.1995   19.8818 C   0  0  2  0  0  0
  -28.7037  -12.9281   20.9903 C   0  0  0  0  0  0
  -25.2626  -13.8152   20.5658 C   0  0  0  0  0  0
  -24.1865  -13.0446   20.9153 C   0  0  0  0  0  0
  -24.6396  -11.6908   20.8708 C   0  0  0  0  0  0
  -23.9042  -10.4298   21.0368 C   0  0  0  0  0  0
  -24.3602   -9.4227   21.9150 C   0  0  0  0  0  0
  -23.6292   -8.2257   22.0735 C   0  0  0  0  0  0
  -22.4272   -8.0270   21.3529 C   0  0  0  0  0  0
  -21.9898   -9.0237   20.4631 C   0  0  0  0  0  0
  -22.7208  -10.2127   20.3029 C   0  0  0  0  0  0
  -21.6853   -6.0720   22.5263 C   0  0  0  0  0  0
  -21.4029   -6.5634   23.8196 C   0  0  0  0  0  0
  -21.3665   -5.6786   24.9159 C   0  0  0  0  0  0
  -21.6039   -4.3046   24.7220 C   0  0  0  0  0  0
  -21.8830   -3.8135   23.4349 C   0  0  0  0  0  0
  -21.9212   -4.6947   22.3398 C   0  0  0  0  0  0
  -22.7900  -13.5252   21.1836 C   0  0  0  0  0  0
  -22.1659   -4.2133   21.0975 F   0  0  0  0  0  0
  -21.5623   -3.4534   25.7733 F   0  0  0  0  0  0
  -30.0417  -13.2361   20.4520 N   0  0  0  0  0  0
  -26.3045  -12.9301   20.3378 N   0  0  0  0  0  0
  -25.9318  -11.6468   20.5758 N   0  0  0  0  0  0
  -22.0529  -12.8253   22.0393 N   0  0  0  0  0  0
  -25.4405  -15.1864   20.4020 N   0  0  0  0  0  0
  -31.8056  -14.6438   20.1071 O   0  0  0  0  0  0
  -21.6651   -6.8860   21.4222 O   0  0  0  0  0  0
  -22.3587  -14.5539   20.6657 O   0  0  0  0  0  0
  -24.6147  -31.8696   23.2145 C   0  0  0  0  0  0
  -25.9066  -32.4827   23.8407 C   0  0  1  0  0  0
  -27.2187  -27.4542   20.0757 C   0  0  0  0  0  0
  -25.5929  -33.8629   24.2344 N   0  0  0  0  0  0
  -23.3958  -30.5037   21.5543 C   0  0  2  0  0  0
  -24.8378  -28.9882   20.1074 C   0  0  0  0  0  0
  -22.7382  -29.4686   22.4955 C   0  0  0  0  0  0
  -18.0278  -28.1358   22.8488 C   0  0  0  0  0  0
  -24.1485  -36.7346   23.2624 C   0  0  0  0  0  0
  -25.9287  -30.8457   21.3634 C   0  0  0  0  0  0
  -26.0013  -29.4842   20.7040 C   0  0  0  0  0  0
  -27.1949  -28.7260   20.6896 C   0  0  0  0  0  0
  -26.0290  -26.9876   19.4554 C   0  0  0  0  0  0
  -24.8453  -27.7356   19.4803 C   0  0  0  0  0  0
  -23.5994  -29.8503   20.1638 C   0  0  0  0  0  0
  -25.4089  -36.3117   24.0335 C   0  0  1  0  0  0
  -20.5875  -28.3643   23.1305 C   0  0  2  0  0  0
  -20.6765  -26.9369   22.5412 C   0  0  0  0  0  0
  -19.5740  -26.6363   21.5216 C   0  0  0  0  0  0
  -18.1925  -26.7905   22.1629 C   0  0  0  0  0  0
  -19.1532  -28.8810   23.2888 C   0  0  0  0  0  0
  -18.9461  -30.1428   23.8879 C   0  0  0  0  0  0
  -17.6464  -30.6556   24.0580 C   0  0  0  0  0  0
  -25.9019  -34.9476   23.5113 C   0  0  0  0  0  0
  -16.5353  -29.9063   23.6333 C   0  0  0  0  0  0
  -16.7268  -28.6489   23.0328 C   0  0  0  0  0  0
  -26.4478  -31.6589   25.0730 C   0  0  0  0  0  0
  -25.3769  -31.3736   26.1510 C   0  0  0  0  0  0
  -27.0274  -30.3009   24.6110 C   0  0  0  0  0  0
  -27.6034  -32.4299   25.7510 C   0  0  0  0  0  0
  -27.5575  -37.1808   24.8436 C   0  0  0  0  0  0
  -21.4106  -29.3033   22.3712 N   0  0  0  0  0  0
  -26.4265  -37.3806   23.9421 N   0  0  0  0  0  0
  -24.6642  -31.0869   22.1007 N   0  0  0  0  0  0
  -23.4186  -28.8186   23.2936 O   0  0  0  0  0  0
  -28.3688  -26.6836   20.1217 O   0  0  0  0  0  0
  -26.5556  -34.8923   22.4662 O   0  0  0  0  0  0
  -23.5358  -32.1387   23.7604 O   0  0  0  0  0  0
  -28.9974  -20.5545   21.0337 C   0  0  0  0  0  0
  -29.5372  -19.4902   20.3716 C   0  0  0  0  0  0
  -30.0530  -19.9946   19.1374 C   0  0  0  0  0  0
  -29.7674  -21.3359   19.0783 C   0  0  0  0  0  0
  -30.7325  -19.1849   18.0586 C   0  0  0  0  0  0
  -30.0252  -22.3156   17.9701 C   0  0  0  0  0  0
  -29.5248  -18.0612   20.8671 C   0  0  0  0  0  0
  -30.9079  -17.5827   21.3432 C   0  0  0  0  0  0
  -29.1610  -24.2684   20.4712 C   0  0  0  0  0  0
  -28.4076  -22.9188   20.5822 C   0  0  0  0  0  0
  -30.8960  -16.3245   22.2369 C   0  0  0  0  0  0
  -28.0982  -25.2818   20.0364 C   0  0  0  0  0  0
  -29.1008  -21.6817   20.2495 N   0  0  0  0  0  0
  -30.2432  -15.1611   21.6392 N   0  0  0  0  0  0
  -31.4597  -12.4208   19.0724 H   0  0  0  0  0  0
  -30.3386  -11.2739   19.7452 H   0  0  0  0  0  0
  -29.7092  -11.8148   17.3867 H   0  0  0  0  0  0
  -29.6537  -13.5170   17.7661 H   0  0  0  0  0  0
  -27.8040  -11.3292   18.7690 H   0  0  0  0  0  0
  -27.3542  -12.6980   17.7862 H   0  0  0  0  0  0
  -27.7309  -14.2587   19.6304 H   0  0  0  0  0  0
  -28.6786  -11.8790   21.2864 H   0  0  0  0  0  0
  -28.4467  -13.4788   21.8959 H   0  0  0  0  0  0
  -25.2734   -9.5738   22.4741 H   0  0  0  0  0  0
  -24.0005   -7.4670   22.7466 H   0  0  0  0  0  0
  -21.0815   -8.8747   19.8953 H   0  0  0  0  0  0
  -22.3617  -10.9669   19.6163 H   0  0  0  0  0  0
  -21.2007   -7.6143   23.9693 H   0  0  0  0  0  0
  -21.1471   -6.0512   25.9057 H   0  0  0  0  0  0
  -22.0607   -2.7599   23.2848 H   0  0  0  0  0  0
  -22.4123  -11.9914   22.4796 H   0  0  0  0  0  0
  -21.1127  -13.1263   22.2541 H   0  0  0  0  0  0
  -24.6840  -15.8527   20.5092 H   0  0  0  0  0  0
  -26.2981  -15.6124   20.0741 H   0  0  0  0  0  0
  -26.7153  -32.5524   23.1185 H   0  0  0  0  0  0
  -25.0123  -33.9790   25.0523 H   0  0  0  0  0  0
  -22.6801  -31.3173   21.4258 H   0  0  0  0  0  0
  -23.3726  -35.9703   23.3264 H   0  0  0  0  0  0
  -24.3560  -36.8963   22.2033 H   0  0  0  0  0  0
  -23.7249  -37.6553   23.6640 H   0  0  0  0  0  0
  -26.0400  -31.6154   20.5989 H   0  0  0  0  0  0
  -26.8197  -30.8913   21.9765 H   0  0  0  0  0  0
  -28.0905  -29.1032   21.1622 H   0  0  0  0  0  0
  -25.9705  -26.0383   18.9464 H   0  0  0  0  0  0
  -23.9559  -27.3450   19.0077 H   0  0  0  0  0  0
  -23.7004  -30.6345   19.4126 H   0  0  0  0  0  0
  -22.7254  -29.2703   19.8636 H   0  0  0  0  0  0
  -25.1269  -36.1963   25.0831 H   0  0  0  0  0  0
  -21.0009  -28.3217   24.1404 H   0  0  0  0  0  0
  -20.5688  -26.2238   23.3588 H   0  0  0  0  0  0
  -21.6625  -26.7392   22.1182 H   0  0  0  0  0  0
  -19.6898  -25.6281   21.1196 H   0  0  0  0  0  0
  -19.6692  -27.3223   20.6787 H   0  0  0  0  0  0
  -17.4189  -26.6662   21.4032 H   0  0  0  0  0  0
  -18.0298  -26.0045   22.9021 H   0  0  0  0  0  0
  -19.7948  -30.7262   24.2201 H   0  0  0  0  0  0
  -17.5024  -31.6238   24.5182 H   0  0  0  0  0  0
  -15.5353  -30.2974   23.7642 H   0  0  0  0  0  0
  -15.8671  -28.0834   22.7006 H   0  0  0  0  0  0
  -24.5976  -30.7010   25.7915 H   0  0  0  0  0  0
  -24.8963  -32.2926   26.4884 H   0  0  0  0  0  0
  -25.8176  -30.9002   27.0299 H   0  0  0  0  0  0
  -26.2809  -29.6804   24.1148 H   0  0  0  0  0  0
  -27.3979  -29.7214   25.4573 H   0  0  0  0  0  0
  -27.8685  -30.4257   23.9286 H   0  0  0  0  0  0
  -27.2624  -33.3613   26.2040 H   0  0  0  0  0  0
  -28.3891  -32.6815   25.0380 H   0  0  0  0  0  0
  -28.0640  -31.8438   26.5465 H   0  0  0  0  0  0
  -28.2551  -38.0148   24.7520 H   0  0  0  0  0  0
  -28.1103  -36.2672   24.6195 H   0  0  0  0  0  0
  -27.2289  -37.1365   25.8833 H   0  0  0  0  0  0
  -20.9200  -29.8838   21.7053 H   0  0  0  0  0  0
  -26.0152  -38.2867   24.1500 H   0  0  0  0  0  0
  -28.4772  -20.5989   21.9835 H   0  0  0  0  0  0
  -31.2938  -18.3521   18.4753 H   0  0  0  0  0  0
  -31.4337  -19.7914   17.4871 H   0  0  0  0  0  0
  -29.9881  -18.7767   17.3748 H   0  0  0  0  0  0
  -30.9017  -22.9262   18.1898 H   0  0  0  0  0  0
  -29.1744  -22.9773   17.8036 H   0  0  0  0  0  0
  -30.2193  -21.8078   17.0265 H   0  0  0  0  0  0
  -29.1442  -17.4144   20.0762 H   0  0  0  0  0  0
  -28.8046  -17.9877   21.6838 H   0  0  0  0  0  0
  -31.3703  -18.3815   21.9210 H   0  0  0  0  0  0
  -31.5609  -17.4189   20.4852 H   0  0  0  0  0  0
  -29.9833  -24.2566   19.7607 H   0  0  0  0  0  0
  -29.5877  -24.5346   21.4395 H   0  0  0  0  0  0
  -27.5225  -22.9239   19.9412 H   0  0  0  0  0  0
  -28.0116  -22.8426   21.5955 H   0  0  0  0  0  0
  -30.3890  -16.5495   23.1751 H   0  0  0  0  0  0
  -31.9197  -16.0558   22.5043 H   0  0  0  0  0  0
  -27.2225  -25.0794   20.6614 H   0  0  0  0  0  0
  -27.8394  -25.0392   19.0049 H   0  0  0  0  0  0
  -29.3774  -14.8534   22.0581 H   0  0  0  0  0  0
  1 25  1  0  0  0
  1 30  2  0  0  0
  1 84  1  0  0  0
  2  3  1  0  0  0
  2 25  1  0  0  0
  2 85  1  0  0  0
  2 86  1  0  0  0
  3  4  1  0  0  0
  3 87  1  0  0  0
  3 88  1  0  0  0
  4  5  1  0  0  0
  4 89  1  0  0  0
  4 90  1  0  0  0
  5  6  1  0  0  0
  5 26  1  0  0  0
  5 91  1  0  0  0
  6 25  1  0  0  0
  6 92  1  0  0  0
  6 93  1  0  0  0
  7  8  2  0  0  0
  7 26  1  0  0  0
  7 29  1  0  0  0
  8  9  1  0  0  0
  8 22  1  0  0  0
  9 10  1  0  0  0
  9 27  2  0  0  0
 10 11  2  0  0  0
 10 15  1  0  0  0
 11 12  1  0  0  0
 11 94  1  0  0  0
 12 13  2  0  0  0
 12 95  1  0  0  0
 13 14  1  0  0  0
 13 31  1  0  0  0
 14 15  2  0  0  0
 14 96  1  0  0  0
 15 97  1  0  0  0
 16 17  2  0  0  0
 16 21  1  0  0  0
 16 31  1  0  0  0
 17 18  1  0  0  0
 17 98  1  0  0  0
 18 19  2  0  0  0
 18 99  1  0  0  0
 19 20  1  0  0  0
 19 24  1  0  0  0
 20 21  2  0  0  0
 20100  1  0  0  0
 21 23  1  0  0  0
 22 28  1  0  0  0
 22 32  2  0  0  0
 26 27  1  0  0  0
 28101  1  0  0  0
 28102  1  0  0  0
 29103  1  0  0  0
 29104  1  0  0  0
 33 34  1  0  0  0
 33 66  1  0  0  0
 33 70  2  0  0  0
 34 36  1  0  0  0
 34 59  1  0  0  0
 34105  1  0  0  0
 35 44  2  0  0  0
 35 45  1  0  0  0
 35 68  1  0  0  0
 36 56  1  0  0  0
 36106  1  0  0  0
 37 39  1  0  0  0
 37 47  1  0  0  0
 37 66  1  0  0  0
 37107  1  0  0  0
 38 43  2  0  0  0
 38 46  1  0  0  0
 38 47  1  0  0  0
 39 64  1  0  0  0
 39 67  2  0  0  0
 40 52  1  0  0  0
 40 53  2  0  0  0
 40 58  1  0  0  0
 41108  1  0  0  0
 41109  1  0  0  0
 41110  1  0  0  0
 41 48  1  0  0  0
 42 43  1  0  0  0
 42 66  1  0  0  0
 42111  1  0  0  0
 42112  1  0  0  0
 43 44  1  0  0  0
 44113  1  0  0  0
 45 46  2  0  0  0
 45114  1  0  0  0
 46115  1  0  0  0
 47116  1  0  0  0
 47117  1  0  0  0
 48 56  1  0  0  0
 48 65  1  0  0  0
 48118  1  0  0  0
 49 50  1  0  0  0
 49 53  1  0  0  0
 49 64  1  0  0  0
 49119  1  0  0  0
 50 51  1  0  0  0
 50120  1  0  0  0
 50121  1  0  0  0
 51 52  1  0  0  0
 51122  1  0  0  0
 51123  1  0  0  0
 52124  1  0  0  0
 52125  1  0  0  0
 53 54  1  0  0  0
 54 55  2  0  0  0
 54126  1  0  0  0
 55 57  1  0  0  0
 55127  1  0  0  0
 56 69  2  0  0  0
 57 58  2  0  0  0
 57128  1  0  0  0
 58129  1  0  0  0
 59 60  1  0  0  0
 59 61  1  0  0  0
 59 62  1  0  0  0
 60130  1  0  0  0
 60131  1  0  0  0
 60132  1  0  0  0
 61133  1  0  0  0
 61134  1  0  0  0
 61135  1  0  0  0
 62136  1  0  0  0
 62137  1  0  0  0
 62138  1  0  0  0
 63 65  1  0  0  0
 63139  1  0  0  0
 63140  1  0  0  0
 63141  1  0  0  0
 64142  1  0  0  0
 65143  1  0  0  0
 68 82  1  0  0  0
 71 72  2  0  0  0
 71 83  1  0  0  0
 71144  1  0  0  0
 72 73  1  0  0  0
 72 77  1  0  0  0
 73 74  2  0  0  0
 73 75  1  0  0  0
 74 76  1  0  0  0
 74 83  1  0  0  0
 75145  1  0  0  0
 75146  1  0  0  0
 75147  1  0  0  0
 76148  1  0  0  0
 76149  1  0  0  0
 76150  1  0  0  0
 77 78  1  0  0  0
 77151  1  0  0  0
 77152  1  0  0  0
 78 81  1  0  0  0
 78153  1  0  0  0
 78154  1  0  0  0
 79 80  1  0  0  0
 79 82  1  0  0  0
 79155  1  0  0  0
 79156  1  0  0  0
 80 83  1  0  0  0
 80157  1  0  0  0
 80158  1  0  0  0
 81 84  1  0  0  0
 81159  1  0  0  0
 81160  1  0  0  0
 82161  1  0  0  0
 82162  1  0  0  0
 84163  1  0  0  0
M  ISO  4   1 100  68 101  82 101  84 100
M  END
> <chiral flag>
0

> <version>
0

> <s_m_source_file>
/data/baiqing/PycharmProjects/Reinvent-master-3.2/result/LINK_invent/BTK/process_docking_weight1_custom_sum_contain_oxygen_bond_distance_aromatic_linkinvent_7_9_3/rearranged_h_0045.sdf

> <i_m_source_file_index>
21

> <r_mmod_Potential_Energy-OPLS-2005>
-106.429824829102

> <r_mmod_Stretch_Energy-OPLS-2005>
32.1493148803711

> <r_mmod_Bend_Energy-OPLS-2005>
115.243095397949

> <r_mmod_Torsional_Energy-OPLS-2005>
217.877304077148

> <r_mmod_Improper_Torsional_Energy-OPLS-2005>
3.30361747741699

> <r_mmod_Van_der_Waal_Energy-OPLS-2005>
146.255249023438

> <r_mmod_Electrostatic_Energy-OPLS-2005>
-418.208282470703

> <r_mmod_Solvation_Energy-OPLS-2005>
-213.58219909668

> <b_mmod_Minimization_Converged-OPLS-2005>
0

> <r_mmod_RMS_Derivative-OPLS-2005>
3.6929247379303

$$$$
21
                    3D
 Structure written by MMmdl.
162170  0  0  1  0            999 V2000
  -30.7234  -14.4236   20.6120 C   0  0  0  0  0  0
  -30.4156  -12.2857   19.4220 C   0  0  0  0  0  0
  -29.4923  -12.5001   18.2070 C   0  0  0  0  0  0
  -28.0133  -12.3571   18.6161 C   0  0  0  0  0  0
  -27.6613  -13.1992   19.8710 C   0  0  2  0  0  0
  -28.6949  -12.9743   20.9965 C   0  0  0  0  0  0
  -25.2590  -13.8159   20.5641 C   0  0  0  0  0  0
  -24.1826  -13.0447   20.9132 C   0  0  0  0  0  0
  -24.6378  -11.6909   20.8737 C   0  0  0  0  0  0
  -23.9052  -10.4304   21.0412 C   0  0  0  0  0  0
  -24.3607   -9.4221   21.9198 C   0  0  0  0  0  0
  -23.6284   -8.2253   22.0769 C   0  0  0  0  0  0
  -22.4267   -8.0287   21.3549 C   0  0  0  0  0  0
  -21.9897   -9.0264   20.4650 C   0  0  0  0  0  0
  -22.7221  -10.2149   20.3059 C   0  0  0  0  0  0
  -21.6862   -6.0738   22.5281 C   0  0  0  0  0  0
  -21.4025   -6.5643   23.8212 C   0  0  0  0  0  0
  -21.3659   -5.6793   24.9175 C   0  0  0  0  0  0
  -21.6039   -4.3052   24.7221 C   0  0  0  0  0  0
  -21.8819   -3.8145   23.4337 C   0  0  0  0  0  0
  -21.9191   -4.6970   22.3397 C   0  0  0  0  0  0
  -22.7849  -13.5268   21.1801 C   0  0  0  0  0  0
  -22.1654   -4.2149   21.0977 F   0  0  0  0  0  0
  -21.5622   -3.4536   25.7734 F   0  0  0  0  0  0
  -30.0327  -13.2656   20.4500 N   0  0  0  0  0  0
  -26.3008  -12.9312   20.3310 N   0  0  0  0  0  0
  -25.9294  -11.6482   20.5737 N   0  0  0  0  0  0
  -22.0489  -12.8284   22.0373 N   0  0  0  0  0  0
  -25.4342  -15.1871   20.4055 N   0  0  0  0  0  0
  -31.8126  -14.6402   20.0738 O   0  0  0  0  0  0
  -21.6629   -6.8881   21.4240 O   0  0  0  0  0  0
  -22.3550  -14.5585   20.6661 O   0  0  0  0  0  0
  -24.6120  -31.8676   23.2109 C   0  0  0  0  0  0
  -25.9022  -32.4818   23.8392 C   0  0  1  0  0  0
  -27.2400  -27.4682   20.0872 C   0  0  0  0  0  0
  -25.5891  -33.8615   24.2326 N   0  0  0  0  0  0
  -23.4010  -30.4906   21.5508 C   0  0  2  0  0  0
  -24.8503  -28.9627   20.1090 C   0  0  0  0  0  0
  -22.7400  -29.4635   22.4989 C   0  0  0  0  0  0
  -18.0280  -28.1369   22.8489 C   0  0  0  0  0  0
  -24.1497  -36.7309   23.2641 C   0  0  0  0  0  0
  -25.9264  -30.8442   21.3608 C   0  0  0  0  0  0
  -26.0083  -29.4839   20.7028 C   0  0  0  0  0  0
  -27.2086  -28.7427   20.6896 C   0  0  0  0  0  0
  -26.0720  -26.9501   19.4919 C   0  0  0  0  0  0
  -24.8750  -27.6940   19.5010 C   0  0  0  0  0  0
  -23.6084  -29.8240   20.1642 C   0  0  0  0  0  0
  -25.4107  -36.3090   24.0336 C   0  0  1  0  0  0
  -20.5859  -28.3664   23.1331 C   0  0  2  0  0  0
  -20.6751  -26.9361   22.5519 C   0  0  0  0  0  0
  -19.5780  -26.6369   21.5268 C   0  0  0  0  0  0
  -18.1963  -26.7877   22.1714 C   0  0  0  0  0  0
  -19.1521  -28.8850   23.2858 C   0  0  0  0  0  0
  -18.9453  -30.1495   23.8795 C   0  0  0  0  0  0
  -17.6461  -30.6614   24.0469 C   0  0  0  0  0  0
  -25.9030  -34.9471   23.5125 C   0  0  0  0  0  0
  -16.5347  -29.9083   23.6327 C   0  0  0  0  0  0
  -16.7264  -28.6477   23.0376 C   0  0  0  0  0  0
  -26.4471  -31.6583   25.0711 C   0  0  0  0  0  0
  -25.3751  -31.3673   26.1464 C   0  0  0  0  0  0
  -27.0303  -30.3032   24.6073 C   0  0  0  0  0  0
  -27.6057  -32.4290   25.7467 C   0  0  0  0  0  0
  -27.5579  -37.1799   24.8466 C   0  0  0  0  0  0
  -21.4129  -29.2987   22.3699 N   0  0  0  0  0  0
  -26.4292  -37.3767   23.9408 N   0  0  0  0  0  0
  -24.6640  -31.0797   22.1004 N   0  0  0  0  0  0
  -23.4182  -28.8173   23.3023 O   0  0  0  0  0  0
  -28.3824  -26.7086   20.1189 O   0  0  0  0  0  0
  -26.5592  -34.8925   22.4691 O   0  0  0  0  0  0
  -23.5319  -32.1406   23.7539 O   0  0  0  0  0  0
  -28.6017  -19.8214   21.6250 C   0  0  0  0  0  0
  -27.8471  -20.8101   21.0196 C   0  0  0  0  0  0
  -29.0235  -21.6789   22.6497 C   0  0  0  0  0  0
  -26.8701  -20.7287   19.8880 C   0  0  0  0  0  0
  -29.5884  -22.6769   23.6049 C   0  0  0  0  0  0
  -28.6784  -18.3320   21.3771 C   0  0  0  0  0  0
  -30.0779  -17.8663   20.9116 C   0  0  0  0  0  0
  -28.3233  -24.2782   20.6153 C   0  0  0  0  0  0
  -27.5031  -23.3119   21.5049 C   0  0  0  0  0  0
  -30.6782  -16.6767   21.7001 C   0  0  0  0  0  0
  -28.3516  -25.7244   21.1593 C   0  0  0  0  0  0
  -29.3391  -20.3890   22.6587 N   0  0  0  0  0  0
  -28.1165  -21.9983   21.7076 N   0  0  0  0  0  0
  -30.1160  -15.3640   21.3544 N   0  0  0  0  0  0
  -31.4643  -12.3720   19.1270 H   0  0  0  0  0  0
  -30.3039  -11.2752   19.8133 H   0  0  0  0  0  0
  -29.7352  -11.7872   17.4182 H   0  0  0  0  0  0
  -29.6613  -13.4938   17.7897 H   0  0  0  0  0  0
  -27.8210  -11.3016   18.8107 H   0  0  0  0  0  0
  -27.3668  -12.6335   17.7833 H   0  0  0  0  0  0
  -27.7132  -14.2466   19.5757 H   0  0  0  0  0  0
  -28.6600  -11.9387   21.3383 H   0  0  0  0  0  0
  -28.4425  -13.5707   21.8743 H   0  0  0  0  0  0
  -25.2765   -9.5692   22.4752 H   0  0  0  0  0  0
  -23.9992   -7.4658   22.7502 H   0  0  0  0  0  0
  -21.0813   -8.8787   19.8966 H   0  0  0  0  0  0
  -22.3689  -10.9685   19.6153 H   0  0  0  0  0  0
  -21.2035   -7.6155   23.9725 H   0  0  0  0  0  0
  -21.1470   -6.0515   25.9079 H   0  0  0  0  0  0
  -22.0598   -2.7602   23.2836 H   0  0  0  0  0  0
  -22.4074  -11.9933   22.4752 H   0  0  0  0  0  0
  -21.1127  -13.1353   22.2595 H   0  0  0  0  0  0
  -24.6748  -15.8476   20.5293 H   0  0  0  0  0  0
  -26.2858  -15.6231   20.0752 H   0  0  0  0  0  0
  -26.7106  -32.5553   23.1165 H   0  0  0  0  0  0
  -25.0057  -33.9767   25.0491 H   0  0  0  0  0  0
  -22.6901  -31.3066   21.4121 H   0  0  0  0  0  0
  -23.3745  -35.9658   23.3322 H   0  0  0  0  0  0
  -24.3601  -36.8905   22.2052 H   0  0  0  0  0  0
  -23.7267  -37.6534   23.6645 H   0  0  0  0  0  0
  -26.0367  -31.6169   20.5988 H   0  0  0  0  0  0
  -26.8147  -30.8941   21.9791 H   0  0  0  0  0  0
  -28.1043  -29.1361   21.1504 H   0  0  0  0  0  0
  -26.0876  -25.9705   19.0358 H   0  0  0  0  0  0
  -23.9839  -27.2835   19.0449 H   0  0  0  0  0  0
  -23.7142  -30.5998   19.4050 H   0  0  0  0  0  0
  -22.7327  -29.2406   19.8718 H   0  0  0  0  0  0
  -25.1281  -36.1947   25.0823 H   0  0  0  0  0  0
  -20.9922  -28.3289   24.1472 H   0  0  0  0  0  0
  -20.5506  -26.2256   23.3715 H   0  0  0  0  0  0
  -21.6647  -26.7323   22.1424 H   0  0  0  0  0  0
  -19.6948  -25.6294   21.1269 H   0  0  0  0  0  0
  -19.6750  -27.3215   20.6823 H   0  0  0  0  0  0
  -17.4191  -26.6422   21.4198 H   0  0  0  0  0  0
  -18.0505  -26.0123   22.9251 H   0  0  0  0  0  0
  -19.7928  -30.7344   24.2091 H   0  0  0  0  0  0
  -17.5045  -31.6333   24.5000 H   0  0  0  0  0  0
  -15.5349  -30.2979   23.7711 H   0  0  0  0  0  0
  -15.8663  -28.0756   22.7180 H   0  0  0  0  0  0
  -24.5922  -30.7015   25.7808 H   0  0  0  0  0  0
  -24.8946  -32.2831   26.4923 H   0  0  0  0  0  0
  -25.8115  -30.8836   27.0211 H   0  0  0  0  0  0
  -26.2848  -29.6774   24.1143 H   0  0  0  0  0  0
  -27.4113  -29.7258   25.4509 H   0  0  0  0  0  0
  -27.8663  -30.4367   23.9195 H   0  0  0  0  0  0
  -27.2686  -33.3567   26.2090 H   0  0  0  0  0  0
  -28.3840  -32.6865   25.0278 H   0  0  0  0  0  0
  -28.0752  -31.8381   26.5335 H   0  0  0  0  0  0
  -28.2583  -38.0101   24.7481 H   0  0  0  0  0  0
  -28.1069  -36.2624   24.6309 H   0  0  0  0  0  0
  -27.2298  -37.1471   25.8869 H   0  0  0  0  0  0
  -20.9298  -29.8585   21.6816 H   0  0  0  0  0  0
  -26.0184  -38.2853   24.1395 H   0  0  0  0  0  0
  -26.9866  -19.8024   19.3267 H   0  0  0  0  0  0
  -27.0089  -21.5542   19.1888 H   0  0  0  0  0  0
  -25.8457  -20.7709   20.2591 H   0  0  0  0  0  0
  -30.3885  -22.2321   24.1968 H   0  0  0  0  0  0
  -28.8116  -23.0277   24.2824 H   0  0  0  0  0  0
  -29.9922  -23.5303   23.0615 H   0  0  0  0  0  0
  -27.9351  -18.0286   20.6389 H   0  0  0  0  0  0
  -28.4004  -17.8041   22.2891 H   0  0  0  0  0  0
  -30.7725  -18.6986   21.0388 H   0  0  0  0  0  0
  -30.0777  -17.6745   19.8387 H   0  0  0  0  0  0
  -27.8976  -24.2647   19.6115 H   0  0  0  0  0  0
  -29.3502  -23.9268   20.5034 H   0  0  0  0  0  0
  -26.5081  -23.1757   21.0798 H   0  0  0  0  0  0
  -27.3300  -23.7439   22.4915 H   0  0  0  0  0  0
  -30.5549  -16.8392   22.7705 H   0  0  0  0  0  0
  -31.7598  -16.6731   21.5450 H   0  0  0  0  0  0
  -27.5032  -25.8921   21.8272 H   0  0  0  0  0  0
  -29.2363  -25.8598   21.7827 H   0  0  0  0  0  0
  -29.2249  -15.1104   21.7567 H   0  0  0  0  0  0
  1 25  1  0  0  0
  1 30  2  0  0  0
  1 84  1  0  0  0
  2  3  1  0  0  0
  2 25  1  0  0  0
  2 85  1  0  0  0
  2 86  1  0  0  0
  3  4  1  0  0  0
  3 87  1  0  0  0
  3 88  1  0  0  0
  4  5  1  0  0  0
  4 89  1  0  0  0
  4 90  1  0  0  0
  5  6  1  0  0  0
  5 26  1  0  0  0
  5 91  1  0  0  0
  6 25  1  0  0  0
  6 92  1  0  0  0
  6 93  1  0  0  0
  7  8  2  0  0  0
  7 26  1  0  0  0
  7 29  1  0  0  0
  8  9  1  0  0  0
  8 22  1  0  0  0
  9 10  1  0  0  0
  9 27  2  0  0  0
 10 11  2  0  0  0
 10 15  1  0  0  0
 11 12  1  0  0  0
 11 94  1  0  0  0
 12 13  2  0  0  0
 12 95  1  0  0  0
 13 14  1  0  0  0
 13 31  1  0  0  0
 14 15  2  0  0  0
 14 96  1  0  0  0
 15 97  1  0  0  0
 16 17  2  0  0  0
 16 21  1  0  0  0
 16 31  1  0  0  0
 17 18  1  0  0  0
 17 98  1  0  0  0
 18 19  2  0  0  0
 18 99  1  0  0  0
 19 20  1  0  0  0
 19 24  1  0  0  0
 20 21  2  0  0  0
 20100  1  0  0  0
 21 23  1  0  0  0
 22 28  1  0  0  0
 22 32  2  0  0  0
 26 27  1  0  0  0
 28101  1  0  0  0
 28102  1  0  0  0
 29103  1  0  0  0
 29104  1  0  0  0
 33 34  1  0  0  0
 33 66  1  0  0  0
 33 70  2  0  0  0
 34 36  1  0  0  0
 34 59  1  0  0  0
 34105  1  0  0  0
 35 44  2  0  0  0
 35 45  1  0  0  0
 35 68  1  0  0  0
 36 56  1  0  0  0
 36106  1  0  0  0
 37 39  1  0  0  0
 37 47  1  0  0  0
 37 66  1  0  0  0
 37107  1  0  0  0
 38 43  2  0  0  0
 38 46  1  0  0  0
 38 47  1  0  0  0
 39 64  1  0  0  0
 39 67  2  0  0  0
 40 52  1  0  0  0
 40 53  2  0  0  0
 40 58  1  0  0  0
 41108  1  0  0  0
 41109  1  0  0  0
 41110  1  0  0  0
 41 48  1  0  0  0
 42 43  1  0  0  0
 42 66  1  0  0  0
 42111  1  0  0  0
 42112  1  0  0  0
 43 44  1  0  0  0
 44113  1  0  0  0
 45 46  2  0  0  0
 45114  1  0  0  0
 46115  1  0  0  0
 47116  1  0  0  0
 47117  1  0  0  0
 48 56  1  0  0  0
 48 65  1  0  0  0
 48118  1  0  0  0
 49 50  1  0  0  0
 49 53  1  0  0  0
 49 64  1  0  0  0
 49119  1  0  0  0
 50 51  1  0  0  0
 50120  1  0  0  0
 50121  1  0  0  0
 51 52  1  0  0  0
 51122  1  0  0  0
 51123  1  0  0  0
 52124  1  0  0  0
 52125  1  0  0  0
 53 54  1  0  0  0
 54 55  2  0  0  0
 54126  1  0  0  0
 55 57  1  0  0  0
 55127  1  0  0  0
 56 69  2  0  0  0
 57 58  2  0  0  0
 57128  1  0  0  0
 58129  1  0  0  0
 59 60  1  0  0  0
 59 61  1  0  0  0
 59 62  1  0  0  0
 60130  1  0  0  0
 60131  1  0  0  0
 60132  1  0  0  0
 61133  1  0  0  0
 61134  1  0  0  0
 61135  1  0  0  0
 62136  1  0  0  0
 62137  1  0  0  0
 62138  1  0  0  0
 63 65  1  0  0  0
 63139  1  0  0  0
 63140  1  0  0  0
 63141  1  0  0  0
 64142  1  0  0  0
 65143  1  0  0  0
 68 81  1  0  0  0
 71 72  2  0  0  0
 71 76  1  0  0  0
 71 82  1  0  0  0
 72 74  1  0  0  0
 72 83  1  0  0  0
 73 75  1  0  0  0
 73 82  2  0  0  0
 73 83  1  0  0  0
 74144  1  0  0  0
 74145  1  0  0  0
 74146  1  0  0  0
 75147  1  0  0  0
 75148  1  0  0  0
 75149  1  0  0  0
 76 77  1  0  0  0
 76150  1  0  0  0
 76151  1  0  0  0
 77 80  1  0  0  0
 77152  1  0  0  0
 77153  1  0  0  0
 78 79  1  0  0  0
 78 81  1  0  0  0
 78154  1  0  0  0
 78155  1  0  0  0
 79 83  1  0  0  0
 79156  1  0  0  0
 79157  1  0  0  0
 80 84  1  0  0  0
 80158  1  0  0  0
 80159  1  0  0  0
 81160  1  0  0  0
 81161  1  0  0  0
 84162  1  0  0  0
M  ISO  4   1 100  68 101  81 101  84 100
M  END
> <chiral flag>
0

> <version>
0

> <s_m_source_file>
/data/baiqing/PycharmProjects/Reinvent-master-3.2/result/LINK_invent/BTK/process_docking_weight1_custom_sum_contain_oxygen_bond_distance_aromatic_linkinvent_7_9_3/rearranged_h_0045.sdf

> <i_m_source_file_index>
22

> <r_mmod_Potential_Energy-OPLS-2005>
-121.747009277344

> <r_mmod_Stretch_Energy-OPLS-2005>
33.3669128417969

> <r_mmod_Bend_Energy-OPLS-2005>
96.6444549560547

> <r_mmod_Torsional_Energy-OPLS-2005>
256.369476318359

> <r_mmod_Improper_Torsional_Energy-OPLS-2005>
2.35818314552307

> <r_mmod_Van_der_Waal_Energy-OPLS-2005>
126.551086425781

> <r_mmod_Electrostatic_Energy-OPLS-2005>
-425.607269287109

> <r_mmod_Solvation_Energy-OPLS-2005>
-220.844650268555

> <b_mmod_Minimization_Converged-OPLS-2005>
0

> <r_mmod_RMS_Derivative-OPLS-2005>
3.23116230964661

$$$$
22
                    3D
 Structure written by MMmdl.
164172  0  0  1  0            999 V2000
  -30.8207  -14.3054   20.8551 C   0  0  0  0  0  0
  -30.6620  -12.3482   19.2580 C   0  0  0  0  0  0
  -29.6975  -12.6011   18.0629 C   0  0  0  0  0  0
  -28.2259  -12.5411   18.4684 C   0  0  0  0  0  0
  -28.0743  -13.3659   19.7484 C   0  0  2  0  0  0
  -28.9653  -12.7510   20.8425 C   0  0  0  0  0  0
  -25.9080  -14.3161   20.1849 C   0  0  0  0  0  0
  -24.2869  -13.7317   21.0582 C   0  0  0  0  0  0
  -24.2014  -12.4368   21.5070 C   0  0  0  0  0  0
  -23.7305  -10.8903   21.2694 C   0  0  0  0  0  0
  -24.2528   -9.7830   22.0367 C   0  0  0  0  0  0
  -23.6541   -8.4785   22.0902 C   0  0  0  0  0  0
  -22.4865   -8.1794   21.3491 C   0  0  0  0  0  0
  -22.0497   -9.1911   20.4648 C   0  0  0  0  0  0
  -22.6576  -10.4851   20.4170 C   0  0  0  0  0  0
  -21.7495   -6.1373   22.5005 C   0  0  0  0  0  0
  -21.4513   -6.6078   23.8018 C   0  0  0  0  0  0
  -21.3864   -5.7126   24.8931 C   0  0  0  0  0  0
  -21.6028   -4.3358   24.6961 C   0  0  0  0  0  0
  -21.8692   -3.8531   23.4042 C   0  0  0  0  0  0
  -21.9341   -4.7439   22.3152 C   0  0  0  0  0  0
  -22.6457  -14.0542   21.2717 C   0  0  0  0  0  0
  -22.1719   -4.2499   21.0772 F   0  0  0  0  0  0
  -21.5532   -3.4791   25.7456 F   0  0  0  0  0  0
  -30.2987  -13.1183   20.4531 N   0  0  0  0  0  0
  -26.6951  -13.8272   20.1360 N   0  0  0  0  0  0
  -24.9660  -13.5935   20.8595 N   0  0  0  0  0  0
  -21.9036  -13.2648   22.0878 N   0  0  0  0  0  0
  -26.5622  -15.3547   19.3795 N   0  0  0  0  0  0
  -31.6478  -14.9331   20.1882 O   0  0  0  0  0  0
  -21.7885   -6.9716   21.3944 O   0  0  0  0  0  0
  -22.0164  -14.9231   20.6988 O   0  0  0  0  0  0
  -24.7214  -31.7520   23.1356 C   0  0  0  0  0  0
  -25.9643  -32.4186   23.7963 C   0  0  1  0  0  0
  -26.6027  -26.0639   20.4260 C   0  0  0  0  0  0
  -25.6087  -33.8089   24.1760 N   0  0  0  0  0  0
  -23.5324  -30.3825   21.5048 C   0  0  2  0  0  0
  -24.8845  -28.6350   20.1079 C   0  0  0  0  0  0
  -22.7795  -29.4129   22.4569 C   0  0  0  0  0  0
  -18.0346  -28.1463   22.8426 C   0  0  0  0  0  0
  -24.1472  -36.7050   23.2644 C   0  0  0  0  0  0
  -26.1093  -30.2488   21.5025 C   0  0  0  0  0  0
  -26.0444  -28.7675   20.8669 C   0  0  0  0  0  0
  -26.9173  -27.5125   20.9783 C   0  0  0  0  0  0
  -25.6085  -26.3245   19.4596 C   0  0  0  0  0  0
  -24.7667  -27.4679   19.3437 C   0  0  0  0  0  0
  -23.7853  -29.7123   20.1229 C   0  0  0  0  0  0
  -25.4141  -36.2765   24.0248 C   0  0  1  0  0  0
  -20.5967  -28.3802   23.1052 C   0  0  2  0  0  0
  -20.6777  -26.9418   22.5390 C   0  0  0  0  0  0
  -19.5767  -26.6343   21.5215 C   0  0  0  0  0  0
  -18.1956  -26.7980   22.1610 C   0  0  0  0  0  0
  -19.1613  -28.8976   23.2715 C   0  0  0  0  0  0
  -18.9513  -30.1549   23.8776 C   0  0  0  0  0  0
  -17.6493  -30.6613   24.0564 C   0  0  0  0  0  0
  -25.9192  -34.9163   23.4867 C   0  0  0  0  0  0
  -16.5386  -29.9075   23.6377 C   0  0  0  0  0  0
  -16.7317  -28.6524   23.0350 C   0  0  0  0  0  0
  -26.4682  -31.6495   25.0822 C   0  0  0  0  0  0
  -25.3564  -31.3965   26.1307 C   0  0  0  0  0  0
  -27.0708  -30.2772   24.7188 C   0  0  0  0  0  0
  -27.6078  -32.4514   25.7565 C   0  0  0  0  0  0
  -27.5582  -37.1636   24.8433 C   0  0  0  0  0  0
  -21.4423  -29.2998   22.3304 N   0  0  0  0  0  0
  -26.4215  -37.3607   23.9479 N   0  0  0  0  0  0
  -24.8246  -30.8511   22.0910 N   0  0  0  0  0  0
  -23.4130  -28.7711   23.2985 O   0  0  0  0  0  0
  -27.0257  -24.4555   20.5873 O   0  0  0  0  0  0
  -26.5858  -34.8816   22.4502 O   0  0  0  0  0  0
  -23.6177  -32.0932   23.6045 O   0  0  0  0  0  0
  -26.5494  -12.5488   21.9334 C   0  0  0  0  0  0
  -25.7650  -11.8285   19.8196 C   0  0  0  0  0  0
  -26.1775  -14.7404   22.3975 C   0  0  0  0  0  0
  -24.5787  -13.3186   18.6558 C   0  0  0  0  0  0
  -25.0182  -16.1607   21.1065 C   0  0  0  0  0  0
  -25.9687  -10.4176   19.2668 C   0  0  0  0  0  0
  -24.0288  -13.0081   17.2882 C   0  0  0  0  0  0
  -27.2105  -15.3974   23.3146 C   0  0  0  0  0  0
  -25.2008  -18.3005   21.1602 C   0  0  0  0  0  0
  -28.3430  -16.1846   22.5387 C   0  0  0  0  0  0
  -26.1782  -20.3197   20.7958 C   0  0  0  0  0  0
  -29.8764  -15.8557   22.7298 C   0  0  0  0  0  0
  -26.2343  -22.5987   20.8651 C   0  0  0  0  0  0
  -24.1629  -15.3192   19.3192 N   0  0  0  0  0  0
  -30.3852  -14.6269   22.0993 N   0  0  0  0  0  0
  -31.6848  -12.5777   18.9633 H   0  0  0  0  0  0
  -30.6560  -11.2858   19.5009 H   0  0  0  0  0  0
  -29.8868  -11.8683   17.2812 H   0  0  0  0  0  0
  -29.9042  -13.5686   17.5985 H   0  0  0  0  0  0
  -28.0364  -11.4907   18.6231 H   0  0  0  0  0  0
  -27.5705  -12.8969   17.6729 H   0  0  0  0  0  0
  -28.5891  -14.2927   19.4772 H   0  0  0  0  0  0
  -28.8801  -11.6629   20.8710 H   0  0  0  0  0  0
  -28.7748  -13.0739   21.8580 H   0  0  0  0  0  0
  -25.0980   -9.9747   22.6815 H   0  0  0  0  0  0
  -24.0764   -7.7355   22.7501 H   0  0  0  0  0  0
  -21.1906   -9.0003   19.8354 H   0  0  0  0  0  0
  -22.2112  -11.2332   19.7812 H   0  0  0  0  0  0
  -21.2808   -7.6630   23.9655 H   0  0  0  0  0  0
  -21.1743   -6.0852   25.8842 H   0  0  0  0  0  0
  -22.0196   -2.7958   23.2444 H   0  0  0  0  0  0
  -22.3146  -12.5218   22.6311 H   0  0  0  0  0  0
  -20.9146  -13.4478   22.1856 H   0  0  0  0  0  0
  -25.5923  -15.6182   19.1255 H   0  0  0  0  0  0
  -26.9293  -16.1053   19.9401 H   0  0  0  0  0  0
  -26.7743  -32.4434   23.0662 H   0  0  0  0  0  0
  -25.0055  -33.9085   24.9796 H   0  0  0  0  0  0
  -22.8796  -31.2406   21.3345 H   0  0  0  0  0  0
  -23.3855  -35.9245   23.3028 H   0  0  0  0  0  0
  -24.3573  -36.9027   22.2126 H   0  0  0  0  0  0
  -23.7064  -37.6060   23.6930 H   0  0  0  0  0  0
  -26.4154  -30.9110   20.6940 H   0  0  0  0  0  0
  -26.9433  -30.2640   22.1878 H   0  0  0  0  0  0
  -27.7762  -27.5899   21.6251 H   0  0  0  0  0  0
  -25.3120  -25.4884   18.8403 H   0  0  0  0  0  0
  -23.9340  -27.4054   18.6579 H   0  0  0  0  0  0
  -24.0821  -30.4790   19.4065 H   0  0  0  0  0  0
  -22.8515  -29.2970   19.7390 H   0  0  0  0  0  0
  -25.1316  -36.1454   25.0723 H   0  0  0  0  0  0
  -21.0077  -28.3529   24.1177 H   0  0  0  0  0  0
  -20.5687  -26.2419   23.3699 H   0  0  0  0  0  0
  -21.6609  -26.7345   22.1181 H   0  0  0  0  0  0
  -19.6885  -25.6228   21.1311 H   0  0  0  0  0  0
  -19.6742  -27.3095   20.6715 H   0  0  0  0  0  0
  -17.4211  -26.6726   21.4020 H   0  0  0  0  0  0
  -18.0318  -26.0186   22.9071 H   0  0  0  0  0  0
  -19.7985  -30.7394   24.2095 H   0  0  0  0  0  0
  -17.5041  -31.6288   24.5167 H   0  0  0  0  0  0
  -15.5379  -30.2925   23.7783 H   0  0  0  0  0  0
  -15.8734  -28.0816   22.7086 H   0  0  0  0  0  0
  -24.5747  -30.7357   25.7525 H   0  0  0  0  0  0
  -24.8757  -32.3241   26.4435 H   0  0  0  0  0  0
  -25.7532  -30.9252   27.0304 H   0  0  0  0  0  0
  -26.3450  -29.6111   24.2519 H   0  0  0  0  0  0
  -27.4162  -29.7590   25.6147 H   0  0  0  0  0  0
  -27.9456  -30.3762   24.0756 H   0  0  0  0  0  0
  -27.2606  -33.3967   26.1752 H   0  0  0  0  0  0
  -28.4015  -32.6866   25.0451 H   0  0  0  0  0  0
  -28.0638  -31.8958   26.5773 H   0  0  0  0  0  0
  -28.2361  -38.0154   24.7789 H   0  0  0  0  0  0
  -28.1312  -36.2733   24.5842 H   0  0  0  0  0  0
  -27.2388  -37.0725   25.8826 H   0  0  0  0  0  0
  -20.9757  -29.8704   21.6391 H   0  0  0  0  0  0
  -25.9997  -38.2584   24.1687 H   0  0  0  0  0  0
  -27.1273  -11.8861   22.5684 H   0  0  0  0  0  0
  -26.8111   -9.9216   19.7427 H   0  0  0  0  0  0
  -26.1444  -10.4614   18.1936 H   0  0  0  0  0  0
  -25.0983   -9.7813   19.3835 H   0  0  0  0  0  0
  -24.1067  -11.9488   17.0480 H   0  0  0  0  0  0
  -24.5747  -13.5840   16.5392 H   0  0  0  0  0  0
  -22.9846  -13.3118   17.2542 H   0  0  0  0  0  0
  -27.6301  -14.6562   23.9887 H   0  0  0  0  0  0
  -26.6469  -16.0872   23.9460 H   0  0  0  0  0  0
  -24.8994  -18.4110   22.2080 H   0  0  0  0  0  0
  -24.2931  -18.4834   20.5829 H   0  0  0  0  0  0
  -28.2559  -17.2105   22.8960 H   0  0  0  0  0  0
  -28.1105  -16.2722   21.4765 H   0  0  0  0  0  0
  -26.4781  -20.1818   19.7546 H   0  0  0  0  0  0
  -27.0857  -20.1361   21.3735 H   0  0  0  0  0  0
  -30.4839  -16.6996   22.4052 H   0  0  0  0  0  0
  -30.0694  -15.7475   23.7999 H   0  0  0  0  0  0
  -26.4107  -22.6625   21.9428 H   0  0  0  0  0  0
  -25.1750  -22.8330   20.7863 H   0  0  0  0  0  0
  -30.0657  -13.8000   22.5874 H   0  0  0  0  0  0
  1 25  1  0  0  0
  1 30  2  0  0  0
  1 85  1  0  0  0
  2  3  1  0  0  0
  2 25  1  0  0  0
  2 86  1  0  0  0
  2 87  1  0  0  0
  3  4  1  0  0  0
  3 88  1  0  0  0
  3 89  1  0  0  0
  4  5  1  0  0  0
  4 90  1  0  0  0
  4 91  1  0  0  0
  5  6  1  0  0  0
  5 26  1  0  0  0
  5 92  1  0  0  0
  6 25  1  0  0  0
  6 93  1  0  0  0
  6 94  1  0  0  0
  7  8  2  0  0  0
  7 26  1  0  0  0
  7 29  1  0  0  0
  8  9  1  0  0  0
  8 22  1  0  0  0
  9 10  1  0  0  0
  9 27  2  0  0  0
 10 11  2  0  0  0
 10 15  1  0  0  0
 11 12  1  0  0  0
 11 95  1  0  0  0
 12 13  2  0  0  0
 12 96  1  0  0  0
 13 14  1  0  0  0
 13 31  1  0  0  0
 14 15  2  0  0  0
 14 97  1  0  0  0
 15 98  1  0  0  0
 16 17  2  0  0  0
 16 21  1  0  0  0
 16 31  1  0  0  0
 17 18  1  0  0  0
 17 99  1  0  0  0
 18 19  2  0  0  0
 18100  1  0  0  0
 19 20  1  0  0  0
 19 24  1  0  0  0
 20 21  2  0  0  0
 20101  1  0  0  0
 21 23  1  0  0  0
 22 28  1  0  0  0
 22 32  2  0  0  0
 26 27  1  0  0  0
 28102  1  0  0  0
 28103  1  0  0  0
 29104  1  0  0  0
 29105  1  0  0  0
 33 34  1  0  0  0
 33 66  1  0  0  0
 33 70  2  0  0  0
 34 36  1  0  0  0
 34 59  1  0  0  0
 34106  1  0  0  0
 35 44  2  0  0  0
 35 45  1  0  0  0
 35 68  1  0  0  0
 36 56  1  0  0  0
 36107  1  0  0  0
 37 39  1  0  0  0
 37 47  1  0  0  0
 37 66  1  0  0  0
 37108  1  0  0  0
 38 43  2  0  0  0
 38 46  1  0  0  0
 38 47  1  0  0  0
 39 64  1  0  0  0
 39 67  2  0  0  0
 40 52  1  0  0  0
 40 53  2  0  0  0
 40 58  1  0  0  0
 41109  1  0  0  0
 41110  1  0  0  0
 41111  1  0  0  0
 41 48  1  0  0  0
 42 43  1  0  0  0
 42 66  1  0  0  0
 42112  1  0  0  0
 42113  1  0  0  0
 43 44  1  0  0  0
 44114  1  0  0  0
 45 46  2  0  0  0
 45115  1  0  0  0
 46116  1  0  0  0
 47117  1  0  0  0
 47118  1  0  0  0
 48 56  1  0  0  0
 48 65  1  0  0  0
 48119  1  0  0  0
 49 50  1  0  0  0
 49 53  1  0  0  0
 49 64  1  0  0  0
 49120  1  0  0  0
 50 51  1  0  0  0
 50121  1  0  0  0
 50122  1  0  0  0
 51 52  1  0  0  0
 51123  1  0  0  0
 51124  1  0  0  0
 52125  1  0  0  0
 52126  1  0  0  0
 53 54  1  0  0  0
 54 55  2  0  0  0
 54127  1  0  0  0
 55 57  1  0  0  0
 55128  1  0  0  0
 56 69  2  0  0  0
 57 58  2  0  0  0
 57129  1  0  0  0
 58130  1  0  0  0
 59 60  1  0  0  0
 59 61  1  0  0  0
 59 62  1  0  0  0
 60131  1  0  0  0
 60132  1  0  0  0
 60133  1  0  0  0
 61134  1  0  0  0
 61135  1  0  0  0
 61136  1  0  0  0
 62137  1  0  0  0
 62138  1  0  0  0
 62139  1  0  0  0
 63 65  1  0  0  0
 63140  1  0  0  0
 63141  1  0  0  0
 63142  1  0  0  0
 64143  1  0  0  0
 65144  1  0  0  0
 68 83  1  0  0  0
 71 72  2  0  0  0
 71 73  1  0  0  0
 71145  1  0  0  0
 72 74  1  0  0  0
 72 76  1  0  0  0
 73 75  2  0  0  0
 73 78  1  0  0  0
 74 77  1  0  0  0
 74 84  2  0  0  0
 75 79  1  0  0  0
 75 84  1  0  0  0
 76146  1  0  0  0
 76147  1  0  0  0
 76148  1  0  0  0
 77149  1  0  0  0
 77150  1  0  0  0
 77151  1  0  0  0
 78 80  1  0  0  0
 78152  1  0  0  0
 78153  1  0  0  0
 79 81  1  0  0  0
 79154  1  0  0  0
 79155  1  0  0  0
 80 82  1  0  0  0
 80156  1  0  0  0
 80157  1  0  0  0
 81 83  1  0  0  0
 81158  1  0  0  0
 81159  1  0  0  0
 82 85  1  0  0  0
 82160  1  0  0  0
 82161  1  0  0  0
 83162  1  0  0  0
 83163  1  0  0  0
 85164  1  0  0  0
M  ISO  4   1 100  68 101  83 101  85 100
M  END
> <chiral flag>
0

> <version>
0

> <s_m_source_file>
/data/baiqing/PycharmProjects/Reinvent-master-3.2/result/LINK_invent/BTK/process_docking_weight1_custom_sum_contain_oxygen_bond_distance_aromatic_linkinvent_7_9_3/rearranged_h_0045.sdf

> <i_m_source_file_index>
23

> <r_mmod_Potential_Energy-OPLS-2005>
22581.435546875

> <r_mmod_Stretch_Energy-OPLS-2005>
13205.3603515625

> <r_mmod_Bend_Energy-OPLS-2005>
2610.5205078125

> <r_mmod_Torsional_Energy-OPLS-2005>
425.377166748047

> <r_mmod_Improper_Torsional_Energy-OPLS-2005>
48.7170181274414

> <r_mmod_Van_der_Waal_Energy-OPLS-2005>
4320.81005859375

> <r_mmod_Electrostatic_Energy-OPLS-2005>
-468.295257568359

> <r_mmod_Solvation_Energy-OPLS-2005>
-254.793533325195

> <b_mmod_Minimization_Converged-OPLS-2005>
0

> <r_mmod_RMS_Derivative-OPLS-2005>
11.4559555053711

$$$$
23
                    3D
 Structure written by MMmdl.
156164  0  0  1  0            999 V2000
  -30.6033  -14.7375   20.4503 C   0  0  0  0  0  0
  -30.4367  -12.4507   19.4710 C   0  0  0  0  0  0
  -29.5118  -12.5092   18.2359 C   0  0  0  0  0  0
  -28.0376  -12.3317   18.6474 C   0  0  0  0  0  0
  -27.6441  -13.2263   19.8533 C   0  0  2  0  0  0
  -28.6889  -13.1525   20.9876 C   0  0  0  0  0  0
  -25.2530  -13.8178   20.5687 C   0  0  0  0  0  0
  -24.1808  -13.0437   20.9204 C   0  0  0  0  0  0
  -24.6377  -11.6910   20.8731 C   0  0  0  0  0  0
  -23.9041  -10.4301   21.0394 C   0  0  0  0  0  0
  -24.3604   -9.4226   21.9180 C   0  0  0  0  0  0
  -23.6296   -8.2256   22.0747 C   0  0  0  0  0  0
  -22.4284   -8.0284   21.3538 C   0  0  0  0  0  0
  -21.9907   -9.0245   20.4637 C   0  0  0  0  0  0
  -22.7213  -10.2137   20.3048 C   0  0  0  0  0  0
  -21.6857   -6.0741   22.5276 C   0  0  0  0  0  0
  -21.4014   -6.5641   23.8211 C   0  0  0  0  0  0
  -21.3661   -5.6789   24.9168 C   0  0  0  0  0  0
  -21.6050   -4.3054   24.7212 C   0  0  0  0  0  0
  -21.8821   -3.8151   23.4328 C   0  0  0  0  0  0
  -21.9194   -4.6971   22.3389 C   0  0  0  0  0  0
  -22.7835  -13.5233   21.1866 C   0  0  0  0  0  0
  -22.1661   -4.2158   21.0964 F   0  0  0  0  0  0
  -21.5636   -3.4535   25.7723 F   0  0  0  0  0  0
  -29.9898  -13.5065   20.4070 N   0  0  0  0  0  0
  -26.2946  -12.9368   20.3284 N   0  0  0  0  0  0
  -25.9312  -11.6515   20.5752 N   0  0  0  0  0  0
  -22.0457  -12.8235   22.0417 N   0  0  0  0  0  0
  -25.4257  -15.1900   20.4082 N   0  0  0  0  0  0
  -31.7897  -14.8496   20.1315 O   0  0  0  0  0  0
  -21.6642   -6.8884   21.4242 O   0  0  0  0  0  0
  -22.3519  -14.5536   20.6705 O   0  0  0  0  0  0
  -24.6292  -31.8550   23.1958 C   0  0  0  0  0  0
  -25.9122  -32.4742   23.8315 C   0  0  1  0  0  0
  -27.2270  -27.2700   20.1234 C   0  0  0  0  0  0
  -25.5917  -33.8545   24.2243 N   0  0  0  0  0  0
  -23.4252  -30.4751   21.5392 C   0  0  2  0  0  0
  -24.8718  -28.9181   20.1092 C   0  0  0  0  0  0
  -22.7498  -29.4593   22.4916 C   0  0  0  0  0  0
  -18.0287  -28.1374   22.8477 C   0  0  0  0  0  0
  -24.1490  -36.7287   23.2643 C   0  0  0  0  0  0
  -25.9684  -30.7703   21.3728 C   0  0  0  0  0  0
  -26.0406  -29.3925   20.7152 C   0  0  0  0  0  0
  -27.2167  -28.5809   20.7094 C   0  0  0  0  0  0
  -26.0312  -26.8516   19.4997 C   0  0  0  0  0  0
  -24.8719  -27.6559   19.4920 C   0  0  0  0  0  0
  -23.6413  -29.8035   20.1562 C   0  0  0  0  0  0
  -25.4115  -36.3065   24.0328 C   0  0  1  0  0  0
  -20.5890  -28.3691   23.1264 C   0  0  2  0  0  0
  -20.6771  -26.9408   22.5405 C   0  0  0  0  0  0
  -19.5745  -26.6373   21.5208 C   0  0  0  0  0  0
  -18.1928  -26.7913   22.1620 C   0  0  0  0  0  0
  -19.1542  -28.8849   23.2860 C   0  0  0  0  0  0
  -18.9465  -30.1450   23.8881 C   0  0  0  0  0  0
  -17.6466  -30.6576   24.0554 C   0  0  0  0  0  0
  -25.9055  -34.9434   23.5093 C   0  0  0  0  0  0
  -16.5355  -29.9077   23.6320 C   0  0  0  0  0  0
  -16.7277  -28.6489   23.0350 C   0  0  0  0  0  0
  -26.4491  -31.6565   25.0706 C   0  0  0  0  0  0
  -25.3713  -31.3728   26.1430 C   0  0  0  0  0  0
  -27.0348  -30.2977   24.6203 C   0  0  0  0  0  0
  -27.6033  -32.4317   25.7486 C   0  0  0  0  0  0
  -27.5574  -37.1801   24.8463 C   0  0  0  0  0  0
  -21.4209  -29.3039   22.3658 N   0  0  0  0  0  0
  -26.4291  -37.3761   23.9400 N   0  0  0  0  0  0
  -24.6930  -31.0526   22.0918 N   0  0  0  0  0  0
  -23.4205  -28.8147   23.3021 O   0  0  0  0  0  0
  -28.3629  -26.4337   20.1953 O   0  0  0  0  0  0
  -26.5639  -34.8912   22.4672 O   0  0  0  0  0  0
  -23.5446  -32.1375   23.7257 O   0  0  0  0  0  0
  -28.3448  -21.0723   20.7554 C   0  0  0  0  0  0
  -29.2140  -20.0350   20.4040 C   0  0  0  0  0  0
  -30.2667  -20.8122   19.8079 C   0  0  0  0  0  0
  -31.5087  -20.2574   17.6862 C   0  0  0  0  0  0
  -29.0171  -18.4593   20.6387 C   0  0  0  0  0  0
  -31.5658  -20.3373   19.2155 C   0  0  0  0  0  0
  -28.3139  -23.7550   20.7293 C   0  0  0  0  0  0
  -30.1529  -17.3362   20.3715 C   0  0  0  0  0  0
  -28.4378  -25.0086   19.7162 C   0  0  0  0  0  0
  -30.0328  -22.1405   19.8027 N   0  0  0  0  0  0
  -28.8268  -22.3499   20.3838 N   0  0  0  0  0  0
  -29.8125  -15.8627   20.6245 N   0  0  0  0  0  0
  -31.4763  -12.5826   19.1671 H   0  0  0  0  0  0
  -30.3881  -11.4701   19.9475 H   0  0  0  0  0  0
  -29.7955  -11.7403   17.5166 H   0  0  0  0  0  0
  -29.6383  -13.4672   17.7297 H   0  0  0  0  0  0
  -27.8959  -11.2822   18.9073 H   0  0  0  0  0  0
  -27.3813  -12.5265   17.7980 H   0  0  0  0  0  0
  -27.6429  -14.2496   19.4784 H   0  0  0  0  0  0
  -28.7248  -12.1509   21.4179 H   0  0  0  0  0  0
  -28.4260  -13.8278   21.8032 H   0  0  0  0  0  0
  -25.2740   -9.5724   22.4760 H   0  0  0  0  0  0
  -24.0019   -7.4644   22.7455 H   0  0  0  0  0  0
  -21.0849   -8.8737   19.8927 H   0  0  0  0  0  0
  -22.3650  -10.9675   19.6163 H   0  0  0  0  0  0
  -21.2005   -7.6146   23.9719 H   0  0  0  0  0  0
  -21.1487   -6.0512   25.9075 H   0  0  0  0  0  0
  -22.0603   -2.7614   23.2812 H   0  0  0  0  0  0
  -22.4046  -11.9895   22.4831 H   0  0  0  0  0  0
  -21.1066  -13.1266   22.2584 H   0  0  0  0  0  0
  -24.6598  -15.8467   20.5106 H   0  0  0  0  0  0
  -26.2687  -15.6209   20.0522 H   0  0  0  0  0  0
  -26.7189  -32.5393   23.1059 H   0  0  0  0  0  0
  -25.0027  -33.9682   25.0363 H   0  0  0  0  0  0
  -22.7205  -31.2963   21.3920 H   0  0  0  0  0  0
  -23.3743  -35.9629   23.3307 H   0  0  0  0  0  0
  -24.3579  -36.8911   22.2058 H   0  0  0  0  0  0
  -23.7262  -37.6495   23.6670 H   0  0  0  0  0  0
  -26.1090  -31.5321   20.6048 H   0  0  0  0  0  0
  -26.8442  -30.8168   22.0078 H   0  0  0  0  0  0
  -28.1146  -28.9439   21.1897 H   0  0  0  0  0  0
  -25.9570  -25.8832   19.0304 H   0  0  0  0  0  0
  -23.9738  -27.2867   19.0165 H   0  0  0  0  0  0
  -23.7617  -30.5771   19.3972 H   0  0  0  0  0  0
  -22.7602  -29.2347   19.8533 H   0  0  0  0  0  0
  -25.1300  -36.1912   25.0823 H   0  0  0  0  0  0
  -20.9980  -28.3270   24.1385 H   0  0  0  0  0  0
  -20.5660  -26.2313   23.3620 H   0  0  0  0  0  0
  -21.6641  -26.7423   22.1206 H   0  0  0  0  0  0
  -19.6911  -25.6285   21.1236 H   0  0  0  0  0  0
  -19.6669  -27.3185   20.6737 H   0  0  0  0  0  0
  -17.4202  -26.6659   21.4019 H   0  0  0  0  0  0
  -18.0320  -26.0053   22.9011 H   0  0  0  0  0  0
  -19.7950  -30.7255   24.2248 H   0  0  0  0  0  0
  -17.5028  -31.6254   24.5161 H   0  0  0  0  0  0
  -15.5359  -30.2978   23.7641 H   0  0  0  0  0  0
  -15.8677  -28.0799   22.7081 H   0  0  0  0  0  0
  -24.5880  -30.7085   25.7760 H   0  0  0  0  0  0
  -24.8921  -32.2910   26.4836 H   0  0  0  0  0  0
  -25.8028  -30.8915   27.0217 H   0  0  0  0  0  0
  -26.2941  -29.6712   24.1220 H   0  0  0  0  0  0
  -27.4017  -29.7246   25.4729 H   0  0  0  0  0  0
  -27.8818  -30.4237   23.9455 H   0  0  0  0  0  0
  -27.2616  -33.3613   26.2050 H   0  0  0  0  0  0
  -28.3850  -32.6889   25.0324 H   0  0  0  0  0  0
  -28.0695  -31.8460   26.5420 H   0  0  0  0  0  0
  -28.2597  -38.0091   24.7490 H   0  0  0  0  0  0
  -28.1066  -36.2622   24.6312 H   0  0  0  0  0  0
  -27.2291  -37.1474   25.8867 H   0  0  0  0  0  0
  -20.9406  -29.8772   21.6863 H   0  0  0  0  0  0
  -26.0168  -38.2840   24.1377 H   0  0  0  0  0  0
  -27.3991  -21.0023   21.2759 H   0  0  0  0  0  0
  -32.4618  -19.9178   17.2814 H   0  0  0  0  0  0
  -31.2917  -21.2337   17.2521 H   0  0  0  0  0  0
  -30.7343  -19.5641   17.3579 H   0  0  0  0  0  0
  -28.1447  -18.1454   20.0640 H   0  0  0  0  0  0
  -28.7072  -18.3189   21.6751 H   0  0  0  0  0  0
  -31.8454  -19.3684   19.6256 H   0  0  0  0  0  0
  -32.3720  -21.0134   19.5036 H   0  0  0  0  0  0
  -27.2648  -23.6568   21.0083 H   0  0  0  0  0  0
  -28.8240  -24.0351   21.6506 H   0  0  0  0  0  0
  -31.0306  -17.5744   20.9732 H   0  0  0  0  0  0
  -30.4700  -17.4163   19.3305 H   0  0  0  0  0  0
  -27.7872  -24.8458   18.8596 H   0  0  0  0  0  0
  -29.4367  -24.9417   19.2866 H   0  0  0  0  0  0
  -28.8509  -15.6691   20.8583 H   0  0  0  0  0  0
  1 25  1  0  0  0
  1 30  2  0  0  0
  1 82  1  0  0  0
  2  3  1  0  0  0
  2 25  1  0  0  0
  2 83  1  0  0  0
  2 84  1  0  0  0
  3  4  1  0  0  0
  3 85  1  0  0  0
  3 86  1  0  0  0
  4  5  1  0  0  0
  4 87  1  0  0  0
  4 88  1  0  0  0
  5  6  1  0  0  0
  5 26  1  0  0  0
  5 89  1  0  0  0
  6 25  1  0  0  0
  6 90  1  0  0  0
  6 91  1  0  0  0
  7  8  2  0  0  0
  7 26  1  0  0  0
  7 29  1  0  0  0
  8  9  1  0  0  0
  8 22  1  0  0  0
  9 10  1  0  0  0
  9 27  2  0  0  0
 10 11  2  0  0  0
 10 15  1  0  0  0
 11 12  1  0  0  0
 11 92  1  0  0  0
 12 13  2  0  0  0
 12 93  1  0  0  0
 13 14  1  0  0  0
 13 31  1  0  0  0
 14 15  2  0  0  0
 14 94  1  0  0  0
 15 95  1  0  0  0
 16 17  2  0  0  0
 16 21  1  0  0  0
 16 31  1  0  0  0
 17 18  1  0  0  0
 17 96  1  0  0  0
 18 19  2  0  0  0
 18 97  1  0  0  0
 19 20  1  0  0  0
 19 24  1  0  0  0
 20 21  2  0  0  0
 20 98  1  0  0  0
 21 23  1  0  0  0
 22 28  1  0  0  0
 22 32  2  0  0  0
 26 27  1  0  0  0
 28 99  1  0  0  0
 28100  1  0  0  0
 29101  1  0  0  0
 29102  1  0  0  0
 33 34  1  0  0  0
 33 66  1  0  0  0
 33 70  2  0  0  0
 34 36  1  0  0  0
 34 59  1  0  0  0
 34103  1  0  0  0
 35 44  2  0  0  0
 35 45  1  0  0  0
 35 68  1  0  0  0
 36 56  1  0  0  0
 36104  1  0  0  0
 37 39  1  0  0  0
 37 47  1  0  0  0
 37 66  1  0  0  0
 37105  1  0  0  0
 38 43  2  0  0  0
 38 46  1  0  0  0
 38 47  1  0  0  0
 39 64  1  0  0  0
 39 67  2  0  0  0
 40 52  1  0  0  0
 40 53  2  0  0  0
 40 58  1  0  0  0
 41106  1  0  0  0
 41107  1  0  0  0
 41108  1  0  0  0
 41 48  1  0  0  0
 42 43  1  0  0  0
 42 66  1  0  0  0
 42109  1  0  0  0
 42110  1  0  0  0
 43 44  1  0  0  0
 44111  1  0  0  0
 45 46  2  0  0  0
 45112  1  0  0  0
 46113  1  0  0  0
 47114  1  0  0  0
 47115  1  0  0  0
 48 56  1  0  0  0
 48 65  1  0  0  0
 48116  1  0  0  0
 49 50  1  0  0  0
 49 53  1  0  0  0
 49 64  1  0  0  0
 49117  1  0  0  0
 50 51  1  0  0  0
 50118  1  0  0  0
 50119  1  0  0  0
 51 52  1  0  0  0
 51120  1  0  0  0
 51121  1  0  0  0
 52122  1  0  0  0
 52123  1  0  0  0
 53 54  1  0  0  0
 54 55  2  0  0  0
 54124  1  0  0  0
 55 57  1  0  0  0
 55125  1  0  0  0
 56 69  2  0  0  0
 57 58  2  0  0  0
 57126  1  0  0  0
 58127  1  0  0  0
 59 60  1  0  0  0
 59 61  1  0  0  0
 59 62  1  0  0  0
 60128  1  0  0  0
 60129  1  0  0  0
 60130  1  0  0  0
 61131  1  0  0  0
 61132  1  0  0  0
 61133  1  0  0  0
 62134  1  0  0  0
 62135  1  0  0  0
 62136  1  0  0  0
 63 65  1  0  0  0
 63137  1  0  0  0
 63138  1  0  0  0
 63139  1  0  0  0
 64140  1  0  0  0
 65141  1  0  0  0
 68 79  1  0  0  0
 71 72  2  0  0  0
 71 81  1  0  0  0
 71142  1  0  0  0
 72 73  1  0  0  0
 72 75  1  0  0  0
 73 76  1  0  0  0
 73 80  2  0  0  0
 74 76  1  0  0  0
 74143  1  0  0  0
 74144  1  0  0  0
 74145  1  0  0  0
 75 78  1  0  0  0
 75146  1  0  0  0
 75147  1  0  0  0
 76148  1  0  0  0
 76149  1  0  0  0
 77 79  1  0  0  0
 77 81  1  0  0  0
 77150  1  0  0  0
 77151  1  0  0  0
 78 82  1  0  0  0
 78152  1  0  0  0
 78153  1  0  0  0
 79154  1  0  0  0
 79155  1  0  0  0
 80 81  1  0  0  0
 82156  1  0  0  0
M  ISO  4   1 100  68 101  79 101  82 100
M  END
> <chiral flag>
0

> <version>
0

> <s_m_source_file>
/data/baiqing/PycharmProjects/Reinvent-master-3.2/result/LINK_invent/BTK/process_docking_weight1_custom_sum_contain_oxygen_bond_distance_aromatic_linkinvent_7_9_3/rearranged_h_0045.sdf

> <i_m_source_file_index>
24

> <r_mmod_Potential_Energy-OPLS-2005>
60.0276832580566

> <r_mmod_Stretch_Energy-OPLS-2005>
117.853698730469

> <r_mmod_Bend_Energy-OPLS-2005>
181.366455078125

> <r_mmod_Torsional_Energy-OPLS-2005>
197.604751586914

> <r_mmod_Improper_Torsional_Energy-OPLS-2005>
6.27908372879028

> <r_mmod_Van_der_Waal_Energy-OPLS-2005>
109.388404846191

> <r_mmod_Electrostatic_Energy-OPLS-2005>
-402.529693603516

> <r_mmod_Solvation_Energy-OPLS-2005>
-228.343109130859

> <b_mmod_Minimization_Converged-OPLS-2005>
0

> <r_mmod_RMS_Derivative-OPLS-2005>
1.48395228385925

$$$$
24
                    3D
 Structure written by MMmdl.
156164  0  0  1  0            999 V2000
  -30.7203  -14.5798   20.4231 C   0  0  0  0  0  0
  -30.3990  -12.3521   19.4347 C   0  0  0  0  0  0
  -29.4805  -12.4547   18.2025 C   0  0  0  0  0  0
  -28.0102  -12.3096   18.6326 C   0  0  0  0  0  0
  -27.6344  -13.2196   19.8288 C   0  0  2  0  0  0
  -28.6847  -13.1593   20.9586 C   0  0  0  0  0  0
  -25.2534  -13.8140   20.5706 C   0  0  0  0  0  0
  -24.1797  -13.0398   20.9213 C   0  0  0  0  0  0
  -24.6373  -11.6886   20.8720 C   0  0  0  0  0  0
  -23.9054  -10.4277   21.0409 C   0  0  0  0  0  0
  -24.3618   -9.4188   21.9180 C   0  0  0  0  0  0
  -23.6295   -8.2233   22.0745 C   0  0  0  0  0  0
  -22.4281   -8.0267   21.3541 C   0  0  0  0  0  0
  -21.9925   -9.0233   20.4635 C   0  0  0  0  0  0
  -22.7239  -10.2106   20.3042 C   0  0  0  0  0  0
  -21.6859   -6.0714   22.5280 C   0  0  0  0  0  0
  -21.4015   -6.5621   23.8194 C   0  0  0  0  0  0
  -21.3640   -5.6775   24.9168 C   0  0  0  0  0  0
  -21.6054   -4.3045   24.7238 C   0  0  0  0  0  0
  -21.8799   -3.8126   23.4365 C   0  0  0  0  0  0
  -21.9179   -4.6948   22.3407 C   0  0  0  0  0  0
  -22.7842  -13.5191   21.1902 C   0  0  0  0  0  0
  -22.1616   -4.2102   21.0995 F   0  0  0  0  0  0
  -21.5679   -3.4540   25.7766 F   0  0  0  0  0  0
  -30.0015  -13.4211   20.3668 N   0  0  0  0  0  0
  -26.2913  -12.9319   20.3202 N   0  0  0  0  0  0
  -25.9285  -11.6469   20.5714 N   0  0  0  0  0  0
  -22.0486  -12.8148   22.0455 N   0  0  0  0  0  0
  -25.4303  -15.1878   20.4174 N   0  0  0  0  0  0
  -31.9279  -14.5861   20.1836 O   0  0  0  0  0  0
  -21.6627   -6.8876   21.4244 O   0  0  0  0  0  0
  -22.3518  -14.5485   20.6745 O   0  0  0  0  0  0
  -24.6173  -31.8666   23.2138 C   0  0  0  0  0  0
  -25.9063  -32.4831   23.8433 C   0  0  1  0  0  0
  -27.2103  -27.3784   20.1087 C   0  0  0  0  0  0
  -25.5900  -33.8631   24.2338 N   0  0  0  0  0  0
  -23.4062  -30.4946   21.5567 C   0  0  2  0  0  0
  -24.8465  -28.9577   20.1150 C   0  0  0  0  0  0
  -22.7445  -29.4626   22.5003 C   0  0  0  0  0  0
  -18.0263  -28.1344   22.8504 C   0  0  0  0  0  0
  -24.1480  -36.7322   23.2632 C   0  0  0  0  0  0
  -25.9425  -30.8114   21.3766 C   0  0  0  0  0  0
  -26.0110  -29.4423   20.7225 C   0  0  0  0  0  0
  -27.1977  -28.6632   20.7129 C   0  0  0  0  0  0
  -26.0287  -26.9306   19.4724 C   0  0  0  0  0  0
  -24.8554  -27.7063   19.4781 C   0  0  0  0  0  0
  -23.6177  -29.8375   20.1671 C   0  0  0  0  0  0
  -25.4097  -36.3112   24.0332 C   0  0  1  0  0  0
  -20.5864  -28.3619   23.1316 C   0  0  2  0  0  0
  -20.6714  -26.9368   22.5369 C   0  0  0  0  0  0
  -19.5664  -26.6380   21.5214 C   0  0  0  0  0  0
  -18.1874  -26.7899   22.1665 C   0  0  0  0  0  0
  -19.1503  -28.8815   23.2936 C   0  0  0  0  0  0
  -18.9367  -30.1411   23.8942 C   0  0  0  0  0  0
  -17.6319  -30.6494   24.0572 C   0  0  0  0  0  0
  -25.9033  -34.9485   23.5140 C   0  0  0  0  0  0
  -16.5237  -29.8975   23.6266 C   0  0  0  0  0  0
  -16.7220  -28.6391   23.0301 C   0  0  0  0  0  0
  -26.4460  -31.6601   25.0772 C   0  0  0  0  0  0
  -25.3725  -31.3680   26.1524 C   0  0  0  0  0  0
  -27.0278  -30.3042   24.6135 C   0  0  0  0  0  0
  -27.6024  -32.4336   25.7514 C   0  0  0  0  0  0
  -27.5580  -37.1826   24.8465 C   0  0  0  0  0  0
  -21.4163  -29.3007   22.3751 N   0  0  0  0  0  0
  -26.4295  -37.3787   23.9425 N   0  0  0  0  0  0
  -24.6750  -31.0708   22.1097 N   0  0  0  0  0  0
  -23.4213  -28.8146   23.3036 O   0  0  0  0  0  0
  -28.3484  -26.5843   20.1188 O   0  0  0  0  0  0
  -26.5580  -34.8922   22.4703 O   0  0  0  0  0  0
  -23.5357  -32.1470   23.7486 O   0  0  0  0  0  0
  -29.3985  -19.1849   20.8880 C   0  0  0  0  0  0
  -29.2029  -20.4625   20.2466 C   0  0  0  0  0  0
  -30.0946  -18.4010   19.9892 C   0  0  0  0  0  0
  -30.8652  -18.9206   17.5740 C   0  0  0  0  0  0
  -28.5092  -21.7504   20.7217 C   0  0  0  0  0  0
  -30.7930  -17.0343   20.0912 C   0  0  0  0  0  0
  -29.4341  -22.9486   21.1389 C   0  0  0  0  0  0
  -29.4004  -24.2835   20.3150 C   0  0  0  0  0  0
  -28.1567  -25.1966   20.5209 C   0  0  0  0  0  0
  -29.6899  -20.4354   19.0186 N   0  0  0  0  0  0
  -30.2321  -19.2053   18.8566 N   0  0  0  0  0  0
  -30.0620  -15.7745   20.4465 N   0  0  0  0  0  0
  -31.4368  -12.4376   19.1087 H   0  0  0  0  0  0
  -30.3051  -11.3786   19.9133 H   0  0  0  0  0  0
  -29.7404  -11.6753   17.4839 H   0  0  0  0  0  0
  -29.6347  -13.4049   17.6895 H   0  0  0  0  0  0
  -27.8652  -11.2695   18.9198 H   0  0  0  0  0  0
  -27.3450  -12.4853   17.7859 H   0  0  0  0  0  0
  -27.6228  -14.2348   19.4352 H   0  0  0  0  0  0
  -28.6737  -12.1841   21.4471 H   0  0  0  0  0  0
  -28.4389  -13.8986   21.7215 H   0  0  0  0  0  0
  -25.2777   -9.5638   22.4735 H   0  0  0  0  0  0
  -23.9953   -7.4651   22.7515 H   0  0  0  0  0  0
  -21.0814   -8.8783   19.9001 H   0  0  0  0  0  0
  -22.3723  -10.9645   19.6132 H   0  0  0  0  0  0
  -21.1988   -7.6120   23.9689 H   0  0  0  0  0  0
  -21.1486   -6.0514   25.9055 H   0  0  0  0  0  0
  -22.0608   -2.7599   23.2880 H   0  0  0  0  0  0
  -22.4075  -11.9789   22.4824 H   0  0  0  0  0  0
  -21.1128  -13.1224   22.2693 H   0  0  0  0  0  0
  -24.6749  -15.8541   20.5325 H   0  0  0  0  0  0
  -26.2845  -15.6246   20.0925 H   0  0  0  0  0  0
  -26.7137  -32.5507   23.1181 H   0  0  0  0  0  0
  -25.0081  -33.9809   25.0502 H   0  0  0  0  0  0
  -22.6937  -31.3144   21.4262 H   0  0  0  0  0  0
  -23.3742  -35.9662   23.3301 H   0  0  0  0  0  0
  -24.3561  -36.8946   22.2047 H   0  0  0  0  0  0
  -23.7248  -37.6535   23.6645 H   0  0  0  0  0  0
  -26.0621  -31.5723   20.6033 H   0  0  0  0  0  0
  -26.8293  -30.8637   21.9970 H   0  0  0  0  0  0
  -28.0957  -29.0293   21.1920 H   0  0  0  0  0  0
  -25.9990  -25.9815   18.9550 H   0  0  0  0  0  0
  -23.9680  -27.3435   18.9754 H   0  0  0  0  0  0
  -23.7485  -30.6223   19.4234 H   0  0  0  0  0  0
  -22.7302  -29.2816   19.8562 H   0  0  0  0  0  0
  -25.1279  -36.1977   25.0826 H   0  0  0  0  0  0
  -20.9933  -28.3097   24.1439 H   0  0  0  0  0  0
  -20.5617  -26.2185   23.3514 H   0  0  0  0  0  0
  -21.6568  -26.7422   22.1118 H   0  0  0  0  0  0
  -19.6807  -25.6299   21.1147 H   0  0  0  0  0  0
  -19.6540  -27.3266   20.6784 H   0  0  0  0  0  0
  -17.4122  -26.6779   21.4065 H   0  0  0  0  0  0
  -18.0224  -26.0034   22.9045 H   0  0  0  0  0  0
  -19.7775  -30.7296   24.2340 H   0  0  0  0  0  0
  -17.4771  -31.6139   24.5194 H   0  0  0  0  0  0
  -15.5202  -30.2841   23.7509 H   0  0  0  0  0  0
  -15.8649  -28.0688   22.6934 H   0  0  0  0  0  0
  -24.5892  -30.7015   25.7879 H   0  0  0  0  0  0
  -24.8902  -32.2814   26.5014 H   0  0  0  0  0  0
  -25.8101  -30.8840   27.0264 H   0  0  0  0  0  0
  -26.2821  -29.6828   24.1149 H   0  0  0  0  0  0
  -27.4019  -29.7245   25.4585 H   0  0  0  0  0  0
  -27.8675  -30.4384   23.9307 H   0  0  0  0  0  0
  -27.2627  -33.3628   26.2096 H   0  0  0  0  0  0
  -28.3788  -32.6930   25.0307 H   0  0  0  0  0  0
  -28.0723  -31.8475   26.5413 H   0  0  0  0  0  0
  -28.2603  -38.0113   24.7495 H   0  0  0  0  0  0
  -28.1078  -36.2658   24.6311 H   0  0  0  0  0  0
  -27.2306  -37.1488   25.8867 H   0  0  0  0  0  0
  -20.9332  -29.8777   21.7003 H   0  0  0  0  0  0
  -26.0181  -38.2878   24.1420 H   0  0  0  0  0  0
  -29.1070  -18.8960   21.8905 H   0  0  0  0  0  0
  -30.2904  -18.1662   17.0405 H   0  0  0  0  0  0
  -31.8846  -18.5589   17.7056 H   0  0  0  0  0  0
  -30.9147  -19.8190   16.9561 H   0  0  0  0  0  0
  -27.8685  -21.4997   21.5700 H   0  0  0  0  0  0
  -27.8114  -22.0925   19.9571 H   0  0  0  0  0  0
  -31.2937  -16.8388   19.1395 H   0  0  0  0  0  0
  -31.6118  -17.1563   20.8035 H   0  0  0  0  0  0
  -30.4628  -22.5926   21.1812 H   0  0  0  0  0  0
  -29.2000  -23.2103   22.1714 H   0  0  0  0  0  0
  -30.2736  -24.8673   20.6165 H   0  0  0  0  0  0
  -29.5464  -24.0688   19.2555 H   0  0  0  0  0  0
  -27.8961  -25.1971   21.5796 H   0  0  0  0  0  0
  -27.3285  -24.7156   20.0020 H   0  0  0  0  0  0
  -29.0583  -15.8070   20.5534 H   0  0  0  0  0  0
  1 25  1  0  0  0
  1 30  2  0  0  0
  1 82  1  0  0  0
  2  3  1  0  0  0
  2 25  1  0  0  0
  2 83  1  0  0  0
  2 84  1  0  0  0
  3  4  1  0  0  0
  3 85  1  0  0  0
  3 86  1  0  0  0
  4  5  1  0  0  0
  4 87  1  0  0  0
  4 88  1  0  0  0
  5  6  1  0  0  0
  5 26  1  0  0  0
  5 89  1  0  0  0
  6 25  1  0  0  0
  6 90  1  0  0  0
  6 91  1  0  0  0
  7  8  2  0  0  0
  7 26  1  0  0  0
  7 29  1  0  0  0
  8  9  1  0  0  0
  8 22  1  0  0  0
  9 10  1  0  0  0
  9 27  2  0  0  0
 10 11  2  0  0  0
 10 15  1  0  0  0
 11 12  1  0  0  0
 11 92  1  0  0  0
 12 13  2  0  0  0
 12 93  1  0  0  0
 13 14  1  0  0  0
 13 31  1  0  0  0
 14 15  2  0  0  0
 14 94  1  0  0  0
 15 95  1  0  0  0
 16 17  2  0  0  0
 16 21  1  0  0  0
 16 31  1  0  0  0
 17 18  1  0  0  0
 17 96  1  0  0  0
 18 19  2  0  0  0
 18 97  1  0  0  0
 19 20  1  0  0  0
 19 24  1  0  0  0
 20 21  2  0  0  0
 20 98  1  0  0  0
 21 23  1  0  0  0
 22 28  1  0  0  0
 22 32  2  0  0  0
 26 27  1  0  0  0
 28 99  1  0  0  0
 28100  1  0  0  0
 29101  1  0  0  0
 29102  1  0  0  0
 33 34  1  0  0  0
 33 66  1  0  0  0
 33 70  2  0  0  0
 34 36  1  0  0  0
 34 59  1  0  0  0
 34103  1  0  0  0
 35 44  2  0  0  0
 35 45  1  0  0  0
 35 68  1  0  0  0
 36 56  1  0  0  0
 36104  1  0  0  0
 37 39  1  0  0  0
 37 47  1  0  0  0
 37 66  1  0  0  0
 37105  1  0  0  0
 38 43  2  0  0  0
 38 46  1  0  0  0
 38 47  1  0  0  0
 39 64  1  0  0  0
 39 67  2  0  0  0
 40 52  1  0  0  0
 40 53  2  0  0  0
 40 58  1  0  0  0
 41106  1  0  0  0
 41107  1  0  0  0
 41108  1  0  0  0
 41 48  1  0  0  0
 42 43  1  0  0  0
 42 66  1  0  0  0
 42109  1  0  0  0
 42110  1  0  0  0
 43 44  1  0  0  0
 44111  1  0  0  0
 45 46  2  0  0  0
 45112  1  0  0  0
 46113  1  0  0  0
 47114  1  0  0  0
 47115  1  0  0  0
 48 56  1  0  0  0
 48 65  1  0  0  0
 48116  1  0  0  0
 49 50  1  0  0  0
 49 53  1  0  0  0
 49 64  1  0  0  0
 49117  1  0  0  0
 50 51  1  0  0  0
 50118  1  0  0  0
 50119  1  0  0  0
 51 52  1  0  0  0
 51120  1  0  0  0
 51121  1  0  0  0
 52122  1  0  0  0
 52123  1  0  0  0
 53 54  1  0  0  0
 54 55  2  0  0  0
 54124  1  0  0  0
 55 57  1  0  0  0
 55125  1  0  0  0
 56 69  2  0  0  0
 57 58  2  0  0  0
 57126  1  0  0  0
 58127  1  0  0  0
 59 60  1  0  0  0
 59 61  1  0  0  0
 59 62  1  0  0  0
 60128  1  0  0  0
 60129  1  0  0  0
 60130  1  0  0  0
 61131  1  0  0  0
 61132  1  0  0  0
 61133  1  0  0  0
 62134  1  0  0  0
 62135  1  0  0  0
 62136  1  0  0  0
 63 65  1  0  0  0
 63137  1  0  0  0
 63138  1  0  0  0
 63139  1  0  0  0
 64140  1  0  0  0
 65141  1  0  0  0
 68 79  1  0  0  0
 71 72  1  0  0  0
 71 73  2  0  0  0
 71142  1  0  0  0
 72 75  1  0  0  0
 72 80  2  0  0  0
 73 76  1  0  0  0
 73 81  1  0  0  0
 74 81  1  0  0  0
 74143  1  0  0  0
 74144  1  0  0  0
 74145  1  0  0  0
 75 77  1  0  0  0
 75146  1  0  0  0
 75147  1  0  0  0
 76 82  1  0  0  0
 76148  1  0  0  0
 76149  1  0  0  0
 77 78  1  0  0  0
 77150  1  0  0  0
 77151  1  0  0  0
 78 79  1  0  0  0
 78152  1  0  0  0
 78153  1  0  0  0
 79154  1  0  0  0
 79155  1  0  0  0
 80 81  1  0  0  0
 82156  1  0  0  0
M  ISO  4   1 100  68 101  79 101  82 100
M  END
> <chiral flag>
0

> <version>
0

> <s_m_source_file>
/data/baiqing/PycharmProjects/Reinvent-master-3.2/result/LINK_invent/BTK/process_docking_weight1_custom_sum_contain_oxygen_bond_distance_aromatic_linkinvent_7_9_3/rearranged_h_0045.sdf

> <i_m_source_file_index>
25

> <r_mmod_Potential_Energy-OPLS-2005>
-81.8306427001953

> <r_mmod_Stretch_Energy-OPLS-2005>
51.3305816650391

> <r_mmod_Bend_Energy-OPLS-2005>
124.546493530273

> <r_mmod_Torsional_Energy-OPLS-2005>
231.799270629883

> <r_mmod_Improper_Torsional_Energy-OPLS-2005>
7.75956392288208

> <r_mmod_Van_der_Waal_Energy-OPLS-2005>
128.452087402344

> <r_mmod_Electrostatic_Energy-OPLS-2005>
-449.222839355469

> <r_mmod_Solvation_Energy-OPLS-2005>
-219.400344848633

> <b_mmod_Minimization_Converged-OPLS-2005>
0

> <r_mmod_RMS_Derivative-OPLS-2005>
5.4352593421936

$$$$
25
                    3D
 Structure written by MMmdl.
157165  0  0  1  0            999 V2000
  -30.7009  -14.4692   20.5916 C   0  0  0  0  0  0
  -30.4263  -12.3116   19.4212 C   0  0  0  0  0  0
  -29.4964  -12.5127   18.2068 C   0  0  0  0  0  0
  -28.0167  -12.3682   18.6158 C   0  0  0  0  0  0
  -27.6628  -13.2043   19.8748 C   0  0  2  0  0  0
  -28.7036  -12.9784   20.9950 C   0  0  0  0  0  0
  -25.2588  -13.8152   20.5657 C   0  0  0  0  0  0
  -24.1835  -13.0435   20.9168 C   0  0  0  0  0  0
  -24.6382  -11.6899   20.8720 C   0  0  0  0  0  0
  -23.9046  -10.4293   21.0392 C   0  0  0  0  0  0
  -24.3605   -9.4212   21.9167 C   0  0  0  0  0  0
  -23.6295   -8.2241   22.0747 C   0  0  0  0  0  0
  -22.4273   -8.0274   21.3542 C   0  0  0  0  0  0
  -21.9902   -9.0247   20.4641 C   0  0  0  0  0  0
  -22.7219  -10.2131   20.3044 C   0  0  0  0  0  0
  -21.6851   -6.0731   22.5282 C   0  0  0  0  0  0
  -21.4017   -6.5639   23.8212 C   0  0  0  0  0  0
  -21.3661   -5.6793   24.9177 C   0  0  0  0  0  0
  -21.6049   -4.3058   24.7220 C   0  0  0  0  0  0
  -21.8821   -3.8144   23.4344 C   0  0  0  0  0  0
  -21.9195   -4.6963   22.3402 C   0  0  0  0  0  0
  -22.7860  -13.5237   21.1845 C   0  0  0  0  0  0
  -22.1653   -4.2146   21.0980 F   0  0  0  0  0  0
  -21.5634   -3.4542   25.7732 F   0  0  0  0  0  0
  -30.0384  -13.2885   20.4505 N   0  0  0  0  0  0
  -26.3023  -12.9313   20.3349 N   0  0  0  0  0  0
  -25.9310  -11.6474   20.5748 N   0  0  0  0  0  0
  -22.0505  -12.8240   22.0411 N   0  0  0  0  0  0
  -25.4345  -15.1863   20.4046 N   0  0  0  0  0  0
  -31.8101  -14.6855   20.0964 O   0  0  0  0  0  0
  -21.6635   -6.8874   21.4240 O   0  0  0  0  0  0
  -22.3549  -14.5551   20.6708 O   0  0  0  0  0  0
  -24.6163  -31.8675   23.2085 C   0  0  0  0  0  0
  -25.9050  -32.4819   23.8387 C   0  0  1  0  0  0
  -27.2332  -27.4243   20.1056 C   0  0  0  0  0  0
  -25.5903  -33.8617   24.2325 N   0  0  0  0  0  0
  -23.4052  -30.4918   21.5478 C   0  0  2  0  0  0
  -24.8546  -28.9596   20.1094 C   0  0  0  0  0  0
  -22.7421  -29.4665   22.4967 C   0  0  0  0  0  0
  -18.0282  -28.1375   22.8497 C   0  0  0  0  0  0
  -24.1487  -36.7314   23.2638 C   0  0  0  0  0  0
  -25.9361  -30.8315   21.3637 C   0  0  0  0  0  0
  -26.0160  -29.4667   20.7080 C   0  0  0  0  0  0
  -27.2111  -28.7074   20.7019 C   0  0  0  0  0  0
  -26.0607  -26.9420   19.4854 C   0  0  0  0  0  0
  -24.8736  -27.6977   19.4904 C   0  0  0  0  0  0
  -23.6153  -29.8250   20.1620 C   0  0  0  0  0  0
  -25.4106  -36.3112   24.0344 C   0  0  1  0  0  0
  -20.5874  -28.3670   23.1305 C   0  0  2  0  0  0
  -20.6774  -26.9403   22.5412 C   0  0  0  0  0  0
  -19.5752  -26.6385   21.5211 C   0  0  0  0  0  0
  -18.1933  -26.7925   22.1624 C   0  0  0  0  0  0
  -19.1532  -28.8838   23.2903 C   0  0  0  0  0  0
  -18.9458  -30.1442   23.8914 C   0  0  0  0  0  0
  -17.6460  -30.6585   24.0567 C   0  0  0  0  0  0
  -25.9035  -34.9477   23.5135 C   0  0  0  0  0  0
  -16.5354  -29.9088   23.6319 C   0  0  0  0  0  0
  -16.7271  -28.6502   23.0353 C   0  0  0  0  0  0
  -26.4471  -31.6597   25.0718 C   0  0  0  0  0  0
  -25.3733  -31.3716   26.1465 C   0  0  0  0  0  0
  -27.0299  -30.3038   24.6094 C   0  0  0  0  0  0
  -27.6047  -32.4311   25.7480 C   0  0  0  0  0  0
  -27.5585  -37.1812   24.8467 C   0  0  0  0  0  0
  -21.4147  -29.3039   22.3705 N   0  0  0  0  0  0
  -26.4298  -37.3793   23.9410 N   0  0  0  0  0  0
  -24.6705  -31.0776   22.0984 N   0  0  0  0  0  0
  -23.4194  -28.8208   23.3014 O   0  0  0  0  0  0
  -28.3571  -26.6229   20.1511 O   0  0  0  0  0  0
  -26.5592  -34.8930   22.4691 O   0  0  0  0  0  0
  -23.5355  -32.1426   23.7477 O   0  0  0  0  0  0
  -28.4263  -19.9118   20.4385 C   0  0  0  0  0  0
  -29.6428  -19.2149   20.2340 C   0  0  0  0  0  0
  -30.7140  -21.2474   19.9097 C   0  0  0  0  0  0
  -29.4767  -21.9403   20.0439 C   0  0  0  0  0  0
  -32.0126  -21.9719   19.6189 C   0  0  0  0  0  0
  -29.6574  -17.6839   20.1087 C   0  0  0  0  0  0
  -29.2989  -23.4406   19.7425 C   0  0  0  0  0  0
  -29.2781  -24.3828   20.9727 C   0  0  0  0  0  0
  -30.3224  -16.8858   21.2603 C   0  0  0  0  0  0
  -28.1576  -25.4568   20.9784 C   0  0  0  0  0  0
  -28.3402  -21.2642   20.3449 N   0  0  0  0  0  0
  -30.7971  -19.8903   19.9981 N   0  0  0  0  0  0
  -29.9999  -15.4464   21.1941 N   0  0  0  0  0  0
  -31.4699  -12.4184   19.1202 H   0  0  0  0  0  0
  -30.3316  -11.2984   19.8146 H   0  0  0  0  0  0
  -29.7411  -11.7930   17.4243 H   0  0  0  0  0  0
  -29.6616  -13.5007   17.7751 H   0  0  0  0  0  0
  -27.8261  -11.3118   18.8069 H   0  0  0  0  0  0
  -27.3672  -12.6463   17.7844 H   0  0  0  0  0  0
  -27.7109  -14.2534   19.5821 H   0  0  0  0  0  0
  -28.6797  -11.9401   21.3285 H   0  0  0  0  0  0
  -28.4573  -13.5683   21.8783 H   0  0  0  0  0  0
  -25.2746   -9.5701   22.4736 H   0  0  0  0  0  0
  -24.0013   -7.4639   22.7469 H   0  0  0  0  0  0
  -21.0829   -8.8753   19.8955 H   0  0  0  0  0  0
  -22.3661  -10.9665   19.6154 H   0  0  0  0  0  0
  -21.2005   -7.6145   23.9720 H   0  0  0  0  0  0
  -21.1483   -6.0516   25.9083 H   0  0  0  0  0  0
  -22.0602   -2.7607   23.2841 H   0  0  0  0  0  0
  -22.4103  -11.9885   22.4793 H   0  0  0  0  0  0
  -21.1128  -13.1283   22.2618 H   0  0  0  0  0  0
  -24.6729  -15.8473   20.5092 H   0  0  0  0  0  0
  -26.2906  -15.6185   20.0807 H   0  0  0  0  0  0
  -26.7125  -32.5533   23.1156 H   0  0  0  0  0  0
  -25.0073  -33.9767   25.0485 H   0  0  0  0  0  0
  -22.6954  -31.3098   21.4079 H   0  0  0  0  0  0
  -23.3745  -35.9651   23.3313 H   0  0  0  0  0  0
  -24.3585  -36.8910   22.2049 H   0  0  0  0  0  0
  -23.7242  -37.6528   23.6636 H   0  0  0  0  0  0
  -26.0518  -31.5983   20.5965 H   0  0  0  0  0  0
  -26.8228  -30.8830   21.9839 H   0  0  0  0  0  0
  -28.1031  -29.0888   21.1793 H   0  0  0  0  0  0
  -26.0608  -25.9705   19.0107 H   0  0  0  0  0  0
  -23.9835  -27.3024   19.0203 H   0  0  0  0  0  0
  -23.7218  -30.6001   19.4021 H   0  0  0  0  0  0
  -22.7397  -29.2437   19.8655 H   0  0  0  0  0  0
  -25.1282  -36.1981   25.0840 H   0  0  0  0  0  0
  -20.9978  -28.3243   24.1421 H   0  0  0  0  0  0
  -20.5673  -26.2284   23.3607 H   0  0  0  0  0  0
  -21.6647  -26.7447   22.1206 H   0  0  0  0  0  0
  -19.6915  -25.6297   21.1238 H   0  0  0  0  0  0
  -19.6689  -27.3199   20.6744 H   0  0  0  0  0  0
  -17.4204  -26.6678   21.4023 H   0  0  0  0  0  0
  -18.0331  -26.0056   22.9010 H   0  0  0  0  0  0
  -19.7938  -30.7250   24.2297 H   0  0  0  0  0  0
  -17.5022  -31.6262   24.5167 H   0  0  0  0  0  0
  -15.5357  -30.3003   23.7623 H   0  0  0  0  0  0
  -15.8676  -28.0823   22.7066 H   0  0  0  0  0  0
  -24.5902  -30.7065   25.7810 H   0  0  0  0  0  0
  -24.8925  -32.2877   26.4905 H   0  0  0  0  0  0
  -25.8083  -30.8894   27.0227 H   0  0  0  0  0  0
  -26.2845  -29.6803   24.1138 H   0  0  0  0  0  0
  -27.4065  -29.7269   25.4550 H   0  0  0  0  0  0
  -27.8682  -30.4361   23.9250 H   0  0  0  0  0  0
  -27.2668  -33.3603   26.2081 H   0  0  0  0  0  0
  -28.3842  -32.6883   25.0296 H   0  0  0  0  0  0
  -28.0725  -31.8415   26.5373 H   0  0  0  0  0  0
  -28.2614  -38.0099   24.7506 H   0  0  0  0  0  0
  -28.1071  -36.2632   24.6301 H   0  0  0  0  0  0
  -27.2307  -37.1474   25.8873 H   0  0  0  0  0  0
  -20.9310  -29.8764   21.6927 H   0  0  0  0  0  0
  -26.0193  -38.2882   24.1386 H   0  0  0  0  0  0
  -27.5017  -19.3795   20.6090 H   0  0  0  0  0  0
  -32.1288  -22.8254   20.2873 H   0  0  0  0  0  0
  -32.0271  -22.3318   18.5901 H   0  0  0  0  0  0
  -32.8738  -21.3191   19.7641 H   0  0  0  0  0  0
  -30.1440  -17.4278   19.1668 H   0  0  0  0  0  0
  -28.6237  -17.3541   19.9980 H   0  0  0  0  0  0
  -28.3600  -23.5446   19.1977 H   0  0  0  0  0  0
  -30.0610  -23.7755   19.0396 H   0  0  0  0  0  0
  -30.2570  -24.8369   21.1283 H   0  0  0  0  0  0
  -29.1065  -23.7631   21.8539 H   0  0  0  0  0  0
  -29.9537  -17.2564   22.2173 H   0  0  0  0  0  0
  -31.4021  -17.0475   21.2623 H   0  0  0  0  0  0
  -28.0502  -25.8188   22.0029 H   0  0  0  0  0  0
  -27.2154  -24.9574   20.7501 H   0  0  0  0  0  0
  -29.1042  -15.1670   21.5678 H   0  0  0  0  0  0
  1 25  1  0  0  0
  1 30  2  0  0  0
  1 83  1  0  0  0
  2  3  1  0  0  0
  2 25  1  0  0  0
  2 84  1  0  0  0
  2 85  1  0  0  0
  3  4  1  0  0  0
  3 86  1  0  0  0
  3 87  1  0  0  0
  4  5  1  0  0  0
  4 88  1  0  0  0
  4 89  1  0  0  0
  5  6  1  0  0  0
  5 26  1  0  0  0
  5 90  1  0  0  0
  6 25  1  0  0  0
  6 91  1  0  0  0
  6 92  1  0  0  0
  7  8  2  0  0  0
  7 26  1  0  0  0
  7 29  1  0  0  0
  8  9  1  0  0  0
  8 22  1  0  0  0
  9 10  1  0  0  0
  9 27  2  0  0  0
 10 11  2  0  0  0
 10 15  1  0  0  0
 11 12  1  0  0  0
 11 93  1  0  0  0
 12 13  2  0  0  0
 12 94  1  0  0  0
 13 14  1  0  0  0
 13 31  1  0  0  0
 14 15  2  0  0  0
 14 95  1  0  0  0
 15 96  1  0  0  0
 16 17  2  0  0  0
 16 21  1  0  0  0
 16 31  1  0  0  0
 17 18  1  0  0  0
 17 97  1  0  0  0
 18 19  2  0  0  0
 18 98  1  0  0  0
 19 20  1  0  0  0
 19 24  1  0  0  0
 20 21  2  0  0  0
 20 99  1  0  0  0
 21 23  1  0  0  0
 22 28  1  0  0  0
 22 32  2  0  0  0
 26 27  1  0  0  0
 28100  1  0  0  0
 28101  1  0  0  0
 29102  1  0  0  0
 29103  1  0  0  0
 33 34  1  0  0  0
 33 66  1  0  0  0
 33 70  2  0  0  0
 34 36  1  0  0  0
 34 59  1  0  0  0
 34104  1  0  0  0
 35 44  2  0  0  0
 35 45  1  0  0  0
 35 68  1  0  0  0
 36 56  1  0  0  0
 36105  1  0  0  0
 37 39  1  0  0  0
 37 47  1  0  0  0
 37 66  1  0  0  0
 37106  1  0  0  0
 38 43  2  0  0  0
 38 46  1  0  0  0
 38 47  1  0  0  0
 39 64  1  0  0  0
 39 67  2  0  0  0
 40 52  1  0  0  0
 40 53  2  0  0  0
 40 58  1  0  0  0
 41107  1  0  0  0
 41108  1  0  0  0
 41109  1  0  0  0
 41 48  1  0  0  0
 42 43  1  0  0  0
 42 66  1  0  0  0
 42110  1  0  0  0
 42111  1  0  0  0
 43 44  1  0  0  0
 44112  1  0  0  0
 45 46  2  0  0  0
 45113  1  0  0  0
 46114  1  0  0  0
 47115  1  0  0  0
 47116  1  0  0  0
 48 56  1  0  0  0
 48 65  1  0  0  0
 48117  1  0  0  0
 49 50  1  0  0  0
 49 53  1  0  0  0
 49 64  1  0  0  0
 49118  1  0  0  0
 50 51  1  0  0  0
 50119  1  0  0  0
 50120  1  0  0  0
 51 52  1  0  0  0
 51121  1  0  0  0
 51122  1  0  0  0
 52123  1  0  0  0
 52124  1  0  0  0
 53 54  1  0  0  0
 54 55  2  0  0  0
 54125  1  0  0  0
 55 57  1  0  0  0
 55126  1  0  0  0
 56 69  2  0  0  0
 57 58  2  0  0  0
 57127  1  0  0  0
 58128  1  0  0  0
 59 60  1  0  0  0
 59 61  1  0  0  0
 59 62  1  0  0  0
 60129  1  0  0  0
 60130  1  0  0  0
 60131  1  0  0  0
 61132  1  0  0  0
 61133  1  0  0  0
 61134  1  0  0  0
 62135  1  0  0  0
 62136  1  0  0  0
 62137  1  0  0  0
 63 65  1  0  0  0
 63138  1  0  0  0
 63139  1  0  0  0
 63140  1  0  0  0
 64141  1  0  0  0
 65142  1  0  0  0
 68 80  1  0  0  0
 71 72  2  0  0  0
 71 81  1  0  0  0
 71143  1  0  0  0
 72 76  1  0  0  0
 72 82  1  0  0  0
 73 74  1  0  0  0
 73 75  1  0  0  0
 73 82  2  0  0  0
 74 77  1  0  0  0
 74 81  2  0  0  0
 75144  1  0  0  0
 75145  1  0  0  0
 75146  1  0  0  0
 76 79  1  0  0  0
 76147  1  0  0  0
 76148  1  0  0  0
 77 78  1  0  0  0
 77149  1  0  0  0
 77150  1  0  0  0
 78 80  1  0  0  0
 78151  1  0  0  0
 78152  1  0  0  0
 79 83  1  0  0  0
 79153  1  0  0  0
 79154  1  0  0  0
 80155  1  0  0  0
 80156  1  0  0  0
 83157  1  0  0  0
M  ISO  4   1 100  68 101  80 101  83 100
M  END
> <chiral flag>
0

> <version>
0

> <s_m_source_file>
/data/baiqing/PycharmProjects/Reinvent-master-3.2/result/LINK_invent/BTK/process_docking_weight1_custom_sum_contain_oxygen_bond_distance_aromatic_linkinvent_7_9_3/rearranged_h_0045.sdf

> <i_m_source_file_index>
26

> <r_mmod_Potential_Energy-OPLS-2005>
-48.2522125244141

> <r_mmod_Stretch_Energy-OPLS-2005>
41.7355613708496

> <r_mmod_Bend_Energy-OPLS-2005>
98.414176940918

> <r_mmod_Torsional_Energy-OPLS-2005>
216.09049987793

> <r_mmod_Improper_Torsional_Energy-OPLS-2005>
4.13466262817383

> <r_mmod_Van_der_Waal_Energy-OPLS-2005>
151.693023681641

> <r_mmod_Electrostatic_Energy-OPLS-2005>
-347.439270019531

> <r_mmod_Solvation_Energy-OPLS-2005>
-227.524719238281

> <b_mmod_Minimization_Converged-OPLS-2005>
0

> <r_mmod_RMS_Derivative-OPLS-2005>
1.35748863220215

$$$$
26
                    3D
 Structure written by MMmdl.
159167  0  0  1  0            999 V2000
  -30.7280  -14.3755   20.5555 C   0  0  0  0  0  0
  -30.4182  -12.2400   19.4081 C   0  0  0  0  0  0
  -29.4926  -12.4901   18.1999 C   0  0  0  0  0  0
  -28.0107  -12.3741   18.6109 C   0  0  0  0  0  0
  -27.6708  -13.1950   19.8838 C   0  0  2  0  0  0
  -28.7117  -12.9356   20.9993 C   0  0  0  0  0  0
  -25.2634  -13.8144   20.5660 C   0  0  0  0  0  0
  -24.1874  -13.0440   20.9162 C   0  0  0  0  0  0
  -24.6407  -11.6898   20.8758 C   0  0  0  0  0  0
  -23.9073  -10.4285   21.0415 C   0  0  0  0  0  0
  -24.3618   -9.4198   21.9188 C   0  0  0  0  0  0
  -23.6285   -8.2242   22.0767 C   0  0  0  0  0  0
  -22.4269   -8.0286   21.3547 C   0  0  0  0  0  0
  -21.9911   -9.0267   20.4650 C   0  0  0  0  0  0
  -22.7253  -10.2137   20.3050 C   0  0  0  0  0  0
  -21.6850   -6.0735   22.5272 C   0  0  0  0  0  0
  -21.4016   -6.5633   23.8213 C   0  0  0  0  0  0
  -21.3659   -5.6787   24.9171 C   0  0  0  0  0  0
  -21.6042   -4.3050   24.7226 C   0  0  0  0  0  0
  -21.8822   -3.8143   23.4344 C   0  0  0  0  0  0
  -21.9198   -4.6962   22.3404 C   0  0  0  0  0  0
  -22.7886  -13.5247   21.1818 C   0  0  0  0  0  0
  -22.1661   -4.2147   21.0982 F   0  0  0  0  0  0
  -21.5632   -3.4536   25.7740 F   0  0  0  0  0  0
  -30.0507  -13.2074   20.4482 N   0  0  0  0  0  0
  -26.3079  -12.9285   20.3401 N   0  0  0  0  0  0
  -25.9329  -11.6454   20.5784 N   0  0  0  0  0  0
  -22.0537  -12.8239   22.0372 N   0  0  0  0  0  0
  -25.4365  -15.1861   20.4006 N   0  0  0  0  0  0
  -31.8585  -14.5637   20.0975 O   0  0  0  0  0  0
  -21.6632   -6.8879   21.4236 O   0  0  0  0  0  0
  -22.3577  -14.5572   20.6690 O   0  0  0  0  0  0
  -24.6078  -31.8728   23.2142 C   0  0  0  0  0  0
  -25.9000  -32.4848   23.8425 C   0  0  1  0  0  0
  -27.2433  -27.4952   20.0851 C   0  0  0  0  0  0
  -25.5882  -33.8642   24.2367 N   0  0  0  0  0  0
  -23.3944  -30.4961   21.5515 C   0  0  2  0  0  0
  -24.8439  -28.9656   20.1175 C   0  0  0  0  0  0
  -22.7372  -29.4700   22.5008 C   0  0  0  0  0  0
  -18.0289  -28.1353   22.8521 C   0  0  0  0  0  0
  -24.1488  -36.7329   23.2637 C   0  0  0  0  0  0
  -25.9152  -30.8550   21.3601 C   0  0  0  0  0  0
  -25.9973  -29.4910   20.7143 C   0  0  0  0  0  0
  -27.2001  -28.7591   20.7036 C   0  0  0  0  0  0
  -26.0819  -26.9699   19.4825 C   0  0  0  0  0  0
  -24.8774  -27.6989   19.5042 C   0  0  0  0  0  0
  -23.6019  -29.8245   20.1670 C   0  0  0  0  0  0
  -25.4103  -36.3132   24.0342 C   0  0  1  0  0  0
  -20.5863  -28.3668   23.1324 C   0  0  2  0  0  0
  -20.6776  -26.9425   22.5387 C   0  0  0  0  0  0
  -19.5734  -26.6371   21.5216 C   0  0  0  0  0  0
  -18.1947  -26.7883   22.1696 C   0  0  0  0  0  0
  -19.1530  -28.8827   23.2916 C   0  0  0  0  0  0
  -18.9451  -30.1435   23.8914 C   0  0  0  0  0  0
  -17.6456  -30.6577   24.0549 C   0  0  0  0  0  0
  -25.9014  -34.9490   23.5147 C   0  0  0  0  0  0
  -16.5352  -29.9076   23.6306 C   0  0  0  0  0  0
  -16.7277  -28.6480   23.0358 C   0  0  0  0  0  0
  -26.4454  -31.6608   25.0726 C   0  0  0  0  0  0
  -25.3742  -31.3690   26.1487 C   0  0  0  0  0  0
  -27.0283  -30.3064   24.6058 C   0  0  0  0  0  0
  -27.6046  -32.4311   25.7486 C   0  0  0  0  0  0
  -27.5583  -37.1817   24.8464 C   0  0  0  0  0  0
  -21.4105  -29.3072   22.3759 N   0  0  0  0  0  0
  -26.4303  -37.3804   23.9397 N   0  0  0  0  0  0
  -24.6568  -31.0876   22.1017 N   0  0  0  0  0  0
  -23.4164  -28.8236   23.3028 O   0  0  0  0  0  0
  -28.4168  -26.7921   20.0612 O   0  0  0  0  0  0
  -26.5573  -34.8929   22.4710 O   0  0  0  0  0  0
  -23.5280  -32.1459   23.7565 O   0  0  0  0  0  0
  -29.2139  -21.2236   21.0536 C   0  0  0  0  0  0
  -28.1682  -22.1304   21.3602 C   0  0  0  0  0  0
  -28.5872  -20.1764   20.4470 C   0  0  0  0  0  0
  -26.1408  -19.7140   19.8554 C   0  0  0  0  0  0
  -28.3068  -23.5117   21.9210 C   0  0  0  0  0  0
  -29.1905  -18.9430   19.8718 C   0  0  0  0  0  0
  -28.2260  -24.5328   20.7830 C   0  0  0  0  0  0
  -29.1128  -17.7250   20.8012 C   0  0  0  0  0  0
  -30.2580  -16.7547   20.4969 C   0  0  0  0  0  0
  -28.5974  -25.9557   21.1961 C   0  0  0  0  0  0
  -26.9809  -21.6681   20.9971 N   0  0  0  0  0  0
  -27.2366  -20.4704   20.4264 N   0  0  0  0  0  0
  -29.9827  -15.4045   20.9622 N   0  0  0  0  0  0
  -31.4640  -12.3225   19.1067 H   0  0  0  0  0  0
  -30.2978  -11.2217   19.7822 H   0  0  0  0  0  0
  -29.7140  -11.7788   17.4045 H   0  0  0  0  0  0
  -29.6815  -13.4804   17.7835 H   0  0  0  0  0  0
  -27.7961  -11.3186   18.7812 H   0  0  0  0  0  0
  -27.3682  -12.6833   17.7864 H   0  0  0  0  0  0
  -27.7284  -14.2475   19.6085 H   0  0  0  0  0  0
  -28.6620  -11.8965   21.3274 H   0  0  0  0  0  0
  -28.4971  -13.5291   21.8895 H   0  0  0  0  0  0
  -25.2767   -9.5669   22.4751 H   0  0  0  0  0  0
  -24.0000   -7.4630   22.7474 H   0  0  0  0  0  0
  -21.0849   -8.8786   19.8947 H   0  0  0  0  0  0
  -22.3727  -10.9673   19.6151 H   0  0  0  0  0  0
  -21.2002   -7.6141   23.9712 H   0  0  0  0  0  0
  -21.1475   -6.0519   25.9075 H   0  0  0  0  0  0
  -22.0606   -2.7604   23.2852 H   0  0  0  0  0  0
  -22.4145  -11.9892   22.4755 H   0  0  0  0  0  0
  -21.1156  -13.1266   22.2559 H   0  0  0  0  0  0
  -24.6688  -15.8414   20.4966 H   0  0  0  0  0  0
  -26.2833  -15.6179   20.0546 H   0  0  0  0  0  0
  -26.7084  -32.5598   23.1212 H   0  0  0  0  0  0
  -25.0067  -33.9820   25.0534 H   0  0  0  0  0  0
  -22.6808  -31.3112   21.4132 H   0  0  0  0  0  0
  -23.3741  -35.9673   23.3316 H   0  0  0  0  0  0
  -24.3590  -36.8922   22.2050 H   0  0  0  0  0  0
  -23.7251  -37.6544   23.6636 H   0  0  0  0  0  0
  -26.0168  -31.6202   20.5898 H   0  0  0  0  0  0
  -26.8055  -30.9130   21.9741 H   0  0  0  0  0  0
  -28.0933  -29.1649   21.1583 H   0  0  0  0  0  0
  -26.1122  -26.0071   18.9929 H   0  0  0  0  0  0
  -23.9903  -27.2894   19.0418 H   0  0  0  0  0  0
  -23.7047  -30.5966   19.4033 H   0  0  0  0  0  0
  -22.7277  -29.2392   19.8779 H   0  0  0  0  0  0
  -25.1282  -36.2009   25.0836 H   0  0  0  0  0  0
  -20.9961  -28.3221   24.1440 H   0  0  0  0  0  0
  -20.5719  -26.2287   23.3577 H   0  0  0  0  0  0
  -21.6643  -26.7515   22.1147 H   0  0  0  0  0  0
  -19.6879  -25.6291   21.1215 H   0  0  0  0  0  0
  -19.6623  -27.3204   20.6749 H   0  0  0  0  0  0
  -17.4174  -26.6580   21.4157 H   0  0  0  0  0  0
  -18.0439  -26.0042   22.9137 H   0  0  0  0  0  0
  -19.7919  -30.7248   24.2301 H   0  0  0  0  0  0
  -17.5003  -31.6249   24.5148 H   0  0  0  0  0  0
  -15.5351  -30.2977   23.7627 H   0  0  0  0  0  0
  -15.8667  -28.0812   22.7080 H   0  0  0  0  0  0
  -24.5907  -30.7046   25.7824 H   0  0  0  0  0  0
  -24.8947  -32.2840   26.4975 H   0  0  0  0  0  0
  -25.8110  -30.8834   27.0224 H   0  0  0  0  0  0
  -26.2811  -29.6827   24.1134 H   0  0  0  0  0  0
  -27.4109  -29.7288   25.4484 H   0  0  0  0  0  0
  -27.8622  -30.4411   23.9160 H   0  0  0  0  0  0
  -27.2675  -33.3586   26.2126 H   0  0  0  0  0  0
  -28.3826  -32.6905   25.0294 H   0  0  0  0  0  0
  -28.0752  -31.8398   26.5355 H   0  0  0  0  0  0
  -28.2610  -38.0104   24.7500 H   0  0  0  0  0  0
  -28.1064  -36.2632   24.6304 H   0  0  0  0  0  0
  -27.2294  -37.1496   25.8867 H   0  0  0  0  0  0
  -20.9232  -29.8816   21.7020 H   0  0  0  0  0  0
  -26.0193  -38.2884   24.1392 H   0  0  0  0  0  0
  -30.2762  -21.3435   21.2157 H   0  0  0  0  0  0
  -25.9798  -20.0337   18.8260 H   0  0  0  0  0  0
  -25.2267  -19.8774   20.4252 H   0  0  0  0  0  0
  -26.3674  -18.6491   19.8606 H   0  0  0  0  0  0
  -29.2615  -23.6049   22.4388 H   0  0  0  0  0  0
  -27.5327  -23.7086   22.6629 H   0  0  0  0  0  0
  -30.2349  -19.1589   19.6437 H   0  0  0  0  0  0
  -28.7339  -18.7046   18.9098 H   0  0  0  0  0  0
  -27.2178  -24.5066   20.3688 H   0  0  0  0  0  0
  -28.8991  -24.2316   19.9789 H   0  0  0  0  0  0
  -29.1910  -18.0379   21.8431 H   0  0  0  0  0  0
  -28.1355  -17.2554   20.6916 H   0  0  0  0  0  0
  -30.4078  -16.7126   19.4146 H   0  0  0  0  0  0
  -31.1949  -17.1134   20.9272 H   0  0  0  0  0  0
  -29.6427  -25.9967   21.5056 H   0  0  0  0  0  0
  -28.0018  -26.2807   22.0520 H   0  0  0  0  0  0
  -29.0631  -15.1988   21.3209 H   0  0  0  0  0  0
  1 25  1  0  0  0
  1 30  2  0  0  0
  1 83  1  0  0  0
  2  3  1  0  0  0
  2 25  1  0  0  0
  2 84  1  0  0  0
  2 85  1  0  0  0
  3  4  1  0  0  0
  3 86  1  0  0  0
  3 87  1  0  0  0
  4  5  1  0  0  0
  4 88  1  0  0  0
  4 89  1  0  0  0
  5  6  1  0  0  0
  5 26  1  0  0  0
  5 90  1  0  0  0
  6 25  1  0  0  0
  6 91  1  0  0  0
  6 92  1  0  0  0
  7  8  2  0  0  0
  7 26  1  0  0  0
  7 29  1  0  0  0
  8  9  1  0  0  0
  8 22  1  0  0  0
  9 10  1  0  0  0
  9 27  2  0  0  0
 10 11  2  0  0  0
 10 15  1  0  0  0
 11 12  1  0  0  0
 11 93  1  0  0  0
 12 13  2  0  0  0
 12 94  1  0  0  0
 13 14  1  0  0  0
 13 31  1  0  0  0
 14 15  2  0  0  0
 14 95  1  0  0  0
 15 96  1  0  0  0
 16 17  2  0  0  0
 16 21  1  0  0  0
 16 31  1  0  0  0
 17 18  1  0  0  0
 17 97  1  0  0  0
 18 19  2  0  0  0
 18 98  1  0  0  0
 19 20  1  0  0  0
 19 24  1  0  0  0
 20 21  2  0  0  0
 20 99  1  0  0  0
 21 23  1  0  0  0
 22 28  1  0  0  0
 22 32  2  0  0  0
 26 27  1  0  0  0
 28100  1  0  0  0
 28101  1  0  0  0
 29102  1  0  0  0
 29103  1  0  0  0
 33 34  1  0  0  0
 33 66  1  0  0  0
 33 70  2  0  0  0
 34 36  1  0  0  0
 34 59  1  0  0  0
 34104  1  0  0  0
 35 44  2  0  0  0
 35 45  1  0  0  0
 35 68  1  0  0  0
 36 56  1  0  0  0
 36105  1  0  0  0
 37 39  1  0  0  0
 37 47  1  0  0  0
 37 66  1  0  0  0
 37106  1  0  0  0
 38 43  2  0  0  0
 38 46  1  0  0  0
 38 47  1  0  0  0
 39 64  1  0  0  0
 39 67  2  0  0  0
 40 52  1  0  0  0
 40 53  2  0  0  0
 40 58  1  0  0  0
 41107  1  0  0  0
 41108  1  0  0  0
 41109  1  0  0  0
 41 48  1  0  0  0
 42 43  1  0  0  0
 42 66  1  0  0  0
 42110  1  0  0  0
 42111  1  0  0  0
 43 44  1  0  0  0
 44112  1  0  0  0
 45 46  2  0  0  0
 45113  1  0  0  0
 46114  1  0  0  0
 47115  1  0  0  0
 47116  1  0  0  0
 48 56  1  0  0  0
 48 65  1  0  0  0
 48117  1  0  0  0
 49 50  1  0  0  0
 49 53  1  0  0  0
 49 64  1  0  0  0
 49118  1  0  0  0
 50 51  1  0  0  0
 50119  1  0  0  0
 50120  1  0  0  0
 51 52  1  0  0  0
 51121  1  0  0  0
 51122  1  0  0  0
 52123  1  0  0  0
 52124  1  0  0  0
 53 54  1  0  0  0
 54 55  2  0  0  0
 54125  1  0  0  0
 55 57  1  0  0  0
 55126  1  0  0  0
 56 69  2  0  0  0
 57 58  2  0  0  0
 57127  1  0  0  0
 58128  1  0  0  0
 59 60  1  0  0  0
 59 61  1  0  0  0
 59 62  1  0  0  0
 60129  1  0  0  0
 60130  1  0  0  0
 60131  1  0  0  0
 61132  1  0  0  0
 61133  1  0  0  0
 61134  1  0  0  0
 62135  1  0  0  0
 62136  1  0  0  0
 62137  1  0  0  0
 63 65  1  0  0  0
 63138  1  0  0  0
 63139  1  0  0  0
 63140  1  0  0  0
 64141  1  0  0  0
 65142  1  0  0  0
 68 80  1  0  0  0
 71 72  1  0  0  0
 71 73  2  0  0  0
 71143  1  0  0  0
 72 75  1  0  0  0
 72 81  2  0  0  0
 73 76  1  0  0  0
 73 82  1  0  0  0
 74 82  1  0  0  0
 74144  1  0  0  0
 74145  1  0  0  0
 74146  1  0  0  0
 75 77  1  0  0  0
 75147  1  0  0  0
 75148  1  0  0  0
 76 78  1  0  0  0
 76149  1  0  0  0
 76150  1  0  0  0
 77 80  1  0  0  0
 77151  1  0  0  0
 77152  1  0  0  0
 78 79  1  0  0  0
 78153  1  0  0  0
 78154  1  0  0  0
 79 83  1  0  0  0
 79155  1  0  0  0
 79156  1  0  0  0
 80157  1  0  0  0
 80158  1  0  0  0
 81 82  1  0  0  0
 83159  1  0  0  0
M  ISO  4   1 100  68 101  80 101  83 100
M  END
> <chiral flag>
0

> <version>
0

> <s_m_source_file>
/data/baiqing/PycharmProjects/Reinvent-master-3.2/result/LINK_invent/BTK/process_docking_weight1_custom_sum_contain_oxygen_bond_distance_aromatic_linkinvent_7_9_3/rearranged_h_0045.sdf

> <i_m_source_file_index>
27

> <r_mmod_Potential_Energy-OPLS-2005>
-161.480987548828

> <r_mmod_Stretch_Energy-OPLS-2005>
27.7963409423828

> <r_mmod_Bend_Energy-OPLS-2005>
83.848503112793

> <r_mmod_Torsional_Energy-OPLS-2005>
232.602325439453

> <r_mmod_Improper_Torsional_Energy-OPLS-2005>
7.58270740509033

> <r_mmod_Van_der_Waal_Energy-OPLS-2005>
127.674499511719

> <r_mmod_Electrostatic_Energy-OPLS-2005>
-428.070251464844

> <r_mmod_Solvation_Energy-OPLS-2005>
-222.454208374023

> <b_mmod_Minimization_Converged-OPLS-2005>
0

> <r_mmod_RMS_Derivative-OPLS-2005>
2.21323537826538

$$$$
27
                    3D
 Structure written by MMmdl.
157165  0  0  1  0            999 V2000
  -30.6985  -14.4729   20.5906 C   0  0  0  0  0  0
  -30.4228  -12.3191   19.4106 C   0  0  0  0  0  0
  -29.4876  -12.5068   18.1993 C   0  0  0  0  0  0
  -28.0116  -12.3590   18.6181 C   0  0  0  0  0  0
  -27.6584  -13.2033   19.8722 C   0  0  2  0  0  0
  -28.7012  -12.9843   20.9895 C   0  0  0  0  0  0
  -25.2588  -13.8156   20.5692 C   0  0  0  0  0  0
  -24.1836  -13.0442   20.9187 C   0  0  0  0  0  0
  -24.6381  -11.6905   20.8738 C   0  0  0  0  0  0
  -23.9046  -10.4295   21.0408 C   0  0  0  0  0  0
  -24.3605   -9.4208   21.9185 C   0  0  0  0  0  0
  -23.6288   -8.2239   22.0754 C   0  0  0  0  0  0
  -22.4271   -8.0278   21.3542 C   0  0  0  0  0  0
  -21.9900   -9.0248   20.4641 C   0  0  0  0  0  0
  -22.7221  -10.2133   20.3054 C   0  0  0  0  0  0
  -21.6852   -6.0736   22.5277 C   0  0  0  0  0  0
  -21.4016   -6.5638   23.8212 C   0  0  0  0  0  0
  -21.3660   -5.6790   24.9174 C   0  0  0  0  0  0
  -21.6045   -4.3053   24.7222 C   0  0  0  0  0  0
  -21.8821   -3.8148   23.4343 C   0  0  0  0  0  0
  -21.9196   -4.6966   22.3400 C   0  0  0  0  0  0
  -22.7857  -13.5241   21.1854 C   0  0  0  0  0  0
  -22.1659   -4.2151   21.0976 F   0  0  0  0  0  0
  -21.5632   -3.4534   25.7734 F   0  0  0  0  0  0
  -30.0269  -13.3002   20.4327 N   0  0  0  0  0  0
  -26.3007  -12.9314   20.3361 N   0  0  0  0  0  0
  -25.9302  -11.6479   20.5767 N   0  0  0  0  0  0
  -22.0497  -12.8226   22.0405 N   0  0  0  0  0  0
  -25.4338  -15.1872   20.4099 N   0  0  0  0  0  0
  -31.8247  -14.6689   20.1266 O   0  0  0  0  0  0
  -21.6639   -6.8876   21.4238 O   0  0  0  0  0  0
  -22.3536  -14.5549   20.6707 O   0  0  0  0  0  0
  -24.6163  -31.8669   23.2102 C   0  0  0  0  0  0
  -25.9046  -32.4816   23.8401 C   0  0  1  0  0  0
  -27.2266  -27.4132   20.0900 C   0  0  0  0  0  0
  -25.5894  -33.8617   24.2328 N   0  0  0  0  0  0
  -23.4044  -30.4926   21.5514 C   0  0  2  0  0  0
  -24.8484  -28.9605   20.1124 C   0  0  0  0  0  0
  -22.7423  -29.4652   22.4986 C   0  0  0  0  0  0
  -18.0272  -28.1380   22.8491 C   0  0  0  0  0  0
  -24.1489  -36.7318   23.2637 C   0  0  0  0  0  0
  -25.9366  -30.8264   21.3665 C   0  0  0  0  0  0
  -26.0118  -29.4607   20.7093 C   0  0  0  0  0  0
  -27.2036  -28.6953   20.6935 C   0  0  0  0  0  0
  -26.0397  -26.9374   19.4834 C   0  0  0  0  0  0
  -24.8581  -27.6992   19.4972 C   0  0  0  0  0  0
  -23.6120  -29.8286   20.1647 C   0  0  0  0  0  0
  -25.4108  -36.3112   24.0340 C   0  0  1  0  0  0
  -20.5864  -28.3667   23.1319 C   0  0  2  0  0  0
  -20.6765  -26.9403   22.5420 C   0  0  0  0  0  0
  -19.5741  -26.6386   21.5218 C   0  0  0  0  0  0
  -18.1917  -26.7923   22.1626 C   0  0  0  0  0  0
  -19.1524  -28.8841   23.2896 C   0  0  0  0  0  0
  -18.9454  -30.1445   23.8905 C   0  0  0  0  0  0
  -17.6456  -30.6584   24.0567 C   0  0  0  0  0  0
  -25.9038  -34.9474   23.5134 C   0  0  0  0  0  0
  -16.5348  -29.9088   23.6329 C   0  0  0  0  0  0
  -16.7261  -28.6506   23.0343 C   0  0  0  0  0  0
  -26.4468  -31.6595   25.0732 C   0  0  0  0  0  0
  -25.3730  -31.3702   26.1480 C   0  0  0  0  0  0
  -27.0291  -30.3036   24.6106 C   0  0  0  0  0  0
  -27.6045  -32.4311   25.7489 C   0  0  0  0  0  0
  -27.5587  -37.1812   24.8464 C   0  0  0  0  0  0
  -21.4149  -29.3032   22.3730 N   0  0  0  0  0  0
  -26.4298  -37.3795   23.9410 N   0  0  0  0  0  0
  -24.6709  -31.0763   22.1007 N   0  0  0  0  0  0
  -23.4192  -28.8179   23.3020 O   0  0  0  0  0  0
  -28.3886  -26.6574   20.1115 O   0  0  0  0  0  0
  -26.5604  -34.8927   22.4696 O   0  0  0  0  0  0
  -23.5356  -32.1423   23.7491 O   0  0  0  0  0  0
  -28.9327  -22.3264   21.7908 C   0  0  0  0  0  0
  -28.8478  -20.9175   21.8484 C   0  0  0  0  0  0
  -29.3052  -22.9271   20.5705 C   0  0  0  0  0  0
  -29.1404  -20.1894   20.6672 C   0  0  0  0  0  0
  -28.4587  -20.2361   23.1489 C   0  0  0  0  0  0
  -29.4885  -24.4484   20.4714 C   0  0  0  0  0  0
  -29.0811  -18.6506   20.6114 C   0  0  0  0  0  0
  -30.4614  -17.9475   20.7087 C   0  0  0  0  0  0
  -30.5671  -16.7383   21.6836 C   0  0  0  0  0  0
  -28.2451  -25.2243   19.9801 C   0  0  0  0  0  0
  -29.5611  -22.1747   19.4672 N   0  0  0  0  0  0
  -29.4826  -20.8332   19.5179 N   0  0  0  0  0  0
  -30.0172  -15.4554   21.2122 N   0  0  0  0  0  0
  -31.4639  -12.4315   19.1033 H   0  0  0  0  0  0
  -30.3390  -11.3068   19.8099 H   0  0  0  0  0  0
  -29.7285  -11.7827   17.4198 H   0  0  0  0  0  0
  -29.6452  -13.4931   17.7608 H   0  0  0  0  0  0
  -27.8301  -11.3032   18.8207 H   0  0  0  0  0  0
  -27.3550  -12.6238   17.7886 H   0  0  0  0  0  0
  -27.7031  -14.2509   19.5744 H   0  0  0  0  0  0
  -28.6843  -11.9457   21.3236 H   0  0  0  0  0  0
  -28.4589  -13.5762   21.8729 H   0  0  0  0  0  0
  -25.2755   -9.5688   22.4753 H   0  0  0  0  0  0
  -24.0005   -7.4631   22.7463 H   0  0  0  0  0  0
  -21.0840   -8.8759   19.8933 H   0  0  0  0  0  0
  -22.3682  -10.9672   19.6159 H   0  0  0  0  0  0
  -21.2002   -7.6145   23.9714 H   0  0  0  0  0  0
  -21.1482   -6.0521   25.9078 H   0  0  0  0  0  0
  -22.0601   -2.7609   23.2840 H   0  0  0  0  0  0
  -22.4114  -11.9882   22.4786 H   0  0  0  0  0  0
  -21.1111  -13.1243   22.2616 H   0  0  0  0  0  0
  -24.6714  -15.8472   20.5198 H   0  0  0  0  0  0
  -26.2889  -15.6203   20.0851 H   0  0  0  0  0  0
  -26.7104  -32.5522   23.1153 H   0  0  0  0  0  0
  -25.0025  -33.9774   25.0461 H   0  0  0  0  0  0
  -22.6928  -31.3097   21.4143 H   0  0  0  0  0  0
  -23.3749  -35.9654   23.3308 H   0  0  0  0  0  0
  -24.3578  -36.8929   22.2050 H   0  0  0  0  0  0
  -23.7245  -37.6528   23.6644 H   0  0  0  0  0  0
  -26.0534  -31.5952   20.6016 H   0  0  0  0  0  0
  -26.8230  -30.8759   21.9875 H   0  0  0  0  0  0
  -28.1003  -29.0762   21.1615 H   0  0  0  0  0  0
  -26.0029  -25.9766   18.9910 H   0  0  0  0  0  0
  -23.9645  -27.3109   19.0290 H   0  0  0  0  0  0
  -23.7166  -30.6050   19.4058 H   0  0  0  0  0  0
  -22.7353  -29.2485   19.8703 H   0  0  0  0  0  0
  -25.1282  -36.1986   25.0834 H   0  0  0  0  0  0
  -20.9947  -28.3232   24.1443 H   0  0  0  0  0  0
  -20.5688  -26.2268   23.3604 H   0  0  0  0  0  0
  -21.6633  -26.7451   22.1200 H   0  0  0  0  0  0
  -19.6911  -25.6302   21.1232 H   0  0  0  0  0  0
  -19.6691  -27.3212   20.6757 H   0  0  0  0  0  0
  -17.4193  -26.6676   21.4022 H   0  0  0  0  0  0
  -18.0311  -26.0069   22.9026 H   0  0  0  0  0  0
  -19.7935  -30.7251   24.2286 H   0  0  0  0  0  0
  -17.5016  -31.6266   24.5161 H   0  0  0  0  0  0
  -15.5348  -30.2988   23.7654 H   0  0  0  0  0  0
  -15.8658  -28.0829   22.7047 H   0  0  0  0  0  0
  -24.5903  -30.7047   25.7818 H   0  0  0  0  0  0
  -24.8918  -32.2855   26.4936 H   0  0  0  0  0  0
  -25.8088  -30.8866   27.0232 H   0  0  0  0  0  0
  -26.2829  -29.6806   24.1158 H   0  0  0  0  0  0
  -27.4054  -29.7264   25.4560 H   0  0  0  0  0  0
  -27.8670  -30.4350   23.9256 H   0  0  0  0  0  0
  -27.2666  -33.3603   26.2088 H   0  0  0  0  0  0
  -28.3841  -32.6884   25.0305 H   0  0  0  0  0  0
  -28.0720  -31.8417   26.5388 H   0  0  0  0  0  0
  -28.2604  -38.0111   24.7511 H   0  0  0  0  0  0
  -28.1085  -36.2641   24.6286 H   0  0  0  0  0  0
  -27.2302  -37.1455   25.8868 H   0  0  0  0  0  0
  -20.9314  -29.8767   21.6963 H   0  0  0  0  0  0
  -26.0197  -38.2882   24.1402 H   0  0  0  0  0  0
  -28.7341  -22.9356   22.6611 H   0  0  0  0  0  0
  -28.3893  -20.9542   23.9659 H   0  0  0  0  0  0
  -29.1976  -19.4851   23.4286 H   0  0  0  0  0  0
  -27.4872  -19.7509   23.0507 H   0  0  0  0  0  0
  -30.3381  -24.6627   19.8229 H   0  0  0  0  0  0
  -29.7670  -24.8165   21.4583 H   0  0  0  0  0  0
  -28.5988  -18.3592   19.6775 H   0  0  0  0  0  0
  -28.4176  -18.2798   21.3906 H   0  0  0  0  0  0
  -31.1751  -18.6896   21.0695 H   0  0  0  0  0  0
  -30.8190  -17.6815   19.7133 H   0  0  0  0  0  0
  -31.6180  -16.5875   21.9380 H   0  0  0  0  0  0
  -30.0825  -16.9882   22.6280 H   0  0  0  0  0  0
  -27.3923  -24.8883   20.5732 H   0  0  0  0  0  0
  -28.0471  -24.9645   18.9390 H   0  0  0  0  0  0
  -29.0815  -15.2204   21.5085 H   0  0  0  0  0  0
  1 25  1  0  0  0
  1 30  2  0  0  0
  1 83  1  0  0  0
  2  3  1  0  0  0
  2 25  1  0  0  0
  2 84  1  0  0  0
  2 85  1  0  0  0
  3  4  1  0  0  0
  3 86  1  0  0  0
  3 87  1  0  0  0
  4  5  1  0  0  0
  4 88  1  0  0  0
  4 89  1  0  0  0
  5  6  1  0  0  0
  5 26  1  0  0  0
  5 90  1  0  0  0
  6 25  1  0  0  0
  6 91  1  0  0  0
  6 92  1  0  0  0
  7  8  2  0  0  0
  7 26  1  0  0  0
  7 29  1  0  0  0
  8  9  1  0  0  0
  8 22  1  0  0  0
  9 10  1  0  0  0
  9 27  2  0  0  0
 10 11  2  0  0  0
 10 15  1  0  0  0
 11 12  1  0  0  0
 11 93  1  0  0  0
 12 13  2  0  0  0
 12 94  1  0  0  0
 13 14  1  0  0  0
 13 31  1  0  0  0
 14 15  2  0  0  0
 14 95  1  0  0  0
 15 96  1  0  0  0
 16 17  2  0  0  0
 16 21  1  0  0  0
 16 31  1  0  0  0
 17 18  1  0  0  0
 17 97  1  0  0  0
 18 19  2  0  0  0
 18 98  1  0  0  0
 19 20  1  0  0  0
 19 24  1  0  0  0
 20 21  2  0  0  0
 20 99  1  0  0  0
 21 23  1  0  0  0
 22 28  1  0  0  0
 22 32  2  0  0  0
 26 27  1  0  0  0
 28100  1  0  0  0
 28101  1  0  0  0
 29102  1  0  0  0
 29103  1  0  0  0
 33 34  1  0  0  0
 33 66  1  0  0  0
 33 70  2  0  0  0
 34 36  1  0  0  0
 34 59  1  0  0  0
 34104  1  0  0  0
 35 44  2  0  0  0
 35 45  1  0  0  0
 35 68  1  0  0  0
 36 56  1  0  0  0
 36105  1  0  0  0
 37 39  1  0  0  0
 37 47  1  0  0  0
 37 66  1  0  0  0
 37106  1  0  0  0
 38 43  2  0  0  0
 38 46  1  0  0  0
 38 47  1  0  0  0
 39 64  1  0  0  0
 39 67  2  0  0  0
 40 52  1  0  0  0
 40 53  2  0  0  0
 40 58  1  0  0  0
 41107  1  0  0  0
 41108  1  0  0  0
 41109  1  0  0  0
 41 48  1  0  0  0
 42 43  1  0  0  0
 42 66  1  0  0  0
 42110  1  0  0  0
 42111  1  0  0  0
 43 44  1  0  0  0
 44112  1  0  0  0
 45 46  2  0  0  0
 45113  1  0  0  0
 46114  1  0  0  0
 47115  1  0  0  0
 47116  1  0  0  0
 48 56  1  0  0  0
 48 65  1  0  0  0
 48117  1  0  0  0
 49 50  1  0  0  0
 49 53  1  0  0  0
 49 64  1  0  0  0
 49118  1  0  0  0
 50 51  1  0  0  0
 50119  1  0  0  0
 50120  1  0  0  0
 51 52  1  0  0  0
 51121  1  0  0  0
 51122  1  0  0  0
 52123  1  0  0  0
 52124  1  0  0  0
 53 54  1  0  0  0
 54 55  2  0  0  0
 54125  1  0  0  0
 55 57  1  0  0  0
 55126  1  0  0  0
 56 69  2  0  0  0
 57 58  2  0  0  0
 57127  1  0  0  0
 58128  1  0  0  0
 59 60  1  0  0  0
 59 61  1  0  0  0
 59 62  1  0  0  0
 60129  1  0  0  0
 60130  1  0  0  0
 60131  1  0  0  0
 61132  1  0  0  0
 61133  1  0  0  0
 61134  1  0  0  0
 62135  1  0  0  0
 62136  1  0  0  0
 62137  1  0  0  0
 63 65  1  0  0  0
 63138  1  0  0  0
 63139  1  0  0  0
 63140  1  0  0  0
 64141  1  0  0  0
 65142  1  0  0  0
 68 80  1  0  0  0
 71 72  2  0  0  0
 71 73  1  0  0  0
 71143  1  0  0  0
 72 74  1  0  0  0
 72 75  1  0  0  0
 73 76  1  0  0  0
 73 81  2  0  0  0
 74 77  1  0  0  0
 74 82  2  0  0  0
 75144  1  0  0  0
 75145  1  0  0  0
 75146  1  0  0  0
 76 80  1  0  0  0
 76147  1  0  0  0
 76148  1  0  0  0
 77 78  1  0  0  0
 77149  1  0  0  0
 77150  1  0  0  0
 78 79  1  0  0  0
 78151  1  0  0  0
 78152  1  0  0  0
 79 83  1  0  0  0
 79153  1  0  0  0
 79154  1  0  0  0
 80155  1  0  0  0
 80156  1  0  0  0
 81 82  1  0  0  0
 83157  1  0  0  0
M  ISO  4   1 100  68 101  80 101  83 100
M  END
> <chiral flag>
0

> <version>
0

> <s_m_source_file>
/data/baiqing/PycharmProjects/Reinvent-master-3.2/result/LINK_invent/BTK/process_docking_weight1_custom_sum_contain_oxygen_bond_distance_aromatic_linkinvent_7_9_3/rearranged_h_0045.sdf

> <i_m_source_file_index>
28

> <r_mmod_Potential_Energy-OPLS-2005>
-89.2525634765625

> <r_mmod_Stretch_Energy-OPLS-2005>
41.6635704040527

> <r_mmod_Bend_Energy-OPLS-2005>
100.760299682617

> <r_mmod_Torsional_Energy-OPLS-2005>
195.31982421875

> <r_mmod_Improper_Torsional_Energy-OPLS-2005>
2.58284115791321

> <r_mmod_Van_der_Waal_Energy-OPLS-2005>
154.220993041992

> <r_mmod_Electrostatic_Energy-OPLS-2005>
-360.350799560547

> <r_mmod_Solvation_Energy-OPLS-2005>
-238.092559814453

> <b_mmod_Minimization_Converged-OPLS-2005>
0

> <r_mmod_RMS_Derivative-OPLS-2005>
1.14279055595398

$$$$
28
                    3D
 Structure written by MMmdl.
167175  0  0  1  0            999 V2000
  -30.7650  -14.3453   20.7299 C   0  0  0  0  0  0
  -30.4237  -12.3004   19.3834 C   0  0  0  0  0  0
  -29.4849  -12.5378   18.1863 C   0  0  0  0  0  0
  -28.0092  -12.3844   18.6019 C   0  0  0  0  0  0
  -27.6665  -13.1974   19.8771 C   0  0  2  0  0  0
  -28.7012  -12.9185   20.9871 C   0  0  0  0  0  0
  -25.2613  -13.8145   20.5659 C   0  0  0  0  0  0
  -24.1846  -13.0439   20.9150 C   0  0  0  0  0  0
  -24.6382  -11.6899   20.8707 C   0  0  0  0  0  0
  -23.9039  -10.4296   21.0393 C   0  0  0  0  0  0
  -24.3598   -9.4216   21.9173 C   0  0  0  0  0  0
  -23.6283   -8.2247   22.0750 C   0  0  0  0  0  0
  -22.4267   -8.0274   21.3542 C   0  0  0  0  0  0
  -21.9891   -9.0243   20.4643 C   0  0  0  0  0  0
  -22.7209  -10.2129   20.3047 C   0  0  0  0  0  0
  -21.6852   -6.0724   22.5275 C   0  0  0  0  0  0
  -21.4013   -6.5631   23.8207 C   0  0  0  0  0  0
  -21.3663   -5.6787   24.9169 C   0  0  0  0  0  0
  -21.6051   -4.3051   24.7222 C   0  0  0  0  0  0
  -21.8819   -3.8136   23.4344 C   0  0  0  0  0  0
  -21.9193   -4.6951   22.3398 C   0  0  0  0  0  0
  -22.7875  -13.5254   21.1825 C   0  0  0  0  0  0
  -22.1662   -4.2135   21.0977 F   0  0  0  0  0  0
  -21.5630   -3.4538   25.7736 F   0  0  0  0  0  0
  -30.0470  -13.2247   20.4604 N   0  0  0  0  0  0
  -26.3039  -12.9293   20.3338 N   0  0  0  0  0  0
  -25.9301  -11.6461   20.5716 N   0  0  0  0  0  0
  -22.0509  -12.8254   22.0385 N   0  0  0  0  0  0
  -25.4379  -15.1859   20.4079 N   0  0  0  0  0  0
  -31.7703  -14.6872   20.0988 O   0  0  0  0  0  0
  -21.6637   -6.8867   21.4239 O   0  0  0  0  0  0
  -22.3566  -14.5560   20.6670 O   0  0  0  0  0  0
  -24.6097  -31.8716   23.2134 C   0  0  0  0  0  0
  -25.9002  -32.4844   23.8425 C   0  0  1  0  0  0
  -27.2400  -27.4697   20.0974 C   0  0  0  0  0  0
  -25.5874  -33.8642   24.2357 N   0  0  0  0  0  0
  -23.3971  -30.4935   21.5533 C   0  0  2  0  0  0
  -24.8463  -28.9588   20.1234 C   0  0  0  0  0  0
  -22.7386  -29.4665   22.5017 C   0  0  0  0  0  0
  -18.0266  -28.1375   22.8497 C   0  0  0  0  0  0
  -24.1485  -36.7332   23.2639 C   0  0  0  0  0  0
  -25.9219  -30.8433   21.3659 C   0  0  0  0  0  0
  -26.0010  -29.4753   20.7265 C   0  0  0  0  0  0
  -27.2011  -28.7342   20.7238 C   0  0  0  0  0  0
  -26.0768  -26.9627   19.4865 C   0  0  0  0  0  0
  -24.8754  -27.6962   19.5055 C   0  0  0  0  0  0
  -23.6060  -29.8223   20.1696 C   0  0  0  0  0  0
  -25.4103  -36.3129   24.0344 C   0  0  1  0  0  0
  -20.5852  -28.3653   23.1334 C   0  0  2  0  0  0
  -20.6761  -26.9397   22.5416 C   0  0  0  0  0  0
  -19.5739  -26.6389   21.5211 C   0  0  0  0  0  0
  -18.1915  -26.7927   22.1623 C   0  0  0  0  0  0
  -19.1513  -28.8833   23.2915 C   0  0  0  0  0  0
  -18.9443  -30.1442   23.8922 C   0  0  0  0  0  0
  -17.6445  -30.6584   24.0571 C   0  0  0  0  0  0
  -25.9025  -34.9488   23.5152 C   0  0  0  0  0  0
  -16.5337  -29.9085   23.6328 C   0  0  0  0  0  0
  -16.7255  -28.6502   23.0349 C   0  0  0  0  0  0
  -26.4450  -31.6600   25.0729 C   0  0  0  0  0  0
  -25.3719  -31.3688   26.1479 C   0  0  0  0  0  0
  -27.0276  -30.3047   24.6070 C   0  0  0  0  0  0
  -27.6047  -32.4302   25.7476 C   0  0  0  0  0  0
  -27.5583  -37.1823   24.8463 C   0  0  0  0  0  0
  -21.4118  -29.3028   22.3756 N   0  0  0  0  0  0
  -26.4300  -37.3799   23.9401 N   0  0  0  0  0  0
  -24.6607  -31.0836   22.1031 N   0  0  0  0  0  0
  -23.4175  -28.8217   23.3051 O   0  0  0  0  0  0
  -28.3853  -26.7213   19.9947 O   0  0  0  0  0  0
  -26.5587  -34.8927   22.4712 O   0  0  0  0  0  0
  -23.5293  -32.1464   23.7531 O   0  0  0  0  0  0
  -28.9680  -23.1606   22.9858 C   0  0  0  0  0  0
  -30.4500  -25.0019   23.4826 C   0  0  0  0  0  0
  -29.2736  -24.5301   22.8745 C   0  0  0  0  0  0
  -29.8684  -22.2995   23.6474 C   0  0  0  0  0  0
  -31.0310  -22.8740   24.2167 C   0  0  0  0  0  0
  -32.0562  -22.0508   24.9767 C   0  0  0  0  0  0
  -29.0761  -20.0865   21.4663 C   0  0  0  0  0  0
  -28.3571  -25.4603   22.0890 C   0  0  0  0  0  0
  -29.5387  -20.8086   23.7845 C   0  0  0  0  0  0
  -30.4173  -17.5163   21.9396 C   0  0  0  0  0  0
  -30.9409  -16.1645   22.4698 C   0  0  0  0  0  0
  -30.2523  -18.5649   23.0692 C   0  0  0  0  0  0
  -29.1133  -26.4592   21.1874 C   0  0  0  0  0  0
  -31.3078  -24.1933   24.1367 N   0  0  0  0  0  0
  -30.3298  -15.0182   21.8015 N   0  0  0  0  0  0
  -29.9851  -19.9693   22.6351 N   0  3  1  0  0  0
  -31.4644  -12.4229   19.0779 H   0  0  0  0  0  0
  -30.3383  -11.2715   19.7366 H   0  0  0  0  0  0
  -29.7214  -11.8431   17.3795 H   0  0  0  0  0  0
  -29.6494  -13.5392   17.7859 H   0  0  0  0  0  0
  -27.8199  -11.3247   18.7759 H   0  0  0  0  0  0
  -27.3546  -12.6788   17.7805 H   0  0  0  0  0  0
  -27.7313  -14.2545   19.6174 H   0  0  0  0  0  0
  -28.6655  -11.8673   21.2780 H   0  0  0  0  0  0
  -28.4330  -13.4694   21.8882 H   0  0  0  0  0  0
  -25.2747   -9.5696   22.4741 H   0  0  0  0  0  0
  -23.9993   -7.4643   22.7474 H   0  0  0  0  0  0
  -21.0817   -8.8751   19.8958 H   0  0  0  0  0  0
  -22.3659  -10.9656   19.6148 H   0  0  0  0  0  0
  -21.2006   -7.6139   23.9704 H   0  0  0  0  0  0
  -21.1490   -6.0518   25.9072 H   0  0  0  0  0  0
  -22.0599   -2.7597   23.2845 H   0  0  0  0  0  0
  -22.4104  -11.9912   22.4779 H   0  0  0  0  0  0
  -21.1126  -13.1286   22.2580 H   0  0  0  0  0  0
  -24.6792  -15.8496   20.5188 H   0  0  0  0  0  0
  -26.3006  -15.6177   20.1003 H   0  0  0  0  0  0
  -26.7077  -32.5576   23.1199 H   0  0  0  0  0  0
  -25.0013  -33.9818   25.0495 H   0  0  0  0  0  0
  -22.6833  -31.3082   21.4149 H   0  0  0  0  0  0
  -23.3734  -35.9679   23.3317 H   0  0  0  0  0  0
  -24.3584  -36.8925   22.2051 H   0  0  0  0  0  0
  -23.7248  -37.6551   23.6636 H   0  0  0  0  0  0
  -26.0267  -31.6021   20.5894 H   0  0  0  0  0  0
  -26.8132  -30.9050   21.9784 H   0  0  0  0  0  0
  -28.0919  -29.1478   21.1742 H   0  0  0  0  0  0
  -26.1036  -26.0007   18.9937 H   0  0  0  0  0  0
  -23.9902  -27.2936   19.0328 H   0  0  0  0  0  0
  -23.7124  -30.5955   19.4080 H   0  0  0  0  0  0
  -22.7317  -29.2385   19.8767 H   0  0  0  0  0  0
  -25.1278  -36.2012   25.0838 H   0  0  0  0  0  0
  -20.9948  -28.3215   24.1453 H   0  0  0  0  0  0
  -20.5675  -26.2256   23.3592 H   0  0  0  0  0  0
  -21.6634  -26.7457   22.1207 H   0  0  0  0  0  0
  -19.6900  -25.6307   21.1221 H   0  0  0  0  0  0
  -19.6682  -27.3221   20.6760 H   0  0  0  0  0  0
  -17.4191  -26.6679   21.4017 H   0  0  0  0  0  0
  -18.0318  -26.0060   22.9014 H   0  0  0  0  0  0
  -19.7919  -30.7253   24.2298 H   0  0  0  0  0  0
  -17.5000  -31.6267   24.5166 H   0  0  0  0  0  0
  -15.5338  -30.2994   23.7635 H   0  0  0  0  0  0
  -15.8657  -28.0828   22.7046 H   0  0  0  0  0  0
  -24.5891  -30.7041   25.7805 H   0  0  0  0  0  0
  -24.8907  -32.2838   26.4946 H   0  0  0  0  0  0
  -25.8072  -30.8838   27.0224 H   0  0  0  0  0  0
  -26.2824  -29.6830   24.1096 H   0  0  0  0  0  0
  -27.4034  -29.7251   25.4513 H   0  0  0  0  0  0
  -27.8660  -30.4385   23.9228 H   0  0  0  0  0  0
  -27.2698  -33.3590   26.2105 H   0  0  0  0  0  0
  -28.3827  -32.6881   25.0278 H   0  0  0  0  0  0
  -28.0753  -31.8391   26.5342 H   0  0  0  0  0  0
  -28.2613  -38.0108   24.7506 H   0  0  0  0  0  0
  -28.1069  -36.2644   24.6299 H   0  0  0  0  0  0
  -27.2305  -37.1490   25.8868 H   0  0  0  0  0  0
  -20.9263  -29.8749   21.6988 H   0  0  0  0  0  0
  -26.0196  -38.2885   24.1381 H   0  0  0  0  0  0
  -28.0572  -22.7712   22.5531 H   0  0  0  0  0  0
  -30.7253  -26.0450   23.4330 H   0  0  0  0  0  0
  -32.3476  -21.1678   24.4085 H   0  0  0  0  0  0
  -31.6507  -21.7309   25.9366 H   0  0  0  0  0  0
  -32.9623  -22.6245   25.1754 H   0  0  0  0  0  0
  -28.9385  -21.1244   21.1689 H   0  0  0  0  0  0
  -28.0950  -19.6640   21.6853 H   0  0  0  0  0  0
  -29.4783  -19.5793   20.5903 H   0  0  0  0  0  0
  -27.7011  -25.9970   22.7757 H   0  0  0  0  0  0
  -27.7052  -24.8452   21.4668 H   0  0  0  0  0  0
  -28.4639  -20.6856   23.9311 H   0  0  0  0  0  0
  -29.9822  -20.4390   24.7094 H   0  0  0  0  0  0
  -29.4527  -17.3669   21.4523 H   0  0  0  0  0  0
  -31.1015  -17.8792   21.1710 H   0  0  0  0  0  0
  -30.7009  -16.0617   23.5292 H   0  0  0  0  0  0
  -32.0299  -16.1208   22.4049 H   0  0  0  0  0  0
  -31.1508  -18.5725   23.6893 H   0  0  0  0  0  0
  -29.4379  -18.2344   23.7167 H   0  0  0  0  0  0
  -30.0453  -26.0054   20.8490 H   0  0  0  0  0  0
  -29.3938  -27.3624   21.7295 H   0  0  0  0  0  0
  -29.5170  -14.6208   22.2498 H   0  0  0  0  0  0
  -30.8762  -20.3340   22.3342 H   0  0  0  0  0  0
  1 25  1  0  0  0
  1 30  2  0  0  0
  1 85  1  0  0  0
  2  3  1  0  0  0
  2 25  1  0  0  0
  2 87  1  0  0  0
  2 88  1  0  0  0
  3  4  1  0  0  0
  3 89  1  0  0  0
  3 90  1  0  0  0
  4  5  1  0  0  0
  4 91  1  0  0  0
  4 92  1  0  0  0
  5  6  1  0  0  0
  5 26  1  0  0  0
  5 93  1  0  0  0
  6 25  1  0  0  0
  6 94  1  0  0  0
  6 95  1  0  0  0
  7  8  2  0  0  0
  7 26  1  0  0  0
  7 29  1  0  0  0
  8  9  1  0  0  0
  8 22  1  0  0  0
  9 10  1  0  0  0
  9 27  2  0  0  0
 10 11  2  0  0  0
 10 15  1  0  0  0
 11 12  1  0  0  0
 11 96  1  0  0  0
 12 13  2  0  0  0
 12 97  1  0  0  0
 13 14  1  0  0  0
 13 31  1  0  0  0
 14 15  2  0  0  0
 14 98  1  0  0  0
 15 99  1  0  0  0
 16 17  2  0  0  0
 16 21  1  0  0  0
 16 31  1  0  0  0
 17 18  1  0  0  0
 17100  1  0  0  0
 18 19  2  0  0  0
 18101  1  0  0  0
 19 20  1  0  0  0
 19 24  1  0  0  0
 20 21  2  0  0  0
 20102  1  0  0  0
 21 23  1  0  0  0
 22 28  1  0  0  0
 22 32  2  0  0  0
 26 27  1  0  0  0
 28103  1  0  0  0
 28104  1  0  0  0
 29105  1  0  0  0
 29106  1  0  0  0
 33 34  1  0  0  0
 33 66  1  0  0  0
 33 70  2  0  0  0
 34 36  1  0  0  0
 34 59  1  0  0  0
 34107  1  0  0  0
 35 44  2  0  0  0
 35 45  1  0  0  0
 35 68  1  0  0  0
 36 56  1  0  0  0
 36108  1  0  0  0
 37 39  1  0  0  0
 37 47  1  0  0  0
 37 66  1  0  0  0
 37109  1  0  0  0
 38 43  2  0  0  0
 38 46  1  0  0  0
 38 47  1  0  0  0
 39 64  1  0  0  0
 39 67  2  0  0  0
 40 52  1  0  0  0
 40 53  2  0  0  0
 40 58  1  0  0  0
 41110  1  0  0  0
 41111  1  0  0  0
 41112  1  0  0  0
 41 48  1  0  0  0
 42 43  1  0  0  0
 42 66  1  0  0  0
 42113  1  0  0  0
 42114  1  0  0  0
 43 44  1  0  0  0
 44115  1  0  0  0
 45 46  2  0  0  0
 45116  1  0  0  0
 46117  1  0  0  0
 47118  1  0  0  0
 47119  1  0  0  0
 48 56  1  0  0  0
 48 65  1  0  0  0
 48120  1  0  0  0
 49 50  1  0  0  0
 49 53  1  0  0  0
 49 64  1  0  0  0
 49121  1  0  0  0
 50 51  1  0  0  0
 50122  1  0  0  0
 50123  1  0  0  0
 51 52  1  0  0  0
 51124  1  0  0  0
 51125  1  0  0  0
 52126  1  0  0  0
 52127  1  0  0  0
 53 54  1  0  0  0
 54 55  2  0  0  0
 54128  1  0  0  0
 55 57  1  0  0  0
 55129  1  0  0  0
 56 69  2  0  0  0
 57 58  2  0  0  0
 57130  1  0  0  0
 58131  1  0  0  0
 59 60  1  0  0  0
 59 61  1  0  0  0
 59 62  1  0  0  0
 60132  1  0  0  0
 60133  1  0  0  0
 60134  1  0  0  0
 61135  1  0  0  0
 61136  1  0  0  0
 61137  1  0  0  0
 62138  1  0  0  0
 62139  1  0  0  0
 62140  1  0  0  0
 63 65  1  0  0  0
 63141  1  0  0  0
 63142  1  0  0  0
 63143  1  0  0  0
 64144  1  0  0  0
 65145  1  0  0  0
 68 83  1  0  0  0
 71 73  2  0  0  0
 71 74  1  0  0  0
 71146  1  0  0  0
 72 73  1  0  0  0
 72 84  2  0  0  0
 72147  1  0  0  0
 73 78  1  0  0  0
 74 75  2  0  0  0
 74 79  1  0  0  0
 75 76  1  0  0  0
 75 84  1  0  0  0
 76148  1  0  0  0
 76149  1  0  0  0
 76150  1  0  0  0
 77151  1  0  0  0
 77152  1  0  0  0
 77153  1  0  0  0
 77 86  1  0  0  0
 78 83  1  0  0  0
 78154  1  0  0  0
 78155  1  0  0  0
 79 86  1  0  0  0
 79156  1  0  0  0
 79157  1  0  0  0
 80 81  1  0  0  0
 80 82  1  0  0  0
 80158  1  0  0  0
 80159  1  0  0  0
 81 85  1  0  0  0
 81160  1  0  0  0
 81161  1  0  0  0
 82 86  1  0  0  0
 82162  1  0  0  0
 82163  1  0  0  0
 83164  1  0  0  0
 83165  1  0  0  0
 85166  1  0  0  0
 86167  1  0  0  0
M  CHG  1  86   1
M  ISO  4   1 100  68 101  83 101  85 100
M  END
> <chiral flag>
0

> <version>
0

> <s_m_source_file>
/data/baiqing/PycharmProjects/Reinvent-master-3.2/result/LINK_invent/BTK/process_docking_weight1_custom_sum_contain_oxygen_bond_distance_aromatic_linkinvent_7_9_3/rearranged_h_0045.sdf

> <i_m_source_file_index>
29

> <r_mmod_Potential_Energy-OPLS-2005>
-331.762817382812

> <r_mmod_Stretch_Energy-OPLS-2005>
33.6327323913574

> <r_mmod_Bend_Energy-OPLS-2005>
99.6193771362305

> <r_mmod_Torsional_Energy-OPLS-2005>
216.409942626953

> <r_mmod_Improper_Torsional_Energy-OPLS-2005>
2.19162893295288

> <r_mmod_Van_der_Waal_Energy-OPLS-2005>
160.28825378418

> <r_mmod_Electrostatic_Energy-OPLS-2005>
-382.374389648438

> <r_mmod_Solvation_Energy-OPLS-2005>
-468.383880615234

> <b_mmod_Minimization_Converged-OPLS-2005>
0

> <r_mmod_RMS_Derivative-OPLS-2005>
0.973867177963257

$$$$
29
                    3D
 Structure written by MMmdl.
155163  0  0  1  0            999 V2000
  -30.5450  -14.9733   20.3624 C   0  0  0  0  0  0
  -30.4362  -12.5713   19.5080 C   0  0  0  0  0  0
  -29.5280  -12.5022   18.2585 C   0  0  0  0  0  0
  -28.0704  -12.2678   18.6957 C   0  0  0  0  0  0
  -27.6370  -13.2323   19.8343 C   0  0  2  0  0  0
  -28.6814  -13.2853   20.9733 C   0  0  0  0  0  0
  -25.2534  -13.8201   20.5693 C   0  0  0  0  0  0
  -24.1850  -13.0486   20.9231 C   0  0  0  0  0  0
  -24.6430  -11.6919   20.8758 C   0  0  0  0  0  0
  -23.9088  -10.4305   21.0398 C   0  0  0  0  0  0
  -24.3614   -9.4205   21.9175 C   0  0  0  0  0  0
  -23.6283   -8.2245   22.0765 C   0  0  0  0  0  0
  -22.4266   -8.0288   21.3546 C   0  0  0  0  0  0
  -21.9903   -9.0265   20.4639 C   0  0  0  0  0  0
  -22.7254  -10.2135   20.3052 C   0  0  0  0  0  0
  -21.6859   -6.0713   22.5283 C   0  0  0  0  0  0
  -21.4005   -6.5618   23.8211 C   0  0  0  0  0  0
  -21.3671   -5.6775   24.9178 C   0  0  0  0  0  0
  -21.6073   -4.3044   24.7230 C   0  0  0  0  0  0
  -21.8830   -3.8123   23.4360 C   0  0  0  0  0  0
  -21.9191   -4.6930   22.3404 C   0  0  0  0  0  0
  -22.7852  -13.5227   21.1933 C   0  0  0  0  0  0
  -22.1651   -4.2118   21.0978 F   0  0  0  0  0  0
  -21.5639   -3.4529   25.7739 F   0  0  0  0  0  0
  -29.9569  -13.7010   20.3688 N   0  0  0  0  0  0
  -26.2936  -12.9409   20.3199 N   0  0  0  0  0  0
  -25.9357  -11.6550   20.5743 N   0  0  0  0  0  0
  -22.0487  -12.8164   22.0421 N   0  0  0  0  0  0
  -25.4348  -15.1936   20.4132 N   0  0  0  0  0  0
  -31.7389  -15.0311   20.0586 O   0  0  0  0  0  0
  -21.6659   -6.8862   21.4245 O   0  0  0  0  0  0
  -22.3530  -14.5558   20.6826 O   0  0  0  0  0  0
  -24.6417  -31.8435   23.1835 C   0  0  0  0  0  0
  -25.9136  -32.4746   23.8293 C   0  0  1  0  0  0
  -27.2305  -27.1331   20.1330 C   0  0  0  0  0  0
  -25.5831  -33.8553   24.2167 N   0  0  0  0  0  0
  -23.4477  -30.4546   21.5360 C   0  0  2  0  0  0
  -24.9061  -28.8935   20.1015 C   0  0  0  0  0  0
  -22.7628  -29.4454   22.4933 C   0  0  0  0  0  0
  -18.0288  -28.1381   22.8477 C   0  0  0  0  0  0
  -24.1470  -36.7360   23.2636 C   0  0  0  0  0  0
  -25.9989  -30.7350   21.3624 C   0  0  0  0  0  0
  -26.0836  -29.3360   20.7152 C   0  0  0  0  0  0
  -27.2476  -28.4704   20.7110 C   0  0  0  0  0  0
  -26.0263  -26.8034   19.4741 C   0  0  0  0  0  0
  -24.8929  -27.6464   19.4593 C   0  0  0  0  0  0
  -23.6726  -29.7849   20.1545 C   0  0  0  0  0  0
  -25.4087  -36.3077   24.0313 C   0  0  1  0  0  0
  -20.5917  -28.3639   23.1338 C   0  0  2  0  0  0
  -20.6767  -26.9361   22.5449 C   0  0  0  0  0  0
  -19.5736  -26.6358   21.5249 C   0  0  0  0  0  0
  -18.1909  -26.7906   22.1641 C   0  0  0  0  0  0
  -19.1555  -28.8856   23.2863 C   0  0  0  0  0  0
  -18.9438  -30.1458   23.8875 C   0  0  0  0  0  0
  -17.6430  -30.6571   24.0562 C   0  0  0  0  0  0
  -25.9023  -34.9454   23.5051 C   0  0  0  0  0  0
  -16.5324  -29.9067   23.6336 C   0  0  0  0  0  0
  -16.7272  -28.6499   23.0340 C   0  0  0  0  0  0
  -26.4427  -31.6637   25.0745 C   0  0  0  0  0  0
  -25.3599  -31.3875   26.1457 C   0  0  0  0  0  0
  -27.0194  -30.3044   24.6192 C   0  0  0  0  0  0
  -27.5955  -32.4404   25.7532 C   0  0  0  0  0  0
  -27.5566  -37.1814   24.8443 C   0  0  0  0  0  0
  -21.4337  -29.2931   22.3756 N   0  0  0  0  0  0
  -26.4265  -37.3786   23.9404 N   0  0  0  0  0  0
  -24.7189  -31.0309   22.0850 N   0  0  0  0  0  0
  -23.4313  -28.8001   23.3053 O   0  0  0  0  0  0
  -28.2859  -26.1402   20.2026 O   0  0  0  0  0  0
  -26.5663  -34.8939   22.4666 O   0  0  0  0  0  0
  -23.5525  -32.1241   23.7060 O   0  0  0  0  0  0
  -31.2840  -21.3379   21.1087 C   0  0  0  0  0  0
  -31.5039  -18.6545   21.4490 C   0  0  0  0  0  0
  -30.1964  -20.5819   20.5825 C   0  0  0  0  0  0
  -30.3874  -19.0564   20.6799 C   0  0  0  0  0  0
  -32.4079  -20.7629   21.7098 C   0  0  0  0  0  0
  -33.6364  -21.5948   22.0953 C   0  0  0  0  0  0
  -29.0874  -21.6560   19.9806 C   0  0  0  0  0  0
  -29.7305  -17.6956   19.9942 C   0  0  0  0  0  0
  -29.1112  -23.3287   20.3806 C   0  0  0  0  0  0
  -28.0603  -24.6027   19.9673 C   0  0  0  0  0  0
  -32.4772  -19.4460   21.9382 N   0  0  0  0  0  0
  -29.7549  -16.1626   20.4960 N   0  0  0  0  0  0
  -31.4837  -12.6671   19.2173 H   0  0  0  0  0  0
  -30.3745  -11.6219   20.0416 H   0  0  0  0  0  0
  -29.8507  -11.6870   17.6065 H   0  0  0  0  0  0
  -29.6129  -13.4170   17.6684 H   0  0  0  0  0  0
  -28.0080  -11.2359   19.0478 H   0  0  0  0  0  0
  -27.3910  -12.3368   17.8463 H   0  0  0  0  0  0
  -27.6025  -14.2248   19.3821 H   0  0  0  0  0  0
  -28.7734  -12.3182   21.4758 H   0  0  0  0  0  0
  -28.3756  -13.9953   21.7409 H   0  0  0  0  0  0
  -25.2779   -9.5671   22.4708 H   0  0  0  0  0  0
  -24.0015   -7.4639   22.7461 H   0  0  0  0  0  0
  -21.0859   -8.8796   19.8897 H   0  0  0  0  0  0
  -22.3770  -10.9661   19.6124 H   0  0  0  0  0  0
  -21.1994   -7.6128   23.9704 H   0  0  0  0  0  0
  -21.1482   -6.0499   25.9077 H   0  0  0  0  0  0
  -22.0594   -2.7578   23.2879 H   0  0  0  0  0  0
  -22.4144  -11.9809   22.4757 H   0  0  0  0  0  0
  -21.1109  -13.1139   22.2659 H   0  0  0  0  0  0
  -24.7031  -15.8658   20.6099 H   0  0  0  0  0  0
  -26.2805  -15.6206   20.0606 H   0  0  0  0  0  0
  -26.7266  -32.5404   23.1107 H   0  0  0  0  0  0
  -24.9903  -33.9726   25.0264 H   0  0  0  0  0  0
  -22.7360  -31.2686   21.3813 H   0  0  0  0  0  0
  -23.3705  -35.9718   23.3242 H   0  0  0  0  0  0
  -24.3542  -36.9062   22.2052 H   0  0  0  0  0  0
  -23.7260  -37.6549   23.6734 H   0  0  0  0  0  0
  -26.0993  -31.4828   20.5711 H   0  0  0  0  0  0
  -26.8861  -30.8304   21.9766 H   0  0  0  0  0  0
  -28.1557  -28.8077   21.1918 H   0  0  0  0  0  0
  -25.9351  -25.8542   18.9671 H   0  0  0  0  0  0
  -23.9941  -27.3242   18.9503 H   0  0  0  0  0  0
  -23.7878  -30.5506   19.3897 H   0  0  0  0  0  0
  -22.7907  -29.2151   19.8578 H   0  0  0  0  0  0
  -25.1263  -36.1906   25.0807 H   0  0  0  0  0  0
  -20.9927  -28.3117   24.1487 H   0  0  0  0  0  0
  -20.5670  -26.2191   23.3606 H   0  0  0  0  0  0
  -21.6613  -26.7366   22.1198 H   0  0  0  0  0  0
  -19.6857  -25.6266   21.1264 H   0  0  0  0  0  0
  -19.6683  -27.3192   20.6798 H   0  0  0  0  0  0
  -17.4172  -26.6687   21.4038 H   0  0  0  0  0  0
  -18.0247  -26.0080   22.9058 H   0  0  0  0  0  0
  -19.7907  -30.7318   24.2203 H   0  0  0  0  0  0
  -17.4952  -31.6238   24.5166 H   0  0  0  0  0  0
  -15.5310  -30.2935   23.7677 H   0  0  0  0  0  0
  -15.8667  -28.0825   22.7027 H   0  0  0  0  0  0
  -24.5773  -30.7202   25.7823 H   0  0  0  0  0  0
  -24.8782  -32.3076   26.4774 H   0  0  0  0  0  0
  -25.7850  -30.9155   27.0322 H   0  0  0  0  0  0
  -26.2714  -29.6891   24.1181 H   0  0  0  0  0  0
  -27.3808  -29.7222   25.4667 H   0  0  0  0  0  0
  -27.8626  -30.4297   23.9409 H   0  0  0  0  0  0
  -27.2563  -33.3804   26.1917 H   0  0  0  0  0  0
  -28.3866  -32.6822   25.0416 H   0  0  0  0  0  0
  -28.0496  -31.8661   26.5606 H   0  0  0  0  0  0
  -28.2541  -38.0152   24.7496 H   0  0  0  0  0  0
  -28.1100  -36.2671   24.6231 H   0  0  0  0  0  0
  -27.2316  -37.1441   25.8860 H   0  0  0  0  0  0
  -20.9550  -29.8725   21.7016 H   0  0  0  0  0  0
  -26.0132  -38.2857   24.1403 H   0  0  0  0  0  0
  -31.3166  -22.4140   21.0370 H   0  0  0  0  0  0
  -31.6925  -17.6015   21.6024 H   0  0  0  0  0  0
  -33.8383  -21.5408   23.1634 H   0  0  0  0  0  0
  -33.5430  -22.6494   21.8317 H   0  0  0  0  0  0
  -34.5379  -21.2433   21.5873 H   0  0  0  0  0  0
  -28.0913  -21.2622   20.1712 H   0  0  0  0  0  0
  -29.2205  -21.6082   18.8967 H   0  0  0  0  0  0
  -30.1691  -17.6597   18.9946 H   0  0  0  0  0  0
  -28.6732  -17.9093   19.8251 H   0  0  0  0  0  0
  -30.0568  -23.6786   19.9780 H   0  0  0  0  0  0
  -29.2077  -23.3732   21.4707 H   0  0  0  0  0  0
  -27.8562  -24.4890   18.8990 H   0  0  0  0  0  0
  -27.1079  -24.3677   20.4486 H   0  0  0  0  0  0
  -28.8163  -15.8845   20.7423 H   0  0  0  0  0  0
  1 25  1  0  0  0
  1 30  2  0  0  0
  1 82  1  0  0  0
  2  3  1  0  0  0
  2 25  1  0  0  0
  2 83  1  0  0  0
  2 84  1  0  0  0
  3  4  1  0  0  0
  3 85  1  0  0  0
  3 86  1  0  0  0
  4  5  1  0  0  0
  4 87  1  0  0  0
  4 88  1  0  0  0
  5  6  1  0  0  0
  5 26  1  0  0  0
  5 89  1  0  0  0
  6 25  1  0  0  0
  6 90  1  0  0  0
  6 91  1  0  0  0
  7  8  2  0  0  0
  7 26  1  0  0  0
  7 29  1  0  0  0
  8  9  1  0  0  0
  8 22  1  0  0  0
  9 10  1  0  0  0
  9 27  2  0  0  0
 10 11  2  0  0  0
 10 15  1  0  0  0
 11 12  1  0  0  0
 11 92  1  0  0  0
 12 13  2  0  0  0
 12 93  1  0  0  0
 13 14  1  0  0  0
 13 31  1  0  0  0
 14 15  2  0  0  0
 14 94  1  0  0  0
 15 95  1  0  0  0
 16 17  2  0  0  0
 16 21  1  0  0  0
 16 31  1  0  0  0
 17 18  1  0  0  0
 17 96  1  0  0  0
 18 19  2  0  0  0
 18 97  1  0  0  0
 19 20  1  0  0  0
 19 24  1  0  0  0
 20 21  2  0  0  0
 20 98  1  0  0  0
 21 23  1  0  0  0
 22 28  1  0  0  0
 22 32  2  0  0  0
 26 27  1  0  0  0
 28 99  1  0  0  0
 28100  1  0  0  0
 29101  1  0  0  0
 29102  1  0  0  0
 33 34  1  0  0  0
 33 66  1  0  0  0
 33 70  2  0  0  0
 34 36  1  0  0  0
 34 59  1  0  0  0
 34103  1  0  0  0
 35 44  2  0  0  0
 35 45  1  0  0  0
 35 68  1  0  0  0
 36 56  1  0  0  0
 36104  1  0  0  0
 37 39  1  0  0  0
 37 47  1  0  0  0
 37 66  1  0  0  0
 37105  1  0  0  0
 38 43  2  0  0  0
 38 46  1  0  0  0
 38 47  1  0  0  0
 39 64  1  0  0  0
 39 67  2  0  0  0
 40 52  1  0  0  0
 40 53  2  0  0  0
 40 58  1  0  0  0
 41106  1  0  0  0
 41107  1  0  0  0
 41108  1  0  0  0
 41 48  1  0  0  0
 42 43  1  0  0  0
 42 66  1  0  0  0
 42109  1  0  0  0
 42110  1  0  0  0
 43 44  1  0  0  0
 44111  1  0  0  0
 45 46  2  0  0  0
 45112  1  0  0  0
 46113  1  0  0  0
 47114  1  0  0  0
 47115  1  0  0  0
 48 56  1  0  0  0
 48 65  1  0  0  0
 48116  1  0  0  0
 49 50  1  0  0  0
 49 53  1  0  0  0
 49 64  1  0  0  0
 49117  1  0  0  0
 50 51  1  0  0  0
 50118  1  0  0  0
 50119  1  0  0  0
 51 52  1  0  0  0
 51120  1  0  0  0
 51121  1  0  0  0
 52122  1  0  0  0
 52123  1  0  0  0
 53 54  1  0  0  0
 54 55  2  0  0  0
 54124  1  0  0  0
 55 57  1  0  0  0
 55125  1  0  0  0
 56 69  2  0  0  0
 57 58  2  0  0  0
 57126  1  0  0  0
 58127  1  0  0  0
 59 60  1  0  0  0
 59 61  1  0  0  0
 59 62  1  0  0  0
 60128  1  0  0  0
 60129  1  0  0  0
 60130  1  0  0  0
 61131  1  0  0  0
 61132  1  0  0  0
 61133  1  0  0  0
 62134  1  0  0  0
 62135  1  0  0  0
 62136  1  0  0  0
 63 65  1  0  0  0
 63137  1  0  0  0
 63138  1  0  0  0
 63139  1  0  0  0
 64140  1  0  0  0
 65141  1  0  0  0
 68 80  1  0  0  0
 71 73  2  0  0  0
 71 75  1  0  0  0
 71142  1  0  0  0
 72 74  2  0  0  0
 72 81  1  0  0  0
 72143  1  0  0  0
 73 74  1  0  0  0
 73 77  1  0  0  0
 74 78  1  0  0  0
 75 76  1  0  0  0
 75 81  2  0  0  0
 76144  1  0  0  0
 76145  1  0  0  0
 76146  1  0  0  0
 77 79  1  0  0  0
 77147  1  0  0  0
 77148  1  0  0  0
 78 82  1  0  0  0
 78149  1  0  0  0
 78150  1  0  0  0
 79 80  1  0  0  0
 79151  1  0  0  0
 79152  1  0  0  0
 80153  1  0  0  0
 80154  1  0  0  0
 82155  1  0  0  0
M  ISO  4   1 100  68 101  80 101  82 100
M  END
> <chiral flag>
0

> <version>
0

> <s_m_source_file>
/data/baiqing/PycharmProjects/Reinvent-master-3.2/result/LINK_invent/BTK/process_docking_weight1_custom_sum_contain_oxygen_bond_distance_aromatic_linkinvent_7_9_3/rearranged_h_0045.sdf

> <i_m_source_file_index>
30

> <r_mmod_Potential_Energy-OPLS-2005>
527.28955078125

> <r_mmod_Stretch_Energy-OPLS-2005>
337.758117675781

> <r_mmod_Bend_Energy-OPLS-2005>
362.172515869141

> <r_mmod_Torsional_Energy-OPLS-2005>
214.322219848633

> <r_mmod_Improper_Torsional_Energy-OPLS-2005>
6.2648401260376

> <r_mmod_Van_der_Waal_Energy-OPLS-2005>
136.404235839844

> <r_mmod_Electrostatic_Energy-OPLS-2005>
-490.137542724609

> <r_mmod_Solvation_Energy-OPLS-2005>
-241.148376464844

> <b_mmod_Minimization_Converged-OPLS-2005>
0

> <r_mmod_RMS_Derivative-OPLS-2005>
8.5256175994873

$$$$
30
                    3D
 Structure written by MMmdl.
154162  0  0  1  0            999 V2000
  -30.6363  -14.6464   20.5073 C   0  0  0  0  0  0
  -30.4341  -12.4018   19.4489 C   0  0  0  0  0  0
  -29.5020  -12.4985   18.2213 C   0  0  0  0  0  0
  -28.0286  -12.3273   18.6412 C   0  0  0  0  0  0
  -27.6483  -13.2158   19.8556 C   0  0  2  0  0  0
  -28.6935  -13.0945   20.9855 C   0  0  0  0  0  0
  -25.2548  -13.8169   20.5681 C   0  0  0  0  0  0
  -24.1811  -13.0433   20.9182 C   0  0  0  0  0  0
  -24.6382  -11.6910   20.8745 C   0  0  0  0  0  0
  -23.9056  -10.4287   21.0414 C   0  0  0  0  0  0
  -24.3610   -9.4202   21.9193 C   0  0  0  0  0  0
  -23.6284   -8.2237   22.0768 C   0  0  0  0  0  0
  -22.4271   -8.0274   21.3556 C   0  0  0  0  0  0
  -21.9903   -9.0244   20.4661 C   0  0  0  0  0  0
  -22.7228  -10.2123   20.3067 C   0  0  0  0  0  0
  -21.6844   -6.0728   22.5283 C   0  0  0  0  0  0
  -21.4007   -6.5642   23.8215 C   0  0  0  0  0  0
  -21.3660   -5.6799   24.9182 C   0  0  0  0  0  0
  -21.6044   -4.3060   24.7237 C   0  0  0  0  0  0
  -21.8818   -3.8146   23.4360 C   0  0  0  0  0  0
  -21.9190   -4.6957   22.3409 C   0  0  0  0  0  0
  -22.7842  -13.5238   21.1843 C   0  0  0  0  0  0
  -22.1659   -4.2142   21.0986 F   0  0  0  0  0  0
  -21.5630   -3.4546   25.7750 F   0  0  0  0  0  0
  -30.0022  -13.4353   20.4111 N   0  0  0  0  0  0
  -26.2963  -12.9344   20.3298 N   0  0  0  0  0  0
  -25.9308  -11.6509   20.5759 N   0  0  0  0  0  0
  -22.0487  -12.8234   22.0405 N   0  0  0  0  0  0
  -25.4267  -15.1882   20.4087 N   0  0  0  0  0  0
  -31.8159  -14.7762   20.1700 O   0  0  0  0  0  0
  -21.6639   -6.8870   21.4247 O   0  0  0  0  0  0
  -22.3539  -14.5544   20.6685 O   0  0  0  0  0  0
  -24.6257  -31.8571   23.2024 C   0  0  0  0  0  0
  -25.9088  -32.4761   23.8353 C   0  0  1  0  0  0
  -27.2297  -27.3192   20.0962 C   0  0  0  0  0  0
  -25.5893  -33.8564   24.2279 N   0  0  0  0  0  0
  -23.4189  -30.4805   21.5465 C   0  0  2  0  0  0
  -24.8658  -28.9379   20.1094 C   0  0  0  0  0  0
  -22.7460  -29.4597   22.4946 C   0  0  0  0  0  0
  -18.0270  -28.1377   22.8497 C   0  0  0  0  0  0
  -24.1490  -36.7311   23.2643 C   0  0  0  0  0  0
  -25.9603  -30.7871   21.3727 C   0  0  0  0  0  0
  -26.0344  -29.4143   20.7154 C   0  0  0  0  0  0
  -27.2138  -28.6126   20.7064 C   0  0  0  0  0  0
  -26.0268  -26.8869   19.4900 C   0  0  0  0  0  0
  -24.8640  -27.6799   19.4912 C   0  0  0  0  0  0
  -23.6328  -29.8155   20.1623 C   0  0  0  0  0  0
  -25.4105  -36.3079   24.0333 C   0  0  1  0  0  0
  -20.5874  -28.3671   23.1305 C   0  0  2  0  0  0
  -20.6762  -26.9399   22.5421 C   0  0  0  0  0  0
  -19.5736  -26.6378   21.5221 C   0  0  0  0  0  0
  -18.1912  -26.7926   22.1624 C   0  0  0  0  0  0
  -19.1525  -28.8837   23.2896 C   0  0  0  0  0  0
  -18.9443  -30.1445   23.8905 C   0  0  0  0  0  0
  -17.6445  -30.6585   24.0561 C   0  0  0  0  0  0
  -25.9027  -34.9442   23.5107 C   0  0  0  0  0  0
  -16.5332  -29.9081   23.6341 C   0  0  0  0  0  0
  -16.7255  -28.6499   23.0368 C   0  0  0  0  0  0
  -26.4486  -31.6571   25.0712 C   0  0  0  0  0  0
  -25.3721  -31.3701   26.1442 C   0  0  0  0  0  0
  -27.0331  -30.2999   24.6144 C   0  0  0  0  0  0
  -27.6036  -32.4315   25.7475 C   0  0  0  0  0  0
  -27.5578  -37.1798   24.8457 C   0  0  0  0  0  0
  -21.4169  -29.3028   22.3696 N   0  0  0  0  0  0
  -26.4289  -37.3764   23.9403 N   0  0  0  0  0  0
  -24.6878  -31.0574   22.0986 N   0  0  0  0  0  0
  -23.4183  -28.8126   23.3016 O   0  0  0  0  0  0
  -28.3659  -26.4949   20.1617 O   0  0  0  0  0  0
  -26.5605  -34.8905   22.4678 O   0  0  0  0  0  0
  -23.5427  -32.1378   23.7357 O   0  0  0  0  0  0
  -30.1243  -23.2736   19.7336 C   0  0  0  0  0  0
  -28.8486  -23.8814   19.9083 C   0  0  0  0  0  0
  -28.1170  -21.8125   20.7723 C   0  0  0  0  0  0
  -29.4028  -21.2076   20.5978 C   0  0  0  0  0  0
  -26.9760  -21.0424   21.4044 C   0  0  0  0  0  0
  -29.8258  -19.8063   21.1931 C   0  0  0  0  0  0
  -28.5329  -25.3034   19.3005 C   0  0  0  0  0  0
  -29.5454  -18.4074   20.4778 C   0  0  0  0  0  0
  -30.2975  -17.1526   21.1341 C   0  0  0  0  0  0
  -30.3971  -21.9717   20.0641 N   0  0  0  0  0  0
  -27.8406  -23.1149   20.4221 N   0  0  0  0  0  0
  -29.8661  -15.7381   20.8247 N   0  0  0  0  0  0
  -31.4734  -12.5293   19.1409 H   0  0  0  0  0  0
  -30.3740  -11.4110   19.9036 H   0  0  0  0  0  0
  -29.7702  -11.7425   17.4821 H   0  0  0  0  0  0
  -29.6334  -13.4650   17.7324 H   0  0  0  0  0  0
  -27.8812  -11.2769   18.8972 H   0  0  0  0  0  0
  -27.3661  -12.5298   17.7990 H   0  0  0  0  0  0
  -27.6613  -14.2450   19.4978 H   0  0  0  0  0  0
  -28.7101  -12.0788   21.3844 H   0  0  0  0  0  0
  -28.4382  -13.7422   21.8252 H   0  0  0  0  0  0
  -25.2754   -9.5675   22.4771 H   0  0  0  0  0  0
  -23.9985   -7.4639   22.7500 H   0  0  0  0  0  0
  -21.0833   -8.8765   19.8979 H   0  0  0  0  0  0
  -22.3685  -10.9661   19.6180 H   0  0  0  0  0  0
  -21.1996   -7.6155   23.9708 H   0  0  0  0  0  0
  -21.1487   -6.0539   25.9080 H   0  0  0  0  0  0
  -22.0595   -2.7605   23.2868 H   0  0  0  0  0  0
  -22.4093  -11.9881   22.4779 H   0  0  0  0  0  0
  -21.1124  -13.1297   22.2653 H   0  0  0  0  0  0
  -24.6584  -15.8418   20.5132 H   0  0  0  0  0  0
  -26.2734  -15.6262   20.0681 H   0  0  0  0  0  0
  -26.7138  -32.5440   23.1098 H   0  0  0  0  0  0
  -25.0008  -33.9686   25.0400 H   0  0  0  0  0  0
  -22.7147  -31.3029   21.4048 H   0  0  0  0  0  0
  -23.3740  -35.9654   23.3279 H   0  0  0  0  0  0
  -24.3595  -36.8984   22.2066 H   0  0  0  0  0  0
  -23.7261  -37.6507   23.6690 H   0  0  0  0  0  0
  -26.0827  -31.5480   20.6006 H   0  0  0  0  0  0
  -26.8452  -30.8452   21.9944 H   0  0  0  0  0  0
  -28.1113  -28.9713   21.1916 H   0  0  0  0  0  0
  -25.9284  -25.9129   19.0402 H   0  0  0  0  0  0
  -23.9646  -27.3045   19.0238 H   0  0  0  0  0  0
  -23.7468  -30.5908   19.4047 H   0  0  0  0  0  0
  -22.7554  -29.2395   19.8616 H   0  0  0  0  0  0
  -25.1299  -36.1935   25.0833 H   0  0  0  0  0  0
  -20.9951  -28.3244   24.1434 H   0  0  0  0  0  0
  -20.5691  -26.2266   23.3606 H   0  0  0  0  0  0
  -21.6626  -26.7434   22.1204 H   0  0  0  0  0  0
  -19.6891  -25.6288   21.1254 H   0  0  0  0  0  0
  -19.6691  -27.3180   20.6746 H   0  0  0  0  0  0
  -17.4187  -26.6678   21.4017 H   0  0  0  0  0  0
  -18.0303  -26.0065   22.9016 H   0  0  0  0  0  0
  -19.7910  -30.7263   24.2284 H   0  0  0  0  0  0
  -17.4992  -31.6279   24.5144 H   0  0  0  0  0  0
  -15.5332  -30.2988   23.7656 H   0  0  0  0  0  0
  -15.8653  -28.0816   22.7095 H   0  0  0  0  0  0
  -24.5876  -30.7082   25.7776 H   0  0  0  0  0  0
  -24.8913  -32.2859   26.4878 H   0  0  0  0  0  0
  -25.8042  -30.8863   27.0209 H   0  0  0  0  0  0
  -26.2891  -29.6732   24.1201 H   0  0  0  0  0  0
  -27.4106  -29.7277   25.4629 H   0  0  0  0  0  0
  -27.8740  -30.4331   23.9328 H   0  0  0  0  0  0
  -27.2642  -33.3645   26.1997 H   0  0  0  0  0  0
  -28.3843  -32.6829   25.0277 H   0  0  0  0  0  0
  -28.0685  -31.8468   26.5425 H   0  0  0  0  0  0
  -28.2567  -38.0118   24.7520 H   0  0  0  0  0  0
  -28.1112  -36.2646   24.6280 H   0  0  0  0  0  0
  -27.2297  -37.1451   25.8861 H   0  0  0  0  0  0
  -20.9321  -29.8796   21.6961 H   0  0  0  0  0  0
  -26.0183  -38.2849   24.1400 H   0  0  0  0  0  0
  -30.9351  -23.8329   19.2898 H   0  0  0  0  0  0
  -27.1853  -20.8599   22.4588 H   0  0  0  0  0  0
  -26.8450  -20.0788   20.9106 H   0  0  0  0  0  0
  -26.0338  -21.5866   21.3335 H   0  0  0  0  0  0
  -29.4150  -19.7581   22.2018 H   0  0  0  0  0  0
  -30.9031  -19.8626   21.3496 H   0  0  0  0  0  0
  -27.7553  -25.1798   18.5523 H   0  0  0  0  0  0
  -29.3970  -25.5558   18.6849 H   0  0  0  0  0  0
  -29.8435  -18.4824   19.4323 H   0  0  0  0  0  0
  -28.4698  -18.2314   20.4723 H   0  0  0  0  0  0
  -30.1969  -17.2463   22.2163 H   0  0  0  0  0  0
  -31.3670  -17.2511   20.9423 H   0  0  0  0  0  0
  -28.8979  -15.5222   21.0128 H   0  0  0  0  0  0
  1 25  1  0  0  0
  1 30  2  0  0  0
  1 82  1  0  0  0
  2  3  1  0  0  0
  2 25  1  0  0  0
  2 83  1  0  0  0
  2 84  1  0  0  0
  3  4  1  0  0  0
  3 85  1  0  0  0
  3 86  1  0  0  0
  4  5  1  0  0  0
  4 87  1  0  0  0
  4 88  1  0  0  0
  5  6  1  0  0  0
  5 26  1  0  0  0
  5 89  1  0  0  0
  6 25  1  0  0  0
  6 90  1  0  0  0
  6 91  1  0  0  0
  7  8  2  0  0  0
  7 26  1  0  0  0
  7 29  1  0  0  0
  8  9  1  0  0  0
  8 22  1  0  0  0
  9 10  1  0  0  0
  9 27  2  0  0  0
 10 11  2  0  0  0
 10 15  1  0  0  0
 11 12  1  0  0  0
 11 92  1  0  0  0
 12 13  2  0  0  0
 12 93  1  0  0  0
 13 14  1  0  0  0
 13 31  1  0  0  0
 14 15  2  0  0  0
 14 94  1  0  0  0
 15 95  1  0  0  0
 16 17  2  0  0  0
 16 21  1  0  0  0
 16 31  1  0  0  0
 17 18  1  0  0  0
 17 96  1  0  0  0
 18 19  2  0  0  0
 18 97  1  0  0  0
 19 20  1  0  0  0
 19 24  1  0  0  0
 20 21  2  0  0  0
 20 98  1  0  0  0
 21 23  1  0  0  0
 22 28  1  0  0  0
 22 32  2  0  0  0
 26 27  1  0  0  0
 28 99  1  0  0  0
 28100  1  0  0  0
 29101  1  0  0  0
 29102  1  0  0  0
 33 34  1  0  0  0
 33 66  1  0  0  0
 33 70  2  0  0  0
 34 36  1  0  0  0
 34 59  1  0  0  0
 34103  1  0  0  0
 35 44  2  0  0  0
 35 45  1  0  0  0
 35 68  1  0  0  0
 36 56  1  0  0  0
 36104  1  0  0  0
 37 39  1  0  0  0
 37 47  1  0  0  0
 37 66  1  0  0  0
 37105  1  0  0  0
 38 43  2  0  0  0
 38 46  1  0  0  0
 38 47  1  0  0  0
 39 64  1  0  0  0
 39 67  2  0  0  0
 40 52  1  0  0  0
 40 53  2  0  0  0
 40 58  1  0  0  0
 41106  1  0  0  0
 41107  1  0  0  0
 41108  1  0  0  0
 41 48  1  0  0  0
 42 43  1  0  0  0
 42 66  1  0  0  0
 42109  1  0  0  0
 42110  1  0  0  0
 43 44  1  0  0  0
 44111  1  0  0  0
 45 46  2  0  0  0
 45112  1  0  0  0
 46113  1  0  0  0
 47114  1  0  0  0
 47115  1  0  0  0
 48 56  1  0  0  0
 48 65  1  0  0  0
 48116  1  0  0  0
 49 50  1  0  0  0
 49 53  1  0  0  0
 49 64  1  0  0  0
 49117  1  0  0  0
 50 51  1  0  0  0
 50118  1  0  0  0
 50119  1  0  0  0
 51 52  1  0  0  0
 51120  1  0  0  0
 51121  1  0  0  0
 52122  1  0  0  0
 52123  1  0  0  0
 53 54  1  0  0  0
 54 55  2  0  0  0
 54124  1  0  0  0
 55 57  1  0  0  0
 55125  1  0  0  0
 56 69  2  0  0  0
 57 58  2  0  0  0
 57126  1  0  0  0
 58127  1  0  0  0
 59 60  1  0  0  0
 59 61  1  0  0  0
 59 62  1  0  0  0
 60128  1  0  0  0
 60129  1  0  0  0
 60130  1  0  0  0
 61131  1  0  0  0
 61132  1  0  0  0
 61133  1  0  0  0
 62134  1  0  0  0
 62135  1  0  0  0
 62136  1  0  0  0
 63 65  1  0  0  0
 63137  1  0  0  0
 63138  1  0  0  0
 63139  1  0  0  0
 64140  1  0  0  0
 65141  1  0  0  0
 68 77  1  0  0  0
 71 72  2  0  0  0
 71 80  1  0  0  0
 71142  1  0  0  0
 72 77  1  0  0  0
 72 81  1  0  0  0
 73 74  1  0  0  0
 73 75  1  0  0  0
 73 81  2  0  0  0
 74 76  1  0  0  0
 74 80  2  0  0  0
 75143  1  0  0  0
 75144  1  0  0  0
 75145  1  0  0  0
 76 78  1  0  0  0
 76146  1  0  0  0
 76147  1  0  0  0
 77148  1  0  0  0
 77149  1  0  0  0
 78 79  1  0  0  0
 78150  1  0  0  0
 78151  1  0  0  0
 79 82  1  0  0  0
 79152  1  0  0  0
 79153  1  0  0  0
 82154  1  0  0  0
M  ISO  4   1 100  68 101  77 101  82 100
M  END
> <chiral flag>
0

> <version>
0

> <s_m_source_file>
/data/baiqing/PycharmProjects/Reinvent-master-3.2/result/LINK_invent/BTK/process_docking_weight1_custom_sum_contain_oxygen_bond_distance_aromatic_linkinvent_7_9_3/rearranged_h_0045.sdf

> <i_m_source_file_index>
31

> <r_mmod_Potential_Energy-OPLS-2005>
115.74626159668

> <r_mmod_Stretch_Energy-OPLS-2005>
86.7920150756836

> <r_mmod_Bend_Energy-OPLS-2005>
154.914474487305

> <r_mmod_Torsional_Energy-OPLS-2005>
207.060653686523

> <r_mmod_Improper_Torsional_Energy-OPLS-2005>
6.10212755203247

> <r_mmod_Van_der_Waal_Energy-OPLS-2005>
146.113616943359

> <r_mmod_Electrostatic_Energy-OPLS-2005>
-303.426574707031

> <r_mmod_Solvation_Energy-OPLS-2005>
-231.705520629883

> <b_mmod_Minimization_Converged-OPLS-2005>
0

> <r_mmod_RMS_Derivative-OPLS-2005>
1.94964790344238

$$$$
31
                    3D
 Structure written by MMmdl.
165173  0  0  1  0            999 V2000
  -30.6784  -14.5139   20.5843 C   0  0  0  0  0  0
  -30.4231  -12.3432   19.4329 C   0  0  0  0  0  0
  -29.4857  -12.5260   18.2171 C   0  0  0  0  0  0
  -28.0080  -12.3943   18.6271 C   0  0  0  0  0  0
  -27.6595  -13.2213   19.8922 C   0  0  2  0  0  0
  -28.7004  -13.0046   21.0148 C   0  0  0  0  0  0
  -25.2540  -13.8206   20.5685 C   0  0  0  0  0  0
  -24.1805  -13.0435   20.9197 C   0  0  0  0  0  0
  -24.6425  -11.6927   20.8794 C   0  0  0  0  0  0
  -23.9120  -10.4276   21.0446 C   0  0  0  0  0  0
  -24.3671   -9.4171   21.9194 C   0  0  0  0  0  0
  -23.6328   -8.2213   22.0749 C   0  0  0  0  0  0
  -22.4310   -8.0276   21.3531 C   0  0  0  0  0  0
  -21.9968   -9.0256   20.4629 C   0  0  0  0  0  0
  -22.7327  -10.2129   20.3050 C   0  0  0  0  0  0
  -21.6827   -6.0762   22.5272 C   0  0  0  0  0  0
  -21.4013   -6.5668   23.8205 C   0  0  0  0  0  0
  -21.3640   -5.6827   24.9158 C   0  0  0  0  0  0
  -21.6035   -4.3090   24.7194 C   0  0  0  0  0  0
  -21.8836   -3.8168   23.4310 C   0  0  0  0  0  0
  -21.9175   -4.6993   22.3382 C   0  0  0  0  0  0
  -22.7817  -13.5207   21.1836 C   0  0  0  0  0  0
  -22.1674   -4.2194   21.0961 F   0  0  0  0  0  0
  -21.5621   -3.4584   25.7686 F   0  0  0  0  0  0
  -30.0318  -13.3178   20.4692 N   0  0  0  0  0  0
  -26.3011  -12.9408   20.3464 N   0  0  0  0  0  0
  -25.9362  -11.6558   20.5839 N   0  0  0  0  0  0
  -22.0513  -12.8096   22.0382 N   0  0  0  0  0  0
  -25.4200  -15.1891   20.4031 N   0  0  0  0  0  0
  -31.8035  -14.7009   20.1110 O   0  0  0  0  0  0
  -21.6624   -6.8908   21.4250 O   0  0  0  0  0  0
  -22.3448  -14.5510   20.6731 O   0  0  0  0  0  0
  -24.6210  -31.8662   23.2125 C   0  0  0  0  0  0
  -25.9110  -32.4810   23.8391 C   0  0  1  0  0  0
  -27.2019  -27.3806   20.1119 C   0  0  0  0  0  0
  -25.5986  -33.8603   24.2376 N   0  0  0  0  0  0
  -23.4071  -30.4991   21.5516 C   0  0  2  0  0  0
  -24.8488  -28.9670   20.1116 C   0  0  0  0  0  0
  -22.7423  -29.4671   22.4936 C   0  0  0  0  0  0
  -18.0296  -28.1371   22.8509 C   0  0  0  0  0  0
  -24.1509  -36.7307   23.2620 C   0  0  0  0  0  0
  -25.9410  -30.8205   21.3725 C   0  0  0  0  0  0
  -26.0147  -29.4513   20.7199 C   0  0  0  0  0  0
  -27.1957  -28.6642   20.7203 C   0  0  0  0  0  0
  -26.0228  -26.9404   19.4716 C   0  0  0  0  0  0
  -24.8500  -27.7152   19.4804 C   0  0  0  0  0  0
  -23.6219  -29.8478   20.1617 C   0  0  0  0  0  0
  -25.4122  -36.3099   24.0346 C   0  0  1  0  0  0
  -20.5892  -28.3675   23.1326 C   0  0  2  0  0  0
  -20.6841  -26.9420   22.5406 C   0  0  0  0  0  0
  -19.5814  -26.6398   21.5227 C   0  0  0  0  0  0
  -18.1979  -26.7939   22.1609 C   0  0  0  0  0  0
  -19.1534  -28.8835   23.2934 C   0  0  0  0  0  0
  -18.9449  -30.1444   23.8961 C   0  0  0  0  0  0
  -17.6447  -30.6597   24.0556 C   0  0  0  0  0  0
  -25.9043  -34.9457   23.5143 C   0  0  0  0  0  0
  -16.5348  -29.9090   23.6301 C   0  0  0  0  0  0
  -16.7280  -28.6480   23.0385 C   0  0  0  0  0  0
  -26.4549  -31.6535   25.0679 C   0  0  0  0  0  0
  -25.3806  -31.3569   26.1394 C   0  0  0  0  0  0
  -27.0401  -30.2998   24.6006 C   0  0  0  0  0  0
  -27.6150  -32.4178   25.7480 C   0  0  0  0  0  0
  -27.5600  -37.1814   24.8458 C   0  0  0  0  0  0
  -21.4136  -29.3038   22.3691 N   0  0  0  0  0  0
  -26.4314  -37.3777   23.9405 N   0  0  0  0  0  0
  -24.6752  -31.0742   22.1057 N   0  0  0  0  0  0
  -23.4184  -28.8209   23.3000 O   0  0  0  0  0  0
  -28.3260  -26.5666   20.1555 O   0  0  0  0  0  0
  -26.5536  -34.8907   22.4660 O   0  0  0  0  0  0
  -23.5397  -32.1410   23.7517 O   0  0  0  0  0  0
  -29.3371  -21.6051   20.6177 C   0  0  0  0  0  0
  -29.1274  -22.8823   21.2247 C   0  0  0  0  0  0
  -28.9563  -20.6570   21.5474 C   0  0  0  0  0  0
  -29.6109  -20.1300   24.6606 C   0  0  0  0  0  0
  -27.1223  -20.0891   24.2181 C   0  0  0  0  0  0
  -28.2423  -22.1277   25.1078 C   0  0  0  0  0  0
  -29.3485  -24.3048   20.6779 C   0  0  0  0  0  0
  -28.7550  -19.1511   21.2965 C   0  0  0  0  0  0
  -29.9173  -18.1209   21.5673 C   0  0  0  0  0  0
  -30.0399  -16.9425   20.5339 C   0  0  0  0  0  0
  -28.0693  -25.1516   20.4034 C   0  0  0  0  0  0
  -28.4127  -20.9309   24.1257 C   0  0  0  0  0  0
  -28.7622  -22.7149   22.4841 N   0  0  0  0  0  0
  -28.6950  -21.3726   22.7295 N   0  0  0  0  0  0
  -29.9378  -15.5516   21.0495 N   0  0  0  0  0  0
  -31.4571  -12.4774   19.1045 H   0  0  0  0  0  0
  -30.3617  -11.3282   19.8309 H   0  0  0  0  0  0
  -29.7161  -11.7942   17.4435 H   0  0  0  0  0  0
  -29.6446  -13.5077   17.7675 H   0  0  0  0  0  0
  -27.7983  -11.3380   18.8031 H   0  0  0  0  0  0
  -27.3660  -12.6903   17.7972 H   0  0  0  0  0  0
  -27.7007  -14.2728   19.6060 H   0  0  0  0  0  0
  -28.6728  -11.9726   21.3717 H   0  0  0  0  0  0
  -28.4592  -13.6161   21.8882 H   0  0  0  0  0  0
  -25.2817   -9.5604   22.4741 H   0  0  0  0  0  0
  -24.0017   -7.4595   22.7453 H   0  0  0  0  0  0
  -21.0908   -8.8805   19.8908 H   0  0  0  0  0  0
  -22.3833  -10.9666   19.6146 H   0  0  0  0  0  0
  -21.2027   -7.6180   23.9731 H   0  0  0  0  0  0
  -21.1464   -6.0547   25.9076 H   0  0  0  0  0  0
  -22.0620   -2.7627   23.2788 H   0  0  0  0  0  0
  -22.4247  -11.9803   22.4739 H   0  0  0  0  0  0
  -21.1111  -13.1007   22.2654 H   0  0  0  0  0  0
  -24.6458  -15.8388   20.4756 H   0  0  0  0  0  0
  -26.2786  -15.6249   20.0908 H   0  0  0  0  0  0
  -26.7161  -32.5551   23.1131 H   0  0  0  0  0  0
  -25.0302  -33.9754   25.0640 H   0  0  0  0  0  0
  -22.6981  -31.3182   21.4181 H   0  0  0  0  0  0
  -23.3784  -35.9625   23.3251 H   0  0  0  0  0  0
  -24.3607  -36.8941   22.2039 H   0  0  0  0  0  0
  -23.7250  -37.6505   23.6640 H   0  0  0  0  0  0
  -26.0431  -31.5840   20.5995 H   0  0  0  0  0  0
  -26.8347  -30.8813   21.9821 H   0  0  0  0  0  0
  -28.0892  -29.0167   21.2180 H   0  0  0  0  0  0
  -25.9868  -25.9965   18.9496 H   0  0  0  0  0  0
  -23.9580  -27.3470   18.9907 H   0  0  0  0  0  0
  -23.7544  -30.6345   19.4169 H   0  0  0  0  0  0
  -22.7401  -29.2881   19.8436 H   0  0  0  0  0  0
  -25.1291  -36.1950   25.0834 H   0  0  0  0  0  0
  -21.0000  -28.3273   24.1445 H   0  0  0  0  0  0
  -20.5882  -26.2249   23.3573 H   0  0  0  0  0  0
  -21.6707  -26.7581   22.1117 H   0  0  0  0  0  0
  -19.7014  -25.6309   21.1278 H   0  0  0  0  0  0
  -19.6815  -27.3199   20.6758 H   0  0  0  0  0  0
  -17.4285  -26.6733   21.3976 H   0  0  0  0  0  0
  -18.0353  -26.0043   22.8952 H   0  0  0  0  0  0
  -19.7912  -30.7241   24.2414 H   0  0  0  0  0  0
  -17.4987  -31.6291   24.5126 H   0  0  0  0  0  0
  -15.5350  -30.3024   23.7573 H   0  0  0  0  0  0
  -15.8683  -28.0791   22.7136 H   0  0  0  0  0  0
  -24.6018  -30.6908   25.7650 H   0  0  0  0  0  0
  -24.8968  -32.2706   26.4849 H   0  0  0  0  0  0
  -25.8150  -30.8681   27.0127 H   0  0  0  0  0  0
  -26.2932  -29.6692   24.1173 H   0  0  0  0  0  0
  -27.4351  -29.7256   25.4397 H   0  0  0  0  0  0
  -27.8679  -30.4356   23.9040 H   0  0  0  0  0  0
  -27.2845  -33.3475   26.2114 H   0  0  0  0  0  0
  -28.3993  -32.6699   25.0330 H   0  0  0  0  0  0
  -28.0785  -31.8207   26.5346 H   0  0  0  0  0  0
  -28.2563  -38.0153   24.7531 H   0  0  0  0  0  0
  -28.1153  -36.2681   24.6270 H   0  0  0  0  0  0
  -27.2305  -37.1438   25.8849 H   0  0  0  0  0  0
  -20.9275  -29.8644   21.6826 H   0  0  0  0  0  0
  -26.0200  -38.2857   24.1395 H   0  0  0  0  0  0
  -29.6784  -21.4196   19.6096 H   0  0  0  0  0  0
  -29.4168  -19.7493   25.6639 H   0  0  0  0  0  0
  -30.5070  -20.7502   24.7081 H   0  0  0  0  0  0
  -29.8385  -19.2726   24.0365 H   0  0  0  0  0  0
  -26.7612  -20.0415   25.2469 H   0  0  0  0  0  0
  -27.2682  -19.0553   23.9061 H   0  0  0  0  0  0
  -26.3129  -20.5197   23.6260 H   0  0  0  0  0  0
  -28.2109  -21.7839   26.1439 H   0  0  0  0  0  0
  -27.3148  -22.6703   24.9272 H   0  0  0  0  0  0
  -29.0713  -22.8363   25.0521 H   0  0  0  0  0  0
  -29.9182  -24.2568   19.7506 H   0  0  0  0  0  0
  -29.9826  -24.8570   21.3727 H   0  0  0  0  0  0
  -28.4843  -19.0740   20.2400 H   0  0  0  0  0  0
  -27.8479  -18.8091   21.7919 H   0  0  0  0  0  0
  -29.8677  -17.7109   22.5782 H   0  0  0  0  0  0
  -30.8603  -18.6722   21.5259 H   0  0  0  0  0  0
  -30.9888  -17.0624   20.0042 H   0  0  0  0  0  0
  -29.2761  -17.0256   19.7558 H   0  0  0  0  0  0
  -27.3995  -25.0691   21.2614 H   0  0  0  0  0  0
  -27.5432  -24.6960   19.5636 H   0  0  0  0  0  0
  -29.0669  -15.2954   21.4891 H   0  0  0  0  0  0
  1 25  1  0  0  0
  1 30  2  0  0  0
  1 85  1  0  0  0
  2  3  1  0  0  0
  2 25  1  0  0  0
  2 86  1  0  0  0
  2 87  1  0  0  0
  3  4  1  0  0  0
  3 88  1  0  0  0
  3 89  1  0  0  0
  4  5  1  0  0  0
  4 90  1  0  0  0
  4 91  1  0  0  0
  5  6  1  0  0  0
  5 26  1  0  0  0
  5 92  1  0  0  0
  6 25  1  0  0  0
  6 93  1  0  0  0
  6 94  1  0  0  0
  7  8  2  0  0  0
  7 26  1  0  0  0
  7 29  1  0  0  0
  8  9  1  0  0  0
  8 22  1  0  0  0
  9 10  1  0  0  0
  9 27  2  0  0  0
 10 11  2  0  0  0
 10 15  1  0  0  0
 11 12  1  0  0  0
 11 95  1  0  0  0
 12 13  2  0  0  0
 12 96  1  0  0  0
 13 14  1  0  0  0
 13 31  1  0  0  0
 14 15  2  0  0  0
 14 97  1  0  0  0
 15 98  1  0  0  0
 16 17  2  0  0  0
 16 21  1  0  0  0
 16 31  1  0  0  0
 17 18  1  0  0  0
 17 99  1  0  0  0
 18 19  2  0  0  0
 18100  1  0  0  0
 19 20  1  0  0  0
 19 24  1  0  0  0
 20 21  2  0  0  0
 20101  1  0  0  0
 21 23  1  0  0  0
 22 28  1  0  0  0
 22 32  2  0  0  0
 26 27  1  0  0  0
 28102  1  0  0  0
 28103  1  0  0  0
 29104  1  0  0  0
 29105  1  0  0  0
 33 34  1  0  0  0
 33 66  1  0  0  0
 33 70  2  0  0  0
 34 36  1  0  0  0
 34 59  1  0  0  0
 34106  1  0  0  0
 35 44  2  0  0  0
 35 45  1  0  0  0
 35 68  1  0  0  0
 36 56  1  0  0  0
 36107  1  0  0  0
 37 39  1  0  0  0
 37 47  1  0  0  0
 37 66  1  0  0  0
 37108  1  0  0  0
 38 43  2  0  0  0
 38 46  1  0  0  0
 38 47  1  0  0  0
 39 64  1  0  0  0
 39 67  2  0  0  0
 40 52  1  0  0  0
 40 53  2  0  0  0
 40 58  1  0  0  0
 41109  1  0  0  0
 41110  1  0  0  0
 41111  1  0  0  0
 41 48  1  0  0  0
 42 43  1  0  0  0
 42 66  1  0  0  0
 42112  1  0  0  0
 42113  1  0  0  0
 43 44  1  0  0  0
 44114  1  0  0  0
 45 46  2  0  0  0
 45115  1  0  0  0
 46116  1  0  0  0
 47117  1  0  0  0
 47118  1  0  0  0
 48 56  1  0  0  0
 48 65  1  0  0  0
 48119  1  0  0  0
 49 50  1  0  0  0
 49 53  1  0  0  0
 49 64  1  0  0  0
 49120  1  0  0  0
 50 51  1  0  0  0
 50121  1  0  0  0
 50122  1  0  0  0
 51 52  1  0  0  0
 51123  1  0  0  0
 51124  1  0  0  0
 52125  1  0  0  0
 52126  1  0  0  0
 53 54  1  0  0  0
 54 55  2  0  0  0
 54127  1  0  0  0
 55 57  1  0  0  0
 55128  1  0  0  0
 56 69  2  0  0  0
 57 58  2  0  0  0
 57129  1  0  0  0
 58130  1  0  0  0
 59 60  1  0  0  0
 59 61  1  0  0  0
 59 62  1  0  0  0
 60131  1  0  0  0
 60132  1  0  0  0
 60133  1  0  0  0
 61134  1  0  0  0
 61135  1  0  0  0
 61136  1  0  0  0
 62137  1  0  0  0
 62138  1  0  0  0
 62139  1  0  0  0
 63 65  1  0  0  0
 63140  1  0  0  0
 63141  1  0  0  0
 63142  1  0  0  0
 64143  1  0  0  0
 65144  1  0  0  0
 68 81  1  0  0  0
 71 72  1  0  0  0
 71 73  2  0  0  0
 71145  1  0  0  0
 72 77  1  0  0  0
 72 83  2  0  0  0
 73 78  1  0  0  0
 73 84  1  0  0  0
 74146  1  0  0  0
 74147  1  0  0  0
 74148  1  0  0  0
 74 82  1  0  0  0
 75 82  1  0  0  0
 75149  1  0  0  0
 75150  1  0  0  0
 75151  1  0  0  0
 76 82  1  0  0  0
 76152  1  0  0  0
 76153  1  0  0  0
 76154  1  0  0  0
 77 81  1  0  0  0
 77155  1  0  0  0
 77156  1  0  0  0
 78 79  1  0  0  0
 78157  1  0  0  0
 78158  1  0  0  0
 79 80  1  0  0  0
 79159  1  0  0  0
 79160  1  0  0  0
 80 85  1  0  0  0
 80161  1  0  0  0
 80162  1  0  0  0
 81163  1  0  0  0
 81164  1  0  0  0
 82 84  1  0  0  0
 83 84  1  0  0  0
 85165  1  0  0  0
M  ISO  4   1 100  68 101  81 101  85 100
M  END
> <chiral flag>
0

> <version>
0

> <s_m_source_file>
/data/baiqing/PycharmProjects/Reinvent-master-3.2/result/LINK_invent/BTK/process_docking_weight1_custom_sum_contain_oxygen_bond_distance_aromatic_linkinvent_7_9_3/rearranged_h_0045.sdf

> <i_m_source_file_index>
32

> <r_mmod_Potential_Energy-OPLS-2005>
-5.04569435119629

> <r_mmod_Stretch_Energy-OPLS-2005>
55.7465858459473

> <r_mmod_Bend_Energy-OPLS-2005>
121.609664916992

> <r_mmod_Torsional_Energy-OPLS-2005>
277.798156738281

> <r_mmod_Improper_Torsional_Energy-OPLS-2005>
6.71599531173706

> <r_mmod_Van_der_Waal_Energy-OPLS-2005>
136.207656860352

> <r_mmod_Electrostatic_Energy-OPLS-2005>
-410.112152099609

> <r_mmod_Solvation_Energy-OPLS-2005>
-215.603912353516

> <b_mmod_Minimization_Converged-OPLS-2005>
0

> <r_mmod_RMS_Derivative-OPLS-2005>
6.30408191680908

$$$$
32
                    3D
 Structure written by MMmdl.
157165  0  0  1  0            999 V2000
  -30.6267  -14.6484   20.5041 C   0  0  0  0  0  0
  -30.4342  -12.4006   19.4555 C   0  0  0  0  0  0
  -29.5073  -12.5009   18.2240 C   0  0  0  0  0  0
  -28.0284  -12.3369   18.6286 C   0  0  0  0  0  0
  -27.6436  -13.2180   19.8482 C   0  0  2  0  0  0
  -28.6877  -13.0901   20.9803 C   0  0  0  0  0  0
  -25.2495  -13.8203   20.5620 C   0  0  0  0  0  0
  -24.1757  -13.0428   20.9173 C   0  0  0  0  0  0
  -24.6371  -11.6915   20.8717 C   0  0  0  0  0  0
  -23.9062  -10.4278   21.0358 C   0  0  0  0  0  0
  -24.3616   -9.4193   21.9139 C   0  0  0  0  0  0
  -23.6289   -8.2231   22.0727 C   0  0  0  0  0  0
  -22.4278   -8.0261   21.3530 C   0  0  0  0  0  0
  -21.9902   -9.0223   20.4633 C   0  0  0  0  0  0
  -22.7228  -10.2114   20.3016 C   0  0  0  0  0  0
  -21.6856   -6.0720   22.5283 C   0  0  0  0  0  0
  -21.4010   -6.5621   23.8212 C   0  0  0  0  0  0
  -21.3671   -5.6784   24.9182 C   0  0  0  0  0  0
  -21.6057   -4.3045   24.7230 C   0  0  0  0  0  0
  -21.8818   -3.8135   23.4356 C   0  0  0  0  0  0
  -21.9188   -4.6938   22.3408 C   0  0  0  0  0  0
  -22.7776  -13.5168   21.1870 C   0  0  0  0  0  0
  -22.1635   -4.2116   21.0991 F   0  0  0  0  0  0
  -21.5648   -3.4543   25.7757 F   0  0  0  0  0  0
  -30.0011  -13.4311   20.4167 N   0  0  0  0  0  0
  -26.2906  -12.9378   20.3211 N   0  0  0  0  0  0
  -25.9285  -11.6535   20.5693 N   0  0  0  0  0  0
  -22.0435  -12.8155   22.0477 N   0  0  0  0  0  0
  -25.4190  -15.1932   20.4040 N   0  0  0  0  0  0
  -31.7983  -14.7980   20.1488 O   0  0  0  0  0  0
  -21.6630   -6.8854   21.4244 O   0  0  0  0  0  0
  -22.3429  -14.5477   20.6732 O   0  0  0  0  0  0
  -24.6233  -31.8573   23.2075 C   0  0  0  0  0  0
  -25.9093  -32.4767   23.8367 C   0  0  1  0  0  0
  -27.2217  -27.3316   20.1088 C   0  0  0  0  0  0
  -25.5910  -33.8572   24.2285 N   0  0  0  0  0  0
  -23.4152  -30.4837   21.5486 C   0  0  2  0  0  0
  -24.8586  -28.9415   20.1108 C   0  0  0  0  0  0
  -22.7444  -29.4604   22.4952 C   0  0  0  0  0  0
  -18.0256  -28.1370   22.8467 C   0  0  0  0  0  0
  -24.1467  -36.7321   23.2635 C   0  0  0  0  0  0
  -25.9526  -30.7954   21.3691 C   0  0  0  0  0  0
  -26.0280  -29.4216   20.7141 C   0  0  0  0  0  0
  -27.2122  -28.6300   20.7029 C   0  0  0  0  0  0
  -26.0296  -26.9002   19.4821 C   0  0  0  0  0  0
  -24.8622  -27.6853   19.4839 C   0  0  0  0  0  0
  -23.6298  -29.8262   20.1594 C   0  0  0  0  0  0
  -25.4081  -36.3082   24.0324 C   0  0  1  0  0  0
  -20.5847  -28.3664   23.1291 C   0  0  2  0  0  0
  -20.6740  -26.9393   22.5408 C   0  0  0  0  0  0
  -19.5733  -26.6364   21.5195 C   0  0  0  0  0  0
  -18.1913  -26.7909   22.1608 C   0  0  0  0  0  0
  -19.1508  -28.8832   23.2879 C   0  0  0  0  0  0
  -18.9437  -30.1431   23.8898 C   0  0  0  0  0  0
  -17.6444  -30.6577   24.0555 C   0  0  0  0  0  0
  -25.9027  -34.9452   23.5107 C   0  0  0  0  0  0
  -16.5334  -29.9082   23.6317 C   0  0  0  0  0  0
  -16.7248  -28.6504   23.0329 C   0  0  0  0  0  0
  -26.4488  -31.6579   25.0744 C   0  0  0  0  0  0
  -25.3779  -31.3710   26.1525 C   0  0  0  0  0  0
  -27.0291  -30.2995   24.6162 C   0  0  0  0  0  0
  -27.6022  -32.4318   25.7548 C   0  0  0  0  0  0
  -27.5559  -37.1812   24.8454 C   0  0  0  0  0  0
  -21.4156  -29.3032   22.3718 N   0  0  0  0  0  0
  -26.4252  -37.3782   23.9423 N   0  0  0  0  0  0
  -24.6837  -31.0584   22.1009 N   0  0  0  0  0  0
  -23.4181  -28.8125   23.3006 O   0  0  0  0  0  0
  -28.3493  -26.4986   20.1541 O   0  0  0  0  0  0
  -26.5598  -34.8916   22.4681 O   0  0  0  0  0  0
  -23.5407  -32.1348   23.7431 O   0  0  0  0  0  0
  -29.6838  -20.4424   21.2389 C   0  0  0  0  0  0
  -29.3401  -19.7340   20.0666 C   0  0  0  0  0  0
  -28.9342  -20.5978   19.0059 C   0  0  0  0  0  0
  -29.2563  -22.5301   20.2747 C   0  0  0  0  0  0
  -29.4036  -20.4910   16.5011 C   0  0  0  0  0  0
  -29.2842  -18.1561   19.9740 C   0  0  0  0  0  0
  -28.4448  -20.1090   17.6454 C   0  0  0  0  0  0
  -29.3964  -24.1011   20.3339 C   0  0  0  0  0  0
  -30.1511  -17.1975   20.8990 C   0  0  0  0  0  0
  -28.1655  -25.0381   19.9855 C   0  0  0  0  0  0
  -29.6362  -21.8036   21.3337 N   0  0  0  0  0  0
  -28.9198  -21.9548   19.1233 N   0  0  0  0  0  0
  -29.8316  -15.7215   20.8096 N   0  0  0  0  0  0
  -31.4719  -12.5404   19.1507 H   0  0  0  0  0  0
  -30.3819  -11.4062   19.9027 H   0  0  0  0  0  0
  -29.7783  -11.7411   17.4887 H   0  0  0  0  0  0
  -29.6472  -13.4682   17.7401 H   0  0  0  0  0  0
  -27.8791  -11.2824   18.8629 H   0  0  0  0  0  0
  -27.3755  -12.5539   17.7823 H   0  0  0  0  0  0
  -27.6500  -14.2489   19.4931 H   0  0  0  0  0  0
  -28.6997  -12.0706   21.3662 H   0  0  0  0  0  0
  -28.4260  -13.7317   21.8225 H   0  0  0  0  0  0
  -25.2758   -9.5664   22.4715 H   0  0  0  0  0  0
  -23.9999   -7.4623   22.7442 H   0  0  0  0  0  0
  -21.0836   -8.8717   19.8956 H   0  0  0  0  0  0
  -22.3652  -10.9622   19.6114 H   0  0  0  0  0  0
  -21.1975   -7.6131   23.9692 H   0  0  0  0  0  0
  -21.1512   -6.0519   25.9083 H   0  0  0  0  0  0
  -22.0596   -2.7592   23.2856 H   0  0  0  0  0  0
  -22.4059  -11.9826   22.4905 H   0  0  0  0  0  0
  -21.1039  -13.1172   22.2651 H   0  0  0  0  0  0
  -24.6564  -15.8476   20.5411 H   0  0  0  0  0  0
  -26.2658  -15.6463   20.0825 H   0  0  0  0  0  0
  -26.7181  -32.5436   23.1132 H   0  0  0  0  0  0
  -25.0080  -33.9733   25.0438 H   0  0  0  0  0  0
  -22.7069  -31.3031   21.4118 H   0  0  0  0  0  0
  -23.3710  -35.9675   23.3281 H   0  0  0  0  0  0
  -24.3560  -36.8966   22.2056 H   0  0  0  0  0  0
  -23.7247  -37.6526   23.6674 H   0  0  0  0  0  0
  -26.0623  -31.5569   20.5942 H   0  0  0  0  0  0
  -26.8400  -30.8519   21.9883 H   0  0  0  0  0  0
  -28.1082  -28.9976   21.1830 H   0  0  0  0  0  0
  -25.9755  -25.9423   18.9869 H   0  0  0  0  0  0
  -23.9660  -27.3181   19.0022 H   0  0  0  0  0  0
  -23.7621  -30.6104   19.4115 H   0  0  0  0  0  0
  -22.7446  -29.2682   19.8480 H   0  0  0  0  0  0
  -25.1262  -36.1932   25.0812 H   0  0  0  0  0  0
  -20.9906  -28.3228   24.1422 H   0  0  0  0  0  0
  -20.5582  -26.2289   23.3608 H   0  0  0  0  0  0
  -21.6623  -26.7395   22.1246 H   0  0  0  0  0  0
  -19.6897  -25.6267   21.1246 H   0  0  0  0  0  0
  -19.6683  -27.3155   20.6713 H   0  0  0  0  0  0
  -17.4176  -26.6607   21.4027 H   0  0  0  0  0  0
  -18.0350  -26.0052   22.9012 H   0  0  0  0  0  0
  -19.7922  -30.7230   24.2272 H   0  0  0  0  0  0
  -17.5009  -31.6259   24.5158 H   0  0  0  0  0  0
  -15.5339  -30.2997   23.7625 H   0  0  0  0  0  0
  -15.8644  -28.0840   22.7018 H   0  0  0  0  0  0
  -24.5978  -30.6983   25.7965 H   0  0  0  0  0  0
  -24.8943  -32.2853   26.4953 H   0  0  0  0  0  0
  -25.8187  -30.8976   27.0305 H   0  0  0  0  0  0
  -26.2836  -29.6804   24.1154 H   0  0  0  0  0  0
  -27.3940  -29.7197   25.4648 H   0  0  0  0  0  0
  -27.8732  -30.4260   23.9382 H   0  0  0  0  0  0
  -27.2581  -33.3597   26.2123 H   0  0  0  0  0  0
  -28.3859  -32.6904   25.0426 H   0  0  0  0  0  0
  -28.0652  -31.8455   26.5492 H   0  0  0  0  0  0
  -28.2568  -38.0114   24.7487 H   0  0  0  0  0  0
  -28.1050  -36.2645   24.6265 H   0  0  0  0  0  0
  -27.2294  -37.1471   25.8860 H   0  0  0  0  0  0
  -20.9319  -29.8857   21.7029 H   0  0  0  0  0  0
  -26.0127  -38.2845   24.1455 H   0  0  0  0  0  0
  -29.9920  -19.9177   22.1306 H   0  0  0  0  0  0
  -29.0576  -20.0593   15.5629 H   0  0  0  0  0  0
  -30.4172  -20.1374   16.6928 H   0  0  0  0  0  0
  -29.4561  -21.5736   16.3630 H   0  0  0  0  0  0
  -29.5212  -17.8706   18.9512 H   0  0  0  0  0  0
  -28.2356  -17.9018   20.1324 H   0  0  0  0  0  0
  -27.4698  -20.5652   17.4611 H   0  0  0  0  0  0
  -28.2488  -19.0361   17.6382 H   0  0  0  0  0  0
  -30.2365  -24.3901   19.6995 H   0  0  0  0  0  0
  -29.7114  -24.3568   21.3447 H   0  0  0  0  0  0
  -31.2122  -17.3666   20.7134 H   0  0  0  0  0  0
  -29.9805  -17.4742   21.9407 H   0  0  0  0  0  0
  -27.3175  -24.7153   20.5922 H   0  0  0  0  0  0
  -27.8986  -24.8453   18.9458 H   0  0  0  0  0  0
  -28.8809  -15.4632   21.0346 H   0  0  0  0  0  0
  1 25  1  0  0  0
  1 30  2  0  0  0
  1 83  1  0  0  0
  2  3  1  0  0  0
  2 25  1  0  0  0
  2 84  1  0  0  0
  2 85  1  0  0  0
  3  4  1  0  0  0
  3 86  1  0  0  0
  3 87  1  0  0  0
  4  5  1  0  0  0
  4 88  1  0  0  0
  4 89  1  0  0  0
  5  6  1  0  0  0
  5 26  1  0  0  0
  5 90  1  0  0  0
  6 25  1  0  0  0
  6 91  1  0  0  0
  6 92  1  0  0  0
  7  8  2  0  0  0
  7 26  1  0  0  0
  7 29  1  0  0  0
  8  9  1  0  0  0
  8 22  1  0  0  0
  9 10  1  0  0  0
  9 27  2  0  0  0
 10 11  2  0  0  0
 10 15  1  0  0  0
 11 12  1  0  0  0
 11 93  1  0  0  0
 12 13  2  0  0  0
 12 94  1  0  0  0
 13 14  1  0  0  0
 13 31  1  0  0  0
 14 15  2  0  0  0
 14 95  1  0  0  0
 15 96  1  0  0  0
 16 17  2  0  0  0
 16 21  1  0  0  0
 16 31  1  0  0  0
 17 18  1  0  0  0
 17 97  1  0  0  0
 18 19  2  0  0  0
 18 98  1  0  0  0
 19 20  1  0  0  0
 19 24  1  0  0  0
 20 21  2  0  0  0
 20 99  1  0  0  0
 21 23  1  0  0  0
 22 28  1  0  0  0
 22 32  2  0  0  0
 26 27  1  0  0  0
 28100  1  0  0  0
 28101  1  0  0  0
 29102  1  0  0  0
 29103  1  0  0  0
 33 34  1  0  0  0
 33 66  1  0  0  0
 33 70  2  0  0  0
 34 36  1  0  0  0
 34 59  1  0  0  0
 34104  1  0  0  0
 35 44  2  0  0  0
 35 45  1  0  0  0
 35 68  1  0  0  0
 36 56  1  0  0  0
 36105  1  0  0  0
 37 39  1  0  0  0
 37 47  1  0  0  0
 37 66  1  0  0  0
 37106  1  0  0  0
 38 43  2  0  0  0
 38 46  1  0  0  0
 38 47  1  0  0  0
 39 64  1  0  0  0
 39 67  2  0  0  0
 40 52  1  0  0  0
 40 53  2  0  0  0
 40 58  1  0  0  0
 41107  1  0  0  0
 41108  1  0  0  0
 41109  1  0  0  0
 41 48  1  0  0  0
 42 43  1  0  0  0
 42 66  1  0  0  0
 42110  1  0  0  0
 42111  1  0  0  0
 43 44  1  0  0  0
 44112  1  0  0  0
 45 46  2  0  0  0
 45113  1  0  0  0
 46114  1  0  0  0
 47115  1  0  0  0
 47116  1  0  0  0
 48 56  1  0  0  0
 48 65  1  0  0  0
 48117  1  0  0  0
 49 50  1  0  0  0
 49 53  1  0  0  0
 49 64  1  0  0  0
 49118  1  0  0  0
 50 51  1  0  0  0
 50119  1  0  0  0
 50120  1  0  0  0
 51 52  1  0  0  0
 51121  1  0  0  0
 51122  1  0  0  0
 52123  1  0  0  0
 52124  1  0  0  0
 53 54  1  0  0  0
 54 55  2  0  0  0
 54125  1  0  0  0
 55 57  1  0  0  0
 55126  1  0  0  0
 56 69  2  0  0  0
 57 58  2  0  0  0
 57127  1  0  0  0
 58128  1  0  0  0
 59 60  1  0  0  0
 59 61  1  0  0  0
 59 62  1  0  0  0
 60129  1  0  0  0
 60130  1  0  0  0
 60131  1  0  0  0
 61132  1  0  0  0
 61133  1  0  0  0
 61134  1  0  0  0
 62135  1  0  0  0
 62136  1  0  0  0
 62137  1  0  0  0
 63 65  1  0  0  0
 63138  1  0  0  0
 63139  1  0  0  0
 63140  1  0  0  0
 64141  1  0  0  0
 65142  1  0  0  0
 68 80  1  0  0  0
 71 72  2  0  0  0
 71 81  1  0  0  0
 71143  1  0  0  0
 72 73  1  0  0  0
 72 76  1  0  0  0
 73 77  1  0  0  0
 73 82  2  0  0  0
 74 78  1  0  0  0
 74 81  2  0  0  0
 74 82  1  0  0  0
 75 77  1  0  0  0
 75144  1  0  0  0
 75145  1  0  0  0
 75146  1  0  0  0
 76 79  1  0  0  0
 76147  1  0  0  0
 76148  1  0  0  0
 77149  1  0  0  0
 77150  1  0  0  0
 78 80  1  0  0  0
 78151  1  0  0  0
 78152  1  0  0  0
 79 83  1  0  0  0
 79153  1  0  0  0
 79154  1  0  0  0
 80155  1  0  0  0
 80156  1  0  0  0
 83157  1  0  0  0
M  ISO  4   1 100  68 101  80 101  83 100
M  END
> <chiral flag>
0

> <version>
0

> <s_m_source_file>
/data/baiqing/PycharmProjects/Reinvent-master-3.2/result/LINK_invent/BTK/process_docking_weight1_custom_sum_contain_oxygen_bond_distance_aromatic_linkinvent_7_9_3/rearranged_h_0045.sdf

> <i_m_source_file_index>
33

> <r_mmod_Potential_Energy-OPLS-2005>
-423.172790527344

> <r_mmod_Stretch_Energy-OPLS-2005>
77.601921081543

> <r_mmod_Bend_Energy-OPLS-2005>
143.103149414062

> <r_mmod_Torsional_Energy-OPLS-2005>
183.283706665039

> <r_mmod_Improper_Torsional_Energy-OPLS-2005>
5.28993606567383

> <r_mmod_Van_der_Waal_Energy-OPLS-2005>
147.915267944336

> <r_mmod_Electrostatic_Energy-OPLS-2005>
-794.10693359375

> <r_mmod_Solvation_Energy-OPLS-2005>
-234.666809082031

> <b_mmod_Minimization_Converged-OPLS-2005>
0

> <r_mmod_RMS_Derivative-OPLS-2005>
4.70347738265991

$$$$
33
                    3D
 Structure written by MMmdl.
153161  0  0  1  0            999 V2000
  -30.5266  -15.0139   20.4037 C   0  0  0  0  0  0
  -30.4381  -12.6327   19.5039 C   0  0  0  0  0  0
  -29.5239  -12.5349   18.2605 C   0  0  0  0  0  0
  -28.0588  -12.3129   18.6777 C   0  0  0  0  0  0
  -27.6244  -13.2546   19.8317 C   0  0  2  0  0  0
  -28.6654  -13.3181   20.9689 C   0  0  0  0  0  0
  -25.2442  -13.8210   20.5700 C   0  0  0  0  0  0
  -24.1774  -13.0436   20.9240 C   0  0  0  0  0  0
  -24.6398  -11.6929   20.8760 C   0  0  0  0  0  0
  -23.9080  -10.4301   21.0408 C   0  0  0  0  0  0
  -24.3628   -9.4215   21.9185 C   0  0  0  0  0  0
  -23.6303   -8.2249   22.0752 C   0  0  0  0  0  0
  -22.4283   -8.0283   21.3542 C   0  0  0  0  0  0
  -21.9922   -9.0258   20.4645 C   0  0  0  0  0  0
  -22.7252  -10.2140   20.3058 C   0  0  0  0  0  0
  -21.6858   -6.0737   22.5276 C   0  0  0  0  0  0
  -21.4016   -6.5640   23.8210 C   0  0  0  0  0  0
  -21.3663   -5.6792   24.9172 C   0  0  0  0  0  0
  -21.6047   -4.3054   24.7218 C   0  0  0  0  0  0
  -21.8823   -3.8148   23.4340 C   0  0  0  0  0  0
  -21.9198   -4.6967   22.3398 C   0  0  0  0  0  0
  -22.7793  -13.5211   21.1880 C   0  0  0  0  0  0
  -22.1665   -4.2154   21.0973 F   0  0  0  0  0  0
  -21.5632   -3.4536   25.7728 F   0  0  0  0  0  0
  -29.9300  -13.7484   20.3602 N   0  0  0  0  0  0
  -26.2864  -12.9457   20.3214 N   0  0  0  0  0  0
  -25.9326  -11.6582   20.5725 N   0  0  0  0  0  0
  -22.0438  -12.8206   22.0439 N   0  0  0  0  0  0
  -25.4098  -15.1929   20.4074 N   0  0  0  0  0  0
  -31.7387  -15.0485   20.1630 O   0  0  0  0  0  0
  -21.6646   -6.8880   21.4238 O   0  0  0  0  0  0
  -22.3482  -14.5509   20.6711 O   0  0  0  0  0  0
  -24.6477  -31.8390   23.1836 C   0  0  0  0  0  0
  -25.9222  -32.4672   23.8249 C   0  0  1  0  0  0
  -27.2201  -27.0895   20.1615 C   0  0  0  0  0  0
  -25.5948  -33.8479   24.2165 N   0  0  0  0  0  0
  -23.4546  -30.4559   21.5296 C   0  0  2  0  0  0
  -24.9060  -28.8726   20.1096 C   0  0  0  0  0  0
  -22.7591  -29.4521   22.4839 C   0  0  0  0  0  0
  -18.0310  -28.1403   22.8478 C   0  0  0  0  0  0
  -24.1491  -36.7245   23.2645 C   0  0  0  0  0  0
  -26.0131  -30.6988   21.3890 C   0  0  0  0  0  0
  -26.0843  -29.3049   20.7311 C   0  0  0  0  0  0
  -27.2412  -28.4308   20.7366 C   0  0  0  0  0  0
  -26.0158  -26.7684   19.4988 C   0  0  0  0  0  0
  -24.8876  -27.6200   19.4761 C   0  0  0  0  0  0
  -23.6842  -29.7805   20.1510 C   0  0  0  0  0  0
  -25.4126  -36.3020   24.0317 C   0  0  1  0  0  0
  -20.5925  -28.3733   23.1225 C   0  0  2  0  0  0
  -20.6791  -26.9431   22.5405 C   0  0  0  0  0  0
  -19.5764  -26.6382   21.5215 C   0  0  0  0  0  0
  -18.1946  -26.7940   22.1626 C   0  0  0  0  0  0
  -19.1567  -28.8888   23.2841 C   0  0  0  0  0  0
  -18.9478  -30.1481   23.8872 C   0  0  0  0  0  0
  -17.6473  -30.6596   24.0559 C   0  0  0  0  0  0
  -25.9077  -34.9395   23.5055 C   0  0  0  0  0  0
  -16.5365  -29.9088   23.6337 C   0  0  0  0  0  0
  -16.7292  -28.6506   23.0358 C   0  0  0  0  0  0
  -26.4525  -31.6559   25.0710 C   0  0  0  0  0  0
  -25.3695  -31.3755   26.1395 C   0  0  0  0  0  0
  -27.0400  -30.2950   24.6324 C   0  0  0  0  0  0
  -27.6049  -32.4335   25.7495 C   0  0  0  0  0  0
  -27.5577  -37.1780   24.8467 C   0  0  0  0  0  0
  -21.4279  -29.3048   22.3591 N   0  0  0  0  0  0
  -26.4288  -37.3737   23.9409 N   0  0  0  0  0  0
  -24.7253  -31.0204   22.0891 N   0  0  0  0  0  0
  -23.4209  -28.8078   23.3017 O   0  0  0  0  0  0
  -28.2639  -26.0814   20.2421 O   0  0  0  0  0  0
  -26.5672  -34.8903   22.4640 O   0  0  0  0  0  0
  -23.5584  -32.1288   23.7024 O   0  0  0  0  0  0
  -28.0086  -19.4893   20.1529 C   0  0  0  0  0  0
  -29.3482  -19.1900   20.3624 C   0  0  0  0  0  0
  -28.8791  -21.5749   20.3267 C   0  0  0  0  0  0
  -26.8906  -18.5180   19.9426 C   0  0  0  0  0  0
  -31.2574  -20.8396   20.7593 C   0  0  0  0  0  0
  -30.2262  -17.7669   20.4418 C   0  0  0  0  0  0
  -29.0552  -23.2309   20.4844 C   0  0  0  0  0  0
  -28.0157  -24.5273   20.0737 C   0  0  0  0  0  0
  -27.7391  -20.8938   20.1463 N   0  0  0  0  0  0
  -29.8593  -20.5644   20.4813 N   0  0  0  0  0  0
  -29.7728  -16.2343   20.5081 N   0  0  0  0  0  0
  -31.4691  -12.7994   19.1873 H   0  0  0  0  0  0
  -30.4458  -11.6929   20.0574 H   0  0  0  0  0  0
  -29.8554  -11.7257   17.6084 H   0  0  0  0  0  0
  -29.6034  -13.4528   17.6763 H   0  0  0  0  0  0
  -27.9631  -11.2740   18.9955 H   0  0  0  0  0  0
  -27.3970  -12.4320   17.8194 H   0  0  0  0  0  0
  -27.5766  -14.2494   19.3881 H   0  0  0  0  0  0
  -28.7719  -12.3520   21.4642 H   0  0  0  0  0  0
  -28.3528  -14.0287   21.7353 H   0  0  0  0  0  0
  -25.2771   -9.5696   22.4763 H   0  0  0  0  0  0
  -24.0018   -7.4643   22.7470 H   0  0  0  0  0  0
  -21.0855   -8.8777   19.8949 H   0  0  0  0  0  0
  -22.3706  -10.9679   19.6172 H   0  0  0  0  0  0
  -21.2000   -7.6147   23.9714 H   0  0  0  0  0  0
  -21.1483   -6.0517   25.9076 H   0  0  0  0  0  0
  -22.0598   -2.7608   23.2829 H   0  0  0  0  0  0
  -22.4051  -11.9876   22.4846 H   0  0  0  0  0  0
  -21.1050  -13.1222   22.2615 H   0  0  0  0  0  0
  -24.6343  -15.8385   20.5043 H   0  0  0  0  0  0
  -26.2352  -15.6178   20.0087 H   0  0  0  0  0  0
  -26.7290  -32.5264   23.0976 H   0  0  0  0  0  0
  -25.0054  -33.9583   25.0285 H   0  0  0  0  0  0
  -22.7597  -31.2830   21.3707 H   0  0  0  0  0  0
  -23.3762  -35.9566   23.3288 H   0  0  0  0  0  0
  -24.3576  -36.8899   22.2063 H   0  0  0  0  0  0
  -23.7234  -37.6431   23.6697 H   0  0  0  0  0  0
  -26.1734  -31.4505   20.6152 H   0  0  0  0  0  0
  -26.8813  -30.7510   22.0344 H   0  0  0  0  0  0
  -28.1379  -28.7565   21.2452 H   0  0  0  0  0  0
  -25.9156  -25.8087   19.0136 H   0  0  0  0  0  0
  -23.9896  -27.2832   18.9769 H   0  0  0  0  0  0
  -23.8244  -30.5530   19.3939 H   0  0  0  0  0  0
  -22.7981  -29.2246   19.8395 H   0  0  0  0  0  0
  -25.1315  -36.1846   25.0810 H   0  0  0  0  0  0
  -21.0017  -28.3325   24.1345 H   0  0  0  0  0  0
  -20.5682  -26.2346   23.3629 H   0  0  0  0  0  0
  -21.6655  -26.7426   22.1202 H   0  0  0  0  0  0
  -19.6920  -25.6283   21.1266 H   0  0  0  0  0  0
  -19.6702  -27.3173   20.6729 H   0  0  0  0  0  0
  -17.4214  -26.6685   21.4029 H   0  0  0  0  0  0
  -18.0342  -26.0090   22.9031 H   0  0  0  0  0  0
  -19.7952  -30.7306   24.2229 H   0  0  0  0  0  0
  -17.5023  -31.6273   24.5165 H   0  0  0  0  0  0
  -15.5364  -30.2980   23.7675 H   0  0  0  0  0  0
  -15.8693  -28.0815   22.7090 H   0  0  0  0  0  0
  -24.5885  -30.7097   25.7702 H   0  0  0  0  0  0
  -24.8870  -32.2937   26.4755 H   0  0  0  0  0  0
  -25.7961  -30.8963   27.0216 H   0  0  0  0  0  0
  -26.3028  -29.6660   24.1322 H   0  0  0  0  0  0
  -27.3986  -29.7265   25.4916 H   0  0  0  0  0  0
  -27.8946  -30.4175   23.9667 H   0  0  0  0  0  0
  -27.2640  -33.3664   26.2000 H   0  0  0  0  0  0
  -28.3892  -32.6855   25.0342 H   0  0  0  0  0  0
  -28.0684  -31.8512   26.5470 H   0  0  0  0  0  0
  -28.2582  -38.0086   24.7516 H   0  0  0  0  0  0
  -28.1087  -36.2616   24.6293 H   0  0  0  0  0  0
  -27.2296  -37.1420   25.8869 H   0  0  0  0  0  0
  -20.9502  -29.8751   21.6754 H   0  0  0  0  0  0
  -26.0154  -38.2805   24.1409 H   0  0  0  0  0  0
  -27.0263  -17.6264   20.5529 H   0  0  0  0  0  0
  -26.8316  -18.2014   18.9009 H   0  0  0  0  0  0
  -25.9257  -18.9482   20.2118 H   0  0  0  0  0  0
  -31.8923  -20.1873   20.1597 H   0  0  0  0  0  0
  -31.4607  -20.6588   21.8148 H   0  0  0  0  0  0
  -31.5110  -21.8724   20.5266 H   0  0  0  0  0  0
  -30.8861  -17.8739   21.3030 H   0  0  0  0  0  0
  -30.9116  -17.7963   19.5931 H   0  0  0  0  0  0
  -29.9859  -23.4615   19.9688 H   0  0  0  0  0  0
  -29.2951  -23.3794   21.5373 H   0  0  0  0  0  0
  -27.0812  -24.3260   20.5979 H   0  0  0  0  0  0
  -27.7803  -24.3906   19.0180 H   0  0  0  0  0  0
  -28.7853  -16.0938   20.6530 H   0  0  0  0  0  0
  1 25  1  0  0  0
  1 30  2  0  0  0
  1 81  1  0  0  0
  2  3  1  0  0  0
  2 25  1  0  0  0
  2 82  1  0  0  0
  2 83  1  0  0  0
  3  4  1  0  0  0
  3 84  1  0  0  0
  3 85  1  0  0  0
  4  5  1  0  0  0
  4 86  1  0  0  0
  4 87  1  0  0  0
  5  6  1  0  0  0
  5 26  1  0  0  0
  5 88  1  0  0  0
  6 25  1  0  0  0
  6 89  1  0  0  0
  6 90  1  0  0  0
  7  8  2  0  0  0
  7 26  1  0  0  0
  7 29  1  0  0  0
  8  9  1  0  0  0
  8 22  1  0  0  0
  9 10  1  0  0  0
  9 27  2  0  0  0
 10 11  2  0  0  0
 10 15  1  0  0  0
 11 12  1  0  0  0
 11 91  1  0  0  0
 12 13  2  0  0  0
 12 92  1  0  0  0
 13 14  1  0  0  0
 13 31  1  0  0  0
 14 15  2  0  0  0
 14 93  1  0  0  0
 15 94  1  0  0  0
 16 17  2  0  0  0
 16 21  1  0  0  0
 16 31  1  0  0  0
 17 18  1  0  0  0
 17 95  1  0  0  0
 18 19  2  0  0  0
 18 96  1  0  0  0
 19 20  1  0  0  0
 19 24  1  0  0  0
 20 21  2  0  0  0
 20 97  1  0  0  0
 21 23  1  0  0  0
 22 28  1  0  0  0
 22 32  2  0  0  0
 26 27  1  0  0  0
 28 98  1  0  0  0
 28 99  1  0  0  0
 29100  1  0  0  0
 29101  1  0  0  0
 33 34  1  0  0  0
 33 66  1  0  0  0
 33 70  2  0  0  0
 34 36  1  0  0  0
 34 59  1  0  0  0
 34102  1  0  0  0
 35 44  2  0  0  0
 35 45  1  0  0  0
 35 68  1  0  0  0
 36 56  1  0  0  0
 36103  1  0  0  0
 37 39  1  0  0  0
 37 47  1  0  0  0
 37 66  1  0  0  0
 37104  1  0  0  0
 38 43  2  0  0  0
 38 46  1  0  0  0
 38 47  1  0  0  0
 39 64  1  0  0  0
 39 67  2  0  0  0
 40 52  1  0  0  0
 40 53  2  0  0  0
 40 58  1  0  0  0
 41105  1  0  0  0
 41106  1  0  0  0
 41107  1  0  0  0
 41 48  1  0  0  0
 42 43  1  0  0  0
 42 66  1  0  0  0
 42108  1  0  0  0
 42109  1  0  0  0
 43 44  1  0  0  0
 44110  1  0  0  0
 45 46  2  0  0  0
 45111  1  0  0  0
 46112  1  0  0  0
 47113  1  0  0  0
 47114  1  0  0  0
 48 56  1  0  0  0
 48 65  1  0  0  0
 48115  1  0  0  0
 49 50  1  0  0  0
 49 53  1  0  0  0
 49 64  1  0  0  0
 49116  1  0  0  0
 50 51  1  0  0  0
 50117  1  0  0  0
 50118  1  0  0  0
 51 52  1  0  0  0
 51119  1  0  0  0
 51120  1  0  0  0
 52121  1  0  0  0
 52122  1  0  0  0
 53 54  1  0  0  0
 54 55  2  0  0  0
 54123  1  0  0  0
 55 57  1  0  0  0
 55124  1  0  0  0
 56 69  2  0  0  0
 57 58  2  0  0  0
 57125  1  0  0  0
 58126  1  0  0  0
 59 60  1  0  0  0
 59 61  1  0  0  0
 59 62  1  0  0  0
 60127  1  0  0  0
 60128  1  0  0  0
 60129  1  0  0  0
 61130  1  0  0  0
 61131  1  0  0  0
 61132  1  0  0  0
 62133  1  0  0  0
 62134  1  0  0  0
 62135  1  0  0  0
 63 65  1  0  0  0
 63136  1  0  0  0
 63137  1  0  0  0
 63138  1  0  0  0
 64139  1  0  0  0
 65140  1  0  0  0
 68 78  1  0  0  0
 71 72  2  0  0  0
 71 74  1  0  0  0
 71 79  1  0  0  0
 72 76  1  0  0  0
 72 80  1  0  0  0
 73 77  1  0  0  0
 73 79  2  0  0  0
 73 80  1  0  0  0
 74141  1  0  0  0
 74142  1  0  0  0
 74143  1  0  0  0
 75 80  1  0  0  0
 75144  1  0  0  0
 75145  1  0  0  0
 75146  1  0  0  0
 76 81  1  0  0  0
 76147  1  0  0  0
 76148  1  0  0  0
 77 78  1  0  0  0
 77149  1  0  0  0
 77150  1  0  0  0
 78151  1  0  0  0
 78152  1  0  0  0
 81153  1  0  0  0
M  ISO  4   1 100  68 101  78 101  81 100
M  END
> <chiral flag>
0

> <version>
0

> <s_m_source_file>
/data/baiqing/PycharmProjects/Reinvent-master-3.2/result/LINK_invent/BTK/process_docking_weight1_custom_sum_contain_oxygen_bond_distance_aromatic_linkinvent_7_9_3/rearranged_h_0045.sdf

> <i_m_source_file_index>
34

> <r_mmod_Potential_Energy-OPLS-2005>
518.649291992188

> <r_mmod_Stretch_Energy-OPLS-2005>
313.914215087891

> <r_mmod_Bend_Energy-OPLS-2005>
293.170623779297

> <r_mmod_Torsional_Energy-OPLS-2005>
205.334548950195

> <r_mmod_Improper_Torsional_Energy-OPLS-2005>
4.82366323471069

> <r_mmod_Van_der_Waal_Energy-OPLS-2005>
104.368049621582

> <r_mmod_Electrostatic_Energy-OPLS-2005>
-410.786834716797

> <r_mmod_Solvation_Energy-OPLS-2005>
-231.475479125977

> <b_mmod_Minimization_Converged-OPLS-2005>
0

> <r_mmod_RMS_Derivative-OPLS-2005>
1.00780701637268

$$$$
34
                    3D
 Structure written by MMmdl.
159167  0  0  1  0            999 V2000
  -30.6763  -14.5098   20.5181 C   0  0  0  0  0  0
  -30.4231  -12.3114   19.4269 C   0  0  0  0  0  0
  -29.4954  -12.4875   18.2062 C   0  0  0  0  0  0
  -28.0153  -12.3513   18.6185 C   0  0  0  0  0  0
  -27.6565  -13.2069   19.8644 C   0  0  2  0  0  0
  -28.7023  -13.0121   20.9860 C   0  0  0  0  0  0
  -25.2568  -13.8166   20.5689 C   0  0  0  0  0  0
  -24.1827  -13.0454   20.9210 C   0  0  0  0  0  0
  -24.6373  -11.6917   20.8763 C   0  0  0  0  0  0
  -23.9039  -10.4310   21.0410 C   0  0  0  0  0  0
  -24.3599   -9.4216   21.9189 C   0  0  0  0  0  0
  -23.6294   -8.2236   22.0742 C   0  0  0  0  0  0
  -22.4273   -8.0277   21.3529 C   0  0  0  0  0  0
  -21.9898   -9.0250   20.4635 C   0  0  0  0  0  0
  -22.7214  -10.2141   20.3051 C   0  0  0  0  0  0
  -21.6845   -6.0739   22.5286 C   0  0  0  0  0  0
  -21.4010   -6.5635   23.8225 C   0  0  0  0  0  0
  -21.3660   -5.6775   24.9186 C   0  0  0  0  0  0
  -21.6043   -4.3048   24.7230 C   0  0  0  0  0  0
  -21.8820   -3.8143   23.4347 C   0  0  0  0  0  0
  -21.9186   -4.6958   22.3405 C   0  0  0  0  0  0
  -22.7842  -13.5250   21.1872 C   0  0  0  0  0  0
  -22.1651   -4.2147   21.0983 F   0  0  0  0  0  0
  -21.5622   -3.4532   25.7740 F   0  0  0  0  0  0
  -30.0268  -13.3175   20.4235 N   0  0  0  0  0  0
  -26.3004  -12.9334   20.3330 N   0  0  0  0  0  0
  -25.9302  -11.6505   20.5765 N   0  0  0  0  0  0
  -22.0470  -12.8259   22.0426 N   0  0  0  0  0  0
  -25.4280  -15.1888   20.4045 N   0  0  0  0  0  0
  -31.8380  -14.6733   20.1321 O   0  0  0  0  0  0
  -21.6624   -6.8884   21.4243 O   0  0  0  0  0  0
  -22.3528  -14.5565   20.6719 O   0  0  0  0  0  0
  -24.6223  -31.8590   23.2053 C   0  0  0  0  0  0
  -25.9084  -32.4771   23.8346 C   0  0  1  0  0  0
  -27.1996  -27.3555   20.1195 C   0  0  0  0  0  0
  -25.5924  -33.8581   24.2276 N   0  0  0  0  0  0
  -23.4112  -30.4885   21.5449 C   0  0  2  0  0  0
  -24.8472  -28.9460   20.1104 C   0  0  0  0  0  0
  -22.7433  -29.4631   22.4927 C   0  0  0  0  0  0
  -18.0281  -28.1344   22.8501 C   0  0  0  0  0  0
  -24.1491  -36.7312   23.2626 C   0  0  0  0  0  0
  -25.9471  -30.8081   21.3608 C   0  0  0  0  0  0
  -26.0156  -29.4375   20.7072 C   0  0  0  0  0  0
  -27.1981  -28.6528   20.7002 C   0  0  0  0  0  0
  -26.0154  -26.9000   19.4984 C   0  0  0  0  0  0
  -24.8464  -27.6815   19.4971 C   0  0  0  0  0  0
  -23.6176  -29.8249   20.1586 C   0  0  0  0  0  0
  -25.4110  -36.3090   24.0320 C   0  0  1  0  0  0
  -20.5880  -28.3646   23.1295 C   0  0  2  0  0  0
  -20.6765  -26.9369   22.5408 C   0  0  0  0  0  0
  -19.5740  -26.6358   21.5203 C   0  0  0  0  0  0
  -18.1924  -26.7893   22.1629 C   0  0  0  0  0  0
  -19.1533  -28.8810   23.2897 C   0  0  0  0  0  0
  -18.9459  -30.1420   23.8898 C   0  0  0  0  0  0
  -17.6461  -30.6555   24.0559 C   0  0  0  0  0  0
  -25.9049  -34.9455   23.5100 C   0  0  0  0  0  0
  -16.5350  -29.9054   23.6322 C   0  0  0  0  0  0
  -16.7270  -28.6465   23.0352 C   0  0  0  0  0  0
  -26.4502  -31.6572   25.0700 C   0  0  0  0  0  0
  -25.3786  -31.3720   26.1466 C   0  0  0  0  0  0
  -27.0305  -30.2996   24.6099 C   0  0  0  0  0  0
  -27.6049  -32.4309   25.7477 C   0  0  0  0  0  0
  -27.5585  -37.1787   24.8441 C   0  0  0  0  0  0
  -21.4144  -29.3030   22.3693 N   0  0  0  0  0  0
  -26.4270  -37.3801   23.9435 N   0  0  0  0  0  0
  -24.6797  -31.0683   22.0943 N   0  0  0  0  0  0
  -23.4192  -28.8142   23.2951 O   0  0  0  0  0  0
  -28.3220  -26.5410   20.1528 O   0  0  0  0  0  0
  -26.5610  -34.8924   22.4660 O   0  0  0  0  0  0
  -23.5413  -32.1305   23.7467 O   0  0  0  0  0  0
  -26.5311  -21.9031   20.6074 C   0  0  0  0  0  0
  -27.9275  -21.6604   20.4628 C   0  0  0  0  0  0
  -28.0888  -20.3599   20.9257 C   0  0  0  0  0  0
  -26.4812  -18.8160   22.2155 C   0  0  0  0  0  0
  -28.9711  -22.6448   19.9374 C   0  0  0  0  0  0
  -29.3038  -19.4381   21.0374 C   0  0  0  0  0  0
  -28.5159  -24.0822   19.4781 C   0  0  0  0  0  0
  -29.1519  -17.9717   20.4973 C   0  0  0  0  0  0
  -30.2908  -16.9900   20.9180 C   0  0  0  0  0  0
  -28.1289  -25.1456   20.5561 C   0  0  0  0  0  0
  -25.9023  -20.9156   21.2151 N   0  0  0  0  0  0
  -26.8557  -19.9931   21.4530 N   0  0  0  0  0  0
  -29.9058  -15.5589   20.8723 N   0  0  0  0  0  0
  -31.4681  -12.4071   19.1290 H   0  0  0  0  0  0
  -30.3203  -11.3101   19.8491 H   0  0  0  0  0  0
  -29.7409  -11.7508   17.4399 H   0  0  0  0  0  0
  -29.6608  -13.4659   17.7522 H   0  0  0  0  0  0
  -27.8341  -11.2977   18.8318 H   0  0  0  0  0  0
  -27.3636  -12.6043   17.7817 H   0  0  0  0  0  0
  -27.6907  -14.2513   19.5515 H   0  0  0  0  0  0
  -28.6841  -11.9804   21.3435 H   0  0  0  0  0  0
  -28.4714  -13.6293   21.8563 H   0  0  0  0  0  0
  -25.2736   -9.5695   22.4765 H   0  0  0  0  0  0
  -24.0010   -7.4606   22.7447 H   0  0  0  0  0  0
  -21.0826   -8.8771   19.8929 H   0  0  0  0  0  0
  -22.3681  -10.9678   19.6156 H   0  0  0  0  0  0
  -21.2005   -7.6140   23.9743 H   0  0  0  0  0  0
  -21.1484   -6.0500   25.9093 H   0  0  0  0  0  0
  -22.0602   -2.7603   23.2844 H   0  0  0  0  0  0
  -22.4076  -11.9918   22.4812 H   0  0  0  0  0  0
  -21.1077  -13.1275   22.2627 H   0  0  0  0  0  0
  -24.6540  -15.8370   20.4973 H   0  0  0  0  0  0
  -26.2652  -15.6184   20.0315 H   0  0  0  0  0  0
  -26.7150  -32.5447   23.1093 H   0  0  0  0  0  0
  -25.0137  -33.9732   25.0465 H   0  0  0  0  0  0
  -22.7045  -31.3098   21.4082 H   0  0  0  0  0  0
  -23.3746  -35.9650   23.3257 H   0  0  0  0  0  0
  -24.3605  -36.8960   22.2049 H   0  0  0  0  0  0
  -23.7238  -37.6505   23.6663 H   0  0  0  0  0  0
  -26.0690  -31.5711   20.5909 H   0  0  0  0  0  0
  -26.8352  -30.8584   21.9809 H   0  0  0  0  0  0
  -28.0988  -29.0208   21.1719 H   0  0  0  0  0  0
  -25.9811  -25.9315   19.0206 H   0  0  0  0  0  0
  -23.9492  -27.3013   19.0267 H   0  0  0  0  0  0
  -23.7344  -30.5990   19.3982 H   0  0  0  0  0  0
  -22.7378  -29.2508   19.8616 H   0  0  0  0  0  0
  -25.1293  -36.1926   25.0810 H   0  0  0  0  0  0
  -21.0007  -28.3195   24.1398 H   0  0  0  0  0  0
  -20.5650  -26.2244   23.3595 H   0  0  0  0  0  0
  -21.6632  -26.7364   22.1211 H   0  0  0  0  0  0
  -19.6887  -25.6270   21.1214 H   0  0  0  0  0  0
  -19.6674  -27.3188   20.6745 H   0  0  0  0  0  0
  -17.4192  -26.6639   21.4032 H   0  0  0  0  0  0
  -18.0314  -26.0023   22.9013 H   0  0  0  0  0  0
  -19.7940  -30.7244   24.2248 H   0  0  0  0  0  0
  -17.5014  -31.6248   24.5142 H   0  0  0  0  0  0
  -15.5347  -30.2966   23.7633 H   0  0  0  0  0  0
  -15.8667  -28.0799   22.7050 H   0  0  0  0  0  0
  -24.5921  -30.7095   25.7840 H   0  0  0  0  0  0
  -24.9044  -32.2907   26.4920 H   0  0  0  0  0  0
  -25.8160  -30.8884   27.0208 H   0  0  0  0  0  0
  -26.2822  -29.6781   24.1157 H   0  0  0  0  0  0
  -27.4047  -29.7225   25.4564 H   0  0  0  0  0  0
  -27.8693  -30.4282   23.9255 H   0  0  0  0  0  0
  -27.2595  -33.3571   26.2082 H   0  0  0  0  0  0
  -28.3839  -32.6919   25.0303 H   0  0  0  0  0  0
  -28.0731  -31.8420   26.5372 H   0  0  0  0  0  0
  -28.2536  -38.0152   24.7597 H   0  0  0  0  0  0
  -28.1136  -36.2688   24.6107 H   0  0  0  0  0  0
  -27.2327  -37.1257   25.8843 H   0  0  0  0  0  0
  -20.9253  -29.8809   21.7001 H   0  0  0  0  0  0
  -26.0134  -38.2849   24.1524 H   0  0  0  0  0  0
  -25.9608  -22.7821   20.3378 H   0  0  0  0  0  0
  -27.3271  -18.4607   22.8060 H   0  0  0  0  0  0
  -26.1512  -18.0288   21.5381 H   0  0  0  0  0  0
  -25.6689  -19.0498   22.9044 H   0  0  0  0  0  0
  -29.4662  -22.1898   19.0786 H   0  0  0  0  0  0
  -29.7583  -22.7527   20.6825 H   0  0  0  0  0  0
  -29.5884  -19.3827   22.0889 H   0  0  0  0  0  0
  -30.1577  -19.9018   20.5431 H   0  0  0  0  0  0
  -27.7257  -24.0095   18.7320 H   0  0  0  0  0  0
  -29.3684  -24.4965   18.9380 H   0  0  0  0  0  0
  -29.0652  -17.9954   19.4105 H   0  0  0  0  0  0
  -28.2175  -17.5413   20.8400 H   0  0  0  0  0  0
  -30.5920  -17.1969   21.9446 H   0  0  0  0  0  0
  -31.1693  -17.1766   20.2966 H   0  0  0  0  0  0
  -28.7263  -24.9766   21.4533 H   0  0  0  0  0  0
  -27.1032  -24.9531   20.8719 H   0  0  0  0  0  0
  -28.9625  -15.3258   21.1404 H   0  0  0  0  0  0
  1 25  1  0  0  0
  1 30  2  0  0  0
  1 83  1  0  0  0
  2  3  1  0  0  0
  2 25  1  0  0  0
  2 84  1  0  0  0
  2 85  1  0  0  0
  3  4  1  0  0  0
  3 86  1  0  0  0
  3 87  1  0  0  0
  4  5  1  0  0  0
  4 88  1  0  0  0
  4 89  1  0  0  0
  5  6  1  0  0  0
  5 26  1  0  0  0
  5 90  1  0  0  0
  6 25  1  0  0  0
  6 91  1  0  0  0
  6 92  1  0  0  0
  7  8  2  0  0  0
  7 26  1  0  0  0
  7 29  1  0  0  0
  8  9  1  0  0  0
  8 22  1  0  0  0
  9 10  1  0  0  0
  9 27  2  0  0  0
 10 11  2  0  0  0
 10 15  1  0  0  0
 11 12  1  0  0  0
 11 93  1  0  0  0
 12 13  2  0  0  0
 12 94  1  0  0  0
 13 14  1  0  0  0
 13 31  1  0  0  0
 14 15  2  0  0  0
 14 95  1  0  0  0
 15 96  1  0  0  0
 16 17  2  0  0  0
 16 21  1  0  0  0
 16 31  1  0  0  0
 17 18  1  0  0  0
 17 97  1  0  0  0
 18 19  2  0  0  0
 18 98  1  0  0  0
 19 20  1  0  0  0
 19 24  1  0  0  0
 20 21  2  0  0  0
 20 99  1  0  0  0
 21 23  1  0  0  0
 22 28  1  0  0  0
 22 32  2  0  0  0
 26 27  1  0  0  0
 28100  1  0  0  0
 28101  1  0  0  0
 29102  1  0  0  0
 29103  1  0  0  0
 33 34  1  0  0  0
 33 66  1  0  0  0
 33 70  2  0  0  0
 34 36  1  0  0  0
 34 59  1  0  0  0
 34104  1  0  0  0
 35 44  2  0  0  0
 35 45  1  0  0  0
 35 68  1  0  0  0
 36 56  1  0  0  0
 36105  1  0  0  0
 37 39  1  0  0  0
 37 47  1  0  0  0
 37 66  1  0  0  0
 37106  1  0  0  0
 38 43  2  0  0  0
 38 46  1  0  0  0
 38 47  1  0  0  0
 39 64  1  0  0  0
 39 67  2  0  0  0
 40 52  1  0  0  0
 40 53  2  0  0  0
 40 58  1  0  0  0
 41107  1  0  0  0
 41108  1  0  0  0
 41109  1  0  0  0
 41 48  1  0  0  0
 42 43  1  0  0  0
 42 66  1  0  0  0
 42110  1  0  0  0
 42111  1  0  0  0
 43 44  1  0  0  0
 44112  1  0  0  0
 45 46  2  0  0  0
 45113  1  0  0  0
 46114  1  0  0  0
 47115  1  0  0  0
 47116  1  0  0  0
 48 56  1  0  0  0
 48 65  1  0  0  0
 48117  1  0  0  0
 49 50  1  0  0  0
 49 53  1  0  0  0
 49 64  1  0  0  0
 49118  1  0  0  0
 50 51  1  0  0  0
 50119  1  0  0  0
 50120  1  0  0  0
 51 52  1  0  0  0
 51121  1  0  0  0
 51122  1  0  0  0
 52123  1  0  0  0
 52124  1  0  0  0
 53 54  1  0  0  0
 54 55  2  0  0  0
 54125  1  0  0  0
 55 57  1  0  0  0
 55126  1  0  0  0
 56 69  2  0  0  0
 57 58  2  0  0  0
 57127  1  0  0  0
 58128  1  0  0  0
 59 60  1  0  0  0
 59 61  1  0  0  0
 59 62  1  0  0  0
 60129  1  0  0  0
 60130  1  0  0  0
 60131  1  0  0  0
 61132  1  0  0  0
 61133  1  0  0  0
 61134  1  0  0  0
 62135  1  0  0  0
 62136  1  0  0  0
 62137  1  0  0  0
 63 65  1  0  0  0
 63138  1  0  0  0
 63139  1  0  0  0
 63140  1  0  0  0
 64141  1  0  0  0
 65142  1  0  0  0
 68 80  1  0  0  0
 71 72  1  0  0  0
 71 81  2  0  0  0
 71143  1  0  0  0
 72 73  2  0  0  0
 72 75  1  0  0  0
 73 76  1  0  0  0
 73 82  1  0  0  0
 74 82  1  0  0  0
 74144  1  0  0  0
 74145  1  0  0  0
 74146  1  0  0  0
 75 77  1  0  0  0
 75147  1  0  0  0
 75148  1  0  0  0
 76 78  1  0  0  0
 76149  1  0  0  0
 76150  1  0  0  0
 77 80  1  0  0  0
 77151  1  0  0  0
 77152  1  0  0  0
 78 79  1  0  0  0
 78153  1  0  0  0
 78154  1  0  0  0
 79 83  1  0  0  0
 79155  1  0  0  0
 79156  1  0  0  0
 80157  1  0  0  0
 80158  1  0  0  0
 81 82  1  0  0  0
 83159  1  0  0  0
M  ISO  4   1 100  68 101  80 101  83 100
M  END
> <chiral flag>
0

> <version>
0

> <s_m_source_file>
/data/baiqing/PycharmProjects/Reinvent-master-3.2/result/LINK_invent/BTK/process_docking_weight1_custom_sum_contain_oxygen_bond_distance_aromatic_linkinvent_7_9_3/rearranged_h_0045.sdf

> <i_m_source_file_index>
35

> <r_mmod_Potential_Energy-OPLS-2005>
-62.4932518005371

> <r_mmod_Stretch_Energy-OPLS-2005>
49.4552268981934

> <r_mmod_Bend_Energy-OPLS-2005>
109.812957763672

> <r_mmod_Torsional_Energy-OPLS-2005>
225.806137084961

> <r_mmod_Improper_Torsional_Energy-OPLS-2005>
4.89488840103149

> <r_mmod_Van_der_Waal_Energy-OPLS-2005>
120.313957214355

> <r_mmod_Electrostatic_Energy-OPLS-2005>
-374.103149414062

> <r_mmod_Solvation_Energy-OPLS-2005>
-226.067108154297

> <b_mmod_Minimization_Converged-OPLS-2005>
0

> <r_mmod_RMS_Derivative-OPLS-2005>
3.73860549926758

$$$$
35
                    3D
 Structure written by MMmdl.
157165  0  0  1  0            999 V2000
  -30.5447  -14.9802   20.4796 C   0  0  0  0  0  0
  -30.4433  -12.6213   19.5102 C   0  0  0  0  0  0
  -29.5271  -12.5521   18.2648 C   0  0  0  0  0  0
  -28.0597  -12.3263   18.6738 C   0  0  0  0  0  0
  -27.6324  -13.2468   19.8457 C   0  0  2  0  0  0
  -28.6706  -13.2353   20.9839 C   0  0  0  0  0  0
  -25.2471  -13.8209   20.5709 C   0  0  0  0  0  0
  -24.1779  -13.0432   20.9202 C   0  0  0  0  0  0
  -24.6393  -11.6915   20.8734 C   0  0  0  0  0  0
  -23.9075  -10.4290   21.0401 C   0  0  0  0  0  0
  -24.3634   -9.4205   21.9180 C   0  0  0  0  0  0
  -23.6306   -8.2241   22.0751 C   0  0  0  0  0  0
  -22.4284   -8.0284   21.3549 C   0  0  0  0  0  0
  -21.9917   -9.0257   20.4652 C   0  0  0  0  0  0
  -22.7244  -10.2133   20.3056 C   0  0  0  0  0  0
  -21.6858   -6.0734   22.5281 C   0  0  0  0  0  0
  -21.4019   -6.5636   23.8215 C   0  0  0  0  0  0
  -21.3660   -5.6788   24.9176 C   0  0  0  0  0  0
  -21.6043   -4.3051   24.7224 C   0  0  0  0  0  0
  -21.8820   -3.8141   23.4347 C   0  0  0  0  0  0
  -21.9195   -4.6959   22.3403 C   0  0  0  0  0  0
  -22.7800  -13.5205   21.1871 C   0  0  0  0  0  0
  -22.1653   -4.2143   21.0976 F   0  0  0  0  0  0
  -21.5637   -3.4532   25.7737 F   0  0  0  0  0  0
  -29.9423  -13.7110   20.4098 N   0  0  0  0  0  0
  -26.2891  -12.9435   20.3245 N   0  0  0  0  0  0
  -25.9328  -11.6563   20.5721 N   0  0  0  0  0  0
  -22.0453  -12.8203   22.0436 N   0  0  0  0  0  0
  -25.4155  -15.1941   20.4190 N   0  0  0  0  0  0
  -31.7119  -15.0387   20.0721 O   0  0  0  0  0  0
  -21.6650   -6.8879   21.4243 O   0  0  0  0  0  0
  -22.3473  -14.5501   20.6706 O   0  0  0  0  0  0
  -24.6450  -31.8418   23.1865 C   0  0  0  0  0  0
  -25.9211  -32.4687   23.8263 C   0  0  1  0  0  0
  -27.2196  -27.1143   20.1578 C   0  0  0  0  0  0
  -25.5952  -33.8496   24.2179 N   0  0  0  0  0  0
  -23.4506  -30.4602   21.5315 C   0  0  2  0  0  0
  -24.9018  -28.8818   20.1123 C   0  0  0  0  0  0
  -22.7575  -29.4535   22.4843 C   0  0  0  0  0  0
  -18.0306  -28.1403   22.8466 C   0  0  0  0  0  0
  -24.1493  -36.7248   23.2642 C   0  0  0  0  0  0
  -26.0083  -30.7095   21.3891 C   0  0  0  0  0  0
  -26.0800  -29.3184   20.7308 C   0  0  0  0  0  0
  -27.2394  -28.4518   20.7335 C   0  0  0  0  0  0
  -26.0144  -26.7833   19.5014 C   0  0  0  0  0  0
  -24.8826  -27.6285   19.4826 C   0  0  0  0  0  0
  -23.6800  -29.7873   20.1520 C   0  0  0  0  0  0
  -25.4123  -36.3025   24.0314 C   0  0  1  0  0  0
  -20.5921  -28.3730   23.1230 C   0  0  2  0  0  0
  -20.6790  -26.9428   22.5411 C   0  0  0  0  0  0
  -19.5768  -26.6382   21.5215 C   0  0  0  0  0  0
  -18.1948  -26.7941   22.1619 C   0  0  0  0  0  0
  -19.1563  -28.8885   23.2840 C   0  0  0  0  0  0
  -18.9480  -30.1480   23.8868 C   0  0  0  0  0  0
  -17.6475  -30.6596   24.0562 C   0  0  0  0  0  0
  -25.9073  -34.9402   23.5056 C   0  0  0  0  0  0
  -16.5368  -29.9090   23.6340 C   0  0  0  0  0  0
  -16.7289  -28.6511   23.0349 C   0  0  0  0  0  0
  -26.4526  -31.6562   25.0712 C   0  0  0  0  0  0
  -25.3703  -31.3774   26.1405 C   0  0  0  0  0  0
  -27.0384  -30.2946   24.6325 C   0  0  0  0  0  0
  -27.6065  -32.4327   25.7480 C   0  0  0  0  0  0
  -27.5577  -37.1774   24.8461 C   0  0  0  0  0  0
  -21.4267  -29.3049   22.3593 N   0  0  0  0  0  0
  -26.4284  -37.3740   23.9412 N   0  0  0  0  0  0
  -24.7212  -31.0254   22.0910 N   0  0  0  0  0  0
  -23.4207  -28.8084   23.3001 O   0  0  0  0  0  0
  -28.2703  -26.1195   20.2277 O   0  0  0  0  0  0
  -26.5665  -34.8901   22.4638 O   0  0  0  0  0  0
  -23.5561  -32.1299   23.7067 O   0  0  0  0  0  0
  -29.6871  -20.5018   20.2508 C   0  0  0  0  0  0
  -28.7584  -21.6466   20.4423 C   0  0  0  0  0  0
  -29.2852  -19.0853   20.4710 C   0  0  0  0  0  0
  -27.2216  -19.9993   21.0326 C   0  0  0  0  0  0
  -31.1129  -20.8112   19.8288 C   0  0  0  0  0  0
  -25.8144  -19.7094   21.5089 C   0  0  0  0  0  0
  -29.1060  -16.2415   22.0446 C   0  0  0  0  0  0
  -29.0697  -23.2851   20.4178 C   0  0  0  0  0  0
  -30.1686  -17.6810   20.2908 C   0  0  0  0  0  0
  -27.9956  -24.5728   20.1341 C   0  0  0  0  0  0
  -27.5287  -21.2936   20.8661 N   0  0  0  0  0  0
  -28.0032  -18.9292   20.8481 N   0  0  0  0  0  0
  -29.8284  -16.1964   20.7683 N   0  0  0  0  0  0
  -31.4752  -12.7851   19.1954 H   0  0  0  0  0  0
  -30.4523  -11.6627   20.0320 H   0  0  0  0  0  0
  -29.8575  -11.7549   17.5977 H   0  0  0  0  0  0
  -29.6111  -13.4809   17.6985 H   0  0  0  0  0  0
  -27.9584  -11.2822   18.9727 H   0  0  0  0  0  0
  -27.4004  -12.4645   17.8165 H   0  0  0  0  0  0
  -27.6063  -14.2594   19.4413 H   0  0  0  0  0  0
  -28.7783  -12.2318   21.3983 H   0  0  0  0  0  0
  -28.3227  -13.8430   21.8124 H   0  0  0  0  0  0
  -25.2783   -9.5676   22.4756 H   0  0  0  0  0  0
  -24.0012   -7.4628   22.7467 H   0  0  0  0  0  0
  -21.0847   -8.8779   19.8963 H   0  0  0  0  0  0
  -22.3700  -10.9678   19.6174 H   0  0  0  0  0  0
  -21.2009   -7.6144   23.9713 H   0  0  0  0  0  0
  -21.1482   -6.0520   25.9080 H   0  0  0  0  0  0
  -22.0601   -2.7602   23.2849 H   0  0  0  0  0  0
  -22.4074  -11.9893   22.4863 H   0  0  0  0  0  0
  -21.1069  -13.1234   22.2626 H   0  0  0  0  0  0
  -24.6545  -15.8493   20.5573 H   0  0  0  0  0  0
  -26.2782  -15.6430   20.1362 H   0  0  0  0  0  0
  -26.7275  -32.5287   23.0985 H   0  0  0  0  0  0
  -25.0066  -33.9616   25.0307 H   0  0  0  0  0  0
  -22.7544  -31.2871   21.3738 H   0  0  0  0  0  0
  -23.3770  -35.9567   23.3277 H   0  0  0  0  0  0
  -24.3579  -36.8907   22.2063 H   0  0  0  0  0  0
  -23.7235  -37.6430   23.6694 H   0  0  0  0  0  0
  -26.1689  -31.4646   20.6183 H   0  0  0  0  0  0
  -26.8775  -30.7590   22.0335 H   0  0  0  0  0  0
  -28.1361  -28.7821   21.2382 H   0  0  0  0  0  0
  -25.9136  -25.8256   19.0144 H   0  0  0  0  0  0
  -23.9827  -27.2889   18.9891 H   0  0  0  0  0  0
  -23.8225  -30.5618   19.3981 H   0  0  0  0  0  0
  -22.7952  -29.2319   19.8363 H   0  0  0  0  0  0
  -25.1312  -36.1848   25.0807 H   0  0  0  0  0  0
  -21.0010  -28.3326   24.1353 H   0  0  0  0  0  0
  -20.5683  -26.2342   23.3633 H   0  0  0  0  0  0
  -21.6655  -26.7430   22.1211 H   0  0  0  0  0  0
  -19.6931  -25.6285   21.1266 H   0  0  0  0  0  0
  -19.6716  -27.3178   20.6736 H   0  0  0  0  0  0
  -17.4219  -26.6685   21.4023 H   0  0  0  0  0  0
  -18.0342  -26.0095   22.9025 H   0  0  0  0  0  0
  -19.7953  -30.7306   24.2225 H   0  0  0  0  0  0
  -17.5027  -31.6273   24.5170 H   0  0  0  0  0  0
  -15.5367  -30.2985   23.7683 H   0  0  0  0  0  0
  -15.8685  -28.0830   22.7073 H   0  0  0  0  0  0
  -24.5888  -30.7113   25.7728 H   0  0  0  0  0  0
  -24.8890  -32.2967   26.4753 H   0  0  0  0  0  0
  -25.7979  -30.8997   27.0231 H   0  0  0  0  0  0
  -26.3004  -29.6666   24.1322 H   0  0  0  0  0  0
  -27.3955  -29.7253   25.4919 H   0  0  0  0  0  0
  -27.8931  -30.4154   23.9668 H   0  0  0  0  0  0
  -27.2668  -33.3647   26.2006 H   0  0  0  0  0  0
  -28.3890  -32.6860   25.0315 H   0  0  0  0  0  0
  -28.0715  -31.8488   26.5432 H   0  0  0  0  0  0
  -28.2582  -38.0085   24.7517 H   0  0  0  0  0  0
  -28.1086  -36.2615   24.6268 H   0  0  0  0  0  0
  -27.2296  -37.1392   25.8864 H   0  0  0  0  0  0
  -20.9482  -29.8751   21.6761 H   0  0  0  0  0  0
  -26.0148  -38.2803   24.1435 H   0  0  0  0  0  0
  -31.1255  -21.2517   18.8311 H   0  0  0  0  0  0
  -31.7416  -19.9221   19.8048 H   0  0  0  0  0  0
  -31.5694  -21.5214   20.5199 H   0  0  0  0  0  0
  -25.1033  -19.8471   20.6953 H   0  0  0  0  0  0
  -25.5375  -20.3769   22.3246 H   0  0  0  0  0  0
  -25.7208  -18.6855   21.8722 H   0  0  0  0  0  0
  -29.2694  -17.1847   22.5662 H   0  0  0  0  0  0
  -29.4360  -15.4707   22.7438 H   0  0  0  0  0  0
  -28.0330  -16.1382   21.8826 H   0  0  0  0  0  0
  -29.8810  -23.4115   19.7025 H   0  0  0  0  0  0
  -29.5298  -23.4839   21.3848 H   0  0  0  0  0  0
  -31.1426  -17.8942   20.7306 H   0  0  0  0  0  0
  -30.3646  -17.6035   19.2216 H   0  0  0  0  0  0
  -27.1519  -24.3972   20.8024 H   0  0  0  0  0  0
  -27.6009  -24.3990   19.1338 H   0  0  0  0  0  0
  1 25  1  0  0  0
  1 30  2  0  0  0
  1 83  1  0  0  0
  2  3  1  0  0  0
  2 25  1  0  0  0
  2 84  1  0  0  0
  2 85  1  0  0  0
  3  4  1  0  0  0
  3 86  1  0  0  0
  3 87  1  0  0  0
  4  5  1  0  0  0
  4 88  1  0  0  0
  4 89  1  0  0  0
  5  6  1  0  0  0
  5 26  1  0  0  0
  5 90  1  0  0  0
  6 25  1  0  0  0
  6 91  1  0  0  0
  6 92  1  0  0  0
  7  8  2  0  0  0
  7 26  1  0  0  0
  7 29  1  0  0  0
  8  9  1  0  0  0
  8 22  1  0  0  0
  9 10  1  0  0  0
  9 27  2  0  0  0
 10 11  2  0  0  0
 10 15  1  0  0  0
 11 12  1  0  0  0
 11 93  1  0  0  0
 12 13  2  0  0  0
 12 94  1  0  0  0
 13 14  1  0  0  0
 13 31  1  0  0  0
 14 15  2  0  0  0
 14 95  1  0  0  0
 15 96  1  0  0  0
 16 17  2  0  0  0
 16 21  1  0  0  0
 16 31  1  0  0  0
 17 18  1  0  0  0
 17 97  1  0  0  0
 18 19  2  0  0  0
 18 98  1  0  0  0
 19 20  1  0  0  0
 19 24  1  0  0  0
 20 21  2  0  0  0
 20 99  1  0  0  0
 21 23  1  0  0  0
 22 28  1  0  0  0
 22 32  2  0  0  0
 26 27  1  0  0  0
 28100  1  0  0  0
 28101  1  0  0  0
 29102  1  0  0  0
 29103  1  0  0  0
 33 34  1  0  0  0
 33 66  1  0  0  0
 33 70  2  0  0  0
 34 36  1  0  0  0
 34 59  1  0  0  0
 34104  1  0  0  0
 35 44  2  0  0  0
 35 45  1  0  0  0
 35 68  1  0  0  0
 36 56  1  0  0  0
 36105  1  0  0  0
 37 39  1  0  0  0
 37 47  1  0  0  0
 37 66  1  0  0  0
 37106  1  0  0  0
 38 43  2  0  0  0
 38 46  1  0  0  0
 38 47  1  0  0  0
 39 64  1  0  0  0
 39 67  2  0  0  0
 40 52  1  0  0  0
 40 53  2  0  0  0
 40 58  1  0  0  0
 41107  1  0  0  0
 41108  1  0  0  0
 41109  1  0  0  0
 41 48  1  0  0  0
 42 43  1  0  0  0
 42 66  1  0  0  0
 42110  1  0  0  0
 42111  1  0  0  0
 43 44  1  0  0  0
 44112  1  0  0  0
 45 46  2  0  0  0
 45113  1  0  0  0
 46114  1  0  0  0
 47115  1  0  0  0
 47116  1  0  0  0
 48 56  1  0  0  0
 48 65  1  0  0  0
 48117  1  0  0  0
 49 50  1  0  0  0
 49 53  1  0  0  0
 49 64  1  0  0  0
 49118  1  0  0  0
 50 51  1  0  0  0
 50119  1  0  0  0
 50120  1  0  0  0
 51 52  1  0  0  0
 51121  1  0  0  0
 51122  1  0  0  0
 52123  1  0  0  0
 52124  1  0  0  0
 53 54  1  0  0  0
 54 55  2  0  0  0
 54125  1  0  0  0
 55 57  1  0  0  0
 55126  1  0  0  0
 56 69  2  0  0  0
 57 58  2  0  0  0
 57127  1  0  0  0
 58128  1  0  0  0
 59 60  1  0  0  0
 59 61  1  0  0  0
 59 62  1  0  0  0
 60129  1  0  0  0
 60130  1  0  0  0
 60131  1  0  0  0
 61132  1  0  0  0
 61133  1  0  0  0
 61134  1  0  0  0
 62135  1  0  0  0
 62136  1  0  0  0
 62137  1  0  0  0
 63 65  1  0  0  0
 63138  1  0  0  0
 63139  1  0  0  0
 63140  1  0  0  0
 64141  1  0  0  0
 65142  1  0  0  0
 68 80  1  0  0  0
 71 72  2  0  0  0
 71 73  1  0  0  0
 71 75  1  0  0  0
 72 78  1  0  0  0
 72 81  1  0  0  0
 73 79  1  0  0  0
 73 82  2  0  0  0
 74 76  1  0  0  0
 74 81  2  0  0  0
 74 82  1  0  0  0
 75143  1  0  0  0
 75144  1  0  0  0
 75145  1  0  0  0
 76146  1  0  0  0
 76147  1  0  0  0
 76148  1  0  0  0
 77 83  1  0  0  0
 77149  1  0  0  0
 77150  1  0  0  0
 77151  1  0  0  0
 78 80  1  0  0  0
 78152  1  0  0  0
 78153  1  0  0  0
 79 83  1  0  0  0
 79154  1  0  0  0
 79155  1  0  0  0
 80156  1  0  0  0
 80157  1  0  0  0
M  ISO  4   1 100  68 101  80 101  83 100
M  END
> <chiral flag>
0

> <version>
0

> <s_m_source_file>
/data/baiqing/PycharmProjects/Reinvent-master-3.2/result/LINK_invent/BTK/process_docking_weight1_custom_sum_contain_oxygen_bond_distance_aromatic_linkinvent_7_9_3/rearranged_h_0045.sdf

> <i_m_source_file_index>
36

> <r_mmod_Potential_Energy-OPLS-2005>
186.293930053711

> <r_mmod_Stretch_Energy-OPLS-2005>
290.433929443359

> <r_mmod_Bend_Energy-OPLS-2005>
271.099212646484

> <r_mmod_Torsional_Energy-OPLS-2005>
248.543792724609

> <r_mmod_Improper_Torsional_Energy-OPLS-2005>
7.48127126693726

> <r_mmod_Van_der_Waal_Energy-OPLS-2005>
141.091049194336

> <r_mmod_Electrostatic_Energy-OPLS-2005>
-756.818908691406

> <r_mmod_Solvation_Energy-OPLS-2005>
-221.85725402832

> <b_mmod_Minimization_Converged-OPLS-2005>
0

> <r_mmod_RMS_Derivative-OPLS-2005>
1.24571001529694

$$$$
36
                    3D
 Structure written by MMmdl.
147155  0  0  1  0            999 V2000
  -30.4100  -15.3662   20.3515 C   0  0  0  0  0  0
  -30.4339  -12.8786   19.5392 C   0  0  0  0  0  0
  -29.5410  -12.5979   18.3025 C   0  0  0  0  0  0
  -28.0951  -12.3010   18.7313 C   0  0  0  0  0  0
  -27.6075  -13.2858   19.8218 C   0  0  2  0  0  0
  -28.6353  -13.5072   20.9544 C   0  0  0  0  0  0
  -25.2367  -13.8263   20.5759 C   0  0  0  0  0  0
  -24.1731  -13.0439   20.9266 C   0  0  0  0  0  0
  -24.6400  -11.6941   20.8759 C   0  0  0  0  0  0
  -23.9100  -10.4294   21.0401 C   0  0  0  0  0  0
  -24.3643   -9.4206   21.9178 C   0  0  0  0  0  0
  -23.6310   -8.2246   22.0751 C   0  0  0  0  0  0
  -22.4289   -8.0285   21.3544 C   0  0  0  0  0  0
  -21.9930   -9.0260   20.4645 C   0  0  0  0  0  0
  -22.7268  -10.2134   20.3052 C   0  0  0  0  0  0
  -21.6859   -6.0738   22.5277 C   0  0  0  0  0  0
  -21.4018   -6.5639   23.8210 C   0  0  0  0  0  0
  -21.3663   -5.6792   24.9171 C   0  0  0  0  0  0
  -21.6046   -4.3055   24.7221 C   0  0  0  0  0  0
  -21.8820   -3.8147   23.4343 C   0  0  0  0  0  0
  -21.9194   -4.6965   22.3400 C   0  0  0  0  0  0
  -22.7746  -13.5184   21.1908 C   0  0  0  0  0  0
  -22.1662   -4.2151   21.0977 F   0  0  0  0  0  0
  -21.5630   -3.4538   25.7734 F   0  0  0  0  0  0
  -29.8558  -14.0418   20.3238 N   0  0  0  0  0  0
  -26.2801  -12.9557   20.3224 N   0  0  0  0  0  0
  -25.9342  -11.6651   20.5717 N   0  0  0  0  0  0
  -22.0408  -12.8164   22.0462 N   0  0  0  0  0  0
  -25.3988  -15.1999   20.4194 N   0  0  0  0  0  0
  -31.6292  -15.3425   20.1208 O   0  0  0  0  0  0
  -21.6649   -6.8884   21.4240 O   0  0  0  0  0  0
  -22.3424  -14.5482   20.6742 O   0  0  0  0  0  0
  -24.6692  -31.8165   23.1652 C   0  0  0  0  0  0
  -25.9342  -32.4552   23.8143 C   0  0  1  0  0  0
  -27.2213  -26.8602   20.1903 C   0  0  0  0  0  0
  -25.5982  -33.8370   24.2038 N   0  0  0  0  0  0
  -23.4879  -30.4253   21.5155 C   0  0  2  0  0  0
  -24.9444  -28.8012   20.1107 C   0  0  0  0  0  0
  -22.7701  -29.4402   22.4757 C   0  0  0  0  0  0
  -18.0328  -28.1414   22.8463 C   0  0  0  0  0  0
  -24.1495  -36.7191   23.2649 C   0  0  0  0  0  0
  -26.0611  -30.5995   21.4083 C   0  0  0  0  0  0
  -26.1285  -29.1828   20.7530 C   0  0  0  0  0  0
  -27.2573  -28.2339   20.7699 C   0  0  0  0  0  0
  -26.0111  -26.6546   19.4864 C   0  0  0  0  0  0
  -24.9156  -27.5596   19.4558 C   0  0  0  0  0  0
  -23.7326  -29.7363   20.1438 C   0  0  0  0  0  0
  -25.4140  -36.2946   24.0292 C   0  0  1  0  0  0
  -20.5956  -28.3764   23.1173 C   0  0  2  0  0  0
  -20.6801  -26.9438   22.5404 C   0  0  0  0  0  0
  -19.5775  -26.6375   21.5218 C   0  0  0  0  0  0
  -18.1957  -26.7945   22.1623 C   0  0  0  0  0  0
  -19.1590  -28.8912   23.2803 C   0  0  0  0  0  0
  -18.9500  -30.1498   23.8842 C   0  0  0  0  0  0
  -17.6491  -30.6601   24.0554 C   0  0  0  0  0  0
  -25.9109  -34.9331   23.4992 C   0  0  0  0  0  0
  -16.5381  -29.9086   23.6346 C   0  0  0  0  0  0
  -16.7308  -28.6507   23.0365 C   0  0  0  0  0  0
  -26.4569  -31.6527   25.0703 C   0  0  0  0  0  0
  -25.3673  -31.3804   26.1344 C   0  0  0  0  0  0
  -27.0479  -30.2881   24.6498 C   0  0  0  0  0  0
  -27.6046  -32.4355   25.7511 C   0  0  0  0  0  0
  -27.5568  -37.1757   24.8467 C   0  0  0  0  0  0
  -21.4363  -29.3039   22.3509 N   0  0  0  0  0  0
  -26.4281  -37.3689   23.9402 N   0  0  0  0  0  0
  -24.7611  -30.9762   22.0826 N   0  0  0  0  0  0
  -23.4215  -28.7980   23.3032 O   0  0  0  0  0  0
  -28.1897  -25.7032   20.3006 O   0  0  0  0  0  0
  -26.5731  -34.8878   22.4597 O   0  0  0  0  0  0
  -23.5745  -32.1167   23.6700 O   0  0  0  0  0  0
  -28.8514  -21.1237   19.5899 C   0  0  0  0  0  0
  -28.6294  -22.4699   20.3128 C   0  0  0  0  0  0
  -29.2859  -19.9474   20.3579 C   0  0  0  0  0  0
  -29.7116  -20.1289   22.8552 C   0  0  0  0  0  0
  -27.9189  -24.0856   19.9372 C   0  0  0  0  0  0
  -29.9691  -18.3096   20.0863 C   0  0  0  0  0  0
  -28.9229  -22.0336   21.5548 N   0  0  0  0  0  0
  -29.3053  -20.6680   21.5725 N   0  0  0  0  0  0
  -29.6655  -16.6738   20.4331 N   0  0  0  0  0  0
  -31.4493  -13.0894   19.2014 H   0  0  0  0  0  0
  -30.5192  -11.9889   20.1654 H   0  0  0  0  0  0
  -29.9413  -11.7649   17.7230 H   0  0  0  0  0  0
  -29.5550  -13.4667   17.6429 H   0  0  0  0  0  0
  -28.0692  -11.2829   19.1213 H   0  0  0  0  0  0
  -27.4276  -12.3166   17.8688 H   0  0  0  0  0  0
  -27.5081  -14.2405   19.3038 H   0  0  0  0  0  0
  -28.8256  -12.5881   21.5107 H   0  0  0  0  0  0
  -28.2538  -14.2334   21.6739 H   0  0  0  0  0  0
  -25.2785   -9.5682   22.4758 H   0  0  0  0  0  0
  -24.0014   -7.4639   22.7473 H   0  0  0  0  0  0
  -21.0859   -8.8785   19.8953 H   0  0  0  0  0  0
  -22.3724  -10.9675   19.6165 H   0  0  0  0  0  0
  -21.2009   -7.6147   23.9714 H   0  0  0  0  0  0
  -21.1486   -6.0520   25.9075 H   0  0  0  0  0  0
  -22.0595   -2.7609   23.2841 H   0  0  0  0  0  0
  -22.4049  -11.9845   22.4864 H   0  0  0  0  0  0
  -21.1016  -13.1165   22.2659 H   0  0  0  0  0  0
  -24.6268  -15.8487   20.5307 H   0  0  0  0  0  0
  -26.2369  -15.6407   20.0644 H   0  0  0  0  0  0
  -26.7414  -32.5068   23.0856 H   0  0  0  0  0  0
  -25.0060  -33.9439   25.0141 H   0  0  0  0  0  0
  -22.8047  -31.2587   21.3392 H   0  0  0  0  0  0
  -23.3767  -35.9512   23.3288 H   0  0  0  0  0  0
  -24.3562  -36.8866   22.2067 H   0  0  0  0  0  0
  -23.7247  -37.6368   23.6727 H   0  0  0  0  0  0
  -26.2511  -31.3361   20.6264 H   0  0  0  0  0  0
  -26.9172  -30.6582   22.0683 H   0  0  0  0  0  0
  -28.1468  -28.5222   21.3122 H   0  0  0  0  0  0
  -25.8675  -25.7104   18.9820 H   0  0  0  0  0  0
  -24.0191  -27.2622   18.9293 H   0  0  0  0  0  0
  -23.8930  -30.5030   19.3850 H   0  0  0  0  0  0
  -22.8411  -29.1938   19.8243 H   0  0  0  0  0  0
  -25.1345  -36.1736   25.0784 H   0  0  0  0  0  0
  -21.0043  -28.3380   24.1297 H   0  0  0  0  0  0
  -20.5678  -26.2386   23.3653 H   0  0  0  0  0  0
  -21.6663  -26.7405   22.1213 H   0  0  0  0  0  0
  -19.6934  -25.6271   21.1284 H   0  0  0  0  0  0
  -19.6714  -27.3155   20.6723 H   0  0  0  0  0  0
  -17.4226  -26.6687   21.4027 H   0  0  0  0  0  0
  -18.0349  -26.0101   22.9034 H   0  0  0  0  0  0
  -19.7975  -30.7330   24.2187 H   0  0  0  0  0  0
  -17.5042  -31.6275   24.5167 H   0  0  0  0  0  0
  -15.5378  -30.2971   23.7703 H   0  0  0  0  0  0
  -15.8708  -28.0807   22.7113 H   0  0  0  0  0  0
  -24.5871  -30.7138   25.7650 H   0  0  0  0  0  0
  -24.8845  -32.3015   26.4619 H   0  0  0  0  0  0
  -25.7880  -30.9067   27.0222 H   0  0  0  0  0  0
  -26.3166  -29.6536   24.1481 H   0  0  0  0  0  0
  -27.3951  -29.7276   25.5188 H   0  0  0  0  0  0
  -27.9132  -30.4041   23.9969 H   0  0  0  0  0  0
  -27.2601  -33.3703   26.1945 H   0  0  0  0  0  0
  -28.3931  -32.6840   25.0395 H   0  0  0  0  0  0
  -28.0633  -31.8580   26.5548 H   0  0  0  0  0  0
  -28.2575  -38.0061   24.7498 H   0  0  0  0  0  0
  -28.1074  -36.2585   24.6320 H   0  0  0  0  0  0
  -27.2278  -37.1427   25.8869 H   0  0  0  0  0  0
  -20.9634  -29.8713   21.6612 H   0  0  0  0  0  0
  -26.0125  -38.2747   24.1398 H   0  0  0  0  0  0
  -28.7081  -21.0425   18.5212 H   0  0  0  0  0  0
  -30.4666  -19.3548   22.7178 H   0  0  0  0  0  0
  -28.8488  -19.6931   23.3590 H   0  0  0  0  0  0
  -30.1335  -20.9131   23.4847 H   0  0  0  0  0  0
  -26.8743  -23.9743   20.2263 H   0  0  0  0  0  0
  -27.8691  -24.1129   18.8487 H   0  0  0  0  0  0
  -30.9979  -18.4040   20.4348 H   0  0  0  0  0  0
  -30.0942  -18.2662   19.0043 H   0  0  0  0  0  0
  -28.6897  -16.5184   20.6395 H   0  0  0  0  0  0
  1 25  1  0  0  0
  1 30  2  0  0  0
  1 79  1  0  0  0
  2  3  1  0  0  0
  2 25  1  0  0  0
  2 80  1  0  0  0
  2 81  1  0  0  0
  3  4  1  0  0  0
  3 82  1  0  0  0
  3 83  1  0  0  0
  4  5  1  0  0  0
  4 84  1  0  0  0
  4 85  1  0  0  0
  5  6  1  0  0  0
  5 26  1  0  0  0
  5 86  1  0  0  0
  6 25  1  0  0  0
  6 87  1  0  0  0
  6 88  1  0  0  0
  7  8  2  0  0  0
  7 26  1  0  0  0
  7 29  1  0  0  0
  8  9  1  0  0  0
  8 22  1  0  0  0
  9 10  1  0  0  0
  9 27  2  0  0  0
 10 11  2  0  0  0
 10 15  1  0  0  0
 11 12  1  0  0  0
 11 89  1  0  0  0
 12 13  2  0  0  0
 12 90  1  0  0  0
 13 14  1  0  0  0
 13 31  1  0  0  0
 14 15  2  0  0  0
 14 91  1  0  0  0
 15 92  1  0  0  0
 16 17  2  0  0  0
 16 21  1  0  0  0
 16 31  1  0  0  0
 17 18  1  0  0  0
 17 93  1  0  0  0
 18 19  2  0  0  0
 18 94  1  0  0  0
 19 20  1  0  0  0
 19 24  1  0  0  0
 20 21  2  0  0  0
 20 95  1  0  0  0
 21 23  1  0  0  0
 22 28  1  0  0  0
 22 32  2  0  0  0
 26 27  1  0  0  0
 28 96  1  0  0  0
 28 97  1  0  0  0
 29 98  1  0  0  0
 29 99  1  0  0  0
 33 34  1  0  0  0
 33 66  1  0  0  0
 33 70  2  0  0  0
 34 36  1  0  0  0
 34 59  1  0  0  0
 34100  1  0  0  0
 35 44  2  0  0  0
 35 45  1  0  0  0
 35 68  1  0  0  0
 36 56  1  0  0  0
 36101  1  0  0  0
 37 39  1  0  0  0
 37 47  1  0  0  0
 37 66  1  0  0  0
 37102  1  0  0  0
 38 43  2  0  0  0
 38 46  1  0  0  0
 38 47  1  0  0  0
 39 64  1  0  0  0
 39 67  2  0  0  0
 40 52  1  0  0  0
 40 53  2  0  0  0
 40 58  1  0  0  0
 41103  1  0  0  0
 41104  1  0  0  0
 41105  1  0  0  0
 41 48  1  0  0  0
 42 43  1  0  0  0
 42 66  1  0  0  0
 42106  1  0  0  0
 42107  1  0  0  0
 43 44  1  0  0  0
 44108  1  0  0  0
 45 46  2  0  0  0
 45109  1  0  0  0
 46110  1  0  0  0
 47111  1  0  0  0
 47112  1  0  0  0
 48 56  1  0  0  0
 48 65  1  0  0  0
 48113  1  0  0  0
 49 50  1  0  0  0
 49 53  1  0  0  0
 49 64  1  0  0  0
 49114  1  0  0  0
 50 51  1  0  0  0
 50115  1  0  0  0
 50116  1  0  0  0
 51 52  1  0  0  0
 51117  1  0  0  0
 51118  1  0  0  0
 52119  1  0  0  0
 52120  1  0  0  0
 53 54  1  0  0  0
 54 55  2  0  0  0
 54121  1  0  0  0
 55 57  1  0  0  0
 55122  1  0  0  0
 56 69  2  0  0  0
 57 58  2  0  0  0
 57123  1  0  0  0
 58124  1  0  0  0
 59 60  1  0  0  0
 59 61  1  0  0  0
 59 62  1  0  0  0
 60125  1  0  0  0
 60126  1  0  0  0
 60127  1  0  0  0
 61128  1  0  0  0
 61129  1  0  0  0
 61130  1  0  0  0
 62131  1  0  0  0
 62132  1  0  0  0
 62133  1  0  0  0
 63 65  1  0  0  0
 63134  1  0  0  0
 63135  1  0  0  0
 63136  1  0  0  0
 64137  1  0  0  0
 65138  1  0  0  0
 68 75  1  0  0  0
 71 72  1  0  0  0
 71 73  2  0  0  0
 71139  1  0  0  0
 72 75  1  0  0  0
 72 77  2  0  0  0
 73 76  1  0  0  0
 73 78  1  0  0  0
 74 78  1  0  0  0
 74140  1  0  0  0
 74141  1  0  0  0
 74142  1  0  0  0
 75143  1  0  0  0
 75144  1  0  0  0
 76 79  1  0  0  0
 76145  1  0  0  0
 76146  1  0  0  0
 77 78  1  0  0  0
 79147  1  0  0  0
M  ISO  4   1 100  68 101  75 101  79 100
M  END
> <chiral flag>
0

> <version>
0

> <s_m_source_file>
/data/baiqing/PycharmProjects/Reinvent-master-3.2/result/LINK_invent/BTK/process_docking_weight1_custom_sum_contain_oxygen_bond_distance_aromatic_linkinvent_7_9_3/rearranged_h_0045.sdf

> <i_m_source_file_index>
37

> <r_mmod_Potential_Energy-OPLS-2005>
1451.10217285156

> <r_mmod_Stretch_Energy-OPLS-2005>
679.215393066406

> <r_mmod_Bend_Energy-OPLS-2005>
501.376953125

> <r_mmod_Torsional_Energy-OPLS-2005>
216.732055664062

> <r_mmod_Improper_Torsional_Energy-OPLS-2005>
6.6087212562561

> <r_mmod_Van_der_Waal_Energy-OPLS-2005>
108.229270935059

> <r_mmod_Electrostatic_Energy-OPLS-2005>
-391.748382568359

> <r_mmod_Solvation_Energy-OPLS-2005>
-241.464401245117

> <b_mmod_Minimization_Converged-OPLS-2005>
0

> <r_mmod_RMS_Derivative-OPLS-2005>
0.349283158779144

$$$$
37
                    3D
 Structure written by MMmdl.
162170  0  0  1  0            999 V2000
  -30.6177  -14.6977   20.4698 C   0  0  0  0  0  0
  -30.4313  -12.4258   19.4657 C   0  0  0  0  0  0
  -29.5077  -12.5037   18.2309 C   0  0  0  0  0  0
  -28.0325  -12.3371   18.6427 C   0  0  0  0  0  0
  -27.6446  -13.2252   19.8548 C   0  0  2  0  0  0
  -28.6881  -13.1358   20.9895 C   0  0  0  0  0  0
  -25.2514  -13.8183   20.5690 C   0  0  0  0  0  0
  -24.1806  -13.0433   20.9209 C   0  0  0  0  0  0
  -24.6381  -11.6906   20.8745 C   0  0  0  0  0  0
  -23.9061  -10.4286   21.0406 C   0  0  0  0  0  0
  -24.3616   -9.4204   21.9183 C   0  0  0  0  0  0
  -23.6289   -8.2240   22.0754 C   0  0  0  0  0  0
  -22.4272   -8.0275   21.3543 C   0  0  0  0  0  0
  -21.9910   -9.0247   20.4647 C   0  0  0  0  0  0
  -22.7234  -10.2127   20.3054 C   0  0  0  0  0  0
  -21.6854   -6.0729   22.5277 C   0  0  0  0  0  0
  -21.4016   -6.5637   23.8209 C   0  0  0  0  0  0
  -21.3658   -5.6794   24.9174 C   0  0  0  0  0  0
  -21.6047   -4.3057   24.7230 C   0  0  0  0  0  0
  -21.8818   -3.8139   23.4353 C   0  0  0  0  0  0
  -21.9195   -4.6954   22.3404 C   0  0  0  0  0  0
  -22.7824  -13.5219   21.1861 C   0  0  0  0  0  0
  -22.1668   -4.2129   21.0982 F   0  0  0  0  0  0
  -21.5628   -3.4549   25.7749 F   0  0  0  0  0  0
  -29.9937  -13.4768   20.4108 N   0  0  0  0  0  0
  -26.2941  -12.9383   20.3289 N   0  0  0  0  0  0
  -25.9309  -11.6531   20.5737 N   0  0  0  0  0  0
  -22.0477  -12.8208   22.0421 N   0  0  0  0  0  0
  -25.4194  -15.1913   20.4098 N   0  0  0  0  0  0
  -31.8023  -14.8105   20.1430 O   0  0  0  0  0  0
  -21.6638   -6.8868   21.4235 O   0  0  0  0  0  0
  -22.3501  -14.5520   20.6701 O   0  0  0  0  0  0
  -24.6286  -31.8560   23.1988 C   0  0  0  0  0  0
  -25.9120  -32.4755   23.8333 C   0  0  1  0  0  0
  -27.2237  -27.2882   20.1205 C   0  0  0  0  0  0
  -25.5919  -33.8557   24.2265 N   0  0  0  0  0  0
  -23.4227  -30.4779   21.5424 C   0  0  2  0  0  0
  -24.8678  -28.9236   20.1103 C   0  0  0  0  0  0
  -22.7478  -29.4609   22.4936 C   0  0  0  0  0  0
  -18.0284  -28.1377   22.8492 C   0  0  0  0  0  0
  -24.1486  -36.7291   23.2643 C   0  0  0  0  0  0
  -25.9642  -30.7780   21.3715 C   0  0  0  0  0  0
  -26.0355  -29.4013   20.7159 C   0  0  0  0  0  0
  -27.2125  -28.5940   20.7104 C   0  0  0  0  0  0
  -26.0280  -26.8597   19.5019 C   0  0  0  0  0  0
  -24.8672  -27.6602   19.4962 C   0  0  0  0  0  0
  -23.6372  -29.8078   20.1589 C   0  0  0  0  0  0
  -25.4109  -36.3075   24.0335 C   0  0  1  0  0  0
  -20.5884  -28.3684   23.1286 C   0  0  2  0  0  0
  -20.6769  -26.9408   22.5414 C   0  0  0  0  0  0
  -19.5746  -26.6378   21.5213 C   0  0  0  0  0  0
  -18.1927  -26.7921   22.1625 C   0  0  0  0  0  0
  -19.1539  -28.8847   23.2883 C   0  0  0  0  0  0
  -18.9459  -30.1449   23.8899 C   0  0  0  0  0  0
  -17.6457  -30.6584   24.0558 C   0  0  0  0  0  0
  -25.9051  -34.9441   23.5109 C   0  0  0  0  0  0
  -16.5349  -29.9079   23.6325 C   0  0  0  0  0  0
  -16.7273  -28.6494   23.0356 C   0  0  0  0  0  0
  -26.4491  -31.6575   25.0718 C   0  0  0  0  0  0
  -25.3718  -31.3712   26.1442 C   0  0  0  0  0  0
  -27.0342  -30.3002   24.6185 C   0  0  0  0  0  0
  -27.6053  -32.4304   25.7486 C   0  0  0  0  0  0
  -27.5580  -37.1800   24.8465 C   0  0  0  0  0  0
  -21.4190  -29.3036   22.3682 N   0  0  0  0  0  0
  -26.4289  -37.3773   23.9412 N   0  0  0  0  0  0
  -24.6912  -31.0549   22.0946 N   0  0  0  0  0  0
  -23.4194  -28.8159   23.3031 O   0  0  0  0  0  0
  -28.3651  -26.4687   20.1898 O   0  0  0  0  0  0
  -26.5627  -34.8915   22.4681 O   0  0  0  0  0  0
  -23.5443  -32.1367   23.7305 O   0  0  0  0  0  0
  -28.7641  -21.1272   20.5210 C   0  0  0  0  0  0
  -29.2649  -22.4796   20.3728 C   0  0  0  0  0  0
  -30.6473  -22.5685   20.0657 C   0  0  0  0  0  0
  -29.6090  -19.9656   20.3401 C   0  0  0  0  0  0
  -31.3989  -21.3823   19.8624 C   0  0  0  0  0  0
  -33.0853  -21.2241   17.9787 C   0  0  0  0  0  0
  -31.7348  -24.2976   21.2177 C   0  0  0  0  0  0
  -28.4233  -23.8014   20.6641 C   0  0  0  0  0  0
  -29.1495  -18.4488   20.4486 C   0  0  0  0  0  0
  -32.8707  -21.4310   19.4825 C   0  0  0  0  0  0
  -30.2594  -17.2815   20.5963 C   0  0  0  0  0  0
  -28.4528  -25.0709   19.6699 C   0  0  0  0  0  0
  -30.8948  -20.1347   19.9803 N   0  0  0  0  0  0
  -29.8406  -15.8178   20.6894 N   0  0  0  0  0  0
  -31.2770  -23.7835   19.9718 O   0  0  0  0  0  0
  -31.4730  -12.5471   19.1643 H   0  0  0  0  0  0
  -30.3677  -11.4429   19.9346 H   0  0  0  0  0  0
  -29.7803  -11.7388   17.5037 H   0  0  0  0  0  0
  -29.6426  -13.4638   17.7314 H   0  0  0  0  0  0
  -27.8786  -11.2864   18.8913 H   0  0  0  0  0  0
  -27.3782  -12.5490   17.7964 H   0  0  0  0  0  0
  -27.6467  -14.2513   19.4875 H   0  0  0  0  0  0
  -28.7134  -12.1341   21.4202 H   0  0  0  0  0  0
  -28.4288  -13.8112   21.8066 H   0  0  0  0  0  0
  -25.2755   -9.5697   22.4753 H   0  0  0  0  0  0
  -23.9998   -7.4642   22.7483 H   0  0  0  0  0  0
  -21.0837   -8.8765   19.8956 H   0  0  0  0  0  0
  -22.3678  -10.9670   19.6165 H   0  0  0  0  0  0
  -21.2008   -7.6145   23.9704 H   0  0  0  0  0  0
  -21.1483   -6.0531   25.9076 H   0  0  0  0  0  0
  -22.0596   -2.7599   23.2864 H   0  0  0  0  0  0
  -22.4105  -11.9870   22.4809 H   0  0  0  0  0  0
  -21.1091  -13.1219   22.2618 H   0  0  0  0  0  0
  -24.6451  -15.8389   20.5095 H   0  0  0  0  0  0
  -26.2564  -15.6316   20.0516 H   0  0  0  0  0  0
  -26.7188  -32.5413   23.1079 H   0  0  0  0  0  0
  -25.0040  -33.9684   25.0394 H   0  0  0  0  0  0
  -22.7185  -31.2996   21.3966 H   0  0  0  0  0  0
  -23.3748  -35.9625   23.3294 H   0  0  0  0  0  0
  -24.3585  -36.8919   22.2060 H   0  0  0  0  0  0
  -23.7232  -37.6489   23.6667 H   0  0  0  0  0  0
  -26.0956  -31.5377   20.5998 H   0  0  0  0  0  0
  -26.8452  -30.8297   21.9999 H   0  0  0  0  0  0
  -28.1098  -28.9565   21.1924 H   0  0  0  0  0  0
  -25.9501  -25.8883   19.0390 H   0  0  0  0  0  0
  -23.9679  -27.2854   19.0272 H   0  0  0  0  0  0
  -23.7564  -30.5807   19.3988 H   0  0  0  0  0  0
  -22.7561  -29.2372   19.8605 H   0  0  0  0  0  0
  -25.1289  -36.1932   25.0827 H   0  0  0  0  0  0
  -20.9973  -28.3250   24.1405 H   0  0  0  0  0  0
  -20.5656  -26.2294   23.3612 H   0  0  0  0  0  0
  -21.6639  -26.7424   22.1215 H   0  0  0  0  0  0
  -19.6906  -25.6287   21.1243 H   0  0  0  0  0  0
  -19.6681  -27.3186   20.6738 H   0  0  0  0  0  0
  -17.4197  -26.6669   21.4026 H   0  0  0  0  0  0
  -18.0327  -26.0060   22.9018 H   0  0  0  0  0  0
  -19.7933  -30.7264   24.2272 H   0  0  0  0  0  0
  -17.5010  -31.6265   24.5156 H   0  0  0  0  0  0
  -15.5349  -30.2982   23.7645 H   0  0  0  0  0  0
  -15.8671  -28.0807   22.7077 H   0  0  0  0  0  0
  -24.5900  -30.7054   25.7767 H   0  0  0  0  0  0
  -24.8896  -32.2872   26.4865 H   0  0  0  0  0  0
  -25.8039  -30.8891   27.0222 H   0  0  0  0  0  0
  -26.2926  -29.6741   24.1211 H   0  0  0  0  0  0
  -27.4039  -29.7269   25.4697 H   0  0  0  0  0  0
  -27.8789  -30.4290   23.9414 H   0  0  0  0  0  0
  -27.2679  -33.3609   26.2063 H   0  0  0  0  0  0
  -28.3863  -32.6851   25.0310 H   0  0  0  0  0  0
  -28.0723  -31.8425   26.5397 H   0  0  0  0  0  0
  -28.2594  -38.0099   24.7519 H   0  0  0  0  0  0
  -28.1076  -36.2632   24.6281 H   0  0  0  0  0  0
  -27.2305  -37.1441   25.8869 H   0  0  0  0  0  0
  -20.9374  -29.8766   21.6894 H   0  0  0  0  0  0
  -26.0170  -38.2851   24.1400 H   0  0  0  0  0  0
  -27.7273  -20.9781   20.7907 H   0  0  0  0  0  0
  -34.1450  -21.2595   17.7279 H   0  0  0  0  0  0
  -32.5768  -21.9984   17.4040 H   0  0  0  0  0  0
  -32.6977  -20.2565   17.6589 H   0  0  0  0  0  0
  -32.5807  -24.9637   21.0475 H   0  0  0  0  0  0
  -32.0652  -23.5122   21.9003 H   0  0  0  0  0  0
  -30.9561  -24.8787   21.7117 H   0  0  0  0  0  0
  -28.7516  -24.1460   21.6437 H   0  0  0  0  0  0
  -27.3835  -23.5129   20.8136 H   0  0  0  0  0  0
  -28.5436  -18.2432   19.5659 H   0  0  0  0  0  0
  -28.4660  -18.3852   21.2943 H   0  0  0  0  0  0
  -33.4055  -20.6594   20.0381 H   0  0  0  0  0  0
  -33.3156  -22.3758   19.7924 H   0  0  0  0  0  0
  -30.8666  -17.4992   21.4759 H   0  0  0  0  0  0
  -30.9413  -17.3666   19.7491 H   0  0  0  0  0  0
  -27.7745  -24.8930   18.8385 H   0  0  0  0  0  0
  -29.4209  -25.0712   19.1753 H   0  0  0  0  0  0
  -28.8727  -15.6392   20.9105 H   0  0  0  0  0  0
  1 25  1  0  0  0
  1 30  2  0  0  0
  1 84  1  0  0  0
  2  3  1  0  0  0
  2 25  1  0  0  0
  2 86  1  0  0  0
  2 87  1  0  0  0
  3  4  1  0  0  0
  3 88  1  0  0  0
  3 89  1  0  0  0
  4  5  1  0  0  0
  4 90  1  0  0  0
  4 91  1  0  0  0
  5  6  1  0  0  0
  5 26  1  0  0  0
  5 92  1  0  0  0
  6 25  1  0  0  0
  6 93  1  0  0  0
  6 94  1  0  0  0
  7  8  2  0  0  0
  7 26  1  0  0  0
  7 29  1  0  0  0
  8  9  1  0  0  0
  8 22  1  0  0  0
  9 10  1  0  0  0
  9 27  2  0  0  0
 10 11  2  0  0  0
 10 15  1  0  0  0
 11 12  1  0  0  0
 11 95  1  0  0  0
 12 13  2  0  0  0
 12 96  1  0  0  0
 13 14  1  0  0  0
 13 31  1  0  0  0
 14 15  2  0  0  0
 14 97  1  0  0  0
 15 98  1  0  0  0
 16 17  2  0  0  0
 16 21  1  0  0  0
 16 31  1  0  0  0
 17 18  1  0  0  0
 17 99  1  0  0  0
 18 19  2  0  0  0
 18100  1  0  0  0
 19 20  1  0  0  0
 19 24  1  0  0  0
 20 21  2  0  0  0
 20101  1  0  0  0
 21 23  1  0  0  0
 22 28  1  0  0  0
 22 32  2  0  0  0
 26 27  1  0  0  0
 28102  1  0  0  0
 28103  1  0  0  0
 29104  1  0  0  0
 29105  1  0  0  0
 33 34  1  0  0  0
 33 66  1  0  0  0
 33 70  2  0  0  0
 34 36  1  0  0  0
 34 59  1  0  0  0
 34106  1  0  0  0
 35 44  2  0  0  0
 35 45  1  0  0  0
 35 68  1  0  0  0
 36 56  1  0  0  0
 36107  1  0  0  0
 37 39  1  0  0  0
 37 47  1  0  0  0
 37 66  1  0  0  0
 37108  1  0  0  0
 38 43  2  0  0  0
 38 46  1  0  0  0
 38 47  1  0  0  0
 39 64  1  0  0  0
 39 67  2  0  0  0
 40 52  1  0  0  0
 40 53  2  0  0  0
 40 58  1  0  0  0
 41109  1  0  0  0
 41110  1  0  0  0
 41111  1  0  0  0
 41 48  1  0  0  0
 42 43  1  0  0  0
 42 66  1  0  0  0
 42112  1  0  0  0
 42113  1  0  0  0
 43 44  1  0  0  0
 44114  1  0  0  0
 45 46  2  0  0  0
 45115  1  0  0  0
 46116  1  0  0  0
 47117  1  0  0  0
 47118  1  0  0  0
 48 56  1  0  0  0
 48 65  1  0  0  0
 48119  1  0  0  0
 49 50  1  0  0  0
 49 53  1  0  0  0
 49 64  1  0  0  0
 49120  1  0  0  0
 50 51  1  0  0  0
 50121  1  0  0  0
 50122  1  0  0  0
 51 52  1  0  0  0
 51123  1  0  0  0
 51124  1  0  0  0
 52125  1  0  0  0
 52126  1  0  0  0
 53 54  1  0  0  0
 54 55  2  0  0  0
 54127  1  0  0  0
 55 57  1  0  0  0
 55128  1  0  0  0
 56 69  2  0  0  0
 57 58  2  0  0  0
 57129  1  0  0  0
 58130  1  0  0  0
 59 60  1  0  0  0
 59 61  1  0  0  0
 59 62  1  0  0  0
 60131  1  0  0  0
 60132  1  0  0  0
 60133  1  0  0  0
 61134  1  0  0  0
 61135  1  0  0  0
 61136  1  0  0  0
 62137  1  0  0  0
 62138  1  0  0  0
 62139  1  0  0  0
 63 65  1  0  0  0
 63140  1  0  0  0
 63141  1  0  0  0
 63142  1  0  0  0
 64143  1  0  0  0
 65144  1  0  0  0
 68 82  1  0  0  0
 71 72  2  0  0  0
 71 74  1  0  0  0
 71145  1  0  0  0
 72 73  1  0  0  0
 72 78  1  0  0  0
 73 75  2  0  0  0
 73 85  1  0  0  0
 74 79  1  0  0  0
 74 83  2  0  0  0
 75 80  1  0  0  0
 75 83  1  0  0  0
 76 80  1  0  0  0
 76146  1  0  0  0
 76147  1  0  0  0
 76148  1  0  0  0
 77 85  1  0  0  0
 77149  1  0  0  0
 77150  1  0  0  0
 77151  1  0  0  0
 78 82  1  0  0  0
 78152  1  0  0  0
 78153  1  0  0  0
 79 81  1  0  0  0
 79154  1  0  0  0
 79155  1  0  0  0
 80156  1  0  0  0
 80157  1  0  0  0
 81 84  1  0  0  0
 81158  1  0  0  0
 81159  1  0  0  0
 82160  1  0  0  0
 82161  1  0  0  0
 84162  1  0  0  0
M  ISO  4   1 100  68 101  82 101  84 100
M  END
> <chiral flag>
0

> <version>
0

> <s_m_source_file>
/data/baiqing/PycharmProjects/Reinvent-master-3.2/result/LINK_invent/BTK/process_docking_weight1_custom_sum_contain_oxygen_bond_distance_aromatic_linkinvent_7_9_3/rearranged_h_0045.sdf

> <i_m_source_file_index>
38

> <r_mmod_Potential_Energy-OPLS-2005>
15.7010746002197

> <r_mmod_Stretch_Energy-OPLS-2005>
106.73112487793

> <r_mmod_Bend_Energy-OPLS-2005>
161.121963500977

> <r_mmod_Torsional_Energy-OPLS-2005>
231.805084228516

> <r_mmod_Improper_Torsional_Energy-OPLS-2005>
5.36091375350952

> <r_mmod_Van_der_Waal_Energy-OPLS-2005>
140.137771606445

> <r_mmod_Electrostatic_Energy-OPLS-2005>
-467.149658203125

> <r_mmod_Solvation_Energy-OPLS-2005>
-227.502227783203

> <b_mmod_Minimization_Converged-OPLS-2005>
0

> <r_mmod_RMS_Derivative-OPLS-2005>
1.2489914894104

$$$$
38
                    3D
 Structure written by MMmdl.
155163  0  0  1  0            999 V2000
  -30.6604  -14.6048   20.5052 C   0  0  0  0  0  0
  -30.4242  -12.3694   19.4556 C   0  0  0  0  0  0
  -29.5029  -12.4987   18.2230 C   0  0  0  0  0  0
  -28.0238  -12.3475   18.6298 C   0  0  0  0  0  0
  -27.6512  -13.2177   19.8611 C   0  0  2  0  0  0
  -28.6944  -13.0808   20.9934 C   0  0  0  0  0  0
  -25.2551  -13.8166   20.5658 C   0  0  0  0  0  0
  -24.1824  -13.0431   20.9176 C   0  0  0  0  0  0
  -24.6385  -11.6900   20.8737 C   0  0  0  0  0  0
  -23.9058  -10.4287   21.0394 C   0  0  0  0  0  0
  -24.3614   -9.4201   21.9163 C   0  0  0  0  0  0
  -23.6298   -8.2239   22.0734 C   0  0  0  0  0  0
  -22.4277   -8.0276   21.3535 C   0  0  0  0  0  0
  -21.9911   -9.0235   20.4624 C   0  0  0  0  0  0
  -22.7233  -10.2124   20.3031 C   0  0  0  0  0  0
  -21.6860   -6.0736   22.5272 C   0  0  0  0  0  0
  -21.4014   -6.5643   23.8205 C   0  0  0  0  0  0
  -21.3656   -5.6794   24.9166 C   0  0  0  0  0  0
  -21.6046   -4.3056   24.7218 C   0  0  0  0  0  0
  -21.8820   -3.8147   23.4339 C   0  0  0  0  0  0
  -21.9198   -4.6964   22.3395 C   0  0  0  0  0  0
  -22.7856  -13.5222   21.1847 C   0  0  0  0  0  0
  -22.1670   -4.2148   21.0973 F   0  0  0  0  0  0
  -21.5625   -3.4535   25.7735 F   0  0  0  0  0  0
  -30.0122  -13.4013   20.4283 N   0  0  0  0  0  0
  -26.2971  -12.9341   20.3298 N   0  0  0  0  0  0
  -25.9312  -11.6490   20.5748 N   0  0  0  0  0  0
  -22.0516  -12.8196   22.0405 N   0  0  0  0  0  0
  -25.4280  -15.1874   20.4014 N   0  0  0  0  0  0
  -31.8223  -14.7371   20.1138 O   0  0  0  0  0  0
  -21.6642   -6.8873   21.4230 O   0  0  0  0  0  0
  -22.3528  -14.5523   20.6704 O   0  0  0  0  0  0
  -24.6247  -31.8594   23.1978 C   0  0  0  0  0  0
  -25.9095  -32.4777   23.8318 C   0  0  1  0  0  0
  -27.2379  -27.3493   20.1169 C   0  0  0  0  0  0
  -25.5921  -33.8581   24.2264 N   0  0  0  0  0  0
  -23.4179  -30.4809   21.5385 C   0  0  2  0  0  0
  -24.8645  -28.9307   20.1109 C   0  0  0  0  0  0
  -22.7477  -29.4637   22.4924 C   0  0  0  0  0  0
  -18.0295  -28.1408   22.8498 C   0  0  0  0  0  0
  -24.1488  -36.7299   23.2641 C   0  0  0  0  0  0
  -25.9541  -30.8035   21.3591 C   0  0  0  0  0  0
  -26.0303  -29.4278   20.7099 C   0  0  0  0  0  0
  -27.2209  -28.6505   20.6962 C   0  0  0  0  0  0
  -26.0526  -26.8872   19.5043 C   0  0  0  0  0  0
  -24.8751  -27.6649   19.4972 C   0  0  0  0  0  0
  -23.6302  -29.8068   20.1563 C   0  0  0  0  0  0
  -25.4117  -36.3094   24.0330 C   0  0  1  0  0  0
  -20.5895  -28.3696   23.1309 C   0  0  2  0  0  0
  -20.6783  -26.9417   22.5430 C   0  0  0  0  0  0
  -19.5759  -26.6394   21.5236 C   0  0  0  0  0  0
  -18.1939  -26.7948   22.1635 C   0  0  0  0  0  0
  -19.1547  -28.8867   23.2889 C   0  0  0  0  0  0
  -18.9461  -30.1478   23.8895 C   0  0  0  0  0  0
  -17.6459  -30.6594   24.0581 C   0  0  0  0  0  0
  -25.9050  -34.9465   23.5102 C   0  0  0  0  0  0
  -16.5355  -29.9102   23.6337 C   0  0  0  0  0  0
  -16.7280  -28.6525   23.0341 C   0  0  0  0  0  0
  -26.4475  -31.6584   25.0694 C   0  0  0  0  0  0
  -25.3719  -31.3730   26.1425 C   0  0  0  0  0  0
  -27.0279  -30.3017   24.6093 C   0  0  0  0  0  0
  -27.6056  -32.4285   25.7464 C   0  0  0  0  0  0
  -27.5573  -37.1813   24.8469 C   0  0  0  0  0  0
  -21.4188  -29.3043   22.3693 N   0  0  0  0  0  0
  -26.4285  -37.3799   23.9417 N   0  0  0  0  0  0
  -24.6842  -31.0645   22.0894 N   0  0  0  0  0  0
  -23.4219  -28.8187   23.2984 O   0  0  0  0  0  0
  -28.3863  -26.5551   20.1129 O   0  0  0  0  0  0
  -26.5605  -34.8934   22.4664 O   0  0  0  0  0  0
  -23.5418  -32.1343   23.7339 O   0  0  0  0  0  0
  -30.3681  -21.9358   20.2746 C   0  0  0  0  0  0
  -28.0896  -20.4836   20.5435 C   0  0  0  0  0  0
  -30.4846  -20.5389   20.5381 C   0  0  0  0  0  0
  -29.3031  -19.7524   20.6708 C   0  0  0  0  0  0
  -29.1050  -22.5682   20.1441 C   0  0  0  0  0  0
  -31.8716  -19.9349   20.6599 C   0  0  0  0  0  0
  -29.2083  -18.2148   21.0172 C   0  0  0  0  0  0
  -28.9601  -24.0559   19.6547 C   0  0  0  0  0  0
  -30.3036  -17.1388   20.6123 C   0  0  0  0  0  0
  -28.2949  -25.1561   20.5747 C   0  0  0  0  0  0
  -27.9848  -21.8182   20.2804 N   0  0  0  0  0  0
  -29.9132  -15.7026   20.8238 N   0  0  0  0  0  0
  -31.4680  -12.4707   19.1566 H   0  0  0  0  0  0
  -30.3357  -11.3770   19.8994 H   0  0  0  0  0  0
  -29.7633  -11.7484   17.4742 H   0  0  0  0  0  0
  -29.6535  -13.4686   17.7477 H   0  0  0  0  0  0
  -27.8463  -11.2946   18.8501 H   0  0  0  0  0  0
  -27.3745  -12.5903   17.7875 H   0  0  0  0  0  0
  -27.6701  -14.2529   19.5191 H   0  0  0  0  0  0
  -28.6944  -12.0652   21.3930 H   0  0  0  0  0  0
  -28.4457  -13.7335   21.8320 H   0  0  0  0  0  0
  -25.2768   -9.5687   22.4719 H   0  0  0  0  0  0
  -24.0024   -7.4625   22.7439 H   0  0  0  0  0  0
  -21.0852   -8.8723   19.8923 H   0  0  0  0  0  0
  -22.3674  -10.9643   19.6125 H   0  0  0  0  0  0
  -21.2002   -7.6150   23.9703 H   0  0  0  0  0  0
  -21.1481   -6.0527   25.9073 H   0  0  0  0  0  0
  -22.0608   -2.7604   23.2832 H   0  0  0  0  0  0
  -22.4205  -11.9884   22.4788 H   0  0  0  0  0  0
  -21.1104  -13.1133   22.2582 H   0  0  0  0  0  0
  -24.6518  -15.8373   20.4743 H   0  0  0  0  0  0
  -26.2639  -15.6113   20.0206 H   0  0  0  0  0  0
  -26.7180  -32.5442   23.1087 H   0  0  0  0  0  0
  -25.0105  -33.9713   25.0426 H   0  0  0  0  0  0
  -22.7120  -31.3011   21.3942 H   0  0  0  0  0  0
  -23.3743  -35.9650   23.3342 H   0  0  0  0  0  0
  -24.3568  -36.8855   22.2043 H   0  0  0  0  0  0
  -23.7238  -37.6517   23.6621 H   0  0  0  0  0  0
  -26.0735  -31.5605   20.5841 H   0  0  0  0  0  0
  -26.8416  -30.8603   21.9775 H   0  0  0  0  0  0
  -28.1217  -29.0365   21.1537 H   0  0  0  0  0  0
  -26.0346  -25.9189   19.0244 H   0  0  0  0  0  0
  -23.9848  -27.2833   19.0170 H   0  0  0  0  0  0
  -23.7401  -30.5773   19.3921 H   0  0  0  0  0  0
  -22.7533  -29.2268   19.8608 H   0  0  0  0  0  0
  -25.1305  -36.1952   25.0819 H   0  0  0  0  0  0
  -20.9999  -28.3250   24.1421 H   0  0  0  0  0  0
  -20.5716  -26.2292   23.3615 H   0  0  0  0  0  0
  -21.6644  -26.7449   22.1201 H   0  0  0  0  0  0
  -19.6902  -25.6307   21.1244 H   0  0  0  0  0  0
  -19.6702  -27.3224   20.6780 H   0  0  0  0  0  0
  -17.4215  -26.6722   21.4023 H   0  0  0  0  0  0
  -18.0303  -26.0103   22.9029 H   0  0  0  0  0  0
  -19.7934  -30.7322   24.2242 H   0  0  0  0  0  0
  -17.5002  -31.6264   24.5193 H   0  0  0  0  0  0
  -15.5353  -30.3003   23.7653 H   0  0  0  0  0  0
  -15.8678  -28.0855   22.7033 H   0  0  0  0  0  0
  -24.5919  -30.7037   25.7772 H   0  0  0  0  0  0
  -24.8885  -32.2899   26.4803 H   0  0  0  0  0  0
  -25.8053  -30.8949   27.0219 H   0  0  0  0  0  0
  -26.2803  -29.6825   24.1119 H   0  0  0  0  0  0
  -27.3992  -29.7217   25.4549 H   0  0  0  0  0  0
  -27.8684  -30.4323   23.9281 H   0  0  0  0  0  0
  -27.2686  -33.3605   26.2014 H   0  0  0  0  0  0
  -28.3886  -32.6780   25.0294 H   0  0  0  0  0  0
  -28.0699  -31.8405   26.5386 H   0  0  0  0  0  0
  -28.2624  -38.0079   24.7493 H   0  0  0  0  0  0
  -28.1024  -36.2611   24.6322 H   0  0  0  0  0  0
  -27.2286  -37.1480   25.8869 H   0  0  0  0  0  0
  -20.9363  -29.8734   21.6888 H   0  0  0  0  0  0
  -26.0168  -38.2885   24.1397 H   0  0  0  0  0  0
  -31.2639  -22.5260   20.1399 H   0  0  0  0  0  0
  -27.1455  -19.9714   20.6572 H   0  0  0  0  0  0
  -32.6457  -20.7014   20.6144 H   0  0  0  0  0  0
  -32.0617  -19.2362   19.8444 H   0  0  0  0  0  0
  -31.9864  -19.4143   21.6108 H   0  0  0  0  0  0
  -28.2684  -17.8727   20.5824 H   0  0  0  0  0  0
  -29.0540  -18.1514   22.0953 H   0  0  0  0  0  0
  -28.4149  -24.0317   18.7109 H   0  0  0  0  0  0
  -29.9612  -24.4044   19.3947 H   0  0  0  0  0  0
  -31.2237  -17.3084   21.1716 H   0  0  0  0  0  0
  -30.5555  -17.2592   19.5580 H   0  0  0  0  0  0
  -28.8029  -25.1312   21.5385 H   0  0  0  0  0  0
  -27.2648  -24.8735   20.7906 H   0  0  0  0  0  0
  -28.9671  -15.5225   21.1240 H   0  0  0  0  0  0
  1 25  1  0  0  0
  1 30  2  0  0  0
  1 82  1  0  0  0
  2  3  1  0  0  0
  2 25  1  0  0  0
  2 83  1  0  0  0
  2 84  1  0  0  0
  3  4  1  0  0  0
  3 85  1  0  0  0
  3 86  1  0  0  0
  4  5  1  0  0  0
  4 87  1  0  0  0
  4 88  1  0  0  0
  5  6  1  0  0  0
  5 26  1  0  0  0
  5 89  1  0  0  0
  6 25  1  0  0  0
  6 90  1  0  0  0
  6 91  1  0  0  0
  7  8  2  0  0  0
  7 26  1  0  0  0
  7 29  1  0  0  0
  8  9  1  0  0  0
  8 22  1  0  0  0
  9 10  1  0  0  0
  9 27  2  0  0  0
 10 11  2  0  0  0
 10 15  1  0  0  0
 11 12  1  0  0  0
 11 92  1  0  0  0
 12 13  2  0  0  0
 12 93  1  0  0  0
 13 14  1  0  0  0
 13 31  1  0  0  0
 14 15  2  0  0  0
 14 94  1  0  0  0
 15 95  1  0  0  0
 16 17  2  0  0  0
 16 21  1  0  0  0
 16 31  1  0  0  0
 17 18  1  0  0  0
 17 96  1  0  0  0
 18 19  2  0  0  0
 18 97  1  0  0  0
 19 20  1  0  0  0
 19 24  1  0  0  0
 20 21  2  0  0  0
 20 98  1  0  0  0
 21 23  1  0  0  0
 22 28  1  0  0  0
 22 32  2  0  0  0
 26 27  1  0  0  0
 28 99  1  0  0  0
 28100  1  0  0  0
 29101  1  0  0  0
 29102  1  0  0  0
 33 34  1  0  0  0
 33 66  1  0  0  0
 33 70  2  0  0  0
 34 36  1  0  0  0
 34 59  1  0  0  0
 34103  1  0  0  0
 35 44  2  0  0  0
 35 45  1  0  0  0
 35 68  1  0  0  0
 36 56  1  0  0  0
 36104  1  0  0  0
 37 39  1  0  0  0
 37 47  1  0  0  0
 37 66  1  0  0  0
 37105  1  0  0  0
 38 43  2  0  0  0
 38 46  1  0  0  0
 38 47  1  0  0  0
 39 64  1  0  0  0
 39 67  2  0  0  0
 40 52  1  0  0  0
 40 53  2  0  0  0
 40 58  1  0  0  0
 41106  1  0  0  0
 41107  1  0  0  0
 41108  1  0  0  0
 41 48  1  0  0  0
 42 43  1  0  0  0
 42 66  1  0  0  0
 42109  1  0  0  0
 42110  1  0  0  0
 43 44  1  0  0  0
 44111  1  0  0  0
 45 46  2  0  0  0
 45112  1  0  0  0
 46113  1  0  0  0
 47114  1  0  0  0
 47115  1  0  0  0
 48 56  1  0  0  0
 48 65  1  0  0  0
 48116  1  0  0  0
 49 50  1  0  0  0
 49 53  1  0  0  0
 49 64  1  0  0  0
 49117  1  0  0  0
 50 51  1  0  0  0
 50118  1  0  0  0
 50119  1  0  0  0
 51 52  1  0  0  0
 51120  1  0  0  0
 51121  1  0  0  0
 52122  1  0  0  0
 52123  1  0  0  0
 53 54  1  0  0  0
 54 55  2  0  0  0
 54124  1  0  0  0
 55 57  1  0  0  0
 55125  1  0  0  0
 56 69  2  0  0  0
 57 58  2  0  0  0
 57126  1  0  0  0
 58127  1  0  0  0
 59 60  1  0  0  0
 59 61  1  0  0  0
 59 62  1  0  0  0
 60128  1  0  0  0
 60129  1  0  0  0
 60130  1  0  0  0
 61131  1  0  0  0
 61132  1  0  0  0
 61133  1  0  0  0
 62134  1  0  0  0
 62135  1  0  0  0
 62136  1  0  0  0
 63 65  1  0  0  0
 63137  1  0  0  0
 63138  1  0  0  0
 63139  1  0  0  0
 64140  1  0  0  0
 65141  1  0  0  0
 68 80  1  0  0  0
 71 73  2  0  0  0
 71 75  1  0  0  0
 71142  1  0  0  0
 72 74  2  0  0  0
 72 81  1  0  0  0
 72143  1  0  0  0
 73 74  1  0  0  0
 73 76  1  0  0  0
 74 77  1  0  0  0
 75 78  1  0  0  0
 75 81  2  0  0  0
 76144  1  0  0  0
 76145  1  0  0  0
 76146  1  0  0  0
 77 79  1  0  0  0
 77147  1  0  0  0
 77148  1  0  0  0
 78 80  1  0  0  0
 78149  1  0  0  0
 78150  1  0  0  0
 79 82  1  0  0  0
 79151  1  0  0  0
 79152  1  0  0  0
 80153  1  0  0  0
 80154  1  0  0  0
 82155  1  0  0  0
M  ISO  4   1 100  68 101  80 101  82 100
M  END
> <chiral flag>
0

> <version>
0

> <s_m_source_file>
/data/baiqing/PycharmProjects/Reinvent-master-3.2/result/LINK_invent/BTK/process_docking_weight1_custom_sum_contain_oxygen_bond_distance_aromatic_linkinvent_7_9_3/rearranged_h_0045.sdf

> <i_m_source_file_index>
39

> <r_mmod_Potential_Energy-OPLS-2005>
-153.511215209961

> <r_mmod_Stretch_Energy-OPLS-2005>
71.6320343017578

> <r_mmod_Bend_Energy-OPLS-2005>
134.396438598633

> <r_mmod_Torsional_Energy-OPLS-2005>
208.972595214844

> <r_mmod_Improper_Torsional_Energy-OPLS-2005>
6.04438638687134

> <r_mmod_Van_der_Waal_Energy-OPLS-2005>
141.450546264648

> <r_mmod_Electrostatic_Energy-OPLS-2005>
-526.492553710938

> <r_mmod_Solvation_Energy-OPLS-2005>
-225.149642944336

> <b_mmod_Minimization_Converged-OPLS-2005>
0

> <r_mmod_RMS_Derivative-OPLS-2005>
3.02212047576904

$$$$
39
                    3D
 Structure written by MMmdl.
169177  0  0  1  0            999 V2000
  -30.7770  -14.3802   20.7015 C   0  0  0  0  0  0
  -30.4093  -12.3189   19.3814 C   0  0  0  0  0  0
  -29.4666  -12.5397   18.1819 C   0  0  0  0  0  0
  -27.9916  -12.4036   18.6067 C   0  0  0  0  0  0
  -27.6645  -13.2183   19.8873 C   0  0  2  0  0  0
  -28.7083  -12.9539   20.9951 C   0  0  0  0  0  0
  -25.2608  -13.8226   20.5680 C   0  0  0  0  0  0
  -24.1884  -13.0450   20.9219 C   0  0  0  0  0  0
  -24.6499  -11.6936   20.8840 C   0  0  0  0  0  0
  -23.9224  -10.4288   21.0507 C   0  0  0  0  0  0
  -24.3764   -9.4193   21.9260 C   0  0  0  0  0  0
  -23.6393   -8.2254   22.0806 C   0  0  0  0  0  0
  -22.4353   -8.0340   21.3602 C   0  0  0  0  0  0
  -22.0050   -9.0342   20.4710 C   0  0  0  0  0  0
  -22.7442  -10.2178   20.3113 C   0  0  0  0  0  0
  -21.6860   -6.0788   22.5348 C   0  0  0  0  0  0
  -21.4006   -6.5677   23.8299 C   0  0  0  0  0  0
  -21.3634   -5.6835   24.9262 C   0  0  0  0  0  0
  -21.6034   -4.3095   24.7314 C   0  0  0  0  0  0
  -21.8831   -3.8196   23.4437 C   0  0  0  0  0  0
  -21.9199   -4.7003   22.3481 C   0  0  0  0  0  0
  -22.7908  -13.5241   21.1842 C   0  0  0  0  0  0
  -22.1671   -4.2184   21.1060 F   0  0  0  0  0  0
  -21.5628   -3.4578   25.7821 F   0  0  0  0  0  0
  -30.0421  -13.2636   20.4512 N   0  0  0  0  0  0
  -26.3069  -12.9385   20.3502 N   0  0  0  0  0  0
  -25.9406  -11.6534   20.5895 N   0  0  0  0  0  0
  -22.0554  -12.8238   22.0408 N   0  0  0  0  0  0
  -25.4324  -15.1916   20.3927 N   0  0  0  0  0  0
  -31.8086  -14.6483   20.0825 O   0  0  0  0  0  0
  -21.6678   -6.8939   21.4315 O   0  0  0  0  0  0
  -22.3601  -14.5560   20.6718 O   0  0  0  0  0  0
  -24.6078  -31.8695   23.2132 C   0  0  0  0  0  0
  -25.8956  -32.4859   23.8421 C   0  0  1  0  0  0
  -27.2369  -27.4555   20.1160 C   0  0  0  0  0  0
  -25.5854  -33.8671   24.2342 N   0  0  0  0  0  0
  -23.3995  -30.4842   21.5563 C   0  0  2  0  0  0
  -24.8519  -28.9686   20.1178 C   0  0  0  0  0  0
  -22.7413  -29.4537   22.5039 C   0  0  0  0  0  0
  -18.0214  -28.1356   22.8480 C   0  0  0  0  0  0
  -24.1489  -36.7297   23.2638 C   0  0  0  0  0  0
  -25.9233  -30.8515   21.3597 C   0  0  0  0  0  0
  -26.0078  -29.4863   20.7115 C   0  0  0  0  0  0
  -27.2007  -28.7364   20.7039 C   0  0  0  0  0  0
  -26.0637  -26.9474   19.5092 C   0  0  0  0  0  0
  -24.8748  -27.7024   19.5100 C   0  0  0  0  0  0
  -23.6081  -29.8214   20.1684 C   0  0  0  0  0  0
  -25.4117  -36.3129   24.0342 C   0  0  1  0  0  0
  -20.5815  -28.3595   23.1397 C   0  0  2  0  0  0
  -20.6752  -26.9348   22.5464 C   0  0  0  0  0  0
  -19.5744  -26.6370   21.5240 C   0  0  0  0  0  0
  -18.1888  -26.7894   22.1608 C   0  0  0  0  0  0
  -19.1466  -28.8798   23.2923 C   0  0  0  0  0  0
  -18.9414  -30.1412   23.8938 C   0  0  0  0  0  0
  -17.6425  -30.6597   24.0528 C   0  0  0  0  0  0
  -25.9051  -34.9483   23.5142 C   0  0  0  0  0  0
  -16.5303  -29.9094   23.6323 C   0  0  0  0  0  0
  -16.7197  -28.6493   23.0341 C   0  0  0  0  0  0
  -26.4440  -31.6630   25.0717 C   0  0  0  0  0  0
  -25.3704  -31.3674   26.1469 C   0  0  0  0  0  0
  -27.0261  -30.3104   24.6002 C   0  0  0  0  0  0
  -27.6092  -32.4317   25.7421 C   0  0  0  0  0  0
  -27.5571  -37.1772   24.8450 C   0  0  0  0  0  0
  -21.4133  -29.2942   22.3815 N   0  0  0  0  0  0
  -26.4289  -37.3834   23.9426 N   0  0  0  0  0  0
  -24.6624  -31.0801   22.1017 N   0  0  0  0  0  0
  -23.4186  -28.8044   23.3030 O   0  0  0  0  0  0
  -28.4284  -26.7629   20.1732 O   0  0  0  0  0  0
  -26.5617  -34.8921   22.4709 O   0  0  0  0  0  0
  -23.5290  -32.1391   23.7550 O   0  0  0  0  0  0
  -29.3436  -24.4699   15.8842 C   0  0  0  0  0  0
  -28.9943  -25.7732   16.3085 C   0  0  0  0  0  0
  -29.0380  -23.6637   18.0459 C   0  0  0  0  0  0
  -28.7279  -24.9896   18.4765 C   0  0  0  0  0  0
  -29.7053  -24.1568   14.4424 C   0  0  0  0  0  0
  -28.9520  -26.9663   15.3695 C   0  0  0  0  0  0
  -28.9386  -22.4139   18.9350 C   0  0  0  0  0  0
  -28.4415  -25.3480   19.9314 C   0  0  0  0  0  0
  -29.8627  -17.4628   21.1549 C   0  0  0  0  0  0
  -28.8532  -18.6344   21.2670 C   0  0  0  0  0  0
  -29.4387  -16.1487   21.8689 C   0  0  0  0  0  0
  -30.2737  -21.8714   19.5163 C   0  0  0  0  0  0
  -28.9646  -19.7260   20.1612 C   0  0  0  0  0  0
  -29.3641  -23.4246   16.7491 N   0  0  0  0  0  0
  -28.7026  -26.0279   17.6001 N   0  0  0  0  0  0
  -30.4618  -15.0890   21.7989 N   0  0  0  0  0  0
  -30.2195  -20.5356   20.2058 N   0  3  0  0  0  0
  -31.4466  -12.4221   19.0615 H   0  0  0  0  0  0
  -30.3246  -11.2948   19.7473 H   0  0  0  0  0  0
  -29.6824  -11.8212   17.3913 H   0  0  0  0  0  0
  -29.6436  -13.5237   17.7408 H   0  0  0  0  0  0
  -27.7792  -11.3443   18.7742 H   0  0  0  0  0  0
  -27.3328  -12.7153   17.7925 H   0  0  0  0  0  0
  -27.7225  -14.2762   19.6300 H   0  0  0  0  0  0
  -28.6770  -11.9008   21.2769 H   0  0  0  0  0  0
  -28.4734  -13.4990   21.9118 H   0  0  0  0  0  0
  -25.2926   -9.5581   22.4824 H   0  0  0  0  0  0
  -24.0090   -7.4643   22.7527 H   0  0  0  0  0  0
  -21.0966   -8.9010   19.9003 H   0  0  0  0  0  0
  -22.4092  -10.9762   19.6218 H   0  0  0  0  0  0
  -21.2017   -7.6190   23.9825 H   0  0  0  0  0  0
  -21.1392   -6.0561   25.9162 H   0  0  0  0  0  0
  -22.0606   -2.7645   23.3012 H   0  0  0  0  0  0
  -22.4130  -11.9840   22.4700 H   0  0  0  0  0  0
  -21.1194  -13.1298   22.2611 H   0  0  0  0  0  0
  -24.6812  -15.8627   20.5072 H   0  0  0  0  0  0
  -26.2872  -15.6141   20.0528 H   0  0  0  0  0  0
  -26.7014  -32.5620   23.1186 H   0  0  0  0  0  0
  -24.9968  -33.9888   25.0450 H   0  0  0  0  0  0
  -22.6823  -31.2958   21.4181 H   0  0  0  0  0  0
  -23.3791  -35.9574   23.3320 H   0  0  0  0  0  0
  -24.3566  -36.8911   22.2044 H   0  0  0  0  0  0
  -23.7191  -37.6483   23.6649 H   0  0  0  0  0  0
  -26.0194  -31.6153   20.5855 H   0  0  0  0  0  0
  -26.8159  -30.9213   21.9678 H   0  0  0  0  0  0
  -28.0975  -29.1354   21.1611 H   0  0  0  0  0  0
  -26.0469  -25.9796   19.0302 H   0  0  0  0  0  0
  -23.9782  -27.3095   19.0495 H   0  0  0  0  0  0
  -23.7094  -30.5967   19.4090 H   0  0  0  0  0  0
  -22.7406  -29.2264   19.8759 H   0  0  0  0  0  0
  -25.1277  -36.2016   25.0831 H   0  0  0  0  0  0
  -20.9837  -28.3151   24.1536 H   0  0  0  0  0  0
  -20.5745  -26.2150   23.3604 H   0  0  0  0  0  0
  -21.6618  -26.7477   22.1193 H   0  0  0  0  0  0
  -19.6959  -25.6304   21.1218 H   0  0  0  0  0  0
  -19.6759  -27.3237   20.6829 H   0  0  0  0  0  0
  -17.4187  -26.6609   21.3976 H   0  0  0  0  0  0
  -18.0294  -26.0031   22.9001 H   0  0  0  0  0  0
  -19.7893  -30.7173   24.2385 H   0  0  0  0  0  0
  -17.4985  -31.6296   24.5067 H   0  0  0  0  0  0
  -15.5317  -30.3005   23.7693 H   0  0  0  0  0  0
  -15.8551  -28.0852   22.7083 H   0  0  0  0  0  0
  -24.5908  -30.7017   25.7743 H   0  0  0  0  0  0
  -24.8836  -32.2793   26.4928 H   0  0  0  0  0  0
  -25.8040  -30.8800   27.0205 H   0  0  0  0  0  0
  -26.2759  -29.6892   24.1100 H   0  0  0  0  0  0
  -27.4150  -29.7328   25.4392 H   0  0  0  0  0  0
  -27.8529  -30.4506   23.9038 H   0  0  0  0  0  0
  -27.2806  -33.3647   26.2012 H   0  0  0  0  0  0
  -28.3837  -32.6838   25.0154 H   0  0  0  0  0  0
  -28.0801  -31.8399   26.5271 H   0  0  0  0  0  0
  -28.2584  -38.0088   24.7603 H   0  0  0  0  0  0
  -28.1093  -36.2632   24.6189 H   0  0  0  0  0  0
  -27.2286  -37.1323   25.8851 H   0  0  0  0  0  0
  -20.9324  -29.8641   21.7005 H   0  0  0  0  0  0
  -26.0187  -38.2883   24.1540 H   0  0  0  0  0  0
  -29.0661  -24.7042   13.7463 H   0  0  0  0  0  0
  -29.5791  -23.0910   14.2438 H   0  0  0  0  0  0
  -30.7459  -24.4134   14.2280 H   0  0  0  0  0  0
  -28.6757  -27.8844   15.8917 H   0  0  0  0  0  0
  -28.2205  -26.8230   14.5718 H   0  0  0  0  0  0
  -29.9318  -27.1189   14.9187 H   0  0  0  0  0  0
  -28.4982  -21.6331   18.3132 H   0  0  0  0  0  0
  -28.2293  -22.5941   19.7438 H   0  0  0  0  0  0
  -29.2406  -24.9289   20.5447 H   0  0  0  0  0  0
  -27.5277  -24.8689   20.2866 H   0  0  0  0  0  0
  -30.8222  -17.7973   21.5454 H   0  0  0  0  0  0
  -30.0132  -17.2397   20.1012 H   0  0  0  0  0  0
  -28.8908  -19.0972   22.2558 H   0  0  0  0  0  0
  -27.8513  -18.2136   21.1913 H   0  0  0  0  0  0
  -28.4898  -15.7907   21.4671 H   0  0  0  0  0  0
  -29.2638  -16.3494   22.9276 H   0  0  0  0  0  0
  -30.6650  -22.5973   20.2338 H   0  0  0  0  0  0
  -31.0264  -21.8190   18.7237 H   0  0  0  0  0  0
  -28.0924  -20.3671   20.2774 H   0  0  0  0  0  0
  -28.8593  -19.2668   19.1773 H   0  0  0  0  0  0
  -31.2951  -15.3621   22.3066 H   0  0  0  0  0  0
  -30.4851  -20.6736   21.1667 H   0  0  0  0  0  0
  -30.9530  -19.9783   19.7964 H   0  0  0  0  0  0
  1 25  1  0  0  0
  1 30  2  0  0  0
  1 86  1  0  0  0
  2  3  1  0  0  0
  2 25  1  0  0  0
  2 88  1  0  0  0
  2 89  1  0  0  0
  3  4  1  0  0  0
  3 90  1  0  0  0
  3 91  1  0  0  0
  4  5  1  0  0  0
  4 92  1  0  0  0
  4 93  1  0  0  0
  5  6  1  0  0  0
  5 26  1  0  0  0
  5 94  1  0  0  0
  6 25  1  0  0  0
  6 95  1  0  0  0
  6 96  1  0  0  0
  7  8  2  0  0  0
  7 26  1  0  0  0
  7 29  1  0  0  0
  8  9  1  0  0  0
  8 22  1  0  0  0
  9 10  1  0  0  0
  9 27  2  0  0  0
 10 11  2  0  0  0
 10 15  1  0  0  0
 11 12  1  0  0  0
 11 97  1  0  0  0
 12 13  2  0  0  0
 12 98  1  0  0  0
 13 14  1  0  0  0
 13 31  1  0  0  0
 14 15  2  0  0  0
 14 99  1  0  0  0
 15100  1  0  0  0
 16 17  2  0  0  0
 16 21  1  0  0  0
 16 31  1  0  0  0
 17 18  1  0  0  0
 17101  1  0  0  0
 18 19  2  0  0  0
 18102  1  0  0  0
 19 20  1  0  0  0
 19 24  1  0  0  0
 20 21  2  0  0  0
 20103  1  0  0  0
 21 23  1  0  0  0
 22 28  1  0  0  0
 22 32  2  0  0  0
 26 27  1  0  0  0
 28104  1  0  0  0
 28105  1  0  0  0
 29106  1  0  0  0
 29107  1  0  0  0
 33 34  1  0  0  0
 33 66  1  0  0  0
 33 70  2  0  0  0
 34 36  1  0  0  0
 34 59  1  0  0  0
 34108  1  0  0  0
 35 44  2  0  0  0
 35 45  1  0  0  0
 35 68  1  0  0  0
 36 56  1  0  0  0
 36109  1  0  0  0
 37 39  1  0  0  0
 37 47  1  0  0  0
 37 66  1  0  0  0
 37110  1  0  0  0
 38 43  2  0  0  0
 38 46  1  0  0  0
 38 47  1  0  0  0
 39 64  1  0  0  0
 39 67  2  0  0  0
 40 52  1  0  0  0
 40 53  2  0  0  0
 40 58  1  0  0  0
 41111  1  0  0  0
 41112  1  0  0  0
 41113  1  0  0  0
 41 48  1  0  0  0
 42 43  1  0  0  0
 42 66  1  0  0  0
 42114  1  0  0  0
 42115  1  0  0  0
 43 44  1  0  0  0
 44116  1  0  0  0
 45 46  2  0  0  0
 45117  1  0  0  0
 46118  1  0  0  0
 47119  1  0  0  0
 47120  1  0  0  0
 48 56  1  0  0  0
 48 65  1  0  0  0
 48121  1  0  0  0
 49 50  1  0  0  0
 49 53  1  0  0  0
 49 64  1  0  0  0
 49122  1  0  0  0
 50 51  1  0  0  0
 50123  1  0  0  0
 50124  1  0  0  0
 51 52  1  0  0  0
 51125  1  0  0  0
 51126  1  0  0  0
 52127  1  0  0  0
 52128  1  0  0  0
 53 54  1  0  0  0
 54 55  2  0  0  0
 54129  1  0  0  0
 55 57  1  0  0  0
 55130  1  0  0  0
 56 69  2  0  0  0
 57 58  2  0  0  0
 57131  1  0  0  0
 58132  1  0  0  0
 59 60  1  0  0  0
 59 61  1  0  0  0
 59 62  1  0  0  0
 60133  1  0  0  0
 60134  1  0  0  0
 60135  1  0  0  0
 61136  1  0  0  0
 61137  1  0  0  0
 61138  1  0  0  0
 62139  1  0  0  0
 62140  1  0  0  0
 62141  1  0  0  0
 63 65  1  0  0  0
 63142  1  0  0  0
 63143  1  0  0  0
 63144  1  0  0  0
 64145  1  0  0  0
 65146  1  0  0  0
 68 78  1  0  0  0
 71 72  2  0  0  0
 71 75  1  0  0  0
 71 84  1  0  0  0
 72 76  1  0  0  0
 72 85  1  0  0  0
 73 74  1  0  0  0
 73 77  1  0  0  0
 73 84  2  0  0  0
 74 78  1  0  0  0
 74 85  2  0  0  0
 75147  1  0  0  0
 75148  1  0  0  0
 75149  1  0  0  0
 76150  1  0  0  0
 76151  1  0  0  0
 76152  1  0  0  0
 77 82  1  0  0  0
 77153  1  0  0  0
 77154  1  0  0  0
 78155  1  0  0  0
 78156  1  0  0  0
 79 80  1  0  0  0
 79 81  1  0  0  0
 79157  1  0  0  0
 79158  1  0  0  0
 80 83  1  0  0  0
 80159  1  0  0  0
 80160  1  0  0  0
 81 86  1  0  0  0
 81161  1  0  0  0
 81162  1  0  0  0
 82 87  1  0  0  0
 82163  1  0  0  0
 82164  1  0  0  0
 83 87  1  0  0  0
 83165  1  0  0  0
 83166  1  0  0  0
 86167  1  0  0  0
 87168  1  0  0  0
 87169  1  0  0  0
M  CHG  1  87   1
M  ISO  4   1 100  68 101  78 101  86 100
M  END
> <chiral flag>
0

> <version>
0

> <s_m_source_file>
/data/baiqing/PycharmProjects/Reinvent-master-3.2/result/LINK_invent/BTK/process_docking_weight1_custom_sum_contain_oxygen_bond_distance_aromatic_linkinvent_7_9_3/rearranged_h_0045.sdf

> <i_m_source_file_index>
40

> <r_mmod_Potential_Energy-OPLS-2005>
-137.747039794922

> <r_mmod_Stretch_Energy-OPLS-2005>
43.0302314758301

> <r_mmod_Bend_Energy-OPLS-2005>
124.491363525391

> <r_mmod_Torsional_Energy-OPLS-2005>
268.821655273438

> <r_mmod_Improper_Torsional_Energy-OPLS-2005>
8.2706241607666

> <r_mmod_Van_der_Waal_Energy-OPLS-2005>
154.13850402832

> <r_mmod_Electrostatic_Energy-OPLS-2005>
-247.10676574707

> <r_mmod_Solvation_Energy-OPLS-2005>
-499.497222900391

> <b_mmod_Minimization_Converged-OPLS-2005>
0

> <r_mmod_RMS_Derivative-OPLS-2005>
6.79907989501953

$$$$
40
                    3D
 Structure written by MMmdl.
161169  0  0  1  0            999 V2000
  -30.6990  -14.4649   20.5982 C   0  0  0  0  0  0
  -30.4286  -12.3232   19.3923 C   0  0  0  0  0  0
  -29.4859  -12.5193   18.1873 C   0  0  0  0  0  0
  -28.0076  -12.3785   18.6080 C   0  0  0  0  0  0
  -27.6632  -13.2043   19.8770 C   0  0  2  0  0  0
  -28.7111  -12.9604   20.9833 C   0  0  0  0  0  0
  -25.2599  -13.8142   20.5687 C   0  0  0  0  0  0
  -24.1845  -13.0431   20.9131 C   0  0  0  0  0  0
  -24.6397  -11.6889   20.8703 C   0  0  0  0  0  0
  -23.9047  -10.4286   21.0391 C   0  0  0  0  0  0
  -24.3613   -9.4209   21.9178 C   0  0  0  0  0  0
  -23.6294   -8.2241   22.0765 C   0  0  0  0  0  0
  -22.4274   -8.0271   21.3553 C   0  0  0  0  0  0
  -21.9891   -9.0236   20.4651 C   0  0  0  0  0  0
  -22.7210  -10.2119   20.3044 C   0  0  0  0  0  0
  -21.6857   -6.0703   22.5282 C   0  0  0  0  0  0
  -21.4033   -6.5628   23.8206 C   0  0  0  0  0  0
  -21.3650   -5.6794   24.9183 C   0  0  0  0  0  0
  -21.6032   -4.3052   24.7242 C   0  0  0  0  0  0
  -21.8826   -3.8129   23.4375 C   0  0  0  0  0  0
  -21.9208   -4.6932   22.3422 C   0  0  0  0  0  0
  -22.7865  -13.5217   21.1811 C   0  0  0  0  0  0
  -22.1659   -4.2113   21.0994 F   0  0  0  0  0  0
  -21.5630   -3.4537   25.7752 F   0  0  0  0  0  0
  -30.0331  -13.2920   20.4251 N   0  0  0  0  0  0
  -26.3049  -12.9320   20.3404 N   0  0  0  0  0  0
  -25.9343  -11.6477   20.5789 N   0  0  0  0  0  0
  -22.0520  -12.8188   22.0365 N   0  0  0  0  0  0
  -25.4306  -15.1874   20.4078 N   0  0  0  0  0  0
  -31.8199  -14.6800   20.1284 O   0  0  0  0  0  0
  -21.6657   -6.8853   21.4244 O   0  0  0  0  0  0
  -22.3519  -14.5511   20.6669 O   0  0  0  0  0  0
  -24.6097  -31.8656   23.2072 C   0  0  0  0  0  0
  -25.8986  -32.4795   23.8372 C   0  0  1  0  0  0
  -27.2492  -27.4456   20.1086 C   0  0  0  0  0  0
  -25.5858  -33.8599   24.2312 N   0  0  0  0  0  0
  -23.3990  -30.4870   21.5467 C   0  0  2  0  0  0
  -24.8504  -28.9475   20.1216 C   0  0  0  0  0  0
  -22.7376  -29.4648   22.4974 C   0  0  0  0  0  0
  -18.0255  -28.1380   22.8487 C   0  0  0  0  0  0
  -24.1497  -36.7338   23.2646 C   0  0  0  0  0  0
  -25.9255  -30.8388   21.3549 C   0  0  0  0  0  0
  -26.0100  -29.4726   20.7079 C   0  0  0  0  0  0
  -27.2133  -28.7330   20.6870 C   0  0  0  0  0  0
  -26.0682  -26.9191   19.5390 C   0  0  0  0  0  0
  -24.8731  -27.6697   19.5386 C   0  0  0  0  0  0
  -23.6098  -29.8127   20.1638 C   0  0  0  0  0  0
  -25.4098  -36.3100   24.0337 C   0  0  1  0  0  0
  -20.5843  -28.3665   23.1333 C   0  0  2  0  0  0
  -20.6739  -26.9406   22.5430 C   0  0  0  0  0  0
  -19.5729  -26.6394   21.5217 C   0  0  0  0  0  0
  -18.1903  -26.7930   22.1612 C   0  0  0  0  0  0
  -19.1507  -28.8838   23.2917 C   0  0  0  0  0  0
  -18.9438  -30.1441   23.8925 C   0  0  0  0  0  0
  -17.6437  -30.6607   24.0559 C   0  0  0  0  0  0
  -25.9021  -34.9467   23.5143 C   0  0  0  0  0  0
  -16.5329  -29.9104   23.6334 C   0  0  0  0  0  0
  -16.7236  -28.6519   23.0344 C   0  0  0  0  0  0
  -26.4451  -31.6556   25.0683 C   0  0  0  0  0  0
  -25.3740  -31.3577   26.1430 C   0  0  0  0  0  0
  -27.0302  -30.3013   24.6038 C   0  0  0  0  0  0
  -27.6046  -32.4260   25.7428 C   0  0  0  0  0  0
  -27.5577  -37.1805   24.8456 C   0  0  0  0  0  0
  -21.4106  -29.3026   22.3734 N   0  0  0  0  0  0
  -26.4285  -37.3782   23.9417 N   0  0  0  0  0  0
  -24.6634  -31.0774   22.0960 N   0  0  0  0  0  0
  -23.4155  -28.8177   23.2990 O   0  0  0  0  0  0
  -28.4464  -26.7622   20.0678 O   0  0  0  0  0  0
  -26.5630  -34.8922   22.4738 O   0  0  0  0  0  0
  -23.5300  -32.1406   23.7486 O   0  0  0  0  0  0
  -29.9035  -22.2218   19.7951 C   0  0  0  0  0  0
  -30.0675  -20.8761   20.1742 C   0  0  0  0  0  0
  -28.7053  -22.8992   20.1089 C   0  0  0  0  0  0
  -29.0357  -20.2324   20.8842 C   0  0  0  0  0  0
  -27.7253  -22.1810   20.8376 C   0  0  0  0  0  0
  -25.1856  -21.9631   20.7276 C   0  0  0  0  0  0
  -28.4983  -24.3329   19.5900 C   0  0  0  0  0  0
  -29.0839  -18.7552   21.3121 C   0  0  0  0  0  0
  -26.3810  -22.7790   21.2419 C   0  0  0  0  0  0
  -30.3764  -17.9585   20.9903 C   0  0  0  0  0  0
  -30.5753  -16.6608   21.8221 C   0  0  0  0  0  0
  -28.4978  -25.4562   20.6585 C   0  0  0  0  0  0
  -27.9096  -20.8971   21.2307 N   0  0  0  0  0  0
  -30.0179  -15.4207   21.2575 N   0  0  0  0  0  0
  -31.4665  -12.4454   19.0737 H   0  0  0  0  0  0
  -30.3541  -11.3060   19.7793 H   0  0  0  0  0  0
  -29.7192  -11.7966   17.4033 H   0  0  0  0  0  0
  -29.6471  -13.5055   17.7485 H   0  0  0  0  0  0
  -27.8119  -11.3215   18.7922 H   0  0  0  0  0  0
  -27.3551  -12.6644   17.7815 H   0  0  0  0  0  0
  -27.7135  -14.2558   19.5969 H   0  0  0  0  0  0
  -28.7003  -11.9123   21.2876 H   0  0  0  0  0  0
  -28.4759  -13.5199   21.8895 H   0  0  0  0  0  0
  -25.2772   -9.5688   22.4718 H   0  0  0  0  0  0
  -23.9999   -7.4644   22.7503 H   0  0  0  0  0  0
  -21.0813   -8.8750   19.8961 H   0  0  0  0  0  0
  -22.3677  -10.9647   19.6131 H   0  0  0  0  0  0
  -21.2030   -7.6134   23.9691 H   0  0  0  0  0  0
  -21.1451   -6.0536   25.9078 H   0  0  0  0  0  0
  -22.0614   -2.7584   23.2902 H   0  0  0  0  0  0
  -22.4192  -11.9856   22.4732 H   0  0  0  0  0  0
  -21.1137  -13.1201   22.2599 H   0  0  0  0  0  0
  -24.6626  -15.8408   20.5110 H   0  0  0  0  0  0
  -26.2862  -15.6284   20.0948 H   0  0  0  0  0  0
  -26.7035  -32.5531   23.1132 H   0  0  0  0  0  0
  -24.9874  -33.9744   25.0351 H   0  0  0  0  0  0
  -22.6874  -31.3033   21.4014 H   0  0  0  0  0  0
  -23.3750  -35.9692   23.3291 H   0  0  0  0  0  0
  -24.3581  -36.8986   22.2068 H   0  0  0  0  0  0
  -23.7296  -37.6549   23.6694 H   0  0  0  0  0  0
  -26.0258  -31.5998   20.5793 H   0  0  0  0  0  0
  -26.8193  -30.9001   21.9650 H   0  0  0  0  0  0
  -28.1166  -29.1417   21.1186 H   0  0  0  0  0  0
  -26.0596  -25.9411   19.0821 H   0  0  0  0  0  0
  -23.9758  -27.2560   19.0992 H   0  0  0  0  0  0
  -23.7188  -30.5869   19.4009 H   0  0  0  0  0  0
  -22.7371  -29.2281   19.8681 H   0  0  0  0  0  0
  -25.1268  -36.1951   25.0825 H   0  0  0  0  0  0
  -20.9926  -28.3236   24.1461 H   0  0  0  0  0  0
  -20.5677  -26.2256   23.3609 H   0  0  0  0  0  0
  -21.6609  -26.7478   22.1219 H   0  0  0  0  0  0
  -19.6931  -25.6325   21.1220 H   0  0  0  0  0  0
  -19.6702  -27.3236   20.6779 H   0  0  0  0  0  0
  -17.4183  -26.6694   21.4002 H   0  0  0  0  0  0
  -18.0303  -26.0075   22.9007 H   0  0  0  0  0  0
  -19.7910  -30.7241   24.2337 H   0  0  0  0  0  0
  -17.4996  -31.6291   24.5149 H   0  0  0  0  0  0
  -15.5333  -30.3008   23.7676 H   0  0  0  0  0  0
  -15.8611  -28.0853   22.7059 H   0  0  0  0  0  0
  -24.5975  -30.6852   25.7752 H   0  0  0  0  0  0
  -24.8835  -32.2670   26.4914 H   0  0  0  0  0  0
  -25.8117  -30.8735   27.0171 H   0  0  0  0  0  0
  -26.2836  -29.6710   24.1194 H   0  0  0  0  0  0
  -27.4202  -29.7277   25.4460 H   0  0  0  0  0  0
  -27.8599  -30.4336   23.9091 H   0  0  0  0  0  0
  -27.2726  -33.3593   26.2000 H   0  0  0  0  0  0
  -28.3872  -32.6761   25.0244 H   0  0  0  0  0  0
  -28.0714  -31.8369   26.5344 H   0  0  0  0  0  0
  -28.2555  -38.0127   24.7511 H   0  0  0  0  0  0
  -28.1111  -36.2663   24.6268 H   0  0  0  0  0  0
  -27.2288  -37.1411   25.8849 H   0  0  0  0  0  0
  -20.9280  -29.8737   21.6950 H   0  0  0  0  0  0
  -26.0169  -38.2857   24.1446 H   0  0  0  0  0  0
  -30.6852  -22.7129   19.2356 H   0  0  0  0  0  0
  -30.9728  -20.3554   19.8977 H   0  0  0  0  0  0
  -24.2498  -22.4807   20.9360 H   0  0  0  0  0  0
  -25.1373  -20.9866   21.2117 H   0  0  0  0  0  0
  -25.2514  -21.7996   19.6524 H   0  0  0  0  0  0
  -27.5846  -24.3603   18.9993 H   0  0  0  0  0  0
  -29.2976  -24.5520   18.8828 H   0  0  0  0  0  0
  -28.2316  -18.2382   20.8686 H   0  0  0  0  0  0
  -28.9202  -18.7381   22.3899 H   0  0  0  0  0  0
  -26.2675  -23.7912   20.8645 H   0  0  0  0  0  0
  -26.3403  -22.8611   22.3292 H   0  0  0  0  0  0
  -31.2223  -18.5949   21.2483 H   0  0  0  0  0  0
  -30.4619  -17.7692   19.9205 H   0  0  0  0  0  0
  -30.1448  -16.7897   22.8159 H   0  0  0  0  0  0
  -31.6439  -16.5148   21.9977 H   0  0  0  0  0  0
  -29.4372  -25.4087   21.2108 H   0  0  0  0  0  0
  -27.7142  -25.3358   21.4088 H   0  0  0  0  0  0
  -29.0794  -15.1702   21.5327 H   0  0  0  0  0  0
  1 25  1  0  0  0
  1 30  2  0  0  0
  1 84  1  0  0  0
  2  3  1  0  0  0
  2 25  1  0  0  0
  2 85  1  0  0  0
  2 86  1  0  0  0
  3  4  1  0  0  0
  3 87  1  0  0  0
  3 88  1  0  0  0
  4  5  1  0  0  0
  4 89  1  0  0  0
  4 90  1  0  0  0
  5  6  1  0  0  0
  5 26  1  0  0  0
  5 91  1  0  0  0
  6 25  1  0  0  0
  6 92  1  0  0  0
  6 93  1  0  0  0
  7  8  2  0  0  0
  7 26  1  0  0  0
  7 29  1  0  0  0
  8  9  1  0  0  0
  8 22  1  0  0  0
  9 10  1  0  0  0
  9 27  2  0  0  0
 10 11  2  0  0  0
 10 15  1  0  0  0
 11 12  1  0  0  0
 11 94  1  0  0  0
 12 13  2  0  0  0
 12 95  1  0  0  0
 13 14  1  0  0  0
 13 31  1  0  0  0
 14 15  2  0  0  0
 14 96  1  0  0  0
 15 97  1  0  0  0
 16 17  2  0  0  0
 16 21  1  0  0  0
 16 31  1  0  0  0
 17 18  1  0  0  0
 17 98  1  0  0  0
 18 19  2  0  0  0
 18 99  1  0  0  0
 19 20  1  0  0  0
 19 24  1  0  0  0
 20 21  2  0  0  0
 20100  1  0  0  0
 21 23  1  0  0  0
 22 28  1  0  0  0
 22 32  2  0  0  0
 26 27  1  0  0  0
 28101  1  0  0  0
 28102  1  0  0  0
 29103  1  0  0  0
 29104  1  0  0  0
 33 34  1  0  0  0
 33 66  1  0  0  0
 33 70  2  0  0  0
 34 36  1  0  0  0
 34 59  1  0  0  0
 34105  1  0  0  0
 35 44  2  0  0  0
 35 45  1  0  0  0
 35 68  1  0  0  0
 36 56  1  0  0  0
 36106  1  0  0  0
 37 39  1  0  0  0
 37 47  1  0  0  0
 37 66  1  0  0  0
 37107  1  0  0  0
 38 43  2  0  0  0
 38 46  1  0  0  0
 38 47  1  0  0  0
 39 64  1  0  0  0
 39 67  2  0  0  0
 40 52  1  0  0  0
 40 53  2  0  0  0
 40 58  1  0  0  0
 41108  1  0  0  0
 41109  1  0  0  0
 41110  1  0  0  0
 41 48  1  0  0  0
 42 43  1  0  0  0
 42 66  1  0  0  0
 42111  1  0  0  0
 42112  1  0  0  0
 43 44  1  0  0  0
 44113  1  0  0  0
 45 46  2  0  0  0
 45114  1  0  0  0
 46115  1  0  0  0
 47116  1  0  0  0
 47117  1  0  0  0
 48 56  1  0  0  0
 48 65  1  0  0  0
 48118  1  0  0  0
 49 50  1  0  0  0
 49 53  1  0  0  0
 49 64  1  0  0  0
 49119  1  0  0  0
 50 51  1  0  0  0
 50120  1  0  0  0
 50121  1  0  0  0
 51 52  1  0  0  0
 51122  1  0  0  0
 51123  1  0  0  0
 52124  1  0  0  0
 52125  1  0  0  0
 53 54  1  0  0  0
 54 55  2  0  0  0
 54126  1  0  0  0
 55 57  1  0  0  0
 55127  1  0  0  0
 56 69  2  0  0  0
 57 58  2  0  0  0
 57128  1  0  0  0
 58129  1  0  0  0
 59 60  1  0  0  0
 59 61  1  0  0  0
 59 62  1  0  0  0
 60130  1  0  0  0
 60131  1  0  0  0
 60132  1  0  0  0
 61133  1  0  0  0
 61134  1  0  0  0
 61135  1  0  0  0
 62136  1  0  0  0
 62137  1  0  0  0
 62138  1  0  0  0
 63 65  1  0  0  0
 63139  1  0  0  0
 63140  1  0  0  0
 63141  1  0  0  0
 64142  1  0  0  0
 65143  1  0  0  0
 68 82  1  0  0  0
 71 72  2  0  0  0
 71 73  1  0  0  0
 71144  1  0  0  0
 72 74  1  0  0  0
 72145  1  0  0  0
 73 75  2  0  0  0
 73 77  1  0  0  0
 74 78  1  0  0  0
 74 83  2  0  0  0
 75 79  1  0  0  0
 75 83  1  0  0  0
 76 79  1  0  0  0
 76146  1  0  0  0
 76147  1  0  0  0
 76148  1  0  0  0
 77 82  1  0  0  0
 77149  1  0  0  0
 77150  1  0  0  0
 78 80  1  0  0  0
 78151  1  0  0  0
 78152  1  0  0  0
 79153  1  0  0  0
 79154  1  0  0  0
 80 81  1  0  0  0
 80155  1  0  0  0
 80156  1  0  0  0
 81 84  1  0  0  0
 81157  1  0  0  0
 81158  1  0  0  0
 82159  1  0  0  0
 82160  1  0  0  0
 84161  1  0  0  0
M  ISO  4   1 100  68 101  82 101  84 100
M  END
> <chiral flag>
0

> <version>
0

> <s_m_source_file>
/data/baiqing/PycharmProjects/Reinvent-master-3.2/result/LINK_invent/BTK/process_docking_weight1_custom_sum_contain_oxygen_bond_distance_aromatic_linkinvent_7_9_3/rearranged_h_0045.sdf

> <i_m_source_file_index>
41

> <r_mmod_Potential_Energy-OPLS-2005>
-249.162246704102

> <r_mmod_Stretch_Energy-OPLS-2005>
37.8518600463867

> <r_mmod_Bend_Energy-OPLS-2005>
106.284622192383

> <r_mmod_Torsional_Energy-OPLS-2005>
217.505523681641

> <r_mmod_Improper_Torsional_Energy-OPLS-2005>
2.63573312759399

> <r_mmod_Van_der_Waal_Energy-OPLS-2005>
150.807708740234

> <r_mmod_Electrostatic_Energy-OPLS-2005>
-560.253967285156

> <r_mmod_Solvation_Energy-OPLS-2005>
-215.267990112305

> <b_mmod_Minimization_Converged-OPLS-2005>
0

> <r_mmod_RMS_Derivative-OPLS-2005>
4.14241552352905

$$$$
41
                    3D
 Structure written by MMmdl.
165173  0  0  1  0            999 V2000
  -29.9312  -15.6515   20.1964 C   0  0  0  0  0  0
  -30.3727  -12.9515   19.6085 C   0  0  0  0  0  0
  -29.5538  -12.5972   18.3347 C   0  0  0  0  0  0
  -28.1109  -12.2180   18.7352 C   0  0  0  0  0  0
  -27.5687  -13.1951   19.7993 C   0  0  2  0  0  0
  -28.5808  -13.4911   20.9399 C   0  0  0  0  0  0
  -25.2302  -13.7952   20.5830 C   0  0  0  0  0  0
  -24.1610  -13.0264   20.9283 C   0  0  0  0  0  0
  -24.6196  -11.6734   20.8778 C   0  0  0  0  0  0
  -23.8929  -10.4177   21.0442 C   0  0  0  0  0  0
  -24.3540   -9.4120   21.9203 C   0  0  0  0  0  0
  -23.6240   -8.2160   22.0755 C   0  0  0  0  0  0
  -22.4225   -8.0213   21.3542 C   0  0  0  0  0  0
  -21.9832   -9.0166   20.4644 C   0  0  0  0  0  0
  -22.7131  -10.2046   20.3060 C   0  0  0  0  0  0
  -21.6822   -6.0708   22.5285 C   0  0  0  0  0  0
  -21.3995   -6.5631   23.8213 C   0  0  0  0  0  0
  -21.3641   -5.6784   24.9176 C   0  0  0  0  0  0
  -21.6038   -4.3046   24.7225 C   0  0  0  0  0  0
  -21.8830   -3.8140   23.4347 C   0  0  0  0  0  0
  -21.9187   -4.6951   22.3406 C   0  0  0  0  0  0
  -22.7672  -13.5122   21.1941 C   0  0  0  0  0  0
  -22.1663   -4.2148   21.0978 F   0  0  0  0  0  0
  -21.5621   -3.4531   25.7734 F   0  0  0  0  0  0
  -29.7538  -14.1568   20.3057 N   0  0  0  0  0  0
  -26.2534  -12.9024   20.3100 N   0  0  0  0  0  0
  -25.9061  -11.6242   20.5650 N   0  0  0  0  0  0
  -22.0321  -12.8139   22.0493 N   0  0  0  0  0  0
  -25.3990  -15.1718   20.4565 N   0  0  0  0  0  0
  -31.7943  -16.9711   20.1779 O   0  0  0  0  0  0
  -21.6594   -6.8822   21.4234 O   0  0  0  0  0  0
  -22.3417  -14.5461   20.6781 O   0  0  0  0  0  0
  -24.6931  -31.7888   23.1413 C   0  0  0  0  0  0
  -25.9457  -32.4419   23.8018 C   0  0  1  0  0  0
  -27.2801  -26.6197   20.2355 C   0  0  0  0  0  0
  -25.5984  -33.8243   24.1905 N   0  0  0  0  0  0
  -23.5278  -30.3806   21.4965 C   0  0  2  0  0  0
  -24.9974  -28.6972   20.1286 C   0  0  0  0  0  0
  -22.7818  -29.4250   22.4680 C   0  0  0  0  0  0
  -18.0338  -28.1430   22.8441 C   0  0  0  0  0  0
  -24.1489  -36.7133   23.2657 C   0  0  0  0  0  0
  -26.1119  -30.4955   21.4192 C   0  0  0  0  0  0
  -26.1867  -29.0481   20.7780 C   0  0  0  0  0  0
  -27.3046  -28.0421   20.7914 C   0  0  0  0  0  0
  -26.0439  -26.4950   19.5367 C   0  0  0  0  0  0
  -24.9702  -27.4458   19.4839 C   0  0  0  0  0  0
  -23.7923  -29.6590   20.1404 C   0  0  0  0  0  0
  -25.4140  -36.2869   24.0282 C   0  0  1  0  0  0
  -20.5983  -28.3800   23.1115 C   0  0  2  0  0  0
  -20.6803  -26.9449   22.5401 C   0  0  0  0  0  0
  -19.5784  -26.6368   21.5210 C   0  0  0  0  0  0
  -18.1965  -26.7948   22.1612 C   0  0  0  0  0  0
  -19.1613  -28.8939   23.2753 C   0  0  0  0  0  0
  -18.9513  -30.1518   23.8812 C   0  0  0  0  0  0
  -17.6509  -30.6609   24.0545 C   0  0  0  0  0  0
  -25.9128  -34.9262   23.4935 C   0  0  0  0  0  0
  -16.5393  -29.9094   23.6353 C   0  0  0  0  0  0
  -16.7322  -28.6513   23.0367 C   0  0  0  0  0  0
  -26.4604  -31.6484   25.0677 C   0  0  0  0  0  0
  -25.3648  -31.3816   26.1275 C   0  0  0  0  0  0
  -27.0567  -30.2819   24.6637 C   0  0  0  0  0  0
  -27.6030  -32.4369   25.7507 C   0  0  0  0  0  0
  -27.5555  -37.1724   24.8468 C   0  0  0  0  0  0
  -21.4456  -29.3026   22.3429 N   0  0  0  0  0  0
  -26.4262  -37.3638   23.9411 N   0  0  0  0  0  0
  -24.8012  -30.9240   22.0718 N   0  0  0  0  0  0
  -23.4207  -28.7863   23.3079 O   0  0  0  0  0  0
  -28.2855  -25.3947   20.2850 O   0  0  0  0  0  0
  -26.5785  -34.8856   22.4573 O   0  0  0  0  0  0
  -23.5925  -32.0991   23.6299 O   0  0  0  0  0  0
  -30.7550  -16.9361   21.9593 C   0  0  0  0  0  0
  -30.0272  -18.1402   20.2984 C   0  0  0  0  0  0
  -30.5074  -17.2679   18.5781 C   0  0  0  0  0  0
  -33.3755  -13.5421   18.1583 C   0  0  0  0  0  0
  -33.7766  -15.9317   17.5532 C   0  0  0  0  0  0
  -29.1207  -19.8827   20.4170 C   0  0  0  0  0  0
  -29.8462  -17.5173   17.2973 C   0  0  0  0  0  0
  -29.2674  -21.8728   20.2502 C   0  0  0  0  0  0
  -28.5365  -16.7204   17.3974 C   0  0  0  0  0  0
  -27.9022  -16.7160   18.8248 C   0  0  0  0  0  0
  -28.2078  -23.5820   20.3018 C   0  0  0  0  0  0
  -32.6878  -14.8842   17.8335 C   0  0  0  0  0  0
  -31.9527  -15.2024   21.1730 N   0  0  0  0  0  0
  -31.7696  -15.4370   18.8450 N   0  0  0  0  0  0
  -28.6093  -15.9283   19.8809 N   0  0  0  0  0  0
  -31.4146  -13.1034   19.4487 H   0  0  0  0  0  0
  -30.4066  -12.0746   20.2572 H   0  0  0  0  0  0
  -30.0243  -11.7755   17.7931 H   0  0  0  0  0  0
  -29.5403  -13.4508   17.6566 H   0  0  0  0  0  0
  -28.1212  -11.2067   19.1441 H   0  0  0  0  0  0
  -27.4604  -12.1913   17.8596 H   0  0  0  0  0  0
  -27.3879  -14.0579   19.1742 H   0  0  0  0  0  0
  -28.8239  -12.5936   21.5112 H   0  0  0  0  0  0
  -28.1365  -14.1590   21.6812 H   0  0  0  0  0  0
  -25.2692   -9.5621   22.4762 H   0  0  0  0  0  0
  -23.9962   -7.4551   22.7471 H   0  0  0  0  0  0
  -21.0764   -8.8671   19.8955 H   0  0  0  0  0  0
  -22.3603  -10.9589   19.6174 H   0  0  0  0  0  0
  -21.1992   -7.6142   23.9711 H   0  0  0  0  0  0
  -21.1447   -6.0516   25.9073 H   0  0  0  0  0  0
  -22.0635   -2.7608   23.2841 H   0  0  0  0  0  0
  -22.3915  -11.9769   22.4836 H   0  0  0  0  0  0
  -21.0956  -13.1199   22.2753 H   0  0  0  0  0  0
  -24.6242  -15.8068   20.6114 H   0  0  0  0  0  0
  -26.2447  -15.6553   20.1911 H   0  0  0  0  0  0
  -26.7559  -32.4889   23.0752 H   0  0  0  0  0  0
  -25.0025  -33.9261   24.9983 H   0  0  0  0  0  0
  -22.8590  -31.2193   21.2914 H   0  0  0  0  0  0
  -23.3772  -35.9441   23.3261 H   0  0  0  0  0  0
  -24.3554  -36.8857   22.2083 H   0  0  0  0  0  0
  -23.7226  -37.6284   23.6776 H   0  0  0  0  0  0
  -26.3165  -31.2100   20.6208 H   0  0  0  0  0  0
  -26.9607  -30.5772   22.0855 H   0  0  0  0  0  0
  -28.1989  -28.3298   21.3253 H   0  0  0  0  0  0
  -25.8706  -25.5532   19.0362 H   0  0  0  0  0  0
  -24.0759  -27.1630   18.9452 H   0  0  0  0  0  0
  -23.9738  -30.4105   19.3715 H   0  0  0  0  0  0
  -22.8981  -29.1244   19.8144 H   0  0  0  0  0  0
  -25.1352  -36.1623   25.0771 H   0  0  0  0  0  0
  -21.0054  -28.3430   24.1245 H   0  0  0  0  0  0
  -20.5648  -26.2428   23.3672 H   0  0  0  0  0  0
  -21.6663  -26.7370   22.1229 H   0  0  0  0  0  0
  -19.6943  -25.6254   21.1296 H   0  0  0  0  0  0
  -19.6726  -27.3128   20.6699 H   0  0  0  0  0  0
  -17.4229  -26.6673   21.4022 H   0  0  0  0  0  0
  -18.0367  -26.0117   22.9037 H   0  0  0  0  0  0
  -19.7996  -30.7346   24.2147 H   0  0  0  0  0  0
  -17.5063  -31.6278   24.5169 H   0  0  0  0  0  0
  -15.5396  -30.2973   23.7727 H   0  0  0  0  0  0
  -15.8712  -28.0807   22.7140 H   0  0  0  0  0  0
  -24.5853  -30.7153   25.7563 H   0  0  0  0  0  0
  -24.8819  -32.3044   26.4500 H   0  0  0  0  0  0
  -25.7804  -30.9099   27.0189 H   0  0  0  0  0  0
  -26.3316  -29.6397   24.1630 H   0  0  0  0  0  0
  -27.3971  -29.7304   25.5413 H   0  0  0  0  0  0
  -27.9295  -30.3936   24.0203 H   0  0  0  0  0  0
  -27.2553  -33.3750   26.1845 H   0  0  0  0  0  0
  -28.3963  -32.6802   25.0427 H   0  0  0  0  0  0
  -28.0564  -31.8661   26.5620 H   0  0  0  0  0  0
  -28.2537  -38.0051   24.7516 H   0  0  0  0  0  0
  -28.1086  -36.2572   24.6297 H   0  0  0  0  0  0
  -27.2271  -37.1361   25.8871 H   0  0  0  0  0  0
  -20.9796  -29.8674   21.6465 H   0  0  0  0  0  0
  -26.0082  -38.2684   24.1426 H   0  0  0  0  0  0
  -30.6853  -17.1102   23.0229 H   0  0  0  0  0  0
  -34.2688  -13.3998   17.5493 H   0  0  0  0  0  0
  -32.7391  -12.6906   17.9183 H   0  0  0  0  0  0
  -33.6846  -13.4824   19.2025 H   0  0  0  0  0  0
  -34.4322  -15.6163   16.7409 H   0  0  0  0  0  0
  -34.3987  -16.0972   18.4347 H   0  0  0  0  0  0
  -33.3446  -16.8921   17.2711 H   0  0  0  0  0  0
  -28.2652  -19.7494   19.7581 H   0  0  0  0  0  0
  -28.6567  -19.8312   21.4036 H   0  0  0  0  0  0
  -30.4590  -17.1882   16.4565 H   0  0  0  0  0  0
  -29.6465  -18.5821   17.1758 H   0  0  0  0  0  0
  -29.7642  -21.9681   19.2856 H   0  0  0  0  0  0
  -30.0615  -22.0886   20.9646 H   0  0  0  0  0  0
  -28.7302  -15.6872   17.1075 H   0  0  0  0  0  0
  -27.8227  -17.0983   16.6650 H   0  0  0  0  0  0
  -26.9183  -16.2731   18.6970 H   0  0  0  0  0  0
  -27.6905  -17.7257   19.1669 H   0  0  0  0  0  0
  -27.6383  -23.4478   21.2217 H   0  0  0  0  0  0
  -27.4652  -23.4079   19.5237 H   0  0  0  0  0  0
  -32.1047  -14.7624   16.9185 H   0  0  0  0  0  0
  -28.0643  -15.1378   20.1878 H   0  0  0  0  0  0
  1 25  1  0  0  0
  1 30  2  0  0  0
  1 85  1  0  0  0
  2  3  1  0  0  0
  2 25  1  0  0  0
  2 86  1  0  0  0
  2 87  1  0  0  0
  3  4  1  0  0  0
  3 88  1  0  0  0
  3 89  1  0  0  0
  4  5  1  0  0  0
  4 90  1  0  0  0
  4 91  1  0  0  0
  5  6  1  0  0  0
  5 26  1  0  0  0
  5 92  1  0  0  0
  6 25  1  0  0  0
  6 93  1  0  0  0
  6 94  1  0  0  0
  7  8  2  0  0  0
  7 26  1  0  0  0
  7 29  1  0  0  0
  8  9  1  0  0  0
  8 22  1  0  0  0
  9 10  1  0  0  0
  9 27  2  0  0  0
 10 11  2  0  0  0
 10 15  1  0  0  0
 11 12  1  0  0  0
 11 95  1  0  0  0
 12 13  2  0  0  0
 12 96  1  0  0  0
 13 14  1  0  0  0
 13 31  1  0  0  0
 14 15  2  0  0  0
 14 97  1  0  0  0
 15 98  1  0  0  0
 16 17  2  0  0  0
 16 21  1  0  0  0
 16 31  1  0  0  0
 17 18  1  0  0  0
 17 99  1  0  0  0
 18 19  2  0  0  0
 18100  1  0  0  0
 19 20  1  0  0  0
 19 24  1  0  0  0
 20 21  2  0  0  0
 20101  1  0  0  0
 21 23  1  0  0  0
 22 28  1  0  0  0
 22 32  2  0  0  0
 26 27  1  0  0  0
 28102  1  0  0  0
 28103  1  0  0  0
 29104  1  0  0  0
 29105  1  0  0  0
 33 34  1  0  0  0
 33 66  1  0  0  0
 33 70  2  0  0  0
 34 36  1  0  0  0
 34 59  1  0  0  0
 34106  1  0  0  0
 35 44  2  0  0  0
 35 45  1  0  0  0
 35 68  1  0  0  0
 36 56  1  0  0  0
 36107  1  0  0  0
 37 39  1  0  0  0
 37 47  1  0  0  0
 37 66  1  0  0  0
 37108  1  0  0  0
 38 43  2  0  0  0
 38 46  1  0  0  0
 38 47  1  0  0  0
 39 64  1  0  0  0
 39 67  2  0  0  0
 40 52  1  0  0  0
 40 53  2  0  0  0
 40 58  1  0  0  0
 41109  1  0  0  0
 41110  1  0  0  0
 41111  1  0  0  0
 41 48  1  0  0  0
 42 43  1  0  0  0
 42 66  1  0  0  0
 42112  1  0  0  0
 42113  1  0  0  0
 43 44  1  0  0  0
 44114  1  0  0  0
 45 46  2  0  0  0
 45115  1  0  0  0
 46116  1  0  0  0
 47117  1  0  0  0
 47118  1  0  0  0
 48 56  1  0  0  0
 48 65  1  0  0  0
 48119  1  0  0  0
 49 50  1  0  0  0
 49 53  1  0  0  0
 49 64  1  0  0  0
 49120  1  0  0  0
 50 51  1  0  0  0
 50121  1  0  0  0
 50122  1  0  0  0
 51 52  1  0  0  0
 51123  1  0  0  0
 51124  1  0  0  0
 52125  1  0  0  0
 52126  1  0  0  0
 53 54  1  0  0  0
 54 55  2  0  0  0
 54127  1  0  0  0
 55 57  1  0  0  0
 55128  1  0  0  0
 56 69  2  0  0  0
 57 58  2  0  0  0
 57129  1  0  0  0
 58130  1  0  0  0
 59 60  1  0  0  0
 59 61  1  0  0  0
 59 62  1  0  0  0
 60131  1  0  0  0
 60132  1  0  0  0
 60133  1  0  0  0
 61134  1  0  0  0
 61135  1  0  0  0
 61136  1  0  0  0
 62137  1  0  0  0
 62138  1  0  0  0
 62139  1  0  0  0
 63 65  1  0  0  0
 63140  1  0  0  0
 63141  1  0  0  0
 63142  1  0  0  0
 64143  1  0  0  0
 65144  1  0  0  0
 68 81  1  0  0  0
 71 72  1  0  0  0
 71 83  2  0  0  0
 71145  1  0  0  0
 72 73  2  0  0  0
 72 76  1  0  0  0
 73 77  1  0  0  0
 73 84  1  0  0  0
 74146  1  0  0  0
 74147  1  0  0  0
 74148  1  0  0  0
 74 82  1  0  0  0
 75 82  1  0  0  0
 75149  1  0  0  0
 75150  1  0  0  0
 75151  1  0  0  0
 76 78  1  0  0  0
 76152  1  0  0  0
 76153  1  0  0  0
 77 79  1  0  0  0
 77154  1  0  0  0
 77155  1  0  0  0
 78 81  1  0  0  0
 78156  1  0  0  0
 78157  1  0  0  0
 79 80  1  0  0  0
 79158  1  0  0  0
 79159  1  0  0  0
 80 85  1  0  0  0
 80160  1  0  0  0
 80161  1  0  0  0
 81162  1  0  0  0
 81163  1  0  0  0
 82 84  1  0  0  0
 82164  1  0  0  0
 83 84  1  0  0  0
 85165  1  0  0  0
M  ISO  4   1 100  68 101  81 101  85 100
M  END
> <chiral flag>
0

> <version>
0

> <s_m_source_file>
/data/baiqing/PycharmProjects/Reinvent-master-3.2/result/LINK_invent/BTK/process_docking_weight1_custom_sum_contain_oxygen_bond_distance_aromatic_linkinvent_7_9_3/rearranged_h_0045.sdf

> <i_m_source_file_index>
42

> <r_mmod_Potential_Energy-OPLS-2005>
15850.1435546875

> <r_mmod_Stretch_Energy-OPLS-2005>
10388.8447265625

> <r_mmod_Bend_Energy-OPLS-2005>
694.954467773438

> <r_mmod_Torsional_Energy-OPLS-2005>
314.093322753906

> <r_mmod_Improper_Torsional_Energy-OPLS-2005>
13.8888988494873

> <r_mmod_Van_der_Waal_Energy-OPLS-2005>
3605.71020507812

> <r_mmod_Electrostatic_Energy-OPLS-2005>
-317.218322753906

> <r_mmod_Solvation_Energy-OPLS-2005>
-269.708221435547

> <b_mmod_Minimization_Converged-OPLS-2005>
0

> <r_mmod_RMS_Derivative-OPLS-2005>
4.06214761734009

$$$$
42
                    3D
 Structure written by MMmdl.
163171  0  0  1  0            999 V2000
  -30.6758  -14.5271   20.5327 C   0  0  0  0  0  0
  -30.4246  -12.3310   19.4345 C   0  0  0  0  0  0
  -29.4989  -12.4964   18.2111 C   0  0  0  0  0  0
  -28.0192  -12.3588   18.6222 C   0  0  0  0  0  0
  -27.6562  -13.2129   19.8671 C   0  0  2  0  0  0
  -28.6988  -13.0295   20.9928 C   0  0  0  0  0  0
  -25.2567  -13.8174   20.5694 C   0  0  0  0  0  0
  -24.1830  -13.0445   20.9203 C   0  0  0  0  0  0
  -24.6395  -11.6914   20.8747 C   0  0  0  0  0  0
  -23.9058  -10.4296   21.0405 C   0  0  0  0  0  0
  -24.3607   -9.4209   21.9181 C   0  0  0  0  0  0
  -23.6287   -8.2244   22.0749 C   0  0  0  0  0  0
  -22.4270   -8.0282   21.3543 C   0  0  0  0  0  0
  -21.9902   -9.0253   20.4645 C   0  0  0  0  0  0
  -22.7230  -10.2135   20.3054 C   0  0  0  0  0  0
  -21.6853   -6.0733   22.5282 C   0  0  0  0  0  0
  -21.4016   -6.5633   23.8216 C   0  0  0  0  0  0
  -21.3658   -5.6782   24.9176 C   0  0  0  0  0  0
  -21.6044   -4.3049   24.7226 C   0  0  0  0  0  0
  -21.8819   -3.8143   23.4345 C   0  0  0  0  0  0
  -21.9195   -4.6959   22.3405 C   0  0  0  0  0  0
  -22.7849  -13.5237   21.1850 C   0  0  0  0  0  0
  -22.1663   -4.2146   21.0984 F   0  0  0  0  0  0
  -21.5620   -3.4532   25.7737 F   0  0  0  0  0  0
  -30.0217  -13.3365   20.4314 N   0  0  0  0  0  0
  -26.2996  -12.9353   20.3330 N   0  0  0  0  0  0
  -25.9321  -11.6511   20.5759 N   0  0  0  0  0  0
  -22.0475  -12.8245   22.0411 N   0  0  0  0  0  0
  -25.4272  -15.1893   20.4101 N   0  0  0  0  0  0
  -31.8298  -14.6831   20.1265 O   0  0  0  0  0  0
  -21.6636   -6.8879   21.4246 O   0  0  0  0  0  0
  -22.3547  -14.5545   20.6690 O   0  0  0  0  0  0
  -24.6179  -31.8651   23.2073 C   0  0  0  0  0  0
  -25.9063  -32.4807   23.8371 C   0  0  1  0  0  0
  -27.2272  -27.3960   20.1018 C   0  0  0  0  0  0
  -25.5912  -33.8605   24.2305 N   0  0  0  0  0  0
  -23.4070  -30.4901   21.5486 C   0  0  2  0  0  0
  -24.8516  -28.9532   20.1087 C   0  0  0  0  0  0
  -22.7433  -29.4651   22.4971 C   0  0  0  0  0  0
  -18.0289  -28.1364   22.8498 C   0  0  0  0  0  0
  -24.1488  -36.7306   23.2638 C   0  0  0  0  0  0
  -25.9388  -30.8204   21.3643 C   0  0  0  0  0  0
  -26.0135  -29.4539   20.7073 C   0  0  0  0  0  0
  -27.2029  -28.6844   20.6961 C   0  0  0  0  0  0
  -26.0457  -26.9254   19.4840 C   0  0  0  0  0  0
  -24.8649  -27.6915   19.4918 C   0  0  0  0  0  0
  -23.6154  -29.8233   20.1620 C   0  0  0  0  0  0
  -25.4110  -36.3099   24.0333 C   0  0  1  0  0  0
  -20.5878  -28.3667   23.1298 C   0  0  2  0  0  0
  -20.6794  -26.9404   22.5387 C   0  0  0  0  0  0
  -19.5742  -26.6354   21.5221 C   0  0  0  0  0  0
  -18.1942  -26.7889   22.1677 C   0  0  0  0  0  0
  -19.1535  -28.8836   23.2885 C   0  0  0  0  0  0
  -18.9460  -30.1452   23.8875 C   0  0  0  0  0  0
  -17.6460  -30.6584   24.0533 C   0  0  0  0  0  0
  -25.9040  -34.9466   23.5114 C   0  0  0  0  0  0
  -16.5353  -29.9072   23.6313 C   0  0  0  0  0  0
  -16.7277  -28.6481   23.0355 C   0  0  0  0  0  0
  -26.4482  -31.6594   25.0709 C   0  0  0  0  0  0
  -25.3747  -31.3708   26.1457 C   0  0  0  0  0  0
  -27.0318  -30.3034   24.6105 C   0  0  0  0  0  0
  -27.6039  -32.4329   25.7478 C   0  0  0  0  0  0
  -27.5580  -37.1807   24.8462 C   0  0  0  0  0  0
  -21.4154  -29.3044   22.3720 N   0  0  0  0  0  0
  -26.4292  -37.3787   23.9411 N   0  0  0  0  0  0
  -24.6731  -31.0730   22.0985 N   0  0  0  0  0  0
  -23.4193  -28.8192   23.3021 O   0  0  0  0  0  0
  -28.3912  -26.6414   20.1603 O   0  0  0  0  0  0
  -26.5601  -34.8925   22.4675 O   0  0  0  0  0  0
  -23.5363  -32.1415   23.7457 O   0  0  0  0  0  0
  -26.7336  -24.7473   21.9092 C   0  0  0  0  0  0
  -27.7959  -24.3318   21.0555 C   0  0  0  0  0  0
  -26.4676  -23.7726   22.8180 C   0  0  0  0  0  0
  -28.1293  -23.0382   21.4525 C   0  0  0  0  0  0
  -25.4457  -23.7501   23.9127 C   0  0  0  0  0  0
  -27.4454  -21.5405   23.4180 C   0  0  0  0  0  0
  -28.3823  -25.2034   19.9288 C   0  0  0  0  0  0
  -29.1666  -22.0371   20.9309 C   0  0  0  0  0  0
  -29.2345  -18.0817   20.8536 C   0  0  0  0  0  0
  -30.3734  -17.0063   20.8930 C   0  0  0  0  0  0
  -29.7541  -19.5647   20.8205 C   0  0  0  0  0  0
  -27.3568  -22.7367   22.5843 N   0  0  0  0  0  0
  -29.9293  -15.5890   20.9216 N   0  0  0  0  0  0
  -28.6910  -20.6225   20.7963 N   0  3  0  0  0  0
  -31.4684  -12.4367   19.1339 H   0  0  0  0  0  0
  -30.3337  -11.3284   19.8545 H   0  0  0  0  0  0
  -29.7446  -11.7522   17.4523 H   0  0  0  0  0  0
  -29.6657  -13.4709   17.7489 H   0  0  0  0  0  0
  -27.8348  -11.3045   18.8312 H   0  0  0  0  0  0
  -27.3698  -12.6185   17.7851 H   0  0  0  0  0  0
  -27.6884  -14.2550   19.5483 H   0  0  0  0  0  0
  -28.6849  -12.0035   21.3635 H   0  0  0  0  0  0
  -28.4624  -13.6598   21.8514 H   0  0  0  0  0  0
  -25.2750   -9.5682   22.4755 H   0  0  0  0  0  0
  -23.9991   -7.4632   22.7466 H   0  0  0  0  0  0
  -21.0829   -8.8779   19.8955 H   0  0  0  0  0  0
  -22.3691  -10.9669   19.6161 H   0  0  0  0  0  0
  -21.2016   -7.6141   23.9721 H   0  0  0  0  0  0
  -21.1475   -6.0512   25.9077 H   0  0  0  0  0  0
  -22.0600   -2.7606   23.2851 H   0  0  0  0  0  0
  -22.4075  -11.9917   22.4829 H   0  0  0  0  0  0
  -21.1087  -13.1273   22.2577 H   0  0  0  0  0  0
  -24.6554  -15.8383   20.5160 H   0  0  0  0  0  0
  -26.2687  -15.6288   20.0602 H   0  0  0  0  0  0
  -26.7139  -32.5498   23.1132 H   0  0  0  0  0  0
  -25.0090  -33.9767   25.0470 H   0  0  0  0  0  0
  -22.6975  -31.3083   21.4095 H   0  0  0  0  0  0
  -23.3747  -35.9642   23.3303 H   0  0  0  0  0  0
  -24.3580  -36.8916   22.2051 H   0  0  0  0  0  0
  -23.7241  -37.6513   23.6652 H   0  0  0  0  0  0
  -26.0570  -31.5875   20.5976 H   0  0  0  0  0  0
  -26.8245  -30.8696   21.9865 H   0  0  0  0  0  0
  -28.0982  -29.0656   21.1673 H   0  0  0  0  0  0
  -26.0063  -25.9570   19.0092 H   0  0  0  0  0  0
  -23.9721  -27.3016   19.0230 H   0  0  0  0  0  0
  -23.7253  -30.5982   19.4019 H   0  0  0  0  0  0
  -22.7378  -29.2452   19.8664 H   0  0  0  0  0  0
  -25.1291  -36.1964   25.0827 H   0  0  0  0  0  0
  -20.9965  -28.3227   24.1419 H   0  0  0  0  0  0
  -20.5759  -26.2265   23.3574 H   0  0  0  0  0  0
  -21.6654  -26.7476   22.1137 H   0  0  0  0  0  0
  -19.6905  -25.6257   21.1267 H   0  0  0  0  0  0
  -19.6648  -27.3141   20.6731 H   0  0  0  0  0  0
  -17.4176  -26.6565   21.4131 H   0  0  0  0  0  0
  -18.0411  -26.0061   22.9124 H   0  0  0  0  0  0
  -19.7938  -30.7284   24.2215 H   0  0  0  0  0  0
  -17.5012  -31.6269   24.5122 H   0  0  0  0  0  0
  -15.5354  -30.2972   23.7626 H   0  0  0  0  0  0
  -15.8682  -28.0785   22.7083 H   0  0  0  0  0  0
  -24.5910  -30.7068   25.7796 H   0  0  0  0  0  0
  -24.8960  -32.2870   26.4915 H   0  0  0  0  0  0
  -25.8100  -30.8867   27.0206 H   0  0  0  0  0  0
  -26.2871  -29.6787   24.1162 H   0  0  0  0  0  0
  -27.4085  -29.7281   25.4572 H   0  0  0  0  0  0
  -27.8704  -30.4344   23.9260 H   0  0  0  0  0  0
  -27.2634  -33.3609   26.2079 H   0  0  0  0  0  0
  -28.3833  -32.6924   25.0303 H   0  0  0  0  0  0
  -28.0726  -31.8448   26.5377 H   0  0  0  0  0  0
  -28.2604  -38.0100   24.7513 H   0  0  0  0  0  0
  -28.1074  -36.2634   24.6289 H   0  0  0  0  0  0
  -27.2299  -37.1454   25.8865 H   0  0  0  0  0  0
  -20.9312  -29.8795   21.6968 H   0  0  0  0  0  0
  -26.0179  -38.2865   24.1414 H   0  0  0  0  0  0
  -26.2082  -25.6911   21.8786 H   0  0  0  0  0  0
  -24.8671  -22.8259   23.8985 H   0  0  0  0  0  0
  -24.7431  -24.5775   23.8071 H   0  0  0  0  0  0
  -25.9171  -23.8432   24.8912 H   0  0  0  0  0  0
  -27.0839  -21.7438   24.4259 H   0  0  0  0  0  0
  -28.4806  -21.2126   23.5159 H   0  0  0  0  0  0
  -26.8414  -20.7389   22.9930 H   0  0  0  0  0  0
  -27.9109  -24.9545   18.9788 H   0  0  0  0  0  0
  -29.4255  -24.9091   19.8090 H   0  0  0  0  0  0
  -30.0225  -22.0597   21.6073 H   0  0  0  0  0  0
  -29.5475  -22.3661   19.9638 H   0  0  0  0  0  0
  -28.5926  -17.9478   21.7249 H   0  0  0  0  0  0
  -28.6050  -17.9052   19.9807 H   0  0  0  0  0  0
  -31.0017  -17.1742   21.7690 H   0  0  0  0  0  0
  -31.0199  -17.1589   20.0264 H   0  0  0  0  0  0
  -30.4023  -19.7065   19.9537 H   0  0  0  0  0  0
  -30.3814  -19.7245   21.6986 H   0  0  0  0  0  0
  -28.9820  -15.3952   21.2100 H   0  0  0  0  0  0
  -28.1587  -20.5515   19.9443 H   0  0  0  0  0  0
  -28.0588  -20.4583   21.5605 H   0  0  0  0  0  0
  1 25  1  0  0  0
  1 30  2  0  0  0
  1 83  1  0  0  0
  2  3  1  0  0  0
  2 25  1  0  0  0
  2 85  1  0  0  0
  2 86  1  0  0  0
  3  4  1  0  0  0
  3 87  1  0  0  0
  3 88  1  0  0  0
  4  5  1  0  0  0
  4 89  1  0  0  0
  4 90  1  0  0  0
  5  6  1  0  0  0
  5 26  1  0  0  0
  5 91  1  0  0  0
  6 25  1  0  0  0
  6 92  1  0  0  0
  6 93  1  0  0  0
  7  8  2  0  0  0
  7 26  1  0  0  0
  7 29  1  0  0  0
  8  9  1  0  0  0
  8 22  1  0  0  0
  9 10  1  0  0  0
  9 27  2  0  0  0
 10 11  2  0  0  0
 10 15  1  0  0  0
 11 12  1  0  0  0
 11 94  1  0  0  0
 12 13  2  0  0  0
 12 95  1  0  0  0
 13 14  1  0  0  0
 13 31  1  0  0  0
 14 15  2  0  0  0
 14 96  1  0  0  0
 15 97  1  0  0  0
 16 17  2  0  0  0
 16 21  1  0  0  0
 16 31  1  0  0  0
 17 18  1  0  0  0
 17 98  1  0  0  0
 18 19  2  0  0  0
 18 99  1  0  0  0
 19 20  1  0  0  0
 19 24  1  0  0  0
 20 21  2  0  0  0
 20100  1  0  0  0
 21 23  1  0  0  0
 22 28  1  0  0  0
 22 32  2  0  0  0
 26 27  1  0  0  0
 28101  1  0  0  0
 28102  1  0  0  0
 29103  1  0  0  0
 29104  1  0  0  0
 33 34  1  0  0  0
 33 66  1  0  0  0
 33 70  2  0  0  0
 34 36  1  0  0  0
 34 59  1  0  0  0
 34105  1  0  0  0
 35 44  2  0  0  0
 35 45  1  0  0  0
 35 68  1  0  0  0
 36 56  1  0  0  0
 36106  1  0  0  0
 37 39  1  0  0  0
 37 47  1  0  0  0
 37 66  1  0  0  0
 37107  1  0  0  0
 38 43  2  0  0  0
 38 46  1  0  0  0
 38 47  1  0  0  0
 39 64  1  0  0  0
 39 67  2  0  0  0
 40 52  1  0  0  0
 40 53  2  0  0  0
 40 58  1  0  0  0
 41108  1  0  0  0
 41109  1  0  0  0
 41110  1  0  0  0
 41 48  1  0  0  0
 42 43  1  0  0  0
 42 66  1  0  0  0
 42111  1  0  0  0
 42112  1  0  0  0
 43 44  1  0  0  0
 44113  1  0  0  0
 45 46  2  0  0  0
 45114  1  0  0  0
 46115  1  0  0  0
 47116  1  0  0  0
 47117  1  0  0  0
 48 56  1  0  0  0
 48 65  1  0  0  0
 48118  1  0  0  0
 49 50  1  0  0  0
 49 53  1  0  0  0
 49 64  1  0  0  0
 49119  1  0  0  0
 50 51  1  0  0  0
 50120  1  0  0  0
 50121  1  0  0  0
 51 52  1  0  0  0
 51122  1  0  0  0
 51123  1  0  0  0
 52124  1  0  0  0
 52125  1  0  0  0
 53 54  1  0  0  0
 54 55  2  0  0  0
 54126  1  0  0  0
 55 57  1  0  0  0
 55127  1  0  0  0
 56 69  2  0  0  0
 57 58  2  0  0  0
 57128  1  0  0  0
 58129  1  0  0  0
 59 60  1  0  0  0
 59 61  1  0  0  0
 59 62  1  0  0  0
 60130  1  0  0  0
 60131  1  0  0  0
 60132  1  0  0  0
 61133  1  0  0  0
 61134  1  0  0  0
 61135  1  0  0  0
 62136  1  0  0  0
 62137  1  0  0  0
 62138  1  0  0  0
 63 65  1  0  0  0
 63139  1  0  0  0
 63140  1  0  0  0
 63141  1  0  0  0
 64142  1  0  0  0
 65143  1  0  0  0
 68 77  1  0  0  0
 71 72  1  0  0  0
 71 73  2  0  0  0
 71144  1  0  0  0
 72 74  2  0  0  0
 72 77  1  0  0  0
 73 75  1  0  0  0
 73 82  1  0  0  0
 74 78  1  0  0  0
 74 82  1  0  0  0
 75145  1  0  0  0
 75146  1  0  0  0
 75147  1  0  0  0
 76 82  1  0  0  0
 76148  1  0  0  0
 76149  1  0  0  0
 76150  1  0  0  0
 77151  1  0  0  0
 77152  1  0  0  0
 78 84  1  0  0  0
 78153  1  0  0  0
 78154  1  0  0  0
 79 80  1  0  0  0
 79 81  1  0  0  0
 79155  1  0  0  0
 79156  1  0  0  0
 80 83  1  0  0  0
 80157  1  0  0  0
 80158  1  0  0  0
 81 84  1  0  0  0
 81159  1  0  0  0
 81160  1  0  0  0
 83161  1  0  0  0
 84162  1  0  0  0
 84163  1  0  0  0
M  CHG  1  84   1
M  ISO  4   1 100  68 101  77 101  83 100
M  END
> <chiral flag>
0

> <version>
0

> <s_m_source_file>
/data/baiqing/PycharmProjects/Reinvent-master-3.2/result/LINK_invent/BTK/process_docking_weight1_custom_sum_contain_oxygen_bond_distance_aromatic_linkinvent_7_9_3/rearranged_h_0045.sdf

> <i_m_source_file_index>
43

> <r_mmod_Potential_Energy-OPLS-2005>
-251.146697998047

> <r_mmod_Stretch_Energy-OPLS-2005>
50.1530075073242

> <r_mmod_Bend_Energy-OPLS-2005>
111.499198913574

> <r_mmod_Torsional_Energy-OPLS-2005>
198.098785400391

> <r_mmod_Improper_Torsional_Energy-OPLS-2005>
4.45673179626465

> <r_mmod_Van_der_Waal_Energy-OPLS-2005>
125.822219848633

> <r_mmod_Electrostatic_Energy-OPLS-2005>
-273.781677246094

> <r_mmod_Solvation_Energy-OPLS-2005>
-489.147277832031

> <b_mmod_Minimization_Converged-OPLS-2005>
0

> <r_mmod_RMS_Derivative-OPLS-2005>
1.23658740520477

$$$$
43
                    3D
 Structure written by MMmdl.
159167  0  0  1  0            999 V2000
  -30.6315  -14.7501   20.4421 C   0  0  0  0  0  0
  -30.4315  -12.4572   19.4718 C   0  0  0  0  0  0
  -29.5028  -12.4952   18.2391 C   0  0  0  0  0  0
  -28.0345  -12.3126   18.6632 C   0  0  0  0  0  0
  -27.6422  -13.2302   19.8520 C   0  0  2  0  0  0
  -28.6916  -13.1926   20.9853 C   0  0  0  0  0  0
  -25.2538  -13.8192   20.5722 C   0  0  0  0  0  0
  -24.1820  -13.0441   20.9207 C   0  0  0  0  0  0
  -24.6423  -11.6918   20.8779 C   0  0  0  0  0  0
  -23.9099  -10.4303   21.0444 C   0  0  0  0  0  0
  -24.3644   -9.4204   21.9223 C   0  0  0  0  0  0
  -23.6313   -8.2242   22.0767 C   0  0  0  0  0  0
  -22.4301   -8.0292   21.3557 C   0  0  0  0  0  0
  -21.9953   -9.0274   20.4648 C   0  0  0  0  0  0
  -22.7285  -10.2147   20.3074 C   0  0  0  0  0  0
  -21.6856   -6.0766   22.5296 C   0  0  0  0  0  0
  -21.4015   -6.5663   23.8235 C   0  0  0  0  0  0
  -21.3638   -5.6807   24.9182 C   0  0  0  0  0  0
  -21.6034   -4.3072   24.7227 C   0  0  0  0  0  0
  -21.8811   -3.8176   23.4340 C   0  0  0  0  0  0
  -21.9196   -4.6993   22.3405 C   0  0  0  0  0  0
  -22.7851  -13.5235   21.1860 C   0  0  0  0  0  0
  -22.1666   -4.2182   21.0981 F   0  0  0  0  0  0
  -21.5610   -3.4553   25.7735 F   0  0  0  0  0  0
  -29.9911  -13.5313   20.3918 N   0  0  0  0  0  0
  -26.2969  -12.9403   20.3346 N   0  0  0  0  0  0
  -25.9352  -11.6557   20.5811 N   0  0  0  0  0  0
  -22.0505  -12.8188   22.0399 N   0  0  0  0  0  0
  -25.4237  -15.1904   20.4121 N   0  0  0  0  0  0
  -31.8234  -14.8253   20.1348 O   0  0  0  0  0  0
  -21.6646   -6.8907   21.4260 O   0  0  0  0  0  0
  -22.3546  -14.5558   20.6743 O   0  0  0  0  0  0
  -24.6271  -31.8558   23.1902 C   0  0  0  0  0  0
  -25.9097  -32.4763   23.8272 C   0  0  1  0  0  0
  -27.2511  -27.2893   20.1093 C   0  0  0  0  0  0
  -25.5917  -33.8552   24.2209 N   0  0  0  0  0  0
  -23.4236  -30.4714   21.5343 C   0  0  2  0  0  0
  -24.8770  -28.9130   20.1022 C   0  0  0  0  0  0
  -22.7496  -29.4589   22.4912 C   0  0  0  0  0  0
  -18.0293  -28.1373   22.8493 C   0  0  0  0  0  0
  -24.1477  -36.7271   23.2647 C   0  0  0  0  0  0
  -25.9611  -30.7759   21.3592 C   0  0  0  0  0  0
  -26.0397  -29.3937   20.7140 C   0  0  0  0  0  0
  -27.2212  -28.5878   20.7166 C   0  0  0  0  0  0
  -26.0675  -26.8663   19.4677 C   0  0  0  0  0  0
  -24.8958  -27.6559   19.4716 C   0  0  0  0  0  0
  -23.6374  -29.7901   20.1538 C   0  0  0  0  0  0
  -25.4107  -36.3066   24.0323 C   0  0  1  0  0  0
  -20.5897  -28.3674   23.1285 C   0  0  2  0  0  0
  -20.6782  -26.9406   22.5376 C   0  0  0  0  0  0
  -19.5733  -26.6377   21.5208 C   0  0  0  0  0  0
  -18.1922  -26.7905   22.1644 C   0  0  0  0  0  0
  -19.1554  -28.8844   23.2874 C   0  0  0  0  0  0
  -18.9490  -30.1454   23.8879 C   0  0  0  0  0  0
  -17.6485  -30.6574   24.0588 C   0  0  0  0  0  0
  -25.9058  -34.9455   23.5082 C   0  0  0  0  0  0
  -16.5381  -29.9082   23.6347 C   0  0  0  0  0  0
  -16.7281  -28.6503   23.0346 C   0  0  0  0  0  0
  -26.4476  -31.6572   25.0636 C   0  0  0  0  0  0
  -25.3703  -31.3623   26.1358 C   0  0  0  0  0  0
  -27.0383  -30.3065   24.5973 C   0  0  0  0  0  0
  -27.6013  -32.4328   25.7437 C   0  0  0  0  0  0
  -27.5552  -37.1801   24.8480 C   0  0  0  0  0  0
  -21.4205  -29.3057   22.3700 N   0  0  0  0  0  0
  -26.4274  -37.3777   23.9427 N   0  0  0  0  0  0
  -24.6912  -31.0520   22.0865 N   0  0  0  0  0  0
  -23.4210  -28.8157   23.3022 O   0  0  0  0  0  0
  -28.3734  -26.4403   20.2241 O   0  0  0  0  0  0
  -26.5641  -34.8958   22.4655 O   0  0  0  0  0  0
  -23.5438  -32.1355   23.7216 O   0  0  0  0  0  0
  -29.5071  -22.8235   20.3637 C   0  0  0  0  0  0
  -28.5823  -23.7485   19.7246 C   0  0  0  0  0  0
  -29.1468  -21.5005   20.0637 C   0  0  0  0  0  0
  -28.0768  -20.2263   17.2978 C   0  0  0  0  0  0
  -25.8523  -21.1470   18.1053 C   0  0  0  0  0  0
  -28.6632  -25.2921   19.3215 C   0  0  0  0  0  0
  -29.9375  -20.1325   20.2925 C   0  0  0  0  0  0
  -29.3323  -18.6176   20.3863 C   0  0  0  0  0  0
  -30.3680  -17.3654   20.5069 C   0  0  0  0  0  0
  -27.2580  -20.6730   18.5253 C   0  0  0  0  0  0
  -27.6639  -22.9983   19.1285 N   0  0  0  0  0  0
  -28.0032  -21.6769   19.2834 N   0  0  0  0  0  0
  -29.8879  -15.9102   20.6207 N   0  0  0  0  0  0
  -31.4709  -12.5741   19.1609 H   0  0  0  0  0  0
  -30.3745  -11.4877   19.9700 H   0  0  0  0  0  0
  -29.7843  -11.7180   17.5272 H   0  0  0  0  0  0
  -29.6151  -13.4476   17.7173 H   0  0  0  0  0  0
  -27.9061  -11.2659   18.9463 H   0  0  0  0  0  0
  -27.3660  -12.4822   17.8176 H   0  0  0  0  0  0
  -27.6303  -14.2434   19.4518 H   0  0  0  0  0  0
  -28.7304  -12.2087   21.4548 H   0  0  0  0  0  0
  -28.4302  -13.8984   21.7749 H   0  0  0  0  0  0
  -25.2789   -9.5686   22.4796 H   0  0  0  0  0  0
  -24.0022   -7.4640   22.7494 H   0  0  0  0  0  0
  -21.0884   -8.8803   19.8954 H   0  0  0  0  0  0
  -22.3769  -10.9703   19.6167 H   0  0  0  0  0  0
  -21.2009   -7.6169   23.9745 H   0  0  0  0  0  0
  -21.1450   -6.0537   25.9085 H   0  0  0  0  0  0
  -22.0595   -2.7638   23.2838 H   0  0  0  0  0  0
  -22.4141  -11.9807   22.4683 H   0  0  0  0  0  0
  -21.1129  -13.1204   22.2646 H   0  0  0  0  0  0
  -24.6541  -15.8420   20.5166 H   0  0  0  0  0  0
  -26.2675  -15.6328   20.0720 H   0  0  0  0  0  0
  -26.7152  -32.5405   23.1006 H   0  0  0  0  0  0
  -25.0118  -33.9676   25.0404 H   0  0  0  0  0  0
  -22.7168  -31.2903   21.3815 H   0  0  0  0  0  0
  -23.3767  -35.9582   23.3281 H   0  0  0  0  0  0
  -24.3560  -36.8905   22.2070 H   0  0  0  0  0  0
  -23.7203  -37.6450   23.6696 H   0  0  0  0  0  0
  -26.0657  -31.5252   20.5724 H   0  0  0  0  0  0
  -26.8522  -30.8488   21.9703 H   0  0  0  0  0  0
  -28.1101  -28.9499   21.2103 H   0  0  0  0  0  0
  -26.0255  -25.8982   18.9904 H   0  0  0  0  0  0
  -24.0045  -27.2779   18.9882 H   0  0  0  0  0  0
  -23.7401  -30.5578   19.3866 H   0  0  0  0  0  0
  -22.7592  -29.2094   19.8658 H   0  0  0  0  0  0
  -25.1269  -36.1909   25.0804 H   0  0  0  0  0  0
  -20.9984  -28.3243   24.1413 H   0  0  0  0  0  0
  -20.5741  -26.2282   23.3566 H   0  0  0  0  0  0
  -21.6627  -26.7451   22.1128 H   0  0  0  0  0  0
  -19.6902  -25.6302   21.1195 H   0  0  0  0  0  0
  -19.6639  -27.3242   20.6784 H   0  0  0  0  0  0
  -17.4173  -26.6699   21.4052 H   0  0  0  0  0  0
  -18.0317  -26.0019   22.9010 H   0  0  0  0  0  0
  -19.7975  -30.7304   24.2195 H   0  0  0  0  0  0
  -17.5051  -31.6259   24.5189 H   0  0  0  0  0  0
  -15.5391  -30.3016   23.7665 H   0  0  0  0  0  0
  -15.8671  -28.0858   22.7029 H   0  0  0  0  0  0
  -24.5920  -30.6930   25.7634 H   0  0  0  0  0  0
  -24.8848  -32.2744   26.4844 H   0  0  0  0  0  0
  -25.8040  -30.8754   27.0096 H   0  0  0  0  0  0
  -26.2960  -29.6809   24.0998 H   0  0  0  0  0  0
  -27.4234  -29.7255   25.4352 H   0  0  0  0  0  0
  -27.8704  -30.4473   23.9074 H   0  0  0  0  0  0
  -27.2610  -33.3683   26.1885 H   0  0  0  0  0  0
  -28.3914  -32.6792   25.0326 H   0  0  0  0  0  0
  -28.0576  -31.8512   26.5453 H   0  0  0  0  0  0
  -28.2556  -38.0124   24.7577 H   0  0  0  0  0  0
  -28.1065  -36.2643   24.6261 H   0  0  0  0  0  0
  -27.2242  -37.1359   25.8879 H   0  0  0  0  0  0
  -20.9406  -29.8826   21.6939 H   0  0  0  0  0  0
  -26.0123  -38.2834   24.1477 H   0  0  0  0  0  0
  -30.4201  -23.1142   20.8656 H   0  0  0  0  0  0
  -27.5438  -19.4795   16.7128 H   0  0  0  0  0  0
  -29.0310  -19.7864   17.5875 H   0  0  0  0  0  0
  -28.2948  -21.0726   16.6420 H   0  0  0  0  0  0
  -25.2620  -20.3186   17.7145 H   0  0  0  0  0  0
  -25.9049  -21.9076   17.3238 H   0  0  0  0  0  0
  -25.3041  -21.5674   18.9508 H   0  0  0  0  0  0
  -28.1443  -25.4480   18.3762 H   0  0  0  0  0  0
  -29.7028  -25.4679   19.0436 H   0  0  0  0  0  0
  -30.5184  -20.2716   21.2032 H   0  0  0  0  0  0
  -30.6949  -20.0992   19.5092 H   0  0  0  0  0  0
  -28.7259  -18.4257   19.5039 H   0  0  0  0  0  0
  -28.6502  -18.5805   21.2357 H   0  0  0  0  0  0
  -31.0133  -17.5482   21.3662 H   0  0  0  0  0  0
  -31.0364  -17.4131   19.6454 H   0  0  0  0  0  0
  -27.1031  -19.8240   19.1877 H   0  0  0  0  0  0
  -28.9117  -15.7726   20.8263 H   0  0  0  0  0  0
  1 25  1  0  0  0
  1 30  2  0  0  0
  1 83  1  0  0  0
  2  3  1  0  0  0
  2 25  1  0  0  0
  2 84  1  0  0  0
  2 85  1  0  0  0
  3  4  1  0  0  0
  3 86  1  0  0  0
  3 87  1  0  0  0
  4  5  1  0  0  0
  4 88  1  0  0  0
  4 89  1  0  0  0
  5  6  1  0  0  0
  5 26  1  0  0  0
  5 90  1  0  0  0
  6 25  1  0  0  0
  6 91  1  0  0  0
  6 92  1  0  0  0
  7  8  2  0  0  0
  7 26  1  0  0  0
  7 29  1  0  0  0
  8  9  1  0  0  0
  8 22  1  0  0  0
  9 10  1  0  0  0
  9 27  2  0  0  0
 10 11  2  0  0  0
 10 15  1  0  0  0
 11 12  1  0  0  0
 11 93  1  0  0  0
 12 13  2  0  0  0
 12 94  1  0  0  0
 13 14  1  0  0  0
 13 31  1  0  0  0
 14 15  2  0  0  0
 14 95  1  0  0  0
 15 96  1  0  0  0
 16 17  2  0  0  0
 16 21  1  0  0  0
 16 31  1  0  0  0
 17 18  1  0  0  0
 17 97  1  0  0  0
 18 19  2  0  0  0
 18 98  1  0  0  0
 19 20  1  0  0  0
 19 24  1  0  0  0
 20 21  2  0  0  0
 20 99  1  0  0  0
 21 23  1  0  0  0
 22 28  1  0  0  0
 22 32  2  0  0  0
 26 27  1  0  0  0
 28100  1  0  0  0
 28101  1  0  0  0
 29102  1  0  0  0
 29103  1  0  0  0
 33 34  1  0  0  0
 33 66  1  0  0  0
 33 70  2  0  0  0
 34 36  1  0  0  0
 34 59  1  0  0  0
 34104  1  0  0  0
 35 44  2  0  0  0
 35 45  1  0  0  0
 35 68  1  0  0  0
 36 56  1  0  0  0
 36105  1  0  0  0
 37 39  1  0  0  0
 37 47  1  0  0  0
 37 66  1  0  0  0
 37106  1  0  0  0
 38 43  2  0  0  0
 38 46  1  0  0  0
 38 47  1  0  0  0
 39 64  1  0  0  0
 39 67  2  0  0  0
 40 52  1  0  0  0
 40 53  2  0  0  0
 40 58  1  0  0  0
 41107  1  0  0  0
 41108  1  0  0  0
 41109  1  0  0  0
 41 48  1  0  0  0
 42 43  1  0  0  0
 42 66  1  0  0  0
 42110  1  0  0  0
 42111  1  0  0  0
 43 44  1  0  0  0
 44112  1  0  0  0
 45 46  2  0  0  0
 45113  1  0  0  0
 46114  1  0  0  0
 47115  1  0  0  0
 47116  1  0  0  0
 48 56  1  0  0  0
 48 65  1  0  0  0
 48117  1  0  0  0
 49 50  1  0  0  0
 49 53  1  0  0  0
 49 64  1  0  0  0
 49118  1  0  0  0
 50 51  1  0  0  0
 50119  1  0  0  0
 50120  1  0  0  0
 51 52  1  0  0  0
 51121  1  0  0  0
 51122  1  0  0  0
 52123  1  0  0  0
 52124  1  0  0  0
 53 54  1  0  0  0
 54 55  2  0  0  0
 54125  1  0  0  0
 55 57  1  0  0  0
 55126  1  0  0  0
 56 69  2  0  0  0
 57 58  2  0  0  0
 57127  1  0  0  0
 58128  1  0  0  0
 59 60  1  0  0  0
 59 61  1  0  0  0
 59 62  1  0  0  0
 60129  1  0  0  0
 60130  1  0  0  0
 60131  1  0  0  0
 61132  1  0  0  0
 61133  1  0  0  0
 61134  1  0  0  0
 62135  1  0  0  0
 62136  1  0  0  0
 62137  1  0  0  0
 63 65  1  0  0  0
 63138  1  0  0  0
 63139  1  0  0  0
 63140  1  0  0  0
 64141  1  0  0  0
 65142  1  0  0  0
 68 76  1  0  0  0
 71 72  1  0  0  0
 71 73  2  0  0  0
 71143  1  0  0  0
 72 76  1  0  0  0
 72 81  2  0  0  0
 73 77  1  0  0  0
 73 82  1  0  0  0
 74144  1  0  0  0
 74145  1  0  0  0
 74146  1  0  0  0
 74 80  1  0  0  0
 75 80  1  0  0  0
 75147  1  0  0  0
 75148  1  0  0  0
 75149  1  0  0  0
 76150  1  0  0  0
 76151  1  0  0  0
 77 78  1  0  0  0
 77152  1  0  0  0
 77153  1  0  0  0
 78 79  1  0  0  0
 78154  1  0  0  0
 78155  1  0  0  0
 79 83  1  0  0  0
 79156  1  0  0  0
 79157  1  0  0  0
 80 82  1  0  0  0
 80158  1  0  0  0
 81 82  1  0  0  0
 83159  1  0  0  0
M  ISO  4   1 100  68 101  76 101  83 100
M  END
> <chiral flag>
0

> <version>
0

> <s_m_source_file>
/data/baiqing/PycharmProjects/Reinvent-master-3.2/result/LINK_invent/BTK/process_docking_weight1_custom_sum_contain_oxygen_bond_distance_aromatic_linkinvent_7_9_3/rearranged_h_0045.sdf

> <i_m_source_file_index>
44

> <r_mmod_Potential_Energy-OPLS-2005>
181.548889160156

> <r_mmod_Stretch_Energy-OPLS-2005>
124.819183349609

> <r_mmod_Bend_Energy-OPLS-2005>
198.194198608398

> <r_mmod_Torsional_Energy-OPLS-2005>
243.771682739258

> <r_mmod_Improper_Torsional_Energy-OPLS-2005>
8.56980228424072

> <r_mmod_Van_der_Waal_Energy-OPLS-2005>
115.198631286621

> <r_mmod_Electrostatic_Energy-OPLS-2005>
-372.070648193359

> <r_mmod_Solvation_Energy-OPLS-2005>
-218.093872070312

> <b_mmod_Minimization_Converged-OPLS-2005>
0

> <r_mmod_RMS_Derivative-OPLS-2005>
3.64578628540039

$$$$
44
                    3D
 Structure written by MMmdl.
157165  0  0  1  0            999 V2000
  -30.6926  -14.4339   20.5367 C   0  0  0  0  0  0
  -30.4238  -12.2652   19.4268 C   0  0  0  0  0  0
  -29.4987  -12.4932   18.2115 C   0  0  0  0  0  0
  -28.0169  -12.3609   18.6193 C   0  0  0  0  0  0
  -27.6666  -13.1928   19.8817 C   0  0  2  0  0  0
  -28.7085  -12.9576   21.0034 C   0  0  0  0  0  0
  -25.2633  -13.8133   20.5715 C   0  0  0  0  0  0
  -24.1860  -13.0428   20.9171 C   0  0  0  0  0  0
  -24.6381  -11.6887   20.8728 C   0  0  0  0  0  0
  -23.9034  -10.4288   21.0413 C   0  0  0  0  0  0
  -24.3597   -9.4208   21.9186 C   0  0  0  0  0  0
  -23.6286   -8.2237   22.0748 C   0  0  0  0  0  0
  -22.4266   -8.0276   21.3542 C   0  0  0  0  0  0
  -21.9890   -9.0237   20.4642 C   0  0  0  0  0  0
  -22.7208  -10.2123   20.3062 C   0  0  0  0  0  0
  -21.6841   -6.0739   22.5281 C   0  0  0  0  0  0
  -21.4009   -6.5641   23.8219 C   0  0  0  0  0  0
  -21.3662   -5.6796   24.9177 C   0  0  0  0  0  0
  -21.6043   -4.3059   24.7220 C   0  0  0  0  0  0
  -21.8820   -3.8150   23.4337 C   0  0  0  0  0  0
  -21.9191   -4.6969   22.3398 C   0  0  0  0  0  0
  -22.7888  -13.5251   21.1826 C   0  0  0  0  0  0
  -22.1658   -4.2157   21.0971 F   0  0  0  0  0  0
  -21.5629   -3.4539   25.7730 F   0  0  0  0  0  0
  -30.0484  -13.2421   20.4588 N   0  0  0  0  0  0
  -26.3053  -12.9269   20.3408 N   0  0  0  0  0  0
  -25.9307  -11.6436   20.5775 N   0  0  0  0  0  0
  -22.0509  -12.8262   22.0389 N   0  0  0  0  0  0
  -25.4371  -15.1854   20.4153 N   0  0  0  0  0  0
  -31.8270  -14.6314   20.0918 O   0  0  0  0  0  0
  -21.6623   -6.8878   21.4247 O   0  0  0  0  0  0
  -22.3589  -14.5553   20.6656 O   0  0  0  0  0  0
  -24.6118  -31.8721   23.2117 C   0  0  0  0  0  0
  -25.9031  -32.4842   23.8401 C   0  0  1  0  0  0
  -27.2384  -27.4595   20.0945 C   0  0  0  0  0  0
  -25.5904  -33.8640   24.2342 N   0  0  0  0  0  0
  -23.3970  -30.4961   21.5524 C   0  0  2  0  0  0
  -24.8426  -28.9636   20.1157 C   0  0  0  0  0  0
  -22.7384  -29.4697   22.5010 C   0  0  0  0  0  0
  -18.0268  -28.1386   22.8491 C   0  0  0  0  0  0
  -24.1488  -36.7318   23.2636 C   0  0  0  0  0  0
  -25.9231  -30.8451   21.3605 C   0  0  0  0  0  0
  -26.0004  -29.4814   20.7079 C   0  0  0  0  0  0
  -27.1989  -28.7370   20.6935 C   0  0  0  0  0  0
  -26.0614  -26.9515   19.4945 C   0  0  0  0  0  0
  -24.8664  -27.6956   19.5092 C   0  0  0  0  0  0
  -23.6032  -29.8280   20.1663 C   0  0  0  0  0  0
  -25.4109  -36.3126   24.0344 C   0  0  1  0  0  0
  -20.5856  -28.3673   23.1328 C   0  0  2  0  0  0
  -20.6775  -26.9417   22.5419 C   0  0  0  0  0  0
  -19.5756  -26.6394   21.5217 C   0  0  0  0  0  0
  -18.1930  -26.7933   22.1624 C   0  0  0  0  0  0
  -19.1519  -28.8841   23.2909 C   0  0  0  0  0  0
  -18.9451  -30.1452   23.8916 C   0  0  0  0  0  0
  -17.6456  -30.6597   24.0570 C   0  0  0  0  0  0
  -25.9036  -34.9491   23.5139 C   0  0  0  0  0  0
  -16.5346  -29.9101   23.6329 C   0  0  0  0  0  0
  -16.7261  -28.6520   23.0342 C   0  0  0  0  0  0
  -26.4461  -31.6611   25.0722 C   0  0  0  0  0  0
  -25.3721  -31.3721   26.1465 C   0  0  0  0  0  0
  -27.0293  -30.3057   24.6092 C   0  0  0  0  0  0
  -27.6055  -32.4314   25.7475 C   0  0  0  0  0  0
  -27.5589  -37.1815   24.8468 C   0  0  0  0  0  0
  -21.4117  -29.3047   22.3734 N   0  0  0  0  0  0
  -26.4302  -37.3804   23.9412 N   0  0  0  0  0  0
  -24.6622  -31.0842   22.1005 N   0  0  0  0  0  0
  -23.4170  -28.8256   23.3056 O   0  0  0  0  0  0
  -28.4282  -26.7630   20.1164 O   0  0  0  0  0  0
  -26.5589  -34.8937   22.4696 O   0  0  0  0  0  0
  -23.5325  -32.1473   23.7530 O   0  0  0  0  0  0
  -30.3565  -22.5083   19.4956 C   0  0  0  0  0  0
  -29.5968  -23.1826   20.4787 C   0  0  0  0  0  0
  -28.6645  -21.1746   21.1401 C   0  0  0  0  0  0
  -29.3836  -20.5050   20.1145 C   0  0  0  0  0  0
  -27.7119  -20.4564   22.0777 C   0  0  0  0  0  0
  -29.6219  -24.6985   20.5938 C   0  0  0  0  0  0
  -29.1462  -19.0457   19.7499 C   0  0  0  0  0  0
  -29.7751  -17.9914   20.6831 C   0  0  0  0  0  0
  -29.7715  -16.6272   19.9706 C   0  0  0  0  0  0
  -28.3699  -25.3433   19.9758 C   0  0  0  0  0  0
  -30.2573  -21.1691   19.3172 N   0  0  0  0  0  0
  -28.7767  -22.5130   21.3265 N   0  0  0  0  0  0
  -29.8889  -15.4601   20.8470 N   0  0  0  0  0  0
  -31.4703  -12.3540   19.1294 H   0  0  0  0  0  0
  -30.3077  -11.2501   19.8118 H   0  0  0  0  0  0
  -29.7326  -11.7789   17.4207 H   0  0  0  0  0  0
  -29.6796  -13.4835   17.7914 H   0  0  0  0  0  0
  -27.8193  -11.3044   18.8057 H   0  0  0  0  0  0
  -27.3695  -12.6469   17.7895 H   0  0  0  0  0  0
  -27.7125  -14.2401   19.5855 H   0  0  0  0  0  0
  -28.6703  -11.9222   21.3447 H   0  0  0  0  0  0
  -28.4836  -13.5618   21.8838 H   0  0  0  0  0  0
  -25.2737   -9.5689   22.4766 H   0  0  0  0  0  0
  -23.9991   -7.4630   22.7467 H   0  0  0  0  0  0
  -21.0815   -8.8749   19.8953 H   0  0  0  0  0  0
  -22.3657  -10.9659   19.6177 H   0  0  0  0  0  0
  -21.1997   -7.6147   23.9727 H   0  0  0  0  0  0
  -21.1491   -6.0517   25.9087 H   0  0  0  0  0  0
  -22.0599   -2.7611   23.2825 H   0  0  0  0  0  0
  -22.4076  -11.9913   22.4796 H   0  0  0  0  0  0
  -21.1138  -13.1333   22.2577 H   0  0  0  0  0  0
  -24.6715  -15.8395   20.5378 H   0  0  0  0  0  0
  -26.2925  -15.6299   20.1093 H   0  0  0  0  0  0
  -26.7109  -32.5566   23.1175 H   0  0  0  0  0  0
  -25.0064  -33.9807   25.0491 H   0  0  0  0  0  0
  -22.6852  -31.3132   21.4148 H   0  0  0  0  0  0
  -23.3759  -35.9644   23.3306 H   0  0  0  0  0  0
  -24.3582  -36.8916   22.2049 H   0  0  0  0  0  0
  -23.7229  -37.6525   23.6633 H   0  0  0  0  0  0
  -26.0317  -31.6135   20.5935 H   0  0  0  0  0  0
  -26.8121  -30.8983   21.9765 H   0  0  0  0  0  0
  -28.0925  -29.1364   21.1530 H   0  0  0  0  0  0
  -26.0511  -25.9880   19.0070 H   0  0  0  0  0  0
  -23.9750  -27.2888   19.0517 H   0  0  0  0  0  0
  -23.7102  -30.6046   19.4078 H   0  0  0  0  0  0
  -22.7268  -29.2487   19.8710 H   0  0  0  0  0  0
  -25.1282  -36.1998   25.0839 H   0  0  0  0  0  0
  -20.9946  -28.3244   24.1449 H   0  0  0  0  0  0
  -20.5701  -26.2284   23.3600 H   0  0  0  0  0  0
  -21.6649  -26.7490   22.1202 H   0  0  0  0  0  0
  -19.6926  -25.6305   21.1248 H   0  0  0  0  0  0
  -19.6700  -27.3204   20.6747 H   0  0  0  0  0  0
  -17.4202  -26.6676   21.4022 H   0  0  0  0  0  0
  -18.0333  -26.0073   22.9020 H   0  0  0  0  0  0
  -19.7927  -30.7259   24.2293 H   0  0  0  0  0  0
  -17.5017  -31.6275   24.5175 H   0  0  0  0  0  0
  -15.5352  -30.3015   23.7644 H   0  0  0  0  0  0
  -15.8657  -28.0853   22.7041 H   0  0  0  0  0  0
  -24.5898  -30.7064   25.7794 H   0  0  0  0  0  0
  -24.8901  -32.2880   26.4901 H   0  0  0  0  0  0
  -25.8062  -30.8895   27.0228 H   0  0  0  0  0  0
  -26.2843  -29.6817   24.1141 H   0  0  0  0  0  0
  -27.4067  -29.7296   25.4551 H   0  0  0  0  0  0
  -27.8671  -30.4386   23.9240 H   0  0  0  0  0  0
  -27.2708  -33.3627   26.2054 H   0  0  0  0  0  0
  -28.3860  -32.6843   25.0286 H   0  0  0  0  0  0
  -28.0718  -31.8421   26.5379 H   0  0  0  0  0  0
  -28.2616  -38.0105   24.7523 H   0  0  0  0  0  0
  -28.1075  -36.2643   24.6280 H   0  0  0  0  0  0
  -27.2306  -37.1443   25.8869 H   0  0  0  0  0  0
  -20.9269  -29.8750   21.6943 H   0  0  0  0  0  0
  -26.0201  -38.2888   24.1403 H   0  0  0  0  0  0
  -31.0118  -23.0463   18.8256 H   0  0  0  0  0  0
  -27.0788  -19.7491   21.5443 H   0  0  0  0  0  0
  -27.0553  -21.1609   22.5881 H   0  0  0  0  0  0
  -28.2747  -19.9127   22.8363 H   0  0  0  0  0  0
  -30.5155  -25.0844   20.1033 H   0  0  0  0  0  0
  -29.7054  -24.9751   21.6453 H   0  0  0  0  0  0
  -29.5285  -18.8922   18.7396 H   0  0  0  0  0  0
  -28.0724  -18.8734   19.6684 H   0  0  0  0  0  0
  -29.2219  -17.9467   21.6210 H   0  0  0  0  0  0
  -30.8004  -18.2673   20.9315 H   0  0  0  0  0  0
  -30.5308  -16.6265   19.1848 H   0  0  0  0  0  0
  -28.8217  -16.5034   19.4476 H   0  0  0  0  0  0
  -27.4926  -24.9393   20.4840 H   0  0  0  0  0  0
  -28.2923  -25.0843   18.9191 H   0  0  0  0  0  0
  -29.0317  -15.1824   21.3026 H   0  0  0  0  0  0
  1 25  1  0  0  0
  1 30  2  0  0  0
  1 83  1  0  0  0
  2  3  1  0  0  0
  2 25  1  0  0  0
  2 84  1  0  0  0
  2 85  1  0  0  0
  3  4  1  0  0  0
  3 86  1  0  0  0
  3 87  1  0  0  0
  4  5  1  0  0  0
  4 88  1  0  0  0
  4 89  1  0  0  0
  5  6  1  0  0  0
  5 26  1  0  0  0
  5 90  1  0  0  0
  6 25  1  0  0  0
  6 91  1  0  0  0
  6 92  1  0  0  0
  7  8  2  0  0  0
  7 26  1  0  0  0
  7 29  1  0  0  0
  8  9  1  0  0  0
  8 22  1  0  0  0
  9 10  1  0  0  0
  9 27  2  0  0  0
 10 11  2  0  0  0
 10 15  1  0  0  0
 11 12  1  0  0  0
 11 93  1  0  0  0
 12 13  2  0  0  0
 12 94  1  0  0  0
 13 14  1  0  0  0
 13 31  1  0  0  0
 14 15  2  0  0  0
 14 95  1  0  0  0
 15 96  1  0  0  0
 16 17  2  0  0  0
 16 21  1  0  0  0
 16 31  1  0  0  0
 17 18  1  0  0  0
 17 97  1  0  0  0
 18 19  2  0  0  0
 18 98  1  0  0  0
 19 20  1  0  0  0
 19 24  1  0  0  0
 20 21  2  0  0  0
 20 99  1  0  0  0
 21 23  1  0  0  0
 22 28  1  0  0  0
 22 32  2  0  0  0
 26 27  1  0  0  0
 28100  1  0  0  0
 28101  1  0  0  0
 29102  1  0  0  0
 29103  1  0  0  0
 33 34  1  0  0  0
 33 66  1  0  0  0
 33 70  2  0  0  0
 34 36  1  0  0  0
 34 59  1  0  0  0
 34104  1  0  0  0
 35 44  2  0  0  0
 35 45  1  0  0  0
 35 68  1  0  0  0
 36 56  1  0  0  0
 36105  1  0  0  0
 37 39  1  0  0  0
 37 47  1  0  0  0
 37 66  1  0  0  0
 37106  1  0  0  0
 38 43  2  0  0  0
 38 46  1  0  0  0
 38 47  1  0  0  0
 39 64  1  0  0  0
 39 67  2  0  0  0
 40 52  1  0  0  0
 40 53  2  0  0  0
 40 58  1  0  0  0
 41107  1  0  0  0
 41108  1  0  0  0
 41109  1  0  0  0
 41 48  1  0  0  0
 42 43  1  0  0  0
 42 66  1  0  0  0
 42110  1  0  0  0
 42111  1  0  0  0
 43 44  1  0  0  0
 44112  1  0  0  0
 45 46  2  0  0  0
 45113  1  0  0  0
 46114  1  0  0  0
 47115  1  0  0  0
 47116  1  0  0  0
 48 56  1  0  0  0
 48 65  1  0  0  0
 48117  1  0  0  0
 49 50  1  0  0  0
 49 53  1  0  0  0
 49 64  1  0  0  0
 49118  1  0  0  0
 50 51  1  0  0  0
 50119  1  0  0  0
 50120  1  0  0  0
 51 52  1  0  0  0
 51121  1  0  0  0
 51122  1  0  0  0
 52123  1  0  0  0
 52124  1  0  0  0
 53 54  1  0  0  0
 54 55  2  0  0  0
 54125  1  0  0  0
 55 57  1  0  0  0
 55126  1  0  0  0
 56 69  2  0  0  0
 57 58  2  0  0  0
 57127  1  0  0  0
 58128  1  0  0  0
 59 60  1  0  0  0
 59 61  1  0  0  0
 59 62  1  0  0  0
 60129  1  0  0  0
 60130  1  0  0  0
 60131  1  0  0  0
 61132  1  0  0  0
 61133  1  0  0  0
 61134  1  0  0  0
 62135  1  0  0  0
 62136  1  0  0  0
 62137  1  0  0  0
 63 65  1  0  0  0
 63138  1  0  0  0
 63139  1  0  0  0
 63140  1  0  0  0
 64141  1  0  0  0
 65142  1  0  0  0
 68 80  1  0  0  0
 71 72  2  0  0  0
 71 81  1  0  0  0
 71143  1  0  0  0
 72 76  1  0  0  0
 72 82  1  0  0  0
 73 74  1  0  0  0
 73 75  1  0  0  0
 73 82  2  0  0  0
 74 77  1  0  0  0
 74 81  2  0  0  0
 75144  1  0  0  0
 75145  1  0  0  0
 75146  1  0  0  0
 76 80  1  0  0  0
 76147  1  0  0  0
 76148  1  0  0  0
 77 78  1  0  0  0
 77149  1  0  0  0
 77150  1  0  0  0
 78 79  1  0  0  0
 78151  1  0  0  0
 78152  1  0  0  0
 79 83  1  0  0  0
 79153  1  0  0  0
 79154  1  0  0  0
 80155  1  0  0  0
 80156  1  0  0  0
 83157  1  0  0  0
M  ISO  4   1 100  68 101  80 101  83 100
M  END
> <chiral flag>
0

> <version>
0

> <s_m_source_file>
/data/baiqing/PycharmProjects/Reinvent-master-3.2/result/LINK_invent/BTK/process_docking_weight1_custom_sum_contain_oxygen_bond_distance_aromatic_linkinvent_7_9_3/rearranged_h_0045.sdf

> <i_m_source_file_index>
45

> <r_mmod_Potential_Energy-OPLS-2005>
-40.1105194091797

> <r_mmod_Stretch_Energy-OPLS-2005>
34.0649566650391

> <r_mmod_Bend_Energy-OPLS-2005>
94.9856719970703

> <r_mmod_Torsional_Energy-OPLS-2005>
216.231033325195

> <r_mmod_Improper_Torsional_Energy-OPLS-2005>
11.0535612106323

> <r_mmod_Van_der_Waal_Energy-OPLS-2005>
161.027542114258

> <r_mmod_Electrostatic_Energy-OPLS-2005>
-337.442108154297

> <r_mmod_Solvation_Energy-OPLS-2005>
-231.392105102539

> <b_mmod_Minimization_Converged-OPLS-2005>
0

> <r_mmod_RMS_Derivative-OPLS-2005>
1.5203640460968

$$$$
45
                    3D
 Structure written by MMmdl.
161169  0  0  1  0            999 V2000
  -30.7805  -14.3602   20.6874 C   0  0  0  0  0  0
  -30.4128  -12.2866   19.4047 C   0  0  0  0  0  0
  -29.4834  -12.5210   18.1994 C   0  0  0  0  0  0
  -28.0084  -12.3761   18.6150 C   0  0  0  0  0  0
  -27.6639  -13.1999   19.8833 C   0  0  2  0  0  0
  -28.7013  -12.9480   21.0010 C   0  0  0  0  0  0
  -25.2595  -13.8129   20.5627 C   0  0  0  0  0  0
  -24.1839  -13.0411   20.9157 C   0  0  0  0  0  0
  -24.6382  -11.6886   20.8735 C   0  0  0  0  0  0
  -23.9067  -10.4272   21.0422 C   0  0  0  0  0  0
  -24.3631   -9.4192   21.9197 C   0  0  0  0  0  0
  -23.6298   -8.2229   22.0753 C   0  0  0  0  0  0
  -22.4281   -8.0274   21.3537 C   0  0  0  0  0  0
  -21.9924   -9.0248   20.4639 C   0  0  0  0  0  0
  -22.7255  -10.2122   20.3059 C   0  0  0  0  0  0
  -21.6849   -6.0739   22.5275 C   0  0  0  0  0  0
  -21.4019   -6.5643   23.8216 C   0  0  0  0  0  0
  -21.3657   -5.6789   24.9177 C   0  0  0  0  0  0
  -21.6043   -4.3053   24.7218 C   0  0  0  0  0  0
  -21.8830   -3.8143   23.4342 C   0  0  0  0  0  0
  -21.9188   -4.6963   22.3398 C   0  0  0  0  0  0
  -22.7875  -13.5234   21.1825 C   0  0  0  0  0  0
  -22.1663   -4.2156   21.0980 F   0  0  0  0  0  0
  -21.5622   -3.4533   25.7733 F   0  0  0  0  0  0
  -30.0428  -13.2403   20.4616 N   0  0  0  0  0  0
  -26.3031  -12.9293   20.3394 N   0  0  0  0  0  0
  -25.9311  -11.6451   20.5784 N   0  0  0  0  0  0
  -22.0518  -12.8215   22.0387 N   0  0  0  0  0  0
  -25.4220  -15.1819   20.3897 N   0  0  0  0  0  0
  -31.8162  -14.6283   20.0777 O   0  0  0  0  0  0
  -21.6623   -6.8884   21.4245 O   0  0  0  0  0  0
  -22.3589  -14.5538   20.6673 O   0  0  0  0  0  0
  -24.6120  -31.8685   23.2052 C   0  0  0  0  0  0
  -25.9033  -32.4817   23.8360 C   0  0  1  0  0  0
  -27.2638  -27.4719   20.0615 C   0  0  0  0  0  0
  -25.5916  -33.8613   24.2309 N   0  0  0  0  0  0
  -23.4012  -30.4879   21.5433 C   0  0  2  0  0  0
  -24.8498  -28.9436   20.1243 C   0  0  0  0  0  0
  -22.7393  -29.4673   22.4956 C   0  0  0  0  0  0
  -18.0261  -28.1353   22.8434 C   0  0  0  0  0  0
  -24.1499  -36.7329   23.2632 C   0  0  0  0  0  0
  -25.9233  -30.8386   21.3557 C   0  0  0  0  0  0
  -26.0037  -29.4705   20.7125 C   0  0  0  0  0  0
  -27.2082  -28.7375   20.6833 C   0  0  0  0  0  0
  -26.0754  -26.9321   19.5090 C   0  0  0  0  0  0
  -24.8765  -27.6699   19.5309 C   0  0  0  0  0  0
  -23.6123  -29.8069   20.1629 C   0  0  0  0  0  0
  -25.4117  -36.3110   24.0326 C   0  0  1  0  0  0
  -20.5860  -28.3675   23.1306 C   0  0  2  0  0  0
  -20.6810  -26.9444   22.5385 C   0  0  0  0  0  0
  -19.5801  -26.6462   21.5135 C   0  0  0  0  0  0
  -18.1972  -26.7889   22.1559 C   0  0  0  0  0  0
  -19.1497  -28.8809   23.2884 C   0  0  0  0  0  0
  -18.9393  -30.1376   23.8964 C   0  0  0  0  0  0
  -17.6383  -30.6511   24.0612 C   0  0  0  0  0  0
  -25.9038  -34.9472   23.5112 C   0  0  0  0  0  0
  -16.5296  -29.9026   23.6293 C   0  0  0  0  0  0
  -16.7232  -28.6482   23.0253 C   0  0  0  0  0  0
  -26.4482  -31.6590   25.0674 C   0  0  0  0  0  0
  -25.3764  -31.3685   26.1427 C   0  0  0  0  0  0
  -27.0329  -30.3041   24.6031 C   0  0  0  0  0  0
  -27.6047  -32.4308   25.7448 C   0  0  0  0  0  0
  -27.5582  -37.1814   24.8459 C   0  0  0  0  0  0
  -21.4125  -29.3085   22.3749 N   0  0  0  0  0  0
  -26.4299  -37.3793   23.9398 N   0  0  0  0  0  0
  -24.6637  -31.0778   22.0951 N   0  0  0  0  0  0
  -23.4183  -28.8228   23.3004 O   0  0  0  0  0  0
  -28.5011  -26.8640   19.9917 O   0  0  0  0  0  0
  -26.5589  -34.8924   22.4662 O   0  0  0  0  0  0
  -23.5326  -32.1429   23.7493 O   0  0  0  0  0  0
  -27.3670  -18.2994   21.4327 C   0  0  0  0  0  0
  -29.0528  -19.9385   21.9661 C   0  0  0  0  0  0
  -28.7070  -18.5863   21.7700 C   0  0  0  0  0  0
  -26.4492  -19.3566   21.2954 C   0  0  0  0  0  0
  -28.0702  -20.9303   21.7880 C   0  0  0  0  0  0
  -25.0097  -19.0931   20.9209 C   0  0  0  0  0  0
  -29.7789  -17.5077   21.9035 C   0  0  0  0  0  0
  -28.3958  -22.4011   21.9317 C   0  0  0  0  0  0
  -28.4801  -23.1360   20.5821 C   0  0  0  0  0  0
  -28.5562  -24.6476   20.8241 C   0  0  0  0  0  0
  -29.3071  -16.0562   21.6660 C   0  0  0  0  0  0
  -28.6408  -25.5118   19.5653 C   0  0  0  0  0  0
  -26.7928  -20.6477   21.4674 N   0  0  0  0  0  0
  -30.4268  -15.1123   21.7351 N   0  0  0  0  0  0
  -31.4585  -12.3737   19.1007 H   0  0  0  0  0  0
  -30.3011  -11.2651   19.7744 H   0  0  0  0  0  0
  -29.7171  -11.8139   17.4018 H   0  0  0  0  0  0
  -29.6590  -13.5170   17.7903 H   0  0  0  0  0  0
  -27.8165  -11.3170   18.7970 H   0  0  0  0  0  0
  -27.3547  -12.6692   17.7921 H   0  0  0  0  0  0
  -27.7152  -14.2509   19.6059 H   0  0  0  0  0  0
  -28.6622  -11.9056   21.3195 H   0  0  0  0  0  0
  -28.4537  -13.5213   21.8924 H   0  0  0  0  0  0
  -25.2785   -9.5669   22.4778 H   0  0  0  0  0  0
  -23.9996   -7.4623   22.7483 H   0  0  0  0  0  0
  -21.0855   -8.8778   19.8947 H   0  0  0  0  0  0
  -22.3735  -10.9666   19.6162 H   0  0  0  0  0  0
  -21.2032   -7.6153   23.9721 H   0  0  0  0  0  0
  -21.1461   -6.0516   25.9077 H   0  0  0  0  0  0
  -22.0611   -2.7605   23.2830 H   0  0  0  0  0  0
  -22.4148  -11.9881   22.4774 H   0  0  0  0  0  0
  -21.1132  -13.1226   22.2588 H   0  0  0  0  0  0
  -24.6243  -15.8087   20.4348 H   0  0  0  0  0  0
  -26.2374  -15.6016   19.9622 H   0  0  0  0  0  0
  -26.7096  -32.5551   23.1130 H   0  0  0  0  0  0
  -25.0100  -33.9771   25.0477 H   0  0  0  0  0  0
  -22.6914  -31.3027   21.3933 H   0  0  0  0  0  0
  -23.3742  -35.9684   23.3315 H   0  0  0  0  0  0
  -24.3576  -36.8918   22.2035 H   0  0  0  0  0  0
  -23.7274  -37.6544   23.6639 H   0  0  0  0  0  0
  -26.0178  -31.5968   20.5762 H   0  0  0  0  0  0
  -26.8155  -30.9052   21.9669 H   0  0  0  0  0  0
  -28.1068  -29.1557   21.1168 H   0  0  0  0  0  0
  -26.0485  -25.9619   19.0379 H   0  0  0  0  0  0
  -23.9848  -27.2534   19.0849 H   0  0  0  0  0  0
  -23.7205  -30.5686   19.3893 H   0  0  0  0  0  0
  -22.7421  -29.2138   19.8760 H   0  0  0  0  0  0
  -25.1299  -36.1962   25.0816 H   0  0  0  0  0  0
  -20.9920  -28.3257   24.1443 H   0  0  0  0  0  0
  -20.5799  -26.2274   23.3576 H   0  0  0  0  0  0
  -21.6667  -26.7600   22.1072 H   0  0  0  0  0  0
  -19.6970  -25.6421   21.1091 H   0  0  0  0  0  0
  -19.6739  -27.3334   20.6693 H   0  0  0  0  0  0
  -17.4255  -26.6569   21.3964 H   0  0  0  0  0  0
  -18.0433  -25.9981   22.8927 H   0  0  0  0  0  0
  -19.7849  -30.7175   24.2425 H   0  0  0  0  0  0
  -17.4903  -31.6166   24.5243 H   0  0  0  0  0  0
  -15.5290  -30.2951   23.7564 H   0  0  0  0  0  0
  -15.8638  -28.0859   22.6871 H   0  0  0  0  0  0
  -24.5925  -30.7052   25.7743 H   0  0  0  0  0  0
  -24.8991  -32.2856   26.4888 H   0  0  0  0  0  0
  -25.8121  -30.8813   27.0162 H   0  0  0  0  0  0
  -26.2851  -29.6763   24.1164 H   0  0  0  0  0  0
  -27.4202  -29.7302   25.4462 H   0  0  0  0  0  0
  -27.8646  -30.4378   23.9103 H   0  0  0  0  0  0
  -27.2627  -33.3565   26.2099 H   0  0  0  0  0  0
  -28.3827  -32.6922   25.0260 H   0  0  0  0  0  0
  -28.0761  -31.8387   26.5310 H   0  0  0  0  0  0
  -28.2608  -38.0101   24.7473 H   0  0  0  0  0  0
  -28.1074  -36.2621   24.6343 H   0  0  0  0  0  0
  -27.2290  -37.1519   25.8860 H   0  0  0  0  0  0
  -20.9288  -29.8938   21.7083 H   0  0  0  0  0  0
  -26.0188  -38.2874   24.1387 H   0  0  0  0  0  0
  -27.0241  -17.2881   21.2709 H   0  0  0  0  0  0
  -30.0635  -20.2176   22.2340 H   0  0  0  0  0  0
  -24.9652  -18.3826   20.0971 H   0  0  0  0  0  0
  -24.5080  -20.0103   20.6072 H   0  0  0  0  0  0
  -24.4702  -18.6723   21.7722 H   0  0  0  0  0  0
  -30.5686  -17.7529   21.1904 H   0  0  0  0  0  0
  -30.2206  -17.5909   22.8976 H   0  0  0  0  0  0
  -29.3289  -22.5246   22.4830 H   0  0  0  0  0  0
  -27.6181  -22.8580   22.5445 H   0  0  0  0  0  0
  -27.5973  -22.9132   19.9814 H   0  0  0  0  0  0
  -29.3401  -22.7848   20.0118 H   0  0  0  0  0  0
  -29.4212  -24.8691   21.4495 H   0  0  0  0  0  0
  -27.6823  -24.9479   21.4001 H   0  0  0  0  0  0
  -28.5678  -15.7744   22.4156 H   0  0  0  0  0  0
  -28.8119  -15.9847   20.6955 H   0  0  0  0  0  0
  -27.9443  -25.2060   18.7857 H   0  0  0  0  0  0
  -29.6304  -25.3972   19.1158 H   0  0  0  0  0  0
  -31.2407  -15.5468   22.1449 H   0  0  0  0  0  0
  1 25  1  0  0  0
  1 30  2  0  0  0
  1 84  1  0  0  0
  2  3  1  0  0  0
  2 25  1  0  0  0
  2 85  1  0  0  0
  2 86  1  0  0  0
  3  4  1  0  0  0
  3 87  1  0  0  0
  3 88  1  0  0  0
  4  5  1  0  0  0
  4 89  1  0  0  0
  4 90  1  0  0  0
  5  6  1  0  0  0
  5 26  1  0  0  0
  5 91  1  0  0  0
  6 25  1  0  0  0
  6 92  1  0  0  0
  6 93  1  0  0  0
  7  8  2  0  0  0
  7 26  1  0  0  0
  7 29  1  0  0  0
  8  9  1  0  0  0
  8 22  1  0  0  0
  9 10  1  0  0  0
  9 27  2  0  0  0
 10 11  2  0  0  0
 10 15  1  0  0  0
 11 12  1  0  0  0
 11 94  1  0  0  0
 12 13  2  0  0  0
 12 95  1  0  0  0
 13 14  1  0  0  0
 13 31  1  0  0  0
 14 15  2  0  0  0
 14 96  1  0  0  0
 15 97  1  0  0  0
 16 17  2  0  0  0
 16 21  1  0  0  0
 16 31  1  0  0  0
 17 18  1  0  0  0
 17 98  1  0  0  0
 18 19  2  0  0  0
 18 99  1  0  0  0
 19 20  1  0  0  0
 19 24  1  0  0  0
 20 21  2  0  0  0
 20100  1  0  0  0
 21 23  1  0  0  0
 22 28  1  0  0  0
 22 32  2  0  0  0
 26 27  1  0  0  0
 28101  1  0  0  0
 28102  1  0  0  0
 29103  1  0  0  0
 29104  1  0  0  0
 33 34  1  0  0  0
 33 66  1  0  0  0
 33 70  2  0  0  0
 34 36  1  0  0  0
 34 59  1  0  0  0
 34105  1  0  0  0
 35 44  2  0  0  0
 35 45  1  0  0  0
 35 68  1  0  0  0
 36 56  1  0  0  0
 36106  1  0  0  0
 37 39  1  0  0  0
 37 47  1  0  0  0
 37 66  1  0  0  0
 37107  1  0  0  0
 38 43  2  0  0  0
 38 46  1  0  0  0
 38 47  1  0  0  0
 39 64  1  0  0  0
 39 67  2  0  0  0
 40 52  1  0  0  0
 40 53  2  0  0  0
 40 58  1  0  0  0
 41108  1  0  0  0
 41109  1  0  0  0
 41110  1  0  0  0
 41 48  1  0  0  0
 42 43  1  0  0  0
 42 66  1  0  0  0
 42111  1  0  0  0
 42112  1  0  0  0
 43 44  1  0  0  0
 44113  1  0  0  0
 45 46  2  0  0  0
 45114  1  0  0  0
 46115  1  0  0  0
 47116  1  0  0  0
 47117  1  0  0  0
 48 56  1  0  0  0
 48 65  1  0  0  0
 48118  1  0  0  0
 49 50  1  0  0  0
 49 53  1  0  0  0
 49 64  1  0  0  0
 49119  1  0  0  0
 50 51  1  0  0  0
 50120  1  0  0  0
 50121  1  0  0  0
 51 52  1  0  0  0
 51122  1  0  0  0
 51123  1  0  0  0
 52124  1  0  0  0
 52125  1  0  0  0
 53 54  1  0  0  0
 54 55  2  0  0  0
 54126  1  0  0  0
 55 57  1  0  0  0
 55127  1  0  0  0
 56 69  2  0  0  0
 57 58  2  0  0  0
 57128  1  0  0  0
 58129  1  0  0  0
 59 60  1  0  0  0
 59 61  1  0  0  0
 59 62  1  0  0  0
 60130  1  0  0  0
 60131  1  0  0  0
 60132  1  0  0  0
 61133  1  0  0  0
 61134  1  0  0  0
 61135  1  0  0  0
 62136  1  0  0  0
 62137  1  0  0  0
 62138  1  0  0  0
 63 65  1  0  0  0
 63139  1  0  0  0
 63140  1  0  0  0
 63141  1  0  0  0
 64142  1  0  0  0
 65143  1  0  0  0
 68 82  1  0  0  0
 71 73  2  0  0  0
 71 74  1  0  0  0
 71144  1  0  0  0
 72 73  1  0  0  0
 72 75  2  0  0  0
 72145  1  0  0  0
 73 77  1  0  0  0
 74 76  1  0  0  0
 74 83  2  0  0  0
 75 78  1  0  0  0
 75 83  1  0  0  0
 76146  1  0  0  0
 76147  1  0  0  0
 76148  1  0  0  0
 77 81  1  0  0  0
 77149  1  0  0  0
 77150  1  0  0  0
 78 79  1  0  0  0
 78151  1  0  0  0
 78152  1  0  0  0
 79 80  1  0  0  0
 79153  1  0  0  0
 79154  1  0  0  0
 80 82  1  0  0  0
 80155  1  0  0  0
 80156  1  0  0  0
 81 84  1  0  0  0
 81157  1  0  0  0
 81158  1  0  0  0
 82159  1  0  0  0
 82160  1  0  0  0
 84161  1  0  0  0
M  ISO  4   1 100  68 101  82 101  84 100
M  END
> <chiral flag>
0

> <version>
0

> <s_m_source_file>
/data/baiqing/PycharmProjects/Reinvent-master-3.2/result/LINK_invent/BTK/process_docking_weight1_custom_sum_contain_oxygen_bond_distance_aromatic_linkinvent_7_9_3/rearranged_h_0045.sdf

> <i_m_source_file_index>
46

> <r_mmod_Potential_Energy-OPLS-2005>
-187.338470458984

> <r_mmod_Stretch_Energy-OPLS-2005>
31.8143711090088

> <r_mmod_Bend_Energy-OPLS-2005>
107.67301940918

> <r_mmod_Torsional_Energy-OPLS-2005>
233.725860595703

> <r_mmod_Improper_Torsional_Energy-OPLS-2005>
8.42825794219971

> <r_mmod_Van_der_Waal_Energy-OPLS-2005>
153.268859863281

> <r_mmod_Electrostatic_Energy-OPLS-2005>
-519.280822753906

> <r_mmod_Solvation_Energy-OPLS-2005>
-212.823974609375

> <b_mmod_Minimization_Converged-OPLS-2005>
0

> <r_mmod_RMS_Derivative-OPLS-2005>
4.48170614242554

$$$$
46
                    3D
 Structure written by MMmdl.
162170  0  0  1  0            999 V2000
  -30.6963  -14.5231   20.5042 C   0  0  0  0  0  0
  -30.4139  -12.3219   19.4403 C   0  0  0  0  0  0
  -29.4969  -12.5009   18.2134 C   0  0  0  0  0  0
  -28.0186  -12.3552   18.6221 C   0  0  0  0  0  0
  -27.6552  -13.2142   19.8650 C   0  0  2  0  0  0
  -28.6989  -13.0508   20.9942 C   0  0  0  0  0  0
  -25.2581  -13.8179   20.5684 C   0  0  0  0  0  0
  -24.1852  -13.0449   20.9186 C   0  0  0  0  0  0
  -24.6413  -11.6914   20.8744 C   0  0  0  0  0  0
  -23.9080  -10.4300   21.0410 C   0  0  0  0  0  0
  -24.3638   -9.4219   21.9191 C   0  0  0  0  0  0
  -23.6317   -8.2251   22.0753 C   0  0  0  0  0  0
  -22.4296   -8.0295   21.3545 C   0  0  0  0  0  0
  -21.9935   -9.0267   20.4641 C   0  0  0  0  0  0
  -22.7258  -10.2145   20.3052 C   0  0  0  0  0  0
  -21.6867   -6.0757   22.5288 C   0  0  0  0  0  0
  -21.4023   -6.5657   23.8226 C   0  0  0  0  0  0
  -21.3656   -5.6803   24.9182 C   0  0  0  0  0  0
  -21.6040   -4.3067   24.7225 C   0  0  0  0  0  0
  -21.8821   -3.8166   23.4345 C   0  0  0  0  0  0
  -21.9195   -4.6984   22.3404 C   0  0  0  0  0  0
  -22.7874  -13.5240   21.1842 C   0  0  0  0  0  0
  -22.1664   -4.2181   21.0978 F   0  0  0  0  0  0
  -21.5613   -3.4535   25.7725 F   0  0  0  0  0  0
  -30.0233  -13.3417   20.4282 N   0  0  0  0  0  0
  -26.3008  -12.9359   20.3328 N   0  0  0  0  0  0
  -25.9340  -11.6513   20.5769 N   0  0  0  0  0  0
  -22.0518  -12.8231   22.0388 N   0  0  0  0  0  0
  -25.4283  -15.1903   20.4071 N   0  0  0  0  0  0
  -31.8580  -14.6441   20.1106 O   0  0  0  0  0  0
  -21.6657   -6.8901   21.4251 O   0  0  0  0  0  0
  -22.3554  -14.5542   20.6679 O   0  0  0  0  0  0
  -24.6192  -31.8645   23.2100 C   0  0  0  0  0  0
  -25.9069  -32.4808   23.8404 C   0  0  1  0  0  0
  -27.2227  -27.3931   20.1109 C   0  0  0  0  0  0
  -25.5899  -33.8607   24.2311 N   0  0  0  0  0  0
  -23.4094  -30.4928   21.5476 C   0  0  2  0  0  0
  -24.8560  -28.9611   20.1080 C   0  0  0  0  0  0
  -22.7435  -29.4648   22.4928 C   0  0  0  0  0  0
  -18.0279  -28.1381   22.8488 C   0  0  0  0  0  0
  -24.1462  -36.7283   23.2648 C   0  0  0  0  0  0
  -25.9455  -30.8174   21.3742 C   0  0  0  0  0  0
  -26.0197  -29.4546   20.7127 C   0  0  0  0  0  0
  -27.2091  -28.6808   20.7056 C   0  0  0  0  0  0
  -26.0435  -26.9353   19.4804 C   0  0  0  0  0  0
  -24.8667  -27.7045   19.4841 C   0  0  0  0  0  0
  -23.6204  -29.8330   20.1598 C   0  0  0  0  0  0
  -25.4097  -36.3099   24.0335 C   0  0  1  0  0  0
  -20.5876  -28.3669   23.1279 C   0  0  2  0  0  0
  -20.6756  -26.9385   22.5413 C   0  0  0  0  0  0
  -19.5736  -26.6371   21.5211 C   0  0  0  0  0  0
  -18.1917  -26.7925   22.1621 C   0  0  0  0  0  0
  -19.1533  -28.8840   23.2888 C   0  0  0  0  0  0
  -18.9465  -30.1446   23.8903 C   0  0  0  0  0  0
  -17.6469  -30.6587   24.0565 C   0  0  0  0  0  0
  -25.9034  -34.9464   23.5120 C   0  0  0  0  0  0
  -16.5355  -29.9090   23.6342 C   0  0  0  0  0  0
  -16.7267  -28.6505   23.0360 C   0  0  0  0  0  0
  -26.4491  -31.6628   25.0769 C   0  0  0  0  0  0
  -25.3749  -31.3738   26.1516 C   0  0  0  0  0  0
  -27.0362  -30.3070   24.6211 C   0  0  0  0  0  0
  -27.6055  -32.4380   25.7526 C   0  0  0  0  0  0
  -27.5560  -37.1794   24.8471 C   0  0  0  0  0  0
  -21.4151  -29.3037   22.3671 N   0  0  0  0  0  0
  -26.4272  -37.3797   23.9420 N   0  0  0  0  0  0
  -24.6761  -31.0726   22.1012 N   0  0  0  0  0  0
  -23.4194  -28.8164   23.2957 O   0  0  0  0  0  0
  -28.3569  -26.5943   20.1301 O   0  0  0  0  0  0
  -26.5609  -34.8922   22.4689 O   0  0  0  0  0  0
  -23.5373  -32.1404   23.7473 O   0  0  0  0  0  0
  -30.3620  -21.9181   20.8532 C   0  0  0  0  0  0
  -30.5726  -20.5879   20.4771 C   0  0  0  0  0  0
  -32.4780  -21.5207   21.0671 C   0  0  0  0  0  0
  -33.9363  -21.6925   21.3413 C   0  0  0  0  0  0
  -32.7420  -19.2799   20.0359 C   0  0  0  0  0  0
  -29.1279  -22.8105   20.9168 C   0  0  0  0  0  0
  -29.6147  -19.5100   19.9797 C   0  0  0  0  0  0
  -29.3161  -24.2448   20.3067 C   0  0  0  0  0  0
  -29.4443  -18.1681   20.7892 C   0  0  0  0  0  0
  -30.4317  -17.0008   20.4736 C   0  0  0  0  0  0
  -28.1609  -25.2393   20.6217 C   0  0  0  0  0  0
  -31.5665  -22.4507   21.3034 N   0  0  0  0  0  0
  -31.9637  -20.4116   20.5117 N   0  0  0  0  0  0
  -29.9681  -15.6270   20.7955 N   0  0  0  0  0  0
  -31.4612  -12.3996   19.1439 H   0  0  0  0  0  0
  -30.2952  -11.3234   19.8640 H   0  0  0  0  0  0
  -29.7477  -11.7708   17.4434 H   0  0  0  0  0  0
  -29.6622  -13.4839   17.7683 H   0  0  0  0  0  0
  -27.8366  -11.3005   18.8313 H   0  0  0  0  0  0
  -27.3705  -12.6113   17.7832 H   0  0  0  0  0  0
  -27.6814  -14.2539   19.5394 H   0  0  0  0  0  0
  -28.6842  -12.0321   21.3839 H   0  0  0  0  0  0
  -28.4679  -13.7011   21.8392 H   0  0  0  0  0  0
  -25.2788   -9.5696   22.4762 H   0  0  0  0  0  0
  -24.0034   -7.4644   22.7465 H   0  0  0  0  0  0
  -21.0873   -8.8791   19.8940 H   0  0  0  0  0  0
  -22.3741  -10.9687   19.6155 H   0  0  0  0  0  0
  -21.2034   -7.6170   23.9742 H   0  0  0  0  0  0
  -21.1467   -6.0526   25.9086 H   0  0  0  0  0  0
  -22.0602   -2.7626   23.2835 H   0  0  0  0  0  0
  -22.4147  -11.9904   22.4791 H   0  0  0  0  0  0
  -21.1119  -13.1239   22.2552 H   0  0  0  0  0  0
  -24.6593  -15.8425   20.5140 H   0  0  0  0  0  0
  -26.2758  -15.6310   20.0726 H   0  0  0  0  0  0
  -26.7139  -32.5487   23.1158 H   0  0  0  0  0  0
  -25.0042  -33.9769   25.0450 H   0  0  0  0  0  0
  -22.7012  -31.3130   21.4094 H   0  0  0  0  0  0
  -23.3739  -35.9602   23.3342 H   0  0  0  0  0  0
  -24.3546  -36.8877   22.2058 H   0  0  0  0  0  0
  -23.7196  -37.6481   23.6656 H   0  0  0  0  0  0
  -26.0817  -31.5892   20.6156 H   0  0  0  0  0  0
  -26.8242  -30.8531   22.0077 H   0  0  0  0  0  0
  -28.1045  -29.0554   21.1825 H   0  0  0  0  0  0
  -26.0183  -25.9807   18.9766 H   0  0  0  0  0  0
  -23.9782  -27.3236   18.9999 H   0  0  0  0  0  0
  -23.7298  -30.6119   19.4037 H   0  0  0  0  0  0
  -22.7433  -29.2578   19.8590 H   0  0  0  0  0  0
  -25.1275  -36.1957   25.0827 H   0  0  0  0  0  0
  -21.0001  -28.3239   24.1384 H   0  0  0  0  0  0
  -20.5632  -26.2272   23.3608 H   0  0  0  0  0  0
  -21.6620  -26.7384   22.1211 H   0  0  0  0  0  0
  -19.6885  -25.6286   21.1227 H   0  0  0  0  0  0
  -19.6684  -27.3193   20.6752 H   0  0  0  0  0  0
  -17.4182  -26.6685   21.4030 H   0  0  0  0  0  0
  -18.0303  -26.0072   22.9019 H   0  0  0  0  0  0
  -19.7945  -30.7259   24.2265 H   0  0  0  0  0  0
  -17.5030  -31.6271   24.5153 H   0  0  0  0  0  0
  -15.5360  -30.2998   23.7670 H   0  0  0  0  0  0
  -15.8662  -28.0835   22.7078 H   0  0  0  0  0  0
  -24.5884  -30.7142   25.7837 H   0  0  0  0  0  0
  -24.8995  -32.2898   26.5030 H   0  0  0  0  0  0
  -25.8088  -30.8841   27.0241 H   0  0  0  0  0  0
  -26.2938  -29.6802   24.1259 H   0  0  0  0  0  0
  -27.4111  -29.7357   25.4712 H   0  0  0  0  0  0
  -27.8776  -30.4398   23.9409 H   0  0  0  0  0  0
  -27.2656  -33.3658   26.2143 H   0  0  0  0  0  0
  -28.3832  -32.6994   25.0338 H   0  0  0  0  0  0
  -28.0772  -31.8506   26.5414 H   0  0  0  0  0  0
  -28.2599  -38.0074   24.7524 H   0  0  0  0  0  0
  -28.1032  -36.2607   24.6291 H   0  0  0  0  0  0
  -27.2280  -37.1442   25.8877 H   0  0  0  0  0  0
  -20.9299  -29.8790   21.6928 H   0  0  0  0  0  0
  -26.0153  -38.2860   24.1473 H   0  0  0  0  0  0
  -34.3383  -20.8040   21.8290 H   0  0  0  0  0  0
  -34.1082  -22.5535   21.9881 H   0  0  0  0  0  0
  -34.4737  -21.8511   20.4066 H   0  0  0  0  0  0
  -33.6703  -19.6291   19.5827 H   0  0  0  0  0  0
  -32.1991  -18.7354   19.2673 H   0  0  0  0  0  0
  -32.9952  -18.6214   20.8663 H   0  0  0  0  0  0
  -28.8298  -22.9192   21.9599 H   0  0  0  0  0  0
  -28.2864  -22.3231   20.4233 H   0  0  0  0  0  0
  -29.8557  -19.2714   18.9440 H   0  0  0  0  0  0
  -28.6271  -19.9683   19.9217 H   0  0  0  0  0  0
  -29.4578  -24.1654   19.2282 H   0  0  0  0  0  0
  -30.2323  -24.6854   20.6985 H   0  0  0  0  0  0
  -28.4522  -17.7893   20.5392 H   0  0  0  0  0  0
  -29.4140  -18.3740   21.8602 H   0  0  0  0  0  0
  -30.6715  -17.0217   19.4092 H   0  0  0  0  0  0
  -31.3609  -17.1618   21.0171 H   0  0  0  0  0  0
  -27.2397  -24.7885   20.2567 H   0  0  0  0  0  0
  -28.0451  -25.3033   21.7054 H   0  0  0  0  0  0
  -29.0093  -15.4971   21.0797 H   0  0  0  0  0  0
  1 25  1  0  0  0
  1 30  2  0  0  0
  1 84  1  0  0  0
  2  3  1  0  0  0
  2 25  1  0  0  0
  2 85  1  0  0  0
  2 86  1  0  0  0
  3  4  1  0  0  0
  3 87  1  0  0  0
  3 88  1  0  0  0
  4  5  1  0  0  0
  4 89  1  0  0  0
  4 90  1  0  0  0
  5  6  1  0  0  0
  5 26  1  0  0  0
  5 91  1  0  0  0
  6 25  1  0  0  0
  6 92  1  0  0  0
  6 93  1  0  0  0
  7  8  2  0  0  0
  7 26  1  0  0  0
  7 29  1  0  0  0
  8  9  1  0  0  0
  8 22  1  0  0  0
  9 10  1  0  0  0
  9 27  2  0  0  0
 10 11  2  0  0  0
 10 15  1  0  0  0
 11 12  1  0  0  0
 11 94  1  0  0  0
 12 13  2  0  0  0
 12 95  1  0  0  0
 13 14  1  0  0  0
 13 31  1  0  0  0
 14 15  2  0  0  0
 14 96  1  0  0  0
 15 97  1  0  0  0
 16 17  2  0  0  0
 16 21  1  0  0  0
 16 31  1  0  0  0
 17 18  1  0  0  0
 17 98  1  0  0  0
 18 19  2  0  0  0
 18 99  1  0  0  0
 19 20  1  0  0  0
 19 24  1  0  0  0
 20 21  2  0  0  0
 20100  1  0  0  0
 21 23  1  0  0  0
 22 28  1  0  0  0
 22 32  2  0  0  0
 26 27  1  0  0  0
 28101  1  0  0  0
 28102  1  0  0  0
 29103  1  0  0  0
 29104  1  0  0  0
 33 34  1  0  0  0
 33 66  1  0  0  0
 33 70  2  0  0  0
 34 36  1  0  0  0
 34 59  1  0  0  0
 34105  1  0  0  0
 35 44  2  0  0  0
 35 45  1  0  0  0
 35 68  1  0  0  0
 36 56  1  0  0  0
 36106  1  0  0  0
 37 39  1  0  0  0
 37 47  1  0  0  0
 37 66  1  0  0  0
 37107  1  0  0  0
 38 43  2  0  0  0
 38 46  1  0  0  0
 38 47  1  0  0  0
 39 64  1  0  0  0
 39 67  2  0  0  0
 40 52  1  0  0  0
 40 53  2  0  0  0
 40 58  1  0  0  0
 41108  1  0  0  0
 41109  1  0  0  0
 41110  1  0  0  0
 41 48  1  0  0  0
 42 43  1  0  0  0
 42 66  1  0  0  0
 42111  1  0  0  0
 42112  1  0  0  0
 43 44  1  0  0  0
 44113  1  0  0  0
 45 46  2  0  0  0
 45114  1  0  0  0
 46115  1  0  0  0
 47116  1  0  0  0
 47117  1  0  0  0
 48 56  1  0  0  0
 48 65  1  0  0  0
 48118  1  0  0  0
 49 50  1  0  0  0
 49 53  1  0  0  0
 49 64  1  0  0  0
 49119  1  0  0  0
 50 51  1  0  0  0
 50120  1  0  0  0
 50121  1  0  0  0
 51 52  1  0  0  0
 51122  1  0  0  0
 51123  1  0  0  0
 52124  1  0  0  0
 52125  1  0  0  0
 53 54  1  0  0  0
 54 55  2  0  0  0
 54126  1  0  0  0
 55 57  1  0  0  0
 55127  1  0  0  0
 56 69  2  0  0  0
 57 58  2  0  0  0
 57128  1  0  0  0
 58129  1  0  0  0
 59 60  1  0  0  0
 59 61  1  0  0  0
 59 62  1  0  0  0
 60130  1  0  0  0
 60131  1  0  0  0
 60132  1  0  0  0
 61133  1  0  0  0
 61134  1  0  0  0
 61135  1  0  0  0
 62136  1  0  0  0
 62137  1  0  0  0
 62138  1  0  0  0
 63 65  1  0  0  0
 63139  1  0  0  0
 63140  1  0  0  0
 63141  1  0  0  0
 64142  1  0  0  0
 65143  1  0  0  0
 68 81  1  0  0  0
 71 72  2  0  0  0
 71 76  1  0  0  0
 71 82  1  0  0  0
 72 77  1  0  0  0
 72 83  1  0  0  0
 73 74  1  0  0  0
 73 82  2  0  0  0
 73 83  1  0  0  0
 74144  1  0  0  0
 74145  1  0  0  0
 74146  1  0  0  0
 75 83  1  0  0  0
 75147  1  0  0  0
 75148  1  0  0  0
 75149  1  0  0  0
 76 78  1  0  0  0
 76150  1  0  0  0
 76151  1  0  0  0
 77 79  1  0  0  0
 77152  1  0  0  0
 77153  1  0  0  0
 78 81  1  0  0  0
 78154  1  0  0  0
 78155  1  0  0  0
 79 80  1  0  0  0
 79156  1  0  0  0
 79157  1  0  0  0
 80 84  1  0  0  0
 80158  1  0  0  0
 80159  1  0  0  0
 81160  1  0  0  0
 81161  1  0  0  0
 84162  1  0  0  0
M  ISO  4   1 100  68 101  81 101  84 100
M  END
> <chiral flag>
0

> <version>
0

> <s_m_source_file>
/data/baiqing/PycharmProjects/Reinvent-master-3.2/result/LINK_invent/BTK/process_docking_weight1_custom_sum_contain_oxygen_bond_distance_aromatic_linkinvent_7_9_3/rearranged_h_0045.sdf

> <i_m_source_file_index>
47

> <r_mmod_Potential_Energy-OPLS-2005>
-109.440338134766

> <r_mmod_Stretch_Energy-OPLS-2005>
48.735221862793

> <r_mmod_Bend_Energy-OPLS-2005>
115.87572479248

> <r_mmod_Torsional_Energy-OPLS-2005>
226.313171386719

> <r_mmod_Improper_Torsional_Energy-OPLS-2005>
6.34266090393066

> <r_mmod_Van_der_Waal_Energy-OPLS-2005>
128.513061523438

> <r_mmod_Electrostatic_Energy-OPLS-2005>
-433.184783935547

> <r_mmod_Solvation_Energy-OPLS-2005>
-225.691040039062

> <b_mmod_Minimization_Converged-OPLS-2005>
0

> <r_mmod_RMS_Derivative-OPLS-2005>
1.95516633987427

$$$$
47
                    3D
 Structure written by MMmdl.
168176  0  0  1  0            999 V2000
  -30.7276  -14.4597   20.4952 C   0  0  0  0  0  0
  -30.4059  -12.2717   19.4411 C   0  0  0  0  0  0
  -29.4957  -12.4701   18.2130 C   0  0  0  0  0  0
  -28.0115  -12.3562   18.6173 C   0  0  0  0  0  0
  -27.6572  -13.2088   19.8690 C   0  0  2  0  0  0
  -28.7043  -13.0311   20.9952 C   0  0  0  0  0  0
  -25.2589  -13.8190   20.5730 C   0  0  0  0  0  0
  -24.1854  -13.0452   20.9185 C   0  0  0  0  0  0
  -24.6385  -11.6912   20.8731 C   0  0  0  0  0  0
  -23.9064  -10.4288   21.0408 C   0  0  0  0  0  0
  -24.3640   -9.4225   21.9183 C   0  0  0  0  0  0
  -23.6300   -8.2280   22.0768 C   0  0  0  0  0  0
  -22.4277   -8.0306   21.3560 C   0  0  0  0  0  0
  -21.9891   -9.0256   20.4656 C   0  0  0  0  0  0
  -22.7231  -10.2117   20.3052 C   0  0  0  0  0  0
  -21.6841   -6.0756   22.5266 C   0  0  0  0  0  0
  -21.4004   -6.5660   23.8195 C   0  0  0  0  0  0
  -21.3667   -5.6801   24.9153 C   0  0  0  0  0  0
  -21.6059   -4.3068   24.7215 C   0  0  0  0  0  0
  -21.8827   -3.8158   23.4335 C   0  0  0  0  0  0
  -21.9198   -4.6981   22.3388 C   0  0  0  0  0  0
  -22.7853  -13.5222   21.1846 C   0  0  0  0  0  0
  -22.1661   -4.2173   21.0959 F   0  0  0  0  0  0
  -21.5654   -3.4551   25.7739 F   0  0  0  0  0  0
  -30.0314  -13.2954   20.4261 N   0  0  0  0  0  0
  -26.3012  -12.9347   20.3356 N   0  0  0  0  0  0
  -25.9318  -11.6499   20.5759 N   0  0  0  0  0  0
  -22.0553  -12.8167   22.0394 N   0  0  0  0  0  0
  -25.4369  -15.1932   20.4193 N   0  0  0  0  0  0
  -31.9086  -14.5547   20.1579 O   0  0  0  0  0  0
  -21.6671   -6.8881   21.4216 O   0  0  0  0  0  0
  -22.3504  -14.5513   20.6692 O   0  0  0  0  0  0
  -24.6119  -31.8728   23.2091 C   0  0  0  0  0  0
  -25.9006  -32.4864   23.8399 C   0  0  1  0  0  0
  -27.2401  -27.4563   20.0873 C   0  0  0  0  0  0
  -25.5882  -33.8665   24.2326 N   0  0  0  0  0  0
  -23.3986  -30.4929   21.5509 C   0  0  2  0  0  0
  -24.8453  -28.9579   20.1181 C   0  0  0  0  0  0
  -22.7420  -29.4656   22.5006 C   0  0  0  0  0  0
  -18.0279  -28.1386   22.8475 C   0  0  0  0  0  0
  -24.1499  -36.7308   23.2636 C   0  0  0  0  0  0
  -25.9254  -30.8441   21.3588 C   0  0  0  0  0  0
  -26.0035  -29.4780   20.7074 C   0  0  0  0  0  0
  -27.2050  -28.7368   20.6798 C   0  0  0  0  0  0
  -26.0606  -26.9379   19.5066 C   0  0  0  0  0  0
  -24.8682  -27.6894   19.5129 C   0  0  0  0  0  0
  -23.6059  -29.8245   20.1654 C   0  0  0  0  0  0
  -25.4124  -36.3139   24.0337 C   0  0  1  0  0  0
  -20.5867  -28.3668   23.1326 C   0  0  2  0  0  0
  -20.6787  -26.9416   22.5412 C   0  0  0  0  0  0
  -19.5766  -26.6387   21.5214 C   0  0  0  0  0  0
  -18.1934  -26.7935   22.1610 C   0  0  0  0  0  0
  -19.1523  -28.8843   23.2905 C   0  0  0  0  0  0
  -18.9461  -30.1450   23.8920 C   0  0  0  0  0  0
  -17.6465  -30.6593   24.0565 C   0  0  0  0  0  0
  -25.9040  -34.9499   23.5133 C   0  0  0  0  0  0
  -16.5354  -29.9101   23.6321 C   0  0  0  0  0  0
  -16.7273  -28.6513   23.0328 C   0  0  0  0  0  0
  -26.4439  -31.6645   25.0719 C   0  0  0  0  0  0
  -25.3692  -31.3752   26.1456 C   0  0  0  0  0  0
  -27.0262  -30.3102   24.6060 C   0  0  0  0  0  0
  -27.6025  -32.4377   25.7462 C   0  0  0  0  0  0
  -27.5601  -37.1805   24.8468 C   0  0  0  0  0  0
  -21.4153  -29.3037   22.3744 N   0  0  0  0  0  0
  -26.4314  -37.3811   23.9417 N   0  0  0  0  0  0
  -24.6624  -31.0838   22.0984 N   0  0  0  0  0  0
  -23.4198  -28.8228   23.3048 O   0  0  0  0  0  0
  -28.4411  -26.7855   20.0367 O   0  0  0  0  0  0
  -26.5603  -34.8939   22.4694 O   0  0  0  0  0  0
  -23.5308  -32.1457   23.7482 O   0  0  0  0  0  0
  -30.5170  -21.3080   21.1613 C   0  0  0  0  0  0
  -29.8272  -22.5488   21.2771 C   0  0  0  0  0  0
  -29.5566  -20.3490   21.3480 C   0  0  0  0  0  0
  -25.7870  -19.4650   23.8395 C   0  0  0  0  0  0
  -29.6682  -18.9039   18.8239 C   0  0  0  0  0  0
  -30.4106  -23.9393   21.2680 C   0  0  0  0  0  0
  -29.6757  -18.8442   21.4172 C   0  0  0  0  0  0
  -26.8585  -20.4661   23.4042 C   0  0  0  0  0  0
  -29.8846  -24.8645   20.1517 C   0  0  0  0  0  0
  -27.0600  -20.5020   21.8796 C   0  0  0  0  0  0
  -30.4531  -16.8337   20.0096 C   0  0  0  0  0  0
  -28.4458  -25.3927   20.3499 C   0  0  0  0  0  0
  -29.4896  -18.0447   20.0940 C   0  0  2  0  0  0
  -28.5386  -22.3717   21.5150 N   0  0  0  0  0  0
  -28.3691  -21.0311   21.5511 N   0  0  0  0  0  0
  -29.9890  -15.5779   20.6225 N   0  0  0  0  0  0
  -31.4552  -12.3317   19.1480 H   0  0  0  0  0  0
  -30.2684  -11.2747   19.8666 H   0  0  0  0  0  0
  -29.7253  -11.7245   17.4540 H   0  0  0  0  0  0
  -29.6856  -13.4418   17.7550 H   0  0  0  0  0  0
  -27.8046  -11.3006   18.8066 H   0  0  0  0  0  0
  -27.3702  -12.6400   17.7801 H   0  0  0  0  0  0
  -27.6875  -14.2494   19.5487 H   0  0  0  0  0  0
  -28.6752  -12.0146   21.3924 H   0  0  0  0  0  0
  -28.4944  -13.6870   21.8421 H   0  0  0  0  0  0
  -25.2828   -9.5715   22.4706 H   0  0  0  0  0  0
  -24.0067   -7.4660   22.7432 H   0  0  0  0  0  0
  -21.0857   -8.8684   19.8923 H   0  0  0  0  0  0
  -22.3693  -10.9619   19.6132 H   0  0  0  0  0  0
  -21.1957   -7.6156   23.9704 H   0  0  0  0  0  0
  -21.1483   -6.0533   25.9038 H   0  0  0  0  0  0
  -22.0605   -2.7625   23.2826 H   0  0  0  0  0  0
  -22.4216  -11.9826   22.4749 H   0  0  0  0  0  0
  -21.1167  -13.1144   22.2633 H   0  0  0  0  0  0
  -24.6830  -15.8631   20.5384 H   0  0  0  0  0  0
  -26.3036  -15.6276   20.1251 H   0  0  0  0  0  0
  -26.7087  -32.5579   23.1176 H   0  0  0  0  0  0
  -25.0111  -33.9870   25.0521 H   0  0  0  0  0  0
  -22.6842  -31.3070   21.4127 H   0  0  0  0  0  0
  -23.3793  -35.9611   23.3318 H   0  0  0  0  0  0
  -24.3594  -36.8900   22.2051 H   0  0  0  0  0  0
  -23.7215  -37.6496   23.6641 H   0  0  0  0  0  0
  -26.0324  -31.6133   20.5910 H   0  0  0  0  0  0
  -26.8129  -30.8987   21.9761 H   0  0  0  0  0  0
  -28.1076  -29.1473   21.1110 H   0  0  0  0  0  0
  -26.0550  -25.9751   19.0179 H   0  0  0  0  0  0
  -23.9785  -27.2900   19.0451 H   0  0  0  0  0  0
  -23.7130  -30.5999   19.4067 H   0  0  0  0  0  0
  -22.7305  -29.2462   19.8679 H   0  0  0  0  0  0
  -25.1304  -36.2008   25.0830 H   0  0  0  0  0  0
  -20.9948  -28.3241   24.1451 H   0  0  0  0  0  0
  -20.5742  -26.2280   23.3598 H   0  0  0  0  0  0
  -21.6658  -26.7505   22.1180 H   0  0  0  0  0  0
  -19.6950  -25.6297   21.1251 H   0  0  0  0  0  0
  -19.6714  -27.3203   20.6750 H   0  0  0  0  0  0
  -17.4220  -26.6689   21.4000 H   0  0  0  0  0  0
  -18.0328  -26.0065   22.8996 H   0  0  0  0  0  0
  -19.7935  -30.7253   24.2304 H   0  0  0  0  0  0
  -17.5019  -31.6275   24.5178 H   0  0  0  0  0  0
  -15.5357  -30.3018   23.7622 H   0  0  0  0  0  0
  -15.8664  -28.0853   22.7020 H   0  0  0  0  0  0
  -24.5868  -30.7101   25.7787 H   0  0  0  0  0  0
  -24.8855  -32.2899   26.4899 H   0  0  0  0  0  0
  -25.7997  -30.8925   27.0231 H   0  0  0  0  0  0
  -26.2782  -29.6893   24.1108 H   0  0  0  0  0  0
  -27.4073  -29.7317   25.4487 H   0  0  0  0  0  0
  -27.8602  -30.4484   23.9168 H   0  0  0  0  0  0
  -27.2672  -33.3718   26.1998 H   0  0  0  0  0  0
  -28.3817  -32.6887   25.0248 H   0  0  0  0  0  0
  -28.0700  -31.8526   26.5395 H   0  0  0  0  0  0
  -28.2608  -38.0114   24.7561 H   0  0  0  0  0  0
  -28.1105  -36.2652   24.6248 H   0  0  0  0  0  0
  -27.2323  -37.1396   25.8867 H   0  0  0  0  0  0
  -20.9331  -29.8720   21.6927 H   0  0  0  0  0  0
  -26.0218  -38.2894   24.1414 H   0  0  0  0  0  0
  -31.5754  -21.1498   21.0105 H   0  0  0  0  0  0
  -25.5210  -19.6093   24.8875 H   0  0  0  0  0  0
  -26.1491  -18.4433   23.7213 H   0  0  0  0  0  0
  -24.8808  -19.5725   23.2441 H   0  0  0  0  0  0
  -28.9747  -19.7427   18.7902 H   0  0  0  0  0  0
  -29.4765  -18.3148   17.9236 H   0  0  0  0  0  0
  -30.6813  -19.2996   18.7466 H   0  0  0  0  0  0
  -31.4925  -23.8587   21.1485 H   0  0  0  0  0  0
  -30.2737  -24.4121   22.2416 H   0  0  0  0  0  0
  -28.9864  -18.4501   22.1624 H   0  0  0  0  0  0
  -30.6614  -18.6289   21.8237 H   0  0  0  0  0  0
  -27.7979  -20.2090   23.8926 H   0  0  0  0  0  0
  -26.6009  -21.4677   23.7501 H   0  0  0  0  0  0
  -29.9805  -24.3846   19.1756 H   0  0  0  0  0  0
  -30.5590  -25.7223   20.1188 H   0  0  0  0  0  0
  -26.2964  -21.1226   21.4073 H   0  0  0  0  0  0
  -26.9648  -19.5068   21.4459 H   0  0  0  0  0  0
  -31.4348  -17.1043   20.4016 H   0  0  0  0  0  0
  -30.6257  -16.6084   18.9571 H   0  0  0  0  0  0
  -28.1218  -25.2716   21.3873 H   0  0  0  0  0  0
  -27.7633  -24.8212   19.7236 H   0  0  0  0  0  0
  -28.4602  -17.6861   20.0555 H   0  0  0  0  0  0
  -29.0122  -15.4800   20.8504 H   0  0  0  0  0  0
  1 25  1  0  0  0
  1 30  2  0  0  0
  1 86  1  0  0  0
  2  3  1  0  0  0
  2 25  1  0  0  0
  2 87  1  0  0  0
  2 88  1  0  0  0
  3  4  1  0  0  0
  3 89  1  0  0  0
  3 90  1  0  0  0
  4  5  1  0  0  0
  4 91  1  0  0  0
  4 92  1  0  0  0
  5  6  1  0  0  0
  5 26  1  0  0  0
  5 93  1  0  0  0
  6 25  1  0  0  0
  6 94  1  0  0  0
  6 95  1  0  0  0
  7  8  2  0  0  0
  7 26  1  0  0  0
  7 29  1  0  0  0
  8  9  1  0  0  0
  8 22  1  0  0  0
  9 10  1  0  0  0
  9 27  2  0  0  0
 10 11  2  0  0  0
 10 15  1  0  0  0
 11 12  1  0  0  0
 11 96  1  0  0  0
 12 13  2  0  0  0
 12 97  1  0  0  0
 13 14  1  0  0  0
 13 31  1  0  0  0
 14 15  2  0  0  0
 14 98  1  0  0  0
 15 99  1  0  0  0
 16 17  2  0  0  0
 16 21  1  0  0  0
 16 31  1  0  0  0
 17 18  1  0  0  0
 17100  1  0  0  0
 18 19  2  0  0  0
 18101  1  0  0  0
 19 20  1  0  0  0
 19 24  1  0  0  0
 20 21  2  0  0  0
 20102  1  0  0  0
 21 23  1  0  0  0
 22 28  1  0  0  0
 22 32  2  0  0  0
 26 27  1  0  0  0
 28103  1  0  0  0
 28104  1  0  0  0
 29105  1  0  0  0
 29106  1  0  0  0
 33 34  1  0  0  0
 33 66  1  0  0  0
 33 70  2  0  0  0
 34 36  1  0  0  0
 34 59  1  0  0  0
 34107  1  0  0  0
 35 44  2  0  0  0
 35 45  1  0  0  0
 35 68  1  0  0  0
 36 56  1  0  0  0
 36108  1  0  0  0
 37 39  1  0  0  0
 37 47  1  0  0  0
 37 66  1  0  0  0
 37109  1  0  0  0
 38 43  2  0  0  0
 38 46  1  0  0  0
 38 47  1  0  0  0
 39 64  1  0  0  0
 39 67  2  0  0  0
 40 52  1  0  0  0
 40 53  2  0  0  0
 40 58  1  0  0  0
 41110  1  0  0  0
 41111  1  0  0  0
 41112  1  0  0  0
 41 48  1  0  0  0
 42 43  1  0  0  0
 42 66  1  0  0  0
 42113  1  0  0  0
 42114  1  0  0  0
 43 44  1  0  0  0
 44115  1  0  0  0
 45 46  2  0  0  0
 45116  1  0  0  0
 46117  1  0  0  0
 47118  1  0  0  0
 47119  1  0  0  0
 48 56  1  0  0  0
 48 65  1  0  0  0
 48120  1  0  0  0
 49 50  1  0  0  0
 49 53  1  0  0  0
 49 64  1  0  0  0
 49121  1  0  0  0
 50 51  1  0  0  0
 50122  1  0  0  0
 50123  1  0  0  0
 51 52  1  0  0  0
 51124  1  0  0  0
 51125  1  0  0  0
 52126  1  0  0  0
 52127  1  0  0  0
 53 54  1  0  0  0
 54 55  2  0  0  0
 54128  1  0  0  0
 55 57  1  0  0  0
 55129  1  0  0  0
 56 69  2  0  0  0
 57 58  2  0  0  0
 57130  1  0  0  0
 58131  1  0  0  0
 59 60  1  0  0  0
 59 61  1  0  0  0
 59 62  1  0  0  0
 60132  1  0  0  0
 60133  1  0  0  0
 60134  1  0  0  0
 61135  1  0  0  0
 61136  1  0  0  0
 61137  1  0  0  0
 62138  1  0  0  0
 62139  1  0  0  0
 62140  1  0  0  0
 63 65  1  0  0  0
 63141  1  0  0  0
 63142  1  0  0  0
 63143  1  0  0  0
 64144  1  0  0  0
 65145  1  0  0  0
 68 82  1  0  0  0
 71 72  1  0  0  0
 71 73  2  0  0  0
 71146  1  0  0  0
 72 76  1  0  0  0
 72 84  2  0  0  0
 73 77  1  0  0  0
 73 85  1  0  0  0
 74 78  1  0  0  0
 74147  1  0  0  0
 74148  1  0  0  0
 74149  1  0  0  0
 75150  1  0  0  0
 75151  1  0  0  0
 75152  1  0  0  0
 75 83  1  0  0  0
 76 79  1  0  0  0
 76153  1  0  0  0
 76154  1  0  0  0
 77 83  1  0  0  0
 77155  1  0  0  0
 77156  1  0  0  0
 78 80  1  0  0  0
 78157  1  0  0  0
 78158  1  0  0  0
 79 82  1  0  0  0
 79159  1  0  0  0
 79160  1  0  0  0
 80 85  1  0  0  0
 80161  1  0  0  0
 80162  1  0  0  0
 81 83  1  0  0  0
 81 86  1  0  0  0
 81163  1  0  0  0
 81164  1  0  0  0
 82165  1  0  0  0
 82166  1  0  0  0
 83167  1  0  0  0
 84 85  1  0  0  0
 86168  1  0  0  0
M  ISO  4   1 100  68 101  82 101  86 100
M  END
> <chiral flag>
0

> <version>
0

> <s_m_source_file>
/data/baiqing/PycharmProjects/Reinvent-master-3.2/result/LINK_invent/BTK/process_docking_weight1_custom_sum_contain_oxygen_bond_distance_aromatic_linkinvent_7_9_3/rearranged_h_0045.sdf

> <i_m_source_file_index>
48

> <r_mmod_Potential_Energy-OPLS-2005>
-85.4371719360352

> <r_mmod_Stretch_Energy-OPLS-2005>
33.4106941223145

> <r_mmod_Bend_Energy-OPLS-2005>
101.963722229004

> <r_mmod_Torsional_Energy-OPLS-2005>
258.644561767578

> <r_mmod_Improper_Torsional_Energy-OPLS-2005>
9.95921039581299

> <r_mmod_Van_der_Waal_Energy-OPLS-2005>
126.975631713867

> <r_mmod_Electrostatic_Energy-OPLS-2005>
-421.980682373047

> <r_mmod_Solvation_Energy-OPLS-2005>
-211.993133544922

> <b_mmod_Minimization_Converged-OPLS-2005>
0

> <r_mmod_RMS_Derivative-OPLS-2005>
4.47988128662109

$$$$
48
                    3D
 Structure written by MMmdl.
166174  0  0  1  0            999 V2000
  -30.7140  -14.4574   20.6257 C   0  0  0  0  0  0
  -30.4221  -12.3207   19.4079 C   0  0  0  0  0  0
  -29.4833  -12.5222   18.1995 C   0  0  0  0  0  0
  -28.0064  -12.3796   18.6175 C   0  0  0  0  0  0
  -27.6623  -13.2067   19.8846 C   0  0  2  0  0  0
  -28.7063  -12.9682   20.9982 C   0  0  0  0  0  0
  -25.2599  -13.8169   20.5727 C   0  0  0  0  0  0
  -24.1839  -13.0450   20.9191 C   0  0  0  0  0  0
  -24.6390  -11.6914   20.8758 C   0  0  0  0  0  0
  -23.9065  -10.4297   21.0419 C   0  0  0  0  0  0
  -24.3624   -9.4213   21.9190 C   0  0  0  0  0  0
  -23.6310   -8.2243   22.0748 C   0  0  0  0  0  0
  -22.4289   -8.0284   21.3538 C   0  0  0  0  0  0
  -21.9927   -9.0261   20.4648 C   0  0  0  0  0  0
  -22.7243  -10.2144   20.3065 C   0  0  0  0  0  0
  -21.6855   -6.0754   22.5278 C   0  0  0  0  0  0
  -21.3998   -6.5649   23.8211 C   0  0  0  0  0  0
  -21.3660   -5.6796   24.9167 C   0  0  0  0  0  0
  -21.6051   -4.3062   24.7220 C   0  0  0  0  0  0
  -21.8821   -3.8163   23.4334 C   0  0  0  0  0  0
  -21.9193   -4.6984   22.3399 C   0  0  0  0  0  0
  -22.7865  -13.5243   21.1868 C   0  0  0  0  0  0
  -22.1667   -4.2176   21.0977 F   0  0  0  0  0  0
  -21.5649   -3.4534   25.7726 F   0  0  0  0  0  0
  -30.0362  -13.2897   20.4482 N   0  0  0  0  0  0
  -26.3034  -12.9335   20.3448 N   0  0  0  0  0  0
  -25.9319  -11.6490   20.5806 N   0  0  0  0  0  0
  -22.0526  -12.8210   22.0418 N   0  0  0  0  0  0
  -25.4394  -15.1873   20.4118 N   0  0  0  0  0  0
  -31.8066  -14.6834   20.0967 O   0  0  0  0  0  0
  -21.6648   -6.8887   21.4234 O   0  0  0  0  0  0
  -22.3534  -14.5543   20.6718 O   0  0  0  0  0  0
  -24.6174  -31.8643   23.2065 C   0  0  0  0  0  0
  -25.9050  -32.4802   23.8373 C   0  0  1  0  0  0
  -27.2289  -27.3937   20.1096 C   0  0  0  0  0  0
  -25.5880  -33.8600   24.2294 N   0  0  0  0  0  0
  -23.4072  -30.4880   21.5479 C   0  0  2  0  0  0
  -24.8542  -28.9562   20.1089 C   0  0  0  0  0  0
  -22.7436  -29.4640   22.4969 C   0  0  0  0  0  0
  -18.0274  -28.1371   22.8483 C   0  0  0  0  0  0
  -24.1481  -36.7321   23.2642 C   0  0  0  0  0  0
  -25.9402  -30.8229   21.3631 C   0  0  0  0  0  0
  -26.0188  -29.4562   20.7069 C   0  0  0  0  0  0
  -27.2100  -28.6869   20.6951 C   0  0  0  0  0  0
  -26.0431  -26.9272   19.4923 C   0  0  0  0  0  0
  -24.8666  -27.6959   19.4916 C   0  0  0  0  0  0
  -23.6151  -29.8219   20.1620 C   0  0  0  0  0  0
  -25.4101  -36.3099   24.0333 C   0  0  1  0  0  0
  -20.5871  -28.3660   23.1301 C   0  0  2  0  0  0
  -20.6754  -26.9386   22.5418 C   0  0  0  0  0  0
  -19.5737  -26.6376   21.5210 C   0  0  0  0  0  0
  -18.1913  -26.7912   22.1620 C   0  0  0  0  0  0
  -19.1527  -28.8835   23.2886 C   0  0  0  0  0  0
  -18.9458  -30.1443   23.8892 C   0  0  0  0  0  0
  -17.6460  -30.6576   24.0565 C   0  0  0  0  0  0
  -25.9034  -34.9463   23.5120 C   0  0  0  0  0  0
  -16.5349  -29.9078   23.6330 C   0  0  0  0  0  0
  -16.7265  -28.6500   23.0339 C   0  0  0  0  0  0
  -26.4458  -31.6594   25.0719 C   0  0  0  0  0  0
  -25.3719  -31.3712   26.1476 C   0  0  0  0  0  0
  -27.0289  -30.3028   24.6123 C   0  0  0  0  0  0
  -27.6028  -32.4326   25.7477 C   0  0  0  0  0  0
  -27.5578  -37.1799   24.8458 C   0  0  0  0  0  0
  -21.4161  -29.3023   22.3716 N   0  0  0  0  0  0
  -26.4280  -37.3790   23.9419 N   0  0  0  0  0  0
  -24.6737  -31.0730   22.0970 N   0  0  0  0  0  0
  -23.4196  -28.8186   23.3025 O   0  0  0  0  0  0
  -28.3708  -26.6043   20.1646 O   0  0  0  0  0  0
  -26.5625  -34.8925   22.4698 O   0  0  0  0  0  0
  -23.5359  -32.1409   23.7442 O   0  0  0  0  0  0
  -30.0958  -21.8140   21.2089 C   0  0  0  0  0  0
  -27.9670  -22.1162   20.6713 C   0  0  0  0  0  0
  -29.1387  -22.8082   20.8254 C   0  0  0  0  0  0
  -29.4975  -20.5809   21.3302 C   0  0  0  0  0  0
  -25.4103  -17.9019   24.0462 C   0  0  0  0  0  0
  -29.3842  -24.3200   20.6631 C   0  0  0  0  0  0
  -30.1271  -19.2832   21.8430 C   0  0  0  0  0  0
  -25.7342  -18.2434   22.5872 C   0  0  0  0  0  0
  -29.7398  -17.9039   21.2257 C   0  0  0  0  0  0
  -26.6857  -19.4420   22.4838 C   0  0  0  0  0  0
  -27.0654  -19.8106   21.0389 C   0  0  0  0  0  0
  -30.5936  -16.7184   21.7627 C   0  0  0  0  0  0
  -28.1570  -25.1669   20.2161 C   0  0  0  0  0  0
  -28.1528  -20.7817   21.0107 N   0  0  0  0  0  0
  -30.0867  -15.3887   21.3700 N   0  0  0  0  0  0
  -31.4617  -12.4358   19.0948 H   0  0  0  0  0  0
  -30.3399  -11.3025   19.7935 H   0  0  0  0  0  0
  -29.7164  -11.8070   17.4110 H   0  0  0  0  0  0
  -29.6450  -13.5127   17.7709 H   0  0  0  0  0  0
  -27.8068  -11.3222   18.7966 H   0  0  0  0  0  0
  -27.3559  -12.6748   17.7927 H   0  0  0  0  0  0
  -27.7125  -14.2583   19.5998 H   0  0  0  0  0  0
  -28.6903  -11.9257   21.3181 H   0  0  0  0  0  0
  -28.4608  -13.5402   21.8935 H   0  0  0  0  0  0
  -25.2778   -9.5690   22.4751 H   0  0  0  0  0  0
  -24.0045   -7.4616   22.7432 H   0  0  0  0  0  0
  -21.0884   -8.8765   19.8935 H   0  0  0  0  0  0
  -22.3712  -10.9683   19.6173 H   0  0  0  0  0  0
  -21.1961   -7.6152   23.9716 H   0  0  0  0  0  0
  -21.1490   -6.0529   25.9069 H   0  0  0  0  0  0
  -22.0603   -2.7628   23.2826 H   0  0  0  0  0  0
  -22.4164  -11.9861   22.4780 H   0  0  0  0  0  0
  -21.1139  -13.1217   22.2630 H   0  0  0  0  0  0
  -24.6933  -15.8601   20.5417 H   0  0  0  0  0  0
  -26.3122  -15.6137   20.1290 H   0  0  0  0  0  0
  -26.7127  -32.5498   23.1140 H   0  0  0  0  0  0
  -24.9959  -33.9756   25.0390 H   0  0  0  0  0  0
  -22.6970  -31.3056   21.4080 H   0  0  0  0  0  0
  -23.3731  -35.9665   23.3295 H   0  0  0  0  0  0
  -24.3584  -36.8954   22.2062 H   0  0  0  0  0  0
  -23.7251  -37.6524   23.6671 H   0  0  0  0  0  0
  -26.0583  -31.5890   20.5968 H   0  0  0  0  0  0
  -26.8258  -30.8735   21.9839 H   0  0  0  0  0  0
  -28.1065  -29.0675   21.1658 H   0  0  0  0  0  0
  -26.0022  -25.9626   19.0097 H   0  0  0  0  0  0
  -23.9756  -27.3081   19.0169 H   0  0  0  0  0  0
  -23.7144  -30.5957   19.3999 H   0  0  0  0  0  0
  -22.7395  -29.2371   19.8718 H   0  0  0  0  0  0
  -25.1274  -36.1950   25.0822 H   0  0  0  0  0  0
  -20.9957  -28.3213   24.1424 H   0  0  0  0  0  0
  -20.5631  -26.2264   23.3607 H   0  0  0  0  0  0
  -21.6621  -26.7402   22.1218 H   0  0  0  0  0  0
  -19.6893  -25.6294   21.1218 H   0  0  0  0  0  0
  -19.6670  -27.3202   20.6750 H   0  0  0  0  0  0
  -17.4179  -26.6664   21.4025 H   0  0  0  0  0  0
  -18.0315  -26.0052   22.9016 H   0  0  0  0  0  0
  -19.7938  -30.7264   24.2236 H   0  0  0  0  0  0
  -17.5019  -31.6252   24.5176 H   0  0  0  0  0  0
  -15.5349  -30.2981   23.7663 H   0  0  0  0  0  0
  -15.8662  -28.0838   22.7030 H   0  0  0  0  0  0
  -24.5870  -30.7087   25.7816 H   0  0  0  0  0  0
  -24.8939  -32.2870   26.4956 H   0  0  0  0  0  0
  -25.8068  -30.8849   27.0220 H   0  0  0  0  0  0
  -26.2840  -29.6797   24.1168 H   0  0  0  0  0  0
  -27.4032  -29.7267   25.4595 H   0  0  0  0  0  0
  -27.8681  -30.4334   23.9294 H   0  0  0  0  0  0
  -27.2637  -33.3622   26.2065 H   0  0  0  0  0  0
  -28.3817  -32.6903   25.0290 H   0  0  0  0  0  0
  -28.0716  -31.8452   26.5385 H   0  0  0  0  0  0
  -28.2566  -38.0120   24.7529 H   0  0  0  0  0  0
  -28.1093  -36.2654   24.6228 H   0  0  0  0  0  0
  -27.2311  -37.1391   25.8862 H   0  0  0  0  0  0
  -20.9331  -29.8754   21.6943 H   0  0  0  0  0  0
  -26.0159  -38.2857   24.1440 H   0  0  0  0  0  0
  -31.1383  -21.9982   21.4316 H   0  0  0  0  0  0
  -26.9843  -22.4655   20.3828 H   0  0  0  0  0  0
  -24.7116  -17.0677   24.1130 H   0  0  0  0  0  0
  -24.9627  -18.7521   24.5623 H   0  0  0  0  0  0
  -26.3105  -17.6212   24.5944 H   0  0  0  0  0  0
  -30.2028  -24.4600   19.9556 H   0  0  0  0  0  0
  -29.7418  -24.6941   21.6222 H   0  0  0  0  0  0
  -29.9640  -19.2296   22.9199 H   0  0  0  0  0  0
  -31.2087  -19.3847   21.7414 H   0  0  0  0  0  0
  -24.8119  -18.4488   22.0416 H   0  0  0  0  0  0
  -26.1903  -17.3745   22.1110 H   0  0  0  0  0  0
  -29.8262  -17.9486   20.1405 H   0  0  0  0  0  0
  -28.7036  -17.6775   21.4607 H   0  0  0  0  0  0
  -27.5852  -19.2205   23.0563 H   0  0  0  0  0  0
  -26.2359  -20.3121   22.9639 H   0  0  0  0  0  0
  -26.1967  -20.2369   20.5346 H   0  0  0  0  0  0
  -27.3379  -18.9436   20.4405 H   0  0  0  0  0  0
  -30.5902  -16.7435   22.8543 H   0  0  0  0  0  0
  -31.6378  -16.8404   21.4689 H   0  0  0  0  0  0
  -27.3419  -24.9619   20.9144 H   0  0  0  0  0  0
  -27.8431  -24.8101   19.2347 H   0  0  0  0  0  0
  -29.1947  -15.1126   21.7546 H   0  0  0  0  0  0
  1 25  1  0  0  0
  1 30  2  0  0  0
  1 85  1  0  0  0
  2  3  1  0  0  0
  2 25  1  0  0  0
  2 86  1  0  0  0
  2 87  1  0  0  0
  3  4  1  0  0  0
  3 88  1  0  0  0
  3 89  1  0  0  0
  4  5  1  0  0  0
  4 90  1  0  0  0
  4 91  1  0  0  0
  5  6  1  0  0  0
  5 26  1  0  0  0
  5 92  1  0  0  0
  6 25  1  0  0  0
  6 93  1  0  0  0
  6 94  1  0  0  0
  7  8  2  0  0  0
  7 26  1  0  0  0
  7 29  1  0  0  0
  8  9  1  0  0  0
  8 22  1  0  0  0
  9 10  1  0  0  0
  9 27  2  0  0  0
 10 11  2  0  0  0
 10 15  1  0  0  0
 11 12  1  0  0  0
 11 95  1  0  0  0
 12 13  2  0  0  0
 12 96  1  0  0  0
 13 14  1  0  0  0
 13 31  1  0  0  0
 14 15  2  0  0  0
 14 97  1  0  0  0
 15 98  1  0  0  0
 16 17  2  0  0  0
 16 21  1  0  0  0
 16 31  1  0  0  0
 17 18  1  0  0  0
 17 99  1  0  0  0
 18 19  2  0  0  0
 18100  1  0  0  0
 19 20  1  0  0  0
 19 24  1  0  0  0
 20 21  2  0  0  0
 20101  1  0  0  0
 21 23  1  0  0  0
 22 28  1  0  0  0
 22 32  2  0  0  0
 26 27  1  0  0  0
 28102  1  0  0  0
 28103  1  0  0  0
 29104  1  0  0  0
 29105  1  0  0  0
 33 34  1  0  0  0
 33 66  1  0  0  0
 33 70  2  0  0  0
 34 36  1  0  0  0
 34 59  1  0  0  0
 34106  1  0  0  0
 35 44  2  0  0  0
 35 45  1  0  0  0
 35 68  1  0  0  0
 36 56  1  0  0  0
 36107  1  0  0  0
 37 39  1  0  0  0
 37 47  1  0  0  0
 37 66  1  0  0  0
 37108  1  0  0  0
 38 43  2  0  0  0
 38 46  1  0  0  0
 38 47  1  0  0  0
 39 64  1  0  0  0
 39 67  2  0  0  0
 40 52  1  0  0  0
 40 53  2  0  0  0
 40 58  1  0  0  0
 41109  1  0  0  0
 41110  1  0  0  0
 41111  1  0  0  0
 41 48  1  0  0  0
 42 43  1  0  0  0
 42 66  1  0  0  0
 42112  1  0  0  0
 42113  1  0  0  0
 43 44  1  0  0  0
 44114  1  0  0  0
 45 46  2  0  0  0
 45115  1  0  0  0
 46116  1  0  0  0
 47117  1  0  0  0
 47118  1  0  0  0
 48 56  1  0  0  0
 48 65  1  0  0  0
 48119  1  0  0  0
 49 50  1  0  0  0
 49 53  1  0  0  0
 49 64  1  0  0  0
 49120  1  0  0  0
 50 51  1  0  0  0
 50121  1  0  0  0
 50122  1  0  0  0
 51 52  1  0  0  0
 51123  1  0  0  0
 51124  1  0  0  0
 52125  1  0  0  0
 52126  1  0  0  0
 53 54  1  0  0  0
 54 55  2  0  0  0
 54127  1  0  0  0
 55 57  1  0  0  0
 55128  1  0  0  0
 56 69  2  0  0  0
 57 58  2  0  0  0
 57129  1  0  0  0
 58130  1  0  0  0
 59 60  1  0  0  0
 59 61  1  0  0  0
 59 62  1  0  0  0
 60131  1  0  0  0
 60132  1  0  0  0
 60133  1  0  0  0
 61134  1  0  0  0
 61135  1  0  0  0
 61136  1  0  0  0
 62137  1  0  0  0
 62138  1  0  0  0
 62139  1  0  0  0
 63 65  1  0  0  0
 63140  1  0  0  0
 63141  1  0  0  0
 63142  1  0  0  0
 64143  1  0  0  0
 65144  1  0  0  0
 68 83  1  0  0  0
 71 73  1  0  0  0
 71 74  2  0  0  0
 71145  1  0  0  0
 72 73  2  0  0  0
 72 84  1  0  0  0
 72146  1  0  0  0
 73 76  1  0  0  0
 74 77  1  0  0  0
 74 84  1  0  0  0
 75 78  1  0  0  0
 75147  1  0  0  0
 75148  1  0  0  0
 75149  1  0  0  0
 76 83  1  0  0  0
 76150  1  0  0  0
 76151  1  0  0  0
 77 79  1  0  0  0
 77152  1  0  0  0
 77153  1  0  0  0
 78 80  1  0  0  0
 78154  1  0  0  0
 78155  1  0  0  0
 79 82  1  0  0  0
 79156  1  0  0  0
 79157  1  0  0  0
 80 81  1  0  0  0
 80158  1  0  0  0
 80159  1  0  0  0
 81 84  1  0  0  0
 81160  1  0  0  0
 81161  1  0  0  0
 82 85  1  0  0  0
 82162  1  0  0  0
 82163  1  0  0  0
 83164  1  0  0  0
 83165  1  0  0  0
 85166  1  0  0  0
M  ISO  4   1 100  68 101  83 101  85 100
M  END
> <chiral flag>
0

> <version>
0

> <s_m_source_file>
/data/baiqing/PycharmProjects/Reinvent-master-3.2/result/LINK_invent/BTK/process_docking_weight1_custom_sum_contain_oxygen_bond_distance_aromatic_linkinvent_7_9_3/rearranged_h_0045.sdf

> <i_m_source_file_index>
49

> <r_mmod_Potential_Energy-OPLS-2005>
-57.5352401733398

> <r_mmod_Stretch_Energy-OPLS-2005>
43.7347259521484

> <r_mmod_Bend_Energy-OPLS-2005>
109.794624328613

> <r_mmod_Torsional_Energy-OPLS-2005>
211.154968261719

> <r_mmod_Improper_Torsional_Energy-OPLS-2005>
2.37297701835632

> <r_mmod_Van_der_Waal_Energy-OPLS-2005>
123.535186767578

> <r_mmod_Electrostatic_Energy-OPLS-2005>
-355.427337646484

> <r_mmod_Solvation_Energy-OPLS-2005>
-208.636016845703

> <b_mmod_Minimization_Converged-OPLS-2005>
0

> <r_mmod_RMS_Derivative-OPLS-2005>
2.20278191566467

$$$$
49
                    3D
 Structure written by MMmdl.
158166  0  0  1  0            999 V2000
  -30.6659  -14.6129   20.5449 C   0  0  0  0  0  0
  -30.4351  -12.3902   19.4498 C   0  0  0  0  0  0
  -29.5022  -12.4965   18.2225 C   0  0  0  0  0  0
  -28.0254  -12.3388   18.6361 C   0  0  0  0  0  0
  -27.6542  -13.2096   19.8649 C   0  0  2  0  0  0
  -28.6965  -13.0318   20.9863 C   0  0  0  0  0  0
  -25.2577  -13.8162   20.5660 C   0  0  0  0  0  0
  -24.1833  -13.0441   20.9171 C   0  0  0  0  0  0
  -24.6385  -11.6905   20.8739 C   0  0  0  0  0  0
  -23.9046  -10.4289   21.0409 C   0  0  0  0  0  0
  -24.3599   -9.4204   21.9190 C   0  0  0  0  0  0
  -23.6269   -8.2242   22.0760 C   0  0  0  0  0  0
  -22.4263   -8.0278   21.3539 C   0  0  0  0  0  0
  -21.9898   -9.0244   20.4635 C   0  0  0  0  0  0
  -22.7223  -10.2128   20.3042 C   0  0  0  0  0  0
  -21.6849   -6.0727   22.5276 C   0  0  0  0  0  0
  -21.4015   -6.5634   23.8209 C   0  0  0  0  0  0
  -21.3658   -5.6785   24.9174 C   0  0  0  0  0  0
  -21.6045   -4.3049   24.7224 C   0  0  0  0  0  0
  -21.8822   -3.8138   23.4345 C   0  0  0  0  0  0
  -21.9198   -4.6953   22.3402 C   0  0  0  0  0  0
  -22.7859  -13.5238   21.1841 C   0  0  0  0  0  0
  -22.1655   -4.2138   21.0979 F   0  0  0  0  0  0
  -21.5637   -3.4535   25.7735 F   0  0  0  0  0  0
  -30.0073  -13.4095   20.4342 N   0  0  0  0  0  0
  -26.2994  -12.9326   20.3324 N   0  0  0  0  0  0
  -25.9317  -11.6490   20.5775 N   0  0  0  0  0  0
  -22.0488  -12.8219   22.0381 N   0  0  0  0  0  0
  -25.4317  -15.1865   20.4032 N   0  0  0  0  0  0
  -31.8082  -14.7302   20.0872 O   0  0  0  0  0  0
  -21.6636   -6.8875   21.4237 O   0  0  0  0  0  0
  -22.3546  -14.5551   20.6706 O   0  0  0  0  0  0
  -24.6234  -31.8612   23.2025 C   0  0  0  0  0  0
  -25.9084  -32.4795   23.8351 C   0  0  1  0  0  0
  -27.2259  -27.3444   20.1122 C   0  0  0  0  0  0
  -25.5907  -33.8584   24.2293 N   0  0  0  0  0  0
  -23.4175  -30.4834   21.5453 C   0  0  2  0  0  0
  -24.8681  -28.9409   20.1111 C   0  0  0  0  0  0
  -22.7476  -29.4626   22.4945 C   0  0  0  0  0  0
  -18.0285  -28.1369   22.8490 C   0  0  0  0  0  0
  -24.1490  -36.7299   23.2638 C   0  0  0  0  0  0
  -25.9549  -30.8021   21.3642 C   0  0  0  0  0  0
  -26.0361  -29.4274   20.7142 C   0  0  0  0  0  0
  -27.2243  -28.6395   20.7090 C   0  0  0  0  0  0
  -26.0436  -26.9085   19.4815 C   0  0  0  0  0  0
  -24.8712  -27.6847   19.4863 C   0  0  0  0  0  0
  -23.6323  -29.8142   20.1621 C   0  0  0  0  0  0
  -25.4105  -36.3086   24.0329 C   0  0  1  0  0  0
  -20.5888  -28.3674   23.1278 C   0  0  2  0  0  0
  -20.6773  -26.9406   22.5384 C   0  0  0  0  0  0
  -19.5745  -26.6396   21.5181 C   0  0  0  0  0  0
  -18.1932  -26.7920   22.1613 C   0  0  0  0  0  0
  -19.1541  -28.8835   23.2880 C   0  0  0  0  0  0
  -18.9461  -30.1434   23.8905 C   0  0  0  0  0  0
  -17.6464  -30.6578   24.0556 C   0  0  0  0  0  0
  -25.9040  -34.9457   23.5114 C   0  0  0  0  0  0
  -16.5349  -29.9081   23.6326 C   0  0  0  0  0  0
  -16.7268  -28.6493   23.0355 C   0  0  0  0  0  0
  -26.4516  -31.6574   25.0683 C   0  0  0  0  0  0
  -25.3779  -31.3609   26.1418 C   0  0  0  0  0  0
  -27.0381  -30.3044   24.6025 C   0  0  0  0  0  0
  -27.6075  -32.4311   25.7448 C   0  0  0  0  0  0
  -27.5577  -37.1790   24.8471 C   0  0  0  0  0  0
  -21.4192  -29.3050   22.3704 N   0  0  0  0  0  0
  -26.4289  -37.3770   23.9428 N   0  0  0  0  0  0
  -24.6847  -31.0642   22.0959 N   0  0  0  0  0  0
  -23.4220  -28.8153   23.2998 O   0  0  0  0  0  0
  -28.3093  -26.4627   20.1380 O   0  0  0  0  0  0
  -26.5622  -34.8923   22.4692 O   0  0  0  0  0  0
  -23.5399  -32.1392   23.7367 O   0  0  0  0  0  0
  -29.0761  -22.9899   21.6169 C   0  0  0  0  0  0
  -29.4401  -21.6392   21.3718 C   0  0  0  0  0  0
  -28.6453  -23.8438   20.5672 C   0  0  0  0  0  0
  -29.3640  -21.1187   20.0658 C   0  0  0  0  0  0
  -28.6093  -23.2369   19.2833 C   0  0  0  0  0  0
  -28.1327  -23.9998   18.0635 C   0  0  0  0  0  0
  -29.3516  -15.9049   22.1917 C   0  0  0  0  0  0
  -28.0609  -25.2542   20.9402 C   0  0  0  0  0  0
  -29.8345  -19.6747   19.6807 C   0  0  0  0  0  0
  -29.5165  -18.4231   20.5989 C   0  0  0  0  0  0
  -30.1662  -17.0499   20.1060 C   0  0  0  0  0  0
  -28.9589  -21.9335   19.0520 N   0  0  0  0  0  0
  -29.9425  -15.7522   20.8557 N   0  0  0  0  0  0
  -31.4724  -12.5146   19.1343 H   0  0  0  0  0  0
  -30.3862  -11.3928   19.8896 H   0  0  0  0  0  0
  -29.7619  -11.7358   17.4851 H   0  0  0  0  0  0
  -29.6457  -13.4599   17.7346 H   0  0  0  0  0  0
  -27.8618  -11.2874   18.8731 H   0  0  0  0  0  0
  -27.3672  -12.5670   17.7972 H   0  0  0  0  0  0
  -27.6855  -14.2502   19.5411 H   0  0  0  0  0  0
  -28.7198  -11.9925   21.3194 H   0  0  0  0  0  0
  -28.4090  -13.5953   21.8673 H   0  0  0  0  0  0
  -25.2743   -9.5706   22.4768 H   0  0  0  0  0  0
  -23.9970   -7.4658   22.7506 H   0  0  0  0  0  0
  -21.0827   -8.8775   19.8938 H   0  0  0  0  0  0
  -22.3683  -10.9674   19.6151 H   0  0  0  0  0  0
  -21.1999   -7.6138   23.9707 H   0  0  0  0  0  0
  -21.1474   -6.0514   25.9078 H   0  0  0  0  0  0
  -22.0602   -2.7596   23.2850 H   0  0  0  0  0  0
  -22.4075  -11.9828   22.4699 H   0  0  0  0  0  0
  -21.1121  -13.1279   22.2614 H   0  0  0  0  0  0
  -24.6686  -15.8470   20.5056 H   0  0  0  0  0  0
  -26.2888  -15.6186   20.0780 H   0  0  0  0  0  0
  -26.7140  -32.5500   23.1098 H   0  0  0  0  0  0
  -25.0047  -33.9713   25.0435 H   0  0  0  0  0  0
  -22.7081  -31.2999   21.3997 H   0  0  0  0  0  0
  -23.3756  -35.9627   23.3266 H   0  0  0  0  0  0
  -24.3588  -36.8974   22.2065 H   0  0  0  0  0  0
  -23.7232  -37.6484   23.6686 H   0  0  0  0  0  0
  -26.0649  -31.5585   20.5856 H   0  0  0  0  0  0
  -26.8444  -30.8716   21.9783 H   0  0  0  0  0  0
  -28.1216  -29.0031   21.1899 H   0  0  0  0  0  0
  -26.0169  -25.9415   19.0023 H   0  0  0  0  0  0
  -23.9779  -27.3072   19.0088 H   0  0  0  0  0  0
  -23.7412  -30.5866   19.3998 H   0  0  0  0  0  0
  -22.7568  -29.2348   19.8655 H   0  0  0  0  0  0
  -25.1276  -36.1941   25.0814 H   0  0  0  0  0  0
  -20.9958  -28.3232   24.1398 H   0  0  0  0  0  0
  -20.5675  -26.2271   23.3571 H   0  0  0  0  0  0
  -21.6636  -26.7451   22.1162 H   0  0  0  0  0  0
  -19.6901  -25.6315   21.1197 H   0  0  0  0  0  0
  -19.6662  -27.3212   20.6714 H   0  0  0  0  0  0
  -17.4193  -26.6659   21.4032 H   0  0  0  0  0  0
  -18.0335  -26.0043   22.8991 H   0  0  0  0  0  0
  -19.7936  -30.7238   24.2290 H   0  0  0  0  0  0
  -17.5026  -31.6253   24.5167 H   0  0  0  0  0  0
  -15.5353  -30.2986   23.7650 H   0  0  0  0  0  0
  -15.8661  -28.0806   22.7078 H   0  0  0  0  0  0
  -24.5973  -30.6951   25.7717 H   0  0  0  0  0  0
  -24.8929  -32.2727   26.4916 H   0  0  0  0  0  0
  -25.8151  -30.8734   27.0145 H   0  0  0  0  0  0
  -26.2911  -29.6747   24.1176 H   0  0  0  0  0  0
  -27.4332  -29.7321   25.4429 H   0  0  0  0  0  0
  -27.8669  -30.4430   23.9073 H   0  0  0  0  0  0
  -27.2710  -33.3654   26.1960 H   0  0  0  0  0  0
  -28.3910  -32.6806   25.0275 H   0  0  0  0  0  0
  -28.0714  -31.8465   26.5407 H   0  0  0  0  0  0
  -28.2554  -38.0125   24.7571 H   0  0  0  0  0  0
  -28.1119  -36.2656   24.6250 H   0  0  0  0  0  0
  -27.2294  -37.1376   25.8870 H   0  0  0  0  0  0
  -20.9356  -29.8823   21.6965 H   0  0  0  0  0  0
  -26.0176  -38.2851   24.1429 H   0  0  0  0  0  0
  -29.1031  -23.3589   22.6321 H   0  0  0  0  0  0
  -29.7745  -21.0128   22.1882 H   0  0  0  0  0  0
  -28.6102  -24.9784   18.0082 H   0  0  0  0  0  0
  -27.0536  -24.1357   18.1013 H   0  0  0  0  0  0
  -28.3630  -23.4677   17.1400 H   0  0  0  0  0  0
  -28.2640  -15.9542   22.1245 H   0  0  0  0  0  0
  -29.7025  -16.8008   22.6978 H   0  0  0  0  0  0
  -29.6224  -15.0868   22.8605 H   0  0  0  0  0  0
  -28.4326  -25.4978   21.9365 H   0  0  0  0  0  0
  -26.9930  -25.0906   21.0863 H   0  0  0  0  0  0
  -30.9165  -19.7335   19.5611 H   0  0  0  0  0  0
  -29.4487  -19.4586   18.6839 H   0  0  0  0  0  0
  -28.4350  -18.3085   20.6807 H   0  0  0  0  0  0
  -29.8805  -18.6605   21.5975 H   0  0  0  0  0  0
  -31.2425  -17.2151   20.0349 H   0  0  0  0  0  0
  -29.8323  -16.8713   19.0824 H   0  0  0  0  0  0
  1 25  1  0  0  0
  1 30  2  0  0  0
  1 83  1  0  0  0
  2  3  1  0  0  0
  2 25  1  0  0  0
  2 84  1  0  0  0
  2 85  1  0  0  0
  3  4  1  0  0  0
  3 86  1  0  0  0
  3 87  1  0  0  0
  4  5  1  0  0  0
  4 88  1  0  0  0
  4 89  1  0  0  0
  5  6  1  0  0  0
  5 26  1  0  0  0
  5 90  1  0  0  0
  6 25  1  0  0  0
  6 91  1  0  0  0
  6 92  1  0  0  0
  7  8  2  0  0  0
  7 26  1  0  0  0
  7 29  1  0  0  0
  8  9  1  0  0  0
  8 22  1  0  0  0
  9 10  1  0  0  0
  9 27  2  0  0  0
 10 11  2  0  0  0
 10 15  1  0  0  0
 11 12  1  0  0  0
 11 93  1  0  0  0
 12 13  2  0  0  0
 12 94  1  0  0  0
 13 14  1  0  0  0
 13 31  1  0  0  0
 14 15  2  0  0  0
 14 95  1  0  0  0
 15 96  1  0  0  0
 16 17  2  0  0  0
 16 21  1  0  0  0
 16 31  1  0  0  0
 17 18  1  0  0  0
 17 97  1  0  0  0
 18 19  2  0  0  0
 18 98  1  0  0  0
 19 20  1  0  0  0
 19 24  1  0  0  0
 20 21  2  0  0  0
 20 99  1  0  0  0
 21 23  1  0  0  0
 22 28  1  0  0  0
 22 32  2  0  0  0
 26 27  1  0  0  0
 28100  1  0  0  0
 28101  1  0  0  0
 29102  1  0  0  0
 29103  1  0  0  0
 33 34  1  0  0  0
 33 66  1  0  0  0
 33 70  2  0  0  0
 34 36  1  0  0  0
 34 59  1  0  0  0
 34104  1  0  0  0
 35 44  2  0  0  0
 35 45  1  0  0  0
 35 68  1  0  0  0
 36 56  1  0  0  0
 36105  1  0  0  0
 37 39  1  0  0  0
 37 47  1  0  0  0
 37 66  1  0  0  0
 37106  1  0  0  0
 38 43  2  0  0  0
 38 46  1  0  0  0
 38 47  1  0  0  0
 39 64  1  0  0  0
 39 67  2  0  0  0
 40 52  1  0  0  0
 40 53  2  0  0  0
 40 58  1  0  0  0
 41107  1  0  0  0
 41108  1  0  0  0
 41109  1  0  0  0
 41 48  1  0  0  0
 42 43  1  0  0  0
 42 66  1  0  0  0
 42110  1  0  0  0
 42111  1  0  0  0
 43 44  1  0  0  0
 44112  1  0  0  0
 45 46  2  0  0  0
 45113  1  0  0  0
 46114  1  0  0  0
 47115  1  0  0  0
 47116  1  0  0  0
 48 56  1  0  0  0
 48 65  1  0  0  0
 48117  1  0  0  0
 49 50  1  0  0  0
 49 53  1  0  0  0
 49 64  1  0  0  0
 49118  1  0  0  0
 50 51  1  0  0  0
 50119  1  0  0  0
 50120  1  0  0  0
 51 52  1  0  0  0
 51121  1  0  0  0
 51122  1  0  0  0
 52123  1  0  0  0
 52124  1  0  0  0
 53 54  1  0  0  0
 54 55  2  0  0  0
 54125  1  0  0  0
 55 57  1  0  0  0
 55126  1  0  0  0
 56 69  2  0  0  0
 57 58  2  0  0  0
 57127  1  0  0  0
 58128  1  0  0  0
 59 60  1  0  0  0
 59 61  1  0  0  0
 59 62  1  0  0  0
 60129  1  0  0  0
 60130  1  0  0  0
 60131  1  0  0  0
 61132  1  0  0  0
 61133  1  0  0  0
 61134  1  0  0  0
 62135  1  0  0  0
 62136  1  0  0  0
 62137  1  0  0  0
 63 65  1  0  0  0
 63138  1  0  0  0
 63139  1  0  0  0
 63140  1  0  0  0
 64141  1  0  0  0
 65142  1  0  0  0
 68 78  1  0  0  0
 71 72  2  0  0  0
 71 73  1  0  0  0
 71143  1  0  0  0
 72 74  1  0  0  0
 72144  1  0  0  0
 73 75  2  0  0  0
 73 78  1  0  0  0
 74 79  1  0  0  0
 74 82  2  0  0  0
 75 76  1  0  0  0
 75 82  1  0  0  0
 76145  1  0  0  0
 76146  1  0  0  0
 76147  1  0  0  0
 77 83  1  0  0  0
 77148  1  0  0  0
 77149  1  0  0  0
 77150  1  0  0  0
 78151  1  0  0  0
 78152  1  0  0  0
 79 80  1  0  0  0
 79153  1  0  0  0
 79154  1  0  0  0
 80 81  1  0  0  0
 80155  1  0  0  0
 80156  1  0  0  0
 81 83  1  0  0  0
 81157  1  0  0  0
 81158  1  0  0  0
M  ISO  4   1 100  68 101  78 101  83 100
M  END
> <chiral flag>
0

> <version>
0

> <s_m_source_file>
/data/baiqing/PycharmProjects/Reinvent-master-3.2/result/LINK_invent/BTK/process_docking_weight1_custom_sum_contain_oxygen_bond_distance_aromatic_linkinvent_7_9_3/rearranged_h_0045.sdf

> <i_m_source_file_index>
50

> <r_mmod_Potential_Energy-OPLS-2005>
89.1931076049805

> <r_mmod_Stretch_Energy-OPLS-2005>
77.0794906616211

> <r_mmod_Bend_Energy-OPLS-2005>
144.84294128418

> <r_mmod_Torsional_Energy-OPLS-2005>
303.359405517578

> <r_mmod_Improper_Torsional_Energy-OPLS-2005>
10.9910125732422

> <r_mmod_Van_der_Waal_Energy-OPLS-2005>
151.277603149414

> <r_mmod_Electrostatic_Energy-OPLS-2005>
-432.557952880859

> <r_mmod_Solvation_Energy-OPLS-2005>
-205.643692016602

> <b_mmod_Minimization_Converged-OPLS-2005>
0

> <r_mmod_RMS_Derivative-OPLS-2005>
2.29620885848999

$$$$
51
                    3D
 Structure written by MMmdl.
162170  0  0  1  0            999 V2000
  -30.7598  -14.6390   20.4599 C   0  0  0  0  0  0
  -30.3899  -12.4087   19.4418 C   0  0  0  0  0  0
  -29.4750  -12.4814   18.2078 C   0  0  0  0  0  0
  -28.0079  -12.3117   18.6397 C   0  0  0  0  0  0
  -27.6273  -13.2130   19.8430 C   0  0  2  0  0  0
  -28.6903  -13.1718   20.9655 C   0  0  0  0  0  0
  -25.2489  -13.8158   20.5737 C   0  0  0  0  0  0
  -24.1767  -13.0434   20.9219 C   0  0  0  0  0  0
  -24.6325  -11.6907   20.8798 C   0  0  0  0  0  0
  -23.9013  -10.4287   21.0461 C   0  0  0  0  0  0
  -24.3581   -9.4185   21.9213 C   0  0  0  0  0  0
  -23.6275   -8.2213   22.0768 C   0  0  0  0  0  0
  -22.4265   -8.0247   21.3536 C   0  0  0  0  0  0
  -21.9886   -9.0227   20.4643 C   0  0  0  0  0  0
  -22.7205  -10.2107   20.3088 C   0  0  0  0  0  0
  -21.6827   -6.0718   22.5269 C   0  0  0  0  0  0
  -21.4000   -6.5621   23.8205 C   0  0  0  0  0  0
  -21.3670   -5.6780   24.9169 C   0  0  0  0  0  0
  -21.6050   -4.3042   24.7222 C   0  0  0  0  0  0
  -21.8817   -3.8127   23.4343 C   0  0  0  0  0  0
  -21.9191   -4.6951   22.3394 C   0  0  0  0  0  0
  -22.7783  -13.5255   21.1864 C   0  0  0  0  0  0
  -22.1643   -4.2142   21.0970 F   0  0  0  0  0  0
  -21.5647   -3.4514   25.7725 F   0  0  0  0  0  0
  -29.9787  -13.5103   20.3487 N   0  0  0  0  0  0
  -26.2883  -12.9308   20.3368 N   0  0  0  0  0  0
  -25.9248  -11.6480   20.5838 N   0  0  0  0  0  0
  -22.0393  -12.8259   22.0409 N   0  0  0  0  0  0
  -25.4245  -15.1872   20.4104 N   0  0  0  0  0  0
  -31.9573  -14.5114   20.1926 O   0  0  0  0  0  0
  -21.6619   -6.8853   21.4228 O   0  0  0  0  0  0
  -22.3503  -14.5541   20.6681 O   0  0  0  0  0  0
  -24.6228  -31.8595   23.2096 C   0  0  0  0  0  0
  -25.9086  -32.4788   23.8376 C   0  0  1  0  0  0
  -27.2192  -27.3613   20.0880 C   0  0  0  0  0  0
  -25.5928  -33.8602   24.2315 N   0  0  0  0  0  0
  -23.4146  -30.4868   21.5448 C   0  0  2  0  0  0
  -24.8548  -28.9440   20.1115 C   0  0  0  0  0  0
  -22.7442  -29.4652   22.4932 C   0  0  0  0  0  0
  -18.0270  -28.1405   22.8478 C   0  0  0  0  0  0
  -24.1460  -36.7312   23.2650 C   0  0  0  0  0  0
  -25.9506  -30.8014   21.3729 C   0  0  0  0  0  0
  -26.0206  -29.4332   20.7122 C   0  0  0  0  0  0
  -27.2046  -28.6495   20.6954 C   0  0  0  0  0  0
  -26.0283  -26.9055   19.4801 C   0  0  0  0  0  0
  -24.8559  -27.6846   19.4910 C   0  0  0  0  0  0
  -23.6248  -29.8200   20.1592 C   0  0  0  0  0  0
  -25.4094  -36.3105   24.0333 C   0  0  1  0  0  0
  -20.5876  -28.3696   23.1278 C   0  0  2  0  0  0
  -20.6774  -26.9423   22.5423 C   0  0  0  0  0  0
  -19.5750  -26.6397   21.5225 C   0  0  0  0  0  0
  -18.1917  -26.7959   22.1604 C   0  0  0  0  0  0
  -19.1528  -28.8850   23.2877 C   0  0  0  0  0  0
  -18.9449  -30.1450   23.8904 C   0  0  0  0  0  0
  -17.6461  -30.6607   24.0560 C   0  0  0  0  0  0
  -25.9035  -34.9467   23.5133 C   0  0  0  0  0  0
  -16.5348  -29.9110   23.6336 C   0  0  0  0  0  0
  -16.7260  -28.6526   23.0366 C   0  0  0  0  0  0
  -26.4517  -31.6602   25.0729 C   0  0  0  0  0  0
  -25.3783  -31.3710   26.1473 C   0  0  0  0  0  0
  -27.0389  -30.3020   24.6221 C   0  0  0  0  0  0
  -27.6075  -32.4373   25.7472 C   0  0  0  0  0  0
  -27.5577  -37.1802   24.8478 C   0  0  0  0  0  0
  -21.4156  -29.3072   22.3668 N   0  0  0  0  0  0
  -26.4286  -37.3795   23.9427 N   0  0  0  0  0  0
  -24.6804  -31.0658   22.0999 N   0  0  0  0  0  0
  -23.4191  -28.8160   23.2984 O   0  0  0  0  0  0
  -28.3779  -26.5904   20.1169 O   0  0  0  0  0  0
  -26.5587  -34.8921   22.4690 O   0  0  0  0  0  0
  -23.5409  -32.1354   23.7477 O   0  0  0  0  0  0
  -28.8315  -21.1213   18.5836 C   0  0  0  0  0  0
  -27.9345  -21.4234   20.5447 C   0  0  0  0  0  0
  -28.3023  -20.3944   19.6957 C   0  0  0  0  0  0
  -32.7622  -18.4269   18.9192 C   0  0  0  0  0  0
  -28.1331  -18.8474   19.7366 C   0  0  0  0  0  0
  -31.5615  -17.4818   19.0341 C   0  0  0  0  0  0
  -28.5533  -18.0227   21.0101 C   0  0  0  0  0  0
  -27.9267  -24.0449   20.4240 C   0  0  0  0  0  0
  -31.2989  -17.0316   20.4875 C   0  0  0  0  0  0
  -28.8803  -16.4582   20.8416 C   0  0  0  0  0  0
  -28.4308  -25.2475   19.5364 C   0  0  0  0  0  0
  -28.7674  -22.4446   18.7242 N   0  0  0  0  0  0
  -28.2052  -22.6587   19.9359 N   0  0  0  0  0  0
  -30.2757  -15.9475   20.5929 N   0  0  0  0  0  0
  -31.4310  -12.4592   19.1189 H   0  0  0  0  0  0
  -30.2902  -11.4436   19.9421 H   0  0  0  0  0  0
  -29.7481  -11.7094   17.4866 H   0  0  0  0  0  0
  -29.6024  -13.4371   17.6974 H   0  0  0  0  0  0
  -27.8619  -11.2628   18.8983 H   0  0  0  0  0  0
  -27.3434  -12.5082   17.7980 H   0  0  0  0  0  0
  -27.5972  -14.2108   19.4215 H   0  0  0  0  0  0
  -28.7348  -12.1763   21.4110 H   0  0  0  0  0  0
  -28.4446  -13.8390   21.7882 H   0  0  0  0  0  0
  -25.2710   -9.5635   22.4826 H   0  0  0  0  0  0
  -23.9972   -7.4595   22.7491 H   0  0  0  0  0  0
  -21.0819   -8.8733   19.8952 H   0  0  0  0  0  0
  -22.3669  -10.9656   19.6216 H   0  0  0  0  0  0
  -21.1982   -7.6127   23.9702 H   0  0  0  0  0  0
  -21.1513   -6.0508   25.9073 H   0  0  0  0  0  0
  -22.0615   -2.7601   23.2835 H   0  0  0  0  0  0
  -22.3932  -11.9903   22.4839 H   0  0  0  0  0  0
  -21.1047  -13.1374   22.2624 H   0  0  0  0  0  0
  -24.6675  -15.8523   20.5192 H   0  0  0  0  0  0
  -26.2820  -15.6145   20.0883 H   0  0  0  0  0  0
  -26.7138  -32.5433   23.1114 H   0  0  0  0  0  0
  -25.0140  -33.9756   25.0493 H   0  0  0  0  0  0
  -22.7123  -31.3092   21.4015 H   0  0  0  0  0  0
  -23.3738  -35.9630   23.3328 H   0  0  0  0  0  0
  -24.3572  -36.8933   22.2074 H   0  0  0  0  0  0
  -23.7163  -37.6498   23.6651 H   0  0  0  0  0  0
  -26.0908  -31.5658   20.6073 H   0  0  0  0  0  0
  -26.8309  -30.8394   22.0043 H   0  0  0  0  0  0
  -28.1061  -29.0236   21.1571 H   0  0  0  0  0  0
  -25.9722  -25.9412   18.9993 H   0  0  0  0  0  0
  -23.9584  -27.3072   19.0223 H   0  0  0  0  0  0
  -23.7513  -30.5900   19.3989 H   0  0  0  0  0  0
  -22.7432  -29.2525   19.8572 H   0  0  0  0  0  0
  -25.1264  -36.1992   25.0816 H   0  0  0  0  0  0
  -20.9949  -28.3276   24.1403 H   0  0  0  0  0  0
  -20.5665  -26.2314   23.3628 H   0  0  0  0  0  0
  -21.6630  -26.7465   22.1211 H   0  0  0  0  0  0
  -19.6901  -25.6305   21.1257 H   0  0  0  0  0  0
  -19.6683  -27.3190   20.6742 H   0  0  0  0  0  0
  -17.4202  -26.6718   21.3998 H   0  0  0  0  0  0
  -18.0284  -26.0086   22.8963 H   0  0  0  0  0  0
  -19.7919  -30.7258   24.2298 H   0  0  0  0  0  0
  -17.5018  -31.6276   24.5176 H   0  0  0  0  0  0
  -15.5354  -30.3030   23.7673 H   0  0  0  0  0  0
  -15.8648  -28.0844   22.7128 H   0  0  0  0  0  0
  -24.5958  -30.7058   25.7828 H   0  0  0  0  0  0
  -24.8980  -32.2859   26.4924 H   0  0  0  0  0  0
  -25.8148  -30.8872   27.0211 H   0  0  0  0  0  0
  -26.2954  -29.6717   24.1327 H   0  0  0  0  0  0
  -27.4162  -29.7337   25.4735 H   0  0  0  0  0  0
  -27.8798  -30.4350   23.9418 H   0  0  0  0  0  0
  -27.2682  -33.3675   26.2037 H   0  0  0  0  0  0
  -28.3862  -32.6948   25.0287 H   0  0  0  0  0  0
  -28.0751  -31.8500   26.5378 H   0  0  0  0  0  0
  -28.2615  -38.0086   24.7550 H   0  0  0  0  0  0
  -28.1035  -36.2624   24.6260 H   0  0  0  0  0  0
  -27.2306  -37.1438   25.8883 H   0  0  0  0  0  0
  -20.9324  -29.8822   21.6906 H   0  0  0  0  0  0
  -26.0181  -38.2870   24.1424 H   0  0  0  0  0  0
  -29.2254  -20.7231   17.6582 H   0  0  0  0  0  0
  -27.4598  -21.3857   21.5145 H   0  0  0  0  0  0
  -32.9723  -18.6698   17.8769 H   0  0  0  0  0  0
  -33.6614  -17.9709   19.3350 H   0  0  0  0  0  0
  -32.5832  -19.3624   19.4510 H   0  0  0  0  0  0
  -28.6198  -18.4120   18.8674 H   0  0  0  0  0  0
  -27.0838  -18.6122   19.5498 H   0  0  0  0  0  0
  -31.7311  -16.6173   18.3929 H   0  0  0  0  0  0
  -30.6921  -17.9924   18.6309 H   0  0  0  0  0  0
  -27.6742  -18.0633   21.6549 H   0  0  0  0  0  0
  -29.2732  -18.5613   21.6200 H   0  0  0  0  0  0
  -26.8524  -24.1357   20.5761 H   0  0  0  0  0  0
  -28.3765  -24.1330   21.4113 H   0  0  0  0  0  0
  -31.0883  -17.8997   21.0987 H   0  0  0  0  0  0
  -32.2456  -16.7159   20.9296 H   0  0  0  0  0  0
  -28.2426  -16.0911   20.0455 H   0  0  0  0  0  0
  -28.5441  -15.9767   21.7588 H   0  0  0  0  0  0
  -27.9661  -25.2307   18.5504 H   0  0  0  0  0  0
  -29.4885  -25.0716   19.3334 H   0  0  0  0  0  0
  1 25  1  0  0  0
  1 30  2  0  0  0
  1 84  1  0  0  0
  2  3  1  0  0  0
  2 25  1  0  0  0
  2 85  1  0  0  0
  2 86  1  0  0  0
  3  4  1  0  0  0
  3 87  1  0  0  0
  3 88  1  0  0  0
  4  5  1  0  0  0
  4 89  1  0  0  0
  4 90  1  0  0  0
  5  6  1  0  0  0
  5 26  1  0  0  0
  5 91  1  0  0  0
  6 25  1  0  0  0
  6 92  1  0  0  0
  6 93  1  0  0  0
  7  8  2  0  0  0
  7 26  1  0  0  0
  7 29  1  0  0  0
  8  9  1  0  0  0
  8 22  1  0  0  0
  9 10  1  0  0  0
  9 27  2  0  0  0
 10 11  2  0  0  0
 10 15  1  0  0  0
 11 12  1  0  0  0
 11 94  1  0  0  0
 12 13  2  0  0  0
 12 95  1  0  0  0
 13 14  1  0  0  0
 13 31  1  0  0  0
 14 15  2  0  0  0
 14 96  1  0  0  0
 15 97  1  0  0  0
 16 17  2  0  0  0
 16 21  1  0  0  0
 16 31  1  0  0  0
 17 18  1  0  0  0
 17 98  1  0  0  0
 18 19  2  0  0  0
 18 99  1  0  0  0
 19 20  1  0  0  0
 19 24  1  0  0  0
 20 21  2  0  0  0
 20100  1  0  0  0
 21 23  1  0  0  0
 22 28  1  0  0  0
 22 32  2  0  0  0
 26 27  1  0  0  0
 28101  1  0  0  0
 28102  1  0  0  0
 29103  1  0  0  0
 29104  1  0  0  0
 33 34  1  0  0  0
 33 66  1  0  0  0
 33 70  2  0  0  0
 34 36  1  0  0  0
 34 59  1  0  0  0
 34105  1  0  0  0
 35 44  2  0  0  0
 35 45  1  0  0  0
 35 68  1  0  0  0
 36 56  1  0  0  0
 36106  1  0  0  0
 37 39  1  0  0  0
 37 47  1  0  0  0
 37 66  1  0  0  0
 37107  1  0  0  0
 38 43  2  0  0  0
 38 46  1  0  0  0
 38 47  1  0  0  0
 39 64  1  0  0  0
 39 67  2  0  0  0
 40 52  1  0  0  0
 40 53  2  0  0  0
 40 58  1  0  0  0
 41108  1  0  0  0
 41109  1  0  0  0
 41110  1  0  0  0
 41 48  1  0  0  0
 42 43  1  0  0  0
 42 66  1  0  0  0
 42111  1  0  0  0
 42112  1  0  0  0
 43 44  1  0  0  0
 44113  1  0  0  0
 45 46  2  0  0  0
 45114  1  0  0  0
 46115  1  0  0  0
 47116  1  0  0  0
 47117  1  0  0  0
 48 56  1  0  0  0
 48 65  1  0  0  0
 48118  1  0  0  0
 49 50  1  0  0  0
 49 53  1  0  0  0
 49 64  1  0  0  0
 49119  1  0  0  0
 50 51  1  0  0  0
 50120  1  0  0  0
 50121  1  0  0  0
 51 52  1  0  0  0
 51122  1  0  0  0
 51123  1  0  0  0
 52124  1  0  0  0
 52125  1  0  0  0
 53 54  1  0  0  0
 54 55  2  0  0  0
 54126  1  0  0  0
 55 57  1  0  0  0
 55127  1  0  0  0
 56 69  2  0  0  0
 57 58  2  0  0  0
 57128  1  0  0  0
 58129  1  0  0  0
 59 60  1  0  0  0
 59 61  1  0  0  0
 59 62  1  0  0  0
 60130  1  0  0  0
 60131  1  0  0  0
 60132  1  0  0  0
 61133  1  0  0  0
 61134  1  0  0  0
 61135  1  0  0  0
 62136  1  0  0  0
 62137  1  0  0  0
 62138  1  0  0  0
 63 65  1  0  0  0
 63139  1  0  0  0
 63140  1  0  0  0
 63141  1  0  0  0
 64142  1  0  0  0
 65143  1  0  0  0
 68 81  1  0  0  0
 71 73  1  0  0  0
 71 82  2  0  0  0
 71144  1  0  0  0
 72 73  2  0  0  0
 72 83  1  0  0  0
 72145  1  0  0  0
 73 75  1  0  0  0
 74 76  1  0  0  0
 74146  1  0  0  0
 74147  1  0  0  0
 74148  1  0  0  0
 75 77  1  0  0  0
 75149  1  0  0  0
 75150  1  0  0  0
 76 79  1  0  0  0
 76151  1  0  0  0
 76152  1  0  0  0
 77 80  1  0  0  0
 77153  1  0  0  0
 77154  1  0  0  0
 78 81  1  0  0  0
 78 83  1  0  0  0
 78155  1  0  0  0
 78156  1  0  0  0
 79 84  1  0  0  0
 79157  1  0  0  0
 79158  1  0  0  0
 80 84  1  0  0  0
 80159  1  0  0  0
 80160  1  0  0  0
 81161  1  0  0  0
 81162  1  0  0  0
 82 83  1  0  0  0
M  ISO  4   1 100  68 101  81 101  84 100
M  END
> <chiral flag>
0

> <version>
0

> <s_m_source_file>
/data/baiqing/PycharmProjects/Reinvent-master-3.2/result/LINK_invent/BTK/process_docking_weight1_custom_sum_contain_oxygen_bond_distance_aromatic_linkinvent_7_9_3/rearranged_h_0045.sdf

> <i_m_source_file_index>
51

> <r_mmod_Potential_Energy-OPLS-2005>
278.758972167969

> <r_mmod_Stretch_Energy-OPLS-2005>
77.5736846923828

> <r_mmod_Bend_Energy-OPLS-2005>
189.872161865234

> <r_mmod_Torsional_Energy-OPLS-2005>
279.421813964844

> <r_mmod_Improper_Torsional_Energy-OPLS-2005>
6.20422077178955

> <r_mmod_Van_der_Waal_Energy-OPLS-2005>
140.121658325195

> <r_mmod_Electrostatic_Energy-OPLS-2005>
-259.333251953125

> <r_mmod_Solvation_Energy-OPLS-2005>
-210.352020263672

> <b_mmod_Minimization_Converged-OPLS-2005>
0

> <r_mmod_RMS_Derivative-OPLS-2005>
4.51668071746826

$$$$
52
                    3D
 Structure written by MMmdl.
153161  0  0  1  0            999 V2000
  -30.4945  -14.9869   20.3805 C   0  0  0  0  0  0
  -30.4515  -12.6129   19.5040 C   0  0  0  0  0  0
  -29.5238  -12.5173   18.2697 C   0  0  0  0  0  0
  -28.0653  -12.2807   18.7127 C   0  0  0  0  0  0
  -27.6323  -13.2399   19.8519 C   0  0  2  0  0  0
  -28.6767  -13.2746   20.9884 C   0  0  0  0  0  0
  -25.2502  -13.8220   20.5819 C   0  0  0  0  0  0
  -24.1796  -13.0454   20.9267 C   0  0  0  0  0  0
  -24.6385  -11.6933   20.8827 C   0  0  0  0  0  0
  -23.9082  -10.4311   21.0484 C   0  0  0  0  0  0
  -24.3603   -9.4201   21.9236 C   0  0  0  0  0  0
  -23.6273   -8.2237   22.0780 C   0  0  0  0  0  0
  -22.4289   -8.0270   21.3536 C   0  0  0  0  0  0
  -21.9938   -9.0276   20.4677 C   0  0  0  0  0  0
  -22.7268  -10.2141   20.3121 C   0  0  0  0  0  0
  -21.6843   -6.0746   22.5276 C   0  0  0  0  0  0
  -21.4007   -6.5655   23.8216 C   0  0  0  0  0  0
  -21.3658   -5.6785   24.9171 C   0  0  0  0  0  0
  -21.6032   -4.3059   24.7204 C   0  0  0  0  0  0
  -21.8816   -3.8163   23.4340 C   0  0  0  0  0  0
  -21.9192   -4.6979   22.3401 C   0  0  0  0  0  0
  -22.7799  -13.5256   21.1805 C   0  0  0  0  0  0
  -22.1656   -4.2174   21.0974 F   0  0  0  0  0  0
  -21.5624   -3.4535   25.7731 F   0  0  0  0  0  0
  -29.9377  -13.7082   20.3758 N   0  0  0  0  0  0
  -26.2912  -12.9408   20.3374 N   0  0  0  0  0  0
  -25.9324  -11.6550   20.5841 N   0  0  0  0  0  0
  -22.0384  -12.8343   22.0372 N   0  0  0  0  0  0
  -25.4210  -15.1936   20.4264 N   0  0  0  0  0  0
  -31.6998  -15.0669   20.1140 O   0  0  0  0  0  0
  -21.6627   -6.8877   21.4246 O   0  0  0  0  0  0
  -22.3538  -14.5539   20.6576 O   0  0  0  0  0  0
  -24.6418  -31.8453   23.1824 C   0  0  0  0  0  0
  -25.9235  -32.4679   23.8183 C   0  0  1  0  0  0
  -27.2045  -27.1379   20.1325 C   0  0  0  0  0  0
  -25.6008  -33.8475   24.2125 N   0  0  0  0  0  0
  -23.4394  -30.4590   21.5348 C   0  0  2  0  0  0
  -24.8836  -28.8880   20.0992 C   0  0  0  0  0  0
  -22.7505  -29.4532   22.4880 C   0  0  0  0  0  0
  -18.0319  -28.1411   22.8511 C   0  0  0  0  0  0
  -24.1529  -36.7216   23.2638 C   0  0  0  0  0  0
  -25.9946  -30.7177   21.3813 C   0  0  0  0  0  0
  -26.0608  -29.3311   20.7144 C   0  0  0  0  0  0
  -27.2181  -28.4707   20.7152 C   0  0  0  0  0  0
  -26.0012  -26.7853   19.4876 C   0  0  0  0  0  0
  -24.8666  -27.6292   19.4754 C   0  0  0  0  0  0
  -23.6579  -29.7890   20.1513 C   0  0  0  0  0  0
  -25.4169  -36.2998   24.0294 C   0  0  1  0  0  0
  -20.5915  -28.3730   23.1281 C   0  0  2  0  0  0
  -20.6788  -26.9410   22.5493 C   0  0  0  0  0  0
  -19.5746  -26.6334   21.5289 C   0  0  0  0  0  0
  -18.1930  -26.7924   22.1723 C   0  0  0  0  0  0
  -19.1569  -28.8878   23.2868 C   0  0  0  0  0  0
  -18.9535  -30.1488   23.8892 C   0  0  0  0  0  0
  -17.6527  -30.6584   24.0587 C   0  0  0  0  0  0
  -25.9134  -34.9395   23.5011 C   0  0  0  0  0  0
  -16.5421  -29.9096   23.6343 C   0  0  0  0  0  0
  -16.7295  -28.6538   23.0378 C   0  0  0  0  0  0
  -26.4573  -31.6552   25.0621 C   0  0  0  0  0  0
  -25.3729  -31.3699   26.1256 C   0  0  0  0  0  0
  -27.0463  -30.2946   24.6241 C   0  0  0  0  0  0
  -27.6093  -32.4322   25.7418 C   0  0  0  0  0  0
  -27.5591  -37.1772   24.8481 C   0  0  0  0  0  0
  -21.4219  -29.3032   22.3618 N   0  0  0  0  0  0
  -26.4317  -37.3717   23.9410 N   0  0  0  0  0  0
  -24.7110  -31.0313   22.0853 N   0  0  0  0  0  0
  -23.4103  -28.8069   23.3051 O   0  0  0  0  0  0
  -28.2765  -26.1848   20.2335 O   0  0  0  0  0  0
  -26.5689  -34.8894   22.4576 O   0  0  0  0  0  0
  -23.5558  -32.1332   23.7082 O   0  0  0  0  0  0
  -26.8103  -23.6708   21.4061 C   0  0  0  0  0  0
  -27.9117  -23.3864   20.5551 C   0  0  0  0  0  0
  -28.1543  -21.9469   20.7698 C   0  0  0  0  0  0
  -27.1137  -20.4805   22.6432 C   0  0  0  0  0  0
  -28.3550  -24.7168   19.6996 C   0  0  0  0  0  0
  -29.1268  -20.6704   20.3161 C   0  0  0  0  0  0
  -28.8253  -18.9788   20.4028 C   0  0  0  0  0  0
  -29.9568  -17.7139   20.2436 C   0  0  0  0  0  0
  -26.4449  -22.6724   22.1615 N   0  0  0  0  0  0
  -27.2719  -21.6704   21.8292 N   0  0  0  0  0  0
  -29.6780  -16.1582   20.4608 N   0  0  0  0  0  0
  -31.4812  -12.7914   19.1884 H   0  0  0  0  0  0
  -30.4671  -11.6673   20.0476 H   0  0  0  0  0  0
  -29.8503  -11.7144   17.6076 H   0  0  0  0  0  0
  -29.5864  -13.4402   17.6981 H   0  0  0  0  0  0
  -28.0096  -11.2506   19.0645 H   0  0  0  0  0  0
  -27.3771  -12.3456   17.8706 H   0  0  0  0  0  0
  -27.5938  -14.2335   19.4054 H   0  0  0  0  0  0
  -28.7838  -12.2937   21.4515 H   0  0  0  0  0  0
  -28.3789  -13.9581   21.7860 H   0  0  0  0  0  0
  -25.2725   -9.5657   22.4839 H   0  0  0  0  0  0
  -23.9960   -7.4644   22.7545 H   0  0  0  0  0  0
  -21.0850   -8.8817   19.8992 H   0  0  0  0  0  0
  -22.3747  -10.9686   19.6241 H   0  0  0  0  0  0
  -21.1994   -7.6154   23.9721 H   0  0  0  0  0  0
  -21.1479   -6.0519   25.9059 H   0  0  0  0  0  0
  -22.0602   -2.7636   23.2831 H   0  0  0  0  0  0
  -22.3930  -12.0047   22.4862 H   0  0  0  0  0  0
  -21.0989  -13.1425   22.2449 H   0  0  0  0  0  0
  -24.6492  -15.8421   20.5440 H   0  0  0  0  0  0
  -26.2503  -15.6389   20.0548 H   0  0  0  0  0  0
  -26.7311  -32.5279   23.0904 H   0  0  0  0  0  0
  -25.0216  -33.9600   25.0310 H   0  0  0  0  0  0
  -22.7376  -31.2818   21.3858 H   0  0  0  0  0  0
  -23.3811  -35.9534   23.3302 H   0  0  0  0  0  0
  -24.3604  -36.8839   22.2056 H   0  0  0  0  0  0
  -23.7304  -37.6405   23.6691 H   0  0  0  0  0  0
  -26.1720  -31.4790   20.6207 H   0  0  0  0  0  0
  -26.8539  -30.7427   22.0374 H   0  0  0  0  0  0
  -28.1161  -28.8100   21.2156 H   0  0  0  0  0  0
  -25.9012  -25.8075   19.0393 H   0  0  0  0  0  0
  -23.9577  -27.2797   19.0047 H   0  0  0  0  0  0
  -23.7843  -30.5656   19.3956 H   0  0  0  0  0  0
  -22.7750  -29.2234   19.8466 H   0  0  0  0  0  0
  -25.1388  -36.1785   25.0788 H   0  0  0  0  0  0
  -21.0009  -28.3493   24.1414 H   0  0  0  0  0  0
  -20.5645  -26.2362   23.3718 H   0  0  0  0  0  0
  -21.6673  -26.7347   22.1385 H   0  0  0  0  0  0
  -19.6902  -25.6242   21.1315 H   0  0  0  0  0  0
  -19.6574  -27.3205   20.6846 H   0  0  0  0  0  0
  -17.4171  -26.6639   21.4162 H   0  0  0  0  0  0
  -18.0371  -26.0157   22.9211 H   0  0  0  0  0  0
  -19.8013  -30.7300   24.2273 H   0  0  0  0  0  0
  -17.5083  -31.6212   24.5298 H   0  0  0  0  0  0
  -15.5449  -30.3031   23.7721 H   0  0  0  0  0  0
  -15.8666  -28.0886   22.7149 H   0  0  0  0  0  0
  -24.5950  -30.7068   25.7447 H   0  0  0  0  0  0
  -24.8890  -32.2875   26.4599 H   0  0  0  0  0  0
  -25.7933  -30.8834   27.0069 H   0  0  0  0  0  0
  -26.3094  -29.6605   24.1303 H   0  0  0  0  0  0
  -27.4135  -29.7291   25.4821 H   0  0  0  0  0  0
  -27.8975  -30.4135   23.9532 H   0  0  0  0  0  0
  -27.2710  -33.3664   26.1902 H   0  0  0  0  0  0
  -28.3951  -32.6805   25.0275 H   0  0  0  0  0  0
  -28.0744  -31.8519   26.5396 H   0  0  0  0  0  0
  -28.2599  -38.0064   24.7513 H   0  0  0  0  0  0
  -28.1094  -36.2597   24.6369 H   0  0  0  0  0  0
  -27.2289  -37.1489   25.8867 H   0  0  0  0  0  0
  -20.9439  -29.8658   21.6708 H   0  0  0  0  0  0
  -26.0164  -38.2775   24.1390 H   0  0  0  0  0  0
  -26.2772  -24.6053   21.5165 H   0  0  0  0  0  0
  -28.0894  -20.1087   22.9608 H   0  0  0  0  0  0
  -26.5583  -19.7293   22.0838 H   0  0  0  0  0  0
  -26.5427  -20.6928   23.5475 H   0  0  0  0  0  0
  -27.8584  -24.7062   18.7294 H   0  0  0  0  0  0
  -29.4011  -24.6030   19.4206 H   0  0  0  0  0  0
  -30.0321  -20.7846   20.9110 H   0  0  0  0  0  0
  -29.4587  -20.8784   19.2963 H   0  0  0  0  0  0
  -27.9972  -18.7736   19.7182 H   0  0  0  0  0  0
  -28.4169  -18.7659   21.3819 H   0  0  0  0  0  0
  -30.7711  -17.9451   20.9322 H   0  0  0  0  0  0
  -30.4050  -17.8160   19.2507 H   0  0  0  0  0  0
  -28.7151  -15.9438   20.6747 H   0  0  0  0  0  0
  1 25  1  0  0  0
  1 30  2  0  0  0
  1 81  1  0  0  0
  2  3  1  0  0  0
  2 25  1  0  0  0
  2 82  1  0  0  0
  2 83  1  0  0  0
  3  4  1  0  0  0
  3 84  1  0  0  0
  3 85  1  0  0  0
  4  5  1  0  0  0
  4 86  1  0  0  0
  4 87  1  0  0  0
  5  6  1  0  0  0
  5 26  1  0  0  0
  5 88  1  0  0  0
  6 25  1  0  0  0
  6 89  1  0  0  0
  6 90  1  0  0  0
  7  8  2  0  0  0
  7 26  1  0  0  0
  7 29  1  0  0  0
  8  9  1  0  0  0
  8 22  1  0  0  0
  9 10  1  0  0  0
  9 27  2  0  0  0
 10 11  2  0  0  0
 10 15  1  0  0  0
 11 12  1  0  0  0
 11 91  1  0  0  0
 12 13  2  0  0  0
 12 92  1  0  0  0
 13 14  1  0  0  0
 13 31  1  0  0  0
 14 15  2  0  0  0
 14 93  1  0  0  0
 15 94  1  0  0  0
 16 17  2  0  0  0
 16 21  1  0  0  0
 16 31  1  0  0  0
 17 18  1  0  0  0
 17 95  1  0  0  0
 18 19  2  0  0  0
 18 96  1  0  0  0
 19 20  1  0  0  0
 19 24  1  0  0  0
 20 21  2  0  0  0
 20 97  1  0  0  0
 21 23  1  0  0  0
 22 28  1  0  0  0
 22 32  2  0  0  0
 26 27  1  0  0  0
 28 98  1  0  0  0
 28 99  1  0  0  0
 29100  1  0  0  0
 29101  1  0  0  0
 33 34  1  0  0  0
 33 66  1  0  0  0
 33 70  2  0  0  0
 34 36  1  0  0  0
 34 59  1  0  0  0
 34102  1  0  0  0
 35 44  2  0  0  0
 35 45  1  0  0  0
 35 68  1  0  0  0
 36 56  1  0  0  0
 36103  1  0  0  0
 37 39  1  0  0  0
 37 47  1  0  0  0
 37 66  1  0  0  0
 37104  1  0  0  0
 38 43  2  0  0  0
 38 46  1  0  0  0
 38 47  1  0  0  0
 39 64  1  0  0  0
 39 67  2  0  0  0
 40 52  1  0  0  0
 40 53  2  0  0  0
 40 58  1  0  0  0
 41105  1  0  0  0
 41106  1  0  0  0
 41107  1  0  0  0
 41 48  1  0  0  0
 42 43  1  0  0  0
 42 66  1  0  0  0
 42108  1  0  0  0
 42109  1  0  0  0
 43 44  1  0  0  0
 44110  1  0  0  0
 45 46  2  0  0  0
 45111  1  0  0  0
 46112  1  0  0  0
 47113  1  0  0  0
 47114  1  0  0  0
 48 56  1  0  0  0
 48 65  1  0  0  0
 48115  1  0  0  0
 49 50  1  0  0  0
 49 53  1  0  0  0
 49 64  1  0  0  0
 49116  1  0  0  0
 50 51  1  0  0  0
 50117  1  0  0  0
 50118  1  0  0  0
 51 52  1  0  0  0
 51119  1  0  0  0
 51120  1  0  0  0
 52121  1  0  0  0
 52122  1  0  0  0
 53 54  1  0  0  0
 54 55  2  0  0  0
 54123  1  0  0  0
 55 57  1  0  0  0
 55124  1  0  0  0
 56 69  2  0  0  0
 57 58  2  0  0  0
 57125  1  0  0  0
 58126  1  0  0  0
 59 60  1  0  0  0
 59 61  1  0  0  0
 59 62  1  0  0  0
 60127  1  0  0  0
 60128  1  0  0  0
 60129  1  0  0  0
 61130  1  0  0  0
 61131  1  0  0  0
 61132  1  0  0  0
 62133  1  0  0  0
 62134  1  0  0  0
 62135  1  0  0  0
 63 65  1  0  0  0
 63136  1  0  0  0
 63137  1  0  0  0
 63138  1  0  0  0
 64139  1  0  0  0
 65140  1  0  0  0
 68 75  1  0  0  0
 71 72  1  0  0  0
 71 79  2  0  0  0
 71141  1  0  0  0
 72 73  2  0  0  0
 72 75  1  0  0  0
 73 76  1  0  0  0
 73 80  1  0  0  0
 74 80  1  0  0  0
 74142  1  0  0  0
 74143  1  0  0  0
 74144  1  0  0  0
 75145  1  0  0  0
 75146  1  0  0  0
 76 77  1  0  0  0
 76147  1  0  0  0
 76148  1  0  0  0
 77 78  1  0  0  0
 77149  1  0  0  0
 77150  1  0  0  0
 78 81  1  0  0  0
 78151  1  0  0  0
 78152  1  0  0  0
 79 80  1  0  0  0
 81153  1  0  0  0
M  ISO  4   1 100  68 101  75 101  81 100
M  END
> <chiral flag>
0

> <version>
0

> <s_m_source_file>
/data/baiqing/PycharmProjects/Reinvent-master-3.2/result/LINK_invent/BTK/process_docking_weight1_custom_sum_contain_oxygen_bond_distance_aromatic_linkinvent_7_9_3/rearranged_h_0045.sdf

> <i_m_source_file_index>
52

> <r_mmod_Potential_Energy-OPLS-2005>
556.967468261719

> <r_mmod_Stretch_Energy-OPLS-2005>
307.865936279297

> <r_mmod_Bend_Energy-OPLS-2005>
312.107757568359

> <r_mmod_Torsional_Energy-OPLS-2005>
210.499420166016

> <r_mmod_Improper_Torsional_Energy-OPLS-2005>
5.47538709640503

> <r_mmod_Van_der_Waal_Energy-OPLS-2005>
115.66820526123

> <r_mmod_Electrostatic_Energy-OPLS-2005>
-371.005340576172

> <r_mmod_Solvation_Energy-OPLS-2005>
-231.435729980469

> <b_mmod_Minimization_Converged-OPLS-2005>
0

> <r_mmod_RMS_Derivative-OPLS-2005>
6.97066307067871

$$$$
53
                    3D
 Structure written by MMmdl.
155163  0  0  1  0            999 V2000
  -30.6604  -14.6048   20.5052 C   0  0  0  0  0  0
  -30.4242  -12.3694   19.4556 C   0  0  0  0  0  0
  -29.5029  -12.4987   18.2230 C   0  0  0  0  0  0
  -28.0238  -12.3475   18.6298 C   0  0  0  0  0  0
  -27.6512  -13.2177   19.8611 C   0  0  2  0  0  0
  -28.6944  -13.0808   20.9934 C   0  0  0  0  0  0
  -25.2551  -13.8166   20.5658 C   0  0  0  0  0  0
  -24.1824  -13.0431   20.9176 C   0  0  0  0  0  0
  -24.6385  -11.6900   20.8737 C   0  0  0  0  0  0
  -23.9058  -10.4287   21.0394 C   0  0  0  0  0  0
  -24.3614   -9.4201   21.9163 C   0  0  0  0  0  0
  -23.6298   -8.2239   22.0734 C   0  0  0  0  0  0
  -22.4277   -8.0276   21.3535 C   0  0  0  0  0  0
  -21.9911   -9.0235   20.4624 C   0  0  0  0  0  0
  -22.7233  -10.2124   20.3031 C   0  0  0  0  0  0
  -21.6860   -6.0736   22.5272 C   0  0  0  0  0  0
  -21.4014   -6.5643   23.8205 C   0  0  0  0  0  0
  -21.3656   -5.6794   24.9166 C   0  0  0  0  0  0
  -21.6046   -4.3056   24.7218 C   0  0  0  0  0  0
  -21.8820   -3.8147   23.4339 C   0  0  0  0  0  0
  -21.9198   -4.6964   22.3395 C   0  0  0  0  0  0
  -22.7856  -13.5222   21.1847 C   0  0  0  0  0  0
  -22.1670   -4.2148   21.0973 F   0  0  0  0  0  0
  -21.5625   -3.4535   25.7735 F   0  0  0  0  0  0
  -30.0122  -13.4013   20.4283 N   0  0  0  0  0  0
  -26.2971  -12.9341   20.3298 N   0  0  0  0  0  0
  -25.9312  -11.6490   20.5748 N   0  0  0  0  0  0
  -22.0516  -12.8196   22.0405 N   0  0  0  0  0  0
  -25.4280  -15.1874   20.4014 N   0  0  0  0  0  0
  -31.8223  -14.7371   20.1138 O   0  0  0  0  0  0
  -21.6642   -6.8873   21.4230 O   0  0  0  0  0  0
  -22.3528  -14.5523   20.6704 O   0  0  0  0  0  0
  -24.6247  -31.8594   23.1978 C   0  0  0  0  0  0
  -25.9095  -32.4777   23.8318 C   0  0  1  0  0  0
  -27.2379  -27.3493   20.1169 C   0  0  0  0  0  0
  -25.5921  -33.8581   24.2264 N   0  0  0  0  0  0
  -23.4179  -30.4809   21.5385 C   0  0  2  0  0  0
  -24.8645  -28.9307   20.1109 C   0  0  0  0  0  0
  -22.7477  -29.4637   22.4924 C   0  0  0  0  0  0
  -18.0295  -28.1408   22.8498 C   0  0  0  0  0  0
  -24.1488  -36.7299   23.2641 C   0  0  0  0  0  0
  -25.9541  -30.8035   21.3591 C   0  0  0  0  0  0
  -26.0303  -29.4278   20.7099 C   0  0  0  0  0  0
  -27.2209  -28.6505   20.6962 C   0  0  0  0  0  0
  -26.0526  -26.8872   19.5043 C   0  0  0  0  0  0
  -24.8751  -27.6649   19.4972 C   0  0  0  0  0  0
  -23.6302  -29.8068   20.1563 C   0  0  0  0  0  0
  -25.4117  -36.3094   24.0330 C   0  0  1  0  0  0
  -20.5895  -28.3696   23.1309 C   0  0  2  0  0  0
  -20.6783  -26.9417   22.5430 C   0  0  0  0  0  0
  -19.5759  -26.6394   21.5236 C   0  0  0  0  0  0
  -18.1939  -26.7948   22.1635 C   0  0  0  0  0  0
  -19.1547  -28.8867   23.2889 C   0  0  0  0  0  0
  -18.9461  -30.1478   23.8895 C   0  0  0  0  0  0
  -17.6459  -30.6594   24.0581 C   0  0  0  0  0  0
  -25.9050  -34.9465   23.5102 C   0  0  0  0  0  0
  -16.5355  -29.9102   23.6337 C   0  0  0  0  0  0
  -16.7280  -28.6525   23.0341 C   0  0  0  0  0  0
  -26.4475  -31.6584   25.0694 C   0  0  0  0  0  0
  -25.3719  -31.3730   26.1425 C   0  0  0  0  0  0
  -27.0279  -30.3017   24.6093 C   0  0  0  0  0  0
  -27.6056  -32.4285   25.7464 C   0  0  0  0  0  0
  -27.5573  -37.1813   24.8469 C   0  0  0  0  0  0
  -21.4188  -29.3043   22.3693 N   0  0  0  0  0  0
  -26.4285  -37.3799   23.9417 N   0  0  0  0  0  0
  -24.6842  -31.0645   22.0894 N   0  0  0  0  0  0
  -23.4219  -28.8187   23.2984 O   0  0  0  0  0  0
  -28.3863  -26.5551   20.1129 O   0  0  0  0  0  0
  -26.5605  -34.8934   22.4664 O   0  0  0  0  0  0
  -23.5418  -32.1343   23.7339 O   0  0  0  0  0  0
  -30.3681  -21.9358   20.2746 C   0  0  0  0  0  0
  -28.0896  -20.4836   20.5435 C   0  0  0  0  0  0
  -30.4846  -20.5389   20.5381 C   0  0  0  0  0  0
  -29.3031  -19.7524   20.6708 C   0  0  0  0  0  0
  -29.1050  -22.5682   20.1441 C   0  0  0  0  0  0
  -31.8716  -19.9349   20.6599 C   0  0  0  0  0  0
  -29.2083  -18.2148   21.0172 C   0  0  0  0  0  0
  -28.9601  -24.0559   19.6547 C   0  0  0  0  0  0
  -30.3036  -17.1388   20.6123 C   0  0  0  0  0  0
  -28.2949  -25.1561   20.5747 C   0  0  0  0  0  0
  -27.9848  -21.8182   20.2804 N   0  0  0  0  0  0
  -29.9132  -15.7026   20.8238 N   0  0  0  0  0  0
  -31.4680  -12.4707   19.1566 H   0  0  0  0  0  0
  -30.3357  -11.3770   19.8994 H   0  0  0  0  0  0
  -29.7633  -11.7484   17.4742 H   0  0  0  0  0  0
  -29.6535  -13.4686   17.7477 H   0  0  0  0  0  0
  -27.8463  -11.2946   18.8501 H   0  0  0  0  0  0
  -27.3745  -12.5903   17.7875 H   0  0  0  0  0  0
  -27.6701  -14.2529   19.5191 H   0  0  0  0  0  0
  -28.6944  -12.0652   21.3930 H   0  0  0  0  0  0
  -28.4457  -13.7335   21.8320 H   0  0  0  0  0  0
  -25.2768   -9.5687   22.4719 H   0  0  0  0  0  0
  -24.0024   -7.4625   22.7439 H   0  0  0  0  0  0
  -21.0852   -8.8723   19.8923 H   0  0  0  0  0  0
  -22.3674  -10.9643   19.6125 H   0  0  0  0  0  0
  -21.2002   -7.6150   23.9703 H   0  0  0  0  0  0
  -21.1481   -6.0527   25.9073 H   0  0  0  0  0  0
  -22.0608   -2.7604   23.2832 H   0  0  0  0  0  0
  -22.4205  -11.9884   22.4788 H   0  0  0  0  0  0
  -21.1104  -13.1133   22.2582 H   0  0  0  0  0  0
  -24.6518  -15.8373   20.4743 H   0  0  0  0  0  0
  -26.2639  -15.6113   20.0206 H   0  0  0  0  0  0
  -26.7180  -32.5442   23.1087 H   0  0  0  0  0  0
  -25.0105  -33.9713   25.0426 H   0  0  0  0  0  0
  -22.7120  -31.3011   21.3942 H   0  0  0  0  0  0
  -23.3743  -35.9650   23.3342 H   0  0  0  0  0  0
  -24.3568  -36.8855   22.2043 H   0  0  0  0  0  0
  -23.7238  -37.6517   23.6621 H   0  0  0  0  0  0
  -26.0735  -31.5605   20.5841 H   0  0  0  0  0  0
  -26.8416  -30.8603   21.9775 H   0  0  0  0  0  0
  -28.1217  -29.0365   21.1537 H   0  0  0  0  0  0
  -26.0346  -25.9189   19.0244 H   0  0  0  0  0  0
  -23.9848  -27.2833   19.0170 H   0  0  0  0  0  0
  -23.7401  -30.5773   19.3921 H   0  0  0  0  0  0
  -22.7533  -29.2268   19.8608 H   0  0  0  0  0  0
  -25.1305  -36.1952   25.0819 H   0  0  0  0  0  0
  -20.9999  -28.3250   24.1421 H   0  0  0  0  0  0
  -20.5716  -26.2292   23.3615 H   0  0  0  0  0  0
  -21.6644  -26.7449   22.1201 H   0  0  0  0  0  0
  -19.6902  -25.6307   21.1244 H   0  0  0  0  0  0
  -19.6702  -27.3224   20.6780 H   0  0  0  0  0  0
  -17.4215  -26.6722   21.4023 H   0  0  0  0  0  0
  -18.0303  -26.0103   22.9029 H   0  0  0  0  0  0
  -19.7934  -30.7322   24.2242 H   0  0  0  0  0  0
  -17.5002  -31.6264   24.5193 H   0  0  0  0  0  0
  -15.5353  -30.3003   23.7653 H   0  0  0  0  0  0
  -15.8678  -28.0855   22.7033 H   0  0  0  0  0  0
  -24.5919  -30.7037   25.7772 H   0  0  0  0  0  0
  -24.8885  -32.2899   26.4803 H   0  0  0  0  0  0
  -25.8053  -30.8949   27.0219 H   0  0  0  0  0  0
  -26.2803  -29.6825   24.1119 H   0  0  0  0  0  0
  -27.3992  -29.7217   25.4549 H   0  0  0  0  0  0
  -27.8684  -30.4323   23.9281 H   0  0  0  0  0  0
  -27.2686  -33.3605   26.2014 H   0  0  0  0  0  0
  -28.3886  -32.6780   25.0294 H   0  0  0  0  0  0
  -28.0699  -31.8405   26.5386 H   0  0  0  0  0  0
  -28.2624  -38.0079   24.7493 H   0  0  0  0  0  0
  -28.1024  -36.2611   24.6322 H   0  0  0  0  0  0
  -27.2286  -37.1480   25.8869 H   0  0  0  0  0  0
  -20.9363  -29.8734   21.6888 H   0  0  0  0  0  0
  -26.0168  -38.2885   24.1397 H   0  0  0  0  0  0
  -31.2639  -22.5260   20.1399 H   0  0  0  0  0  0
  -27.1455  -19.9714   20.6572 H   0  0  0  0  0  0
  -32.6457  -20.7014   20.6144 H   0  0  0  0  0  0
  -32.0617  -19.2362   19.8444 H   0  0  0  0  0  0
  -31.9864  -19.4143   21.6108 H   0  0  0  0  0  0
  -28.2684  -17.8727   20.5824 H   0  0  0  0  0  0
  -29.0540  -18.1514   22.0953 H   0  0  0  0  0  0
  -28.4149  -24.0317   18.7109 H   0  0  0  0  0  0
  -29.9612  -24.4044   19.3947 H   0  0  0  0  0  0
  -31.2237  -17.3084   21.1716 H   0  0  0  0  0  0
  -30.5555  -17.2592   19.5580 H   0  0  0  0  0  0
  -28.8029  -25.1312   21.5385 H   0  0  0  0  0  0
  -27.2648  -24.8735   20.7906 H   0  0  0  0  0  0
  -28.9671  -15.5225   21.1240 H   0  0  0  0  0  0
  1 25  1  0  0  0
  1 30  2  0  0  0
  1 82  1  0  0  0
  2  3  1  0  0  0
  2 25  1  0  0  0
  2 83  1  0  0  0
  2 84  1  0  0  0
  3  4  1  0  0  0
  3 85  1  0  0  0
  3 86  1  0  0  0
  4  5  1  0  0  0
  4 87  1  0  0  0
  4 88  1  0  0  0
  5  6  1  0  0  0
  5 26  1  0  0  0
  5 89  1  0  0  0
  6 25  1  0  0  0
  6 90  1  0  0  0
  6 91  1  0  0  0
  7  8  2  0  0  0
  7 26  1  0  0  0
  7 29  1  0  0  0
  8  9  1  0  0  0
  8 22  1  0  0  0
  9 10  1  0  0  0
  9 27  2  0  0  0
 10 11  2  0  0  0
 10 15  1  0  0  0
 11 12  1  0  0  0
 11 92  1  0  0  0
 12 13  2  0  0  0
 12 93  1  0  0  0
 13 14  1  0  0  0
 13 31  1  0  0  0
 14 15  2  0  0  0
 14 94  1  0  0  0
 15 95  1  0  0  0
 16 17  2  0  0  0
 16 21  1  0  0  0
 16 31  1  0  0  0
 17 18  1  0  0  0
 17 96  1  0  0  0
 18 19  2  0  0  0
 18 97  1  0  0  0
 19 20  1  0  0  0
 19 24  1  0  0  0
 20 21  2  0  0  0
 20 98  1  0  0  0
 21 23  1  0  0  0
 22 28  1  0  0  0
 22 32  2  0  0  0
 26 27  1  0  0  0
 28 99  1  0  0  0
 28100  1  0  0  0
 29101  1  0  0  0
 29102  1  0  0  0
 33 34  1  0  0  0
 33 66  1  0  0  0
 33 70  2  0  0  0
 34 36  1  0  0  0
 34 59  1  0  0  0
 34103  1  0  0  0
 35 44  2  0  0  0
 35 45  1  0  0  0
 35 68  1  0  0  0
 36 56  1  0  0  0
 36104  1  0  0  0
 37 39  1  0  0  0
 37 47  1  0  0  0
 37 66  1  0  0  0
 37105  1  0  0  0
 38 43  2  0  0  0
 38 46  1  0  0  0
 38 47  1  0  0  0
 39 64  1  0  0  0
 39 67  2  0  0  0
 40 52  1  0  0  0
 40 53  2  0  0  0
 40 58  1  0  0  0
 41106  1  0  0  0
 41107  1  0  0  0
 41108  1  0  0  0
 41 48  1  0  0  0
 42 43  1  0  0  0
 42 66  1  0  0  0
 42109  1  0  0  0
 42110  1  0  0  0
 43 44  1  0  0  0
 44111  1  0  0  0
 45 46  2  0  0  0
 45112  1  0  0  0
 46113  1  0  0  0
 47114  1  0  0  0
 47115  1  0  0  0
 48 56  1  0  0  0
 48 65  1  0  0  0
 48116  1  0  0  0
 49 50  1  0  0  0
 49 53  1  0  0  0
 49 64  1  0  0  0
 49117  1  0  0  0
 50 51  1  0  0  0
 50118  1  0  0  0
 50119  1  0  0  0
 51 52  1  0  0  0
 51120  1  0  0  0
 51121  1  0  0  0
 52122  1  0  0  0
 52123  1  0  0  0
 53 54  1  0  0  0
 54 55  2  0  0  0
 54124  1  0  0  0
 55 57  1  0  0  0
 55125  1  0  0  0
 56 69  2  0  0  0
 57 58  2  0  0  0
 57126  1  0  0  0
 58127  1  0  0  0
 59 60  1  0  0  0
 59 61  1  0  0  0
 59 62  1  0  0  0
 60128  1  0  0  0
 60129  1  0  0  0
 60130  1  0  0  0
 61131  1  0  0  0
 61132  1  0  0  0
 61133  1  0  0  0
 62134  1  0  0  0
 62135  1  0  0  0
 62136  1  0  0  0
 63 65  1  0  0  0
 63137  1  0  0  0
 63138  1  0  0  0
 63139  1  0  0  0
 64140  1  0  0  0
 65141  1  0  0  0
 68 80  1  0  0  0
 71 73  2  0  0  0
 71 75  1  0  0  0
 71142  1  0  0  0
 72 74  2  0  0  0
 72 81  1  0  0  0
 72143  1  0  0  0
 73 74  1  0  0  0
 73 76  1  0  0  0
 74 77  1  0  0  0
 75 78  1  0  0  0
 75 81  2  0  0  0
 76144  1  0  0  0
 76145  1  0  0  0
 76146  1  0  0  0
 77 79  1  0  0  0
 77147  1  0  0  0
 77148  1  0  0  0
 78 80  1  0  0  0
 78149  1  0  0  0
 78150  1  0  0  0
 79 82  1  0  0  0
 79151  1  0  0  0
 79152  1  0  0  0
 80153  1  0  0  0
 80154  1  0  0  0
 82155  1  0  0  0
M  ISO  4   1 100  68 101  80 101  82 100
M  END
> <chiral flag>
0

> <version>
0

> <s_m_source_file>
/data/baiqing/PycharmProjects/Reinvent-master-3.2/result/LINK_invent/BTK/process_docking_weight1_custom_sum_contain_oxygen_bond_distance_aromatic_linkinvent_7_9_3/rearranged_h_0045.sdf

> <i_m_source_file_index>
53

> <r_mmod_Potential_Energy-OPLS-2005>
-153.511215209961

> <r_mmod_Stretch_Energy-OPLS-2005>
71.6320343017578

> <r_mmod_Bend_Energy-OPLS-2005>
134.396438598633

> <r_mmod_Torsional_Energy-OPLS-2005>
208.972595214844

> <r_mmod_Improper_Torsional_Energy-OPLS-2005>
6.04438638687134

> <r_mmod_Van_der_Waal_Energy-OPLS-2005>
141.450546264648

> <r_mmod_Electrostatic_Energy-OPLS-2005>
-526.492553710938

> <r_mmod_Solvation_Energy-OPLS-2005>
-225.149642944336

> <b_mmod_Minimization_Converged-OPLS-2005>
0

> <r_mmod_RMS_Derivative-OPLS-2005>
3.02212047576904

$$$$
54
                    3D
 Structure written by MMmdl.
158166  0  0  1  0            999 V2000
  -30.7072  -14.6082   20.5462 C   0  0  0  0  0  0
  -30.4106  -12.3884   19.4721 C   0  0  0  0  0  0
  -29.4978  -12.5060   18.2340 C   0  0  0  0  0  0
  -28.0233  -12.3424   18.6443 C   0  0  0  0  0  0
  -27.6409  -13.2347   19.8553 C   0  0  2  0  0  0
  -28.6798  -13.1479   20.9943 C   0  0  0  0  0  0
  -25.2492  -13.8223   20.5709 C   0  0  0  0  0  0
  -24.1793  -13.0457   20.9214 C   0  0  0  0  0  0
  -24.6403  -11.6940   20.8770 C   0  0  0  0  0  0
  -23.9106  -10.4303   21.0436 C   0  0  0  0  0  0
  -24.3649   -9.4213   21.9206 C   0  0  0  0  0  0
  -23.6310   -8.2253   22.0764 C   0  0  0  0  0  0
  -22.4286   -8.0308   21.3557 C   0  0  0  0  0  0
  -21.9940   -9.0290   20.4657 C   0  0  0  0  0  0
  -22.7285  -10.2157   20.3065 C   0  0  0  0  0  0
  -21.6855   -6.0767   22.5302 C   0  0  0  0  0  0
  -21.4006   -6.5662   23.8234 C   0  0  0  0  0  0
  -21.3648   -5.6810   24.9192 C   0  0  0  0  0  0
  -21.6037   -4.3075   24.7239 C   0  0  0  0  0  0
  -21.8814   -3.8167   23.4355 C   0  0  0  0  0  0
  -21.9192   -4.6993   22.3417 C   0  0  0  0  0  0
  -22.7813  -13.5230   21.1886 C   0  0  0  0  0  0
  -22.1664   -4.2183   21.0993 F   0  0  0  0  0  0
  -21.5620   -3.4548   25.7743 F   0  0  0  0  0  0
  -30.0011  -13.4380   20.4309 N   0  0  0  0  0  0
  -26.2923  -12.9449   20.3299 N   0  0  0  0  0  0
  -25.9327  -11.6587   20.5768 N   0  0  0  0  0  0
  -22.0454  -12.8204   22.0429 N   0  0  0  0  0  0
  -25.4170  -15.1955   20.4144 N   0  0  0  0  0  0
  -31.8791  -14.6609   20.1590 O   0  0  0  0  0  0
  -21.6639   -6.8910   21.4259 O   0  0  0  0  0  0
  -22.3511  -14.5560   20.6779 O   0  0  0  0  0  0
  -24.6181  -31.8592   23.2000 C   0  0  0  0  0  0
  -25.9040  -32.4772   23.8357 C   0  0  1  0  0  0
  -27.2473  -27.3540   20.1632 C   0  0  0  0  0  0
  -25.5870  -33.8572   24.2291 N   0  0  0  0  0  0
  -23.4131  -30.4775   21.5373 C   0  0  2  0  0  0
  -24.8690  -28.9257   20.1178 C   0  0  0  0  0  0
  -22.7430  -29.4641   22.4936 C   0  0  0  0  0  0
  -18.0276  -28.1422   22.8487 C   0  0  0  0  0  0
  -24.1480  -36.7301   23.2642 C   0  0  0  0  0  0
  -25.9421  -30.8145   21.3539 C   0  0  0  0  0  0
  -26.0258  -29.4361   20.7177 C   0  0  0  0  0  0
  -27.2121  -28.6573   20.7318 C   0  0  0  0  0  0
  -26.0699  -26.8738   19.5470 C   0  0  0  0  0  0
  -24.8914  -27.6501   19.5244 C   0  0  0  0  0  0
  -23.6279  -29.7906   20.1582 C   0  0  0  0  0  0
  -25.4090  -36.3088   24.0338 C   0  0  1  0  0  0
  -20.5866  -28.3710   23.1287 C   0  0  2  0  0  0
  -20.6770  -26.9428   22.5414 C   0  0  0  0  0  0
  -19.5757  -26.6405   21.5224 C   0  0  0  0  0  0
  -18.1930  -26.7964   22.1620 C   0  0  0  0  0  0
  -19.1521  -28.8885   23.2882 C   0  0  0  0  0  0
  -18.9460  -30.1492   23.8893 C   0  0  0  0  0  0
  -17.6459  -30.6603   24.0596 C   0  0  0  0  0  0
  -25.9023  -34.9452   23.5109 C   0  0  0  0  0  0
  -16.5349  -29.9109   23.6355 C   0  0  0  0  0  0
  -16.7261  -28.6542   23.0344 C   0  0  0  0  0  0
  -26.4460  -31.6571   25.0705 C   0  0  0  0  0  0
  -25.3689  -31.3672   26.1424 C   0  0  0  0  0  0
  -27.0330  -30.3021   24.6109 C   0  0  0  0  0  0
  -27.6048  -32.4276   25.7450 C   0  0  0  0  0  0
  -27.5560  -37.1778   24.8435 C   0  0  0  0  0  0
  -21.4142  -29.3052   22.3661 N   0  0  0  0  0  0
  -26.4254  -37.3799   23.9421 N   0  0  0  0  0  0
  -24.6758  -31.0678   22.0898 N   0  0  0  0  0  0
  -23.4158  -28.8179   23.3005 O   0  0  0  0  0  0
  -28.4149  -26.5996   20.2721 O   0  0  0  0  0  0
  -26.5615  -34.8911   22.4685 O   0  0  0  0  0  0
  -23.5348  -32.1325   23.7376 O   0  0  0  0  0  0
  -29.2870  -16.6931   20.0097 C   0  0  0  0  0  0
  -30.0863  -15.9662   20.9359 C   0  0  0  0  0  0
  -30.4117  -18.0093   22.0774 C   0  0  0  0  0  0
  -29.7196  -18.7493   21.0688 C   0  0  0  0  0  0
  -31.0756  -18.6893   23.2628 C   0  0  0  0  0  0
  -27.4933  -20.8455   21.1803 C   0  0  0  0  0  0
  -29.9154  -20.2982   20.8425 C   0  0  0  0  0  0
  -28.3122  -23.9925   20.8328 C   0  0  0  0  0  0
  -29.0728  -22.6511   20.4266 C   0  0  0  0  0  0
  -28.5546  -25.2083   19.8347 C   0  0  0  0  0  0
  -29.1104  -18.0515   20.0669 N   0  0  0  0  0  0
  -30.5992  -16.6533   22.0033 N   0  0  0  0  0  0
  -28.8823  -21.3550   21.2140 N   0  3  1  0  0  0
  -31.4560  -12.4701   19.1711 H   0  0  0  0  0  0
  -30.3111  -11.4033   19.9298 H   0  0  0  0  0  0
  -29.7643  -11.7514   17.4918 H   0  0  0  0  0  0
  -29.6440  -13.4751   17.7517 H   0  0  0  0  0  0
  -27.8678  -11.2921   18.8949 H   0  0  0  0  0  0
  -27.3670  -12.5510   17.7980 H   0  0  0  0  0  0
  -27.6425  -14.2601   19.4876 H   0  0  0  0  0  0
  -28.6762  -12.1543   21.4440 H   0  0  0  0  0  0
  -28.4323  -13.8495   21.7926 H   0  0  0  0  0  0
  -25.2789   -9.5689   22.4790 H   0  0  0  0  0  0
  -24.0024   -7.4644   22.7479 H   0  0  0  0  0  0
  -21.0871   -8.8830   19.8961 H   0  0  0  0  0  0
  -22.3773  -10.9705   19.6173 H   0  0  0  0  0  0
  -21.1987   -7.6165   23.9754 H   0  0  0  0  0  0
  -21.1463   -6.0529   25.9098 H   0  0  0  0  0  0
  -22.0589   -2.7625   23.2851 H   0  0  0  0  0  0
  -22.4045  -11.9820   22.4764 H   0  0  0  0  0  0
  -21.1076  -13.1234   22.2662 H   0  0  0  0  0  0
  -24.6451  -15.8432   20.5289 H   0  0  0  0  0  0
  -26.2679  -15.6471   20.1052 H   0  0  0  0  0  0
  -26.7126  -32.5489   23.1143 H   0  0  0  0  0  0
  -25.0040  -33.9748   25.0450 H   0  0  0  0  0  0
  -22.7058  -31.2945   21.3787 H   0  0  0  0  0  0
  -23.3757  -35.9623   23.3265 H   0  0  0  0  0  0
  -24.3595  -36.8959   22.2071 H   0  0  0  0  0  0
  -23.7238  -37.6485   23.6691 H   0  0  0  0  0  0
  -26.0366  -31.5667   20.5690 H   0  0  0  0  0  0
  -26.8367  -30.8927   21.9602 H   0  0  0  0  0  0
  -28.1013  -29.0430   21.2132 H   0  0  0  0  0  0
  -26.0374  -25.8870   19.1150 H   0  0  0  0  0  0
  -24.0000  -27.2432   19.0712 H   0  0  0  0  0  0
  -23.7245  -30.5502   19.3817 H   0  0  0  0  0  0
  -22.7602  -29.1925   19.8718 H   0  0  0  0  0  0
  -25.1260  -36.1940   25.0836 H   0  0  0  0  0  0
  -20.9971  -28.3308   24.1406 H   0  0  0  0  0  0
  -20.5722  -26.2311   23.3611 H   0  0  0  0  0  0
  -21.6640  -26.7499   22.1185 H   0  0  0  0  0  0
  -19.6928  -25.6322   21.1258 H   0  0  0  0  0  0
  -19.6716  -27.3219   20.6766 H   0  0  0  0  0  0
  -17.4200  -26.6731   21.4019 H   0  0  0  0  0  0
  -18.0324  -26.0105   22.9014 H   0  0  0  0  0  0
  -19.7925  -30.7321   24.2239 H   0  0  0  0  0  0
  -17.5004  -31.6286   24.5200 H   0  0  0  0  0  0
  -15.5351  -30.3011   23.7686 H   0  0  0  0  0  0
  -15.8667  -28.0871   22.7049 H   0  0  0  0  0  0
  -24.5926  -30.6947   25.7734 H   0  0  0  0  0  0
  -24.8794  -32.2815   26.4785 H   0  0  0  0  0  0
  -25.7977  -30.8897   27.0246 H   0  0  0  0  0  0
  -26.2907  -29.6754   24.1152 H   0  0  0  0  0  0
  -27.4098  -29.7267   25.4586 H   0  0  0  0  0  0
  -27.8720  -30.4352   23.9275 H   0  0  0  0  0  0
  -27.2726  -33.3626   26.1963 H   0  0  0  0  0  0
  -28.3872  -32.6735   25.0260 H   0  0  0  0  0  0
  -28.0703  -31.8424   26.5394 H   0  0  0  0  0  0
  -28.2513  -38.0145   24.7580 H   0  0  0  0  0  0
  -28.1103  -36.2670   24.6107 H   0  0  0  0  0  0
  -27.2264  -37.1220   25.8829 H   0  0  0  0  0  0
  -20.9311  -29.8723   21.6827 H   0  0  0  0  0  0
  -26.0115  -38.2837   24.1535 H   0  0  0  0  0  0
  -28.9048  -16.2086   19.1228 H   0  0  0  0  0  0
  -30.4558  -19.4978   23.6522 H   0  0  0  0  0  0
  -32.0453  -19.1026   22.9842 H   0  0  0  0  0  0
  -31.2357  -17.9874   24.0823 H   0  0  0  0  0  0
  -27.3836  -19.9676   21.8164 H   0  0  0  0  0  0
  -27.2015  -20.5665   20.1689 H   0  0  0  0  0  0
  -26.7889  -21.5913   21.5504 H   0  0  0  0  0  0
  -30.1197  -20.4069   19.7773 H   0  0  0  0  0  0
  -30.8545  -20.5896   21.3133 H   0  0  0  0  0  0
  -28.6361  -24.2909   21.8312 H   0  0  0  0  0  0
  -27.2399  -23.8148   20.9067 H   0  0  0  0  0  0
  -30.1394  -22.8828   20.4547 H   0  0  0  0  0  0
  -28.8467  -22.4390   19.3819 H   0  0  0  0  0  0
  -28.0429  -25.0414   18.8871 H   0  0  0  0  0  0
  -29.6114  -25.1555   19.5707 H   0  0  0  0  0  0
  -29.0698  -21.5694   22.1819 H   0  0  0  0  0  0
  1 25  1  0  0  0
  1 30  2  0  0  0
  1 72  1  0  0  0
  2  3  1  0  0  0
  2 25  1  0  0  0
  2 84  1  0  0  0
  2 85  1  0  0  0
  3  4  1  0  0  0
  3 86  1  0  0  0
  3 87  1  0  0  0
  4  5  1  0  0  0
  4 88  1  0  0  0
  4 89  1  0  0  0
  5  6  1  0  0  0
  5 26  1  0  0  0
  5 90  1  0  0  0
  6 25  1  0  0  0
  6 91  1  0  0  0
  6 92  1  0  0  0
  7  8  2  0  0  0
  7 26  1  0  0  0
  7 29  1  0  0  0
  8  9  1  0  0  0
  8 22  1  0  0  0
  9 10  1  0  0  0
  9 27  2  0  0  0
 10 11  2  0  0  0
 10 15  1  0  0  0
 11 12  1  0  0  0
 11 93  1  0  0  0
 12 13  2  0  0  0
 12 94  1  0  0  0
 13 14  1  0  0  0
 13 31  1  0  0  0
 14 15  2  0  0  0
 14 95  1  0  0  0
 15 96  1  0  0  0
 16 17  2  0  0  0
 16 21  1  0  0  0
 16 31  1  0  0  0
 17 18  1  0  0  0
 17 97  1  0  0  0
 18 19  2  0  0  0
 18 98  1  0  0  0
 19 20  1  0  0  0
 19 24  1  0  0  0
 20 21  2  0  0  0
 20 99  1  0  0  0
 21 23  1  0  0  0
 22 28  1  0  0  0
 22 32  2  0  0  0
 26 27  1  0  0  0
 28100  1  0  0  0
 28101  1  0  0  0
 29102  1  0  0  0
 29103  1  0  0  0
 33 34  1  0  0  0
 33 66  1  0  0  0
 33 70  2  0  0  0
 34 36  1  0  0  0
 34 59  1  0  0  0
 34104  1  0  0  0
 35 44  2  0  0  0
 35 45  1  0  0  0
 35 68  1  0  0  0
 36 56  1  0  0  0
 36105  1  0  0  0
 37 39  1  0  0  0
 37 47  1  0  0  0
 37 66  1  0  0  0
 37106  1  0  0  0
 38 43  2  0  0  0
 38 46  1  0  0  0
 38 47  1  0  0  0
 39 64  1  0  0  0
 39 67  2  0  0  0
 40 52  1  0  0  0
 40 53  2  0  0  0
 40 58  1  0  0  0
 41107  1  0  0  0
 41108  1  0  0  0
 41109  1  0  0  0
 41 48  1  0  0  0
 42 43  1  0  0  0
 42 66  1  0  0  0
 42110  1  0  0  0
 42111  1  0  0  0
 43 44  1  0  0  0
 44112  1  0  0  0
 45 46  2  0  0  0
 45113  1  0  0  0
 46114  1  0  0  0
 47115  1  0  0  0
 47116  1  0  0  0
 48 56  1  0  0  0
 48 65  1  0  0  0
 48117  1  0  0  0
 49 50  1  0  0  0
 49 53  1  0  0  0
 49 64  1  0  0  0
 49118  1  0  0  0
 50 51  1  0  0  0
 50119  1  0  0  0
 50120  1  0  0  0
 51 52  1  0  0  0
 51121  1  0  0  0
 51122  1  0  0  0
 52123  1  0  0  0
 52124  1  0  0  0
 53 54  1  0  0  0
 54 55  2  0  0  0
 54125  1  0  0  0
 55 57  1  0  0  0
 55126  1  0  0  0
 56 69  2  0  0  0
 57 58  2  0  0  0
 57127  1  0  0  0
 58128  1  0  0  0
 59 60  1  0  0  0
 59 61  1  0  0  0
 59 62  1  0  0  0
 60129  1  0  0  0
 60130  1  0  0  0
 60131  1  0  0  0
 61132  1  0  0  0
 61133  1  0  0  0
 61134  1  0  0  0
 62135  1  0  0  0
 62136  1  0  0  0
 62137  1  0  0  0
 63 65  1  0  0  0
 63138  1  0  0  0
 63139  1  0  0  0
 63140  1  0  0  0
 64141  1  0  0  0
 65142  1  0  0  0
 68 80  1  0  0  0
 71 72  2  0  0  0
 71 81  1  0  0  0
 71143  1  0  0  0
 72 82  1  0  0  0
 73 74  1  0  0  0
 73 75  1  0  0  0
 73 82  2  0  0  0
 74 77  1  0  0  0
 74 81  2  0  0  0
 75144  1  0  0  0
 75145  1  0  0  0
 75146  1  0  0  0
 76147  1  0  0  0
 76148  1  0  0  0
 76149  1  0  0  0
 76 83  1  0  0  0
 77 83  1  0  0  0
 77150  1  0  0  0
 77151  1  0  0  0
 78 79  1  0  0  0
 78 80  1  0  0  0
 78152  1  0  0  0
 78153  1  0  0  0
 79 83  1  0  0  0
 79154  1  0  0  0
 79155  1  0  0  0
 80156  1  0  0  0
 80157  1  0  0  0
 83158  1  0  0  0
M  CHG  1  83   1
M  ISO  4   1 100  68 101  72 100  80 101
M  END
> <chiral flag>
0

> <version>
0

> <s_m_source_file>
/data/baiqing/PycharmProjects/Reinvent-master-3.2/result/LINK_invent/BTK/process_docking_weight1_custom_sum_contain_oxygen_bond_distance_aromatic_linkinvent_7_9_3/rearranged_h_0045.sdf

> <i_m_source_file_index>
54

> <r_mmod_Potential_Energy-OPLS-2005>
93.3239440917969

> <r_mmod_Stretch_Energy-OPLS-2005>
78.4225997924805

> <r_mmod_Bend_Energy-OPLS-2005>
168.970932006836

> <r_mmod_Torsional_Energy-OPLS-2005>
220.977874755859

> <r_mmod_Improper_Torsional_Energy-OPLS-2005>
9.79014301300049

> <r_mmod_Van_der_Waal_Energy-OPLS-2005>
136.599700927734

> <r_mmod_Electrostatic_Energy-OPLS-2005>
-109.820846557617

> <r_mmod_Solvation_Energy-OPLS-2005>
-455.123962402344

> <b_mmod_Minimization_Converged-OPLS-2005>
0

> <r_mmod_RMS_Derivative-OPLS-2005>
3.75634837150574

$$$$
55
                    3D
 Structure written by MMmdl.
156164  0  0  1  0            999 V2000
  -30.5599  -14.8032   20.4978 C   0  0  0  0  0  0
  -30.4589  -12.4957   19.4685 C   0  0  0  0  0  0
  -29.5260  -12.5203   18.2357 C   0  0  0  0  0  0
  -28.0480  -12.3404   18.6419 C   0  0  0  0  0  0
  -27.6513  -13.2278   19.8516 C   0  0  2  0  0  0
  -28.6999  -13.1370   20.9818 C   0  0  0  0  0  0
  -25.2580  -13.8185   20.5697 C   0  0  0  0  0  0
  -24.1855  -13.0447   20.9190 C   0  0  0  0  0  0
  -24.6424  -11.6916   20.8712 C   0  0  0  0  0  0
  -23.9090  -10.4304   21.0380 C   0  0  0  0  0  0
  -24.3626   -9.4221   21.9167 C   0  0  0  0  0  0
  -23.6300   -8.2257   22.0737 C   0  0  0  0  0  0
  -22.4280   -8.0292   21.3534 C   0  0  0  0  0  0
  -21.9928   -9.0269   20.4636 C   0  0  0  0  0  0
  -22.7254  -10.2148   20.3045 C   0  0  0  0  0  0
  -21.6861   -6.0747   22.5273 C   0  0  0  0  0  0
  -21.4017   -6.5641   23.8206 C   0  0  0  0  0  0
  -21.3659   -5.6787   24.9163 C   0  0  0  0  0  0
  -21.6054   -4.3051   24.7216 C   0  0  0  0  0  0
  -21.8816   -3.8152   23.4331 C   0  0  0  0  0  0
  -21.9193   -4.6976   22.3392 C   0  0  0  0  0  0
  -22.7872  -13.5239   21.1831 C   0  0  0  0  0  0
  -22.1662   -4.2158   21.0971 F   0  0  0  0  0  0
  -21.5628   -3.4525   25.7725 F   0  0  0  0  0  0
  -29.9973  -13.5393   20.4170 N   0  0  0  0  0  0
  -26.3001  -12.9380   20.3263 N   0  0  0  0  0  0
  -25.9353  -11.6527   20.5710 N   0  0  0  0  0  0
  -22.0501  -12.8259   22.0398 N   0  0  0  0  0  0
  -25.4296  -15.1917   20.4172 N   0  0  0  0  0  0
  -31.7085  -14.9666   20.0706 O   0  0  0  0  0  0
  -21.6633   -6.8893   21.4238 O   0  0  0  0  0  0
  -22.3566  -14.5534   20.6645 O   0  0  0  0  0  0
  -24.6364  -31.8515   23.1954 C   0  0  0  0  0  0
  -25.9182  -32.4716   23.8295 C   0  0  1  0  0  0
  -27.2183  -27.2035   20.1376 C   0  0  0  0  0  0
  -25.5963  -33.8518   24.2230 N   0  0  0  0  0  0
  -23.4342  -30.4745   21.5420 C   0  0  2  0  0  0
  -24.8837  -28.9159   20.1119 C   0  0  0  0  0  0
  -22.7509  -29.4580   22.4906 C   0  0  0  0  0  0
  -18.0272  -28.1377   22.8496 C   0  0  0  0  0  0
  -24.1490  -36.7268   23.2638 C   0  0  0  0  0  0
  -25.9868  -30.7440   21.3862 C   0  0  0  0  0  0
  -26.0581  -29.3618   20.7287 C   0  0  0  0  0  0
  -27.2270  -28.5213   20.7279 C   0  0  0  0  0  0
  -26.0187  -26.8483   19.4775 C   0  0  0  0  0  0
  -24.8737  -27.6694   19.4720 C   0  0  0  0  0  0
  -23.6566  -29.8094   20.1591 C   0  0  0  0  0  0
  -25.4116  -36.3039   24.0327 C   0  0  1  0  0  0
  -20.5887  -28.3662   23.1244 C   0  0  2  0  0  0
  -20.6745  -26.9376   22.5377 C   0  0  0  0  0  0
  -19.5694  -26.6374   21.5206 C   0  0  0  0  0  0
  -18.1895  -26.7908   22.1633 C   0  0  0  0  0  0
  -19.1541  -28.8836   23.2857 C   0  0  0  0  0  0
  -18.9487  -30.1429   23.8873 C   0  0  0  0  0  0
  -17.6500  -30.6580   24.0583 C   0  0  0  0  0  0
  -25.9079  -34.9417   23.5085 C   0  0  0  0  0  0
  -16.5368  -29.9101   23.6351 C   0  0  0  0  0  0
  -16.7272  -28.6514   23.0367 C   0  0  0  0  0  0
  -26.4518  -31.6557   25.0705 C   0  0  0  0  0  0
  -25.3712  -31.3756   26.1411 C   0  0  0  0  0  0
  -27.0371  -30.2946   24.6251 C   0  0  0  0  0  0
  -27.6050  -32.4319   25.7488 C   0  0  0  0  0  0
  -27.5579  -37.1785   24.8464 C   0  0  0  0  0  0
  -21.4207  -29.3023   22.3633 N   0  0  0  0  0  0
  -26.4276  -37.3755   23.9422 N   0  0  0  0  0  0
  -24.7050  -31.0425   22.0963 N   0  0  0  0  0  0
  -23.4193  -28.8142   23.3030 O   0  0  0  0  0  0
  -28.2937  -26.2607   20.1896 O   0  0  0  0  0  0
  -26.5634  -34.8903   22.4648 O   0  0  0  0  0  0
  -23.5504  -32.1358   23.7233 O   0  0  0  0  0  0
  -28.9911  -18.1436   19.5982 C   0  0  0  0  0  0
  -28.6832  -19.5400   19.4652 C   0  0  0  0  0  0
  -29.7676  -17.6388   20.6781 C   0  0  0  0  0  0
  -29.1316  -20.5214   20.3959 C   0  0  0  0  0  0
  -30.2623  -18.6982   21.5155 C   0  0  0  0  0  0
  -30.2959  -18.2828   24.0221 C   0  0  0  0  0  0
  -29.7369  -16.0676   21.1023 C   0  0  0  0  0  0
  -28.4156  -21.9775   20.5088 C   0  0  0  0  0  0
  -31.1222  -18.3835   22.7319 C   0  0  0  0  0  0
  -29.0337  -23.4887   20.2959 C   0  0  0  0  0  0
  -27.9806  -24.7623   20.2644 C   0  0  0  0  0  0
  -29.9487  -20.0462   21.3858 N   0  0  0  0  0  0
  -31.4935  -12.6560   19.1562 H   0  0  0  0  0  0
  -30.4414  -11.5154   19.9481 H   0  0  0  0  0  0
  -29.8151  -11.7373   17.5323 H   0  0  0  0  0  0
  -29.6472  -13.4670   17.7075 H   0  0  0  0  0  0
  -27.8979  -11.2890   18.8897 H   0  0  0  0  0  0
  -27.3966  -12.5463   17.7915 H   0  0  0  0  0  0
  -27.6508  -14.2536   19.4827 H   0  0  0  0  0  0
  -28.7541  -12.1187   21.3699 H   0  0  0  0  0  0
  -28.4174  -13.7603   21.8304 H   0  0  0  0  0  0
  -25.2770   -9.5689   22.4739 H   0  0  0  0  0  0
  -23.9999   -7.4649   22.7459 H   0  0  0  0  0  0
  -21.0853   -8.8803   19.8945 H   0  0  0  0  0  0
  -22.3714  -10.9689   19.6151 H   0  0  0  0  0  0
  -21.2005   -7.6143   23.9720 H   0  0  0  0  0  0
  -21.1485   -6.0502   25.9069 H   0  0  0  0  0  0
  -22.0597   -2.7612   23.2817 H   0  0  0  0  0  0
  -22.4107  -11.9924   22.4807 H   0  0  0  0  0  0
  -21.1102  -13.1269   22.2557 H   0  0  0  0  0  0
  -24.6628  -15.8445   20.5374 H   0  0  0  0  0  0
  -26.2823  -15.6360   20.1036 H   0  0  0  0  0  0
  -26.7242  -32.5323   23.1030 H   0  0  0  0  0  0
  -25.0074  -33.9646   25.0353 H   0  0  0  0  0  0
  -22.7333  -31.2982   21.3958 H   0  0  0  0  0  0
  -23.3754  -35.9603   23.3273 H   0  0  0  0  0  0
  -24.3573  -36.8904   22.2054 H   0  0  0  0  0  0
  -23.7239  -37.6465   23.6674 H   0  0  0  0  0  0
  -26.1355  -31.5020   20.6154 H   0  0  0  0  0  0
  -26.8609  -30.7895   22.0244 H   0  0  0  0  0  0
  -28.1201  -28.8628   21.2311 H   0  0  0  0  0  0
  -25.9212  -25.9115   18.9542 H   0  0  0  0  0  0
  -23.9787  -27.3235   18.9743 H   0  0  0  0  0  0
  -23.7881  -30.5874   19.4053 H   0  0  0  0  0  0
  -22.7719  -29.2498   19.8496 H   0  0  0  0  0  0
  -25.1300  -36.1872   25.0817 H   0  0  0  0  0  0
  -20.9974  -28.3206   24.1365 H   0  0  0  0  0  0
  -20.5658  -26.2265   23.3586 H   0  0  0  0  0  0
  -21.6595  -26.7396   22.1148 H   0  0  0  0  0  0
  -19.6851  -25.6301   21.1177 H   0  0  0  0  0  0
  -19.6592  -27.3208   20.6751 H   0  0  0  0  0  0
  -17.4143  -26.6641   21.4057 H   0  0  0  0  0  0
  -18.0312  -26.0041   22.9023 H   0  0  0  0  0  0
  -19.7989  -30.7223   24.2213 H   0  0  0  0  0  0
  -17.5093  -31.6266   24.5208 H   0  0  0  0  0  0
  -15.5382  -30.3017   23.7682 H   0  0  0  0  0  0
  -15.8671  -28.0841   22.7074 H   0  0  0  0  0  0
  -24.5900  -30.7089   25.7749 H   0  0  0  0  0  0
  -24.8897  -32.2942   26.4765 H   0  0  0  0  0  0
  -25.7997  -30.8980   27.0226 H   0  0  0  0  0  0
  -26.2979  -29.6679   24.1236 H   0  0  0  0  0  0
  -27.3973  -29.7222   25.4811 H   0  0  0  0  0  0
  -27.8890  -30.4184   23.9558 H   0  0  0  0  0  0
  -27.2631  -33.3626   26.2031 H   0  0  0  0  0  0
  -28.3868  -32.6865   25.0326 H   0  0  0  0  0  0
  -28.0695  -31.8454   26.5423 H   0  0  0  0  0  0
  -28.2584  -38.0094   24.7510 H   0  0  0  0  0  0
  -28.1076  -36.2618   24.6279 H   0  0  0  0  0  0
  -27.2283  -37.1414   25.8860 H   0  0  0  0  0  0
  -20.9377  -29.8771   21.6869 H   0  0  0  0  0  0
  -26.0139  -38.2824   24.1427 H   0  0  0  0  0  0
  -28.5218  -17.4463   18.9181 H   0  0  0  0  0  0
  -27.9934  -19.8344   18.6858 H   0  0  0  0  0  0
  -30.9368  -18.0804   24.8785 H   0  0  0  0  0  0
  -29.5553  -17.4845   23.9639 H   0  0  0  0  0  0
  -29.7653  -19.2156   24.2172 H   0  0  0  0  0  0
  -28.6857  -15.8133   20.9896 H   0  0  0  0  0  0
  -29.9010  -16.0120   22.1763 H   0  0  0  0  0  0
  -27.9532  -21.9782   21.4973 H   0  0  0  0  0  0
  -27.5655  -21.9192   19.8283 H   0  0  0  0  0  0
  -31.8740  -19.1662   22.8488 H   0  0  0  0  0  0
  -31.6859  -17.4648   22.5658 H   0  0  0  0  0  0
  -29.5881  -23.4986   19.3572 H   0  0  0  0  0  0
  -29.7789  -23.6640   21.0721 H   0  0  0  0  0  0
  -27.3469  -24.6545   21.1481 H   0  0  0  0  0  0
  -27.3414  -24.5176   19.4198 H   0  0  0  0  0  0
  1 25  1  0  0  0
  1 30  2  0  0  0
  1 77  1  0  0  0
  2  3  1  0  0  0
  2 25  1  0  0  0
  2 83  1  0  0  0
  2 84  1  0  0  0
  3  4  1  0  0  0
  3 85  1  0  0  0
  3 86  1  0  0  0
  4  5  1  0  0  0
  4 87  1  0  0  0
  4 88  1  0  0  0
  5  6  1  0  0  0
  5 26  1  0  0  0
  5 89  1  0  0  0
  6 25  1  0  0  0
  6 90  1  0  0  0
  6 91  1  0  0  0
  7  8  2  0  0  0
  7 26  1  0  0  0
  7 29  1  0  0  0
  8  9  1  0  0  0
  8 22  1  0  0  0
  9 10  1  0  0  0
  9 27  2  0  0  0
 10 11  2  0  0  0
 10 15  1  0  0  0
 11 12  1  0  0  0
 11 92  1  0  0  0
 12 13  2  0  0  0
 12 93  1  0  0  0
 13 14  1  0  0  0
 13 31  1  0  0  0
 14 15  2  0  0  0
 14 94  1  0  0  0
 15 95  1  0  0  0
 16 17  2  0  0  0
 16 21  1  0  0  0
 16 31  1  0  0  0
 17 18  1  0  0  0
 17 96  1  0  0  0
 18 19  2  0  0  0
 18 97  1  0  0  0
 19 20  1  0  0  0
 19 24  1  0  0  0
 20 21  2  0  0  0
 20 98  1  0  0  0
 21 23  1  0  0  0
 22 28  1  0  0  0
 22 32  2  0  0  0
 26 27  1  0  0  0
 28 99  1  0  0  0
 28100  1  0  0  0
 29101  1  0  0  0
 29102  1  0  0  0
 33 34  1  0  0  0
 33 66  1  0  0  0
 33 70  2  0  0  0
 34 36  1  0  0  0
 34 59  1  0  0  0
 34103  1  0  0  0
 35 44  2  0  0  0
 35 45  1  0  0  0
 35 68  1  0  0  0
 36 56  1  0  0  0
 36104  1  0  0  0
 37 39  1  0  0  0
 37 47  1  0  0  0
 37 66  1  0  0  0
 37105  1  0  0  0
 38 43  2  0  0  0
 38 46  1  0  0  0
 38 47  1  0  0  0
 39 64  1  0  0  0
 39 67  2  0  0  0
 40 52  1  0  0  0
 40 53  2  0  0  0
 40 58  1  0  0  0
 41106  1  0  0  0
 41107  1  0  0  0
 41108  1  0  0  0
 41 48  1  0  0  0
 42 43  1  0  0  0
 42 66  1  0  0  0
 42109  1  0  0  0
 42110  1  0  0  0
 43 44  1  0  0  0
 44111  1  0  0  0
 45 46  2  0  0  0
 45112  1  0  0  0
 46113  1  0  0  0
 47114  1  0  0  0
 47115  1  0  0  0
 48 56  1  0  0  0
 48 65  1  0  0  0
 48116  1  0  0  0
 49 50  1  0  0  0
 49 53  1  0  0  0
 49 64  1  0  0  0
 49117  1  0  0  0
 50 51  1  0  0  0
 50118  1  0  0  0
 50119  1  0  0  0
 51 52  1  0  0  0
 51120  1  0  0  0
 51121  1  0  0  0
 52122  1  0  0  0
 52123  1  0  0  0
 53 54  1  0  0  0
 54 55  2  0  0  0
 54124  1  0  0  0
 55 57  1  0  0  0
 55125  1  0  0  0
 56 69  2  0  0  0
 57 58  2  0  0  0
 57126  1  0  0  0
 58127  1  0  0  0
 59 60  1  0  0  0
 59 61  1  0  0  0
 59 62  1  0  0  0
 60128  1  0  0  0
 60129  1  0  0  0
 60130  1  0  0  0
 61131  1  0  0  0
 61132  1  0  0  0
 61133  1  0  0  0
 62134  1  0  0  0
 62135  1  0  0  0
 62136  1  0  0  0
 63 65  1  0  0  0
 63137  1  0  0  0
 63138  1  0  0  0
 63139  1  0  0  0
 64140  1  0  0  0
 65141  1  0  0  0
 68 81  1  0  0  0
 71 72  2  0  0  0
 71 73  1  0  0  0
 71142  1  0  0  0
 72 74  1  0  0  0
 72143  1  0  0  0
 73 75  2  0  0  0
 73 77  1  0  0  0
 74 78  1  0  0  0
 74 82  2  0  0  0
 75 79  1  0  0  0
 75 82  1  0  0  0
 76 79  1  0  0  0
 76144  1  0  0  0
 76145  1  0  0  0
 76146  1  0  0  0
 77147  1  0  0  0
 77148  1  0  0  0
 78 80  1  0  0  0
 78149  1  0  0  0
 78150  1  0  0  0
 79151  1  0  0  0
 79152  1  0  0  0
 80 81  1  0  0  0
 80153  1  0  0  0
 80154  1  0  0  0
 81155  1  0  0  0
 81156  1  0  0  0
M  ISO  4   1 100  68 101  77 100  81 101
M  END
> <chiral flag>
0

> <version>
0

> <s_m_source_file>
/data/baiqing/PycharmProjects/Reinvent-master-3.2/result/LINK_invent/BTK/process_docking_weight1_custom_sum_contain_oxygen_bond_distance_aromatic_linkinvent_7_9_3/rearranged_h_0045.sdf

> <i_m_source_file_index>
55

> <r_mmod_Potential_Energy-OPLS-2005>
115.686096191406

> <r_mmod_Stretch_Energy-OPLS-2005>
170.168045043945

> <r_mmod_Bend_Energy-OPLS-2005>
229.798751831055

> <r_mmod_Torsional_Energy-OPLS-2005>
181.858535766602

> <r_mmod_Improper_Torsional_Energy-OPLS-2005>
7.73222827911377

> <r_mmod_Van_der_Waal_Energy-OPLS-2005>
136.292297363281

> <r_mmod_Electrostatic_Energy-OPLS-2005>
-511.687103271484

> <r_mmod_Solvation_Energy-OPLS-2005>
-214.704010009766

> <b_mmod_Minimization_Converged-OPLS-2005>
0

> <r_mmod_RMS_Derivative-OPLS-2005>
2.51920580863953

$$$$
56
                    3D
 Structure written by MMmdl.
166174  0  0  1  0            999 V2000
  -30.7007  -14.4284   20.5775 C   0  0  0  0  0  0
  -30.4319  -12.3074   19.3468 C   0  0  0  0  0  0
  -29.4753  -12.5217   18.1562 C   0  0  0  0  0  0
  -27.9994  -12.3934   18.5852 C   0  0  0  0  0  0
  -27.6662  -13.2010   19.8691 C   0  0  2  0  0  0
  -28.7166  -12.9379   20.9682 C   0  0  0  0  0  0
  -25.2627  -13.8134   20.5605 C   0  0  0  0  0  0
  -24.1869  -13.0429   20.9175 C   0  0  0  0  0  0
  -24.6442  -11.6900   20.8738 C   0  0  0  0  0  0
  -23.9120  -10.4294   21.0434 C   0  0  0  0  0  0
  -24.3674   -9.4193   21.9200 C   0  0  0  0  0  0
  -23.6318   -8.2247   22.0794 C   0  0  0  0  0  0
  -22.4270   -8.0317   21.3596 C   0  0  0  0  0  0
  -21.9944   -9.0295   20.4688 C   0  0  0  0  0  0
  -22.7298  -10.2155   20.3087 C   0  0  0  0  0  0
  -21.6856   -6.0742   22.5286 C   0  0  0  0  0  0
  -21.4008   -6.5653   23.8226 C   0  0  0  0  0  0
  -21.3634   -5.6802   24.9190 C   0  0  0  0  0  0
  -21.6014   -4.3079   24.7239 C   0  0  0  0  0  0
  -21.8820   -3.8151   23.4361 C   0  0  0  0  0  0
  -21.9201   -4.6969   22.3414 C   0  0  0  0  0  0
  -22.7902  -13.5258   21.1833 C   0  0  0  0  0  0
  -22.1661   -4.2156   21.0990 F   0  0  0  0  0  0
  -21.5651   -3.4549   25.7750 F   0  0  0  0  0  0
  -30.0422  -13.2549   20.3992 N   0  0  0  0  0  0
  -26.3075  -12.9278   20.3352 N   0  0  0  0  0  0
  -25.9370  -11.6465   20.5739 N   0  0  0  0  0  0
  -22.0550  -12.8245   22.0388 N   0  0  0  0  0  0
  -25.4381  -15.1835   20.3969 N   0  0  0  0  0  0
  -31.8432  -14.6473   20.1659 O   0  0  0  0  0  0
  -21.6653   -6.8904   21.4257 O   0  0  0  0  0  0
  -22.3588  -14.5562   20.6713 O   0  0  0  0  0  0
  -24.6201  -31.8679   23.2086 C   0  0  0  0  0  0
  -25.9082  -32.4819   23.8386 C   0  0  1  0  0  0
  -27.2481  -27.4389   20.0241 C   0  0  0  0  0  0
  -25.5928  -33.8613   24.2314 N   0  0  0  0  0  0
  -23.4085  -30.4905   21.5511 C   0  0  2  0  0  0
  -24.8514  -28.9545   20.1177 C   0  0  0  0  0  0
  -22.7431  -29.4668   22.4983 C   0  0  0  0  0  0
  -18.0281  -28.1393   22.8485 C   0  0  0  0  0  0
  -24.1493  -36.7315   23.2635 C   0  0  0  0  0  0
  -25.9421  -30.8228   21.3666 C   0  0  0  0  0  0
  -26.0177  -29.4575   20.7081 C   0  0  0  0  0  0
  -27.2176  -28.7030   20.6690 C   0  0  0  0  0  0
  -26.0411  -26.9323   19.4902 C   0  0  0  0  0  0
  -24.8557  -27.6849   19.5188 C   0  0  0  0  0  0
  -23.6149  -29.8229   20.1677 C   0  0  0  0  0  0
  -25.4113  -36.3106   24.0331 C   0  0  1  0  0  0
  -20.5877  -28.3679   23.1305 C   0  0  2  0  0  0
  -20.6773  -26.9413   22.5406 C   0  0  0  0  0  0
  -19.5749  -26.6389   21.5210 C   0  0  0  0  0  0
  -18.1929  -26.7945   22.1618 C   0  0  0  0  0  0
  -19.1536  -28.8838   23.2898 C   0  0  0  0  0  0
  -18.9460  -30.1451   23.8908 C   0  0  0  0  0  0
  -17.6465  -30.6590   24.0568 C   0  0  0  0  0  0
  -25.9040  -34.9470   23.5121 C   0  0  0  0  0  0
  -16.5359  -29.9098   23.6340 C   0  0  0  0  0  0
  -16.7269  -28.6521   23.0339 C   0  0  0  0  0  0
  -26.4479  -31.6607   25.0731 C   0  0  0  0  0  0
  -25.3729  -31.3743   26.1470 C   0  0  0  0  0  0
  -27.0312  -30.3038   24.6139 C   0  0  0  0  0  0
  -27.6053  -32.4328   25.7502 C   0  0  0  0  0  0
  -27.5586  -37.1813   24.8458 C   0  0  0  0  0  0
  -21.4155  -29.3052   22.3713 N   0  0  0  0  0  0
  -26.4293  -37.3795   23.9411 N   0  0  0  0  0  0
  -24.6755  -31.0739   22.0998 N   0  0  0  0  0  0
  -23.4186  -28.8201   23.3039 O   0  0  0  0  0  0
  -28.4276  -26.7182   19.9399 O   0  0  0  0  0  0
  -26.5599  -34.8930   22.4672 O   0  0  0  0  0  0
  -23.5389  -32.1426   23.7447 O   0  0  0  0  0  0
  -29.0515  -19.6488   18.4336 C   0  0  0  0  0  0
  -30.3003  -19.5433   19.0984 C   0  0  0  0  0  0
  -29.0331  -20.7956   17.6972 C   0  0  0  0  0  0
  -30.9636  -20.7248   18.8646 C   0  0  0  0  0  0
  -28.0282  -21.2192   16.6699 C   0  0  0  0  0  0
  -32.3255  -21.1571   19.3155 C   0  0  0  0  0  0
  -30.7850  -18.3169   19.8534 C   0  0  0  0  0  0
  -29.8354  -17.8723   20.9779 C   0  0  0  0  0  0
  -29.6126  -23.9864   17.4687 C   0  0  0  0  0  0
  -29.5120  -24.7522   18.8122 C   0  0  0  0  0  0
  -30.6052  -22.7896   17.4015 C   0  0  0  0  0  0
  -30.3521  -16.6422   21.7450 C   0  0  0  0  0  0
  -28.7176  -26.0771   18.6757 C   0  0  0  0  0  0
  -30.1848  -21.5154   18.0104 N   0  0  0  0  0  0
  -29.9481  -15.3728   21.1547 N   0  0  0  0  0  0
  -31.4621  -12.4555   19.0143 H   0  0  0  0  0  0
  -30.3693  -11.2799   19.7057 H   0  0  0  0  0  0
  -29.6944  -11.8150   17.3573 H   0  0  0  0  0  0
  -29.6354  -13.5130   17.7259 H   0  0  0  0  0  0
  -27.8002  -11.3365   18.7498 H   0  0  0  0  0  0
  -27.3435  -12.7155   17.7737 H   0  0  0  0  0  0
  -27.7236  -14.2587   19.6082 H   0  0  0  0  0  0
  -28.6890  -11.8987   21.2941 H   0  0  0  0  0  0
  -28.4892  -13.5156   21.8655 H   0  0  0  0  0  0
  -25.2833   -9.5628   22.4767 H   0  0  0  0  0  0
  -23.9993   -7.4620   22.7506 H   0  0  0  0  0  0
  -21.0862   -8.8849   19.8977 H   0  0  0  0  0  0
  -22.3800  -10.9713   19.6185 H   0  0  0  0  0  0
  -21.2006   -7.6166   23.9724 H   0  0  0  0  0  0
  -21.1440   -6.0553   25.9087 H   0  0  0  0  0  0
  -22.0630   -2.7624   23.2876 H   0  0  0  0  0  0
  -22.4180  -11.9838   22.4592 H   0  0  0  0  0  0
  -21.1230  -13.1297   22.2756 H   0  0  0  0  0  0
  -24.6760  -15.8455   20.4986 H   0  0  0  0  0  0
  -26.2884  -15.6084   20.0481 H   0  0  0  0  0  0
  -26.7154  -32.5508   23.1151 H   0  0  0  0  0  0
  -25.0115  -33.9775   25.0484 H   0  0  0  0  0  0
  -22.6998  -31.3098   21.4091 H   0  0  0  0  0  0
  -23.3759  -35.9646   23.3299 H   0  0  0  0  0  0
  -24.3592  -36.8928   22.2052 H   0  0  0  0  0  0
  -23.7242  -37.6515   23.6648 H   0  0  0  0  0  0
  -26.0630  -31.5900   20.6012 H   0  0  0  0  0  0
  -26.8274  -30.8690   21.9897 H   0  0  0  0  0  0
  -28.1240  -29.0990   21.1019 H   0  0  0  0  0  0
  -25.9976  -25.9473   19.0489 H   0  0  0  0  0  0
  -23.9549  -27.2801   19.0779 H   0  0  0  0  0  0
  -23.7251  -30.5959   19.4062 H   0  0  0  0  0  0
  -22.7381  -29.2427   19.8726 H   0  0  0  0  0  0
  -25.1290  -36.1974   25.0825 H   0  0  0  0  0  0
  -20.9976  -28.3254   24.1426 H   0  0  0  0  0  0
  -20.5698  -26.2291   23.3597 H   0  0  0  0  0  0
  -21.6645  -26.7466   22.1198 H   0  0  0  0  0  0
  -19.6922  -25.6304   21.1237 H   0  0  0  0  0  0
  -19.6705  -27.3206   20.6745 H   0  0  0  0  0  0
  -17.4210  -26.6700   21.4007 H   0  0  0  0  0  0
  -18.0324  -26.0074   22.8999 H   0  0  0  0  0  0
  -19.7931  -30.7260   24.2292 H   0  0  0  0  0  0
  -17.5020  -31.6272   24.5169 H   0  0  0  0  0  0
  -15.5361  -30.3001   23.7647 H   0  0  0  0  0  0
  -15.8674  -28.0849   22.7036 H   0  0  0  0  0  0
  -24.5905  -30.7082   25.7815 H   0  0  0  0  0  0
  -24.8915  -32.2908   26.4884 H   0  0  0  0  0  0
  -25.8064  -30.8940   27.0248 H   0  0  0  0  0  0
  -26.2865  -29.6810   24.1166 H   0  0  0  0  0  0
  -27.4033  -29.7274   25.4617 H   0  0  0  0  0  0
  -27.8722  -30.4347   23.9330 H   0  0  0  0  0  0
  -27.2675  -33.3633   26.2073 H   0  0  0  0  0  0
  -28.3867  -32.6874   25.0334 H   0  0  0  0  0  0
  -28.0706  -31.8453   26.5423 H   0  0  0  0  0  0
  -28.2594  -38.0120   24.7524 H   0  0  0  0  0  0
  -28.1095  -36.2653   24.6260 H   0  0  0  0  0  0
  -27.2310  -37.1434   25.8861 H   0  0  0  0  0  0
  -20.9321  -29.8781   21.6932 H   0  0  0  0  0  0
  -26.0188  -38.2875   24.1411 H   0  0  0  0  0  0
  -28.2700  -18.9017   18.4181 H   0  0  0  0  0  0
  -27.4199  -20.3688   16.3590 H   0  0  0  0  0  0
  -28.5139  -21.6062   15.7723 H   0  0  0  0  0  0
  -27.3392  -21.9684   17.0597 H   0  0  0  0  0  0
  -32.7212  -20.5069   20.0944 H   0  0  0  0  0  0
  -32.3104  -22.1662   19.7292 H   0  0  0  0  0  0
  -33.0281  -21.1376   18.4804 H   0  0  0  0  0  0
  -31.7775  -18.4992   20.2670 H   0  0  0  0  0  0
  -30.9142  -17.4965   19.1440 H   0  0  0  0  0  0
  -28.8261  -17.6924   20.6020 H   0  0  0  0  0  0
  -29.7409  -18.6952   21.6887 H   0  0  0  0  0  0
  -29.9437  -24.6896   16.7019 H   0  0  0  0  0  0
  -28.6169  -23.7007   17.1468 H   0  0  0  0  0  0
  -30.5167  -24.9674   19.1750 H   0  0  0  0  0  0
  -29.0383  -24.1139   19.5600 H   0  0  0  0  0  0
  -31.5572  -23.1144   17.8150 H   0  0  0  0  0  0
  -30.8253  -22.5664   16.3560 H   0  0  0  0  0  0
  -29.8940  -16.6478   22.7333 H   0  0  0  0  0  0
  -31.4284  -16.6933   21.9100 H   0  0  0  0  0  0
  -27.8373  -25.8787   18.0690 H   0  0  0  0  0  0
  -29.2963  -26.7816   18.0762 H   0  0  0  0  0  0
  -28.9897  -15.1025   21.3088 H   0  0  0  0  0  0
  1 25  1  0  0  0
  1 30  2  0  0  0
  1 85  1  0  0  0
  2  3  1  0  0  0
  2 25  1  0  0  0
  2 86  1  0  0  0
  2 87  1  0  0  0
  3  4  1  0  0  0
  3 88  1  0  0  0
  3 89  1  0  0  0
  4  5  1  0  0  0
  4 90  1  0  0  0
  4 91  1  0  0  0
  5  6  1  0  0  0
  5 26  1  0  0  0
  5 92  1  0  0  0
  6 25  1  0  0  0
  6 93  1  0  0  0
  6 94  1  0  0  0
  7  8  2  0  0  0
  7 26  1  0  0  0
  7 29  1  0  0  0
  8  9  1  0  0  0
  8 22  1  0  0  0
  9 10  1  0  0  0
  9 27  2  0  0  0
 10 11  2  0  0  0
 10 15  1  0  0  0
 11 12  1  0  0  0
 11 95  1  0  0  0
 12 13  2  0  0  0
 12 96  1  0  0  0
 13 14  1  0  0  0
 13 31  1  0  0  0
 14 15  2  0  0  0
 14 97  1  0  0  0
 15 98  1  0  0  0
 16 17  2  0  0  0
 16 21  1  0  0  0
 16 31  1  0  0  0
 17 18  1  0  0  0
 17 99  1  0  0  0
 18 19  2  0  0  0
 18100  1  0  0  0
 19 20  1  0  0  0
 19 24  1  0  0  0
 20 21  2  0  0  0
 20101  1  0  0  0
 21 23  1  0  0  0
 22 28  1  0  0  0
 22 32  2  0  0  0
 26 27  1  0  0  0
 28102  1  0  0  0
 28103  1  0  0  0
 29104  1  0  0  0
 29105  1  0  0  0
 33 34  1  0  0  0
 33 66  1  0  0  0
 33 70  2  0  0  0
 34 36  1  0  0  0
 34 59  1  0  0  0
 34106  1  0  0  0
 35 44  2  0  0  0
 35 45  1  0  0  0
 35 68  1  0  0  0
 36 56  1  0  0  0
 36107  1  0  0  0
 37 39  1  0  0  0
 37 47  1  0  0  0
 37 66  1  0  0  0
 37108  1  0  0  0
 38 43  2  0  0  0
 38 46  1  0  0  0
 38 47  1  0  0  0
 39 64  1  0  0  0
 39 67  2  0  0  0
 40 52  1  0  0  0
 40 53  2  0  0  0
 40 58  1  0  0  0
 41109  1  0  0  0
 41110  1  0  0  0
 41111  1  0  0  0
 41 48  1  0  0  0
 42 43  1  0  0  0
 42 66  1  0  0  0
 42112  1  0  0  0
 42113  1  0  0  0
 43 44  1  0  0  0
 44114  1  0  0  0
 45 46  2  0  0  0
 45115  1  0  0  0
 46116  1  0  0  0
 47117  1  0  0  0
 47118  1  0  0  0
 48 56  1  0  0  0
 48 65  1  0  0  0
 48119  1  0  0  0
 49 50  1  0  0  0
 49 53  1  0  0  0
 49 64  1  0  0  0
 49120  1  0  0  0
 50 51  1  0  0  0
 50121  1  0  0  0
 50122  1  0  0  0
 51 52  1  0  0  0
 51123  1  0  0  0
 51124  1  0  0  0
 52125  1  0  0  0
 52126  1  0  0  0
 53 54  1  0  0  0
 54 55  2  0  0  0
 54127  1  0  0  0
 55 57  1  0  0  0
 55128  1  0  0  0
 56 69  2  0  0  0
 57 58  2  0  0  0
 57129  1  0  0  0
 58130  1  0  0  0
 59 60  1  0  0  0
 59 61  1  0  0  0
 59 62  1  0  0  0
 60131  1  0  0  0
 60132  1  0  0  0
 60133  1  0  0  0
 61134  1  0  0  0
 61135  1  0  0  0
 61136  1  0  0  0
 62137  1  0  0  0
 62138  1  0  0  0
 62139  1  0  0  0
 63 65  1  0  0  0
 63140  1  0  0  0
 63141  1  0  0  0
 63142  1  0  0  0
 64143  1  0  0  0
 65144  1  0  0  0
 68 83  1  0  0  0
 71 72  1  0  0  0
 71 73  2  0  0  0
 71145  1  0  0  0
 72 74  2  0  0  0
 72 77  1  0  0  0
 73 75  1  0  0  0
 73 84  1  0  0  0
 74 76  1  0  0  0
 74 84  1  0  0  0
 75146  1  0  0  0
 75147  1  0  0  0
 75148  1  0  0  0
 76149  1  0  0  0
 76150  1  0  0  0
 76151  1  0  0  0
 77 78  1  0  0  0
 77152  1  0  0  0
 77153  1  0  0  0
 78 82  1  0  0  0
 78154  1  0  0  0
 78155  1  0  0  0
 79 80  1  0  0  0
 79 81  1  0  0  0
 79156  1  0  0  0
 79157  1  0  0  0
 80 83  1  0  0  0
 80158  1  0  0  0
 80159  1  0  0  0
 81 84  1  0  0  0
 81160  1  0  0  0
 81161  1  0  0  0
 82 85  1  0  0  0
 82162  1  0  0  0
 82163  1  0  0  0
 83164  1  0  0  0
 83165  1  0  0  0
 85166  1  0  0  0
M  ISO  4   1 100  68 101  83 101  85 100
M  END
> <chiral flag>
0

> <version>
0

> <s_m_source_file>
/data/baiqing/PycharmProjects/Reinvent-master-3.2/result/LINK_invent/BTK/process_docking_weight1_custom_sum_contain_oxygen_bond_distance_aromatic_linkinvent_7_9_3/rearranged_h_0045.sdf

> <i_m_source_file_index>
56

> <r_mmod_Potential_Energy-OPLS-2005>
-83.2421875

> <r_mmod_Stretch_Energy-OPLS-2005>
37.7008857727051

> <r_mmod_Bend_Energy-OPLS-2005>
107.828346252441

> <r_mmod_Torsional_Energy-OPLS-2005>
237.355270385742

> <r_mmod_Improper_Torsional_Energy-OPLS-2005>
4.20465612411499

> <r_mmod_Van_der_Waal_Energy-OPLS-2005>
133.190048217773

> <r_mmod_Electrostatic_Energy-OPLS-2005>
-405.591430664062

> <r_mmod_Solvation_Energy-OPLS-2005>
-212.182922363281

> <b_mmod_Minimization_Converged-OPLS-2005>
0

> <r_mmod_RMS_Derivative-OPLS-2005>
5.10432100296021

$$$$
57
                    3D
 Structure written by MMmdl.
160168  0  0  1  0            999 V2000
  -30.6529  -14.4660   20.5470 C   0  0  0  0  0  0
  -30.4254  -12.2896   19.4253 C   0  0  0  0  0  0
  -29.4980  -12.5030   18.2088 C   0  0  0  0  0  0
  -28.0140  -12.3732   18.6136 C   0  0  0  0  0  0
  -27.6613  -13.1977   19.8795 C   0  0  2  0  0  0
  -28.6997  -12.9532   20.9992 C   0  0  0  0  0  0
  -25.2583  -13.8131   20.5689 C   0  0  0  0  0  0
  -24.1837  -13.0416   20.9227 C   0  0  0  0  0  0
  -24.6387  -11.6895   20.8749 C   0  0  0  0  0  0
  -23.9049  -10.4285   21.0427 C   0  0  0  0  0  0
  -24.3616   -9.4206   21.9198 C   0  0  0  0  0  0
  -23.6308   -8.2231   22.0762 C   0  0  0  0  0  0
  -22.4279   -8.0279   21.3563 C   0  0  0  0  0  0
  -21.9915   -9.0246   20.4655 C   0  0  0  0  0  0
  -22.7229  -10.2134   20.3073 C   0  0  0  0  0  0
  -21.6842   -6.0758   22.5301 C   0  0  0  0  0  0
  -21.3998   -6.5664   23.8241 C   0  0  0  0  0  0
  -21.3664   -5.6813   24.9203 C   0  0  0  0  0  0
  -21.6039   -4.3072   24.7246 C   0  0  0  0  0  0
  -21.8813   -3.8175   23.4363 C   0  0  0  0  0  0
  -21.9196   -4.6990   22.3423 C   0  0  0  0  0  0
  -22.7870  -13.5232   21.1905 C   0  0  0  0  0  0
  -22.1656   -4.2184   21.0994 F   0  0  0  0  0  0
  -21.5646   -3.4547   25.7754 F   0  0  0  0  0  0
  -30.0332  -13.2610   20.4546 N   0  0  0  0  0  0
  -26.3007  -12.9285   20.3366 N   0  0  0  0  0  0
  -25.9298  -11.6467   20.5777 N   0  0  0  0  0  0
  -22.0496  -12.8199   22.0436 N   0  0  0  0  0  0
  -25.4293  -15.1842   20.4073 N   0  0  0  0  0  0
  -31.7830  -14.6888   20.0999 O   0  0  0  0  0  0
  -21.6631   -6.8889   21.4265 O   0  0  0  0  0  0
  -22.3559  -14.5558   20.6801 O   0  0  0  0  0  0
  -24.6106  -31.8704   23.2126 C   0  0  0  0  0  0
  -25.9011  -32.4838   23.8411 C   0  0  1  0  0  0
  -27.2299  -27.4479   20.0970 C   0  0  0  0  0  0
  -25.5882  -33.8636   24.2336 N   0  0  0  0  0  0
  -23.3986  -30.4917   21.5542 C   0  0  2  0  0  0
  -24.8476  -28.9571   20.1206 C   0  0  0  0  0  0
  -22.7384  -29.4654   22.5025 C   0  0  0  0  0  0
  -18.0267  -28.1375   22.8502 C   0  0  0  0  0  0
  -24.1486  -36.7314   23.2633 C   0  0  0  0  0  0
  -25.9259  -30.8373   21.3661 C   0  0  0  0  0  0
  -26.0056  -29.4687   20.7221 C   0  0  0  0  0  0
  -27.2020  -28.7160   20.7190 C   0  0  0  0  0  0
  -26.0639  -26.9494   19.4862 C   0  0  0  0  0  0
  -24.8691  -27.6933   19.5042 C   0  0  0  0  0  0
  -23.6086  -29.8229   20.1690 C   0  0  0  0  0  0
  -25.4103  -36.3117   24.0340 C   0  0  1  0  0  0
  -20.5850  -28.3645   23.1343 C   0  0  2  0  0  0
  -20.6766  -26.9393   22.5417 C   0  0  0  0  0  0
  -19.5750  -26.6388   21.5208 C   0  0  0  0  0  0
  -18.1925  -26.7932   22.1617 C   0  0  0  0  0  0
  -19.1513  -28.8828   23.2921 C   0  0  0  0  0  0
  -18.9442  -30.1441   23.8917 C   0  0  0  0  0  0
  -17.6444  -30.6584   24.0563 C   0  0  0  0  0  0
  -25.9032  -34.9480   23.5133 C   0  0  0  0  0  0
  -16.5337  -29.9090   23.6322 C   0  0  0  0  0  0
  -16.7257  -28.6508   23.0347 C   0  0  0  0  0  0
  -26.4462  -31.6621   25.0725 C   0  0  0  0  0  0
  -25.3731  -31.3730   26.1475 C   0  0  0  0  0  0
  -27.0264  -30.3061   24.6075 C   0  0  0  0  0  0
  -27.6067  -32.4324   25.7467 C   0  0  0  0  0  0
  -27.5589  -37.1799   24.8459 C   0  0  0  0  0  0
  -21.4116  -29.3006   22.3746 N   0  0  0  0  0  0
  -26.4295  -37.3798   23.9426 N   0  0  0  0  0  0
  -24.6631  -31.0809   22.1031 N   0  0  0  0  0  0
  -23.4181  -28.8185   23.3040 O   0  0  0  0  0  0
  -28.3696  -26.6856   20.0336 O   0  0  0  0  0  0
  -26.5591  -34.8930   22.4689 O   0  0  0  0  0  0
  -23.5312  -32.1438   23.7542 O   0  0  0  0  0  0
  -30.2293  -21.9075   20.0408 C   0  0  0  0  0  0
  -28.9455  -22.2496   20.3882 C   0  0  0  0  0  0
  -28.9766  -20.0861   19.7821 C   0  0  0  0  0  0
  -31.3563  -19.8686   19.0908 C   0  0  0  0  0  0
  -28.3312  -23.5680   20.7828 C   0  0  0  0  0  0
  -28.4674  -18.7283   19.3565 C   0  0  0  0  0  0
  -29.3737  -24.6874   20.9917 C   0  0  0  0  0  0
  -28.5723  -17.5391   20.3506 C   0  0  0  0  0  0
  -29.9590  -16.8646   20.5055 C   0  0  0  0  0  0
  -28.7609  -26.0780   21.2620 C   0  0  0  0  0  0
  -30.2146  -20.5939   19.6483 N   0  0  0  0  0  0
  -28.2173  -21.0904   20.2487 N   0  3  0  0  0  0
  -29.8392  -15.4658   20.9320 N   0  0  0  0  0  0
  -31.4728  -12.3943   19.1333 H   0  0  0  0  0  0
  -30.3252  -11.2746   19.8126 H   0  0  0  0  0  0
  -29.7325  -11.7838   17.4237 H   0  0  0  0  0  0
  -29.6775  -13.4909   17.7806 H   0  0  0  0  0  0
  -27.8066  -11.3171   18.7900 H   0  0  0  0  0  0
  -27.3732  -12.6726   17.7834 H   0  0  0  0  0  0
  -27.7076  -14.2471   19.5899 H   0  0  0  0  0  0
  -28.6706  -11.9116   21.3230 H   0  0  0  0  0  0
  -28.4691  -13.5387   21.8912 H   0  0  0  0  0  0
  -25.2759   -9.5695   22.4783 H   0  0  0  0  0  0
  -24.0050   -7.4606   22.7437 H   0  0  0  0  0  0
  -21.0879   -8.8754   19.8924 H   0  0  0  0  0  0
  -22.3693  -10.9694   19.6199 H   0  0  0  0  0  0
  -21.1953   -7.6165   23.9758 H   0  0  0  0  0  0
  -21.1497   -6.0537   25.9111 H   0  0  0  0  0  0
  -22.0584   -2.7637   23.2851 H   0  0  0  0  0  0
  -22.4087  -11.9844   22.4812 H   0  0  0  0  0  0
  -21.1123  -13.1243   22.2647 H   0  0  0  0  0  0
  -24.6560  -15.8332   20.5068 H   0  0  0  0  0  0
  -26.2709  -15.6221   20.0573 H   0  0  0  0  0  0
  -26.7076  -32.5579   23.1184 H   0  0  0  0  0  0
  -25.0059  -33.9812   25.0498 H   0  0  0  0  0  0
  -22.6857  -31.3063   21.4150 H   0  0  0  0  0  0
  -23.3766  -35.9625   23.3262 H   0  0  0  0  0  0
  -24.3592  -36.8960   22.2055 H   0  0  0  0  0  0
  -23.7214  -37.6497   23.6666 H   0  0  0  0  0  0
  -26.0300  -31.5997   20.5930 H   0  0  0  0  0  0
  -26.8169  -30.8989   21.9780 H   0  0  0  0  0  0
  -28.0989  -29.1079   21.1784 H   0  0  0  0  0  0
  -26.0810  -25.9839   19.0006 H   0  0  0  0  0  0
  -23.9793  -27.2960   19.0356 H   0  0  0  0  0  0
  -23.7148  -30.5968   19.4078 H   0  0  0  0  0  0
  -22.7338  -29.2404   19.8745 H   0  0  0  0  0  0
  -25.1279  -36.1977   25.0833 H   0  0  0  0  0  0
  -20.9941  -28.3200   24.1467 H   0  0  0  0  0  0
  -20.5687  -26.2239   23.3583 H   0  0  0  0  0  0
  -21.6641  -26.7467   22.1193 H   0  0  0  0  0  0
  -19.6920  -25.6302   21.1229 H   0  0  0  0  0  0
  -19.6708  -27.3202   20.6741 H   0  0  0  0  0  0
  -17.4198  -26.6669   21.4020 H   0  0  0  0  0  0
  -18.0340  -26.0069   22.9007 H   0  0  0  0  0  0
  -19.7909  -30.7248   24.2313 H   0  0  0  0  0  0
  -17.4997  -31.6272   24.5146 H   0  0  0  0  0  0
  -15.5340  -30.2997   23.7636 H   0  0  0  0  0  0
  -15.8656  -28.0828   22.7063 H   0  0  0  0  0  0
  -24.5893  -30.7099   25.7804 H   0  0  0  0  0  0
  -24.8936  -32.2885   26.4939 H   0  0  0  0  0  0
  -25.8075  -30.8875   27.0219 H   0  0  0  0  0  0
  -26.2770  -29.6836   24.1168 H   0  0  0  0  0  0
  -27.4075  -29.7292   25.4514 H   0  0  0  0  0  0
  -27.8601  -30.4375   23.9170 H   0  0  0  0  0  0
  -27.2740  -33.3673   26.1986 H   0  0  0  0  0  0
  -28.3899  -32.6797   25.0286 H   0  0  0  0  0  0
  -28.0689  -31.8462   26.5416 H   0  0  0  0  0  0
  -28.2584  -38.0121   24.7555 H   0  0  0  0  0  0
  -28.1112  -36.2662   24.6228 H   0  0  0  0  0  0
  -27.2313  -37.1369   25.8859 H   0  0  0  0  0  0
  -20.9276  -29.8718   21.6955 H   0  0  0  0  0  0
  -26.0183  -38.2868   24.1462 H   0  0  0  0  0  0
  -31.1287  -22.5077   19.9962 H   0  0  0  0  0  0
  -32.2822  -20.3216   19.4417 H   0  0  0  0  0  0
  -31.3157  -19.9178   18.0033 H   0  0  0  0  0  0
  -31.3433  -18.8343   19.4081 H   0  0  0  0  0  0
  -27.7512  -23.4300   21.6946 H   0  0  0  0  0  0
  -27.6256  -23.8684   20.0075 H   0  0  0  0  0  0
  -28.9367  -18.4928   18.4017 H   0  0  0  0  0  0
  -27.4111  -18.8839   19.1294 H   0  0  0  0  0  0
  -30.0307  -24.7601   20.1252 H   0  0  0  0  0  0
  -30.0109  -24.4067   21.8319 H   0  0  0  0  0  0
  -27.8929  -16.7807   19.9626 H   0  0  0  0  0  0
  -28.1659  -17.8160   21.3231 H   0  0  0  0  0  0
  -30.5738  -17.4186   21.2155 H   0  0  0  0  0  0
  -30.4741  -16.8717   19.5431 H   0  0  0  0  0  0
  -29.5030  -26.7253   21.7313 H   0  0  0  0  0  0
  -27.9316  -25.9884   21.9657 H   0  0  0  0  0  0
  -27.2209  -21.0119   20.4188 H   0  0  0  0  0  0
  -28.9443  -15.1763   21.2984 H   0  0  0  0  0  0
  1 25  1  0  0  0
  1 30  2  0  0  0
  1 83  1  0  0  0
  2  3  1  0  0  0
  2 25  1  0  0  0
  2 84  1  0  0  0
  2 85  1  0  0  0
  3  4  1  0  0  0
  3 86  1  0  0  0
  3 87  1  0  0  0
  4  5  1  0  0  0
  4 88  1  0  0  0
  4 89  1  0  0  0
  5  6  1  0  0  0
  5 26  1  0  0  0
  5 90  1  0  0  0
  6 25  1  0  0  0
  6 91  1  0  0  0
  6 92  1  0  0  0
  7  8  2  0  0  0
  7 26  1  0  0  0
  7 29  1  0  0  0
  8  9  1  0  0  0
  8 22  1  0  0  0
  9 10  1  0  0  0
  9 27  2  0  0  0
 10 11  2  0  0  0
 10 15  1  0  0  0
 11 12  1  0  0  0
 11 93  1  0  0  0
 12 13  2  0  0  0
 12 94  1  0  0  0
 13 14  1  0  0  0
 13 31  1  0  0  0
 14 15  2  0  0  0
 14 95  1  0  0  0
 15 96  1  0  0  0
 16 17  2  0  0  0
 16 21  1  0  0  0
 16 31  1  0  0  0
 17 18  1  0  0  0
 17 97  1  0  0  0
 18 19  2  0  0  0
 18 98  1  0  0  0
 19 20  1  0  0  0
 19 24  1  0  0  0
 20 21  2  0  0  0
 20 99  1  0  0  0
 21 23  1  0  0  0
 22 28  1  0  0  0
 22 32  2  0  0  0
 26 27  1  0  0  0
 28100  1  0  0  0
 28101  1  0  0  0
 29102  1  0  0  0
 29103  1  0  0  0
 33 34  1  0  0  0
 33 66  1  0  0  0
 33 70  2  0  0  0
 34 36  1  0  0  0
 34 59  1  0  0  0
 34104  1  0  0  0
 35 44  2  0  0  0
 35 45  1  0  0  0
 35 68  1  0  0  0
 36 56  1  0  0  0
 36105  1  0  0  0
 37 39  1  0  0  0
 37 47  1  0  0  0
 37 66  1  0  0  0
 37106  1  0  0  0
 38 43  2  0  0  0
 38 46  1  0  0  0
 38 47  1  0  0  0
 39 64  1  0  0  0
 39 67  2  0  0  0
 40 52  1  0  0  0
 40 53  2  0  0  0
 40 58  1  0  0  0
 41107  1  0  0  0
 41108  1  0  0  0
 41109  1  0  0  0
 41 48  1  0  0  0
 42 43  1  0  0  0
 42 66  1  0  0  0
 42110  1  0  0  0
 42111  1  0  0  0
 43 44  1  0  0  0
 44112  1  0  0  0
 45 46  2  0  0  0
 45113  1  0  0  0
 46114  1  0  0  0
 47115  1  0  0  0
 47116  1  0  0  0
 48 56  1  0  0  0
 48 65  1  0  0  0
 48117  1  0  0  0
 49 50  1  0  0  0
 49 53  1  0  0  0
 49 64  1  0  0  0
 49118  1  0  0  0
 50 51  1  0  0  0
 50119  1  0  0  0
 50120  1  0  0  0
 51 52  1  0  0  0
 51121  1  0  0  0
 51122  1  0  0  0
 52123  1  0  0  0
 52124  1  0  0  0
 53 54  1  0  0  0
 54 55  2  0  0  0
 54125  1  0  0  0
 55 57  1  0  0  0
 55126  1  0  0  0
 56 69  2  0  0  0
 57 58  2  0  0  0
 57127  1  0  0  0
 58128  1  0  0  0
 59 60  1  0  0  0
 59 61  1  0  0  0
 59 62  1  0  0  0
 60129  1  0  0  0
 60130  1  0  0  0
 60131  1  0  0  0
 61132  1  0  0  0
 61133  1  0  0  0
 61134  1  0  0  0
 62135  1  0  0  0
 62136  1  0  0  0
 62137  1  0  0  0
 63 65  1  0  0  0
 63138  1  0  0  0
 63139  1  0  0  0
 63140  1  0  0  0
 64141  1  0  0  0
 65142  1  0  0  0
 68 80  1  0  0  0
 71 72  2  0  0  0
 71 81  1  0  0  0
 71143  1  0  0  0
 72 75  1  0  0  0
 72 82  1  0  0  0
 73 76  1  0  0  0
 73 81  1  0  0  0
 73 82  2  0  0  0
 74 81  1  0  0  0
 74144  1  0  0  0
 74145  1  0  0  0
 74146  1  0  0  0
 75 77  1  0  0  0
 75147  1  0  0  0
 75148  1  0  0  0
 76 78  1  0  0  0
 76149  1  0  0  0
 76150  1  0  0  0
 77 80  1  0  0  0
 77151  1  0  0  0
 77152  1  0  0  0
 78 79  1  0  0  0
 78153  1  0  0  0
 78154  1  0  0  0
 79 83  1  0  0  0
 79155  1  0  0  0
 79156  1  0  0  0
 80157  1  0  0  0
 80158  1  0  0  0
 82159  1  0  0  0
 83160  1  0  0  0
M  CHG  1  82   1
M  ISO  4   1 100  68 101  80 101  83 100
M  END
> <chiral flag>
0

> <version>
0

> <s_m_source_file>
/data/baiqing/PycharmProjects/Reinvent-master-3.2/result/LINK_invent/BTK/process_docking_weight1_custom_sum_contain_oxygen_bond_distance_aromatic_linkinvent_7_9_3/rearranged_h_0045.sdf

> <i_m_source_file_index>
57

> <r_mmod_Potential_Energy-OPLS-2005>
-131.82893371582

> <r_mmod_Stretch_Energy-OPLS-2005>
32.4825057983398

> <r_mmod_Bend_Energy-OPLS-2005>
93.6479415893555

> <r_mmod_Torsional_Energy-OPLS-2005>
247.914611816406

> <r_mmod_Improper_Torsional_Energy-OPLS-2005>
7.81941747665405

> <r_mmod_Van_der_Waal_Energy-OPLS-2005>
122.298347473145

> <r_mmod_Electrostatic_Energy-OPLS-2005>
-226.846282958984

> <r_mmod_Solvation_Energy-OPLS-2005>
-420.788970947266

> <b_mmod_Minimization_Converged-OPLS-2005>
0

> <r_mmod_RMS_Derivative-OPLS-2005>
2.78658175468445

$$$$
58
                    3D
 Structure written by MMmdl.
156164  0  0  1  0            999 V2000
  -30.5067  -15.0294   20.4038 C   0  0  0  0  0  0
  -30.4398  -12.6424   19.5073 C   0  0  0  0  0  0
  -29.5220  -12.5320   18.2676 C   0  0  0  0  0  0
  -28.0619  -12.2948   18.6936 C   0  0  0  0  0  0
  -27.6218  -13.2500   19.8324 C   0  0  2  0  0  0
  -28.6617  -13.3250   20.9686 C   0  0  0  0  0  0
  -25.2439  -13.8222   20.5757 C   0  0  0  0  0  0
  -24.1753  -13.0456   20.9255 C   0  0  0  0  0  0
  -24.6380  -11.6923   20.8775 C   0  0  0  0  0  0
  -23.9059  -10.4298   21.0425 C   0  0  0  0  0  0
  -24.3609   -9.4206   21.9193 C   0  0  0  0  0  0
  -23.6286   -8.2243   22.0770 C   0  0  0  0  0  0
  -22.4268   -8.0279   21.3555 C   0  0  0  0  0  0
  -21.9897   -9.0251   20.4655 C   0  0  0  0  0  0
  -22.7233  -10.2131   20.3064 C   0  0  0  0  0  0
  -21.6861   -6.0734   22.5264 C   0  0  0  0  0  0
  -21.4017   -6.5637   23.8203 C   0  0  0  0  0  0
  -21.3662   -5.6793   24.9166 C   0  0  0  0  0  0
  -21.6044   -4.3057   24.7221 C   0  0  0  0  0  0
  -21.8816   -3.8145   23.4348 C   0  0  0  0  0  0
  -21.9193   -4.6958   22.3401 C   0  0  0  0  0  0
  -22.7766  -13.5217   21.1895 C   0  0  0  0  0  0
  -22.1661   -4.2141   21.0985 F   0  0  0  0  0  0
  -21.5628   -3.4543   25.7744 F   0  0  0  0  0  0
  -29.9244  -13.7566   20.3594 N   0  0  0  0  0  0
  -26.2849  -12.9454   20.3257 N   0  0  0  0  0  0
  -25.9312  -11.6574   20.5753 N   0  0  0  0  0  0
  -22.0415  -12.8206   22.0439 N   0  0  0  0  0  0
  -25.4114  -15.1958   20.4254 N   0  0  0  0  0  0
  -31.7199  -15.0792   20.1720 O   0  0  0  0  0  0
  -21.6645   -6.8876   21.4230 O   0  0  0  0  0  0
  -22.3454  -14.5520   20.6718 O   0  0  0  0  0  0
  -24.6476  -31.8387   23.1826 C   0  0  0  0  0  0
  -25.9233  -32.4659   23.8230 C   0  0  1  0  0  0
  -27.2095  -27.0786   20.1583 C   0  0  0  0  0  0
  -25.5970  -33.8473   24.2151 N   0  0  0  0  0  0
  -23.4514  -30.4562   21.5312 C   0  0  2  0  0  0
  -24.8998  -28.8746   20.1083 C   0  0  0  0  0  0
  -22.7593  -29.4512   22.4851 C   0  0  0  0  0  0
  -18.0320  -28.1434   22.8447 C   0  0  0  0  0  0
  -24.1500  -36.7242   23.2643 C   0  0  0  0  0  0
  -26.0119  -30.6949   21.3889 C   0  0  0  0  0  0
  -26.0817  -29.3020   20.7289 C   0  0  0  0  0  0
  -27.2368  -28.4231   20.7315 C   0  0  0  0  0  0
  -26.0016  -26.7673   19.4969 C   0  0  0  0  0  0
  -24.8767  -27.6234   19.4741 C   0  0  0  0  0  0
  -23.6795  -29.7848   20.1517 C   0  0  0  0  0  0
  -25.4132  -36.3012   24.0308 C   0  0  1  0  0  0
  -20.5927  -28.3740   23.1281 C   0  0  2  0  0  0
  -20.6754  -26.9396   22.5584 C   0  0  0  0  0  0
  -19.5853  -26.6429   21.5241 C   0  0  0  0  0  0
  -18.1974  -26.7998   22.1522 C   0  0  0  0  0  0
  -19.1568  -28.8898   23.2854 C   0  0  0  0  0  0
  -18.9489  -30.1501   23.8881 C   0  0  0  0  0  0
  -17.6487  -30.6605   24.0584 C   0  0  0  0  0  0
  -25.9082  -34.9391   23.5036 C   0  0  0  0  0  0
  -16.5377  -29.9091   23.6366 C   0  0  0  0  0  0
  -16.7302  -28.6542   23.0333 C   0  0  0  0  0  0
  -26.4542  -31.6546   25.0698 C   0  0  0  0  0  0
  -25.3704  -31.3759   26.1377 C   0  0  0  0  0  0
  -27.0423  -30.2928   24.6334 C   0  0  0  0  0  0
  -27.6057  -32.4330   25.7492 C   0  0  0  0  0  0
  -27.5573  -37.1782   24.8469 C   0  0  0  0  0  0
  -21.4284  -29.2988   22.3574 N   0  0  0  0  0  0
  -26.4297  -37.3724   23.9397 N   0  0  0  0  0  0
  -24.7236  -31.0200   22.0878 N   0  0  0  0  0  0
  -23.4210  -28.8107   23.3052 O   0  0  0  0  0  0
  -28.2437  -26.0572   20.2304 O   0  0  0  0  0  0
  -26.5681  -34.8898   22.4623 O   0  0  0  0  0  0
  -23.5588  -32.1303   23.7020 O   0  0  0  0  0  0
  -27.1035  -19.9147   19.7907 C   0  0  0  0  0  0
  -28.6511  -21.5062   20.2355 C   0  0  0  0  0  0
  -29.1440  -19.1182   20.3218 C   0  0  0  0  0  0
  -23.1675  -19.8548   19.6901 C   0  0  0  0  0  0
  -25.6902  -19.6204   19.3001 C   0  0  0  0  0  0
  -28.9916  -23.1451   20.3666 C   0  0  0  0  0  0
  -30.1287  -17.7778   20.4636 C   0  0  0  0  0  0
  -24.5768  -20.0959   20.2557 C   0  0  0  0  0  0
  -27.9651  -24.4986   20.0869 C   0  0  0  0  0  0
  -27.4047  -21.2163   19.8868 N   0  0  0  0  0  0
  -27.8835  -18.8471   20.0068 N   0  0  0  0  0  0
  -29.5622  -20.4557   20.4503 N   0  0  0  0  0  0
  -29.7313  -16.2306   20.5029 N   0  0  0  0  0  0
  -31.4681  -12.8138   19.1872 H   0  0  0  0  0  0
  -30.4595  -11.7054   20.0668 H   0  0  0  0  0  0
  -29.8590  -11.7281   17.6131 H   0  0  0  0  0  0
  -29.5830  -13.4507   17.6832 H   0  0  0  0  0  0
  -27.9824  -11.2623   19.0357 H   0  0  0  0  0  0
  -27.3907  -12.3820   17.8380 H   0  0  0  0  0  0
  -27.5692  -14.2385   19.3748 H   0  0  0  0  0  0
  -28.7714  -12.3631   21.4692 H   0  0  0  0  0  0
  -28.3476  -14.0364   21.7337 H   0  0  0  0  0  0
  -25.2737   -9.5704   22.4792 H   0  0  0  0  0  0
  -23.9994   -7.4644   22.7484 H   0  0  0  0  0  0
  -21.0836   -8.8761   19.8967 H   0  0  0  0  0  0
  -22.3661  -10.9679   19.6189 H   0  0  0  0  0  0
  -21.2015   -7.6149   23.9694 H   0  0  0  0  0  0
  -21.1481   -6.0541   25.9071 H   0  0  0  0  0  0
  -22.0595   -2.7606   23.2854 H   0  0  0  0  0  0
  -22.4022  -11.9866   22.4840 H   0  0  0  0  0  0
  -21.1025  -13.1235   22.2627 H   0  0  0  0  0  0
  -24.6468  -15.8461   20.5691 H   0  0  0  0  0  0
  -26.2611  -15.6462   20.1125 H   0  0  0  0  0  0
  -26.7299  -32.5244   23.0955 H   0  0  0  0  0  0
  -25.0084  -33.9573   25.0277 H   0  0  0  0  0  0
  -22.7560  -31.2833   21.3758 H   0  0  0  0  0  0
  -23.3761  -35.9577   23.3311 H   0  0  0  0  0  0
  -24.3570  -36.8870   22.2055 H   0  0  0  0  0  0
  -23.7274  -37.6442   23.6684 H   0  0  0  0  0  0
  -26.1779  -31.4504   20.6196 H   0  0  0  0  0  0
  -26.8776  -30.7410   22.0371 H   0  0  0  0  0  0
  -28.1355  -28.7479   21.2370 H   0  0  0  0  0  0
  -25.8937  -25.8080   19.0117 H   0  0  0  0  0  0
  -23.9759  -27.2914   18.9742 H   0  0  0  0  0  0
  -23.8180  -30.5597   19.3968 H   0  0  0  0  0  0
  -22.7919  -29.2309   19.8397 H   0  0  0  0  0  0
  -25.1332  -36.1821   25.0802 H   0  0  0  0  0  0
  -21.0013  -28.3419   24.1408 H   0  0  0  0  0  0
  -21.6680  -26.7226   22.1616 H   0  0  0  0  0  0
  -20.5372  -26.2408   23.3853 H   0  0  0  0  0  0
  -19.7025  -25.6359   21.1229 H   0  0  0  0  0  0
  -19.6911  -27.3288   20.6832 H   0  0  0  0  0  0
  -17.4313  -26.6839   21.3835 H   0  0  0  0  0  0
  -18.0257  -26.0102   22.8860 H   0  0  0  0  0  0
  -19.7965  -30.7324   24.2237 H   0  0  0  0  0  0
  -17.5031  -31.6255   24.5233 H   0  0  0  0  0  0
  -15.5370  -30.2972   23.7729 H   0  0  0  0  0  0
  -15.8706  -28.0858   22.7027 H   0  0  0  0  0  0
  -24.5891  -30.7103   25.7694 H   0  0  0  0  0  0
  -24.8886  -32.2950   26.4717 H   0  0  0  0  0  0
  -25.7960  -30.8980   27.0208 H   0  0  0  0  0  0
  -26.3061  -29.6618   24.1338 H   0  0  0  0  0  0
  -27.4011  -29.7260   25.4937 H   0  0  0  0  0  0
  -27.8981  -30.4144   23.9690 H   0  0  0  0  0  0
  -27.2640  -33.3659   26.1987 H   0  0  0  0  0  0
  -28.3912  -32.6838   25.0353 H   0  0  0  0  0  0
  -28.0678  -31.8507   26.5471 H   0  0  0  0  0  0
  -28.2599  -38.0066   24.7481 H   0  0  0  0  0  0
  -28.1063  -36.2593   24.6351 H   0  0  0  0  0  0
  -27.2281  -37.1494   25.8870 H   0  0  0  0  0  0
  -20.9514  -29.8572   21.6624 H   0  0  0  0  0  0
  -26.0159  -38.2798   24.1360 H   0  0  0  0  0  0
  -23.0523  -20.3101   18.7052 H   0  0  0  0  0  0
  -22.4040  -20.2884   20.3378 H   0  0  0  0  0  0
  -22.9499  -18.7905   19.5904 H   0  0  0  0  0  0
  -25.5775  -18.5487   19.1240 H   0  0  0  0  0  0
  -25.5694  -20.0905   18.3224 H   0  0  0  0  0  0
  -29.8524  -23.2929   19.7156 H   0  0  0  0  0  0
  -29.3881  -23.2612   21.3742 H   0  0  0  0  0  0
  -30.7275  -17.9509   21.3583 H   0  0  0  0  0  0
  -30.8329  -17.8656   19.6370 H   0  0  0  0  0  0
  -24.6795  -19.6015   21.2221 H   0  0  0  0  0  0
  -24.6997  -21.1639   20.4393 H   0  0  0  0  0  0
  -27.0783  -24.3175   20.6952 H   0  0  0  0  0  0
  -27.6226  -24.3739   19.0604 H   0  0  0  0  0  0
  -28.7372  -16.0942   20.5928 H   0  0  0  0  0  0
  1 25  1  0  0  0
  1 30  2  0  0  0
  1 83  1  0  0  0
  2  3  1  0  0  0
  2 25  1  0  0  0
  2 84  1  0  0  0
  2 85  1  0  0  0
  3  4  1  0  0  0
  3 86  1  0  0  0
  3 87  1  0  0  0
  4  5  1  0  0  0
  4 88  1  0  0  0
  4 89  1  0  0  0
  5  6  1  0  0  0
  5 26  1  0  0  0
  5 90  1  0  0  0
  6 25  1  0  0  0
  6 91  1  0  0  0
  6 92  1  0  0  0
  7  8  2  0  0  0
  7 26  1  0  0  0
  7 29  1  0  0  0
  8  9  1  0  0  0
  8 22  1  0  0  0
  9 10  1  0  0  0
  9 27  2  0  0  0
 10 11  2  0  0  0
 10 15  1  0  0  0
 11 12  1  0  0  0
 11 93  1  0  0  0
 12 13  2  0  0  0
 12 94  1  0  0  0
 13 14  1  0  0  0
 13 31  1  0  0  0
 14 15  2  0  0  0
 14 95  1  0  0  0
 15 96  1  0  0  0
 16 17  2  0  0  0
 16 21  1  0  0  0
 16 31  1  0  0  0
 17 18  1  0  0  0
 17 97  1  0  0  0
 18 19  2  0  0  0
 18 98  1  0  0  0
 19 20  1  0  0  0
 19 24  1  0  0  0
 20 21  2  0  0  0
 20 99  1  0  0  0
 21 23  1  0  0  0
 22 28  1  0  0  0
 22 32  2  0  0  0
 26 27  1  0  0  0
 28100  1  0  0  0
 28101  1  0  0  0
 29102  1  0  0  0
 29103  1  0  0  0
 33 34  1  0  0  0
 33 66  1  0  0  0
 33 70  2  0  0  0
 34 36  1  0  0  0
 34 59  1  0  0  0
 34104  1  0  0  0
 35 44  2  0  0  0
 35 45  1  0  0  0
 35 68  1  0  0  0
 36 56  1  0  0  0
 36105  1  0  0  0
 37 39  1  0  0  0
 37 47  1  0  0  0
 37 66  1  0  0  0
 37106  1  0  0  0
 38 43  2  0  0  0
 38 46  1  0  0  0
 38 47  1  0  0  0
 39 64  1  0  0  0
 39 67  2  0  0  0
 40 52  1  0  0  0
 40 53  2  0  0  0
 40 58  1  0  0  0
 41107  1  0  0  0
 41108  1  0  0  0
 41109  1  0  0  0
 41 48  1  0  0  0
 42 43  1  0  0  0
 42 66  1  0  0  0
 42110  1  0  0  0
 42111  1  0  0  0
 43 44  1  0  0  0
 44112  1  0  0  0
 45 46  2  0  0  0
 45113  1  0  0  0
 46114  1  0  0  0
 47115  1  0  0  0
 47116  1  0  0  0
 48 56  1  0  0  0
 48 65  1  0  0  0
 48117  1  0  0  0
 49 50  1  0  0  0
 49 53  1  0  0  0
 49 64  1  0  0  0
 49118  1  0  0  0
 50 51  1  0  0  0
 50119  1  0  0  0
 50120  1  0  0  0
 51 52  1  0  0  0
 51121  1  0  0  0
 51122  1  0  0  0
 52123  1  0  0  0
 52124  1  0  0  0
 53 54  1  0  0  0
 54 55  2  0  0  0
 54125  1  0  0  0
 55 57  1  0  0  0
 55126  1  0  0  0
 56 69  2  0  0  0
 57 58  2  0  0  0
 57127  1  0  0  0
 58128  1  0  0  0
 59 60  1  0  0  0
 59 61  1  0  0  0
 59 62  1  0  0  0
 60129  1  0  0  0
 60130  1  0  0  0
 60131  1  0  0  0
 61132  1  0  0  0
 61133  1  0  0  0
 61134  1  0  0  0
 62135  1  0  0  0
 62136  1  0  0  0
 62137  1  0  0  0
 63 65  1  0  0  0
 63138  1  0  0  0
 63139  1  0  0  0
 63140  1  0  0  0
 64141  1  0  0  0
 65142  1  0  0  0
 68 79  1  0  0  0
 71 75  1  0  0  0
 71 80  2  0  0  0
 71 81  1  0  0  0
 72 76  1  0  0  0
 72 80  1  0  0  0
 72 82  2  0  0  0
 73 77  1  0  0  0
 73 81  2  0  0  0
 73 82  1  0  0  0
 74 78  1  0  0  0
 74143  1  0  0  0
 74144  1  0  0  0
 74145  1  0  0  0
 75 78  1  0  0  0
 75146  1  0  0  0
 75147  1  0  0  0
 76 79  1  0  0  0
 76148  1  0  0  0
 76149  1  0  0  0
 77 83  1  0  0  0
 77150  1  0  0  0
 77151  1  0  0  0
 78152  1  0  0  0
 78153  1  0  0  0
 79154  1  0  0  0
 79155  1  0  0  0
 83156  1  0  0  0
M  ISO  4   1 100  68 101  79 101  83 100
M  END
> <chiral flag>
0

> <version>
0

> <s_m_source_file>
/data/baiqing/PycharmProjects/Reinvent-master-3.2/result/LINK_invent/BTK/process_docking_weight1_custom_sum_contain_oxygen_bond_distance_aromatic_linkinvent_7_9_3/rearranged_h_0045.sdf

> <i_m_source_file_index>
58

> <r_mmod_Potential_Energy-OPLS-2005>
-166.270004272461

> <r_mmod_Stretch_Energy-OPLS-2005>
309.688507080078

> <r_mmod_Bend_Energy-OPLS-2005>
279.153747558594

> <r_mmod_Torsional_Energy-OPLS-2005>
200.218948364258

> <r_mmod_Improper_Torsional_Energy-OPLS-2005>
4.21174049377441

> <r_mmod_Van_der_Waal_Energy-OPLS-2005>
139.095230102539

> <r_mmod_Electrostatic_Energy-OPLS-2005>
-1116.19995117188

> <r_mmod_Solvation_Energy-OPLS-2005>
-236.038665771484

> <b_mmod_Minimization_Converged-OPLS-2005>
0

> <r_mmod_RMS_Derivative-OPLS-2005>
2.87006855010986

$$$$
59
                    3D
 Structure written by MMmdl.
172180  0  0  1  0            999 V2000
  -30.8338  -14.3168   20.7224 C   0  0  0  0  0  0
  -30.4198  -12.2801   19.4132 C   0  0  0  0  0  0
  -29.5004  -12.5461   18.2095 C   0  0  0  0  0  0
  -28.0269  -12.3982   18.6264 C   0  0  0  0  0  0
  -27.6787  -13.2147   19.8974 C   0  0  2  0  0  0
  -28.7179  -12.9756   21.0199 C   0  0  0  0  0  0
  -25.2641  -13.8187   20.5725 C   0  0  0  0  0  0
  -24.1877  -13.0476   20.9192 C   0  0  0  0  0  0
  -24.6413  -11.6938   20.8753 C   0  0  0  0  0  0
  -23.9066  -10.4320   21.0425 C   0  0  0  0  0  0
  -24.3614   -9.4228   21.9208 C   0  0  0  0  0  0
  -23.6284   -8.2247   22.0768 C   0  0  0  0  0  0
  -22.4266   -8.0283   21.3551 C   0  0  0  0  0  0
  -21.9910   -9.0274   20.4659 C   0  0  0  0  0  0
  -22.7249  -10.2153   20.3060 C   0  0  0  0  0  0
  -21.6843   -6.0723   22.5273 C   0  0  0  0  0  0
  -21.4002   -6.5614   23.8206 C   0  0  0  0  0  0
  -21.3671   -5.6774   24.9176 C   0  0  0  0  0  0
  -21.6044   -4.3030   24.7225 C   0  0  0  0  0  0
  -21.8816   -3.8123   23.4336 C   0  0  0  0  0  0
  -21.9193   -4.6951   22.3398 C   0  0  0  0  0  0
  -22.7892  -13.5289   21.1805 C   0  0  0  0  0  0
  -22.1673   -4.2120   21.0981 F   0  0  0  0  0  0
  -21.5640   -3.4530   25.7748 F   0  0  0  0  0  0
  -30.0707  -13.2229   20.4866 N   0  0  0  0  0  0
  -26.3121  -12.9367   20.3478 N   0  0  0  0  0  0
  -25.9348  -11.6524   20.5786 N   0  0  0  0  0  0
  -22.0478  -12.8314   22.0341 N   0  0  0  0  0  0
  -25.4324  -15.1901   20.4119 N   0  0  0  0  0  0
  -31.7727  -14.6574   19.9965 O   0  0  0  0  0  0
  -21.6623   -6.8885   21.4241 O   0  0  0  0  0  0
  -22.3609  -14.5623   20.6685 O   0  0  0  0  0  0
  -24.6120  -31.8737   23.2138 C   0  0  0  0  0  0
  -25.9018  -32.4871   23.8437 C   0  0  1  0  0  0
  -27.2248  -27.4965   20.0479 C   0  0  0  0  0  0
  -25.5919  -33.8667   24.2377 N   0  0  0  0  0  0
  -23.3974  -30.4989   21.5537 C   0  0  2  0  0  0
  -24.8474  -28.9994   20.0834 C   0  0  0  0  0  0
  -22.7423  -29.4662   22.4972 C   0  0  0  0  0  0
  -18.0263  -28.1387   22.8522 C   0  0  0  0  0  0
  -24.1471  -36.7306   23.2641 C   0  0  0  0  0  0
  -25.9226  -30.8563   21.3634 C   0  0  0  0  0  0
  -26.0052  -29.5045   20.6894 C   0  0  0  0  0  0
  -27.2023  -28.7558   20.6804 C   0  0  0  0  0  0
  -26.0736  -27.0307   19.3763 C   0  0  0  0  0  0
  -24.8747  -27.7622   19.4183 C   0  0  0  0  0  0
  -23.6014  -29.8496   20.1593 C   0  0  0  0  0  0
  -25.4095  -36.3122   24.0353 C   0  0  1  0  0  0
  -20.5865  -28.3671   23.1342 C   0  0  2  0  0  0
  -20.6727  -26.9412   22.5429 C   0  0  0  0  0  0
  -19.5679  -26.6398   21.5235 C   0  0  0  0  0  0
  -18.1869  -26.7942   22.1655 C   0  0  0  0  0  0
  -19.1514  -28.8846   23.2932 C   0  0  0  0  0  0
  -18.9455  -30.1457   23.8936 C   0  0  0  0  0  0
  -17.6441  -30.6606   24.0595 C   0  0  0  0  0  0
  -25.9043  -34.9503   23.5143 C   0  0  0  0  0  0
  -16.5323  -29.9113   23.6336 C   0  0  0  0  0  0
  -16.7252  -28.6521   23.0379 C   0  0  0  0  0  0
  -26.4483  -31.6631   25.0742 C   0  0  0  0  0  0
  -25.3778  -31.3732   26.1515 C   0  0  0  0  0  0
  -27.0313  -30.3082   24.6090 C   0  0  0  0  0  0
  -27.6039  -32.4371   25.7494 C   0  0  0  0  0  0
  -27.5578  -37.1819   24.8476 C   0  0  0  0  0  0
  -21.4143  -29.3049   22.3763 N   0  0  0  0  0  0
  -26.4267  -37.3825   23.9447 N   0  0  0  0  0  0
  -24.6616  -31.0877   22.1027 N   0  0  0  0  0  0
  -23.4217  -28.8183   23.2994 O   0  0  0  0  0  0
  -28.2389  -26.6086   20.3038 O   0  0  0  0  0  0
  -26.5561  -34.8929   22.4680 O   0  0  0  0  0  0
  -23.5308  -32.1434   23.7575 O   0  0  0  0  0  0
  -28.8709  -23.9624   24.1234 C   0  0  0  0  0  0
  -28.4635  -23.3141   21.5251 C   0  0  0  0  0  0
  -28.6573  -22.6202   23.7188 C   0  0  0  0  0  0
  -28.5130  -24.6626   21.9591 C   0  0  0  0  0  0
  -28.9954  -24.3915   25.5725 C   0  0  0  0  0  0
  -28.0931  -22.9441   20.0986 C   0  0  0  0  0  0
  -32.2220  -19.6050   25.7500 C   0  0  0  0  0  0
  -28.3046  -21.5249   24.7151 C   0  0  0  0  0  0
  -27.6620  -25.7149   21.2766 C   0  0  0  0  0  0
  -29.4890  -20.7688   25.3250 C   0  0  0  0  0  0
  -30.8444  -16.8827   23.4804 C   0  0  0  0  0  0
  -31.4566  -16.0683   22.3328 C   0  0  0  0  0  0
  -30.2568  -19.9335   24.2903 C   0  0  0  0  0  0
  -31.7860  -18.0364   23.9030 C   0  0  0  0  0  0
  -28.5631  -22.2859   22.4069 N   0  0  0  0  0  0
  -28.8363  -24.9779   23.2350 N   0  0  0  0  0  0
  -30.6195  -14.9513   21.8852 N   0  0  0  0  0  0
  -31.1900  -18.9541   24.9059 N   0  3  1  0  0  0
  -31.4675  -12.3588   19.1190 H   0  0  0  0  0  0
  -30.2962  -11.2601   19.7832 H   0  0  0  0  0  0
  -29.7361  -11.8554   17.3979 H   0  0  0  0  0  0
  -29.6849  -13.5486   17.8185 H   0  0  0  0  0  0
  -27.8476  -11.3425   18.8219 H   0  0  0  0  0  0
  -27.3693  -12.6844   17.8045 H   0  0  0  0  0  0
  -27.7328  -14.2698   19.6281 H   0  0  0  0  0  0
  -28.6618  -11.9478   21.3797 H   0  0  0  0  0  0
  -28.4793  -13.6023   21.8805 H   0  0  0  0  0  0
  -25.2769   -9.5684   22.4792 H   0  0  0  0  0  0
  -23.9970   -7.4638   22.7496 H   0  0  0  0  0  0
  -21.0826   -8.8827   19.8983 H   0  0  0  0  0  0
  -22.3737  -10.9699   19.6146 H   0  0  0  0  0  0
  -21.1987   -7.6126   23.9705 H   0  0  0  0  0  0
  -21.1501   -6.0502   25.9079 H   0  0  0  0  0  0
  -22.0588   -2.7580   23.2849 H   0  0  0  0  0  0
  -22.4010  -11.9939   22.4747 H   0  0  0  0  0  0
  -21.1123  -13.1415   22.2525 H   0  0  0  0  0  0
  -24.6705  -15.8493   20.5187 H   0  0  0  0  0  0
  -26.2868  -15.6277   20.0909 H   0  0  0  0  0  0
  -26.7116  -32.5589   23.1228 H   0  0  0  0  0  0
  -25.0142  -33.9853   25.0567 H   0  0  0  0  0  0
  -22.6815  -31.3136   21.4277 H   0  0  0  0  0  0
  -23.3738  -35.9640   23.3295 H   0  0  0  0  0  0
  -24.3544  -36.8886   22.2048 H   0  0  0  0  0  0
  -23.7209  -37.6512   23.6643 H   0  0  0  0  0  0
  -26.0358  -31.6345   20.6061 H   0  0  0  0  0  0
  -26.8098  -30.8988   21.9839 H   0  0  0  0  0  0
  -28.0747  -29.1068   21.2161 H   0  0  0  0  0  0
  -26.0853  -26.0672   18.8839 H   0  0  0  0  0  0
  -23.9916  -27.3774   18.9284 H   0  0  0  0  0  0
  -23.7009  -30.6353   19.4100 H   0  0  0  0  0  0
  -22.7295  -29.2650   19.8607 H   0  0  0  0  0  0
  -25.1267  -36.1990   25.0850 H   0  0  0  0  0  0
  -20.9976  -28.3212   24.1460 H   0  0  0  0  0  0
  -20.5629  -26.2287   23.3614 H   0  0  0  0  0  0
  -21.6599  -26.7431   22.1241 H   0  0  0  0  0  0
  -19.6801  -25.6314   21.1251 H   0  0  0  0  0  0
  -19.6612  -27.3216   20.6771 H   0  0  0  0  0  0
  -17.4165  -26.6775   21.4016 H   0  0  0  0  0  0
  -18.0218  -26.0045   22.9005 H   0  0  0  0  0  0
  -19.7919  -30.7293   24.2309 H   0  0  0  0  0  0
  -17.4999  -31.6285   24.5193 H   0  0  0  0  0  0
  -15.5339  -30.3050   23.7621 H   0  0  0  0  0  0
  -15.8646  -28.0861   22.7091 H   0  0  0  0  0  0
  -24.5959  -30.7060   25.7884 H   0  0  0  0  0  0
  -24.8978  -32.2884   26.4980 H   0  0  0  0  0  0
  -25.8155  -30.8922   27.0267 H   0  0  0  0  0  0
  -26.2836  -29.6819   24.1216 H   0  0  0  0  0  0
  -27.4150  -29.7350   25.4538 H   0  0  0  0  0  0
  -27.8653  -30.4374   23.9180 H   0  0  0  0  0  0
  -27.2652  -33.3654   26.2083 H   0  0  0  0  0  0
  -28.3844  -32.6950   25.0337 H   0  0  0  0  0  0
  -28.0744  -31.8524   26.5401 H   0  0  0  0  0  0
  -28.2634  -38.0091   24.7549 H   0  0  0  0  0  0
  -28.1032  -36.2632   24.6266 H   0  0  0  0  0  0
  -27.2311  -37.1426   25.8882 H   0  0  0  0  0  0
  -20.9252  -29.8918   21.7137 H   0  0  0  0  0  0
  -26.0137  -38.2895   24.1469 H   0  0  0  0  0  0
  -29.3274  -23.5811   26.2196 H   0  0  0  0  0  0
  -28.0332  -24.7580   25.9325 H   0  0  0  0  0  0
  -29.7181  -25.2015   25.6652 H   0  0  0  0  0  0
  -28.4923  -23.6809   19.4000 H   0  0  0  0  0  0
  -27.0091  -22.9206   19.9782 H   0  0  0  0  0  0
  -28.4894  -21.9667   19.8207 H   0  0  0  0  0  0
  -31.7713  -20.0628   26.6300 H   0  0  0  0  0  0
  -32.7551  -20.3817   25.2009 H   0  0  0  0  0  0
  -32.9553  -18.8863   26.1149 H   0  0  0  0  0  0
  -27.6423  -20.8111   24.2240 H   0  0  0  0  0  0
  -27.7038  -21.9644   25.5080 H   0  0  0  0  0  0
  -27.2216  -26.3092   22.0829 H   0  0  0  0  0  0
  -26.8135  -25.1669   20.8633 H   0  0  0  0  0  0
  -29.0904  -20.1106   26.0973 H   0  0  0  0  0  0
  -30.1559  -21.4673   25.8302 H   0  0  0  0  0  0
  -30.6567  -16.2326   24.3358 H   0  0  0  0  0  0
  -29.8739  -17.2590   23.1550 H   0  0  0  0  0  0
  -32.4395  -15.6894   22.6225 H   0  0  0  0  0  0
  -31.6209  -16.7435   21.4911 H   0  0  0  0  0  0
  -30.7942  -20.5979   23.6116 H   0  0  0  0  0  0
  -29.5333  -19.3929   23.6808 H   0  0  0  0  0  0
  -32.1141  -18.6139   23.0372 H   0  0  0  0  0  0
  -32.6876  -17.5852   24.3152 H   0  0  0  0  0  0
  -29.9214  -14.5692   22.5071 H   0  0  0  0  0  0
  -30.6518  -18.3734   25.5345 H   0  0  0  0  0  0
  1 25  1  0  0  0
  1 30  2  0  0  0
  1 87  1  0  0  0
  2  3  1  0  0  0
  2 25  1  0  0  0
  2 89  1  0  0  0
  2 90  1  0  0  0
  3  4  1  0  0  0
  3 91  1  0  0  0
  3 92  1  0  0  0
  4  5  1  0  0  0
  4 93  1  0  0  0
  4 94  1  0  0  0
  5  6  1  0  0  0
  5 26  1  0  0  0
  5 95  1  0  0  0
  6 25  1  0  0  0
  6 96  1  0  0  0
  6 97  1  0  0  0
  7  8  2  0  0  0
  7 26  1  0  0  0
  7 29  1  0  0  0
  8  9  1  0  0  0
  8 22  1  0  0  0
  9 10  1  0  0  0
  9 27  2  0  0  0
 10 11  2  0  0  0
 10 15  1  0  0  0
 11 12  1  0  0  0
 11 98  1  0  0  0
 12 13  2  0  0  0
 12 99  1  0  0  0
 13 14  1  0  0  0
 13 31  1  0  0  0
 14 15  2  0  0  0
 14100  1  0  0  0
 15101  1  0  0  0
 16 17  2  0  0  0
 16 21  1  0  0  0
 16 31  1  0  0  0
 17 18  1  0  0  0
 17102  1  0  0  0
 18 19  2  0  0  0
 18103  1  0  0  0
 19 20  1  0  0  0
 19 24  1  0  0  0
 20 21  2  0  0  0
 20104  1  0  0  0
 21 23  1  0  0  0
 22 28  1  0  0  0
 22 32  2  0  0  0
 26 27  1  0  0  0
 28105  1  0  0  0
 28106  1  0  0  0
 29107  1  0  0  0
 29108  1  0  0  0
 33 34  1  0  0  0
 33 66  1  0  0  0
 33 70  2  0  0  0
 34 36  1  0  0  0
 34 59  1  0  0  0
 34109  1  0  0  0
 35 44  2  0  0  0
 35 45  1  0  0  0
 35 68  1  0  0  0
 36 56  1  0  0  0
 36110  1  0  0  0
 37 39  1  0  0  0
 37 47  1  0  0  0
 37 66  1  0  0  0
 37111  1  0  0  0
 38 43  2  0  0  0
 38 46  1  0  0  0
 38 47  1  0  0  0
 39 64  1  0  0  0
 39 67  2  0  0  0
 40 52  1  0  0  0
 40 53  2  0  0  0
 40 58  1  0  0  0
 41112  1  0  0  0
 41113  1  0  0  0
 41114  1  0  0  0
 41 48  1  0  0  0
 42 43  1  0  0  0
 42 66  1  0  0  0
 42115  1  0  0  0
 42116  1  0  0  0
 43 44  1  0  0  0
 44117  1  0  0  0
 45 46  2  0  0  0
 45118  1  0  0  0
 46119  1  0  0  0
 47120  1  0  0  0
 47121  1  0  0  0
 48 56  1  0  0  0
 48 65  1  0  0  0
 48122  1  0  0  0
 49 50  1  0  0  0
 49 53  1  0  0  0
 49 64  1  0  0  0
 49123  1  0  0  0
 50 51  1  0  0  0
 50124  1  0  0  0
 50125  1  0  0  0
 51 52  1  0  0  0
 51126  1  0  0  0
 51127  1  0  0  0
 52128  1  0  0  0
 52129  1  0  0  0
 53 54  1  0  0  0
 54 55  2  0  0  0
 54130  1  0  0  0
 55 57  1  0  0  0
 55131  1  0  0  0
 56 69  2  0  0  0
 57 58  2  0  0  0
 57132  1  0  0  0
 58133  1  0  0  0
 59 60  1  0  0  0
 59 61  1  0  0  0
 59 62  1  0  0  0
 60134  1  0  0  0
 60135  1  0  0  0
 60136  1  0  0  0
 61137  1  0  0  0
 61138  1  0  0  0
 61139  1  0  0  0
 62140  1  0  0  0
 62141  1  0  0  0
 62142  1  0  0  0
 63 65  1  0  0  0
 63143  1  0  0  0
 63144  1  0  0  0
 63145  1  0  0  0
 64146  1  0  0  0
 65147  1  0  0  0
 68 79  1  0  0  0
 71 73  2  0  0  0
 71 75  1  0  0  0
 71 86  1  0  0  0
 72 74  1  0  0  0
 72 76  1  0  0  0
 72 85  2  0  0  0
 73 78  1  0  0  0
 73 85  1  0  0  0
 74 79  1  0  0  0
 74 86  2  0  0  0
 75148  1  0  0  0
 75149  1  0  0  0
 75150  1  0  0  0
 76151  1  0  0  0
 76152  1  0  0  0
 76153  1  0  0  0
 77154  1  0  0  0
 77155  1  0  0  0
 77156  1  0  0  0
 77 88  1  0  0  0
 78 80  1  0  0  0
 78157  1  0  0  0
 78158  1  0  0  0
 79159  1  0  0  0
 79160  1  0  0  0
 80 83  1  0  0  0
 80161  1  0  0  0
 80162  1  0  0  0
 81 82  1  0  0  0
 81 84  1  0  0  0
 81163  1  0  0  0
 81164  1  0  0  0
 82 87  1  0  0  0
 82165  1  0  0  0
 82166  1  0  0  0
 83 88  1  0  0  0
 83167  1  0  0  0
 83168  1  0  0  0
 84 88  1  0  0  0
 84169  1  0  0  0
 84170  1  0  0  0
 87171  1  0  0  0
 88172  1  0  0  0
M  CHG  1  88   1
M  ISO  4   1 100  68 101  79 101  87 100
M  END
> <chiral flag>
0

> <version>
0

> <s_m_source_file>
/data/baiqing/PycharmProjects/Reinvent-master-3.2/result/LINK_invent/BTK/process_docking_weight1_custom_sum_contain_oxygen_bond_distance_aromatic_linkinvent_7_9_3/rearranged_h_0045.sdf

> <i_m_source_file_index>
59

> <r_mmod_Potential_Energy-OPLS-2005>
-40.6875610351562

> <r_mmod_Stretch_Energy-OPLS-2005>
35.3460578918457

> <r_mmod_Bend_Energy-OPLS-2005>
107.996292114258

> <r_mmod_Torsional_Energy-OPLS-2005>
277.750183105469

> <r_mmod_Improper_Torsional_Energy-OPLS-2005>
13.2400255203247

> <r_mmod_Van_der_Waal_Energy-OPLS-2005>
177.423858642578

> <r_mmod_Electrostatic_Energy-OPLS-2005>
-217.608016967773

> <r_mmod_Solvation_Energy-OPLS-2005>
-460.190002441406

> <b_mmod_Minimization_Converged-OPLS-2005>
0

> <r_mmod_RMS_Derivative-OPLS-2005>
4.84834146499634

$$$$
60
                    3D
 Structure written by MMmdl.
157165  0  0  1  0            999 V2000
  -30.3677  -15.2821   20.3941 C   0  0  0  0  0  0
  -30.4554  -12.8071   19.5560 C   0  0  0  0  0  0
  -29.5581  -12.5881   18.3075 C   0  0  0  0  0  0
  -28.0972  -12.3117   18.7125 C   0  0  0  0  0  0
  -27.6179  -13.2731   19.8280 C   0  0  2  0  0  0
  -28.6413  -13.4202   20.9715 C   0  0  0  0  0  0
  -25.2410  -13.8241   20.5723 C   0  0  0  0  0  0
  -24.1750  -13.0451   20.9237 C   0  0  0  0  0  0
  -24.6399  -11.6939   20.8745 C   0  0  0  0  0  0
  -23.9090  -10.4303   21.0409 C   0  0  0  0  0  0
  -24.3632   -9.4220   21.9192 C   0  0  0  0  0  0
  -23.6290   -8.2266   22.0774 C   0  0  0  0  0  0
  -22.4267   -8.0310   21.3575 C   0  0  0  0  0  0
  -21.9908   -9.0281   20.4681 C   0  0  0  0  0  0
  -22.7250  -10.2146   20.3074 C   0  0  0  0  0  0
  -21.6861   -6.0745   22.5283 C   0  0  0  0  0  0
  -21.4025   -6.5646   23.8219 C   0  0  0  0  0  0
  -21.3656   -5.6798   24.9171 C   0  0  0  0  0  0
  -21.6035   -4.3059   24.7231 C   0  0  0  0  0  0
  -21.8812   -3.8155   23.4350 C   0  0  0  0  0  0
  -21.9195   -4.6976   22.3399 C   0  0  0  0  0  0
  -22.7774  -13.5236   21.1868 C   0  0  0  0  0  0
  -22.1661   -4.2170   21.0986 F   0  0  0  0  0  0
  -21.5619   -3.4535   25.7730 F   0  0  0  0  0  0
  -29.8863  -13.9374   20.3813 N   0  0  0  0  0  0
  -26.2827  -12.9510   20.3169 N   0  0  0  0  0  0
  -25.9331  -11.6622   20.5675 N   0  0  0  0  0  0
  -22.0417  -12.8255   22.0441 N   0  0  0  0  0  0
  -25.4071  -15.1978   20.4196 N   0  0  0  0  0  0
  -31.5724  -15.3327   20.0915 O   0  0  0  0  0  0
  -21.6648   -6.8892   21.4249 O   0  0  0  0  0  0
  -22.3460  -14.5533   20.6694 O   0  0  0  0  0  0
  -24.6649  -31.8202   23.1698 C   0  0  0  0  0  0
  -25.9305  -32.4562   23.8157 C   0  0  1  0  0  0
  -27.2200  -26.9094   20.1987 C   0  0  0  0  0  0
  -25.5955  -33.8386   24.2037 N   0  0  0  0  0  0
  -23.4817  -30.4303   21.5182 C   0  0  2  0  0  0
  -24.9361  -28.8138   20.1097 C   0  0  0  0  0  0
  -22.7681  -29.4426   22.4783 C   0  0  0  0  0  0
  -18.0326  -28.1421   22.8459 C   0  0  0  0  0  0
  -24.1503  -36.7216   23.2654 C   0  0  0  0  0  0
  -26.0520  -30.6182   21.4089 C   0  0  0  0  0  0
  -26.1163  -29.2086   20.7499 C   0  0  0  0  0  0
  -27.2503  -28.2761   20.7719 C   0  0  0  0  0  0
  -26.0178  -26.6735   19.4939 C   0  0  0  0  0  0
  -24.9141  -27.5682   19.4594 C   0  0  0  0  0  0
  -23.7216  -29.7436   20.1440 C   0  0  0  0  0  0
  -25.4140  -36.2960   24.0302 C   0  0  1  0  0  0
  -20.5947  -28.3764   23.1196 C   0  0  2  0  0  0
  -20.6805  -26.9437   22.5430 C   0  0  0  0  0  0
  -19.5786  -26.6354   21.5241 C   0  0  0  0  0  0
  -18.1960  -26.7945   22.1620 C   0  0  0  0  0  0
  -19.1586  -28.8919   23.2810 C   0  0  0  0  0  0
  -18.9490  -30.1510   23.8839 C   0  0  0  0  0  0
  -17.6473  -30.6597   24.0565 C   0  0  0  0  0  0
  -25.9101  -34.9340   23.5001 C   0  0  0  0  0  0
  -16.5366  -29.9077   23.6362 C   0  0  0  0  0  0
  -16.7307  -28.6515   23.0350 C   0  0  0  0  0  0
  -26.4507  -31.6555   25.0741 C   0  0  0  0  0  0
  -25.3596  -31.3880   26.1389 C   0  0  0  0  0  0
  -27.0396  -30.2885   24.6584 C   0  0  0  0  0  0
  -27.5989  -32.4384   25.7527 C   0  0  0  0  0  0
  -27.5586  -37.1767   24.8448 C   0  0  0  0  0  0
  -21.4347  -29.3027   22.3532 N   0  0  0  0  0  0
  -26.4282  -37.3696   23.9401 N   0  0  0  0  0  0
  -24.7536  -30.9846   22.0845 N   0  0  0  0  0  0
  -23.4216  -28.8004   23.3042 O   0  0  0  0  0  0
  -28.2207  -25.8044   20.3288 O   0  0  0  0  0  0
  -26.5737  -34.8880   22.4614 O   0  0  0  0  0  0
  -23.5714  -32.1185   23.6783 O   0  0  0  0  0  0
  -28.9790  -19.6696   21.0450 C   0  0  0  0  0  0
  -29.0613  -20.9620   20.3627 C   0  0  0  0  0  0
  -29.6613  -20.3542   19.1933 C   0  0  0  0  0  0
  -32.4644  -21.3235   19.1051 C   0  0  0  0  0  0
  -31.9773  -22.4752   16.8975 C   0  0  0  0  0  0
  -28.8048  -22.6832   20.7679 C   0  0  0  0  0  0
  -30.1304  -21.1183   17.9842 C   0  0  0  0  0  0
  -29.4418  -16.7561   20.7154 C   0  0  0  0  0  0
  -28.1127  -24.1759   20.0084 C   0  0  0  0  0  0
  -31.3850  -21.9929   18.2304 C   0  0  0  0  0  0
  -29.8741  -18.9879   19.2055 N   0  0  0  0  0  0
  -29.5019  -18.4220   20.3960 N   0  0  0  0  0  0
  -31.4790  -13.0148   19.2398 H   0  0  0  0  0  0
  -30.5212  -11.8933   20.1491 H   0  0  0  0  0  0
  -29.9432  -11.7681   17.7002 H   0  0  0  0  0  0
  -29.6016  -13.4821   17.6832 H   0  0  0  0  0  0
  -28.0380  -11.2798   19.0617 H   0  0  0  0  0  0
  -27.4438  -12.3832   17.8432 H   0  0  0  0  0  0
  -27.5445  -14.2485   19.3455 H   0  0  0  0  0  0
  -28.7979  -12.4713   21.4846 H   0  0  0  0  0  0
  -28.2716  -14.1208   21.7227 H   0  0  0  0  0  0
  -25.2783   -9.5693   22.4763 H   0  0  0  0  0  0
  -24.0004   -7.4655   22.7491 H   0  0  0  0  0  0
  -21.0838   -8.8820   19.8984 H   0  0  0  0  0  0
  -22.3728  -10.9691   19.6187 H   0  0  0  0  0  0
  -21.2035   -7.6159   23.9734 H   0  0  0  0  0  0
  -21.1472   -6.0521   25.9077 H   0  0  0  0  0  0
  -22.0590   -2.7624   23.2843 H   0  0  0  0  0  0
  -22.4009  -11.9933   22.4871 H   0  0  0  0  0  0
  -21.1059  -13.1338   22.2669 H   0  0  0  0  0  0
  -24.6367  -15.8468   20.5348 H   0  0  0  0  0  0
  -26.2485  -15.6430   20.0753 H   0  0  0  0  0  0
  -26.7397  -32.5068   23.0900 H   0  0  0  0  0  0
  -24.9979  -33.9432   25.0099 H   0  0  0  0  0  0
  -22.7985  -31.2640   21.3453 H   0  0  0  0  0  0
  -23.3760  -35.9552   23.3270 H   0  0  0  0  0  0
  -24.3586  -36.8913   22.2079 H   0  0  0  0  0  0
  -23.7259  -37.6389   23.6740 H   0  0  0  0  0  0
  -26.2517  -31.3620   20.6365 H   0  0  0  0  0  0
  -26.9034  -30.6613   22.0765 H   0  0  0  0  0  0
  -28.1378  -28.5716   21.3131 H   0  0  0  0  0  0
  -25.8922  -25.7199   19.0005 H   0  0  0  0  0  0
  -24.0204  -27.2616   18.9326 H   0  0  0  0  0  0
  -23.8770  -30.5099   19.3838 H   0  0  0  0  0  0
  -22.8314  -29.1960   19.8264 H   0  0  0  0  0  0
  -25.1345  -36.1761   25.0793 H   0  0  0  0  0  0
  -21.0039  -28.3385   24.1313 H   0  0  0  0  0  0
  -20.5699  -26.2375   23.3673 H   0  0  0  0  0  0
  -21.6672  -26.7414   22.1240 H   0  0  0  0  0  0
  -19.6939  -25.6237   21.1332 H   0  0  0  0  0  0
  -19.6745  -27.3126   20.6741 H   0  0  0  0  0  0
  -17.4240  -26.6709   21.4006 H   0  0  0  0  0  0
  -18.0330  -26.0108   22.9029 H   0  0  0  0  0  0
  -19.7955  -30.7368   24.2158 H   0  0  0  0  0  0
  -17.5010  -31.6271   24.5168 H   0  0  0  0  0  0
  -15.5358  -30.2949   23.7723 H   0  0  0  0  0  0
  -15.8716  -28.0828   22.7069 H   0  0  0  0  0  0
  -24.5766  -30.7237   25.7707 H   0  0  0  0  0  0
  -24.8789  -32.3114   26.4631 H   0  0  0  0  0  0
  -25.7778  -30.9159   27.0289 H   0  0  0  0  0  0
  -26.3077  -29.6531   24.1581 H   0  0  0  0  0  0
  -27.3815  -29.7318   25.5315 H   0  0  0  0  0  0
  -27.9076  -30.3980   24.0082 H   0  0  0  0  0  0
  -27.2519  -33.3705   26.2003 H   0  0  0  0  0  0
  -28.3828  -32.6922   25.0378 H   0  0  0  0  0  0
  -28.0627  -31.8595   26.5527 H   0  0  0  0  0  0
  -28.2574  -38.0089   24.7502 H   0  0  0  0  0  0
  -28.1103  -36.2614   24.6242 H   0  0  0  0  0  0
  -27.2322  -37.1403   25.8854 H   0  0  0  0  0  0
  -20.9625  -29.8671   21.6616 H   0  0  0  0  0  0
  -26.0136  -38.2766   24.1348 H   0  0  0  0  0  0
  -28.5704  -19.5288   22.0359 H   0  0  0  0  0  0
  -33.3689  -21.9314   19.1556 H   0  0  0  0  0  0
  -32.7471  -20.3426   18.7216 H   0  0  0  0  0  0
  -32.1186  -21.1881   20.1308 H   0  0  0  0  0  0
  -32.8192  -23.1502   17.0554 H   0  0  0  0  0  0
  -31.2331  -23.0147   16.3092 H   0  0  0  0  0  0
  -32.3329  -21.6402   16.2912 H   0  0  0  0  0  0
  -29.8037  -23.0337   21.0316 H   0  0  0  0  0  0
  -28.3043  -22.6736   21.7367 H   0  0  0  0  0  0
  -29.3183  -21.7473   17.6201 H   0  0  0  0  0  0
  -30.3359  -20.4191   17.1722 H   0  0  0  0  0  0
  -28.4620  -16.4744   20.3337 H   0  0  0  0  0  0
  -29.3081  -16.7102   21.7961 H   0  0  0  0  0  0
  -27.0453  -23.9721   19.9233 H   0  0  0  0  0  0
  -28.4747  -24.1283   18.9813 H   0  0  0  0  0  0
  -31.0603  -22.8781   18.7798 H   0  0  0  0  0  0
  1 25  1  0  0  0
  1 30  2  0  0  0
  1 78  1  0  0  0
  2  3  1  0  0  0
  2 25  1  0  0  0
  2 83  1  0  0  0
  2 84  1  0  0  0
  3  4  1  0  0  0
  3 85  1  0  0  0
  3 86  1  0  0  0
  4  5  1  0  0  0
  4 87  1  0  0  0
  4 88  1  0  0  0
  5  6  1  0  0  0
  5 26  1  0  0  0
  5 89  1  0  0  0
  6 25  1  0  0  0
  6 90  1  0  0  0
  6 91  1  0  0  0
  7  8  2  0  0  0
  7 26  1  0  0  0
  7 29  1  0  0  0
  8  9  1  0  0  0
  8 22  1  0  0  0
  9 10  1  0  0  0
  9 27  2  0  0  0
 10 11  2  0  0  0
 10 15  1  0  0  0
 11 12  1  0  0  0
 11 92  1  0  0  0
 12 13  2  0  0  0
 12 93  1  0  0  0
 13 14  1  0  0  0
 13 31  1  0  0  0
 14 15  2  0  0  0
 14 94  1  0  0  0
 15 95  1  0  0  0
 16 17  2  0  0  0
 16 21  1  0  0  0
 16 31  1  0  0  0
 17 18  1  0  0  0
 17 96  1  0  0  0
 18 19  2  0  0  0
 18 97  1  0  0  0
 19 20  1  0  0  0
 19 24  1  0  0  0
 20 21  2  0  0  0
 20 98  1  0  0  0
 21 23  1  0  0  0
 22 28  1  0  0  0
 22 32  2  0  0  0
 26 27  1  0  0  0
 28 99  1  0  0  0
 28100  1  0  0  0
 29101  1  0  0  0
 29102  1  0  0  0
 33 34  1  0  0  0
 33 66  1  0  0  0
 33 70  2  0  0  0
 34 36  1  0  0  0
 34 59  1  0  0  0
 34103  1  0  0  0
 35 44  2  0  0  0
 35 45  1  0  0  0
 35 68  1  0  0  0
 36 56  1  0  0  0
 36104  1  0  0  0
 37 39  1  0  0  0
 37 47  1  0  0  0
 37 66  1  0  0  0
 37105  1  0  0  0
 38 43  2  0  0  0
 38 46  1  0  0  0
 38 47  1  0  0  0
 39 64  1  0  0  0
 39 67  2  0  0  0
 40 52  1  0  0  0
 40 53  2  0  0  0
 40 58  1  0  0  0
 41106  1  0  0  0
 41107  1  0  0  0
 41108  1  0  0  0
 41 48  1  0  0  0
 42 43  1  0  0  0
 42 66  1  0  0  0
 42109  1  0  0  0
 42110  1  0  0  0
 43 44  1  0  0  0
 44111  1  0  0  0
 45 46  2  0  0  0
 45112  1  0  0  0
 46113  1  0  0  0
 47114  1  0  0  0
 47115  1  0  0  0
 48 56  1  0  0  0
 48 65  1  0  0  0
 48116  1  0  0  0
 49 50  1  0  0  0
 49 53  1  0  0  0
 49 64  1  0  0  0
 49117  1  0  0  0
 50 51  1  0  0  0
 50118  1  0  0  0
 50119  1  0  0  0
 51 52  1  0  0  0
 51120  1  0  0  0
 51121  1  0  0  0
 52122  1  0  0  0
 52123  1  0  0  0
 53 54  1  0  0  0
 54 55  2  0  0  0
 54124  1  0  0  0
 55 57  1  0  0  0
 55125  1  0  0  0
 56 69  2  0  0  0
 57 58  2  0  0  0
 57126  1  0  0  0
 58127  1  0  0  0
 59 60  1  0  0  0
 59 61  1  0  0  0
 59 62  1  0  0  0
 60128  1  0  0  0
 60129  1  0  0  0
 60130  1  0  0  0
 61131  1  0  0  0
 61132  1  0  0  0
 61133  1  0  0  0
 62134  1  0  0  0
 62135  1  0  0  0
 62136  1  0  0  0
 63 65  1  0  0  0
 63137  1  0  0  0
 63138  1  0  0  0
 63139  1  0  0  0
 64140  1  0  0  0
 65141  1  0  0  0
 68 79  1  0  0  0
 71 72  2  0  0  0
 71 82  1  0  0  0
 71142  1  0  0  0
 72 73  1  0  0  0
 72 76  1  0  0  0
 73 77  1  0  0  0
 73 81  2  0  0  0
 74143  1  0  0  0
 74144  1  0  0  0
 74145  1  0  0  0
 74 80  1  0  0  0
 75 80  1  0  0  0
 75146  1  0  0  0
 75147  1  0  0  0
 75148  1  0  0  0
 76 79  1  0  0  0
 76149  1  0  0  0
 76150  1  0  0  0
 77 80  1  0  0  0
 77151  1  0  0  0
 77152  1  0  0  0
 78 82  1  0  0  0
 78153  1  0  0  0
 78154  1  0  0  0
 79155  1  0  0  0
 79156  1  0  0  0
 80157  1  0  0  0
 81 82  1  0  0  0
M  ISO  4   1 100  68 101  78 100  79 101
M  END
> <chiral flag>
0

> <version>
0

> <s_m_source_file>
/data/baiqing/PycharmProjects/Reinvent-master-3.2/result/LINK_invent/BTK/process_docking_weight1_custom_sum_contain_oxygen_bond_distance_aromatic_linkinvent_7_9_3/rearranged_h_0045.sdf

> <i_m_source_file_index>
60

> <r_mmod_Potential_Energy-OPLS-2005>
1380.12658691406

> <r_mmod_Stretch_Energy-OPLS-2005>
614.517028808594

> <r_mmod_Bend_Energy-OPLS-2005>
476.351501464844

> <r_mmod_Torsional_Energy-OPLS-2005>
188.483871459961

> <r_mmod_Improper_Torsional_Energy-OPLS-2005>
4.45985746383667

> <r_mmod_Van_der_Waal_Energy-OPLS-2005>
99.8402404785156

> <r_mmod_Electrostatic_Energy-OPLS-2005>
-268.376098632812

> <r_mmod_Solvation_Energy-OPLS-2005>
-219.812362670898

> <b_mmod_Minimization_Converged-OPLS-2005>
0

> <r_mmod_RMS_Derivative-OPLS-2005>
2.77852058410645

$$$$
61
                    3D
 Structure written by MMmdl.
178186  0  0  1  0            999 V2000
  -30.7525  -14.4004   20.6687 C   0  0  0  0  0  0
  -30.4082  -12.2991   19.4122 C   0  0  0  0  0  0
  -29.4871  -12.5420   18.2018 C   0  0  0  0  0  0
  -28.0085  -12.3933   18.6085 C   0  0  0  0  0  0
  -27.6618  -13.2103   19.8819 C   0  0  2  0  0  0
  -28.6977  -12.9645   21.0019 C   0  0  0  0  0  0
  -25.2567  -13.8173   20.5660 C   0  0  0  0  0  0
  -24.1820  -13.0437   20.9137 C   0  0  0  0  0  0
  -24.6367  -11.6901   20.8710 C   0  0  0  0  0  0
  -23.9040  -10.4298   21.0382 C   0  0  0  0  0  0
  -24.3597   -9.4216   21.9157 C   0  0  0  0  0  0
  -23.6274   -8.2251   22.0743 C   0  0  0  0  0  0
  -22.4259   -8.0288   21.3541 C   0  0  0  0  0  0
  -21.9893   -9.0250   20.4637 C   0  0  0  0  0  0
  -22.7215  -10.2118   20.3033 C   0  0  0  0  0  0
  -21.6868   -6.0721   22.5275 C   0  0  0  0  0  0
  -21.4015   -6.5630   23.8205 C   0  0  0  0  0  0
  -21.3655   -5.6782   24.9175 C   0  0  0  0  0  0
  -21.6044   -4.3044   24.7226 C   0  0  0  0  0  0
  -21.8826   -3.8132   23.4349 C   0  0  0  0  0  0
  -21.9192   -4.6947   22.3400 C   0  0  0  0  0  0
  -22.7848  -13.5239   21.1816 C   0  0  0  0  0  0
  -22.1665   -4.2131   21.0975 F   0  0  0  0  0  0
  -21.5624   -3.4535   25.7736 F   0  0  0  0  0  0
  -30.0401  -13.2577   20.4650 N   0  0  0  0  0  0
  -26.3007  -12.9335   20.3371 N   0  0  0  0  0  0
  -25.9292  -11.6500   20.5727 N   0  0  0  0  0  0
  -22.0506  -12.8230   22.0376 N   0  0  0  0  0  0
  -25.4324  -15.1881   20.4097 N   0  0  0  0  0  0
  -31.7836  -14.6653   20.0440 O   0  0  0  0  0  0
  -21.6649   -6.8855   21.4231 O   0  0  0  0  0  0
  -22.3521  -14.5562   20.6696 O   0  0  0  0  0  0
  -24.6102  -31.8697   23.2084 C   0  0  0  0  0  0
  -25.9051  -32.4799   23.8413 C   0  0  1  0  0  0
  -27.2321  -27.4838   20.1044 C   0  0  0  0  0  0
  -25.5961  -33.8614   24.2383 N   0  0  0  0  0  0
  -23.3927  -30.4980   21.5455 C   0  0  2  0  0  0
  -24.8369  -28.9722   20.1014 C   0  0  0  0  0  0
  -22.7342  -29.4768   22.5008 C   0  0  0  0  0  0
  -18.0223  -28.1427   22.8521 C   0  0  0  0  0  0
  -24.1429  -36.7189   23.2623 C   0  0  0  0  0  0
  -25.9099  -30.8650   21.3376 C   0  0  0  0  0  0
  -25.9912  -29.4983   20.6987 C   0  0  0  0  0  0
  -27.1909  -28.7634   20.7020 C   0  0  0  0  0  0
  -26.0787  -26.9773   19.4740 C   0  0  0  0  0  0
  -24.8746  -27.7107   19.4822 C   0  0  0  0  0  0
  -23.5918  -29.8275   20.1590 C   0  0  0  0  0  0
  -25.4055  -36.3093   24.0375 C   0  0  1  0  0  0
  -20.5808  -28.3658   23.1286 C   0  0  2  0  0  0
  -20.6729  -26.9460   22.5233 C   0  0  0  0  0  0
  -19.5578  -26.6440   21.5158 C   0  0  0  0  0  0
  -18.1814  -26.7957   22.1678 C   0  0  0  0  0  0
  -19.1487  -28.8860   23.2881 C   0  0  0  0  0  0
  -18.9465  -30.1490   23.8890 C   0  0  0  0  0  0
  -17.6474  -30.6629   24.0601 C   0  0  0  0  0  0
  -25.9015  -34.9461   23.5156 C   0  0  0  0  0  0
  -16.5365  -29.9174   23.6351 C   0  0  0  0  0  0
  -16.7211  -28.6573   23.0383 C   0  0  0  0  0  0
  -26.4479  -31.6511   25.0678 C   0  0  0  0  0  0
  -25.3788  -31.3502   26.1420 C   0  0  0  0  0  0
  -27.0288  -30.3002   24.5913 C   0  0  0  0  0  0
  -27.6083  -32.4132   25.7517 C   0  0  0  0  0  0
  -27.5532  -37.1751   24.8526 C   0  0  0  0  0  0
  -21.4085  -29.3047   22.3749 N   0  0  0  0  0  0
  -26.4207  -37.3848   23.9511 N   0  0  0  0  0  0
  -24.6564  -31.0922   22.0906 N   0  0  0  0  0  0
  -23.4101  -28.8511   23.3192 O   0  0  0  0  0  0
  -28.3515  -26.6963   20.1874 O   0  0  0  0  0  0
  -26.5540  -34.8947   22.4688 O   0  0  0  0  0  0
  -23.5327  -32.1396   23.7552 O   0  0  0  0  0  0
  -25.4562  -24.7653   22.7708 C   0  0  0  0  0  0
  -25.7591  -23.3781   22.8525 C   0  0  0  0  0  0
  -27.9457  -23.8141   22.1909 C   0  0  0  0  0  0
  -27.6386  -25.2011   22.0677 C   0  0  0  0  0  0
  -24.0817  -25.3345   23.0896 C   0  0  0  0  0  0
  -24.9352  -20.9452   22.6587 C   0  0  0  0  0  0
  -28.7797  -20.8682   18.9972 C   0  0  0  0  0  0
  -24.7711  -22.3232   23.3413 C   0  0  0  0  0  0
  -29.3155  -23.2140   21.8547 C   0  0  0  0  0  0
  -28.6299  -26.2544   21.5298 C   0  0  0  0  0  0
  -29.6679  -21.8907   22.5840 C   0  0  0  0  0  0
  -30.2960  -17.7129   22.2632 C   0  0  0  0  0  0
  -31.0403  -16.3530   22.2045 C   0  0  0  0  0  0
  -30.1487  -20.5949   19.6538 C   0  0  0  0  0  0
  -29.1370  -20.5680   21.9634 C   0  0  0  0  0  0
  -30.0485  -18.4392   20.9099 C   0  0  0  0  0  0
  -26.4001  -25.6627   22.3984 N   0  0  0  0  0  0
  -27.0038  -22.9256   22.5824 N   0  0  0  0  0  0
  -30.2944  -15.2229   21.6281 N   0  0  0  0  0  0
  -30.0915  -19.9392   20.9981 N   0  3  1  0  0  0
  -31.4566  -12.3815   19.1153 H   0  0  0  0  0  0
  -30.2893  -11.2779   19.7778 H   0  0  0  0  0  0
  -29.7273  -11.8518   17.3929 H   0  0  0  0  0  0
  -29.6600  -13.5467   17.8120 H   0  0  0  0  0  0
  -27.8073  -11.3341   18.7741 H   0  0  0  0  0  0
  -27.3623  -12.6995   17.7841 H   0  0  0  0  0  0
  -27.7164  -14.2646   19.6116 H   0  0  0  0  0  0
  -28.6555  -11.9240   21.3267 H   0  0  0  0  0  0
  -28.4451  -13.5510   21.8845 H   0  0  0  0  0  0
  -25.2751   -9.5700   22.4729 H   0  0  0  0  0  0
  -23.9998   -7.4646   22.7475 H   0  0  0  0  0  0
  -21.0825   -8.8743   19.8960 H   0  0  0  0  0  0
  -22.3663  -10.9638   19.6138 H   0  0  0  0  0  0
  -21.2019   -7.6146   23.9700 H   0  0  0  0  0  0
  -21.1466   -6.0517   25.9064 H   0  0  0  0  0  0
  -22.0610   -2.7601   23.2857 H   0  0  0  0  0  0
  -22.4104  -11.9872   22.4747 H   0  0  0  0  0  0
  -21.1128  -13.1256   22.2614 H   0  0  0  0  0  0
  -24.6748  -15.8536   20.5252 H   0  0  0  0  0  0
  -26.2991  -15.6246   20.1194 H   0  0  0  0  0  0
  -26.7146  -32.5477   23.1205 H   0  0  0  0  0  0
  -25.0500  -33.9804   25.0798 H   0  0  0  0  0  0
  -22.6813  -31.3148   21.4054 H   0  0  0  0  0  0
  -23.3766  -35.9432   23.3323 H   0  0  0  0  0  0
  -24.3550  -36.8691   22.2039 H   0  0  0  0  0  0
  -23.7078  -37.6380   23.6554 H   0  0  0  0  0  0
  -25.9996  -31.6166   20.5530 H   0  0  0  0  0  0
  -26.8143  -30.9363   21.9313 H   0  0  0  0  0  0
  -28.0691  -29.1727   21.1780 H   0  0  0  0  0  0
  -26.0961  -25.9990   19.0177 H   0  0  0  0  0  0
  -23.9860  -27.3001   19.0237 H   0  0  0  0  0  0
  -23.6896  -30.6017   19.3958 H   0  0  0  0  0  0
  -22.7202  -29.2362   19.8694 H   0  0  0  0  0  0
  -25.1198  -36.1929   25.0860 H   0  0  0  0  0  0
  -20.9910  -28.3125   24.1383 H   0  0  0  0  0  0
  -20.5845  -26.2252   23.3345 H   0  0  0  0  0  0
  -21.6548  -26.7637   22.0844 H   0  0  0  0  0  0
  -19.6671  -25.6361   21.1107 H   0  0  0  0  0  0
  -19.6403  -27.3325   20.6713 H   0  0  0  0  0  0
  -17.4042  -26.6735   21.4133 H   0  0  0  0  0  0
  -18.0231  -26.0132   22.9110 H   0  0  0  0  0  0
  -19.7966  -30.7299   24.2245 H   0  0  0  0  0  0
  -17.5068  -31.6313   24.5203 H   0  0  0  0  0  0
  -15.5391  -30.3121   23.7678 H   0  0  0  0  0  0
  -15.8568  -28.0930   22.7119 H   0  0  0  0  0  0
  -24.6107  -30.6648   25.7773 H   0  0  0  0  0  0
  -24.8807  -32.2614   26.4755 H   0  0  0  0  0  0
  -25.8227  -30.8819   27.0206 H   0  0  0  0  0  0
  -26.2774  -29.6816   24.1002 H   0  0  0  0  0  0
  -27.4211  -29.7129   25.4203 H   0  0  0  0  0  0
  -27.8505  -30.4391   23.8892 H   0  0  0  0  0  0
  -27.2747  -33.3433   26.2120 H   0  0  0  0  0  0
  -28.4018  -32.6642   25.0464 H   0  0  0  0  0  0
  -28.0634  -31.8198   26.5475 H   0  0  0  0  0  0
  -28.2606  -38.0021   24.7667 H   0  0  0  0  0  0
  -28.0983  -36.2594   24.6193 H   0  0  0  0  0  0
  -27.2293  -37.1159   25.8942 H   0  0  0  0  0  0
  -20.9226  -29.8697   21.6923 H   0  0  0  0  0  0
  -26.0061  -38.2854   24.1697 H   0  0  0  0  0  0
  -23.3341  -24.9781   22.3789 H   0  0  0  0  0  0
  -24.0723  -26.4237   23.0306 H   0  0  0  0  0  0
  -23.7604  -25.0631   24.0930 H   0  0  0  0  0  0
  -24.2212  -20.2178   23.0504 H   0  0  0  0  0  0
  -25.9358  -20.5386   22.8316 H   0  0  0  0  0  0
  -24.7826  -21.0020   21.5763 H   0  0  0  0  0  0
  -28.9104  -21.2060   17.9678 H   0  0  0  0  0  0
  -28.2217  -21.6505   19.5102 H   0  0  0  0  0  0
  -28.1622  -19.9700   18.9756 H   0  0  0  0  0  0
  -23.7530  -22.6709   23.1638 H   0  0  0  0  0  0
  -24.8985  -22.2218   24.4222 H   0  0  0  0  0  0
  -30.0689  -23.9313   22.1749 H   0  0  0  0  0  0
  -29.4288  -23.1227   20.7755 H   0  0  0  0  0  0
  -29.6480  -25.8764   21.5276 H   0  0  0  0  0  0
  -28.6679  -27.1040   22.2208 H   0  0  0  0  0  0
  -29.3116  -21.9641   23.6120 H   0  0  0  0  0  0
  -30.7506  -21.8179   22.6750 H   0  0  0  0  0  0
  -30.9116  -18.3590   22.8936 H   0  0  0  0  0  0
  -29.3538  -17.5936   22.7957 H   0  0  0  0  0  0
  -31.2856  -16.0635   23.2288 H   0  0  0  0  0  0
  -32.0055  -16.4967   21.7170 H   0  0  0  0  0  0
  -30.6968  -21.5306   19.7407 H   0  0  0  0  0  0
  -30.7465  -19.9902   18.9718 H   0  0  0  0  0  0
  -28.1373  -20.6873   21.5497 H   0  0  0  0  0  0
  -28.9919  -19.8851   22.8001 H   0  0  0  0  0  0
  -29.1045  -18.1129   20.4708 H   0  0  0  0  0  0
  -30.8289  -18.1234   20.2167 H   0  0  0  0  0  0
  -29.4726  -14.9044   22.1245 H   0  0  0  0  0  0
  -31.0074  -20.1105   21.3870 H   0  0  0  0  0  0
  1 25  1  0  0  0
  1 30  2  0  0  0
  1 89  1  0  0  0
  2  3  1  0  0  0
  2 25  1  0  0  0
  2 91  1  0  0  0
  2 92  1  0  0  0
  3  4  1  0  0  0
  3 93  1  0  0  0
  3 94  1  0  0  0
  4  5  1  0  0  0
  4 95  1  0  0  0
  4 96  1  0  0  0
  5  6  1  0  0  0
  5 26  1  0  0  0
  5 97  1  0  0  0
  6 25  1  0  0  0
  6 98  1  0  0  0
  6 99  1  0  0  0
  7  8  2  0  0  0
  7 26  1  0  0  0
  7 29  1  0  0  0
  8  9  1  0  0  0
  8 22  1  0  0  0
  9 10  1  0  0  0
  9 27  2  0  0  0
 10 11  2  0  0  0
 10 15  1  0  0  0
 11 12  1  0  0  0
 11100  1  0  0  0
 12 13  2  0  0  0
 12101  1  0  0  0
 13 14  1  0  0  0
 13 31  1  0  0  0
 14 15  2  0  0  0
 14102  1  0  0  0
 15103  1  0  0  0
 16 17  2  0  0  0
 16 21  1  0  0  0
 16 31  1  0  0  0
 17 18  1  0  0  0
 17104  1  0  0  0
 18 19  2  0  0  0
 18105  1  0  0  0
 19 20  1  0  0  0
 19 24  1  0  0  0
 20 21  2  0  0  0
 20106  1  0  0  0
 21 23  1  0  0  0
 22 28  1  0  0  0
 22 32  2  0  0  0
 26 27  1  0  0  0
 28107  1  0  0  0
 28108  1  0  0  0
 29109  1  0  0  0
 29110  1  0  0  0
 33 34  1  0  0  0
 33 66  1  0  0  0
 33 70  2  0  0  0
 34 36  1  0  0  0
 34 59  1  0  0  0
 34111  1  0  0  0
 35 44  2  0  0  0
 35 45  1  0  0  0
 35 68  1  0  0  0
 36 56  1  0  0  0
 36112  1  0  0  0
 37 39  1  0  0  0
 37 47  1  0  0  0
 37 66  1  0  0  0
 37113  1  0  0  0
 38 43  2  0  0  0
 38 46  1  0  0  0
 38 47  1  0  0  0
 39 64  1  0  0  0
 39 67  2  0  0  0
 40 52  1  0  0  0
 40 53  2  0  0  0
 40 58  1  0  0  0
 41114  1  0  0  0
 41115  1  0  0  0
 41116  1  0  0  0
 41 48  1  0  0  0
 42 43  1  0  0  0
 42 66  1  0  0  0
 42117  1  0  0  0
 42118  1  0  0  0
 43 44  1  0  0  0
 44119  1  0  0  0
 45 46  2  0  0  0
 45120  1  0  0  0
 46121  1  0  0  0
 47122  1  0  0  0
 47123  1  0  0  0
 48 56  1  0  0  0
 48 65  1  0  0  0
 48124  1  0  0  0
 49 50  1  0  0  0
 49 53  1  0  0  0
 49 64  1  0  0  0
 49125  1  0  0  0
 50 51  1  0  0  0
 50126  1  0  0  0
 50127  1  0  0  0
 51 52  1  0  0  0
 51128  1  0  0  0
 51129  1  0  0  0
 52130  1  0  0  0
 52131  1  0  0  0
 53 54  1  0  0  0
 54 55  2  0  0  0
 54132  1  0  0  0
 55 57  1  0  0  0
 55133  1  0  0  0
 56 69  2  0  0  0
 57 58  2  0  0  0
 57134  1  0  0  0
 58135  1  0  0  0
 59 60  1  0  0  0
 59 61  1  0  0  0
 59 62  1  0  0  0
 60136  1  0  0  0
 60137  1  0  0  0
 60138  1  0  0  0
 61139  1  0  0  0
 61140  1  0  0  0
 61141  1  0  0  0
 62142  1  0  0  0
 62143  1  0  0  0
 62144  1  0  0  0
 63 65  1  0  0  0
 63145  1  0  0  0
 63146  1  0  0  0
 63147  1  0  0  0
 64148  1  0  0  0
 65149  1  0  0  0
 68 80  1  0  0  0
 71 72  2  0  0  0
 71 75  1  0  0  0
 71 87  1  0  0  0
 72 78  1  0  0  0
 72 88  1  0  0  0
 73 74  1  0  0  0
 73 79  1  0  0  0
 73 88  2  0  0  0
 74 80  1  0  0  0
 74 87  2  0  0  0
 75150  1  0  0  0
 75151  1  0  0  0
 75152  1  0  0  0
 76 78  1  0  0  0
 76153  1  0  0  0
 76154  1  0  0  0
 76155  1  0  0  0
 77 84  1  0  0  0
 77156  1  0  0  0
 77157  1  0  0  0
 77158  1  0  0  0
 78159  1  0  0  0
 78160  1  0  0  0
 79 81  1  0  0  0
 79161  1  0  0  0
 79162  1  0  0  0
 80163  1  0  0  0
 80164  1  0  0  0
 81 85  1  0  0  0
 81165  1  0  0  0
 81166  1  0  0  0
 82 83  1  0  0  0
 82 86  1  0  0  0
 82167  1  0  0  0
 82168  1  0  0  0
 83 89  1  0  0  0
 83169  1  0  0  0
 83170  1  0  0  0
 84171  1  0  0  0
 84172  1  0  0  0
 84 90  1  0  0  0
 85 90  1  0  0  0
 85173  1  0  0  0
 85174  1  0  0  0
 86 90  1  0  0  0
 86175  1  0  0  0
 86176  1  0  0  0
 89177  1  0  0  0
 90178  1  0  0  0
M  CHG  1  90   1
M  ISO  4   1 100  68 101  80 101  89 100
M  END
> <chiral flag>
0

> <version>
0

> <s_m_source_file>
/data/baiqing/PycharmProjects/Reinvent-master-3.2/result/LINK_invent/BTK/process_docking_weight1_custom_sum_contain_oxygen_bond_distance_aromatic_linkinvent_7_9_3/rearranged_h_0045.sdf

> <i_m_source_file_index>
61

> <r_mmod_Potential_Energy-OPLS-2005>
-57.3790016174316

> <r_mmod_Stretch_Energy-OPLS-2005>
45.3721733093262

> <r_mmod_Bend_Energy-OPLS-2005>
118.772964477539

> <r_mmod_Torsional_Energy-OPLS-2005>
262.921661376953

> <r_mmod_Improper_Torsional_Energy-OPLS-2005>
2.60253119468689

> <r_mmod_Van_der_Waal_Energy-OPLS-2005>
152.090362548828

> <r_mmod_Electrostatic_Energy-OPLS-2005>
-210.025177001953

> <r_mmod_Solvation_Energy-OPLS-2005>
-439.504028320312

> <b_mmod_Minimization_Converged-OPLS-2005>
0

> <r_mmod_RMS_Derivative-OPLS-2005>
6.65475988388062

$$$$
62
                    3D
 Structure written by MMmdl.
170178  0  0  1  0            999 V2000
  -30.7531  -14.4122   20.6677 C   0  0  0  0  0  0
  -30.4242  -12.3218   19.3810 C   0  0  0  0  0  0
  -29.4780  -12.5445   18.1820 C   0  0  0  0  0  0
  -28.0045  -12.3980   18.6012 C   0  0  0  0  0  0
  -27.6684  -13.2070   19.8802 C   0  0  2  0  0  0
  -28.7151  -12.9315   20.9821 C   0  0  0  0  0  0
  -25.2634  -13.8160   20.5697 C   0  0  0  0  0  0
  -24.1863  -13.0436   20.9184 C   0  0  0  0  0  0
  -24.6418  -11.6920   20.8721 C   0  0  0  0  0  0
  -23.9061  -10.4307   21.0419 C   0  0  0  0  0  0
  -24.3618   -9.4213   21.9185 C   0  0  0  0  0  0
  -23.6296   -8.2238   22.0770 C   0  0  0  0  0  0
  -22.4266   -8.0287   21.3559 C   0  0  0  0  0  0
  -21.9908   -9.0253   20.4635 C   0  0  0  0  0  0
  -22.7233  -10.2140   20.3052 C   0  0  0  0  0  0
  -21.6844   -6.0729   22.5281 C   0  0  0  0  0  0
  -21.4005   -6.5647   23.8208 C   0  0  0  0  0  0
  -21.3652   -5.6816   24.9179 C   0  0  0  0  0  0
  -21.6049   -4.3083   24.7232 C   0  0  0  0  0  0
  -21.8822   -3.8156   23.4356 C   0  0  0  0  0  0
  -21.9199   -4.6958   22.3401 C   0  0  0  0  0  0
  -22.7884  -13.5234   21.1869 C   0  0  0  0  0  0
  -22.1687   -4.2144   21.0983 F   0  0  0  0  0  0
  -21.5623   -3.4571   25.7753 F   0  0  0  0  0  0
  -30.0467  -13.2659   20.4466 N   0  0  0  0  0  0
  -26.3074  -12.9343   20.3393 N   0  0  0  0  0  0
  -25.9345  -11.6497   20.5723 N   0  0  0  0  0  0
  -22.0509  -12.8195   22.0417 N   0  0  0  0  0  0
  -25.4402  -15.1846   20.4121 N   0  0  0  0  0  0
  -31.7820  -14.6740   20.0390 O   0  0  0  0  0  0
  -21.6635   -6.8874   21.4247 O   0  0  0  0  0  0
  -22.3542  -14.5549   20.6734 O   0  0  0  0  0  0
  -24.6092  -31.8703   23.2124 C   0  0  0  0  0  0
  -25.8994  -32.4843   23.8405 C   0  0  1  0  0  0
  -27.2320  -27.4653   20.1023 C   0  0  0  0  0  0
  -25.5872  -33.8638   24.2336 N   0  0  0  0  0  0
  -23.3974  -30.4893   21.5523 C   0  0  2  0  0  0
  -24.8473  -28.9616   20.1123 C   0  0  0  0  0  0
  -22.7396  -29.4642   22.5015 C   0  0  0  0  0  0
  -18.0263  -28.1381   22.8497 C   0  0  0  0  0  0
  -24.1486  -36.7336   23.2638 C   0  0  0  0  0  0
  -25.9210  -30.8465   21.3598 C   0  0  0  0  0  0
  -26.0016  -29.4815   20.7128 C   0  0  0  0  0  0
  -27.1994  -28.7363   20.7144 C   0  0  0  0  0  0
  -26.0725  -26.9541   19.4889 C   0  0  0  0  0  0
  -24.8760  -27.6962   19.4967 C   0  0  0  0  0  0
  -23.6034  -29.8197   20.1660 C   0  0  0  0  0  0
  -25.4105  -36.3124   24.0336 C   0  0  1  0  0  0
  -20.5848  -28.3650   23.1346 C   0  0  2  0  0  0
  -20.6750  -26.9393   22.5439 C   0  0  0  0  0  0
  -19.5733  -26.6382   21.5224 C   0  0  0  0  0  0
  -18.1903  -26.7933   22.1624 C   0  0  0  0  0  0
  -19.1515  -28.8834   23.2910 C   0  0  0  0  0  0
  -18.9438  -30.1445   23.8903 C   0  0  0  0  0  0
  -17.6444  -30.6591   24.0561 C   0  0  0  0  0  0
  -25.9033  -34.9487   23.5139 C   0  0  0  0  0  0
  -16.5329  -29.9089   23.6330 C   0  0  0  0  0  0
  -16.7254  -28.6505   23.0347 C   0  0  0  0  0  0
  -26.4436  -31.6612   25.0724 C   0  0  0  0  0  0
  -25.3711  -31.3704   26.1472 C   0  0  0  0  0  0
  -27.0281  -30.3072   24.6068 C   0  0  0  0  0  0
  -27.6016  -32.4332   25.7484 C   0  0  0  0  0  0
  -27.5591  -37.1804   24.8446 C   0  0  0  0  0  0
  -21.4122  -29.3015   22.3758 N   0  0  0  0  0  0
  -26.4290  -37.3808   23.9415 N   0  0  0  0  0  0
  -24.6607  -31.0819   22.1011 N   0  0  0  0  0  0
  -23.4195  -28.8203   23.3049 O   0  0  0  0  0  0
  -28.3587  -26.6890   20.1300 O   0  0  0  0  0  0
  -26.5598  -34.8931   22.4703 O   0  0  0  0  0  0
  -23.5296  -32.1422   23.7536 O   0  0  0  0  0  0
  -30.4315  -23.1272   22.5463 C   0  0  0  0  0  0
  -31.1152  -22.7018   21.3920 C   0  0  0  0  0  0
  -30.9063  -23.4949   20.2450 C   0  0  0  0  0  0
  -29.4797  -24.8676   21.4097 C   0  0  0  0  0  0
  -31.1232  -22.6921   16.4443 C   0  0  0  0  0  0
  -30.0867  -19.7496   22.4204 C   0  0  0  0  0  0
  -32.1412  -21.5571   21.4732 C   0  0  0  0  0  0
  -31.5716  -23.2480   18.9028 C   0  0  0  0  0  0
  -28.5540  -26.0836   21.4166 C   0  0  0  0  0  0
  -30.3222  -15.4451   21.7332 C   0  0  0  0  0  0
  -30.5638  -22.7210   17.8700 C   0  0  0  0  0  0
  -29.9422  -16.8520   21.1848 C   0  0  0  0  0  0
  -31.8778  -20.2073   20.7193 C   0  0  0  0  0  0
  -31.1184  -17.8745   21.1444 C   0  0  0  0  0  0
  -29.6126  -24.1927   22.5476 N   0  0  0  0  0  0
  -30.0894  -24.5625   20.2704 N   0  0  0  0  0  0
  -30.7380  -19.3276   21.1553 N   0  3  1  0  0  0
  -31.4627  -12.4347   19.0612 H   0  0  0  0  0  0
  -30.3440  -11.2959   19.7429 H   0  0  0  0  0  0
  -29.7083  -11.8457   17.3754 H   0  0  0  0  0  0
  -29.6374  -13.5423   17.7733 H   0  0  0  0  0  0
  -27.8037  -11.3405   18.7709 H   0  0  0  0  0  0
  -27.3484  -12.7060   17.7828 H   0  0  0  0  0  0
  -27.7297  -14.2615   19.6159 H   0  0  0  0  0  0
  -28.6992  -11.8745   21.2480 H   0  0  0  0  0  0
  -28.4441  -13.4405   21.9013 H   0  0  0  0  0  0
  -25.2773   -9.5692   22.4765 H   0  0  0  0  0  0
  -24.0021   -7.4618   22.7478 H   0  0  0  0  0  0
  -21.0853   -8.8720   19.8919 H   0  0  0  0  0  0
  -22.3666  -10.9672   19.6158 H   0  0  0  0  0  0
  -21.1992   -7.6159   23.9700 H   0  0  0  0  0  0
  -21.1475   -6.0560   25.9088 H   0  0  0  0  0  0
  -22.0609   -2.7619   23.2845 H   0  0  0  0  0  0
  -22.4163  -11.9855   22.4741 H   0  0  0  0  0  0
  -21.1106  -13.1157   22.2640 H   0  0  0  0  0  0
  -24.6816  -15.8508   20.5127 H   0  0  0  0  0  0
  -26.3066  -15.6122   20.1080 H   0  0  0  0  0  0
  -26.7081  -32.5574   23.1198 H   0  0  0  0  0  0
  -24.9978  -33.9800   25.0451 H   0  0  0  0  0  0
  -22.6828  -31.3029   21.4151 H   0  0  0  0  0  0
  -23.3749  -35.9662   23.3274 H   0  0  0  0  0  0
  -24.3587  -36.8983   22.2059 H   0  0  0  0  0  0
  -23.7228  -37.6529   23.6677 H   0  0  0  0  0  0
  -26.0186  -31.6091   20.5853 H   0  0  0  0  0  0
  -26.8142  -30.9090   21.9698 H   0  0  0  0  0  0
  -28.0880  -29.1275   21.1901 H   0  0  0  0  0  0
  -26.0932  -25.9767   19.0270 H   0  0  0  0  0  0
  -23.9891  -27.2905   19.0298 H   0  0  0  0  0  0
  -23.7007  -30.5922   19.4027 H   0  0  0  0  0  0
  -22.7313  -29.2285   19.8804 H   0  0  0  0  0  0
  -25.1277  -36.1986   25.0825 H   0  0  0  0  0  0
  -20.9922  -28.3205   24.1472 H   0  0  0  0  0  0
  -20.5666  -26.2246   23.3605 H   0  0  0  0  0  0
  -21.6617  -26.7440   22.1222 H   0  0  0  0  0  0
  -19.6886  -25.6297   21.1238 H   0  0  0  0  0  0
  -19.6684  -27.3196   20.6761 H   0  0  0  0  0  0
  -17.4184  -26.6691   21.4012 H   0  0  0  0  0  0
  -18.0284  -26.0071   22.9013 H   0  0  0  0  0  0
  -19.7911  -30.7260   24.2272 H   0  0  0  0  0  0
  -17.4998  -31.6270   24.5168 H   0  0  0  0  0  0
  -15.5332  -30.2990   23.7663 H   0  0  0  0  0  0
  -15.8654  -28.0836   22.7055 H   0  0  0  0  0  0
  -24.5853  -30.7089   25.7796 H   0  0  0  0  0  0
  -24.8925  -32.2859   26.4967 H   0  0  0  0  0  0
  -25.8053  -30.8823   27.0209 H   0  0  0  0  0  0
  -26.2824  -29.6836   24.1122 H   0  0  0  0  0  0
  -27.4076  -29.7296   25.4511 H   0  0  0  0  0  0
  -27.8636  -30.4427   23.9196 H   0  0  0  0  0  0
  -27.2626  -33.3609   26.2111 H   0  0  0  0  0  0
  -28.3793  -32.6932   25.0293 H   0  0  0  0  0  0
  -28.0720  -31.8428   26.5363 H   0  0  0  0  0  0
  -28.2563  -38.0152   24.7582 H   0  0  0  0  0  0
  -28.1139  -36.2689   24.6168 H   0  0  0  0  0  0
  -27.2324  -37.1326   25.8848 H   0  0  0  0  0  0
  -20.9288  -29.8731   21.6971 H   0  0  0  0  0  0
  -26.0183  -38.2874   24.1460 H   0  0  0  0  0  0
  -30.5427  -22.6124   23.4899 H   0  0  0  0  0  0
  -30.3849  -22.2870   15.7530 H   0  0  0  0  0  0
  -32.0201  -22.0775   16.3784 H   0  0  0  0  0  0
  -31.3787  -23.6971   16.1050 H   0  0  0  0  0  0
  -29.5188  -20.6615   22.2499 H   0  0  0  0  0  0
  -30.8145  -19.9180   23.2128 H   0  0  0  0  0  0
  -29.3691  -19.0292   22.8012 H   0  0  0  0  0  0
  -32.3660  -21.3540   22.5213 H   0  0  0  0  0  0
  -33.0824  -21.9642   21.1006 H   0  0  0  0  0  0
  -32.4110  -22.5634   18.9926 H   0  0  0  0  0  0
  -31.9999  -24.1901   18.5569 H   0  0  0  0  0  0
  -28.9631  -26.8275   22.1016 H   0  0  0  0  0  0
  -27.5956  -25.7650   21.8372 H   0  0  0  0  0  0
  -29.5092  -15.0890   22.3562 H   0  0  0  0  0  0
  -31.1477  -15.5384   22.4375 H   0  0  0  0  0  0
  -30.2254  -21.7285   18.1677 H   0  0  0  0  0  0
  -29.6780  -23.3554   17.8725 H   0  0  0  0  0  0
  -29.1305  -17.2151   21.8090 H   0  0  0  0  0  0
  -29.4999  -16.7566   20.1925 H   0  0  0  0  0  0
  -32.8022  -19.6381   20.8459 H   0  0  0  0  0  0
  -31.8040  -20.3672   19.6436 H   0  0  0  0  0  0
  -31.6941  -17.6621   20.2430 H   0  0  0  0  0  0
  -31.7984  -17.6978   21.9768 H   0  0  0  0  0  0
  -30.0330  -19.4392   20.4409 H   0  0  0  0  0  0
  1 25  1  0  0  0
  1 30  2  0  0  0
  1 80  1  0  0  0
  2  3  1  0  0  0
  2 25  1  0  0  0
  2 88  1  0  0  0
  2 89  1  0  0  0
  3  4  1  0  0  0
  3 90  1  0  0  0
  3 91  1  0  0  0
  4  5  1  0  0  0
  4 92  1  0  0  0
  4 93  1  0  0  0
  5  6  1  0  0  0
  5 26  1  0  0  0
  5 94  1  0  0  0
  6 25  1  0  0  0
  6 95  1  0  0  0
  6 96  1  0  0  0
  7  8  2  0  0  0
  7 26  1  0  0  0
  7 29  1  0  0  0
  8  9  1  0  0  0
  8 22  1  0  0  0
  9 10  1  0  0  0
  9 27  2  0  0  0
 10 11  2  0  0  0
 10 15  1  0  0  0
 11 12  1  0  0  0
 11 97  1  0  0  0
 12 13  2  0  0  0
 12 98  1  0  0  0
 13 14  1  0  0  0
 13 31  1  0  0  0
 14 15  2  0  0  0
 14 99  1  0  0  0
 15100  1  0  0  0
 16 17  2  0  0  0
 16 21  1  0  0  0
 16 31  1  0  0  0
 17 18  1  0  0  0
 17101  1  0  0  0
 18 19  2  0  0  0
 18102  1  0  0  0
 19 20  1  0  0  0
 19 24  1  0  0  0
 20 21  2  0  0  0
 20103  1  0  0  0
 21 23  1  0  0  0
 22 28  1  0  0  0
 22 32  2  0  0  0
 26 27  1  0  0  0
 28104  1  0  0  0
 28105  1  0  0  0
 29106  1  0  0  0
 29107  1  0  0  0
 33 34  1  0  0  0
 33 66  1  0  0  0
 33 70  2  0  0  0
 34 36  1  0  0  0
 34 59  1  0  0  0
 34108  1  0  0  0
 35 44  2  0  0  0
 35 45  1  0  0  0
 35 68  1  0  0  0
 36 56  1  0  0  0
 36109  1  0  0  0
 37 39  1  0  0  0
 37 47  1  0  0  0
 37 66  1  0  0  0
 37110  1  0  0  0
 38 43  2  0  0  0
 38 46  1  0  0  0
 38 47  1  0  0  0
 39 64  1  0  0  0
 39 67  2  0  0  0
 40 52  1  0  0  0
 40 53  2  0  0  0
 40 58  1  0  0  0
 41111  1  0  0  0
 41112  1  0  0  0
 41113  1  0  0  0
 41 48  1  0  0  0
 42 43  1  0  0  0
 42 66  1  0  0  0
 42114  1  0  0  0
 42115  1  0  0  0
 43 44  1  0  0  0
 44116  1  0  0  0
 45 46  2  0  0  0
 45117  1  0  0  0
 46118  1  0  0  0
 47119  1  0  0  0
 47120  1  0  0  0
 48 56  1  0  0  0
 48 65  1  0  0  0
 48121  1  0  0  0
 49 50  1  0  0  0
 49 53  1  0  0  0
 49 64  1  0  0  0
 49122  1  0  0  0
 50 51  1  0  0  0
 50123  1  0  0  0
 50124  1  0  0  0
 51 52  1  0  0  0
 51125  1  0  0  0
 51126  1  0  0  0
 52127  1  0  0  0
 52128  1  0  0  0
 53 54  1  0  0  0
 54 55  2  0  0  0
 54129  1  0  0  0
 55 57  1  0  0  0
 55130  1  0  0  0
 56 69  2  0  0  0
 57 58  2  0  0  0
 57131  1  0  0  0
 58132  1  0  0  0
 59 60  1  0  0  0
 59 61  1  0  0  0
 59 62  1  0  0  0
 60133  1  0  0  0
 60134  1  0  0  0
 60135  1  0  0  0
 61136  1  0  0  0
 61137  1  0  0  0
 61138  1  0  0  0
 62139  1  0  0  0
 62140  1  0  0  0
 62141  1  0  0  0
 63 65  1  0  0  0
 63142  1  0  0  0
 63143  1  0  0  0
 63144  1  0  0  0
 64145  1  0  0  0
 65146  1  0  0  0
 68 79  1  0  0  0
 71 72  2  0  0  0
 71 85  1  0  0  0
 71147  1  0  0  0
 72 73  1  0  0  0
 72 77  1  0  0  0
 73 78  1  0  0  0
 73 86  2  0  0  0
 74 79  1  0  0  0
 74 85  2  0  0  0
 74 86  1  0  0  0
 75 81  1  0  0  0
 75148  1  0  0  0
 75149  1  0  0  0
 75150  1  0  0  0
 76151  1  0  0  0
 76152  1  0  0  0
 76153  1  0  0  0
 76 87  1  0  0  0
 77 83  1  0  0  0
 77154  1  0  0  0
 77155  1  0  0  0
 78 81  1  0  0  0
 78156  1  0  0  0
 78157  1  0  0  0
 79158  1  0  0  0
 79159  1  0  0  0
 80 82  1  0  0  0
 80160  1  0  0  0
 80161  1  0  0  0
 81162  1  0  0  0
 81163  1  0  0  0
 82 84  1  0  0  0
 82164  1  0  0  0
 82165  1  0  0  0
 83 87  1  0  0  0
 83166  1  0  0  0
 83167  1  0  0  0
 84 87  1  0  0  0
 84168  1  0  0  0
 84169  1  0  0  0
 87170  1  0  0  0
M  CHG  1  87   1
M  ISO  4   1 100  68 101  79 101  80 100
M  END
> <chiral flag>
0

> <version>
0

> <s_m_source_file>
/data/baiqing/PycharmProjects/Reinvent-master-3.2/result/LINK_invent/BTK/process_docking_weight1_custom_sum_contain_oxygen_bond_distance_aromatic_linkinvent_7_9_3/rearranged_h_0045.sdf

> <i_m_source_file_index>
62

> <r_mmod_Potential_Energy-OPLS-2005>
-454.25732421875

> <r_mmod_Stretch_Energy-OPLS-2005>
40.1915855407715

> <r_mmod_Bend_Energy-OPLS-2005>
121.815460205078

> <r_mmod_Torsional_Energy-OPLS-2005>
218.826065063477

> <r_mmod_Improper_Torsional_Energy-OPLS-2005>
2.33263492584229

> <r_mmod_Van_der_Waal_Energy-OPLS-2005>
164.997055053711

> <r_mmod_Electrostatic_Energy-OPLS-2005>
-568.176513671875

> <r_mmod_Solvation_Energy-OPLS-2005>
-443.26123046875

> <b_mmod_Minimization_Converged-OPLS-2005>
0

> <r_mmod_RMS_Derivative-OPLS-2005>
4.10619735717773

$$$$
63
                    3D
 Structure written by MMmdl.
165173  0  0  1  0            999 V2000
  -30.7155  -14.6003   20.5843 C   0  0  0  0  0  0
  -30.4250  -12.3941   19.4538 C   0  0  0  0  0  0
  -29.5012  -12.5282   18.2250 C   0  0  0  0  0  0
  -28.0267  -12.3455   18.6332 C   0  0  0  0  0  0
  -27.6543  -13.2035   19.8687 C   0  0  2  0  0  0
  -28.7056  -13.0284   20.9915 C   0  0  0  0  0  0
  -25.2548  -13.8129   20.5699 C   0  0  0  0  0  0
  -24.1808  -13.0405   20.9207 C   0  0  0  0  0  0
  -24.6371  -11.6877   20.8758 C   0  0  0  0  0  0
  -23.9043  -10.4261   21.0423 C   0  0  0  0  0  0
  -24.3598   -9.4179   21.9197 C   0  0  0  0  0  0
  -23.6270   -8.2217   22.0764 C   0  0  0  0  0  0
  -22.4257   -8.0256   21.3544 C   0  0  0  0  0  0
  -21.9888   -9.0237   20.4653 C   0  0  0  0  0  0
  -22.7225  -10.2112   20.3060 C   0  0  0  0  0  0
  -21.6840   -6.0716   22.5277 C   0  0  0  0  0  0
  -21.4004   -6.5626   23.8208 C   0  0  0  0  0  0
  -21.3664   -5.6790   24.9178 C   0  0  0  0  0  0
  -21.6047   -4.3050   24.7237 C   0  0  0  0  0  0
  -21.8815   -3.8134   23.4357 C   0  0  0  0  0  0
  -21.9188   -4.6945   22.3405 C   0  0  0  0  0  0
  -22.7838  -13.5224   21.1857 C   0  0  0  0  0  0
  -22.1658   -4.2128   21.0983 F   0  0  0  0  0  0
  -21.5635   -3.4536   25.7750 F   0  0  0  0  0  0
  -30.0171  -13.4161   20.4502 N   0  0  0  0  0  0
  -26.2986  -12.9293   20.3357 N   0  0  0  0  0  0
  -25.9297  -11.6461   20.5781 N   0  0  0  0  0  0
  -22.0467  -12.8225   22.0413 N   0  0  0  0  0  0
  -25.4203  -15.1846   20.4095 N   0  0  0  0  0  0
  -31.8278  -14.6746   20.0562 O   0  0  0  0  0  0
  -21.6620   -6.8859   21.4236 O   0  0  0  0  0  0
  -22.3544  -14.5534   20.6696 O   0  0  0  0  0  0
  -24.6252  -31.8648   23.2092 C   0  0  0  0  0  0
  -25.9113  -32.4810   23.8398 C   0  0  1  0  0  0
  -27.2156  -27.3395   20.0950 C   0  0  0  0  0  0
  -25.5940  -33.8600   24.2322 N   0  0  0  0  0  0
  -23.4171  -30.4973   21.5513 C   0  0  2  0  0  0
  -24.8622  -28.9746   20.1078 C   0  0  0  0  0  0
  -22.7484  -29.4661   22.4922 C   0  0  0  0  0  0
  -18.0303  -28.1378   22.8501 C   0  0  0  0  0  0
  -24.1486  -36.7286   23.2639 C   0  0  0  0  0  0
  -25.9626  -30.8000   21.3850 C   0  0  0  0  0  0
  -26.0340  -29.4332   20.7226 C   0  0  0  0  0  0
  -27.2118  -28.6242   20.7205 C   0  0  0  0  0  0
  -26.0187  -26.9672   19.4216 C   0  0  0  0  0  0
  -24.8558  -27.7431   19.4515 C   0  0  0  0  0  0
  -23.6302  -29.8489   20.1622 C   0  0  0  0  0  0
  -25.4110  -36.3098   24.0341 C   0  0  1  0  0  0
  -20.5908  -28.3680   23.1271 C   0  0  2  0  0  0
  -20.6783  -26.9398   22.5397 C   0  0  0  0  0  0
  -19.5747  -26.6379   21.5212 C   0  0  0  0  0  0
  -18.1934  -26.7929   22.1631 C   0  0  0  0  0  0
  -19.1558  -28.8846   23.2889 C   0  0  0  0  0  0
  -18.9481  -30.1454   23.8895 C   0  0  0  0  0  0
  -17.6477  -30.6575   24.0572 C   0  0  0  0  0  0
  -25.9045  -34.9467   23.5126 C   0  0  0  0  0  0
  -16.5366  -29.9074   23.6333 C   0  0  0  0  0  0
  -16.7292  -28.6495   23.0350 C   0  0  0  0  0  0
  -26.4500  -31.6597   25.0747 C   0  0  0  0  0  0
  -25.3742  -31.3713   26.1476 C   0  0  0  0  0  0
  -27.0346  -30.3031   24.6180 C   0  0  0  0  0  0
  -27.6066  -32.4320   25.7509 C   0  0  0  0  0  0
  -27.5579  -37.1804   24.8474 C   0  0  0  0  0  0
  -21.4201  -29.3048   22.3665 N   0  0  0  0  0  0
  -26.4289  -37.3792   23.9419 N   0  0  0  0  0  0
  -24.6871  -31.0692   22.1043 N   0  0  0  0  0  0
  -23.4232  -28.8173   23.2957 O   0  0  0  0  0  0
  -28.3014  -26.4386   20.1709 O   0  0  0  0  0  0
  -26.5597  -34.8931   22.4682 O   0  0  0  0  0  0
  -23.5416  -32.1426   23.7426 O   0  0  0  0  0  0
  -27.8974  -22.5618   20.2239 C   0  0  0  0  0  0
  -30.5972  -22.3800   20.2951 C   0  0  0  0  0  0
  -28.4644  -21.2694   20.2533 C   0  0  0  0  0  0
  -29.8773  -21.1466   20.2737 C   0  0  0  0  0  0
  -28.6881  -23.7332   20.1844 C   0  0  0  0  0  0
  -27.3980  -19.4930   18.7705 C   0  0  0  0  0  0
  -31.0459  -16.0217   22.6384 C   0  0  0  0  0  0
  -28.7520  -16.0875   21.6411 C   0  0  0  0  0  0
  -27.5163  -20.0783   20.1830 C   0  0  0  0  0  0
  -30.6327  -19.7820   20.0846 C   0  0  0  0  0  0
  -27.9258  -25.0505   19.8334 C   0  0  0  0  0  0
  -30.6552  -17.2293   20.4204 C   0  0  0  0  0  0
  -30.2573  -15.9577   21.3096 C   0  0  0  0  0  0
  -30.0398  -23.6322   20.2367 N   0  0  0  0  0  0
  -30.2882  -18.5996   20.9561 N   0  3  0  0  0  0
  -31.4695  -12.4760   19.1505 H   0  0  0  0  0  0
  -30.3376  -11.3930   19.8791 H   0  0  0  0  0  0
  -29.7736  -11.7932   17.4668 H   0  0  0  0  0  0
  -29.6366  -13.5099   17.7686 H   0  0  0  0  0  0
  -27.8726  -11.2897   18.8604 H   0  0  0  0  0  0
  -27.3675  -12.5760   17.7951 H   0  0  0  0  0  0
  -27.6752  -14.2307   19.5163 H   0  0  0  0  0  0
  -28.7309  -11.9823   21.3009 H   0  0  0  0  0  0
  -28.4404  -13.5457   21.9026 H   0  0  0  0  0  0
  -25.2740   -9.5655   22.4778 H   0  0  0  0  0  0
  -23.9973   -7.4607   22.7484 H   0  0  0  0  0  0
  -21.0822   -8.8764   19.8958 H   0  0  0  0  0  0
  -22.3695  -10.9653   19.6166 H   0  0  0  0  0  0
  -21.1977   -7.6135   23.9706 H   0  0  0  0  0  0
  -21.1504   -6.0522   25.9084 H   0  0  0  0  0  0
  -22.0589   -2.7591   23.2870 H   0  0  0  0  0  0
  -22.4076  -11.9882   22.4796 H   0  0  0  0  0  0
  -21.1087  -13.1256   22.2614 H   0  0  0  0  0  0
  -24.6450  -15.8298   20.5177 H   0  0  0  0  0  0
  -26.2626  -15.6288   20.0702 H   0  0  0  0  0  0
  -26.7184  -32.5496   23.1151 H   0  0  0  0  0  0
  -25.0140  -33.9749   25.0505 H   0  0  0  0  0  0
  -22.7105  -31.3192   21.4176 H   0  0  0  0  0  0
  -23.3759  -35.9609   23.3307 H   0  0  0  0  0  0
  -24.3585  -36.8881   22.2053 H   0  0  0  0  0  0
  -23.7223  -37.6487   23.6642 H   0  0  0  0  0  0
  -26.1011  -31.5673   20.6216 H   0  0  0  0  0  0
  -26.8413  -30.8398   22.0166 H   0  0  0  0  0  0
  -28.1008  -28.9678   21.2307 H   0  0  0  0  0  0
  -25.9134  -26.0517   18.8600 H   0  0  0  0  0  0
  -23.9652  -27.3948   18.9470 H   0  0  0  0  0  0
  -23.7466  -30.6326   19.4128 H   0  0  0  0  0  0
  -22.7519  -29.2782   19.8537 H   0  0  0  0  0  0
  -25.1284  -36.1960   25.0832 H   0  0  0  0  0  0
  -21.0027  -28.3251   24.1382 H   0  0  0  0  0  0
  -20.5684  -26.2287   23.3600 H   0  0  0  0  0  0
  -21.6646  -26.7410   22.1182 H   0  0  0  0  0  0
  -19.6889  -25.6296   21.1220 H   0  0  0  0  0  0
  -19.6672  -27.3209   20.6760 H   0  0  0  0  0  0
  -17.4199  -26.6701   21.4033 H   0  0  0  0  0  0
  -18.0321  -26.0062   22.9017 H   0  0  0  0  0  0
  -19.7958  -30.7282   24.2235 H   0  0  0  0  0  0
  -17.5030  -31.6256   24.5173 H   0  0  0  0  0  0
  -15.5363  -30.2972   23.7650 H   0  0  0  0  0  0
  -15.8705  -28.0816   22.7039 H   0  0  0  0  0  0
  -24.5951  -30.7019   25.7814 H   0  0  0  0  0  0
  -24.8896  -32.2862   26.4890 H   0  0  0  0  0  0
  -25.8082  -30.8921   27.0261 H   0  0  0  0  0  0
  -26.2915  -29.6787   24.1207 H   0  0  0  0  0  0
  -27.4068  -29.7275   25.4662 H   0  0  0  0  0  0
  -27.8781  -30.4330   23.9397 H   0  0  0  0  0  0
  -27.2694  -33.3635   26.2066 H   0  0  0  0  0  0
  -28.3887  -32.6841   25.0336 H   0  0  0  0  0  0
  -28.0726  -31.8455   26.5437 H   0  0  0  0  0  0
  -28.2598  -38.0102   24.7528 H   0  0  0  0  0  0
  -28.1065  -36.2630   24.6285 H   0  0  0  0  0  0
  -27.2296  -37.1436   25.8877 H   0  0  0  0  0  0
  -20.9353  -29.8814   21.6934 H   0  0  0  0  0  0
  -26.0171  -38.2863   24.1434 H   0  0  0  0  0  0
  -26.8225  -22.6544   20.1439 H   0  0  0  0  0  0
  -31.6781  -22.3673   20.2872 H   0  0  0  0  0  0
  -26.6813  -18.6724   18.7556 H   0  0  0  0  0  0
  -28.3471  -19.1091   18.4014 H   0  0  0  0  0  0
  -27.0519  -20.2477   18.0640 H   0  0  0  0  0  0
  -30.8285  -16.9263   23.2062 H   0  0  0  0  0  0
  -32.1243  -15.9963   22.4690 H   0  0  0  0  0  0
  -30.8024  -15.1764   23.2845 H   0  0  0  0  0  0
  -28.4847  -17.0937   21.9559 H   0  0  0  0  0  0
  -28.4546  -15.4800   22.4930 H   0  0  0  0  0  0
  -28.1235  -15.8701   20.7848 H   0  0  0  0  0  0
  -26.5242  -20.3979   20.5058 H   0  0  0  0  0  0
  -27.7986  -19.3122   20.9006 H   0  0  0  0  0  0
  -31.7045  -19.9605   20.1883 H   0  0  0  0  0  0
  -30.5001  -19.5000   19.0395 H   0  0  0  0  0  0
  -26.9667  -24.8644   20.3203 H   0  0  0  0  0  0
  -27.7768  -24.9983   18.7535 H   0  0  0  0  0  0
  -30.1888  -17.1216   19.4387 H   0  0  0  0  0  0
  -31.7305  -17.2291   20.2314 H   0  0  0  0  0  0
  -29.2961  -18.6010   21.1169 H   0  0  0  0  0  0
  -30.7399  -18.7314   21.8472 H   0  0  0  0  0  0
  1 25  1  0  0  0
  1 30  2  0  0  0
  1 83  1  0  0  0
  2  3  1  0  0  0
  2 25  1  0  0  0
  2 86  1  0  0  0
  2 87  1  0  0  0
  3  4  1  0  0  0
  3 88  1  0  0  0
  3 89  1  0  0  0
  4  5  1  0  0  0
  4 90  1  0  0  0
  4 91  1  0  0  0
  5  6  1  0  0  0
  5 26  1  0  0  0
  5 92  1  0  0  0
  6 25  1  0  0  0
  6 93  1  0  0  0
  6 94  1  0  0  0
  7  8  2  0  0  0
  7 26  1  0  0  0
  7 29  1  0  0  0
  8  9  1  0  0  0
  8 22  1  0  0  0
  9 10  1  0  0  0
  9 27  2  0  0  0
 10 11  2  0  0  0
 10 15  1  0  0  0
 11 12  1  0  0  0
 11 95  1  0  0  0
 12 13  2  0  0  0
 12 96  1  0  0  0
 13 14  1  0  0  0
 13 31  1  0  0  0
 14 15  2  0  0  0
 14 97  1  0  0  0
 15 98  1  0  0  0
 16 17  2  0  0  0
 16 21  1  0  0  0
 16 31  1  0  0  0
 17 18  1  0  0  0
 17 99  1  0  0  0
 18 19  2  0  0  0
 18100  1  0  0  0
 19 20  1  0  0  0
 19 24  1  0  0  0
 20 21  2  0  0  0
 20101  1  0  0  0
 21 23  1  0  0  0
 22 28  1  0  0  0
 22 32  2  0  0  0
 26 27  1  0  0  0
 28102  1  0  0  0
 28103  1  0  0  0
 29104  1  0  0  0
 29105  1  0  0  0
 33 34  1  0  0  0
 33 66  1  0  0  0
 33 70  2  0  0  0
 34 36  1  0  0  0
 34 59  1  0  0  0
 34106  1  0  0  0
 35 44  2  0  0  0
 35 45  1  0  0  0
 35 68  1  0  0  0
 36 56  1  0  0  0
 36107  1  0  0  0
 37 39  1  0  0  0
 37 47  1  0  0  0
 37 66  1  0  0  0
 37108  1  0  0  0
 38 43  2  0  0  0
 38 46  1  0  0  0
 38 47  1  0  0  0
 39 64  1  0  0  0
 39 67  2  0  0  0
 40 52  1  0  0  0
 40 53  2  0  0  0
 40 58  1  0  0  0
 41109  1  0  0  0
 41110  1  0  0  0
 41111  1  0  0  0
 41 48  1  0  0  0
 42 43  1  0  0  0
 42 66  1  0  0  0
 42112  1  0  0  0
 42113  1  0  0  0
 43 44  1  0  0  0
 44114  1  0  0  0
 45 46  2  0  0  0
 45115  1  0  0  0
 46116  1  0  0  0
 47117  1  0  0  0
 47118  1  0  0  0
 48 56  1  0  0  0
 48 65  1  0  0  0
 48119  1  0  0  0
 49 50  1  0  0  0
 49 53  1  0  0  0
 49 64  1  0  0  0
 49120  1  0  0  0
 50 51  1  0  0  0
 50121  1  0  0  0
 50122  1  0  0  0
 51 52  1  0  0  0
 51123  1  0  0  0
 51124  1  0  0  0
 52125  1  0  0  0
 52126  1  0  0  0
 53 54  1  0  0  0
 54 55  2  0  0  0
 54127  1  0  0  0
 55 57  1  0  0  0
 55128  1  0  0  0
 56 69  2  0  0  0
 57 58  2  0  0  0
 57129  1  0  0  0
 58130  1  0  0  0
 59 60  1  0  0  0
 59 61  1  0  0  0
 59 62  1  0  0  0
 60131  1  0  0  0
 60132  1  0  0  0
 60133  1  0  0  0
 61134  1  0  0  0
 61135  1  0  0  0
 61136  1  0  0  0
 62137  1  0  0  0
 62138  1  0  0  0
 62139  1  0  0  0
 63 65  1  0  0  0
 63140  1  0  0  0
 63141  1  0  0  0
 63142  1  0  0  0
 64143  1  0  0  0
 65144  1  0  0  0
 68 81  1  0  0  0
 71 73  2  0  0  0
 71 75  1  0  0  0
 71145  1  0  0  0
 72 74  2  0  0  0
 72 84  1  0  0  0
 72146  1  0  0  0
 73 74  1  0  0  0
 73 79  1  0  0  0
 74 80  1  0  0  0
 75 81  1  0  0  0
 75 84  2  0  0  0
 76 79  1  0  0  0
 76147  1  0  0  0
 76148  1  0  0  0
 76149  1  0  0  0
 77150  1  0  0  0
 77151  1  0  0  0
 77152  1  0  0  0
 77 83  1  0  0  0
 78 83  1  0  0  0
 78153  1  0  0  0
 78154  1  0  0  0
 78155  1  0  0  0
 79156  1  0  0  0
 79157  1  0  0  0
 80 85  1  0  0  0
 80158  1  0  0  0
 80159  1  0  0  0
 81160  1  0  0  0
 81161  1  0  0  0
 82 83  1  0  0  0
 82 85  1  0  0  0
 82162  1  0  0  0
 82163  1  0  0  0
 85164  1  0  0  0
 85165  1  0  0  0
M  CHG  1  85   1
M  ISO  4   1 100  68 101  81 101  83 100
M  END
> <chiral flag>
0

> <version>
0

> <s_m_source_file>
/data/baiqing/PycharmProjects/Reinvent-master-3.2/result/LINK_invent/BTK/process_docking_weight1_custom_sum_contain_oxygen_bond_distance_aromatic_linkinvent_7_9_3/rearranged_h_0045.sdf

> <i_m_source_file_index>
63

> <r_mmod_Potential_Energy-OPLS-2005>
-99.5623397827148

> <r_mmod_Stretch_Energy-OPLS-2005>
83.2410888671875

> <r_mmod_Bend_Energy-OPLS-2005>
187.009658813477

> <r_mmod_Torsional_Energy-OPLS-2005>
203.539413452148

> <r_mmod_Improper_Torsional_Energy-OPLS-2005>
4.10761594772339

> <r_mmod_Van_der_Waal_Energy-OPLS-2005>
174.318801879883

> <r_mmod_Electrostatic_Energy-OPLS-2005>
-333.709014892578

> <r_mmod_Solvation_Energy-OPLS-2005>
-460.644073486328

> <b_mmod_Minimization_Converged-OPLS-2005>
0

> <r_mmod_RMS_Derivative-OPLS-2005>
1.73057186603546

$$$$
64
                    3D
 Structure written by MMmdl.
162171  0  0  1  0            999 V2000
  -30.5703  -14.7888   20.4304 C   0  0  0  0  0  0
  -30.4535  -12.4691   19.4842 C   0  0  0  0  0  0
  -29.5284  -12.5128   18.2453 C   0  0  0  0  0  0
  -28.0512  -12.3255   18.6525 C   0  0  0  0  0  0
  -27.6484  -13.2183   19.8554 C   0  0  2  0  0  0
  -28.6967  -13.1407   20.9879 C   0  0  0  0  0  0
  -25.2563  -13.8099   20.5676 C   0  0  0  0  0  0
  -24.1841  -13.0381   20.9188 C   0  0  0  0  0  0
  -24.6419  -11.6859   20.8758 C   0  0  0  0  0  0
  -23.9090  -10.4247   21.0430 C   0  0  0  0  0  0
  -24.3628   -9.4150   21.9199 C   0  0  0  0  0  0
  -23.6282   -8.2200   22.0748 C   0  0  0  0  0  0
  -22.4257   -8.0265   21.3549 C   0  0  0  0  0  0
  -21.9929   -9.0249   20.4644 C   0  0  0  0  0  0
  -22.7279  -10.2108   20.3066 C   0  0  0  0  0  0
  -21.6850   -6.0725   22.5280 C   0  0  0  0  0  0
  -21.4011   -6.5628   23.8215 C   0  0  0  0  0  0
  -21.3660   -5.6783   24.9182 C   0  0  0  0  0  0
  -21.6048   -4.3047   24.7234 C   0  0  0  0  0  0
  -21.8816   -3.8139   23.4358 C   0  0  0  0  0  0
  -21.9179   -4.6952   22.3411 C   0  0  0  0  0  0
  -22.7860  -13.5183   21.1856 C   0  0  0  0  0  0
  -22.1655   -4.2143   21.0988 F   0  0  0  0  0  0
  -21.5621   -3.4525   25.7747 F   0  0  0  0  0  0
  -29.9983  -13.5252   20.4189 N   0  0  0  0  0  0
  -26.2999  -12.9295   20.3315 N   0  0  0  0  0  0
  -25.9351  -11.6449   20.5775 N   0  0  0  0  0  0
  -22.0510  -12.8201   22.0424 N   0  0  0  0  0  0
  -25.4167  -15.1792   20.4039 N   0  0  0  0  0  0
  -31.7635  -14.9048   20.1317 O   0  0  0  0  0  0
  -21.6618   -6.8868   21.4242 O   0  0  0  0  0  0
  -22.3563  -14.5512   20.6708 O   0  0  0  0  0  0
  -24.6304  -31.8532   23.1968 C   0  0  0  0  0  0
  -25.9123  -32.4757   23.8312 C   0  0  1  0  0  0
  -27.2404  -27.2702   20.1443 C   0  0  0  0  0  0
  -25.5920  -33.8550   24.2246 N   0  0  0  0  0  0
  -23.4290  -30.4732   21.5392 C   0  0  2  0  0  0
  -24.8777  -28.9068   20.1214 C   0  0  0  0  0  0
  -22.7516  -29.4592   22.4910 C   0  0  0  0  0  0
  -18.0314  -28.1387   22.8472 C   0  0  0  0  0  0
  -24.1489  -36.7286   23.2645 C   0  0  0  0  0  0
  -25.9709  -30.7694   21.3724 C   0  0  0  0  0  0
  -26.0459  -29.3880   20.7242 C   0  0  0  0  0  0
  -27.2322  -28.5864   20.7136 C   0  0  0  0  0  0
  -26.0446  -26.8370   19.5356 C   0  0  0  0  0  0
  -24.8813  -27.6371   19.5161 C   0  0  0  0  0  0
  -23.6467  -29.7969   20.1586 C   0  0  0  0  0  0
  -25.4117  -36.3072   24.0339 C   0  0  1  0  0  0
  -20.5882  -28.3766   23.1266 C   0  0  2  0  0  0
  -20.6800  -26.9480   22.5478 C   0  0  0  0  0  0
  -19.5801  -26.6346   21.5280 C   0  0  0  0  0  0
  -18.1999  -26.7918   22.1643 C   0  0  0  0  0  0
  -19.1525  -28.8929   23.2816 C   0  0  0  0  0  0
  -18.9386  -30.1544   23.8801 C   0  0  0  0  0  0
  -17.6326  -30.6559   24.0502 C   0  0  0  0  0  0
  -25.9058  -34.9448   23.5106 C   0  0  0  0  0  0
  -16.5279  -29.8941   23.6385 C   0  0  0  0  0  0
  -16.7262  -28.6377   23.0380 C   0  0  0  0  0  0
  -26.4503  -31.6600   25.0701 C   0  0  0  0  0  0
  -25.3749  -31.3713   26.1430 C   0  0  0  0  0  0
  -27.0343  -30.3023   24.6191 C   0  0  0  0  0  0
  -27.6069  -32.4353   25.7461 C   0  0  0  0  0  0
  -27.5580  -37.1797   24.8465 C   0  0  0  0  0  0
  -21.4194  -29.3137   22.3687 N   0  0  0  0  0  0
  -26.4282  -37.3778   23.9433 N   0  0  0  0  0  0
  -24.6957  -31.0503   22.0934 N   0  0  0  0  0  0
  -23.4202  -28.8079   23.2955 O   0  0  0  0  0  0
  -28.3803  -26.4421   20.0737 O   0  0  0  0  0  0
  -26.5624  -34.8910   22.4668 O   0  0  0  0  0  0
  -23.5471  -32.1374   23.7269 O   0  0  0  0  0  0
  -26.5333  -18.7219   20.5415 C   0  0  0  0  0  0
  -27.1347  -19.9013   20.8382 C   0  0  0  0  0  0
  -28.6841  -18.3712   20.4384 C   0  0  0  0  0  0
  -29.8391  -17.3530   20.4250 C   0  0  0  0  0  0
  -29.6365  -15.9732   20.5739 C   0  0  0  0  0  0
  -25.0704  -18.4237   20.6684 C   0  0  0  0  0  0
  -26.3727  -21.0722   21.3603 C   0  0  0  0  0  0
  -24.2570  -19.6756   21.0701 C   0  0  0  0  0  0
  -25.0354  -20.6408   21.9921 C   0  0  0  0  0  0
  -29.3072  -22.4508   20.1317 C   0  0  0  0  0  0
  -28.2055  -23.6600   20.2776 C   0  0  0  0  0  0
  -29.4301  -20.9794   20.8829 C   0  0  0  0  0  0
  -28.4955  -25.1584   20.8376 C   0  0  0  0  0  0
  -27.4963  -17.7817   20.2741 N   0  0  0  0  0  0
  -28.5216  -19.7755   20.6436 N   0  0  0  0  0  0
  -31.4949  -12.6040   19.1861 H   0  0  0  0  0  0
  -30.4069  -11.4915   19.9676 H   0  0  0  0  0  0
  -29.8235  -11.7419   17.5327 H   0  0  0  0  0  0
  -29.6487  -13.4686   17.7323 H   0  0  0  0  0  0
  -27.9128  -11.2746   18.9125 H   0  0  0  0  0  0
  -27.3989  -12.5209   17.8003 H   0  0  0  0  0  0
  -27.6371  -14.2377   19.4721 H   0  0  0  0  0  0
  -28.7452  -12.1308   21.3984 H   0  0  0  0  0  0
  -28.4277  -13.7832   21.8275 H   0  0  0  0  0  0
  -25.2775   -9.5595   22.4779 H   0  0  0  0  0  0
  -23.9972   -7.4577   22.7465 H   0  0  0  0  0  0
  -21.0861   -8.8802   19.8948 H   0  0  0  0  0  0
  -22.3774  -10.9656   19.6173 H   0  0  0  0  0  0
  -21.2026   -7.6137   23.9730 H   0  0  0  0  0  0
  -21.1486   -6.0508   25.9089 H   0  0  0  0  0  0
  -22.0601   -2.7599   23.2860 H   0  0  0  0  0  0
  -22.4089  -11.9849   22.4826 H   0  0  0  0  0  0
  -21.1140  -13.1230   22.2651 H   0  0  0  0  0  0
  -24.6255  -15.8030   20.4990 H   0  0  0  0  0  0
  -26.2744  -15.6705   20.1674 H   0  0  0  0  0  0
  -26.7183  -32.5412   23.1053 H   0  0  0  0  0  0
  -25.0075  -33.9702   25.0392 H   0  0  0  0  0  0
  -22.7277  -31.2962   21.3925 H   0  0  0  0  0  0
  -23.3761  -35.9604   23.3290 H   0  0  0  0  0  0
  -24.3590  -36.8926   22.2063 H   0  0  0  0  0  0
  -23.7209  -37.6472   23.6675 H   0  0  0  0  0  0
  -26.1079  -31.5260   20.5993 H   0  0  0  0  0  0
  -26.8518  -30.8241   21.9998 H   0  0  0  0  0  0
  -28.1412  -28.9661   21.1598 H   0  0  0  0  0  0
  -26.0158  -25.8643   19.0657 H   0  0  0  0  0  0
  -23.9884  -27.2604   19.0350 H   0  0  0  0  0  0
  -23.7720  -30.5691   19.3982 H   0  0  0  0  0  0
  -22.7640  -29.2284   19.8616 H   0  0  0  0  0  0
  -25.1293  -36.1939   25.0831 H   0  0  0  0  0  0
  -20.9993  -28.3382   24.1389 H   0  0  0  0  0  0
  -20.5723  -26.2389   23.3708 H   0  0  0  0  0  0
  -21.6679  -26.7513   22.1363 H   0  0  0  0  0  0
  -19.6955  -25.6165   21.1528 H   0  0  0  0  0  0
  -19.6733  -27.3003   20.6689 H   0  0  0  0  0  0
  -17.4322  -26.6631   21.4023 H   0  0  0  0  0  0
  -18.0346  -26.0084   22.9044 H   0  0  0  0  0  0
  -19.7797  -30.7461   24.2164 H   0  0  0  0  0  0
  -17.4738  -31.6224   24.5118 H   0  0  0  0  0  0
  -15.5225  -30.2641   23.7863 H   0  0  0  0  0  0
  -15.8690  -28.0573   22.7265 H   0  0  0  0  0  0
  -24.5958  -30.7021   25.7759 H   0  0  0  0  0  0
  -24.8891  -32.2856   26.4859 H   0  0  0  0  0  0
  -25.8092  -30.8901   27.0206 H   0  0  0  0  0  0
  -26.2893  -29.6779   24.1241 H   0  0  0  0  0  0
  -27.4052  -29.7306   25.4714 H   0  0  0  0  0  0
  -27.8772  -30.4294   23.9395 H   0  0  0  0  0  0
  -27.2694  -33.3672   26.2010 H   0  0  0  0  0  0
  -28.3859  -32.6905   25.0259 H   0  0  0  0  0  0
  -28.0762  -31.8495   26.5384 H   0  0  0  0  0  0
  -28.2586  -38.0101   24.7527 H   0  0  0  0  0  0
  -28.1082  -36.2642   24.6274 H   0  0  0  0  0  0
  -27.2307  -37.1417   25.8862 H   0  0  0  0  0  0
  -20.9366  -29.9010   21.7053 H   0  0  0  0  0  0
  -26.0172  -38.2855   24.1435 H   0  0  0  0  0  0
  -30.8300  -17.7390   20.2315 H   0  0  0  0  0  0
  -28.6183  -15.7067   20.7931 H   0  0  0  0  0  0
  -24.9358  -17.6672   21.4429 H   0  0  0  0  0  0
  -24.6768  -18.0068   19.7401 H   0  0  0  0  0  0
  -26.1385  -21.7277   20.5248 H   0  0  0  0  0  0
  -26.9578  -21.6191   22.0993 H   0  0  0  0  0  0
  -23.3148  -19.3750   21.5295 H   0  0  0  0  0  0
  -23.9879  -20.2221   20.1643 H   0  0  0  0  0  0
  -24.4340  -21.5170   22.2434 H   0  0  0  0  0  0
  -25.2380  -20.1371   22.9387 H   0  0  0  0  0  0
  -30.2621  -22.9356   20.3445 H   0  0  0  0  0  0
  -29.3876  -22.2381   19.0648 H   0  0  0  0  0  0
  -27.4166  -23.3291   20.9330 H   0  0  0  0  0  0
  -27.7182  -23.7739   19.3103 H   0  0  0  0  0  0
  -29.4281  -21.1597   21.9588 H   0  0  0  0  0  0
  -30.4389  -20.6161   20.6804 H   0  0  0  0  0  0
  -29.4991  -25.1620   21.2599 H   0  0  0  0  0  0
  -27.8577  -25.2940   21.7144 H   0  0  0  0  0  0
  1 25  1  0  0  0
  1 30  2  0  0  0
  1 75  1  0  0  0
  2  3  1  0  0  0
  2 25  1  0  0  0
  2 86  1  0  0  0
  2 87  1  0  0  0
  3  4  1  0  0  0
  3 88  1  0  0  0
  3 89  1  0  0  0
  4  5  1  0  0  0
  4 90  1  0  0  0
  4 91  1  0  0  0
  5  6  1  0  0  0
  5 26  1  0  0  0
  5 92  1  0  0  0
  6 25  1  0  0  0
  6 93  1  0  0  0
  6 94  1  0  0  0
  7  8  2  0  0  0
  7 26  1  0  0  0
  7 29  1  0  0  0
  8  9  1  0  0  0
  8 22  1  0  0  0
  9 10  1  0  0  0
  9 27  2  0  0  0
 10 11  2  0  0  0
 10 15  1  0  0  0
 11 12  1  0  0  0
 11 95  1  0  0  0
 12 13  2  0  0  0
 12 96  1  0  0  0
 13 14  1  0  0  0
 13 31  1  0  0  0
 14 15  2  0  0  0
 14 97  1  0  0  0
 15 98  1  0  0  0
 16 17  2  0  0  0
 16 21  1  0  0  0
 16 31  1  0  0  0
 17 18  1  0  0  0
 17 99  1  0  0  0
 18 19  2  0  0  0
 18100  1  0  0  0
 19 20  1  0  0  0
 19 24  1  0  0  0
 20 21  2  0  0  0
 20101  1  0  0  0
 21 23  1  0  0  0
 22 28  1  0  0  0
 22 32  2  0  0  0
 26 27  1  0  0  0
 28102  1  0  0  0
 28103  1  0  0  0
 29104  1  0  0  0
 29105  1  0  0  0
 33 34  1  0  0  0
 33 66  1  0  0  0
 33 70  2  0  0  0
 34 36  1  0  0  0
 34 59  1  0  0  0
 34106  1  0  0  0
 35 44  2  0  0  0
 35 45  1  0  0  0
 35 68  1  0  0  0
 36 56  1  0  0  0
 36107  1  0  0  0
 37 39  1  0  0  0
 37 47  1  0  0  0
 37 66  1  0  0  0
 37108  1  0  0  0
 38 43  2  0  0  0
 38 46  1  0  0  0
 38 47  1  0  0  0
 39 64  1  0  0  0
 39 67  2  0  0  0
 40 52  1  0  0  0
 40 53  2  0  0  0
 40 58  1  0  0  0
 41109  1  0  0  0
 41110  1  0  0  0
 41111  1  0  0  0
 41 48  1  0  0  0
 42 43  1  0  0  0
 42 66  1  0  0  0
 42112  1  0  0  0
 42113  1  0  0  0
 43 44  1  0  0  0
 44114  1  0  0  0
 45 46  2  0  0  0
 45115  1  0  0  0
 46116  1  0  0  0
 47117  1  0  0  0
 47118  1  0  0  0
 48 56  1  0  0  0
 48 65  1  0  0  0
 48119  1  0  0  0
 49 50  1  0  0  0
 49 53  1  0  0  0
 49 64  1  0  0  0
 49120  1  0  0  0
 50 51  1  0  0  0
 50121  1  0  0  0
 50122  1  0  0  0
 51 52  1  0  0  0
 51123  1  0  0  0
 51124  1  0  0  0
 52125  1  0  0  0
 52126  1  0  0  0
 53 54  1  0  0  0
 54 55  2  0  0  0
 54127  1  0  0  0
 55 57  1  0  0  0
 55128  1  0  0  0
 56 69  2  0  0  0
 57 58  2  0  0  0
 57129  1  0  0  0
 58130  1  0  0  0
 59 60  1  0  0  0
 59 61  1  0  0  0
 59 62  1  0  0  0
 60131  1  0  0  0
 60132  1  0  0  0
 60133  1  0  0  0
 61134  1  0  0  0
 61135  1  0  0  0
 61136  1  0  0  0
 62137  1  0  0  0
 62138  1  0  0  0
 62139  1  0  0  0
 63 65  1  0  0  0
 63140  1  0  0  0
 63141  1  0  0  0
 63142  1  0  0  0
 64143  1  0  0  0
 65144  1  0  0  0
 68 83  1  0  0  0
 71 72  2  0  0  0
 71 76  1  0  0  0
 71 84  1  0  0  0
 72 77  1  0  0  0
 72 85  1  0  0  0
 73 74  1  0  0  0
 73 84  2  0  0  0
 73 85  1  0  0  0
 74 75  2  0  0  0
 74145  1  0  0  0
 75146  1  0  0  0
 76 78  1  0  0  0
 76147  1  0  0  0
 76148  1  0  0  0
 77 79  1  0  0  0
 77149  1  0  0  0
 77150  1  0  0  0
 78 79  1  0  0  0
 78151  1  0  0  0
 78152  1  0  0  0
 79153  1  0  0  0
 79154  1  0  0  0
 80 81  1  0  0  0
 80 82  1  0  0  0
 80155  1  0  0  0
 80156  1  0  0  0
 81 83  1  0  0  0
 81157  1  0  0  0
 81158  1  0  0  0
 82 85  1  0  0  0
 82159  1  0  0  0
 82160  1  0  0  0
 83161  1  0  0  0
 83162  1  0  0  0
M  ISO  4   1 100  68 101  75 100  83 101
M  END
> <chiral flag>
0

> <version>
0

> <s_m_source_file>
/data/baiqing/PycharmProjects/Reinvent-master-3.2/result/LINK_invent/BTK/process_docking_weight1_custom_sum_contain_oxygen_bond_distance_aromatic_linkinvent_7_9_3/rearranged_h_0045.sdf

> <i_m_source_file_index>
64

> <r_mmod_Potential_Energy-OPLS-2005>
341.454376220703

> <r_mmod_Stretch_Energy-OPLS-2005>
153.617614746094

> <r_mmod_Bend_Energy-OPLS-2005>
290.059722900391

> <r_mmod_Torsional_Energy-OPLS-2005>
261.640594482422

> <r_mmod_Improper_Torsional_Energy-OPLS-2005>
8.39323043823242

> <r_mmod_Van_der_Waal_Energy-OPLS-2005>
128.406784057617

> <r_mmod_Electrostatic_Energy-OPLS-2005>
-397.998809814453

> <r_mmod_Solvation_Energy-OPLS-2005>
-188.708099365234

> <b_mmod_Minimization_Converged-OPLS-2005>
0

> <r_mmod_RMS_Derivative-OPLS-2005>
4.61448574066162

$$$$
65
                    3D
 Structure written by MMmdl.
159167  0  0  1  0            999 V2000
  -30.6696  -14.5548   20.4815 C   0  0  0  0  0  0
  -30.4241  -12.3309   19.4530 C   0  0  0  0  0  0
  -29.5032  -12.4943   18.2241 C   0  0  0  0  0  0
  -28.0236  -12.3527   18.6308 C   0  0  0  0  0  0
  -27.6572  -13.2152   19.8684 C   0  0  2  0  0  0
  -28.7010  -13.0560   21.0002 C   0  0  0  0  0  0
  -25.2564  -13.8175   20.5676 C   0  0  0  0  0  0
  -24.1831  -13.0439   20.9186 C   0  0  0  0  0  0
  -24.6402  -11.6910   20.8746 C   0  0  0  0  0  0
  -23.9074  -10.4290   21.0407 C   0  0  0  0  0  0
  -24.3624   -9.4203   21.9183 C   0  0  0  0  0  0
  -23.6293   -8.2243   22.0758 C   0  0  0  0  0  0
  -22.4277   -8.0285   21.3546 C   0  0  0  0  0  0
  -21.9916   -9.0260   20.4650 C   0  0  0  0  0  0
  -22.7249  -10.2133   20.3056 C   0  0  0  0  0  0
  -21.6854   -6.0737   22.5278 C   0  0  0  0  0  0
  -21.4012   -6.5642   23.8211 C   0  0  0  0  0  0
  -21.3658   -5.6795   24.9175 C   0  0  0  0  0  0
  -21.6048   -4.3056   24.7229 C   0  0  0  0  0  0
  -21.8818   -3.8147   23.4348 C   0  0  0  0  0  0
  -21.9190   -4.6963   22.3401 C   0  0  0  0  0  0
  -22.7850  -13.5226   21.1838 C   0  0  0  0  0  0
  -22.1661   -4.2148   21.0978 F   0  0  0  0  0  0
  -21.5630   -3.4537   25.7744 F   0  0  0  0  0  0
  -30.0286  -13.3512   20.4408 N   0  0  0  0  0  0
  -26.3008  -12.9359   20.3344 N   0  0  0  0  0  0
  -25.9333  -11.6514   20.5780 N   0  0  0  0  0  0
  -22.0499  -12.8224   22.0403 N   0  0  0  0  0  0
  -25.4243  -15.1896   20.4052 N   0  0  0  0  0  0
  -31.8306  -14.6950   20.0893 O   0  0  0  0  0  0
  -21.6640   -6.8882   21.4243 O   0  0  0  0  0  0
  -22.3538  -14.5530   20.6683 O   0  0  0  0  0  0
  -24.6211  -31.8648   23.2070 C   0  0  0  0  0  0
  -25.9087  -32.4802   23.8376 C   0  0  1  0  0  0
  -27.2230  -27.3734   20.1023 C   0  0  0  0  0  0
  -25.5931  -33.8594   24.2311 N   0  0  0  0  0  0
  -23.4115  -30.4897   21.5489 C   0  0  2  0  0  0
  -24.8559  -28.9565   20.1071 C   0  0  0  0  0  0
  -22.7454  -29.4633   22.4957 C   0  0  0  0  0  0
  -18.0287  -28.1373   22.8482 C   0  0  0  0  0  0
  -24.1498  -36.7303   23.2632 C   0  0  0  0  0  0
  -25.9476  -30.8114   21.3717 C   0  0  0  0  0  0
  -26.0220  -29.4441   20.7117 C   0  0  0  0  0  0
  -27.2085  -28.6624   20.7028 C   0  0  0  0  0  0
  -26.0375  -26.9327   19.4659 C   0  0  0  0  0  0
  -24.8625  -27.7036   19.4775 C   0  0  0  0  0  0
  -23.6222  -29.8299   20.1613 C   0  0  0  0  0  0
  -25.4115  -36.3086   24.0327 C   0  0  1  0  0  0
  -20.5877  -28.3665   23.1300 C   0  0  2  0  0  0
  -20.6783  -26.9396   22.5414 C   0  0  0  0  0  0
  -19.5760  -26.6376   21.5209 C   0  0  0  0  0  0
  -18.1931  -26.7921   22.1612 C   0  0  0  0  0  0
  -19.1534  -28.8833   23.2888 C   0  0  0  0  0  0
  -18.9462  -30.1444   23.8896 C   0  0  0  0  0  0
  -17.6460  -30.6582   24.0554 C   0  0  0  0  0  0
  -25.9037  -34.9456   23.5103 C   0  0  0  0  0  0
  -16.5352  -29.9075   23.6329 C   0  0  0  0  0  0
  -16.7272  -28.6494   23.0341 C   0  0  0  0  0  0
  -26.4497  -31.6593   25.0721 C   0  0  0  0  0  0
  -25.3747  -31.3705   26.1459 C   0  0  0  0  0  0
  -27.0343  -30.3027   24.6129 C   0  0  0  0  0  0
  -27.6066  -32.4318   25.7494 C   0  0  0  0  0  0
  -27.5584  -37.1799   24.8456 C   0  0  0  0  0  0
  -21.4169  -29.3026   22.3704 N   0  0  0  0  0  0
  -26.4297  -37.3778   23.9402 N   0  0  0  0  0  0
  -24.6784  -31.0712   22.0998 N   0  0  0  0  0  0
  -23.4209  -28.8174   23.3014 O   0  0  0  0  0  0
  -28.3547  -26.5608   20.1569 O   0  0  0  0  0  0
  -26.5599  -34.8925   22.4668 O   0  0  0  0  0  0
  -23.5393  -32.1427   23.7440 O   0  0  0  0  0  0
  -29.6103  -21.5026   20.6897 C   0  0  0  0  0  0
  -28.8313  -22.7020   20.8773 C   0  0  0  0  0  0
  -28.8244  -20.4475   21.1148 C   0  0  0  0  0  0
  -29.2467  -18.5308   22.7334 C   0  0  0  0  0  0
  -26.4183  -20.4231   22.0146 C   0  0  0  0  0  0
  -29.2057  -24.1938   20.7384 C   0  0  0  0  0  0
  -30.1786  -18.2737   20.4164 C   0  0  0  0  0  0
  -29.9146  -16.8503   19.8044 C   0  0  0  0  0  0
  -28.1409  -25.1156   20.0517 C   0  0  0  0  0  0
  -29.0401  -18.9275   21.2599 C   0  0  2  0  0  0
  -27.6483  -22.3886   21.3835 N   0  0  0  0  0  0
  -27.6287  -21.0414   21.5007 N   0  0  0  0  0  0
  -29.8766  -15.6401   20.6742 N   0  0  0  0  0  0
  -31.4708  -12.4212   19.1563 H   0  0  0  0  0  0
  -30.3224  -11.3331   19.8821 H   0  0  0  0  0  0
  -29.7532  -11.7531   17.4638 H   0  0  0  0  0  0
  -29.6678  -13.4708   17.7655 H   0  0  0  0  0  0
  -27.8404  -11.2995   18.8455 H   0  0  0  0  0  0
  -27.3768  -12.6074   17.7906 H   0  0  0  0  0  0
  -27.6806  -14.2528   19.5352 H   0  0  0  0  0  0
  -28.6850  -12.0404   21.3967 H   0  0  0  0  0  0
  -28.4674  -13.7104   21.8415 H   0  0  0  0  0  0
  -25.2773   -9.5674   22.4761 H   0  0  0  0  0  0
  -23.9999   -7.4636   22.7482 H   0  0  0  0  0  0
  -21.0849   -8.8785   19.8958 H   0  0  0  0  0  0
  -22.3716  -10.9674   19.6168 H   0  0  0  0  0  0
  -21.2004   -7.6152   23.9717 H   0  0  0  0  0  0
  -21.1483   -6.0526   25.9081 H   0  0  0  0  0  0
  -22.0598   -2.7610   23.2851 H   0  0  0  0  0  0
  -22.4118  -11.9888   22.4791 H   0  0  0  0  0  0
  -21.1119  -13.1247   22.2604 H   0  0  0  0  0  0
  -24.6488  -15.8364   20.5011 H   0  0  0  0  0  0
  -26.2647  -15.6303   20.0542 H   0  0  0  0  0  0
  -26.7152  -32.5513   23.1131 H   0  0  0  0  0  0
  -25.0129  -33.9746   25.0487 H   0  0  0  0  0  0
  -22.7016  -31.3078   21.4113 H   0  0  0  0  0  0
  -23.3758  -35.9636   23.3298 H   0  0  0  0  0  0
  -24.3588  -36.8917   22.2042 H   0  0  0  0  0  0
  -23.7263  -37.6505   23.6660 H   0  0  0  0  0  0
  -26.0716  -31.5813   20.6089 H   0  0  0  0  0  0
  -26.8300  -30.8586   21.9979 H   0  0  0  0  0  0
  -28.1036  -29.0289   21.1862 H   0  0  0  0  0  0
  -25.9941  -25.9802   18.9573 H   0  0  0  0  0  0
  -23.9695  -27.3275   18.9956 H   0  0  0  0  0  0
  -23.7364  -30.6095   19.4071 H   0  0  0  0  0  0
  -22.7452  -29.2530   19.8627 H   0  0  0  0  0  0
  -25.1296  -36.1930   25.0817 H   0  0  0  0  0  0
  -20.9961  -28.3247   24.1422 H   0  0  0  0  0  0
  -20.5695  -26.2266   23.3602 H   0  0  0  0  0  0
  -21.6653  -26.7448   22.1190 H   0  0  0  0  0  0
  -19.6923  -25.6287   21.1235 H   0  0  0  0  0  0
  -19.6711  -27.3198   20.6744 H   0  0  0  0  0  0
  -17.4205  -26.6669   21.4009 H   0  0  0  0  0  0
  -18.0322  -26.0066   22.9007 H   0  0  0  0  0  0
  -19.7944  -30.7249   24.2269 H   0  0  0  0  0  0
  -17.5022  -31.6264   24.5157 H   0  0  0  0  0  0
  -15.5351  -30.2967   23.7664 H   0  0  0  0  0  0
  -15.8674  -28.0821   22.7033 H   0  0  0  0  0  0
  -24.5937  -30.7035   25.7789 H   0  0  0  0  0  0
  -24.8927  -32.2862   26.4889 H   0  0  0  0  0  0
  -25.8090  -30.8889   27.0232 H   0  0  0  0  0  0
  -26.2899  -29.6763   24.1196 H   0  0  0  0  0  0
  -27.4114  -29.7279   25.4599 H   0  0  0  0  0  0
  -27.8740  -30.4327   23.9296 H   0  0  0  0  0  0
  -27.2682  -33.3621   26.2075 H   0  0  0  0  0  0
  -28.3882  -32.6867   25.0321 H   0  0  0  0  0  0
  -28.0733  -31.8438   26.5409 H   0  0  0  0  0  0
  -28.2576  -38.0124   24.7525 H   0  0  0  0  0  0
  -28.1111  -36.2648   24.6261 H   0  0  0  0  0  0
  -27.2301  -37.1411   25.8860 H   0  0  0  0  0  0
  -20.9330  -29.8753   21.6930 H   0  0  0  0  0  0
  -26.0182  -38.2845   24.1435 H   0  0  0  0  0  0
  -30.6284  -21.4338   20.3323 H   0  0  0  0  0  0
  -28.4215  -18.8515   23.3660 H   0  0  0  0  0  0
  -30.1577  -18.9771   23.1340 H   0  0  0  0  0  0
  -29.3335  -17.4496   22.8431 H   0  0  0  0  0  0
  -26.1507  -19.5577   21.4086 H   0  0  0  0  0  0
  -25.5861  -21.1264   21.9847 H   0  0  0  0  0  0
  -26.5677  -20.1093   23.0467 H   0  0  0  0  0  0
  -30.1477  -24.2869   20.1971 H   0  0  0  0  0  0
  -29.4050  -24.5913   21.7335 H   0  0  0  0  0  0
  -30.3357  -18.9256   19.5557 H   0  0  0  0  0  0
  -31.1292  -18.2985   20.9513 H   0  0  0  0  0  0
  -30.6516  -16.6960   19.0133 H   0  0  0  0  0  0
  -28.9610  -16.8794   19.2753 H   0  0  0  0  0  0
  -27.1857  -24.8724   20.5194 H   0  0  0  0  0  0
  -28.0531  -24.8416   18.9996 H   0  0  0  0  0  0
  -28.1185  -18.4502   20.9267 H   0  0  0  0  0  0
  -28.9751  -15.4285   21.0749 H   0  0  0  0  0  0
  1 25  1  0  0  0
  1 30  2  0  0  0
  1 83  1  0  0  0
  2  3  1  0  0  0
  2 25  1  0  0  0
  2 84  1  0  0  0
  2 85  1  0  0  0
  3  4  1  0  0  0
  3 86  1  0  0  0
  3 87  1  0  0  0
  4  5  1  0  0  0
  4 88  1  0  0  0
  4 89  1  0  0  0
  5  6  1  0  0  0
  5 26  1  0  0  0
  5 90  1  0  0  0
  6 25  1  0  0  0
  6 91  1  0  0  0
  6 92  1  0  0  0
  7  8  2  0  0  0
  7 26  1  0  0  0
  7 29  1  0  0  0
  8  9  1  0  0  0
  8 22  1  0  0  0
  9 10  1  0  0  0
  9 27  2  0  0  0
 10 11  2  0  0  0
 10 15  1  0  0  0
 11 12  1  0  0  0
 11 93  1  0  0  0
 12 13  2  0  0  0
 12 94  1  0  0  0
 13 14  1  0  0  0
 13 31  1  0  0  0
 14 15  2  0  0  0
 14 95  1  0  0  0
 15 96  1  0  0  0
 16 17  2  0  0  0
 16 21  1  0  0  0
 16 31  1  0  0  0
 17 18  1  0  0  0
 17 97  1  0  0  0
 18 19  2  0  0  0
 18 98  1  0  0  0
 19 20  1  0  0  0
 19 24  1  0  0  0
 20 21  2  0  0  0
 20 99  1  0  0  0
 21 23  1  0  0  0
 22 28  1  0  0  0
 22 32  2  0  0  0
 26 27  1  0  0  0
 28100  1  0  0  0
 28101  1  0  0  0
 29102  1  0  0  0
 29103  1  0  0  0
 33 34  1  0  0  0
 33 66  1  0  0  0
 33 70  2  0  0  0
 34 36  1  0  0  0
 34 59  1  0  0  0
 34104  1  0  0  0
 35 44  2  0  0  0
 35 45  1  0  0  0
 35 68  1  0  0  0
 36 56  1  0  0  0
 36105  1  0  0  0
 37 39  1  0  0  0
 37 47  1  0  0  0
 37 66  1  0  0  0
 37106  1  0  0  0
 38 43  2  0  0  0
 38 46  1  0  0  0
 38 47  1  0  0  0
 39 64  1  0  0  0
 39 67  2  0  0  0
 40 52  1  0  0  0
 40 53  2  0  0  0
 40 58  1  0  0  0
 41107  1  0  0  0
 41108  1  0  0  0
 41109  1  0  0  0
 41 48  1  0  0  0
 42 43  1  0  0  0
 42 66  1  0  0  0
 42110  1  0  0  0
 42111  1  0  0  0
 43 44  1  0  0  0
 44112  1  0  0  0
 45 46  2  0  0  0
 45113  1  0  0  0
 46114  1  0  0  0
 47115  1  0  0  0
 47116  1  0  0  0
 48 56  1  0  0  0
 48 65  1  0  0  0
 48117  1  0  0  0
 49 50  1  0  0  0
 49 53  1  0  0  0
 49 64  1  0  0  0
 49118  1  0  0  0
 50 51  1  0  0  0
 50119  1  0  0  0
 50120  1  0  0  0
 51 52  1  0  0  0
 51121  1  0  0  0
 51122  1  0  0  0
 52123  1  0  0  0
 52124  1  0  0  0
 53 54  1  0  0  0
 54 55  2  0  0  0
 54125  1  0  0  0
 55 57  1  0  0  0
 55126  1  0  0  0
 56 69  2  0  0  0
 57 58  2  0  0  0
 57127  1  0  0  0
 58128  1  0  0  0
 59 60  1  0  0  0
 59 61  1  0  0  0
 59 62  1  0  0  0
 60129  1  0  0  0
 60130  1  0  0  0
 60131  1  0  0  0
 61132  1  0  0  0
 61133  1  0  0  0
 61134  1  0  0  0
 62135  1  0  0  0
 62136  1  0  0  0
 62137  1  0  0  0
 63 65  1  0  0  0
 63138  1  0  0  0
 63139  1  0  0  0
 63140  1  0  0  0
 64141  1  0  0  0
 65142  1  0  0  0
 68 79  1  0  0  0
 71 72  1  0  0  0
 71 73  2  0  0  0
 71143  1  0  0  0
 72 76  1  0  0  0
 72 81  2  0  0  0
 73 80  1  0  0  0
 73 82  1  0  0  0
 74144  1  0  0  0
 74145  1  0  0  0
 74146  1  0  0  0
 74 80  1  0  0  0
 75 82  1  0  0  0
 75147  1  0  0  0
 75148  1  0  0  0
 75149  1  0  0  0
 76 79  1  0  0  0
 76150  1  0  0  0
 76151  1  0  0  0
 77 78  1  0  0  0
 77 80  1  0  0  0
 77152  1  0  0  0
 77153  1  0  0  0
 78 83  1  0  0  0
 78154  1  0  0  0
 78155  1  0  0  0
 79156  1  0  0  0
 79157  1  0  0  0
 80158  1  0  0  0
 81 82  1  0  0  0
 83159  1  0  0  0
M  ISO  4   1 100  68 101  79 101  83 100
M  END
> <chiral flag>
0

> <version>
0

> <s_m_source_file>
/data/baiqing/PycharmProjects/Reinvent-master-3.2/result/LINK_invent/BTK/process_docking_weight1_custom_sum_contain_oxygen_bond_distance_aromatic_linkinvent_7_9_3/rearranged_h_0045.sdf

> <i_m_source_file_index>
65

> <r_mmod_Potential_Energy-OPLS-2005>
-34.6105651855469

> <r_mmod_Stretch_Energy-OPLS-2005>
53.4375343322754

> <r_mmod_Bend_Energy-OPLS-2005>
119.131507873535

> <r_mmod_Torsional_Energy-OPLS-2005>
235.768432617188

> <r_mmod_Improper_Torsional_Energy-OPLS-2005>
10.7061290740967

> <r_mmod_Van_der_Waal_Energy-OPLS-2005>
127.55891418457

> <r_mmod_Electrostatic_Energy-OPLS-2005>
-387.902526855469

> <r_mmod_Solvation_Energy-OPLS-2005>
-222.722549438477

> <b_mmod_Minimization_Converged-OPLS-2005>
0

> <r_mmod_RMS_Derivative-OPLS-2005>
1.5647144317627

$$$$
66
                    3D
 Structure written by MMmdl.
164172  0  0  1  0            999 V2000
  -30.5445  -14.9875   20.4154 C   0  0  0  0  0  0
  -30.4452  -12.6052   19.5279 C   0  0  0  0  0  0
  -29.5368  -12.5424   18.2767 C   0  0  0  0  0  0
  -28.0669  -12.3303   18.6834 C   0  0  0  0  0  0
  -27.6353  -13.2609   19.8473 C   0  0  2  0  0  0
  -28.6748  -13.3034   20.9911 C   0  0  0  0  0  0
  -25.2476  -13.8249   20.5729 C   0  0  0  0  0  0
  -24.1793  -13.0462   20.9214 C   0  0  0  0  0  0
  -24.6424  -11.6950   20.8756 C   0  0  0  0  0  0
  -23.9101  -10.4310   21.0402 C   0  0  0  0  0  0
  -24.3646   -9.4222   21.9180 C   0  0  0  0  0  0
  -23.6306   -8.2263   22.0759 C   0  0  0  0  0  0
  -22.4291   -8.0296   21.3550 C   0  0  0  0  0  0
  -21.9925   -9.0269   20.4657 C   0  0  0  0  0  0
  -22.7267  -10.2139   20.3059 C   0  0  0  0  0  0
  -21.6858   -6.0737   22.5273 C   0  0  0  0  0  0
  -21.4025   -6.5639   23.8202 C   0  0  0  0  0  0
  -21.3663   -5.6790   24.9162 C   0  0  0  0  0  0
  -21.6043   -4.3052   24.7210 C   0  0  0  0  0  0
  -21.8821   -3.8144   23.4329 C   0  0  0  0  0  0
  -21.9198   -4.6967   22.3389 C   0  0  0  0  0  0
  -22.7805  -13.5219   21.1846 C   0  0  0  0  0  0
  -22.1665   -4.2157   21.0965 F   0  0  0  0  0  0
  -21.5622   -3.4530   25.7715 F   0  0  0  0  0  0
  -29.9554  -13.7163   20.4024 N   0  0  0  0  0  0
  -26.2926  -12.9503   20.3277 N   0  0  0  0  0  0
  -25.9363  -11.6617   20.5746 N   0  0  0  0  0  0
  -22.0459  -12.8216   22.0414 N   0  0  0  0  0  0
  -25.4109  -15.1980   20.4169 N   0  0  0  0  0  0
  -31.7242  -15.0415   20.0576 O   0  0  0  0  0  0
  -21.6660   -6.8890   21.4237 O   0  0  0  0  0  0
  -22.3478  -14.5508   20.6665 O   0  0  0  0  0  0
  -24.6438  -31.8411   23.1846 C   0  0  0  0  0  0
  -25.9201  -32.4681   23.8254 C   0  0  1  0  0  0
  -27.2263  -27.1105   20.1645 C   0  0  0  0  0  0
  -25.5934  -33.8492   24.2173 N   0  0  0  0  0  0
  -23.4513  -30.4572   21.5289 C   0  0  2  0  0  0
  -24.9051  -28.8772   20.1101 C   0  0  0  0  0  0
  -22.7584  -29.4521   22.4842 C   0  0  0  0  0  0
  -18.0309  -28.1397   22.8482 C   0  0  0  0  0  0
  -24.1490  -36.7263   23.2642 C   0  0  0  0  0  0
  -26.0084  -30.7090   21.3860 C   0  0  0  0  0  0
  -26.0825  -29.3156   20.7307 C   0  0  0  0  0  0
  -27.2424  -28.4494   20.7382 C   0  0  0  0  0  0
  -26.0248  -26.7809   19.4987 C   0  0  0  0  0  0
  -24.8909  -27.6246   19.4770 C   0  0  0  0  0  0
  -23.6816  -29.7812   20.1502 C   0  0  0  0  0  0
  -25.4121  -36.3036   24.0309 C   0  0  1  0  0  0
  -20.5923  -28.3723   23.1239 C   0  0  2  0  0  0
  -20.6790  -26.9424   22.5409 C   0  0  0  0  0  0
  -19.5763  -26.6379   21.5219 C   0  0  0  0  0  0
  -18.1947  -26.7936   22.1629 C   0  0  0  0  0  0
  -19.1565  -28.8876   23.2855 C   0  0  0  0  0  0
  -18.9478  -30.1475   23.8877 C   0  0  0  0  0  0
  -17.6470  -30.6595   24.0559 C   0  0  0  0  0  0
  -25.9073  -34.9406   23.5058 C   0  0  0  0  0  0
  -16.5364  -29.9085   23.6330 C   0  0  0  0  0  0
  -16.7291  -28.6502   23.0355 C   0  0  0  0  0  0
  -26.4513  -31.6543   25.0703 C   0  0  0  0  0  0
  -25.3692  -31.3743   26.1396 C   0  0  0  0  0  0
  -27.0359  -30.2931   24.6294 C   0  0  0  0  0  0
  -27.6039  -32.4307   25.7500 C   0  0  0  0  0  0
  -27.5575  -37.1786   24.8459 C   0  0  0  0  0  0
  -21.4271  -29.3043   22.3605 N   0  0  0  0  0  0
  -26.4289  -37.3748   23.9402 N   0  0  0  0  0  0
  -24.7213  -31.0240   22.0892 N   0  0  0  0  0  0
  -23.4225  -28.8089   23.3014 O   0  0  0  0  0  0
  -28.2764  -26.1146   20.2563 O   0  0  0  0  0  0
  -26.5678  -34.8905   22.4652 O   0  0  0  0  0  0
  -23.5548  -32.1293   23.7040 O   0  0  0  0  0  0
  -30.0414  -20.3078   23.7196 C   0  0  0  0  0  0
  -29.1988  -20.8350   22.7341 C   0  0  0  0  0  0
  -29.3334  -20.4112   21.3745 C   0  0  0  0  0  0
  -29.9895  -19.0291   21.2537 C   0  0  0  0  0  0
  -30.9517  -18.7777   22.2781 C   0  0  0  0  0  0
  -27.2280  -21.2631   24.3090 C   0  0  0  0  0  0
  -33.4517  -18.6724   21.8753 C   0  0  0  0  0  0
  -28.1515  -21.8420   23.2263 C   0  0  0  0  0  0
  -28.7733  -21.5703   20.3293 C   0  0  0  0  0  0
  -29.8638  -17.7360   20.2234 C   0  0  0  0  0  0
  -32.1636  -17.8652   22.0992 C   0  0  0  0  0  0
  -29.0290  -23.2653   20.5305 C   0  0  0  0  0  0
  -28.0296  -24.5715   20.0848 C   0  0  0  0  0  0
  -30.9770  -19.3950   23.4673 N   0  0  0  0  0  0
  -29.7795  -16.1802   20.6403 N   0  0  0  0  0  0
  -31.4843  -12.7478   19.2260 H   0  0  0  0  0  0
  -30.4234  -11.6553   20.0653 H   0  0  0  0  0  0
  -29.8600  -11.7424   17.6100 H   0  0  0  0  0  0
  -29.6335  -13.4704   17.7110 H   0  0  0  0  0  0
  -27.9575  -11.2872   18.9835 H   0  0  0  0  0  0
  -27.4151  -12.4708   17.8206 H   0  0  0  0  0  0
  -27.5939  -14.2630   19.4168 H   0  0  0  0  0  0
  -28.7615  -12.3337   21.4835 H   0  0  0  0  0  0
  -28.3686  -14.0138   21.7613 H   0  0  0  0  0  0
  -25.2794   -9.5682   22.4753 H   0  0  0  0  0  0
  -23.9999   -7.4660   22.7487 H   0  0  0  0  0  0
  -21.0842   -8.8800   19.8982 H   0  0  0  0  0  0
  -22.3731  -10.9671   19.6165 H   0  0  0  0  0  0
  -21.2032   -7.6150   23.9707 H   0  0  0  0  0  0
  -21.1485   -6.0520   25.9062 H   0  0  0  0  0  0
  -22.0602   -2.7607   23.2825 H   0  0  0  0  0  0
  -22.4064  -11.9879   22.4819 H   0  0  0  0  0  0
  -21.1089  -13.1258   22.2623 H   0  0  0  0  0  0
  -24.6379  -15.8451   20.5299 H   0  0  0  0  0  0
  -26.2471  -15.6432   20.0627 H   0  0  0  0  0  0
  -26.7273  -32.5282   23.0992 H   0  0  0  0  0  0
  -25.0031  -33.9609   25.0275 H   0  0  0  0  0  0
  -22.7539  -31.2827   21.3700 H   0  0  0  0  0  0
  -23.3754  -35.9589   23.3292 H   0  0  0  0  0  0
  -24.3576  -36.8911   22.2061 H   0  0  0  0  0  0
  -23.7234  -37.6448   23.6694 H   0  0  0  0  0  0
  -26.1607  -31.4607   20.6090 H   0  0  0  0  0  0
  -26.8802  -30.7665   22.0268 H   0  0  0  0  0  0
  -28.1381  -28.7804   21.2459 H   0  0  0  0  0  0
  -25.9297  -25.8215   19.0125 H   0  0  0  0  0  0
  -23.9931  -27.2850   18.9783 H   0  0  0  0  0  0
  -23.8195  -30.5525   19.3915 H   0  0  0  0  0  0
  -22.7966  -29.2211   19.8423 H   0  0  0  0  0  0
  -25.1313  -36.1873   25.0800 H   0  0  0  0  0  0
  -21.0017  -28.3311   24.1357 H   0  0  0  0  0  0
  -20.5684  -26.2331   23.3632 H   0  0  0  0  0  0
  -21.6656  -26.7428   22.1206 H   0  0  0  0  0  0
  -19.6922  -25.6283   21.1266 H   0  0  0  0  0  0
  -19.6703  -27.3175   20.6739 H   0  0  0  0  0  0
  -17.4220  -26.6685   21.4035 H   0  0  0  0  0  0
  -18.0345  -26.0089   22.9034 H   0  0  0  0  0  0
  -19.7951  -30.7305   24.2236 H   0  0  0  0  0  0
  -17.5017  -31.6270   24.5173 H   0  0  0  0  0  0
  -15.5360  -30.2981   23.7649 H   0  0  0  0  0  0
  -15.8697  -28.0811   22.7072 H   0  0  0  0  0  0
  -24.5883  -30.7087   25.7711 H   0  0  0  0  0  0
  -24.8885  -32.2929   26.4765 H   0  0  0  0  0  0
  -25.7965  -30.8949   27.0210 H   0  0  0  0  0  0
  -26.2963  -29.6674   24.1297 H   0  0  0  0  0  0
  -27.3947  -29.7225   25.4862 H   0  0  0  0  0  0
  -27.8893  -30.4159   23.9615 H   0  0  0  0  0  0
  -27.2632  -33.3628   26.2016 H   0  0  0  0  0  0
  -28.3890  -32.6829   25.0359 H   0  0  0  0  0  0
  -28.0661  -31.8475   26.5473 H   0  0  0  0  0  0
  -28.2581  -38.0096   24.7507 H   0  0  0  0  0  0
  -28.1084  -36.2620   24.6290 H   0  0  0  0  0  0
  -27.2297  -37.1442   25.8866 H   0  0  0  0  0  0
  -20.9487  -29.8745   21.6770 H   0  0  0  0  0  0
  -26.0158  -38.2816   24.1407 H   0  0  0  0  0  0
  -30.0062  -20.6680   24.7379 H   0  0  0  0  0  0
  -26.4886  -22.0032   24.6152 H   0  0  0  0  0  0
  -27.7741  -20.9712   25.2062 H   0  0  0  0  0  0
  -26.6886  -20.3885   23.9432 H   0  0  0  0  0  0
  -34.3063  -18.0115   21.7327 H   0  0  0  0  0  0
  -33.6725  -19.3202   22.7246 H   0  0  0  0  0  0
  -33.3639  -19.3005   20.9874 H   0  0  0  0  0  0
  -27.5025  -22.1973   22.4291 H   0  0  0  0  0  0
  -28.6628  -22.7148   23.6347 H   0  0  0  0  0  0
  -27.6962  -21.4107   20.2634 H   0  0  0  0  0  0
  -29.1453  -21.3024   19.3410 H   0  0  0  0  0  0
  -30.6906  -17.8216   19.5162 H   0  0  0  0  0  0
  -28.9758  -17.9292   19.6210 H   0  0  0  0  0  0
  -32.0745  -17.2039   21.2498 H   0  0  0  0  0  0
  -32.2711  -17.2181   22.9704 H   0  0  0  0  0  0
  -29.9991  -23.4588   20.0735 H   0  0  0  0  0  0
  -29.2415  -23.4468   21.5798 H   0  0  0  0  0  0
  -27.0727  -24.3769   20.5708 H   0  0  0  0  0  0
  -27.8356  -24.4400   19.0201 H   0  0  0  0  0  0
  -28.8587  -15.9449   20.9792 H   0  0  0  0  0  0
  1 25  1  0  0  0
  1 30  2  0  0  0
  1 85  1  0  0  0
  2  3  1  0  0  0
  2 25  1  0  0  0
  2 86  1  0  0  0
  2 87  1  0  0  0
  3  4  1  0  0  0
  3 88  1  0  0  0
  3 89  1  0  0  0
  4  5  1  0  0  0
  4 90  1  0  0  0
  4 91  1  0  0  0
  5  6  1  0  0  0
  5 26  1  0  0  0
  5 92  1  0  0  0
  6 25  1  0  0  0
  6 93  1  0  0  0
  6 94  1  0  0  0
  7  8  2  0  0  0
  7 26  1  0  0  0
  7 29  1  0  0  0
  8  9  1  0  0  0
  8 22  1  0  0  0
  9 10  1  0  0  0
  9 27  2  0  0  0
 10 11  2  0  0  0
 10 15  1  0  0  0
 11 12  1  0  0  0
 11 95  1  0  0  0
 12 13  2  0  0  0
 12 96  1  0  0  0
 13 14  1  0  0  0
 13 31  1  0  0  0
 14 15  2  0  0  0
 14 97  1  0  0  0
 15 98  1  0  0  0
 16 17  2  0  0  0
 16 21  1  0  0  0
 16 31  1  0  0  0
 17 18  1  0  0  0
 17 99  1  0  0  0
 18 19  2  0  0  0
 18100  1  0  0  0
 19 20  1  0  0  0
 19 24  1  0  0  0
 20 21  2  0  0  0
 20101  1  0  0  0
 21 23  1  0  0  0
 22 28  1  0  0  0
 22 32  2  0  0  0
 26 27  1  0  0  0
 28102  1  0  0  0
 28103  1  0  0  0
 29104  1  0  0  0
 29105  1  0  0  0
 33 34  1  0  0  0
 33 66  1  0  0  0
 33 70  2  0  0  0
 34 36  1  0  0  0
 34 59  1  0  0  0
 34106  1  0  0  0
 35 44  2  0  0  0
 35 45  1  0  0  0
 35 68  1  0  0  0
 36 56  1  0  0  0
 36107  1  0  0  0
 37 39  1  0  0  0
 37 47  1  0  0  0
 37 66  1  0  0  0
 37108  1  0  0  0
 38 43  2  0  0  0
 38 46  1  0  0  0
 38 47  1  0  0  0
 39 64  1  0  0  0
 39 67  2  0  0  0
 40 52  1  0  0  0
 40 53  2  0  0  0
 40 58  1  0  0  0
 41109  1  0  0  0
 41110  1  0  0  0
 41111  1  0  0  0
 41 48  1  0  0  0
 42 43  1  0  0  0
 42 66  1  0  0  0
 42112  1  0  0  0
 42113  1  0  0  0
 43 44  1  0  0  0
 44114  1  0  0  0
 45 46  2  0  0  0
 45115  1  0  0  0
 46116  1  0  0  0
 47117  1  0  0  0
 47118  1  0  0  0
 48 56  1  0  0  0
 48 65  1  0  0  0
 48119  1  0  0  0
 49 50  1  0  0  0
 49 53  1  0  0  0
 49 64  1  0  0  0
 49120  1  0  0  0
 50 51  1  0  0  0
 50121  1  0  0  0
 50122  1  0  0  0
 51 52  1  0  0  0
 51123  1  0  0  0
 51124  1  0  0  0
 52125  1  0  0  0
 52126  1  0  0  0
 53 54  1  0  0  0
 54 55  2  0  0  0
 54127  1  0  0  0
 55 57  1  0  0  0
 55128  1  0  0  0
 56 69  2  0  0  0
 57 58  2  0  0  0
 57129  1  0  0  0
 58130  1  0  0  0
 59 60  1  0  0  0
 59 61  1  0  0  0
 59 62  1  0  0  0
 60131  1  0  0  0
 60132  1  0  0  0
 60133  1  0  0  0
 61134  1  0  0  0
 61135  1  0  0  0
 61136  1  0  0  0
 62137  1  0  0  0
 62138  1  0  0  0
 62139  1  0  0  0
 63 65  1  0  0  0
 63140  1  0  0  0
 63141  1  0  0  0
 63142  1  0  0  0
 64143  1  0  0  0
 65144  1  0  0  0
 68 83  1  0  0  0
 71 72  2  0  0  0
 71 84  1  0  0  0
 71145  1  0  0  0
 72 73  1  0  0  0
 72 78  1  0  0  0
 73 74  2  0  0  0
 73 79  1  0  0  0
 74 75  1  0  0  0
 74 80  1  0  0  0
 75 81  1  0  0  0
 75 84  2  0  0  0
 76 78  1  0  0  0
 76146  1  0  0  0
 76147  1  0  0  0
 76148  1  0  0  0
 77 81  1  0  0  0
 77149  1  0  0  0
 77150  1  0  0  0
 77151  1  0  0  0
 78152  1  0  0  0
 78153  1  0  0  0
 79 82  1  0  0  0
 79154  1  0  0  0
 79155  1  0  0  0
 80 85  1  0  0  0
 80156  1  0  0  0
 80157  1  0  0  0
 81158  1  0  0  0
 81159  1  0  0  0
 82 83  1  0  0  0
 82160  1  0  0  0
 82161  1  0  0  0
 83162  1  0  0  0
 83163  1  0  0  0
 85164  1  0  0  0
M  ISO  4   1 100  68 101  83 101  85 100
M  END
> <chiral flag>
0

> <version>
0

> <s_m_source_file>
/data/baiqing/PycharmProjects/Reinvent-master-3.2/result/LINK_invent/BTK/process_docking_weight1_custom_sum_contain_oxygen_bond_distance_aromatic_linkinvent_7_9_3/rearranged_h_0045.sdf

> <i_m_source_file_index>
66

> <r_mmod_Potential_Energy-OPLS-2005>
581.149169921875

> <r_mmod_Stretch_Energy-OPLS-2005>
338.689605712891

> <r_mmod_Bend_Energy-OPLS-2005>
320.89892578125

> <r_mmod_Torsional_Energy-OPLS-2005>
289.377655029297

> <r_mmod_Improper_Torsional_Energy-OPLS-2005>
5.09519529342651

> <r_mmod_Van_der_Waal_Energy-OPLS-2005>
148.579345703125

> <r_mmod_Electrostatic_Energy-OPLS-2005>
-514.719116210938

> <r_mmod_Solvation_Energy-OPLS-2005>
-223.803771972656

> <b_mmod_Minimization_Converged-OPLS-2005>
0

> <r_mmod_RMS_Derivative-OPLS-2005>
2.05118989944458

$$$$
67
                    3D
 Structure written by MMmdl.
154162  0  0  1  0            999 V2000
  -30.6596  -14.6960   20.4871 C   0  0  0  0  0  0
  -30.4341  -12.4197   19.4888 C   0  0  0  0  0  0
  -29.5248  -12.5280   18.2477 C   0  0  0  0  0  0
  -28.0448  -12.3692   18.6462 C   0  0  0  0  0  0
  -27.6535  -13.2485   19.8607 C   0  0  2  0  0  0
  -28.6993  -13.1682   20.9993 C   0  0  0  0  0  0
  -25.2552  -13.8247   20.5734 C   0  0  0  0  0  0
  -24.1873  -13.0455   20.9209 C   0  0  0  0  0  0
  -24.6501  -11.6931   20.8763 C   0  0  0  0  0  0
  -23.9169  -10.4299   21.0440 C   0  0  0  0  0  0
  -24.3686   -9.4188   21.9211 C   0  0  0  0  0  0
  -23.6317   -8.2247   22.0757 C   0  0  0  0  0  0
  -22.4294   -8.0312   21.3561 C   0  0  0  0  0  0
  -21.9981   -9.0306   20.4659 C   0  0  0  0  0  0
  -22.7345  -10.2166   20.3077 C   0  0  0  0  0  0
  -21.6845   -6.0764   22.5295 C   0  0  0  0  0  0
  -21.4024   -6.5661   23.8231 C   0  0  0  0  0  0
  -21.3651   -5.6808   24.9186 C   0  0  0  0  0  0
  -21.6043   -4.3072   24.7223 C   0  0  0  0  0  0
  -21.8816   -3.8173   23.4337 C   0  0  0  0  0  0
  -21.9189   -4.6997   22.3404 C   0  0  0  0  0  0
  -22.7874  -13.5207   21.1819 C   0  0  0  0  0  0
  -22.1661   -4.2192   21.0978 F   0  0  0  0  0  0
  -21.5600   -3.4539   25.7715 F   0  0  0  0  0  0
  -30.0168  -13.4802   20.4323 N   0  0  0  0  0  0
  -26.3021  -12.9498   20.3341 N   0  0  0  0  0  0
  -25.9440  -11.6611   20.5787 N   0  0  0  0  0  0
  -22.0508  -12.8227   22.0390 N   0  0  0  0  0  0
  -25.4216  -15.1979   20.4120 N   0  0  0  0  0  0
  -31.8160  -14.7804   20.0628 O   0  0  0  0  0  0
  -21.6642   -6.8922   21.4266 O   0  0  0  0  0  0
  -22.3568  -14.5524   20.6644 O   0  0  0  0  0  0
  -24.6314  -31.8626   23.2107 C   0  0  0  0  0  0
  -25.9153  -32.4822   23.8416 C   0  0  1  0  0  0
  -27.1691  -27.2910   20.1026 C   0  0  0  0  0  0
  -25.5972  -33.8630   24.2354 N   0  0  0  0  0  0
  -23.4269  -30.4868   21.5637 C   0  0  2  0  0  0
  -24.8571  -28.9687   20.1038 C   0  0  0  0  0  0
  -22.7560  -29.4573   22.5066 C   0  0  0  0  0  0
  -18.0239  -28.1431   22.8492 C   0  0  0  0  0  0
  -24.1480  -36.7315   23.2621 C   0  0  0  0  0  0
  -25.9671  -30.7875   21.3834 C   0  0  0  0  0  0
  -26.0324  -29.4132   20.7262 C   0  0  0  0  0  0
  -27.1967  -28.5813   20.7225 C   0  0  0  0  0  0
  -25.9858  -26.9458   19.4058 C   0  0  0  0  0  0
  -24.8433  -27.7510   19.4224 C   0  0  0  0  0  0
  -23.6349  -29.8578   20.1689 C   0  0  0  0  0  0
  -25.4111  -36.3142   24.0335 C   0  0  1  0  0  0
  -20.5867  -28.3715   23.1373 C   0  0  2  0  0  0
  -20.6762  -26.9451   22.5462 C   0  0  0  0  0  0
  -19.5738  -26.6438   21.5256 C   0  0  0  0  0  0
  -18.1899  -26.7979   22.1643 C   0  0  0  0  0  0
  -19.1485  -28.8878   23.2914 C   0  0  0  0  0  0
  -18.9419  -30.1478   23.8952 C   0  0  0  0  0  0
  -17.6419  -30.6634   24.0575 C   0  0  0  0  0  0
  -25.9060  -34.9492   23.5143 C   0  0  0  0  0  0
  -16.5317  -29.9151   23.6326 C   0  0  0  0  0  0
  -16.7224  -28.6561   23.0361 C   0  0  0  0  0  0
  -26.4530  -31.6590   25.0755 C   0  0  0  0  0  0
  -25.3772  -31.3697   26.1479 C   0  0  0  0  0  0
  -27.0310  -30.3033   24.6104 C   0  0  0  0  0  0
  -27.6139  -32.4258   25.7537 C   0  0  0  0  0  0
  -27.5577  -37.1824   24.8490 C   0  0  0  0  0  0
  -21.4246  -29.3044   22.3798 N   0  0  0  0  0  0
  -26.4298  -37.3814   23.9412 N   0  0  0  0  0  0
  -24.6965  -31.0610   22.1137 N   0  0  0  0  0  0
  -23.4234  -28.8061   23.3133 O   0  0  0  0  0  0
  -28.2043  -26.3411   20.1824 O   0  0  0  0  0  0
  -26.5599  -34.8948   22.4692 O   0  0  0  0  0  0
  -23.5461  -32.1456   23.7428 O   0  0  0  0  0  0
  -29.1840  -19.7415   19.7394 C   0  0  0  0  0  0
  -28.9867  -20.9471   20.5114 C   0  0  0  0  0  0
  -29.8548  -18.8153   20.5272 C   0  0  0  0  0  0
  -30.8136  -19.1266   22.8894 C   0  0  0  0  0  0
  -28.1606  -22.2376   20.1946 C   0  0  0  0  0  0
  -30.4302  -17.3977   20.1926 C   0  0  0  0  0  0
  -29.9626  -16.0630   20.9430 C   0  0  0  0  0  0
  -28.7646  -23.7020   20.4210 C   0  0  0  0  0  0
  -27.7696  -24.9109   20.1364 C   0  0  0  0  0  0
  -29.4992  -20.7583   21.7171 N   0  0  0  0  0  0
  -30.0613  -19.5120   21.7150 N   0  0  0  0  0  0
  -31.4773  -12.5194   19.1873 H   0  0  0  0  0  0
  -30.3451  -11.4371   19.9569 H   0  0  0  0  0  0
  -29.8007  -11.7711   17.5139 H   0  0  0  0  0  0
  -29.6852  -13.4969   17.7695 H   0  0  0  0  0  0
  -27.8883  -11.3207   18.8944 H   0  0  0  0  0  0
  -27.4062  -12.5947   17.7929 H   0  0  0  0  0  0
  -27.6532  -14.2763   19.4929 H   0  0  0  0  0  0
  -28.7088  -12.1806   21.4643 H   0  0  0  0  0  0
  -28.4478  -13.8791   21.7907 H   0  0  0  0  0  0
  -25.2818   -9.5638   22.4807 H   0  0  0  0  0  0
  -23.9994   -7.4654   22.7503 H   0  0  0  0  0  0
  -21.0889   -8.8884   19.8987 H   0  0  0  0  0  0
  -22.3838  -10.9724   19.6199 H   0  0  0  0  0  0
  -21.2047   -7.6170   23.9758 H   0  0  0  0  0  0
  -21.1466   -6.0523   25.9094 H   0  0  0  0  0  0
  -22.0602   -2.7636   23.2823 H   0  0  0  0  0  0
  -22.4049  -11.9838   22.4775 H   0  0  0  0  0  0
  -21.1157  -13.1363   22.2599 H   0  0  0  0  0  0
  -24.6540  -15.8524   20.5103 H   0  0  0  0  0  0
  -26.2769  -15.6434   20.1079 H   0  0  0  0  0  0
  -26.7233  -32.5490   23.1149 H   0  0  0  0  0  0
  -25.0142  -33.9807   25.0526 H   0  0  0  0  0  0
  -22.7157  -31.3061   21.4369 H   0  0  0  0  0  0
  -23.3770  -35.9627   23.3344 H   0  0  0  0  0  0
  -24.3541  -36.8874   22.2017 H   0  0  0  0  0  0
  -23.7227  -37.6528   23.6605 H   0  0  0  0  0  0
  -26.0728  -31.5486   20.6081 H   0  0  0  0  0  0
  -26.8657  -30.8522   21.9889 H   0  0  0  0  0  0
  -28.0944  -28.8966   21.2407 H   0  0  0  0  0  0
  -25.8940  -26.0450   18.8266 H   0  0  0  0  0  0
  -23.9598  -27.4395   18.8802 H   0  0  0  0  0  0
  -23.7698  -30.6611   19.4431 H   0  0  0  0  0  0
  -22.7474  -29.3078   19.8499 H   0  0  0  0  0  0
  -25.1258  -36.2008   25.0821 H   0  0  0  0  0  0
  -20.9849  -28.3254   24.1541 H   0  0  0  0  0  0
  -20.5726  -26.2279   23.3626 H   0  0  0  0  0  0
  -21.6621  -26.7541   22.1193 H   0  0  0  0  0  0
  -19.6932  -25.6352   21.1261 H   0  0  0  0  0  0
  -19.6716  -27.3289   20.6811 H   0  0  0  0  0  0
  -17.4169  -26.6719   21.4048 H   0  0  0  0  0  0
  -18.0300  -26.0138   22.9046 H   0  0  0  0  0  0
  -19.7872  -30.7270   24.2422 H   0  0  0  0  0  0
  -17.4958  -31.6328   24.5158 H   0  0  0  0  0  0
  -15.5316  -30.3062   23.7659 H   0  0  0  0  0  0
  -15.8615  -28.0905   22.7101 H   0  0  0  0  0  0
  -24.6006  -30.6950   25.7828 H   0  0  0  0  0  0
  -24.8857  -32.2828   26.4855 H   0  0  0  0  0  0
  -25.8114  -30.8936   27.0290 H   0  0  0  0  0  0
  -26.2836  -29.6886   24.1054 H   0  0  0  0  0  0
  -27.3960  -29.7166   25.4544 H   0  0  0  0  0  0
  -27.8747  -30.4349   23.9332 H   0  0  0  0  0  0
  -27.2810  -33.3584   26.2114 H   0  0  0  0  0  0
  -28.3972  -32.6741   25.0365 H   0  0  0  0  0  0
  -28.0775  -31.8329   26.5426 H   0  0  0  0  0  0
  -28.2625  -38.0080   24.7445 H   0  0  0  0  0  0
  -28.1044  -36.2603   24.6423 H   0  0  0  0  0  0
  -27.2282  -37.1599   25.8895 H   0  0  0  0  0  0
  -20.9478  -29.8768   21.6979 H   0  0  0  0  0  0
  -26.0218  -38.2912   24.1411 H   0  0  0  0  0  0
  -28.8660  -19.5855   18.7185 H   0  0  0  0  0  0
  -31.7710  -18.6964   22.5929 H   0  0  0  0  0  0
  -30.2471  -18.4066   23.4829 H   0  0  0  0  0  0
  -31.0223  -20.0061   23.5026 H   0  0  0  0  0  0
  -27.2218  -22.1811   20.7514 H   0  0  0  0  0  0
  -27.8525  -22.1822   19.1489 H   0  0  0  0  0  0
  -31.5168  -17.4483   20.2773 H   0  0  0  0  0  0
  -30.2682  -17.2371   19.1247 H   0  0  0  0  0  0
  -30.1474  -16.2070   22.0082 H   0  0  0  0  0  0
  -28.8834  -15.9874   20.8346 H   0  0  0  0  0  0
  -29.6343  -23.8235   19.7744 H   0  0  0  0  0  0
  -29.1000  -23.7738   21.4582 H   0  0  0  0  0  0
  -27.3686  -24.6975   19.1454 H   0  0  0  0  0  0
  -26.9309  -24.8014   20.8318 H   0  0  0  0  0  0
  1 25  1  0  0  0
  1 30  2  0  0  0
  1 77  1  0  0  0
  2  3  1  0  0  0
  2 25  1  0  0  0
  2 82  1  0  0  0
  2 83  1  0  0  0
  3  4  1  0  0  0
  3 84  1  0  0  0
  3 85  1  0  0  0
  4  5  1  0  0  0
  4 86  1  0  0  0
  4 87  1  0  0  0
  5  6  1  0  0  0
  5 26  1  0  0  0
  5 88  1  0  0  0
  6 25  1  0  0  0
  6 89  1  0  0  0
  6 90  1  0  0  0
  7  8  2  0  0  0
  7 26  1  0  0  0
  7 29  1  0  0  0
  8  9  1  0  0  0
  8 22  1  0  0  0
  9 10  1  0  0  0
  9 27  2  0  0  0
 10 11  2  0  0  0
 10 15  1  0  0  0
 11 12  1  0  0  0
 11 91  1  0  0  0
 12 13  2  0  0  0
 12 92  1  0  0  0
 13 14  1  0  0  0
 13 31  1  0  0  0
 14 15  2  0  0  0
 14 93  1  0  0  0
 15 94  1  0  0  0
 16 17  2  0  0  0
 16 21  1  0  0  0
 16 31  1  0  0  0
 17 18  1  0  0  0
 17 95  1  0  0  0
 18 19  2  0  0  0
 18 96  1  0  0  0
 19 20  1  0  0  0
 19 24  1  0  0  0
 20 21  2  0  0  0
 20 97  1  0  0  0
 21 23  1  0  0  0
 22 28  1  0  0  0
 22 32  2  0  0  0
 26 27  1  0  0  0
 28 98  1  0  0  0
 28 99  1  0  0  0
 29100  1  0  0  0
 29101  1  0  0  0
 33 34  1  0  0  0
 33 66  1  0  0  0
 33 70  2  0  0  0
 34 36  1  0  0  0
 34 59  1  0  0  0
 34102  1  0  0  0
 35 44  2  0  0  0
 35 45  1  0  0  0
 35 68  1  0  0  0
 36 56  1  0  0  0
 36103  1  0  0  0
 37 39  1  0  0  0
 37 47  1  0  0  0
 37 66  1  0  0  0
 37104  1  0  0  0
 38 43  2  0  0  0
 38 46  1  0  0  0
 38 47  1  0  0  0
 39 64  1  0  0  0
 39 67  2  0  0  0
 40 52  1  0  0  0
 40 53  2  0  0  0
 40 58  1  0  0  0
 41105  1  0  0  0
 41106  1  0  0  0
 41107  1  0  0  0
 41 48  1  0  0  0
 42 43  1  0  0  0
 42 66  1  0  0  0
 42108  1  0  0  0
 42109  1  0  0  0
 43 44  1  0  0  0
 44110  1  0  0  0
 45 46  2  0  0  0
 45111  1  0  0  0
 46112  1  0  0  0
 47113  1  0  0  0
 47114  1  0  0  0
 48 56  1  0  0  0
 48 65  1  0  0  0
 48115  1  0  0  0
 49 50  1  0  0  0
 49 53  1  0  0  0
 49 64  1  0  0  0
 49116  1  0  0  0
 50 51  1  0  0  0
 50117  1  0  0  0
 50118  1  0  0  0
 51 52  1  0  0  0
 51119  1  0  0  0
 51120  1  0  0  0
 52121  1  0  0  0
 52122  1  0  0  0
 53 54  1  0  0  0
 54 55  2  0  0  0
 54123  1  0  0  0
 55 57  1  0  0  0
 55124  1  0  0  0
 56 69  2  0  0  0
 57 58  2  0  0  0
 57125  1  0  0  0
 58126  1  0  0  0
 59 60  1  0  0  0
 59 61  1  0  0  0
 59 62  1  0  0  0
 60127  1  0  0  0
 60128  1  0  0  0
 60129  1  0  0  0
 61130  1  0  0  0
 61131  1  0  0  0
 61132  1  0  0  0
 62133  1  0  0  0
 62134  1  0  0  0
 62135  1  0  0  0
 63 65  1  0  0  0
 63136  1  0  0  0
 63137  1  0  0  0
 63138  1  0  0  0
 64139  1  0  0  0
 65140  1  0  0  0
 68 79  1  0  0  0
 71 72  1  0  0  0
 71 73  2  0  0  0
 71141  1  0  0  0
 72 75  1  0  0  0
 72 80  2  0  0  0
 73 76  1  0  0  0
 73 81  1  0  0  0
 74 81  1  0  0  0
 74142  1  0  0  0
 74143  1  0  0  0
 74144  1  0  0  0
 75 78  1  0  0  0
 75145  1  0  0  0
 75146  1  0  0  0
 76 77  1  0  0  0
 76147  1  0  0  0
 76148  1  0  0  0
 77149  1  0  0  0
 77150  1  0  0  0
 78 79  1  0  0  0
 78151  1  0  0  0
 78152  1  0  0  0
 79153  1  0  0  0
 79154  1  0  0  0
 80 81  1  0  0  0
M  ISO  4   1 100  68 101  77 100  79 101
M  END
> <chiral flag>
0

> <version>
0

> <s_m_source_file>
/data/baiqing/PycharmProjects/Reinvent-master-3.2/result/LINK_invent/BTK/process_docking_weight1_custom_sum_contain_oxygen_bond_distance_aromatic_linkinvent_7_9_3/rearranged_h_0045.sdf

> <i_m_source_file_index>
67

> <r_mmod_Potential_Energy-OPLS-2005>
4.78363704681396

> <r_mmod_Stretch_Energy-OPLS-2005>
89.3665771484375

> <r_mmod_Bend_Energy-OPLS-2005>
144.442398071289

> <r_mmod_Torsional_Energy-OPLS-2005>
177.161682128906

> <r_mmod_Improper_Torsional_Energy-OPLS-2005>
3.93768906593323

> <r_mmod_Van_der_Waal_Energy-OPLS-2005>
124.100250244141

> <r_mmod_Electrostatic_Energy-OPLS-2005>
-400.647308349609

> <r_mmod_Solvation_Energy-OPLS-2005>
-211.433029174805

> <b_mmod_Minimization_Converged-OPLS-2005>
0

> <r_mmod_RMS_Derivative-OPLS-2005>
7.47974443435669

$$$$
68
                    3D
 Structure written by MMmdl.
166174  0  0  1  0            999 V2000
  -30.7402  -14.4174   20.6349 C   0  0  0  0  0  0
  -30.4214  -12.2937   19.4181 C   0  0  0  0  0  0
  -29.4985  -12.5063   18.2015 C   0  0  0  0  0  0
  -28.0175  -12.3632   18.6070 C   0  0  0  0  0  0
  -27.6637  -13.1974   19.8660 C   0  0  2  0  0  0
  -28.7000  -12.9683   20.9886 C   0  0  0  0  0  0
  -25.2610  -13.8166   20.5661 C   0  0  0  0  0  0
  -24.1856  -13.0453   20.9209 C   0  0  0  0  0  0
  -24.6396  -11.6918   20.8735 C   0  0  0  0  0  0
  -23.9047  -10.4305   21.0393 C   0  0  0  0  0  0
  -24.3609   -9.4229   21.9170 C   0  0  0  0  0  0
  -23.6290   -8.2260   22.0745 C   0  0  0  0  0  0
  -22.4268   -8.0294   21.3547 C   0  0  0  0  0  0
  -21.9893   -9.0262   20.4648 C   0  0  0  0  0  0
  -22.7216  -10.2144   20.3047 C   0  0  0  0  0  0
  -21.6866   -6.0740   22.5280 C   0  0  0  0  0  0
  -21.4024   -6.5640   23.8215 C   0  0  0  0  0  0
  -21.3648   -5.6787   24.9172 C   0  0  0  0  0  0
  -21.6049   -4.3053   24.7221 C   0  0  0  0  0  0
  -21.8814   -3.8149   23.4339 C   0  0  0  0  0  0
  -21.9195   -4.6968   22.3396 C   0  0  0  0  0  0
  -22.7880  -13.5257   21.1865 C   0  0  0  0  0  0
  -22.1664   -4.2151   21.0974 F   0  0  0  0  0  0
  -21.5613   -3.4533   25.7731 F   0  0  0  0  0  0
  -30.0399  -13.2652   20.4543 N   0  0  0  0  0  0
  -26.3026  -12.9305   20.3281 N   0  0  0  0  0  0
  -25.9306  -11.6487   20.5717 N   0  0  0  0  0  0
  -22.0497  -12.8227   22.0396 N   0  0  0  0  0  0
  -25.4301  -15.1878   20.4024 N   0  0  0  0  0  0
  -31.8088  -14.6315   20.0538 O   0  0  0  0  0  0
  -21.6642   -6.8884   21.4249 O   0  0  0  0  0  0
  -22.3567  -14.5562   20.6716 O   0  0  0  0  0  0
  -24.6123  -31.8718   23.2118 C   0  0  0  0  0  0
  -25.9036  -32.4839   23.8413 C   0  0  1  0  0  0
  -27.2347  -27.4541   20.0722 C   0  0  0  0  0  0
  -25.5907  -33.8635   24.2345 N   0  0  0  0  0  0
  -23.3984  -30.4970   21.5512 C   0  0  2  0  0  0
  -24.8406  -28.9622   20.1180 C   0  0  0  0  0  0
  -22.7399  -29.4690   22.5001 C   0  0  0  0  0  0
  -18.0303  -28.1344   22.8511 C   0  0  0  0  0  0
  -24.1478  -36.7315   23.2637 C   0  0  0  0  0  0
  -25.9259  -30.8377   21.3648 C   0  0  0  0  0  0
  -26.0002  -29.4724   20.7130 C   0  0  0  0  0  0
  -27.1956  -28.7226   20.6939 C   0  0  0  0  0  0
  -26.0520  -26.9565   19.4770 C   0  0  0  0  0  0
  -24.8595  -27.7008   19.5019 C   0  0  0  0  0  0
  -23.6050  -29.8289   20.1666 C   0  0  0  0  0  0
  -25.4099  -36.3127   24.0349 C   0  0  1  0  0  0
  -20.5884  -28.3649   23.1315 C   0  0  2  0  0  0
  -20.6778  -26.9382   22.5427 C   0  0  0  0  0  0
  -19.5764  -26.6385   21.5206 C   0  0  0  0  0  0
  -18.1945  -26.7890   22.1633 C   0  0  0  0  0  0
  -19.1546  -28.8813   23.2913 C   0  0  0  0  0  0
  -18.9475  -30.1408   23.8939 C   0  0  0  0  0  0
  -17.6477  -30.6552   24.0580 C   0  0  0  0  0  0
  -25.9030  -34.9488   23.5146 C   0  0  0  0  0  0
  -16.5371  -29.9052   23.6324 C   0  0  0  0  0  0
  -16.7292  -28.6458   23.0372 C   0  0  0  0  0  0
  -26.4455  -31.6602   25.0728 C   0  0  0  0  0  0
  -25.3712  -31.3714   26.1473 C   0  0  0  0  0  0
  -27.0281  -30.3054   24.6083 C   0  0  0  0  0  0
  -27.6046  -32.4303   25.7484 C   0  0  0  0  0  0
  -27.5578  -37.1812   24.8467 C   0  0  0  0  0  0
  -21.4135  -29.3032   22.3715 N   0  0  0  0  0  0
  -26.4294  -37.3806   23.9412 N   0  0  0  0  0  0
  -24.6634  -31.0835   22.1008 N   0  0  0  0  0  0
  -23.4178  -28.8252   23.3050 O   0  0  0  0  0  0
  -28.4415  -26.7865   20.0540 O   0  0  0  0  0  0
  -26.5577  -34.8928   22.4695 O   0  0  0  0  0  0
  -23.5322  -32.1461   23.7528 O   0  0  0  0  0  0
  -25.6148  -22.0034   20.2180 C   0  0  0  0  0  0
  -25.0049  -23.1852   20.7109 C   0  0  0  0  0  0
  -26.9515  -22.2913   20.1854 C   0  0  0  0  0  0
  -28.6775  -18.5248   23.7641 C   0  0  0  0  0  0
  -28.0770  -21.3716   19.8123 C   0  0  0  0  0  0
  -30.2045  -15.5530   21.5272 C   0  0  0  0  0  0
  -28.4011  -20.3455   20.9226 C   0  0  0  0  0  0
  -28.2895  -24.4246   20.7573 C   0  0  0  0  0  0
  -28.2301  -17.7876   22.4900 C   0  0  0  0  0  0
  -29.4602  -16.6204   20.6835 C   0  0  0  0  0  0
  -28.8837  -18.9811   20.3681 C   0  0  0  0  0  0
  -28.5268  -25.4304   19.6059 C   0  0  0  0  0  0
  -25.8926  -24.1326   20.9587 N   0  0  0  0  0  0
  -27.0887  -23.6095   20.6040 N   0  0  0  0  0  0
  -29.2136  -17.9210   21.3757 N   0  3  1  0  0  0
  -31.4688  -12.3780   19.1248 H   0  0  0  0  0  0
  -30.3113  -11.2803   19.8057 H   0  0  0  0  0  0
  -29.7389  -11.7884   17.4154 H   0  0  0  0  0  0
  -29.6757  -13.4977   17.7810 H   0  0  0  0  0  0
  -27.8230  -11.3066   18.7915 H   0  0  0  0  0  0
  -27.3714  -12.6464   17.7755 H   0  0  0  0  0  0
  -27.7100  -14.2427   19.5677 H   0  0  0  0  0  0
  -28.6649  -11.9281   21.3181 H   0  0  0  0  0  0
  -28.4322  -13.5477   21.8691 H   0  0  0  0  0  0
  -25.2748   -9.5711   22.4750 H   0  0  0  0  0  0
  -24.0020   -7.4643   22.7443 H   0  0  0  0  0  0
  -21.0829   -8.8774   19.8937 H   0  0  0  0  0  0
  -22.3678  -10.9693   19.6159 H   0  0  0  0  0  0
  -21.2031   -7.6151   23.9725 H   0  0  0  0  0  0
  -21.1473   -6.0514   25.9076 H   0  0  0  0  0  0
  -22.0601   -2.7612   23.2839 H   0  0  0  0  0  0
  -22.4124  -11.9897   22.4796 H   0  0  0  0  0  0
  -21.1142  -13.1284   22.2637 H   0  0  0  0  0  0
  -24.6465  -15.8270   20.4858 H   0  0  0  0  0  0
  -26.2318  -15.6019   19.9469 H   0  0  0  0  0  0
  -26.7118  -32.5538   23.1187 H   0  0  0  0  0  0
  -25.0082  -33.9791   25.0516 H   0  0  0  0  0  0
  -22.6870  -31.3143   21.4117 H   0  0  0  0  0  0
  -23.3741  -35.9650   23.3315 H   0  0  0  0  0  0
  -24.3582  -36.8898   22.2049 H   0  0  0  0  0  0
  -23.7225  -37.6525   23.6627 H   0  0  0  0  0  0
  -26.0364  -31.6010   20.5939 H   0  0  0  0  0  0
  -26.8185  -30.8939   21.9769 H   0  0  0  0  0  0
  -28.0920  -29.1190   21.1507 H   0  0  0  0  0  0
  -26.0151  -25.9983   18.9854 H   0  0  0  0  0  0
  -23.9697  -27.2976   19.0390 H   0  0  0  0  0  0
  -23.7219  -30.6030   19.4078 H   0  0  0  0  0  0
  -22.7284  -29.2517   19.8657 H   0  0  0  0  0  0
  -25.1270  -36.2012   25.0846 H   0  0  0  0  0  0
  -21.0003  -28.3226   24.1427 H   0  0  0  0  0  0
  -21.6644  -26.7396   22.1235 H   0  0  0  0  0  0
  -20.5641  -26.2257   23.3614 H   0  0  0  0  0  0
  -19.6935  -25.6319   21.1177 H   0  0  0  0  0  0
  -19.6702  -27.3250   20.6781 H   0  0  0  0  0  0
  -17.4205  -26.6645   21.4045 H   0  0  0  0  0  0
  -18.0390  -26.0010   22.9015 H   0  0  0  0  0  0
  -19.7944  -30.7200   24.2356 H   0  0  0  0  0  0
  -17.5028  -31.6212   24.5220 H   0  0  0  0  0  0
  -15.5366  -30.2948   23.7652 H   0  0  0  0  0  0
  -15.8693  -28.0741   22.7134 H   0  0  0  0  0  0
  -24.5894  -30.7054   25.7799 H   0  0  0  0  0  0
  -24.8886  -32.2875   26.4890 H   0  0  0  0  0  0
  -25.8052  -30.8896   27.0245 H   0  0  0  0  0  0
  -26.2821  -29.6839   24.1111 H   0  0  0  0  0  0
  -27.4043  -29.7258   25.4520 H   0  0  0  0  0  0
  -27.8662  -30.4382   23.9238 H   0  0  0  0  0  0
  -27.2692  -33.3603   26.2085 H   0  0  0  0  0  0
  -28.3848  -32.6858   25.0303 H   0  0  0  0  0  0
  -28.0732  -31.8410   26.5375 H   0  0  0  0  0  0
  -28.2612  -38.0088   24.7506 H   0  0  0  0  0  0
  -28.1053  -36.2624   24.6310 H   0  0  0  0  0  0
  -27.2294  -37.1483   25.8867 H   0  0  0  0  0  0
  -20.9300  -29.8742   21.6932 H   0  0  0  0  0  0
  -26.0188  -38.2893   24.1399 H   0  0  0  0  0  0
  -25.1399  -21.0709   19.9516 H   0  0  0  0  0  0
  -23.9592  -23.3748   20.9070 H   0  0  0  0  0  0
  -29.5919  -18.0952   24.1770 H   0  0  0  0  0  0
  -27.9075  -18.4482   24.5332 H   0  0  0  0  0  0
  -28.8621  -19.5842   23.5944 H   0  0  0  0  0  0
  -28.9713  -21.9298   19.5374 H   0  0  0  0  0  0
  -27.7860  -20.8451   18.9021 H   0  0  0  0  0  0
  -31.0769  -16.0116   21.9923 H   0  0  0  0  0  0
  -29.6168  -15.1816   22.3607 H   0  0  0  0  0  0
  -27.4873  -20.1806   21.4915 H   0  0  0  0  0  0
  -29.1202  -20.7746   21.6187 H   0  0  0  0  0  0
  -28.2445  -24.9493   21.7114 H   0  0  0  0  0  0
  -29.1477  -23.7584   20.8375 H   0  0  0  0  0  0
  -27.2416  -18.1142   22.1706 H   0  0  0  0  0  0
  -28.0846  -16.7434   22.7652 H   0  0  0  0  0  0
  -30.0438  -16.8136   19.7811 H   0  0  0  0  0  0
  -28.5047  -16.2274   20.3357 H   0  0  0  0  0  0
  -29.7653  -19.1449   19.7458 H   0  0  0  0  0  0
  -28.1184  -18.5944   19.6937 H   0  0  0  0  0  0
  -27.9378  -25.2214   18.7131 H   0  0  0  0  0  0
  -29.5574  -25.3095   19.2718 H   0  0  0  0  0  0
  -30.0930  -18.1956   21.7894 H   0  0  0  0  0  0
  1 25  1  0  0  0
  1 30  2  0  0  0
  1 76  1  0  0  0
  2  3  1  0  0  0
  2 25  1  0  0  0
  2 86  1  0  0  0
  2 87  1  0  0  0
  3  4  1  0  0  0
  3 88  1  0  0  0
  3 89  1  0  0  0
  4  5  1  0  0  0
  4 90  1  0  0  0
  4 91  1  0  0  0
  5  6  1  0  0  0
  5 26  1  0  0  0
  5 92  1  0  0  0
  6 25  1  0  0  0
  6 93  1  0  0  0
  6 94  1  0  0  0
  7  8  2  0  0  0
  7 26  1  0  0  0
  7 29  1  0  0  0
  8  9  1  0  0  0
  8 22  1  0  0  0
  9 10  1  0  0  0
  9 27  2  0  0  0
 10 11  2  0  0  0
 10 15  1  0  0  0
 11 12  1  0  0  0
 11 95  1  0  0  0
 12 13  2  0  0  0
 12 96  1  0  0  0
 13 14  1  0  0  0
 13 31  1  0  0  0
 14 15  2  0  0  0
 14 97  1  0  0  0
 15 98  1  0  0  0
 16 17  2  0  0  0
 16 21  1  0  0  0
 16 31  1  0  0  0
 17 18  1  0  0  0
 17 99  1  0  0  0
 18 19  2  0  0  0
 18100  1  0  0  0
 19 20  1  0  0  0
 19 24  1  0  0  0
 20 21  2  0  0  0
 20101  1  0  0  0
 21 23  1  0  0  0
 22 28  1  0  0  0
 22 32  2  0  0  0
 26 27  1  0  0  0
 28102  1  0  0  0
 28103  1  0  0  0
 29104  1  0  0  0
 29105  1  0  0  0
 33 34  1  0  0  0
 33 66  1  0  0  0
 33 70  2  0  0  0
 34 36  1  0  0  0
 34 59  1  0  0  0
 34106  1  0  0  0
 35 44  2  0  0  0
 35 45  1  0  0  0
 35 68  1  0  0  0
 36 56  1  0  0  0
 36107  1  0  0  0
 37 39  1  0  0  0
 37 47  1  0  0  0
 37 66  1  0  0  0
 37108  1  0  0  0
 38 43  2  0  0  0
 38 46  1  0  0  0
 38 47  1  0  0  0
 39 64  1  0  0  0
 39 67  2  0  0  0
 40 52  1  0  0  0
 40 53  2  0  0  0
 40 58  1  0  0  0
 41109  1  0  0  0
 41110  1  0  0  0
 41111  1  0  0  0
 41 48  1  0  0  0
 42 43  1  0  0  0
 42 66  1  0  0  0
 42112  1  0  0  0
 42113  1  0  0  0
 43 44  1  0  0  0
 44114  1  0  0  0
 45 46  2  0  0  0
 45115  1  0  0  0
 46116  1  0  0  0
 47117  1  0  0  0
 47118  1  0  0  0
 48 56  1  0  0  0
 48 65  1  0  0  0
 48119  1  0  0  0
 49 50  1  0  0  0
 49 53  1  0  0  0
 49 64  1  0  0  0
 49120  1  0  0  0
 50 51  1  0  0  0
 50121  1  0  0  0
 50122  1  0  0  0
 51 52  1  0  0  0
 51123  1  0  0  0
 51124  1  0  0  0
 52125  1  0  0  0
 52126  1  0  0  0
 53 54  1  0  0  0
 54 55  2  0  0  0
 54127  1  0  0  0
 55 57  1  0  0  0
 55128  1  0  0  0
 56 69  2  0  0  0
 57 58  2  0  0  0
 57129  1  0  0  0
 58130  1  0  0  0
 59 60  1  0  0  0
 59 61  1  0  0  0
 59 62  1  0  0  0
 60131  1  0  0  0
 60132  1  0  0  0
 60133  1  0  0  0
 61134  1  0  0  0
 61135  1  0  0  0
 61136  1  0  0  0
 62137  1  0  0  0
 62138  1  0  0  0
 62139  1  0  0  0
 63 65  1  0  0  0
 63140  1  0  0  0
 63141  1  0  0  0
 63142  1  0  0  0
 64143  1  0  0  0
 65144  1  0  0  0
 68 82  1  0  0  0
 71 72  1  0  0  0
 71 73  2  0  0  0
 71145  1  0  0  0
 72 83  2  0  0  0
 72146  1  0  0  0
 73 75  1  0  0  0
 73 84  1  0  0  0
 74 79  1  0  0  0
 74147  1  0  0  0
 74148  1  0  0  0
 74149  1  0  0  0
 75 77  1  0  0  0
 75150  1  0  0  0
 75151  1  0  0  0
 76 80  1  0  0  0
 76152  1  0  0  0
 76153  1  0  0  0
 77 81  1  0  0  0
 77154  1  0  0  0
 77155  1  0  0  0
 78 82  1  0  0  0
 78 84  1  0  0  0
 78156  1  0  0  0
 78157  1  0  0  0
 79158  1  0  0  0
 79159  1  0  0  0
 79 85  1  0  0  0
 80 85  1  0  0  0
 80160  1  0  0  0
 80161  1  0  0  0
 81 85  1  0  0  0
 81162  1  0  0  0
 81163  1  0  0  0
 82164  1  0  0  0
 82165  1  0  0  0
 83 84  1  0  0  0
 85166  1  0  0  0
M  CHG  1  85   1
M  ISO  4   1 100  68 101  76 100  82 101
M  END
> <chiral flag>
0

> <version>
0

> <s_m_source_file>
/data/baiqing/PycharmProjects/Reinvent-master-3.2/result/LINK_invent/BTK/process_docking_weight1_custom_sum_contain_oxygen_bond_distance_aromatic_linkinvent_7_9_3/rearranged_h_0045.sdf

> <i_m_source_file_index>
68

> <r_mmod_Potential_Energy-OPLS-2005>
-165.588668823242

> <r_mmod_Stretch_Energy-OPLS-2005>
35.3890609741211

> <r_mmod_Bend_Energy-OPLS-2005>
112.975944519043

> <r_mmod_Torsional_Energy-OPLS-2005>
207.961608886719

> <r_mmod_Improper_Torsional_Energy-OPLS-2005>
2.84051990509033

> <r_mmod_Van_der_Waal_Energy-OPLS-2005>
125.975891113281

> <r_mmod_Electrostatic_Energy-OPLS-2005>
-191.809509277344

> <r_mmod_Solvation_Energy-OPLS-2005>
-468.118835449219

> <b_mmod_Minimization_Converged-OPLS-2005>
0

> <r_mmod_RMS_Derivative-OPLS-2005>
2.92510008811951

$$$$
69
                    3D
 Structure written by MMmdl.
157165  0  0  1  0            999 V2000
  -30.7193  -14.4896   20.5447 C   0  0  0  0  0  0
  -30.4112  -12.3119   19.4342 C   0  0  0  0  0  0
  -29.4907  -12.4933   18.2109 C   0  0  0  0  0  0
  -28.0133  -12.3572   18.6256 C   0  0  0  0  0  0
  -27.6553  -13.2156   19.8690 C   0  0  2  0  0  0
  -28.6980  -13.0402   20.9962 C   0  0  0  0  0  0
  -25.2561  -13.8184   20.5696 C   0  0  0  0  0  0
  -24.1821  -13.0448   20.9191 C   0  0  0  0  0  0
  -24.6384  -11.6918   20.8745 C   0  0  0  0  0  0
  -23.9058  -10.4297   21.0408 C   0  0  0  0  0  0
  -24.3608   -9.4214   21.9187 C   0  0  0  0  0  0
  -23.6287   -8.2248   22.0757 C   0  0  0  0  0  0
  -22.4272   -8.0283   21.3544 C   0  0  0  0  0  0
  -21.9905   -9.0256   20.4646 C   0  0  0  0  0  0
  -22.7231  -10.2138   20.3057 C   0  0  0  0  0  0
  -21.6853   -6.0733   22.5278 C   0  0  0  0  0  0
  -21.4014   -6.5638   23.8211 C   0  0  0  0  0  0
  -21.3660   -5.6791   24.9174 C   0  0  0  0  0  0
  -21.6045   -4.3053   24.7225 C   0  0  0  0  0  0
  -21.8819   -3.8145   23.4346 C   0  0  0  0  0  0
  -21.9192   -4.6961   22.3403 C   0  0  0  0  0  0
  -22.7844  -13.5244   21.1856 C   0  0  0  0  0  0
  -22.1660   -4.2146   21.0981 F   0  0  0  0  0  0
  -21.5629   -3.4539   25.7739 F   0  0  0  0  0  0
  -30.0245  -13.3250   20.4309 N   0  0  0  0  0  0
  -26.2994  -12.9366   20.3357 N   0  0  0  0  0  0
  -25.9314  -11.6519   20.5778 N   0  0  0  0  0  0
  -22.0478  -12.8232   22.0403 N   0  0  0  0  0  0
  -25.4289  -15.1905   20.4107 N   0  0  0  0  0  0
  -31.8671  -14.6132   20.1112 O   0  0  0  0  0  0
  -21.6640   -6.8877   21.4239 O   0  0  0  0  0  0
  -22.3534  -14.5551   20.6708 O   0  0  0  0  0  0
  -24.6165  -31.8676   23.2100 C   0  0  0  0  0  0
  -25.9055  -32.4818   23.8391 C   0  0  1  0  0  0
  -27.2210  -27.4061   20.0961 C   0  0  0  0  0  0
  -25.5911  -33.8617   24.2323 N   0  0  0  0  0  0
  -23.4042  -30.4924   21.5515 C   0  0  2  0  0  0
  -24.8481  -28.9620   20.1095 C   0  0  0  0  0  0
  -22.7418  -29.4651   22.4977 C   0  0  0  0  0  0
  -18.0271  -28.1363   22.8479 C   0  0  0  0  0  0
  -24.1495  -36.7305   23.2637 C   0  0  0  0  0  0
  -25.9372  -30.8240   21.3689 C   0  0  0  0  0  0
  -26.0112  -29.4585   20.7106 C   0  0  0  0  0  0
  -27.2005  -28.6886   20.7002 C   0  0  0  0  0  0
  -26.0418  -26.9464   19.4640 C   0  0  0  0  0  0
  -24.8600  -27.7068   19.4815 C   0  0  0  0  0  0
  -23.6126  -29.8314   20.1640 C   0  0  0  0  0  0
  -25.4120  -36.3104   24.0331 C   0  0  1  0  0  0
  -20.5861  -28.3661   23.1305 C   0  0  2  0  0  0
  -20.6767  -26.9394   22.5411 C   0  0  0  0  0  0
  -19.5752  -26.6376   21.5203 C   0  0  0  0  0  0
  -18.1927  -26.7908   22.1609 C   0  0  0  0  0  0
  -19.1520  -28.8826   23.2891 C   0  0  0  0  0  0
  -18.9450  -30.1431   23.8904 C   0  0  0  0  0  0
  -17.6455  -30.6574   24.0553 C   0  0  0  0  0  0
  -25.9045  -34.9470   23.5122 C   0  0  0  0  0  0
  -16.5345  -29.9073   23.6317 C   0  0  0  0  0  0
  -16.7260  -28.6487   23.0340 C   0  0  0  0  0  0
  -26.4477  -31.6602   25.0727 C   0  0  0  0  0  0
  -25.3742  -31.3714   26.1478 C   0  0  0  0  0  0
  -27.0313  -30.3039   24.6122 C   0  0  0  0  0  0
  -27.6043  -32.4335   25.7487 C   0  0  0  0  0  0
  -27.5588  -37.1812   24.8464 C   0  0  0  0  0  0
  -21.4144  -29.3029   22.3717 N   0  0  0  0  0  0
  -26.4306  -37.3786   23.9399 N   0  0  0  0  0  0
  -24.6709  -31.0759   22.1010 N   0  0  0  0  0  0
  -23.4192  -28.8182   23.3009 O   0  0  0  0  0  0
  -28.3715  -26.6338   20.1428 O   0  0  0  0  0  0
  -26.5597  -34.8917   22.4679 O   0  0  0  0  0  0
  -23.5356  -32.1436   23.7485 O   0  0  0  0  0  0
  -30.1348  -22.0630   20.6136 C   0  0  0  0  0  0
  -29.7111  -20.7875   20.9243 C   0  0  0  0  0  0
  -28.0902  -22.2495   21.4371 C   0  0  0  0  0  0
  -26.7917  -22.7725   21.9634 C   0  0  0  0  0  0
  -30.4679  -19.4748   20.8670 C   0  0  0  0  0  0
  -29.6712  -18.1414   21.0081 C   0  0  0  0  0  0
  -29.2410  -24.4387   20.9359 C   0  0  0  0  0  0
  -30.6477  -16.9277   21.0278 C   0  0  0  0  0  0
  -28.2226  -25.1947   20.0453 C   0  0  0  0  0  0
  -29.1371  -22.9491   20.9566 N   0  0  0  0  0  0
  -28.4358  -20.9517   21.4045 N   0  3  0  0  0  0
  -30.0496  -15.5728   20.9999 N   0  0  0  0  0  0
  -31.4576  -12.3895   19.1337 H   0  0  0  0  0  0
  -30.2976  -11.3116   19.8547 H   0  0  0  0  0  0
  -29.7316  -11.7549   17.4450 H   0  0  0  0  0  0
  -29.6606  -13.4717   17.7586 H   0  0  0  0  0  0
  -27.8280  -11.3036   18.8383 H   0  0  0  0  0  0
  -27.3611  -12.6152   17.7902 H   0  0  0  0  0  0
  -27.6879  -14.2572   19.5485 H   0  0  0  0  0  0
  -28.6747  -12.0210   21.3842 H   0  0  0  0  0  0
  -28.4666  -13.6865   21.8440 H   0  0  0  0  0  0
  -25.2749   -9.5694   22.4767 H   0  0  0  0  0  0
  -23.9995   -7.4641   22.7476 H   0  0  0  0  0  0
  -21.0838   -8.8771   19.8951 H   0  0  0  0  0  0
  -22.3684  -10.9676   19.6168 H   0  0  0  0  0  0
  -21.2006   -7.6147   23.9712 H   0  0  0  0  0  0
  -21.1484   -6.0524   25.9077 H   0  0  0  0  0  0
  -22.0597   -2.7607   23.2849 H   0  0  0  0  0  0
  -22.4075  -11.9879   22.4779 H   0  0  0  0  0  0
  -21.1101  -13.1271   22.2616 H   0  0  0  0  0  0
  -24.6652  -15.8490   20.5208 H   0  0  0  0  0  0
  -26.2823  -15.6250   20.0829 H   0  0  0  0  0  0
  -26.7122  -32.5518   23.1148 H   0  0  0  0  0  0
  -25.0089  -33.9780   25.0488 H   0  0  0  0  0  0
  -22.6926  -31.3094   21.4153 H   0  0  0  0  0  0
  -23.3758  -35.9639   23.3309 H   0  0  0  0  0  0
  -24.3584  -36.8910   22.2049 H   0  0  0  0  0  0
  -23.7255  -37.6513   23.6649 H   0  0  0  0  0  0
  -26.0586  -31.5930   20.6044 H   0  0  0  0  0  0
  -26.8215  -30.8703   21.9926 H   0  0  0  0  0  0
  -28.0954  -29.0640   21.1774 H   0  0  0  0  0  0
  -26.0119  -25.9977   18.9482 H   0  0  0  0  0  0
  -23.9693  -27.3238   19.0027 H   0  0  0  0  0  0
  -23.7220  -30.6096   19.4081 H   0  0  0  0  0  0
  -22.7350  -29.2549   19.8663 H   0  0  0  0  0  0
  -25.1303  -36.1968   25.0825 H   0  0  0  0  0  0
  -20.9950  -28.3232   24.1425 H   0  0  0  0  0  0
  -20.5671  -26.2264   23.3599 H   0  0  0  0  0  0
  -21.6640  -26.7441   22.1205 H   0  0  0  0  0  0
  -19.6919  -25.6293   21.1220 H   0  0  0  0  0  0
  -19.6693  -27.3192   20.6737 H   0  0  0  0  0  0
  -17.4199  -26.6643   21.4010 H   0  0  0  0  0  0
  -18.0333  -26.0050   22.9002 H   0  0  0  0  0  0
  -19.7933  -30.7234   24.2284 H   0  0  0  0  0  0
  -17.5014  -31.6251   24.5159 H   0  0  0  0  0  0
  -15.5347  -30.2978   23.7645 H   0  0  0  0  0  0
  -15.8655  -28.0814   22.7052 H   0  0  0  0  0  0
  -24.5913  -30.7056   25.7827 H   0  0  0  0  0  0
  -24.8934  -32.2869   26.4932 H   0  0  0  0  0  0
  -25.8101  -30.8891   27.0236 H   0  0  0  0  0  0
  -26.2863  -29.6795   24.1178 H   0  0  0  0  0  0
  -27.4072  -29.7284   25.4590 H   0  0  0  0  0  0
  -27.8701  -30.4339   23.9279 H   0  0  0  0  0  0
  -27.2650  -33.3631   26.2070 H   0  0  0  0  0  0
  -28.3849  -32.6910   25.0315 H   0  0  0  0  0  0
  -28.0716  -31.8463   26.5406 H   0  0  0  0  0  0
  -28.2616  -38.0100   24.7510 H   0  0  0  0  0  0
  -28.1076  -36.2633   24.6302 H   0  0  0  0  0  0
  -27.2293  -37.1467   25.8862 H   0  0  0  0  0  0
  -20.9300  -29.8757   21.6947 H   0  0  0  0  0  0
  -26.0197  -38.2869   24.1387 H   0  0  0  0  0  0
  -31.0878  -22.4010   20.2268 H   0  0  0  0  0  0
  -26.9677  -23.6973   22.5117 H   0  0  0  0  0  0
  -26.3572  -22.0306   22.6328 H   0  0  0  0  0  0
  -26.1208  -22.9464   21.1225 H   0  0  0  0  0  0
  -31.2299  -19.5107   21.6463 H   0  0  0  0  0  0
  -31.0165  -19.4554   19.9246 H   0  0  0  0  0  0
  -28.9688  -18.0489   20.1791 H   0  0  0  0  0  0
  -29.0854  -18.1487   21.9279 H   0  0  0  0  0  0
  -29.1470  -24.7776   21.9677 H   0  0  0  0  0  0
  -30.2524  -24.6969   20.6227 H   0  0  0  0  0  0
  -31.2863  -16.9921   21.9105 H   0  0  0  0  0  0
  -31.3163  -17.0374   20.1713 H   0  0  0  0  0  0
  -27.2304  -24.8826   20.3632 H   0  0  0  0  0  0
  -28.3376  -24.8933   19.0034 H   0  0  0  0  0  0
  -27.8385  -20.2005   21.7312 H   0  0  0  0  0  0
  -29.0979  -15.4483   21.3128 H   0  0  0  0  0  0
  1 25  1  0  0  0
  1 30  2  0  0  0
  1 82  1  0  0  0
  2  3  1  0  0  0
  2 25  1  0  0  0
  2 83  1  0  0  0
  2 84  1  0  0  0
  3  4  1  0  0  0
  3 85  1  0  0  0
  3 86  1  0  0  0
  4  5  1  0  0  0
  4 87  1  0  0  0
  4 88  1  0  0  0
  5  6  1  0  0  0
  5 26  1  0  0  0
  5 89  1  0  0  0
  6 25  1  0  0  0
  6 90  1  0  0  0
  6 91  1  0  0  0
  7  8  2  0  0  0
  7 26  1  0  0  0
  7 29  1  0  0  0
  8  9  1  0  0  0
  8 22  1  0  0  0
  9 10  1  0  0  0
  9 27  2  0  0  0
 10 11  2  0  0  0
 10 15  1  0  0  0
 11 12  1  0  0  0
 11 92  1  0  0  0
 12 13  2  0  0  0
 12 93  1  0  0  0
 13 14  1  0  0  0
 13 31  1  0  0  0
 14 15  2  0  0  0
 14 94  1  0  0  0
 15 95  1  0  0  0
 16 17  2  0  0  0
 16 21  1  0  0  0
 16 31  1  0  0  0
 17 18  1  0  0  0
 17 96  1  0  0  0
 18 19  2  0  0  0
 18 97  1  0  0  0
 19 20  1  0  0  0
 19 24  1  0  0  0
 20 21  2  0  0  0
 20 98  1  0  0  0
 21 23  1  0  0  0
 22 28  1  0  0  0
 22 32  2  0  0  0
 26 27  1  0  0  0
 28 99  1  0  0  0
 28100  1  0  0  0
 29101  1  0  0  0
 29102  1  0  0  0
 33 34  1  0  0  0
 33 66  1  0  0  0
 33 70  2  0  0  0
 34 36  1  0  0  0
 34 59  1  0  0  0
 34103  1  0  0  0
 35 44  2  0  0  0
 35 45  1  0  0  0
 35 68  1  0  0  0
 36 56  1  0  0  0
 36104  1  0  0  0
 37 39  1  0  0  0
 37 47  1  0  0  0
 37 66  1  0  0  0
 37105  1  0  0  0
 38 43  2  0  0  0
 38 46  1  0  0  0
 38 47  1  0  0  0
 39 64  1  0  0  0
 39 67  2  0  0  0
 40 52  1  0  0  0
 40 53  2  0  0  0
 40 58  1  0  0  0
 41106  1  0  0  0
 41107  1  0  0  0
 41108  1  0  0  0
 41 48  1  0  0  0
 42 43  1  0  0  0
 42 66  1  0  0  0
 42109  1  0  0  0
 42110  1  0  0  0
 43 44  1  0  0  0
 44111  1  0  0  0
 45 46  2  0  0  0
 45112  1  0  0  0
 46113  1  0  0  0
 47114  1  0  0  0
 47115  1  0  0  0
 48 56  1  0  0  0
 48 65  1  0  0  0
 48116  1  0  0  0
 49 50  1  0  0  0
 49 53  1  0  0  0
 49 64  1  0  0  0
 49117  1  0  0  0
 50 51  1  0  0  0
 50118  1  0  0  0
 50119  1  0  0  0
 51 52  1  0  0  0
 51120  1  0  0  0
 51121  1  0  0  0
 52122  1  0  0  0
 52123  1  0  0  0
 53 54  1  0  0  0
 54 55  2  0  0  0
 54124  1  0  0  0
 55 57  1  0  0  0
 55125  1  0  0  0
 56 69  2  0  0  0
 57 58  2  0  0  0
 57126  1  0  0  0
 58127  1  0  0  0
 59 60  1  0  0  0
 59 61  1  0  0  0
 59 62  1  0  0  0
 60128  1  0  0  0
 60129  1  0  0  0
 60130  1  0  0  0
 61131  1  0  0  0
 61132  1  0  0  0
 61133  1  0  0  0
 62134  1  0  0  0
 62135  1  0  0  0
 62136  1  0  0  0
 63 65  1  0  0  0
 63137  1  0  0  0
 63138  1  0  0  0
 63139  1  0  0  0
 64140  1  0  0  0
 65141  1  0  0  0
 68 79  1  0  0  0
 71 72  2  0  0  0
 71 80  1  0  0  0
 71142  1  0  0  0
 72 75  1  0  0  0
 72 81  1  0  0  0
 73 74  1  0  0  0
 73 80  1  0  0  0
 73 81  2  0  0  0
 74143  1  0  0  0
 74144  1  0  0  0
 74145  1  0  0  0
 75 76  1  0  0  0
 75146  1  0  0  0
 75147  1  0  0  0
 76 78  1  0  0  0
 76148  1  0  0  0
 76149  1  0  0  0
 77 79  1  0  0  0
 77 80  1  0  0  0
 77150  1  0  0  0
 77151  1  0  0  0
 78 82  1  0  0  0
 78152  1  0  0  0
 78153  1  0  0  0
 79154  1  0  0  0
 79155  1  0  0  0
 81156  1  0  0  0
 82157  1  0  0  0
M  CHG  1  81   1
M  ISO  4   1 100  68 101  79 101  82 100
M  END
> <chiral flag>
0

> <version>
0

> <s_m_source_file>
/data/baiqing/PycharmProjects/Reinvent-master-3.2/result/LINK_invent/BTK/process_docking_weight1_custom_sum_contain_oxygen_bond_distance_aromatic_linkinvent_7_9_3/rearranged_h_0045.sdf

> <i_m_source_file_index>
69

> <r_mmod_Potential_Energy-OPLS-2005>
-126.766563415527

> <r_mmod_Stretch_Energy-OPLS-2005>
40.6794967651367

> <r_mmod_Bend_Energy-OPLS-2005>
106.143974304199

> <r_mmod_Torsional_Energy-OPLS-2005>
214.352844238281

> <r_mmod_Improper_Torsional_Energy-OPLS-2005>
4.19606018066406

> <r_mmod_Van_der_Waal_Energy-OPLS-2005>
133.310348510742

> <r_mmod_Electrostatic_Energy-OPLS-2005>
-217.647232055664

> <r_mmod_Solvation_Energy-OPLS-2005>
-427.296661376953

> <b_mmod_Minimization_Converged-OPLS-2005>
0

> <r_mmod_RMS_Derivative-OPLS-2005>
0.74856960773468

$$$$
70
                    3D
 Structure written by MMmdl.
163170  0  0  1  0            999 V2000
  -30.6750  -14.5250   20.5628 C   0  0  0  0  0  0
  -30.4301  -12.3254   19.4582 C   0  0  0  0  0  0
  -29.5138  -12.5035   18.2292 C   0  0  0  0  0  0
  -28.0304  -12.3646   18.6275 C   0  0  0  0  0  0
  -27.6644  -13.2106   19.8768 C   0  0  2  0  0  0
  -28.7011  -13.0118   21.0037 C   0  0  0  0  0  0
  -25.2609  -13.8140   20.5693 C   0  0  0  0  0  0
  -24.1860  -13.0414   20.9157 C   0  0  0  0  0  0
  -24.6426  -11.6890   20.8723 C   0  0  0  0  0  0
  -23.9084  -10.4266   21.0384 C   0  0  0  0  0  0
  -24.3621   -9.4187   21.9179 C   0  0  0  0  0  0
  -23.6281   -8.2239   22.0757 C   0  0  0  0  0  0
  -22.4277   -8.0264   21.3524 C   0  0  0  0  0  0
  -21.9905   -9.0248   20.4646 C   0  0  0  0  0  0
  -22.7246  -10.2117   20.3047 C   0  0  0  0  0  0
  -21.6853   -6.0719   22.5262 C   0  0  0  0  0  0
  -21.4010   -6.5625   23.8184 C   0  0  0  0  0  0
  -21.3671   -5.6785   24.9148 C   0  0  0  0  0  0
  -21.6054   -4.3046   24.7206 C   0  0  0  0  0  0
  -21.8823   -3.8135   23.4321 C   0  0  0  0  0  0
  -21.9191   -4.6943   22.3382 C   0  0  0  0  0  0
  -22.7881  -13.5211   21.1810 C   0  0  0  0  0  0
  -22.1664   -4.2133   21.0957 F   0  0  0  0  0  0
  -21.5634   -3.4531   25.7720 F   0  0  0  0  0  0
  -30.0291  -13.3273   20.4605 N   0  0  0  0  0  0
  -26.3041  -12.9339   20.3347 N   0  0  0  0  0  0
  -25.9352  -11.6497   20.5746 N   0  0  0  0  0  0
  -22.0535  -12.8196   22.0372 N   0  0  0  0  0  0
  -25.4308  -15.1858   20.4112 N   0  0  0  0  0  0
  -31.8032  -14.6829   20.0843 O   0  0  0  0  0  0
  -21.6637   -6.8868   21.4230 O   0  0  0  0  0  0
  -22.3570  -14.5539   20.6673 O   0  0  0  0  0  0
  -24.6114  -31.8684   23.2065 C   0  0  0  0  0  0
  -25.8989  -32.4837   23.8383 C   0  0  1  0  0  0
  -27.2379  -27.4428   20.1032 C   0  0  0  0  0  0
  -25.5847  -33.8638   24.2344 N   0  0  0  0  0  0
  -23.4020  -30.4856   21.5469 C   0  0  2  0  0  0
  -24.8505  -28.9511   20.1144 C   0  0  0  0  0  0
  -22.7441  -29.4624   22.4992 C   0  0  0  0  0  0
  -18.0304  -28.1416   22.8511 C   0  0  0  0  0  0
  -24.1474  -36.7298   23.2645 C   0  0  0  0  0  0
  -25.9248  -30.8396   21.3538 C   0  0  0  0  0  0
  -26.0074  -29.4745   20.7031 C   0  0  0  0  0  0
  -27.2089  -28.7330   20.6839 C   0  0  0  0  0  0
  -26.0688  -26.9316   19.5105 C   0  0  0  0  0  0
  -24.8735  -27.6790   19.5169 C   0  0  0  0  0  0
  -23.6128  -29.8159   20.1621 C   0  0  0  0  0  0
  -25.4101  -36.3117   24.0362 C   0  0  1  0  0  0
  -20.5891  -28.3649   23.1341 C   0  0  2  0  0  0
  -20.6755  -26.9377   22.5446 C   0  0  0  0  0  0
  -19.5732  -26.6397   21.5243 C   0  0  0  0  0  0
  -18.1916  -26.7970   22.1646 C   0  0  0  0  0  0
  -19.1556  -28.8854   23.2921 C   0  0  0  0  0  0
  -18.9471  -30.1462   23.8931 C   0  0  0  0  0  0
  -17.6468  -30.6602   24.0584 C   0  0  0  0  0  0
  -25.9010  -34.9493   23.5150 C   0  0  0  0  0  0
  -16.5354  -29.9118   23.6356 C   0  0  0  0  0  0
  -16.7283  -28.6552   23.0349 C   0  0  0  0  0  0
  -26.4450  -31.6603   25.0701 C   0  0  0  0  0  0
  -25.3727  -31.3730   26.1460 C   0  0  0  0  0  0
  -27.0234  -30.3062   24.5995 C   0  0  0  0  0  0
  -27.6043  -32.4297   25.7459 C   0  0  0  0  0  0
  -27.5598  -37.1799   24.8478 C   0  0  0  0  0  0
  -21.4154  -29.3024   22.3762 N   0  0  0  0  0  0
  -26.4309  -37.3795   23.9412 N   0  0  0  0  0  0
  -24.6639  -31.0780   22.0965 N   0  0  0  0  0  0
  -23.4197  -28.8138   23.3003 O   0  0  0  0  0  0
  -28.3981  -26.6962   20.0786 O   0  0  0  0  0  0
  -26.5578  -34.8939   22.4718 O   0  0  0  0  0  0
  -23.5293  -32.1420   23.7470 O   0  0  0  0  0  0
  -30.2065  -23.6189   19.8571 C   0  0  0  0  0  0
  -28.3472  -26.4787   22.5547 C   0  0  0  0  0  0
  -29.9911  -15.7941   21.1609 C   0  0  0  0  0  0
  -29.2727  -20.6541   20.1559 C   0  0  0  0  0  0
  -28.0216  -24.3948   21.0737 C   0  0  0  0  0  0
  -29.4193  -16.7783   20.0833 C   0  0  0  0  0  0
  -29.0827  -19.2317   20.7829 C   0  0  0  0  0  0
  -28.7576  -23.2662   20.2579 C   0  0  2  0  0  0
  -28.6582  -25.8205   21.1959 C   0  0  1  0  0  0
  -28.6693  -21.8581   20.9526 C   0  0  2  0  0  0
  -29.9218  -18.1870   20.1128 N   0  3  0  0  0  0
  -29.3407  -21.9331   22.1978 O   0  0  0  0  0  0
  -31.4775  -12.4160   19.1635 H   0  0  0  0  0  0
  -30.3239  -11.3203   19.8722 H   0  0  0  0  0  0
  -29.7689  -11.7681   17.4641 H   0  0  0  0  0  0
  -29.6864  -13.4846   17.7877 H   0  0  0  0  0  0
  -27.8385  -11.3092   18.8267 H   0  0  0  0  0  0
  -27.3920  -12.6370   17.7864 H   0  0  0  0  0  0
  -27.7053  -14.2556   19.5737 H   0  0  0  0  0  0
  -28.6878  -11.9774   21.3520 H   0  0  0  0  0  0
  -28.4472  -13.6074   21.8786 H   0  0  0  0  0  0
  -25.2771   -9.5641   22.4744 H   0  0  0  0  0  0
  -23.9970   -7.4631   22.7480 H   0  0  0  0  0  0
  -21.0836   -8.8774   19.8957 H   0  0  0  0  0  0
  -22.3718  -10.9647   19.6145 H   0  0  0  0  0  0
  -21.2003   -7.6135   23.9672 H   0  0  0  0  0  0
  -21.1504   -6.0520   25.9053 H   0  0  0  0  0  0
  -22.0600   -2.7595   23.2821 H   0  0  0  0  0  0
  -22.4148  -11.9820   22.4695 H   0  0  0  0  0  0
  -21.1159  -13.1207   22.2613 H   0  0  0  0  0  0
  -24.6617  -15.8347   20.5325 H   0  0  0  0  0  0
  -26.2716  -15.6281   20.0662 H   0  0  0  0  0  0
  -26.7039  -32.5573   23.1126 H   0  0  0  0  0  0
  -24.9978  -33.9813   25.0479 H   0  0  0  0  0  0
  -22.6886  -31.2986   21.4051 H   0  0  0  0  0  0
  -23.3764  -35.9596   23.3314 H   0  0  0  0  0  0
  -24.3578  -36.8884   22.2054 H   0  0  0  0  0  0
  -23.7199  -37.6501   23.6643 H   0  0  0  0  0  0
  -26.0233  -31.6049   20.5830 H   0  0  0  0  0  0
  -26.8166  -30.9006   21.9646 H   0  0  0  0  0  0
  -28.1057  -29.1416   21.1266 H   0  0  0  0  0  0
  -26.0855  -25.9535   19.0495 H   0  0  0  0  0  0
  -23.9802  -27.2729   19.0652 H   0  0  0  0  0  0
  -23.7228  -30.5858   19.3971 H   0  0  0  0  0  0
  -22.7402  -29.2273   19.8728 H   0  0  0  0  0  0
  -25.1273  -36.1989   25.0861 H   0  0  0  0  0  0
  -20.9991  -28.3160   24.1445 H   0  0  0  0  0  0
  -20.5636  -26.2230   23.3622 H   0  0  0  0  0  0
  -21.6624  -26.7405   22.1217 H   0  0  0  0  0  0
  -19.6862  -25.6315   21.1237 H   0  0  0  0  0  0
  -19.6673  -27.3245   20.6813 H   0  0  0  0  0  0
  -17.4193  -26.6750   21.4029 H   0  0  0  0  0  0
  -18.0247  -26.0124   22.9057 H   0  0  0  0  0  0
  -19.7937  -30.7293   24.2260 H   0  0  0  0  0  0
  -17.5036  -31.6286   24.5202 H   0  0  0  0  0  0
  -15.5353  -30.3034   23.7677 H   0  0  0  0  0  0
  -15.8694  -28.0912   22.6987 H   0  0  0  0  0  0
  -24.5915  -30.7041   25.7839 H   0  0  0  0  0  0
  -24.8886  -32.2881   26.4888 H   0  0  0  0  0  0
  -25.8085  -30.8955   27.0248 H   0  0  0  0  0  0
  -26.2748  -29.6885   24.1018 H   0  0  0  0  0  0
  -27.4017  -29.7235   25.4402 H   0  0  0  0  0  0
  -27.8575  -30.4431   23.9111 H   0  0  0  0  0  0
  -27.2698  -33.3615   26.2049 H   0  0  0  0  0  0
  -28.3854  -32.6820   25.0273 H   0  0  0  0  0  0
  -28.0702  -31.8401   26.5367 H   0  0  0  0  0  0
  -28.2611  -38.0105   24.7535 H   0  0  0  0  0  0
  -28.1081  -36.2638   24.6265 H   0  0  0  0  0  0
  -27.2310  -37.1401   25.8880 H   0  0  0  0  0  0
  -20.9294  -29.8820   21.7067 H   0  0  0  0  0  0
  -26.0204  -38.2867   24.1444 H   0  0  0  0  0  0
  -30.2561  -24.5769   19.3382 H   0  0  0  0  0  0
  -30.6353  -22.8865   19.1740 H   0  0  0  0  0  0
  -30.8613  -23.6705   20.7261 H   0  0  0  0  0  0
  -28.7321  -25.8772   23.3784 H   0  0  0  0  0  0
  -27.2765  -26.6143   22.7136 H   0  0  0  0  0  0
  -28.8280  -27.4519   22.6310 H   0  0  0  0  0  0
  -29.2143  -15.5522   21.8801 H   0  0  0  0  0  0
  -30.7460  -16.3069   21.7585 H   0  0  0  0  0  0
  -28.8243  -20.6471   19.1614 H   0  0  0  0  0  0
  -30.3354  -20.8277   19.9985 H   0  0  0  0  0  0
  -27.8816  -24.0316   22.0892 H   0  0  0  0  0  0
  -27.0016  -24.4907   20.7084 H   0  0  0  0  0  0
  -28.3300  -16.7673   20.1028 H   0  0  0  0  0  0
  -29.6748  -16.4098   19.0883 H   0  0  0  0  0  0
  -28.0239  -18.9729   20.7299 H   0  0  0  0  0  0
  -29.3454  -19.2447   21.8420 H   0  0  0  0  0  0
  -28.2021  -23.1870   19.3201 H   0  0  0  0  0  0
  -29.7413  -25.7137   21.2249 H   0  0  0  0  0  0
  -27.6164  -21.6423   21.1503 H   0  0  0  0  0  0
  -29.9847  -18.4587   19.1446 H   0  0  0  0  0  0
  -30.8606  -18.2178   20.4745 H   0  0  0  0  0  0
  -28.8846  -22.5721   22.7381 H   0  0  0  0  0  0
  1 25  1  0  0  0
  1 30  2  0  0  0
  1 73  1  0  0  0
  2  3  1  0  0  0
  2 25  1  0  0  0
  2 83  1  0  0  0
  2 84  1  0  0  0
  3  4  1  0  0  0
  3 85  1  0  0  0
  3 86  1  0  0  0
  4  5  1  0  0  0
  4 87  1  0  0  0
  4 88  1  0  0  0
  5  6  1  0  0  0
  5 26  1  0  0  0
  5 89  1  0  0  0
  6 25  1  0  0  0
  6 90  1  0  0  0
  6 91  1  0  0  0
  7  8  2  0  0  0
  7 26  1  0  0  0
  7 29  1  0  0  0
  8  9  1  0  0  0
  8 22  1  0  0  0
  9 10  1  0  0  0
  9 27  2  0  0  0
 10 11  2  0  0  0
 10 15  1  0  0  0
 11 12  1  0  0  0
 11 92  1  0  0  0
 12 13  2  0  0  0
 12 93  1  0  0  0
 13 14  1  0  0  0
 13 31  1  0  0  0
 14 15  2  0  0  0
 14 94  1  0  0  0
 15 95  1  0  0  0
 16 17  2  0  0  0
 16 21  1  0  0  0
 16 31  1  0  0  0
 17 18  1  0  0  0
 17 96  1  0  0  0
 18 19  2  0  0  0
 18 97  1  0  0  0
 19 20  1  0  0  0
 19 24  1  0  0  0
 20 21  2  0  0  0
 20 98  1  0  0  0
 21 23  1  0  0  0
 22 28  1  0  0  0
 22 32  2  0  0  0
 26 27  1  0  0  0
 28 99  1  0  0  0
 28100  1  0  0  0
 29101  1  0  0  0
 29102  1  0  0  0
 33 34  1  0  0  0
 33 66  1  0  0  0
 33 70  2  0  0  0
 34 36  1  0  0  0
 34 59  1  0  0  0
 34103  1  0  0  0
 35 44  2  0  0  0
 35 45  1  0  0  0
 35 68  1  0  0  0
 36 56  1  0  0  0
 36104  1  0  0  0
 37 39  1  0  0  0
 37 47  1  0  0  0
 37 66  1  0  0  0
 37105  1  0  0  0
 38 43  2  0  0  0
 38 46  1  0  0  0
 38 47  1  0  0  0
 39 64  1  0  0  0
 39 67  2  0  0  0
 40 52  1  0  0  0
 40 53  2  0  0  0
 40 58  1  0  0  0
 41106  1  0  0  0
 41107  1  0  0  0
 41108  1  0  0  0
 41 48  1  0  0  0
 42 43  1  0  0  0
 42 66  1  0  0  0
 42109  1  0  0  0
 42110  1  0  0  0
 43 44  1  0  0  0
 44111  1  0  0  0
 45 46  2  0  0  0
 45112  1  0  0  0
 46113  1  0  0  0
 47114  1  0  0  0
 47115  1  0  0  0
 48 56  1  0  0  0
 48 65  1  0  0  0
 48116  1  0  0  0
 49 50  1  0  0  0
 49 53  1  0  0  0
 49 64  1  0  0  0
 49117  1  0  0  0
 50 51  1  0  0  0
 50118  1  0  0  0
 50119  1  0  0  0
 51 52  1  0  0  0
 51120  1  0  0  0
 51121  1  0  0  0
 52122  1  0  0  0
 52123  1  0  0  0
 53 54  1  0  0  0
 54 55  2  0  0  0
 54124  1  0  0  0
 55 57  1  0  0  0
 55125  1  0  0  0
 56 69  2  0  0  0
 57 58  2  0  0  0
 57126  1  0  0  0
 58127  1  0  0  0
 59 60  1  0  0  0
 59 61  1  0  0  0
 59 62  1  0  0  0
 60128  1  0  0  0
 60129  1  0  0  0
 60130  1  0  0  0
 61131  1  0  0  0
 61132  1  0  0  0
 61133  1  0  0  0
 62134  1  0  0  0
 62135  1  0  0  0
 62136  1  0  0  0
 63 65  1  0  0  0
 63137  1  0  0  0
 63138  1  0  0  0
 63139  1  0  0  0
 64140  1  0  0  0
 65141  1  0  0  0
 68 79  1  0  0  0
 71142  1  0  0  0
 71143  1  0  0  0
 71144  1  0  0  0
 71 78  1  0  0  0
 72145  1  0  0  0
 72146  1  0  0  0
 72147  1  0  0  0
 72 79  1  0  0  0
 73 76  1  0  0  0
 73148  1  0  0  0
 73149  1  0  0  0
 74 77  1  0  0  0
 74 80  1  0  0  0
 74150  1  0  0  0
 74151  1  0  0  0
 75 78  1  0  0  0
 75 79  1  0  0  0
 75152  1  0  0  0
 75153  1  0  0  0
 76 81  1  0  0  0
 76154  1  0  0  0
 76155  1  0  0  0
 77 81  1  0  0  0
 77156  1  0  0  0
 77157  1  0  0  0
 78 80  1  0  0  0
 78158  1  0  0  0
 79159  1  0  0  0
 80 82  1  0  0  0
 80160  1  0  0  0
 81161  1  0  0  0
 81162  1  0  0  0
 82163  1  0  0  0
M  CHG  1  81   1
M  ISO  4   1 100  68 101  73 100  79 101
M  END
> <chiral flag>
0

> <version>
0

> <s_m_source_file>
/data/baiqing/PycharmProjects/Reinvent-master-3.2/result/LINK_invent/BTK/process_docking_weight1_custom_sum_contain_oxygen_bond_distance_aromatic_linkinvent_7_9_3/rearranged_h_0045.sdf

> <i_m_source_file_index>
70

> <r_mmod_Potential_Energy-OPLS-2005>
-183.101028442383

> <r_mmod_Stretch_Energy-OPLS-2005>
46.8024444580078

> <r_mmod_Bend_Energy-OPLS-2005>
119.322196960449

> <r_mmod_Torsional_Energy-OPLS-2005>
241.112930297852

> <r_mmod_Improper_Torsional_Energy-OPLS-2005>
2.90234708786011

> <r_mmod_Van_der_Waal_Energy-OPLS-2005>
131.975738525391

> <r_mmod_Electrostatic_Energy-OPLS-2005>
-286.249359130859

> <r_mmod_Solvation_Energy-OPLS-2005>
-454.332336425781

> <b_mmod_Minimization_Converged-OPLS-2005>
0

> <r_mmod_RMS_Derivative-OPLS-2005>
4.44963836669922

$$$$
71
                    3D
 Structure written by MMmdl.
161169  0  0  1  0            999 V2000
  -30.7116  -14.4737   20.6026 C   0  0  0  0  0  0
  -30.4242  -12.3246   19.4108 C   0  0  0  0  0  0
  -29.4904  -12.5107   18.1986 C   0  0  0  0  0  0
  -28.0138  -12.3650   18.6162 C   0  0  0  0  0  0
  -27.6599  -13.2079   19.8704 C   0  0  2  0  0  0
  -28.7026  -12.9928   20.9886 C   0  0  0  0  0  0
  -25.2588  -13.8163   20.5678 C   0  0  0  0  0  0
  -24.1842  -13.0441   20.9174 C   0  0  0  0  0  0
  -24.6396  -11.6908   20.8731 C   0  0  0  0  0  0
  -23.9061  -10.4295   21.0403 C   0  0  0  0  0  0
  -24.3616   -9.4209   21.9181 C   0  0  0  0  0  0
  -23.6290   -8.2245   22.0752 C   0  0  0  0  0  0
  -22.4274   -8.0282   21.3542 C   0  0  0  0  0  0
  -21.9908   -9.0256   20.4644 C   0  0  0  0  0  0
  -22.7235  -10.2134   20.3051 C   0  0  0  0  0  0
  -21.6852   -6.0737   22.5279 C   0  0  0  0  0  0
  -21.4013   -6.5640   23.8214 C   0  0  0  0  0  0
  -21.3658   -5.6792   24.9176 C   0  0  0  0  0  0
  -21.6046   -4.3057   24.7226 C   0  0  0  0  0  0
  -21.8819   -3.8149   23.4346 C   0  0  0  0  0  0
  -21.9194   -4.6965   22.3402 C   0  0  0  0  0  0
  -22.7869  -13.5240   21.1842 C   0  0  0  0  0  0
  -22.1663   -4.2154   21.0979 F   0  0  0  0  0  0
  -21.5628   -3.4537   25.7737 F   0  0  0  0  0  0
  -30.0299  -13.3073   20.4327 N   0  0  0  0  0  0
  -26.3019  -12.9332   20.3347 N   0  0  0  0  0  0
  -25.9319  -11.6491   20.5753 N   0  0  0  0  0  0
  -22.0510  -12.8230   22.0395 N   0  0  0  0  0  0
  -25.4321  -15.1881   20.4096 N   0  0  0  0  0  0
  -31.8296  -14.6723   20.1200 O   0  0  0  0  0  0
  -21.6640   -6.8881   21.4242 O   0  0  0  0  0  0
  -22.3559  -14.5551   20.6696 O   0  0  0  0  0  0
  -24.6160  -31.8684   23.2098 C   0  0  0  0  0  0
  -25.9057  -32.4820   23.8391 C   0  0  1  0  0  0
  -27.2274  -27.4121   20.1053 C   0  0  0  0  0  0
  -25.5920  -33.8620   24.2331 N   0  0  0  0  0  0
  -23.4034  -30.4909   21.5521 C   0  0  2  0  0  0
  -24.8476  -28.9529   20.1198 C   0  0  0  0  0  0
  -22.7414  -29.4649   22.5001 C   0  0  0  0  0  0
  -18.0264  -28.1362   22.8481 C   0  0  0  0  0  0
  -24.1489  -36.7299   23.2637 C   0  0  0  0  0  0
  -25.9342  -30.8244   21.3689 C   0  0  0  0  0  0
  -26.0091  -29.4560   20.7193 C   0  0  0  0  0  0
  -27.2022  -28.6935   20.7081 C   0  0  0  0  0  0
  -26.0521  -26.9375   19.4851 C   0  0  0  0  0  0
  -24.8646  -27.6924   19.5001 C   0  0  0  0  0  0
  -23.6122  -29.8246   20.1665 C   0  0  0  0  0  0
  -25.4113  -36.3108   24.0334 C   0  0  1  0  0  0
  -20.5855  -28.3659   23.1309 C   0  0  2  0  0  0
  -20.6764  -26.9399   22.5408 C   0  0  0  0  0  0
  -19.5742  -26.6377   21.5200 C   0  0  0  0  0  0
  -18.1916  -26.7909   22.1610 C   0  0  0  0  0  0
  -19.1517  -28.8829   23.2888 C   0  0  0  0  0  0
  -18.9453  -30.1431   23.8905 C   0  0  0  0  0  0
  -17.6462  -30.6584   24.0552 C   0  0  0  0  0  0
  -25.9041  -34.9479   23.5128 C   0  0  0  0  0  0
  -16.5348  -29.9083   23.6324 C   0  0  0  0  0  0
  -16.7257  -28.6492   23.0354 C   0  0  0  0  0  0
  -26.4486  -31.6595   25.0718 C   0  0  0  0  0  0
  -25.3748  -31.3699   26.1465 C   0  0  0  0  0  0
  -27.0337  -30.3039   24.6100 C   0  0  0  0  0  0
  -27.6059  -32.4319   25.7485 C   0  0  0  0  0  0
  -27.5586  -37.1806   24.8471 C   0  0  0  0  0  0
  -21.4142  -29.3029   22.3732 N   0  0  0  0  0  0
  -26.4305  -37.3789   23.9401 N   0  0  0  0  0  0
  -24.6694  -31.0763   22.1013 N   0  0  0  0  0  0
  -23.4183  -28.8200   23.3051 O   0  0  0  0  0  0
  -28.4001  -26.6832   20.0589 O   0  0  0  0  0  0
  -26.5602  -34.8941   22.4688 O   0  0  0  0  0  0
  -23.5349  -32.1457   23.7484 O   0  0  0  0  0  0
  -27.9003  -20.7009   21.4510 C   0  0  0  0  0  0
  -27.6026  -22.0666   21.2437 C   0  0  0  0  0  0
  -28.8293  -20.0390   20.6198 C   0  0  0  0  0  0
  -28.2642  -22.7601   20.2040 C   0  0  0  0  0  0
  -29.4668  -20.8250   19.6272 C   0  0  0  0  0  0
  -26.5554  -22.7392   22.1193 C   0  0  0  0  0  0
  -30.4785  -20.2459   18.6582 C   0  0  0  0  0  0
  -29.0174  -18.5109   20.7839 C   0  0  0  0  0  0
  -27.8883  -24.1943   19.7764 C   0  0  0  0  0  0
  -30.4651  -17.9742   20.9376 C   0  0  0  0  0  0
  -30.6376  -16.6917   21.8037 C   0  0  0  0  0  0
  -28.4237  -25.3621   20.6532 C   0  0  0  0  0  0
  -29.1975  -22.1417   19.4436 N   0  0  0  0  0  0
  -30.0591  -15.4423   21.2752 N   0  0  0  0  0  0
  -31.4657  -12.4345   19.1038 H   0  0  0  0  0  0
  -30.3380  -11.3134   19.8108 H   0  0  0  0  0  0
  -29.7315  -11.7834   17.4218 H   0  0  0  0  0  0
  -29.6519  -13.4956   17.7563 H   0  0  0  0  0  0
  -27.8297  -11.3086   18.8164 H   0  0  0  0  0  0
  -27.3597  -12.6337   17.7857 H   0  0  0  0  0  0
  -27.7034  -14.2559   19.5708 H   0  0  0  0  0  0
  -28.6860  -11.9563   21.3279 H   0  0  0  0  0  0
  -28.4572  -13.5883   21.8685 H   0  0  0  0  0  0
  -25.2765   -9.5685   22.4752 H   0  0  0  0  0  0
  -24.0004   -7.4637   22.7471 H   0  0  0  0  0  0
  -21.0843   -8.8773   19.8950 H   0  0  0  0  0  0
  -22.3699  -10.9671   19.6162 H   0  0  0  0  0  0
  -21.2003   -7.6151   23.9718 H   0  0  0  0  0  0
  -21.1478   -6.0522   25.9077 H   0  0  0  0  0  0
  -22.0600   -2.7612   23.2845 H   0  0  0  0  0  0
  -22.4123  -11.9887   22.4778 H   0  0  0  0  0  0
  -21.1129  -13.1256   22.2601 H   0  0  0  0  0  0
  -24.6670  -15.8451   20.5168 H   0  0  0  0  0  0
  -26.2874  -15.6250   20.0901 H   0  0  0  0  0  0
  -26.7129  -32.5526   23.1151 H   0  0  0  0  0  0
  -25.0099  -33.9774   25.0499 H   0  0  0  0  0  0
  -22.6912  -31.3075   21.4139 H   0  0  0  0  0  0
  -23.3756  -35.9631   23.3324 H   0  0  0  0  0  0
  -24.3582  -36.8892   22.2048 H   0  0  0  0  0  0
  -23.7244  -37.6507   23.6643 H   0  0  0  0  0  0
  -26.0513  -31.5891   20.6004 H   0  0  0  0  0  0
  -26.8194  -30.8745   21.9905 H   0  0  0  0  0  0
  -28.1020  -29.0812   21.1656 H   0  0  0  0  0  0
  -26.0432  -26.0039   18.9493 H   0  0  0  0  0  0
  -23.9770  -27.3061   19.0173 H   0  0  0  0  0  0
  -23.7257  -30.6005   19.4080 H   0  0  0  0  0  0
  -22.7337  -29.2480   19.8706 H   0  0  0  0  0  0
  -25.1290  -36.1972   25.0825 H   0  0  0  0  0  0
  -20.9926  -28.3236   24.1435 H   0  0  0  0  0  0
  -20.5659  -26.2276   23.3599 H   0  0  0  0  0  0
  -21.6639  -26.7449   22.1202 H   0  0  0  0  0  0
  -19.6919  -25.6286   21.1230 H   0  0  0  0  0  0
  -19.6681  -27.3194   20.6734 H   0  0  0  0  0  0
  -17.4183  -26.6646   21.4010 H   0  0  0  0  0  0
  -18.0320  -26.0044   22.9001 H   0  0  0  0  0  0
  -19.7941  -30.7219   24.2291 H   0  0  0  0  0  0
  -17.5032  -31.6267   24.5153 H   0  0  0  0  0  0
  -15.5351  -30.2995   23.7652 H   0  0  0  0  0  0
  -15.8647  -28.0817   22.7083 H   0  0  0  0  0  0
  -24.5917  -30.7055   25.7795 H   0  0  0  0  0  0
  -24.8942  -32.2852   26.4925 H   0  0  0  0  0  0
  -25.8094  -30.8855   27.0215 H   0  0  0  0  0  0
  -26.2887  -29.6767   24.1190 H   0  0  0  0  0  0
  -27.4148  -29.7304   25.4556 H   0  0  0  0  0  0
  -27.8704  -30.4351   23.9234 H   0  0  0  0  0  0
  -27.2675  -33.3610   26.2083 H   0  0  0  0  0  0
  -28.3861  -32.6894   25.0308 H   0  0  0  0  0  0
  -28.0739  -31.8428   26.5380 H   0  0  0  0  0  0
  -28.2616  -38.0097   24.7522 H   0  0  0  0  0  0
  -28.1077  -36.2629   24.6305 H   0  0  0  0  0  0
  -27.2302  -37.1459   25.8877 H   0  0  0  0  0  0
  -20.9316  -29.8770   21.6963 H   0  0  0  0  0  0
  -26.0202  -38.2867   24.1399 H   0  0  0  0  0  0
  -27.3807  -20.1486   22.2216 H   0  0  0  0  0  0
  -26.0795  -22.0231   22.7906 H   0  0  0  0  0  0
  -25.7665  -23.1935   21.5198 H   0  0  0  0  0  0
  -27.0115  -23.5137   22.7363 H   0  0  0  0  0  0
  -30.1216  -19.3058   18.2388 H   0  0  0  0  0  0
  -31.4283  -20.0698   19.1629 H   0  0  0  0  0  0
  -30.6678  -20.9262   17.8270 H   0  0  0  0  0  0
  -28.5370  -18.0097   19.9421 H   0  0  0  0  0  0
  -28.4502  -18.2013   21.6626 H   0  0  0  0  0  0
  -26.8032  -24.2273   19.7344 H   0  0  0  0  0  0
  -28.2262  -24.3489   18.7511 H   0  0  0  0  0  0
  -31.0570  -18.7506   21.4242 H   0  0  0  0  0  0
  -30.9262  -17.8226   19.9616 H   0  0  0  0  0  0
  -30.1991  -16.8668   22.7865 H   0  0  0  0  0  0
  -31.7018  -16.5376   21.9938 H   0  0  0  0  0  0
  -29.4722  -25.1600   20.8710 H   0  0  0  0  0  0
  -27.9205  -25.3792   21.6200 H   0  0  0  0  0  0
  -29.1258  -15.2083   21.5815 H   0  0  0  0  0  0
  1 25  1  0  0  0
  1 30  2  0  0  0
  1 84  1  0  0  0
  2  3  1  0  0  0
  2 25  1  0  0  0
  2 85  1  0  0  0
  2 86  1  0  0  0
  3  4  1  0  0  0
  3 87  1  0  0  0
  3 88  1  0  0  0
  4  5  1  0  0  0
  4 89  1  0  0  0
  4 90  1  0  0  0
  5  6  1  0  0  0
  5 26  1  0  0  0
  5 91  1  0  0  0
  6 25  1  0  0  0
  6 92  1  0  0  0
  6 93  1  0  0  0
  7  8  2  0  0  0
  7 26  1  0  0  0
  7 29  1  0  0  0
  8  9  1  0  0  0
  8 22  1  0  0  0
  9 10  1  0  0  0
  9 27  2  0  0  0
 10 11  2  0  0  0
 10 15  1  0  0  0
 11 12  1  0  0  0
 11 94  1  0  0  0
 12 13  2  0  0  0
 12 95  1  0  0  0
 13 14  1  0  0  0
 13 31  1  0  0  0
 14 15  2  0  0  0
 14 96  1  0  0  0
 15 97  1  0  0  0
 16 17  2  0  0  0
 16 21  1  0  0  0
 16 31  1  0  0  0
 17 18  1  0  0  0
 17 98  1  0  0  0
 18 19  2  0  0  0
 18 99  1  0  0  0
 19 20  1  0  0  0
 19 24  1  0  0  0
 20 21  2  0  0  0
 20100  1  0  0  0
 21 23  1  0  0  0
 22 28  1  0  0  0
 22 32  2  0  0  0
 26 27  1  0  0  0
 28101  1  0  0  0
 28102  1  0  0  0
 29103  1  0  0  0
 29104  1  0  0  0
 33 34  1  0  0  0
 33 66  1  0  0  0
 33 70  2  0  0  0
 34 36  1  0  0  0
 34 59  1  0  0  0
 34105  1  0  0  0
 35 44  2  0  0  0
 35 45  1  0  0  0
 35 68  1  0  0  0
 36 56  1  0  0  0
 36106  1  0  0  0
 37 39  1  0  0  0
 37 47  1  0  0  0
 37 66  1  0  0  0
 37107  1  0  0  0
 38 43  2  0  0  0
 38 46  1  0  0  0
 38 47  1  0  0  0
 39 64  1  0  0  0
 39 67  2  0  0  0
 40 52  1  0  0  0
 40 53  2  0  0  0
 40 58  1  0  0  0
 41108  1  0  0  0
 41109  1  0  0  0
 41110  1  0  0  0
 41 48  1  0  0  0
 42 43  1  0  0  0
 42 66  1  0  0  0
 42111  1  0  0  0
 42112  1  0  0  0
 43 44  1  0  0  0
 44113  1  0  0  0
 45 46  2  0  0  0
 45114  1  0  0  0
 46115  1  0  0  0
 47116  1  0  0  0
 47117  1  0  0  0
 48 56  1  0  0  0
 48 65  1  0  0  0
 48118  1  0  0  0
 49 50  1  0  0  0
 49 53  1  0  0  0
 49 64  1  0  0  0
 49119  1  0  0  0
 50 51  1  0  0  0
 50120  1  0  0  0
 50121  1  0  0  0
 51 52  1  0  0  0
 51122  1  0  0  0
 51123  1  0  0  0
 52124  1  0  0  0
 52125  1  0  0  0
 53 54  1  0  0  0
 54 55  2  0  0  0
 54126  1  0  0  0
 55 57  1  0  0  0
 55127  1  0  0  0
 56 69  2  0  0  0
 57 58  2  0  0  0
 57128  1  0  0  0
 58129  1  0  0  0
 59 60  1  0  0  0
 59 61  1  0  0  0
 59 62  1  0  0  0
 60130  1  0  0  0
 60131  1  0  0  0
 60132  1  0  0  0
 61133  1  0  0  0
 61134  1  0  0  0
 61135  1  0  0  0
 62136  1  0  0  0
 62137  1  0  0  0
 62138  1  0  0  0
 63 65  1  0  0  0
 63139  1  0  0  0
 63140  1  0  0  0
 63141  1  0  0  0
 64142  1  0  0  0
 65143  1  0  0  0
 68 82  1  0  0  0
 71 72  2  0  0  0
 71 73  1  0  0  0
 71144  1  0  0  0
 72 74  1  0  0  0
 72 76  1  0  0  0
 73 75  2  0  0  0
 73 78  1  0  0  0
 74 79  1  0  0  0
 74 83  2  0  0  0
 75 77  1  0  0  0
 75 83  1  0  0  0
 76145  1  0  0  0
 76146  1  0  0  0
 76147  1  0  0  0
 77148  1  0  0  0
 77149  1  0  0  0
 77150  1  0  0  0
 78 80  1  0  0  0
 78151  1  0  0  0
 78152  1  0  0  0
 79 82  1  0  0  0
 79153  1  0  0  0
 79154  1  0  0  0
 80 81  1  0  0  0
 80155  1  0  0  0
 80156  1  0  0  0
 81 84  1  0  0  0
 81157  1  0  0  0
 81158  1  0  0  0
 82159  1  0  0  0
 82160  1  0  0  0
 84161  1  0  0  0
M  ISO  4   1 100  68 101  82 101  84 100
M  END
> <chiral flag>
0

> <version>
0

> <s_m_source_file>
/data/baiqing/PycharmProjects/Reinvent-master-3.2/result/LINK_invent/BTK/process_docking_weight1_custom_sum_contain_oxygen_bond_distance_aromatic_linkinvent_7_9_3/rearranged_h_0045.sdf

> <i_m_source_file_index>
71

> <r_mmod_Potential_Energy-OPLS-2005>
-202.014587402344

> <r_mmod_Stretch_Energy-OPLS-2005>
41.7913284301758

> <r_mmod_Bend_Energy-OPLS-2005>
111.203979492188

> <r_mmod_Torsional_Energy-OPLS-2005>
218.166580200195

> <r_mmod_Improper_Torsional_Energy-OPLS-2005>
3.0491418838501

> <r_mmod_Van_der_Waal_Energy-OPLS-2005>
148.866516113281

> <r_mmod_Electrostatic_Energy-OPLS-2005>
-514.137084960938

> <r_mmod_Solvation_Energy-OPLS-2005>
-223.932373046875

> <b_mmod_Minimization_Converged-OPLS-2005>
0

> <r_mmod_RMS_Derivative-OPLS-2005>
1.17429327964783

$$$$
72
                    3D
 Structure written by MMmdl.
144152  0  0  1  0            999 V2000
  -30.3766  -15.3002   20.3786 C   0  0  0  0  0  0
  -30.4517  -12.8222   19.5407 C   0  0  0  0  0  0
  -29.5481  -12.5941   18.2989 C   0  0  0  0  0  0
  -28.0942  -12.3083   18.7166 C   0  0  0  0  0  0
  -27.6172  -13.2760   19.8267 C   0  0  2  0  0  0
  -28.6464  -13.4362   20.9653 C   0  0  0  0  0  0
  -25.2413  -13.8245   20.5737 C   0  0  0  0  0  0
  -24.1759  -13.0435   20.9239 C   0  0  0  0  0  0
  -24.6412  -11.6932   20.8741 C   0  0  0  0  0  0
  -23.9102  -10.4293   21.0395 C   0  0  0  0  0  0
  -24.3642   -9.4208   21.9178 C   0  0  0  0  0  0
  -23.6307   -8.2248   22.0753 C   0  0  0  0  0  0
  -22.4288   -8.0286   21.3545 C   0  0  0  0  0  0
  -21.9930   -9.0261   20.4645 C   0  0  0  0  0  0
  -22.7268  -10.2134   20.3049 C   0  0  0  0  0  0
  -21.6858   -6.0740   22.5279 C   0  0  0  0  0  0
  -21.4018   -6.5642   23.8213 C   0  0  0  0  0  0
  -21.3661   -5.6794   24.9174 C   0  0  0  0  0  0
  -21.6044   -4.3056   24.7224 C   0  0  0  0  0  0
  -21.8819   -3.8149   23.4345 C   0  0  0  0  0  0
  -21.9194   -4.6966   22.3401 C   0  0  0  0  0  0
  -22.7775  -13.5188   21.1896 C   0  0  0  0  0  0
  -22.1662   -4.2152   21.0979 F   0  0  0  0  0  0
  -21.5628   -3.4539   25.7736 F   0  0  0  0  0  0
  -29.8874  -13.9559   20.3655 N   0  0  0  0  0  0
  -26.2844  -12.9521   20.3204 N   0  0  0  0  0  0
  -25.9352  -11.6625   20.5695 N   0  0  0  0  0  0
  -22.0436  -12.8169   22.0452 N   0  0  0  0  0  0
  -25.4056  -15.1983   20.4202 N   0  0  0  0  0  0
  -31.5798  -15.3425   20.0716 O   0  0  0  0  0  0
  -21.6647   -6.8886   21.4243 O   0  0  0  0  0  0
  -22.3451  -14.5490   20.6741 O   0  0  0  0  0  0
  -24.6644  -31.8207   23.1675 C   0  0  0  0  0  0
  -25.9316  -32.4572   23.8151 C   0  0  1  0  0  0
  -27.2251  -26.9078   20.1889 C   0  0  0  0  0  0
  -25.5974  -33.8388   24.2055 N   0  0  0  0  0  0
  -23.4808  -30.4297   21.5169 C   0  0  2  0  0  0
  -24.9360  -28.8101   20.1118 C   0  0  0  0  0  0
  -22.7675  -29.4422   22.4773 C   0  0  0  0  0  0
  -18.0323  -28.1410   22.8466 C   0  0  0  0  0  0
  -24.1494  -36.7201   23.2648 C   0  0  0  0  0  0
  -26.0502  -30.6207   21.4006 C   0  0  0  0  0  0
  -26.1190  -29.2077   20.7465 C   0  0  0  0  0  0
  -27.2561  -28.2780   20.7588 C   0  0  0  0  0  0
  -26.0131  -26.6656   19.5036 C   0  0  0  0  0  0
  -24.9096  -27.5604   19.4696 C   0  0  0  0  0  0
  -23.7221  -29.7402   20.1448 C   0  0  0  0  0  0
  -25.4136  -36.2958   24.0297 C   0  0  1  0  0  0
  -20.5948  -28.3755   23.1185 C   0  0  2  0  0  0
  -20.6798  -26.9434   22.5404 C   0  0  0  0  0  0
  -19.5773  -26.6376   21.5215 C   0  0  0  0  0  0
  -18.1955  -26.7942   22.1622 C   0  0  0  0  0  0
  -19.1585  -28.8904   23.2811 C   0  0  0  0  0  0
  -18.9495  -30.1493   23.8848 C   0  0  0  0  0  0
  -17.6488  -30.6598   24.0554 C   0  0  0  0  0  0
  -25.9102  -34.9342   23.5001 C   0  0  0  0  0  0
  -16.5378  -29.9085   23.6344 C   0  0  0  0  0  0
  -16.7305  -28.6505   23.0363 C   0  0  0  0  0  0
  -26.4561  -31.6530   25.0692 C   0  0  0  0  0  0
  -25.3682  -31.3787   26.1343 C   0  0  0  0  0  0
  -27.0466  -30.2895   24.6444 C   0  0  0  0  0  0
  -27.6045  -32.4349   25.7498 C   0  0  0  0  0  0
  -27.5570  -37.1757   24.8466 C   0  0  0  0  0  0
  -21.4342  -29.3038   22.3527 N   0  0  0  0  0  0
  -26.4279  -37.3698   23.9408 N   0  0  0  0  0  0
  -24.7532  -30.9848   22.0820 N   0  0  0  0  0  0
  -23.4212  -28.8001   23.3031 O   0  0  0  0  0  0
  -28.2327  -25.8024   20.2831 O   0  0  0  0  0  0
  -26.5720  -34.8883   22.4602 O   0  0  0  0  0  0
  -23.5710  -32.1186   23.6756 O   0  0  0  0  0  0
  -29.1582  -19.7238   21.0590 C   0  0  0  0  0  0
  -29.0835  -20.9462   20.2619 C   0  0  0  0  0  0
  -29.0335  -22.7019   20.5343 C   0  0  0  0  0  0
  -29.4843  -16.7889   20.7349 C   0  0  0  0  0  0
  -28.0541  -24.1600   20.0621 C   0  0  0  0  0  0
  -29.4208  -20.3078   19.0332 N   0  0  0  0  0  0
  -29.5956  -18.9601   19.0793 N   0  0  0  0  0  0
  -29.5086  -18.4457   20.3537 N   0  0  0  0  0  0
  -31.4695  -13.0366   19.2128 H   0  0  0  0  0  0
  -30.5256  -11.9109   20.1364 H   0  0  0  0  0  0
  -29.9339  -11.7736   17.6926 H   0  0  0  0  0  0
  -29.5762  -13.4827   17.6665 H   0  0  0  0  0  0
  -28.0506  -11.2819   19.0827 H   0  0  0  0  0  0
  -27.4301  -12.3548   17.8527 H   0  0  0  0  0  0
  -27.5372  -14.2471   19.3370 H   0  0  0  0  0  0
  -28.8111  -12.4936   21.4894 H   0  0  0  0  0  0
  -28.2775  -14.1425   21.7105 H   0  0  0  0  0  0
  -25.2785   -9.5683   22.4757 H   0  0  0  0  0  0
  -24.0011   -7.4640   22.7477 H   0  0  0  0  0  0
  -21.0860   -8.8785   19.8952 H   0  0  0  0  0  0
  -22.3727  -10.9673   19.6159 H   0  0  0  0  0  0
  -21.2012   -7.6150   23.9717 H   0  0  0  0  0  0
  -21.1483   -6.0523   25.9077 H   0  0  0  0  0  0
  -22.0596   -2.7611   23.2844 H   0  0  0  0  0  0
  -22.4071  -11.9838   22.4840 H   0  0  0  0  0  0
  -21.1048  -13.1175   22.2657 H   0  0  0  0  0  0
  -24.6362  -15.8486   20.5383 H   0  0  0  0  0  0
  -26.2507  -15.6431   20.0868 H   0  0  0  0  0  0
  -26.7386  -32.5105   23.0865 H   0  0  0  0  0  0
  -25.0060  -33.9461   25.0165 H   0  0  0  0  0  0
  -22.7951  -31.2616   21.3427 H   0  0  0  0  0  0
  -23.3769  -35.9518   23.3275 H   0  0  0  0  0  0
  -24.3569  -36.8886   22.2069 H   0  0  0  0  0  0
  -23.7239  -37.6373   23.6731 H   0  0  0  0  0  0
  -26.2318  -31.3601   20.6195 H   0  0  0  0  0  0
  -26.9094  -30.6797   22.0567 H   0  0  0  0  0  0
  -28.1504  -28.5808   21.2850 H   0  0  0  0  0  0
  -25.8865  -25.7097   19.0160 H   0  0  0  0  0  0
  -24.0109  -27.2498   18.9544 H   0  0  0  0  0  0
  -23.8783  -30.5065   19.3846 H   0  0  0  0  0  0
  -22.8317  -29.1943   19.8281 H   0  0  0  0  0  0
  -25.1336  -36.1749   25.0788 H   0  0  0  0  0  0
  -21.0036  -28.3365   24.1309 H   0  0  0  0  0  0
  -20.5675  -26.2374   23.3647 H   0  0  0  0  0  0
  -21.6661  -26.7405   22.1213 H   0  0  0  0  0  0
  -19.6931  -25.6273   21.1278 H   0  0  0  0  0  0
  -19.6713  -27.3158   20.6723 H   0  0  0  0  0  0
  -17.4224  -26.6685   21.4026 H   0  0  0  0  0  0
  -18.0349  -26.0096   22.9030 H   0  0  0  0  0  0
  -19.7970  -30.7323   24.2195 H   0  0  0  0  0  0
  -17.5039  -31.6273   24.5166 H   0  0  0  0  0  0
  -15.5376  -30.2970   23.7696 H   0  0  0  0  0  0
  -15.8706  -28.0807   22.7107 H   0  0  0  0  0  0
  -24.5880  -30.7121   25.7651 H   0  0  0  0  0  0
  -24.8853  -32.2991   26.4638 H   0  0  0  0  0  0
  -25.7907  -30.9040   27.0208 H   0  0  0  0  0  0
  -26.3139  -29.6559   24.1433 H   0  0  0  0  0  0
  -27.3970  -29.7273   25.5110 H   0  0  0  0  0  0
  -27.9089  -30.4071   23.9880 H   0  0  0  0  0  0
  -27.2606  -33.3696   26.1941 H   0  0  0  0  0  0
  -28.3927  -32.6838   25.0380 H   0  0  0  0  0  0
  -28.0636  -31.8568   26.5528 H   0  0  0  0  0  0
  -28.2565  -38.0074   24.7515 H   0  0  0  0  0  0
  -28.1088  -36.2599   24.6291 H   0  0  0  0  0  0
  -27.2285  -37.1395   25.8867 H   0  0  0  0  0  0
  -20.9603  -29.8717   21.6642 H   0  0  0  0  0  0
  -26.0124  -38.2754   24.1418 H   0  0  0  0  0  0
  -28.9993  -19.6599   22.1291 H   0  0  0  0  0  0
  -30.0351  -23.0225   20.2489 H   0  0  0  0  0  0
  -29.0594  -22.7954   21.6197 H   0  0  0  0  0  0
  -28.4662  -16.4960   20.4826 H   0  0  0  0  0  0
  -29.4811  -16.7820   21.8240 H   0  0  0  0  0  0
  -27.0528  -23.9534   20.4403 H   0  0  0  0  0  0
  -27.9499  -24.0747   18.9804 H   0  0  0  0  0  0
  1 25  1  0  0  0
  1 30  2  0  0  0
  1 74  1  0  0  0
  2  3  1  0  0  0
  2 25  1  0  0  0
  2 79  1  0  0  0
  2 80  1  0  0  0
  3  4  1  0  0  0
  3 81  1  0  0  0
  3 82  1  0  0  0
  4  5  1  0  0  0
  4 83  1  0  0  0
  4 84  1  0  0  0
  5  6  1  0  0  0
  5 26  1  0  0  0
  5 85  1  0  0  0
  6 25  1  0  0  0
  6 86  1  0  0  0
  6 87  1  0  0  0
  7  8  2  0  0  0
  7 26  1  0  0  0
  7 29  1  0  0  0
  8  9  1  0  0  0
  8 22  1  0  0  0
  9 10  1  0  0  0
  9 27  2  0  0  0
 10 11  2  0  0  0
 10 15  1  0  0  0
 11 12  1  0  0  0
 11 88  1  0  0  0
 12 13  2  0  0  0
 12 89  1  0  0  0
 13 14  1  0  0  0
 13 31  1  0  0  0
 14 15  2  0  0  0
 14 90  1  0  0  0
 15 91  1  0  0  0
 16 17  2  0  0  0
 16 21  1  0  0  0
 16 31  1  0  0  0
 17 18  1  0  0  0
 17 92  1  0  0  0
 18 19  2  0  0  0
 18 93  1  0  0  0
 19 20  1  0  0  0
 19 24  1  0  0  0
 20 21  2  0  0  0
 20 94  1  0  0  0
 21 23  1  0  0  0
 22 28  1  0  0  0
 22 32  2  0  0  0
 26 27  1  0  0  0
 28 95  1  0  0  0
 28 96  1  0  0  0
 29 97  1  0  0  0
 29 98  1  0  0  0
 33 34  1  0  0  0
 33 66  1  0  0  0
 33 70  2  0  0  0
 34 36  1  0  0  0
 34 59  1  0  0  0
 34 99  1  0  0  0
 35 44  2  0  0  0
 35 45  1  0  0  0
 35 68  1  0  0  0
 36 56  1  0  0  0
 36100  1  0  0  0
 37 39  1  0  0  0
 37 47  1  0  0  0
 37 66  1  0  0  0
 37101  1  0  0  0
 38 43  2  0  0  0
 38 46  1  0  0  0
 38 47  1  0  0  0
 39 64  1  0  0  0
 39 67  2  0  0  0
 40 52  1  0  0  0
 40 53  2  0  0  0
 40 58  1  0  0  0
 41102  1  0  0  0
 41103  1  0  0  0
 41104  1  0  0  0
 41 48  1  0  0  0
 42 43  1  0  0  0
 42 66  1  0  0  0
 42105  1  0  0  0
 42106  1  0  0  0
 43 44  1  0  0  0
 44107  1  0  0  0
 45 46  2  0  0  0
 45108  1  0  0  0
 46109  1  0  0  0
 47110  1  0  0  0
 47111  1  0  0  0
 48 56  1  0  0  0
 48 65  1  0  0  0
 48112  1  0  0  0
 49 50  1  0  0  0
 49 53  1  0  0  0
 49 64  1  0  0  0
 49113  1  0  0  0
 50 51  1  0  0  0
 50114  1  0  0  0
 50115  1  0  0  0
 51 52  1  0  0  0
 51116  1  0  0  0
 51117  1  0  0  0
 52118  1  0  0  0
 52119  1  0  0  0
 53 54  1  0  0  0
 54 55  2  0  0  0
 54120  1  0  0  0
 55 57  1  0  0  0
 55121  1  0  0  0
 56 69  2  0  0  0
 57 58  2  0  0  0
 57122  1  0  0  0
 58123  1  0  0  0
 59 60  1  0  0  0
 59 61  1  0  0  0
 59 62  1  0  0  0
 60124  1  0  0  0
 60125  1  0  0  0
 60126  1  0  0  0
 61127  1  0  0  0
 61128  1  0  0  0
 61129  1  0  0  0
 62130  1  0  0  0
 62131  1  0  0  0
 62132  1  0  0  0
 63 65  1  0  0  0
 63133  1  0  0  0
 63134  1  0  0  0
 63135  1  0  0  0
 64136  1  0  0  0
 65137  1  0  0  0
 68 75  1  0  0  0
 71 72  2  0  0  0
 71 78  1  0  0  0
 71138  1  0  0  0
 72 73  1  0  0  0
 72 76  1  0  0  0
 73 75  1  0  0  0
 73139  1  0  0  0
 73140  1  0  0  0
 74 78  1  0  0  0
 74141  1  0  0  0
 74142  1  0  0  0
 75143  1  0  0  0
 75144  1  0  0  0
 76 77  2  0  0  0
 77 78  1  0  0  0
M  ISO  4   1 100  68 101  74 100  75 101
M  END
> <chiral flag>
0

> <version>
0

> <s_m_source_file>
/data/baiqing/PycharmProjects/Reinvent-master-3.2/result/LINK_invent/BTK/process_docking_weight1_custom_sum_contain_oxygen_bond_distance_aromatic_linkinvent_7_9_3/rearranged_h_0045.sdf

> <i_m_source_file_index>
72

> <r_mmod_Potential_Energy-OPLS-2005>
1362.30639648438

> <r_mmod_Stretch_Energy-OPLS-2005>
627.548400878906

> <r_mmod_Bend_Energy-OPLS-2005>
486.677856445312

> <r_mmod_Torsional_Energy-OPLS-2005>
183.425109863281

> <r_mmod_Improper_Torsional_Energy-OPLS-2005>
4.51959848403931

> <r_mmod_Van_der_Waal_Energy-OPLS-2005>
104.507263183594

> <r_mmod_Electrostatic_Energy-OPLS-2005>
-304.607238769531

> <r_mmod_Solvation_Energy-OPLS-2005>
-231.691940307617

> <b_mmod_Minimization_Converged-OPLS-2005>
1

> <r_mmod_RMS_Derivative-OPLS-2005>
0.0246558394283056

$$$$
73
                    3D
 Structure written by MMmdl.
159167  0  0  1  0            999 V2000
  -30.5267  -14.9078   20.4398 C   0  0  0  0  0  0
  -30.4472  -12.5525   19.4990 C   0  0  0  0  0  0
  -29.5260  -12.5299   18.2559 C   0  0  0  0  0  0
  -28.0548  -12.3211   18.6656 C   0  0  0  0  0  0
  -27.6358  -13.2412   19.8414 C   0  0  2  0  0  0
  -28.6766  -13.2341   20.9807 C   0  0  0  0  0  0
  -25.2491  -13.8203   20.5703 C   0  0  0  0  0  0
  -24.1794  -13.0437   20.9212 C   0  0  0  0  0  0
  -24.6397  -11.6918   20.8738 C   0  0  0  0  0  0
  -23.9076  -10.4292   21.0399 C   0  0  0  0  0  0
  -24.3624   -9.4208   21.9179 C   0  0  0  0  0  0
  -23.6297   -8.2244   22.0751 C   0  0  0  0  0  0
  -22.4278   -8.0282   21.3542 C   0  0  0  0  0  0
  -21.9916   -9.0256   20.4644 C   0  0  0  0  0  0
  -22.7246  -10.2134   20.3051 C   0  0  0  0  0  0
  -21.6854   -6.0736   22.5278 C   0  0  0  0  0  0
  -21.4015   -6.5639   23.8212 C   0  0  0  0  0  0
  -21.3661   -5.6792   24.9175 C   0  0  0  0  0  0
  -21.6044   -4.3055   24.7225 C   0  0  0  0  0  0
  -21.8819   -3.8146   23.4346 C   0  0  0  0  0  0
  -21.9194   -4.6963   22.3402 C   0  0  0  0  0  0
  -22.7813  -13.5210   21.1879 C   0  0  0  0  0  0
  -22.1660   -4.2149   21.0980 F   0  0  0  0  0  0
  -21.5630   -3.4538   25.7738 F   0  0  0  0  0  0
  -29.9671  -13.6327   20.4049 N   0  0  0  0  0  0
  -26.2914  -12.9425   20.3237 N   0  0  0  0  0  0
  -25.9329  -11.6559   20.5720 N   0  0  0  0  0  0
  -22.0465  -12.8198   22.0438 N   0  0  0  0  0  0
  -25.4177  -15.1934   20.4149 N   0  0  0  0  0  0
  -31.7147  -14.9912   20.1017 O   0  0  0  0  0  0
  -21.6641   -6.8879   21.4239 O   0  0  0  0  0  0
  -22.3493  -14.5516   20.6728 O   0  0  0  0  0  0
  -24.6423  -31.8460   23.1900 C   0  0  0  0  0  0
  -25.9203  -32.4706   23.8283 C   0  0  1  0  0  0
  -27.2177  -27.1537   20.1438 C   0  0  0  0  0  0
  -25.5953  -33.8510   24.2200 N   0  0  0  0  0  0
  -23.4446  -30.4666   21.5356 C   0  0  2  0  0  0
  -24.8930  -28.8968   20.1116 C   0  0  0  0  0  0
  -22.7556  -29.4560   22.4868 C   0  0  0  0  0  0
  -18.0301  -28.1394   22.8473 C   0  0  0  0  0  0
  -24.1488  -36.7258   23.2642 C   0  0  0  0  0  0
  -26.0003  -30.7249   21.3863 C   0  0  0  0  0  0
  -26.0715  -29.3382   20.7268 C   0  0  0  0  0  0
  -27.2355  -28.4834   20.7247 C   0  0  0  0  0  0
  -26.0105  -26.8105   19.4938 C   0  0  0  0  0  0
  -24.8745  -27.6454   19.4805 C   0  0  0  0  0  0
  -23.6696  -29.7975   20.1547 C   0  0  0  0  0  0
  -25.4122  -36.3038   24.0318 C   0  0  1  0  0  0
  -20.5911  -28.3721   23.1233 C   0  0  2  0  0  0
  -20.6787  -26.9426   22.5396 C   0  0  0  0  0  0
  -19.5762  -26.6382   21.5204 C   0  0  0  0  0  0
  -18.1943  -26.7932   22.1619 C   0  0  0  0  0  0
  -19.1556  -28.8875   23.2845 C   0  0  0  0  0  0
  -18.9477  -30.1470   23.8875 C   0  0  0  0  0  0
  -17.6476  -30.6593   24.0556 C   0  0  0  0  0  0
  -25.9072  -34.9412   23.5067 C   0  0  0  0  0  0
  -16.5367  -29.9087   23.6335 C   0  0  0  0  0  0
  -16.7287  -28.6503   23.0358 C   0  0  0  0  0  0
  -26.4525  -31.6573   25.0722 C   0  0  0  0  0  0
  -25.3709  -31.3754   26.1415 C   0  0  0  0  0  0
  -27.0391  -30.2970   24.6299 C   0  0  0  0  0  0
  -27.6058  -32.4338   25.7507 C   0  0  0  0  0  0
  -27.5575  -37.1785   24.8467 C   0  0  0  0  0  0
  -21.4249  -29.3053   22.3611 N   0  0  0  0  0  0
  -26.4285  -37.3750   23.9410 N   0  0  0  0  0  0
  -24.7155  -31.0332   22.0926 N   0  0  0  0  0  0
  -23.4207  -28.8105   23.3010 O   0  0  0  0  0  0
  -28.2772  -26.1791   20.2041 O   0  0  0  0  0  0
  -26.5658  -34.8909   22.4647 O   0  0  0  0  0  0
  -23.5546  -32.1328   23.7129 O   0  0  0  0  0  0
  -31.0004  -18.1325   19.4109 C   0  0  0  0  0  0
  -29.1645  -19.0445   20.6425 C   0  0  0  0  0  0
  -29.9472  -17.8341   20.2993 C   0  0  0  0  0  0
  -31.2179  -19.4485   18.9351 C   0  0  0  0  0  0
  -29.4413  -20.4058   20.1362 C   0  0  0  0  0  0
  -34.7760  -20.4565   17.6624 C   0  0  0  0  0  0
  -29.6748  -16.2879   20.8058 C   0  0  0  0  0  0
  -32.3502  -19.7101   17.9569 C   0  0  0  0  0  0
  -28.5136  -21.7532   20.2782 C   0  0  0  0  0  0
  -33.6140  -20.2503   18.6438 C   0  0  0  0  0  0
  -29.0196  -23.3549   20.2934 C   0  0  0  0  0  0
  -27.9772  -24.6586   20.1134 C   0  0  0  0  0  0
  -30.4737  -20.5337   19.2760 N   0  0  0  0  0  0
  -31.4832  -12.7049   19.1926 H   0  0  0  0  0  0
  -30.4287  -11.5890   20.0110 H   0  0  0  0  0  0
  -29.8380  -11.7431   17.5681 H   0  0  0  0  0  0
  -29.6255  -13.4707   17.7122 H   0  0  0  0  0  0
  -27.9389  -11.2763   18.9564 H   0  0  0  0  0  0
  -27.3962  -12.4733   17.8096 H   0  0  0  0  0  0
  -27.6096  -14.2492   19.4280 H   0  0  0  0  0  0
  -28.7448  -12.2472   21.4409 H   0  0  0  0  0  0
  -28.3814  -13.9225   21.7740 H   0  0  0  0  0  0
  -25.2767   -9.5686   22.4755 H   0  0  0  0  0  0
  -24.0004   -7.4638   22.7472 H   0  0  0  0  0  0
  -21.0846   -8.8774   19.8952 H   0  0  0  0  0  0
  -22.3699  -10.9672   19.6162 H   0  0  0  0  0  0
  -21.2005   -7.6147   23.9716 H   0  0  0  0  0  0
  -21.1484   -6.0522   25.9079 H   0  0  0  0  0  0
  -22.0596   -2.7608   23.2847 H   0  0  0  0  0  0
  -22.4085  -11.9859   22.4822 H   0  0  0  0  0  0
  -21.1080  -13.1216   22.2650 H   0  0  0  0  0  0
  -24.6496  -15.8460   20.5290 H   0  0  0  0  0  0
  -26.2664  -15.6366   20.0879 H   0  0  0  0  0  0
  -26.7272  -32.5317   23.1017 H   0  0  0  0  0  0
  -25.0069  -33.9619   25.0326 H   0  0  0  0  0  0
  -22.7470  -31.2927   21.3831 H   0  0  0  0  0  0
  -23.3756  -35.9584   23.3294 H   0  0  0  0  0  0
  -24.3568  -36.8898   22.2058 H   0  0  0  0  0  0
  -23.7236  -37.6448   23.6686 H   0  0  0  0  0  0
  -26.1542  -31.4810   20.6150 H   0  0  0  0  0  0
  -26.8715  -30.7739   22.0281 H   0  0  0  0  0  0
  -28.1344  -28.8171   21.2238 H   0  0  0  0  0  0
  -25.9049  -25.8580   18.9993 H   0  0  0  0  0  0
  -23.9750  -27.3016   18.9882 H   0  0  0  0  0  0
  -23.8058  -30.5725   19.3996 H   0  0  0  0  0  0
  -22.7845  -29.2388   19.8443 H   0  0  0  0  0  0
  -25.1306  -36.1868   25.0809 H   0  0  0  0  0  0
  -21.0001  -28.3316   24.1355 H   0  0  0  0  0  0
  -20.5671  -26.2341   23.3617 H   0  0  0  0  0  0
  -21.6655  -26.7429   22.1202 H   0  0  0  0  0  0
  -19.6922  -25.6284   21.1254 H   0  0  0  0  0  0
  -19.6697  -27.3174   20.6719 H   0  0  0  0  0  0
  -17.4206  -26.6667   21.4028 H   0  0  0  0  0  0
  -18.0352  -26.0077   22.9021 H   0  0  0  0  0  0
  -19.7955  -30.7283   24.2240 H   0  0  0  0  0  0
  -17.5034  -31.6270   24.5164 H   0  0  0  0  0  0
  -15.5366  -30.2987   23.7671 H   0  0  0  0  0  0
  -15.8685  -28.0815   22.7096 H   0  0  0  0  0  0
  -24.5901  -30.7088   25.7731 H   0  0  0  0  0  0
  -24.8880  -32.2932   26.4782 H   0  0  0  0  0  0
  -25.7988  -30.8966   27.0231 H   0  0  0  0  0  0
  -26.3005  -29.6693   24.1298 H   0  0  0  0  0  0
  -27.3995  -29.7267   25.4871 H   0  0  0  0  0  0
  -27.8919  -30.4202   23.9619 H   0  0  0  0  0  0
  -27.2658  -33.3664   26.2021 H   0  0  0  0  0  0
  -28.3905  -32.6856   25.0361 H   0  0  0  0  0  0
  -28.0691  -31.8505   26.5474 H   0  0  0  0  0  0
  -28.2586  -38.0089   24.7517 H   0  0  0  0  0  0
  -28.1077  -36.2618   24.6290 H   0  0  0  0  0  0
  -27.2291  -37.1428   25.8868 H   0  0  0  0  0  0
  -20.9461  -29.8769   21.6791 H   0  0  0  0  0  0
  -26.0153  -38.2816   24.1419 H   0  0  0  0  0  0
  -31.6526  -17.3397   19.0710 H   0  0  0  0  0  0
  -28.3040  -18.9198   21.2863 H   0  0  0  0  0  0
  -35.6574  -20.8416   18.1760 H   0  0  0  0  0  0
  -34.5114  -21.1677   16.8791 H   0  0  0  0  0  0
  -35.0569  -19.5192   17.1806 H   0  0  0  0  0  0
  -28.6434  -16.0838   20.5249 H   0  0  0  0  0  0
  -29.6575  -16.3322   21.8943 H   0  0  0  0  0  0
  -32.0096  -20.4121   17.1944 H   0  0  0  0  0  0
  -32.5825  -18.7848   17.4283 H   0  0  0  0  0  0
  -27.9119  -21.6044   21.1746 H   0  0  0  0  0  0
  -27.7985  -21.6727   19.4596 H   0  0  0  0  0  0
  -33.3835  -21.1926   19.1424 H   0  0  0  0  0  0
  -33.9230  -19.5560   19.4261 H   0  0  0  0  0  0
  -29.7622  -23.4507   19.5010 H   0  0  0  0  0  0
  -29.5798  -23.5033   21.2162 H   0  0  0  0  0  0
  -27.1628  -24.4873   20.8183 H   0  0  0  0  0  0
  -27.5384  -24.5034   19.1285 H   0  0  0  0  0  0
  1 25  1  0  0  0
  1 30  2  0  0  0
  1 77  1  0  0  0
  2  3  1  0  0  0
  2 25  1  0  0  0
  2 84  1  0  0  0
  2 85  1  0  0  0
  3  4  1  0  0  0
  3 86  1  0  0  0
  3 87  1  0  0  0
  4  5  1  0  0  0
  4 88  1  0  0  0
  4 89  1  0  0  0
  5  6  1  0  0  0
  5 26  1  0  0  0
  5 90  1  0  0  0
  6 25  1  0  0  0
  6 91  1  0  0  0
  6 92  1  0  0  0
  7  8  2  0  0  0
  7 26  1  0  0  0
  7 29  1  0  0  0
  8  9  1  0  0  0
  8 22  1  0  0  0
  9 10  1  0  0  0
  9 27  2  0  0  0
 10 11  2  0  0  0
 10 15  1  0  0  0
 11 12  1  0  0  0
 11 93  1  0  0  0
 12 13  2  0  0  0
 12 94  1  0  0  0
 13 14  1  0  0  0
 13 31  1  0  0  0
 14 15  2  0  0  0
 14 95  1  0  0  0
 15 96  1  0  0  0
 16 17  2  0  0  0
 16 21  1  0  0  0
 16 31  1  0  0  0
 17 18  1  0  0  0
 17 97  1  0  0  0
 18 19  2  0  0  0
 18 98  1  0  0  0
 19 20  1  0  0  0
 19 24  1  0  0  0
 20 21  2  0  0  0
 20 99  1  0  0  0
 21 23  1  0  0  0
 22 28  1  0  0  0
 22 32  2  0  0  0
 26 27  1  0  0  0
 28100  1  0  0  0
 28101  1  0  0  0
 29102  1  0  0  0
 29103  1  0  0  0
 33 34  1  0  0  0
 33 66  1  0  0  0
 33 70  2  0  0  0
 34 36  1  0  0  0
 34 59  1  0  0  0
 34104  1  0  0  0
 35 44  2  0  0  0
 35 45  1  0  0  0
 35 68  1  0  0  0
 36 56  1  0  0  0
 36105  1  0  0  0
 37 39  1  0  0  0
 37 47  1  0  0  0
 37 66  1  0  0  0
 37106  1  0  0  0
 38 43  2  0  0  0
 38 46  1  0  0  0
 38 47  1  0  0  0
 39 64  1  0  0  0
 39 67  2  0  0  0
 40 52  1  0  0  0
 40 53  2  0  0  0
 40 58  1  0  0  0
 41107  1  0  0  0
 41108  1  0  0  0
 41109  1  0  0  0
 41 48  1  0  0  0
 42 43  1  0  0  0
 42 66  1  0  0  0
 42110  1  0  0  0
 42111  1  0  0  0
 43 44  1  0  0  0
 44112  1  0  0  0
 45 46  2  0  0  0
 45113  1  0  0  0
 46114  1  0  0  0
 47115  1  0  0  0
 47116  1  0  0  0
 48 56  1  0  0  0
 48 65  1  0  0  0
 48117  1  0  0  0
 49 50  1  0  0  0
 49 53  1  0  0  0
 49 64  1  0  0  0
 49118  1  0  0  0
 50 51  1  0  0  0
 50119  1  0  0  0
 50120  1  0  0  0
 51 52  1  0  0  0
 51121  1  0  0  0
 51122  1  0  0  0
 52123  1  0  0  0
 52124  1  0  0  0
 53 54  1  0  0  0
 54 55  2  0  0  0
 54125  1  0  0  0
 55 57  1  0  0  0
 55126  1  0  0  0
 56 69  2  0  0  0
 57 58  2  0  0  0
 57127  1  0  0  0
 58128  1  0  0  0
 59 60  1  0  0  0
 59 61  1  0  0  0
 59 62  1  0  0  0
 60129  1  0  0  0
 60130  1  0  0  0
 60131  1  0  0  0
 61132  1  0  0  0
 61133  1  0  0  0
 61134  1  0  0  0
 62135  1  0  0  0
 62136  1  0  0  0
 62137  1  0  0  0
 63 65  1  0  0  0
 63138  1  0  0  0
 63139  1  0  0  0
 63140  1  0  0  0
 64141  1  0  0  0
 65142  1  0  0  0
 68 82  1  0  0  0
 71 73  2  0  0  0
 71 74  1  0  0  0
 71143  1  0  0  0
 72 73  1  0  0  0
 72 75  2  0  0  0
 72144  1  0  0  0
 73 77  1  0  0  0
 74 78  1  0  0  0
 74 83  2  0  0  0
 75 79  1  0  0  0
 75 83  1  0  0  0
 76 80  1  0  0  0
 76145  1  0  0  0
 76146  1  0  0  0
 76147  1  0  0  0
 77148  1  0  0  0
 77149  1  0  0  0
 78 80  1  0  0  0
 78150  1  0  0  0
 78151  1  0  0  0
 79 81  1  0  0  0
 79152  1  0  0  0
 79153  1  0  0  0
 80154  1  0  0  0
 80155  1  0  0  0
 81 82  1  0  0  0
 81156  1  0  0  0
 81157  1  0  0  0
 82158  1  0  0  0
 82159  1  0  0  0
M  ISO  4   1 100  68 101  77 100  82 101
M  END
> <chiral flag>
0

> <version>
0

> <s_m_source_file>
/data/baiqing/PycharmProjects/Reinvent-master-3.2/result/LINK_invent/BTK/process_docking_weight1_custom_sum_contain_oxygen_bond_distance_aromatic_linkinvent_7_9_3/rearranged_h_0045.sdf

> <i_m_source_file_index>
73

> <r_mmod_Potential_Energy-OPLS-2005>
326.763031005859

> <r_mmod_Stretch_Energy-OPLS-2005>
239.76301574707

> <r_mmod_Bend_Energy-OPLS-2005>
238.463226318359

> <r_mmod_Torsional_Energy-OPLS-2005>
171.031173706055

> <r_mmod_Improper_Torsional_Energy-OPLS-2005>
3.29777240753174

> <r_mmod_Van_der_Waal_Energy-OPLS-2005>
130.938461303711

> <r_mmod_Electrostatic_Energy-OPLS-2005>
-413.217132568359

> <r_mmod_Solvation_Energy-OPLS-2005>
-211.039886474609

> <b_mmod_Minimization_Converged-OPLS-2005>
0

> <r_mmod_RMS_Derivative-OPLS-2005>
0.488107740879059

$$$$
74
                    3D
 Structure written by MMmdl.
167174  0  0  1  0            999 V2000
  -30.7085  -14.4105   20.6357 C   0  0  0  0  0  0
  -30.4212  -12.2963   19.3947 C   0  0  0  0  0  0
  -29.4803  -12.5220   18.1925 C   0  0  0  0  0  0
  -28.0023  -12.3892   18.6079 C   0  0  0  0  0  0
  -27.6630  -13.2013   19.8860 C   0  0  2  0  0  0
  -28.7038  -12.9231   20.9941 C   0  0  0  0  0  0
  -25.2563  -13.8138   20.5653 C   0  0  0  0  0  0
  -24.1825  -13.0405   20.9167 C   0  0  0  0  0  0
  -24.6371  -11.6892   20.8730 C   0  0  0  0  0  0
  -23.9034  -10.4288   21.0415 C   0  0  0  0  0  0
  -24.3599   -9.4208   21.9180 C   0  0  0  0  0  0
  -23.6295   -8.2234   22.0751 C   0  0  0  0  0  0
  -22.4269   -8.0272   21.3553 C   0  0  0  0  0  0
  -21.9893   -9.0235   20.4639 C   0  0  0  0  0  0
  -22.7215  -10.2117   20.3068 C   0  0  0  0  0  0
  -21.6832   -6.0737   22.5282 C   0  0  0  0  0  0
  -21.4001   -6.5646   23.8212 C   0  0  0  0  0  0
  -21.3657   -5.6808   24.9177 C   0  0  0  0  0  0
  -21.6044   -4.3072   24.7221 C   0  0  0  0  0  0
  -21.8819   -3.8158   23.4341 C   0  0  0  0  0  0
  -21.9189   -4.6972   22.3404 C   0  0  0  0  0  0
  -22.7845  -13.5197   21.1857 C   0  0  0  0  0  0
  -22.1668   -4.2156   21.0985 F   0  0  0  0  0  0
  -21.5631   -3.4569   25.7732 F   0  0  0  0  0  0
  -30.0385  -13.2415   20.4541 N   0  0  0  0  0  0
  -26.3015  -12.9301   20.3413 N   0  0  0  0  0  0
  -25.9299  -11.6452   20.5773 N   0  0  0  0  0  0
  -22.0527  -12.8157   22.0410 N   0  0  0  0  0  0
  -25.4275  -15.1841   20.4025 N   0  0  0  0  0  0
  -31.7916  -14.6656   20.1018 O   0  0  0  0  0  0
  -21.6642   -6.8875   21.4240 O   0  0  0  0  0  0
  -22.3526  -14.5528   20.6762 O   0  0  0  0  0  0
  -24.6126  -31.8650   23.2094 C   0  0  0  0  0  0
  -25.9018  -32.4808   23.8393 C   0  0  1  0  0  0
  -27.2492  -27.4413   20.0968 C   0  0  0  0  0  0
  -25.5852  -33.8606   24.2314 N   0  0  0  0  0  0
  -23.4008  -30.4871   21.5477 C   0  0  2  0  0  0
  -24.8501  -28.9489   20.1175 C   0  0  0  0  0  0
  -22.7402  -29.4639   22.4991 C   0  0  0  0  0  0
  -18.0265  -28.1386   22.8476 C   0  0  0  0  0  0
  -24.1481  -36.7328   23.2637 C   0  0  0  0  0  0
  -25.9264  -30.8359   21.3576 C   0  0  0  0  0  0
  -26.0073  -29.4666   20.7113 C   0  0  0  0  0  0
  -27.2063  -28.7201   20.6967 C   0  0  0  0  0  0
  -26.0691  -26.9295   19.5083 C   0  0  0  0  0  0
  -24.8752  -27.6793   19.5143 C   0  0  0  0  0  0
  -23.6098  -29.8128   20.1635 C   0  0  0  0  0  0
  -25.4095  -36.3098   24.0336 C   0  0  1  0  0  0
  -20.5860  -28.3658   23.1328 C   0  0  2  0  0  0
  -20.6756  -26.9388   22.5427 C   0  0  0  0  0  0
  -19.5746  -26.6381   21.5206 C   0  0  0  0  0  0
  -18.1926  -26.7926   22.1608 C   0  0  0  0  0  0
  -19.1522  -28.8841   23.2893 C   0  0  0  0  0  0
  -18.9442  -30.1453   23.8887 C   0  0  0  0  0  0
  -17.6447  -30.6580   24.0577 C   0  0  0  0  0  0
  -25.9012  -34.9466   23.5129 C   0  0  0  0  0  0
  -16.5340  -29.9086   23.6327 C   0  0  0  0  0  0
  -16.7258  -28.6526   23.0307 C   0  0  0  0  0  0
  -26.4458  -31.6576   25.0709 C   0  0  0  0  0  0
  -25.3734  -31.3666   26.1466 C   0  0  0  0  0  0
  -27.0298  -30.3025   24.6063 C   0  0  0  0  0  0
  -27.6030  -32.4295   25.7478 C   0  0  0  0  0  0
  -27.5578  -37.1805   24.8456 C   0  0  0  0  0  0
  -21.4136  -29.3020   22.3735 N   0  0  0  0  0  0
  -26.4277  -37.3783   23.9416 N   0  0  0  0  0  0
  -24.6646  -31.0779   22.0976 N   0  0  0  0  0  0
  -23.4177  -28.8150   23.3018 O   0  0  0  0  0  0
  -28.4510  -26.7640   20.0978 O   0  0  0  0  0  0
  -26.5600  -34.8913   22.4701 O   0  0  0  0  0  0
  -23.5327  -32.1386   23.7501 O   0  0  0  0  0  0
  -31.8775  -23.3396   18.3666 C   0  0  0  0  0  0
  -29.5494  -22.6427   17.8585 C   0  0  0  0  0  0
  -29.8348  -19.3872   18.1668 C   0  0  0  0  0  0
  -29.9031  -24.8611   20.2125 C   0  0  0  0  0  0
  -30.1516  -23.3207   20.2456 C   0  0  0  0  0  0
  -29.9504  -17.6652   20.4728 C   0  0  0  0  0  0
  -30.4716  -16.7219   21.5806 C   0  0  0  0  0  0
  -30.6186  -19.0694   20.4999 C   0  0  0  0  0  0
  -31.1559  -21.1500   19.2870 C   0  0  0  0  0  0
  -28.4665  -25.3442   19.9222 C   0  0  0  0  0  0
  -30.6435  -22.6029   18.9453 C   0  0  0  0  0  0
  -30.0551  -15.3303   21.3662 N   0  0  0  0  0  0
  -30.1576  -20.0480   19.4600 N   0  3  1  0  0  0
  -31.4597  -12.4180   19.0848 H   0  0  0  0  0  0
  -30.3439  -11.2710   19.7580 H   0  0  0  0  0  0
  -29.7043  -11.8113   17.3955 H   0  0  0  0  0  0
  -29.6501  -13.5147   17.7749 H   0  0  0  0  0  0
  -27.7940  -11.3316   18.7711 H   0  0  0  0  0  0
  -27.3550  -12.7018   17.7872 H   0  0  0  0  0  0
  -27.7218  -14.2578   19.6221 H   0  0  0  0  0  0
  -28.6708  -11.8712   21.2813 H   0  0  0  0  0  0
  -28.4618  -13.4697   21.9057 H   0  0  0  0  0  0
  -25.2756   -9.5678   22.4729 H   0  0  0  0  0  0
  -24.0011   -7.4612   22.7456 H   0  0  0  0  0  0
  -21.0835   -8.8742   19.8909 H   0  0  0  0  0  0
  -22.3702  -10.9645   19.6163 H   0  0  0  0  0  0
  -21.2006   -7.6158   23.9708 H   0  0  0  0  0  0
  -21.1472   -6.0552   25.9069 H   0  0  0  0  0  0
  -22.0604   -2.7624   23.2848 H   0  0  0  0  0  0
  -22.4190  -11.9815   22.4759 H   0  0  0  0  0  0
  -21.1124  -13.1115   22.2649 H   0  0  0  0  0  0
  -24.6593  -15.8380   20.5076 H   0  0  0  0  0  0
  -26.2838  -15.6255   20.0909 H   0  0  0  0  0  0
  -26.7074  -32.5529   23.1153 H   0  0  0  0  0  0
  -24.9965  -33.9776   25.0436 H   0  0  0  0  0  0
  -22.6875  -31.3004   21.4062 H   0  0  0  0  0  0
  -23.3721  -35.9681   23.3292 H   0  0  0  0  0  0
  -24.3569  -36.8961   22.2051 H   0  0  0  0  0  0
  -23.7258  -37.6539   23.6663 H   0  0  0  0  0  0
  -26.0283  -31.5962   20.5810 H   0  0  0  0  0  0
  -26.8183  -30.8984   21.9698 H   0  0  0  0  0  0
  -28.1026  -29.1230   21.1473 H   0  0  0  0  0  0
  -26.0591  -25.9590   19.0352 H   0  0  0  0  0  0
  -23.9845  -27.2762   19.0498 H   0  0  0  0  0  0
  -23.7144  -30.5845   19.3992 H   0  0  0  0  0  0
  -22.7358  -29.2262   19.8724 H   0  0  0  0  0  0
  -25.1269  -36.1959   25.0828 H   0  0  0  0  0  0
  -20.9944  -28.3213   24.1453 H   0  0  0  0  0  0
  -20.5647  -26.2246   23.3608 H   0  0  0  0  0  0
  -21.6629  -26.7413   22.1233 H   0  0  0  0  0  0
  -19.6905  -25.6293   21.1230 H   0  0  0  0  0  0
  -19.6709  -27.3200   20.6752 H   0  0  0  0  0  0
  -17.4187  -26.6670   21.4015 H   0  0  0  0  0  0
  -18.0324  -26.0081   22.9020 H   0  0  0  0  0  0
  -19.7923  -30.7299   24.2225 H   0  0  0  0  0  0
  -17.4995  -31.6251   24.5196 H   0  0  0  0  0  0
  -15.5343  -30.2980   23.7669 H   0  0  0  0  0  0
  -15.8663  -28.0881   22.6952 H   0  0  0  0  0  0
  -24.5912  -30.7001   25.7806 H   0  0  0  0  0  0
  -24.8925  -32.2822   26.4920 H   0  0  0  0  0  0
  -25.8105  -30.8833   27.0215 H   0  0  0  0  0  0
  -26.2849  -29.6777   24.1120 H   0  0  0  0  0  0
  -27.4090  -29.7254   25.4508 H   0  0  0  0  0  0
  -27.8665  -30.4358   23.9199 H   0  0  0  0  0  0
  -27.2637  -33.3579   26.2086 H   0  0  0  0  0  0
  -28.3833  -32.6870   25.0302 H   0  0  0  0  0  0
  -28.0700  -31.8391   26.5375 H   0  0  0  0  0  0
  -28.2564  -38.0130   24.7510 H   0  0  0  0  0  0
  -28.1095  -36.2650   24.6254 H   0  0  0  0  0  0
  -27.2301  -37.1447   25.8861 H   0  0  0  0  0  0
  -20.9275  -29.8774   21.7003 H   0  0  0  0  0  0
  -26.0160  -38.2856   24.1419 H   0  0  0  0  0  0
  -31.6391  -24.3307   17.9843 H   0  0  0  0  0  0
  -32.3007  -22.7975   17.5189 H   0  0  0  0  0  0
  -32.6716  -23.4469   19.1073 H   0  0  0  0  0  0
  -29.2761  -23.6676   17.6081 H   0  0  0  0  0  0
  -28.6349  -22.1341   18.1649 H   0  0  0  0  0  0
  -29.8990  -22.2003   16.9256 H   0  0  0  0  0  0
  -28.9658  -18.7350   18.2571 H   0  0  0  0  0  0
  -30.6774  -18.7902   17.8146 H   0  0  0  0  0  0
  -29.5946  -20.0901   17.3770 H   0  0  0  0  0  0
  -30.6049  -25.3794   19.5607 H   0  0  0  0  0  0
  -30.1430  -25.2349   21.2096 H   0  0  0  0  0  0
  -29.2664  -22.8181   20.6434 H   0  0  0  0  0  0
  -30.9213  -23.1694   21.0052 H   0  0  0  0  0  0
  -28.8637  -17.7558   20.5436 H   0  0  0  0  0  0
  -30.1654  -17.1856   19.5175 H   0  0  0  0  0  0
  -30.0989  -17.0503   22.5528 H   0  0  0  0  0  0
  -31.5601  -16.7773   21.6385 H   0  0  0  0  0  0
  -31.6925  -18.9105   20.3768 H   0  0  0  0  0  0
  -30.4901  -19.5244   21.4826 H   0  0  0  0  0  0
  -31.7512  -21.2280   20.1988 H   0  0  0  0  0  0
  -31.8726  -20.8104   18.5381 H   0  0  0  0  0  0
  -28.1592  -25.0856   18.9099 H   0  0  0  0  0  0
  -27.7705  -24.8753   20.6210 H   0  0  0  0  0  0
  -29.1705  -15.0451   21.7591 H   0  0  0  0  0  0
  -29.3028  -20.4576   19.8061 H   0  0  0  0  0  0
  1 25  1  0  0  0
  1 30  2  0  0  0
  1 82  1  0  0  0
  2  3  1  0  0  0
  2 25  1  0  0  0
  2 84  1  0  0  0
  2 85  1  0  0  0
  3  4  1  0  0  0
  3 86  1  0  0  0
  3 87  1  0  0  0
  4  5  1  0  0  0
  4 88  1  0  0  0
  4 89  1  0  0  0
  5  6  1  0  0  0
  5 26  1  0  0  0
  5 90  1  0  0  0
  6 25  1  0  0  0
  6 91  1  0  0  0
  6 92  1  0  0  0
  7  8  2  0  0  0
  7 26  1  0  0  0
  7 29  1  0  0  0
  8  9  1  0  0  0
  8 22  1  0  0  0
  9 10  1  0  0  0
  9 27  2  0  0  0
 10 11  2  0  0  0
 10 15  1  0  0  0
 11 12  1  0  0  0
 11 93  1  0  0  0
 12 13  2  0  0  0
 12 94  1  0  0  0
 13 14  1  0  0  0
 13 31  1  0  0  0
 14 15  2  0  0  0
 14 95  1  0  0  0
 15 96  1  0  0  0
 16 17  2  0  0  0
 16 21  1  0  0  0
 16 31  1  0  0  0
 17 18  1  0  0  0
 17 97  1  0  0  0
 18 19  2  0  0  0
 18 98  1  0  0  0
 19 20  1  0  0  0
 19 24  1  0  0  0
 20 21  2  0  0  0
 20 99  1  0  0  0
 21 23  1  0  0  0
 22 28  1  0  0  0
 22 32  2  0  0  0
 26 27  1  0  0  0
 28100  1  0  0  0
 28101  1  0  0  0
 29102  1  0  0  0
 29103  1  0  0  0
 33 34  1  0  0  0
 33 66  1  0  0  0
 33 70  2  0  0  0
 34 36  1  0  0  0
 34 59  1  0  0  0
 34104  1  0  0  0
 35 44  2  0  0  0
 35 45  1  0  0  0
 35 68  1  0  0  0
 36 56  1  0  0  0
 36105  1  0  0  0
 37 39  1  0  0  0
 37 47  1  0  0  0
 37 66  1  0  0  0
 37106  1  0  0  0
 38 43  2  0  0  0
 38 46  1  0  0  0
 38 47  1  0  0  0
 39 64  1  0  0  0
 39 67  2  0  0  0
 40 52  1  0  0  0
 40 53  2  0  0  0
 40 58  1  0  0  0
 41107  1  0  0  0
 41108  1  0  0  0
 41109  1  0  0  0
 41 48  1  0  0  0
 42 43  1  0  0  0
 42 66  1  0  0  0
 42110  1  0  0  0
 42111  1  0  0  0
 43 44  1  0  0  0
 44112  1  0  0  0
 45 46  2  0  0  0
 45113  1  0  0  0
 46114  1  0  0  0
 47115  1  0  0  0
 47116  1  0  0  0
 48 56  1  0  0  0
 48 65  1  0  0  0
 48117  1  0  0  0
 49 50  1  0  0  0
 49 53  1  0  0  0
 49 64  1  0  0  0
 49118  1  0  0  0
 50 51  1  0  0  0
 50119  1  0  0  0
 50120  1  0  0  0
 51 52  1  0  0  0
 51121  1  0  0  0
 51122  1  0  0  0
 52123  1  0  0  0
 52124  1  0  0  0
 53 54  1  0  0  0
 54 55  2  0  0  0
 54125  1  0  0  0
 55 57  1  0  0  0
 55126  1  0  0  0
 56 69  2  0  0  0
 57 58  2  0  0  0
 57127  1  0  0  0
 58128  1  0  0  0
 59 60  1  0  0  0
 59 61  1  0  0  0
 59 62  1  0  0  0
 60129  1  0  0  0
 60130  1  0  0  0
 60131  1  0  0  0
 61132  1  0  0  0
 61133  1  0  0  0
 61134  1  0  0  0
 62135  1  0  0  0
 62136  1  0  0  0
 62137  1  0  0  0
 63 65  1  0  0  0
 63138  1  0  0  0
 63139  1  0  0  0
 63140  1  0  0  0
 64141  1  0  0  0
 65142  1  0  0  0
 68 80  1  0  0  0
 71143  1  0  0  0
 71144  1  0  0  0
 71145  1  0  0  0
 71 81  1  0  0  0
 72 81  1  0  0  0
 72146  1  0  0  0
 72147  1  0  0  0
 72148  1  0  0  0
 73149  1  0  0  0
 73150  1  0  0  0
 73151  1  0  0  0
 73 83  1  0  0  0
 74 75  1  0  0  0
 74 80  1  0  0  0
 74152  1  0  0  0
 74153  1  0  0  0
 75 81  1  0  0  0
 75154  1  0  0  0
 75155  1  0  0  0
 76 77  1  0  0  0
 76 78  1  0  0  0
 76156  1  0  0  0
 76157  1  0  0  0
 77 82  1  0  0  0
 77158  1  0  0  0
 77159  1  0  0  0
 78 83  1  0  0  0
 78160  1  0  0  0
 78161  1  0  0  0
 79 81  1  0  0  0
 79 83  1  0  0  0
 79162  1  0  0  0
 79163  1  0  0  0
 80164  1  0  0  0
 80165  1  0  0  0
 82166  1  0  0  0
 83167  1  0  0  0
M  CHG  1  83   1
M  ISO  4   1 100  68 101  80 101  82 100
M  END
> <chiral flag>
0

> <version>
0

> <s_m_source_file>
/data/baiqing/PycharmProjects/Reinvent-master-3.2/result/LINK_invent/BTK/process_docking_weight1_custom_sum_contain_oxygen_bond_distance_aromatic_linkinvent_7_9_3/rearranged_h_0045.sdf

> <i_m_source_file_index>
74

> <r_mmod_Potential_Energy-OPLS-2005>
-124.1298828125

> <r_mmod_Stretch_Energy-OPLS-2005>
41.0421485900879

> <r_mmod_Bend_Energy-OPLS-2005>
121.84888458252

> <r_mmod_Torsional_Energy-OPLS-2005>
231.569976806641

> <r_mmod_Improper_Torsional_Energy-OPLS-2005>
2.57261943817139

> <r_mmod_Van_der_Waal_Energy-OPLS-2005>
149.184951782227

> <r_mmod_Electrostatic_Energy-OPLS-2005>
-242.307037353516

> <r_mmod_Solvation_Energy-OPLS-2005>
-436.972564697266

> <b_mmod_Minimization_Converged-OPLS-2005>
0

> <r_mmod_RMS_Derivative-OPLS-2005>
3.29396176338196

$$$$
75
                    3D
 Structure written by MMmdl.
161169  0  0  1  0            999 V2000
  -30.6300  -14.6093   20.5209 C   0  0  0  0  0  0
  -30.4284  -12.3761   19.4503 C   0  0  0  0  0  0
  -29.5075  -12.5173   18.2180 C   0  0  0  0  0  0
  -28.0268  -12.3620   18.6218 C   0  0  0  0  0  0
  -27.6549  -13.2160   19.8650 C   0  0  2  0  0  0
  -28.6947  -13.0548   20.9960 C   0  0  0  0  0  0
  -25.2571  -13.8188   20.5647 C   0  0  0  0  0  0
  -24.1846  -13.0453   20.9164 C   0  0  0  0  0  0
  -24.6411  -11.6925   20.8714 C   0  0  0  0  0  0
  -23.9067  -10.4317   21.0380 C   0  0  0  0  0  0
  -24.3627   -9.4256   21.9167 C   0  0  0  0  0  0
  -23.6326   -8.2281   22.0732 C   0  0  0  0  0  0
  -22.4308   -8.0293   21.3513 C   0  0  0  0  0  0
  -21.9935   -9.0273   20.4627 C   0  0  0  0  0  0
  -22.7233  -10.2164   20.3032 C   0  0  0  0  0  0
  -21.6884   -6.0748   22.5284 C   0  0  0  0  0  0
  -21.4028   -6.5654   23.8212 C   0  0  0  0  0  0
  -21.3657   -5.6804   24.9181 C   0  0  0  0  0  0
  -21.6053   -4.3062   24.7228 C   0  0  0  0  0  0
  -21.8820   -3.8150   23.4348 C   0  0  0  0  0  0
  -21.9213   -4.6973   22.3402 C   0  0  0  0  0  0
  -22.7871  -13.5247   21.1837 C   0  0  0  0  0  0
  -22.1676   -4.2153   21.0984 F   0  0  0  0  0  0
  -21.5636   -3.4538   25.7738 F   0  0  0  0  0  0
  -30.0100  -13.3918   20.4359 N   0  0  0  0  0  0
  -26.2994  -12.9357   20.3297 N   0  0  0  0  0  0
  -25.9333  -11.6511   20.5724 N   0  0  0  0  0  0
  -22.0519  -12.8232   22.0395 N   0  0  0  0  0  0
  -25.4281  -15.1916   20.4053 N   0  0  0  0  0  0
  -31.7835  -14.7807   20.1171 O   0  0  0  0  0  0
  -21.6677   -6.8885   21.4230 O   0  0  0  0  0  0
  -22.3562  -14.5557   20.6686 O   0  0  0  0  0  0
  -24.6268  -31.8614   23.2023 C   0  0  0  0  0  0
  -25.9138  -32.4761   23.8348 C   0  0  1  0  0  0
  -27.2158  -27.3273   20.1226 C   0  0  0  0  0  0
  -25.5972  -33.8561   24.2279 N   0  0  0  0  0  0
  -23.4172  -30.4843   21.5469 C   0  0  2  0  0  0
  -24.8627  -28.9422   20.1116 C   0  0  0  0  0  0
  -22.7485  -29.4624   22.4963 C   0  0  0  0  0  0
  -18.0299  -28.1391   22.8518 C   0  0  0  0  0  0
  -24.1495  -36.7292   23.2636 C   0  0  0  0  0  0
  -25.9568  -30.7938   21.3728 C   0  0  0  0  0  0
  -26.0303  -29.4225   20.7180 C   0  0  0  0  0  0
  -27.2113  -28.6259   20.7166 C   0  0  0  0  0  0
  -26.0290  -26.9012   19.4832 C   0  0  0  0  0  0
  -24.8642  -27.6874   19.4849 C   0  0  0  0  0  0
  -23.6329  -29.8240   20.1601 C   0  0  0  0  0  0
  -25.4106  -36.3051   24.0326 C   0  0  1  0  0  0
  -20.5901  -28.3685   23.1324 C   0  0  2  0  0  0
  -20.6798  -26.9417   22.5430 C   0  0  0  0  0  0
  -19.5749  -26.6395   21.5256 C   0  0  0  0  0  0
  -18.1932  -26.7937   22.1657 C   0  0  0  0  0  0
  -19.1547  -28.8859   23.2912 C   0  0  0  0  0  0
  -18.9461  -30.1469   23.8905 C   0  0  0  0  0  0
  -17.6453  -30.6589   24.0573 C   0  0  0  0  0  0
  -25.9059  -34.9433   23.5088 C   0  0  0  0  0  0
  -16.5353  -29.9086   23.6324 C   0  0  0  0  0  0
  -16.7284  -28.6508   23.0350 C   0  0  0  0  0  0
  -26.4519  -31.6544   25.0705 C   0  0  0  0  0  0
  -25.3759  -31.3696   26.1439 C   0  0  0  0  0  0
  -27.0359  -30.2959   24.6143 C   0  0  0  0  0  0
  -27.6065  -32.4278   25.7498 C   0  0  0  0  0  0
  -27.5570  -37.1796   24.8460 C   0  0  0  0  0  0
  -21.4205  -29.3030   22.3713 N   0  0  0  0  0  0
  -26.4271  -37.3753   23.9424 N   0  0  0  0  0  0
  -24.6853  -31.0640   22.0981 N   0  0  0  0  0  0
  -23.4229  -28.8183   23.3042 O   0  0  0  0  0  0
  -28.3289  -26.4795   20.1794 O   0  0  0  0  0  0
  -26.5614  -34.8908   22.4645 O   0  0  0  0  0  0
  -23.5435  -32.1437   23.7364 O   0  0  0  0  0  0
  -29.0589  -21.7119   19.3893 C   0  0  0  0  0  0
  -29.0357  -20.2919   19.4796 C   0  0  0  0  0  0
  -29.0681  -19.6500   20.7504 C   0  0  0  0  0  0
  -29.0940  -22.5106   20.5544 C   0  0  0  0  0  0
  -29.1074  -20.5336   21.8736 C   0  0  0  0  0  0
  -28.9442  -19.4791   18.2008 C   0  0  0  0  0  0
  -29.9674  -20.8065   24.2929 C   0  0  0  0  0  0
  -28.8965  -18.0865   20.8779 C   0  0  0  0  0  0
  -29.2916  -24.0690   20.5155 C   0  0  0  0  0  0
  -29.0742  -20.0186   23.3136 C   0  0  0  0  0  0
  -30.1541  -17.1300   20.7831 C   0  0  0  0  0  0
  -28.0858  -25.0192   20.1424 C   0  0  0  0  0  0
  -29.0936  -21.8976   21.7658 N   0  0  0  0  0  0
  -29.8427  -15.6654   20.8824 N   0  0  0  0  0  0
  -31.4724  -12.4931   19.1554 H   0  0  0  0  0  0
  -30.3462  -11.3755   19.8777 H   0  0  0  0  0  0
  -29.7738  -11.7781   17.4602 H   0  0  0  0  0  0
  -29.6594  -13.4947   17.7564 H   0  0  0  0  0  0
  -27.8461  -11.3069   18.8264 H   0  0  0  0  0  0
  -27.3830  -12.6212   17.7787 H   0  0  0  0  0  0
  -27.6799  -14.2573   19.5449 H   0  0  0  0  0  0
  -28.6997  -12.0301   21.3718 H   0  0  0  0  0  0
  -28.4435  -13.6824   21.8532 H   0  0  0  0  0  0
  -25.2773   -9.5802   22.4745 H   0  0  0  0  0  0
  -24.0070   -7.4701   22.7464 H   0  0  0  0  0  0
  -21.0859   -8.8781   19.8948 H   0  0  0  0  0  0
  -22.3659  -10.9708   19.6160 H   0  0  0  0  0  0
  -21.1998   -7.6162   23.9715 H   0  0  0  0  0  0
  -21.1471   -6.0530   25.9083 H   0  0  0  0  0  0
  -22.0584   -2.7611   23.2847 H   0  0  0  0  0  0
  -22.4155  -11.9905   22.4798 H   0  0  0  0  0  0
  -21.1120  -13.1223   22.2549 H   0  0  0  0  0  0
  -24.6523  -15.8366   20.5064 H   0  0  0  0  0  0
  -26.2649  -15.6333   20.0443 H   0  0  0  0  0  0
  -26.7207  -32.5432   23.1097 H   0  0  0  0  0  0
  -25.0132  -33.9700   25.0434 H   0  0  0  0  0  0
  -22.7076  -31.3023   21.4063 H   0  0  0  0  0  0
  -23.3727  -35.9653   23.3273 H   0  0  0  0  0  0
  -24.3591  -36.8942   22.2056 H   0  0  0  0  0  0
  -23.7278  -37.6501   23.6673 H   0  0  0  0  0  0
  -26.0845  -31.5550   20.6022 H   0  0  0  0  0  0
  -26.8397  -30.8440   21.9970 H   0  0  0  0  0  0
  -28.1028  -28.9853   21.2134 H   0  0  0  0  0  0
  -25.9738  -25.9456   18.9834 H   0  0  0  0  0  0
  -23.9724  -27.3130   19.0033 H   0  0  0  0  0  0
  -23.7633  -30.6055   19.4107 H   0  0  0  0  0  0
  -22.7519  -29.2617   19.8457 H   0  0  0  0  0  0
  -25.1275  -36.1874   25.0811 H   0  0  0  0  0  0
  -20.9982  -28.3258   24.1453 H   0  0  0  0  0  0
  -20.5779  -26.2287   23.3627 H   0  0  0  0  0  0
  -21.6654  -26.7508   22.1168 H   0  0  0  0  0  0
  -19.6911  -25.6315   21.1266 H   0  0  0  0  0  0
  -19.6670  -27.3232   20.6806 H   0  0  0  0  0  0
  -17.4222  -26.6743   21.4033 H   0  0  0  0  0  0
  -18.0277  -26.0066   22.9028 H   0  0  0  0  0  0
  -19.7933  -30.7307   24.2258 H   0  0  0  0  0  0
  -17.4998  -31.6258   24.5198 H   0  0  0  0  0  0
  -15.5344  -30.2982   23.7627 H   0  0  0  0  0  0
  -15.8698  -28.0823   22.7031 H   0  0  0  0  0  0
  -24.5930  -30.7035   25.7786 H   0  0  0  0  0  0
  -24.8963  -32.2880   26.4838 H   0  0  0  0  0  0
  -25.8107  -30.8901   27.0221 H   0  0  0  0  0  0
  -26.2928  -29.6697   24.1187 H   0  0  0  0  0  0
  -27.4087  -29.7199   25.4625 H   0  0  0  0  0  0
  -27.8782  -30.4219   23.9334 H   0  0  0  0  0  0
  -27.2643  -33.3565   26.2072 H   0  0  0  0  0  0
  -28.3897  -32.6863   25.0359 H   0  0  0  0  0  0
  -28.0708  -31.8410   26.5434 H   0  0  0  0  0  0
  -28.2552  -38.0123   24.7495 H   0  0  0  0  0  0
  -28.1098  -36.2648   24.6264 H   0  0  0  0  0  0
  -27.2311  -37.1419   25.8871 H   0  0  0  0  0  0
  -20.9396  -29.8723   21.6888 H   0  0  0  0  0  0
  -26.0133  -38.2821   24.1410 H   0  0  0  0  0  0
  -29.0577  -22.1917   18.4194 H   0  0  0  0  0  0
  -29.0919  -20.1023   17.3183 H   0  0  0  0  0  0
  -27.9618  -19.0134   18.1168 H   0  0  0  0  0  0
  -29.6997  -18.6936   18.1802 H   0  0  0  0  0  0
  -29.9730  -20.3306   25.2732 H   0  0  0  0  0  0
  -29.6122  -21.8289   24.4355 H   0  0  0  0  0  0
  -30.9999  -20.8557   23.9415 H   0  0  0  0  0  0
  -28.1840  -17.7751   20.1151 H   0  0  0  0  0  0
  -28.3639  -17.8679   21.8020 H   0  0  0  0  0  0
  -30.1119  -24.2692   19.8260 H   0  0  0  0  0  0
  -29.6629  -24.3794   21.4926 H   0  0  0  0  0  0
  -29.4190  -18.9860   23.3412 H   0  0  0  0  0  0
  -28.0396  -20.0106   23.6610 H   0  0  0  0  0  0
  -30.8593  -17.3790   21.5753 H   0  0  0  0  0  0
  -30.6809  -17.3063   19.8444 H   0  0  0  0  0  0
  -27.2622  -24.7872   20.8193 H   0  0  0  0  0  0
  -27.7616  -24.7402   19.1389 H   0  0  0  0  0  0
  -28.9179  -15.4291   21.2051 H   0  0  0  0  0  0
  1 25  1  0  0  0
  1 30  2  0  0  0
  1 84  1  0  0  0
  2  3  1  0  0  0
  2 25  1  0  0  0
  2 85  1  0  0  0
  2 86  1  0  0  0
  3  4  1  0  0  0
  3 87  1  0  0  0
  3 88  1  0  0  0
  4  5  1  0  0  0
  4 89  1  0  0  0
  4 90  1  0  0  0
  5  6  1  0  0  0
  5 26  1  0  0  0
  5 91  1  0  0  0
  6 25  1  0  0  0
  6 92  1  0  0  0
  6 93  1  0  0  0
  7  8  2  0  0  0
  7 26  1  0  0  0
  7 29  1  0  0  0
  8  9  1  0  0  0
  8 22  1  0  0  0
  9 10  1  0  0  0
  9 27  2  0  0  0
 10 11  2  0  0  0
 10 15  1  0  0  0
 11 12  1  0  0  0
 11 94  1  0  0  0
 12 13  2  0  0  0
 12 95  1  0  0  0
 13 14  1  0  0  0
 13 31  1  0  0  0
 14 15  2  0  0  0
 14 96  1  0  0  0
 15 97  1  0  0  0
 16 17  2  0  0  0
 16 21  1  0  0  0
 16 31  1  0  0  0
 17 18  1  0  0  0
 17 98  1  0  0  0
 18 19  2  0  0  0
 18 99  1  0  0  0
 19 20  1  0  0  0
 19 24  1  0  0  0
 20 21  2  0  0  0
 20100  1  0  0  0
 21 23  1  0  0  0
 22 28  1  0  0  0
 22 32  2  0  0  0
 26 27  1  0  0  0
 28101  1  0  0  0
 28102  1  0  0  0
 29103  1  0  0  0
 29104  1  0  0  0
 33 34  1  0  0  0
 33 66  1  0  0  0
 33 70  2  0  0  0
 34 36  1  0  0  0
 34 59  1  0  0  0
 34105  1  0  0  0
 35 44  2  0  0  0
 35 45  1  0  0  0
 35 68  1  0  0  0
 36 56  1  0  0  0
 36106  1  0  0  0
 37 39  1  0  0  0
 37 47  1  0  0  0
 37 66  1  0  0  0
 37107  1  0  0  0
 38 43  2  0  0  0
 38 46  1  0  0  0
 38 47  1  0  0  0
 39 64  1  0  0  0
 39 67  2  0  0  0
 40 52  1  0  0  0
 40 53  2  0  0  0
 40 58  1  0  0  0
 41108  1  0  0  0
 41109  1  0  0  0
 41110  1  0  0  0
 41 48  1  0  0  0
 42 43  1  0  0  0
 42 66  1  0  0  0
 42111  1  0  0  0
 42112  1  0  0  0
 43 44  1  0  0  0
 44113  1  0  0  0
 45 46  2  0  0  0
 45114  1  0  0  0
 46115  1  0  0  0
 47116  1  0  0  0
 47117  1  0  0  0
 48 56  1  0  0  0
 48 65  1  0  0  0
 48118  1  0  0  0
 49 50  1  0  0  0
 49 53  1  0  0  0
 49 64  1  0  0  0
 49119  1  0  0  0
 50 51  1  0  0  0
 50120  1  0  0  0
 50121  1  0  0  0
 51 52  1  0  0  0
 51122  1  0  0  0
 51123  1  0  0  0
 52124  1  0  0  0
 52125  1  0  0  0
 53 54  1  0  0  0
 54 55  2  0  0  0
 54126  1  0  0  0
 55 57  1  0  0  0
 55127  1  0  0  0
 56 69  2  0  0  0
 57 58  2  0  0  0
 57128  1  0  0  0
 58129  1  0  0  0
 59 60  1  0  0  0
 59 61  1  0  0  0
 59 62  1  0  0  0
 60130  1  0  0  0
 60131  1  0  0  0
 60132  1  0  0  0
 61133  1  0  0  0
 61134  1  0  0  0
 61135  1  0  0  0
 62136  1  0  0  0
 62137  1  0  0  0
 62138  1  0  0  0
 63 65  1  0  0  0
 63139  1  0  0  0
 63140  1  0  0  0
 63141  1  0  0  0
 64142  1  0  0  0
 65143  1  0  0  0
 68 82  1  0  0  0
 71 72  2  0  0  0
 71 74  1  0  0  0
 71144  1  0  0  0
 72 73  1  0  0  0
 72 76  1  0  0  0
 73 75  2  0  0  0
 73 78  1  0  0  0
 74 79  1  0  0  0
 74 83  2  0  0  0
 75 80  1  0  0  0
 75 83  1  0  0  0
 76145  1  0  0  0
 76146  1  0  0  0
 76147  1  0  0  0
 77 80  1  0  0  0
 77148  1  0  0  0
 77149  1  0  0  0
 77150  1  0  0  0
 78 81  1  0  0  0
 78151  1  0  0  0
 78152  1  0  0  0
 79 82  1  0  0  0
 79153  1  0  0  0
 79154  1  0  0  0
 80155  1  0  0  0
 80156  1  0  0  0
 81 84  1  0  0  0
 81157  1  0  0  0
 81158  1  0  0  0
 82159  1  0  0  0
 82160  1  0  0  0
 84161  1  0  0  0
M  ISO  4   1 100  68 101  82 101  84 100
M  END
> <chiral flag>
0

> <version>
0

> <s_m_source_file>
/data/baiqing/PycharmProjects/Reinvent-master-3.2/result/LINK_invent/BTK/process_docking_weight1_custom_sum_contain_oxygen_bond_distance_aromatic_linkinvent_7_9_3/rearranged_h_0045.sdf

> <i_m_source_file_index>
75

> <r_mmod_Potential_Energy-OPLS-2005>
-188.831466674805

> <r_mmod_Stretch_Energy-OPLS-2005>
73.0369415283203

> <r_mmod_Bend_Energy-OPLS-2005>
121.637542724609

> <r_mmod_Torsional_Energy-OPLS-2005>
197.477096557617

> <r_mmod_Improper_Torsional_Energy-OPLS-2005>
5.81815814971924

> <r_mmod_Van_der_Waal_Energy-OPLS-2005>
147.956481933594

> <r_mmod_Electrostatic_Energy-OPLS-2005>
-552.210998535156

> <r_mmod_Solvation_Energy-OPLS-2005>
-225.551422119141

> <b_mmod_Minimization_Converged-OPLS-2005>
0

> <r_mmod_RMS_Derivative-OPLS-2005>
3.21320104598999

$$$$
76
                    3D
 Structure written by MMmdl.
154162  0  0  1  0            999 V2000
  -30.5644  -14.8960   20.4205 C   0  0  0  0  0  0
  -30.4310  -12.5502   19.5018 C   0  0  0  0  0  0
  -29.5182  -12.5214   18.2550 C   0  0  0  0  0  0
  -28.0477  -12.3215   18.6681 C   0  0  0  0  0  0
  -27.6299  -13.2471   19.8412 C   0  0  2  0  0  0
  -28.6700  -13.2601   20.9817 C   0  0  0  0  0  0
  -25.2455  -13.8217   20.5705 C   0  0  0  0  0  0
  -24.1773  -13.0439   20.9222 C   0  0  0  0  0  0
  -24.6386  -11.6924   20.8743 C   0  0  0  0  0  0
  -23.9072  -10.4295   21.0407 C   0  0  0  0  0  0
  -24.3625   -9.4208   21.9182 C   0  0  0  0  0  0
  -23.6299   -8.2243   22.0752 C   0  0  0  0  0  0
  -22.4279   -8.0282   21.3544 C   0  0  0  0  0  0
  -21.9916   -9.0257   20.4647 C   0  0  0  0  0  0
  -22.7246  -10.2133   20.3055 C   0  0  0  0  0  0
  -21.6855   -6.0734   22.5278 C   0  0  0  0  0  0
  -21.4019   -6.5639   23.8210 C   0  0  0  0  0  0
  -21.3660   -5.6790   24.9174 C   0  0  0  0  0  0
  -21.6041   -4.3051   24.7225 C   0  0  0  0  0  0
  -21.8820   -3.8145   23.4348 C   0  0  0  0  0  0
  -21.9196   -4.6961   22.3404 C   0  0  0  0  0  0
  -22.7796  -13.5208   21.1882 C   0  0  0  0  0  0
  -22.1663   -4.2145   21.0980 F   0  0  0  0  0  0
  -21.5630   -3.4538   25.7741 F   0  0  0  0  0  0
  -29.9535  -13.6487   20.3875 N   0  0  0  0  0  0
  -26.2879  -12.9448   20.3247 N   0  0  0  0  0  0
  -25.9315  -11.6575   20.5738 N   0  0  0  0  0  0
  -22.0450  -12.8193   22.0438 N   0  0  0  0  0  0
  -25.4115  -15.1949   20.4145 N   0  0  0  0  0  0
  -31.7639  -14.9491   20.1314 O   0  0  0  0  0  0
  -21.6641   -6.8877   21.4240 O   0  0  0  0  0  0
  -22.3473  -14.5513   20.6731 O   0  0  0  0  0  0
  -24.6399  -31.8449   23.1882 C   0  0  0  0  0  0
  -25.9182  -32.4696   23.8272 C   0  0  1  0  0  0
  -27.2212  -27.1638   20.1488 C   0  0  0  0  0  0
  -25.5942  -33.8502   24.2193 N   0  0  0  0  0  0
  -23.4414  -30.4625   21.5321 C   0  0  2  0  0  0
  -24.8901  -28.8886   20.1076 C   0  0  0  0  0  0
  -22.7544  -29.4545   22.4865 C   0  0  0  0  0  0
  -18.0297  -28.1390   22.8477 C   0  0  0  0  0  0
  -24.1488  -36.7255   23.2643 C   0  0  0  0  0  0
  -25.9925  -30.7282   21.3803 C   0  0  0  0  0  0
  -26.0625  -29.3407   20.7239 C   0  0  0  0  0  0
  -27.2256  -28.4915   20.7291 C   0  0  0  0  0  0
  -26.0235  -26.7972   19.4992 C   0  0  0  0  0  0
  -24.8811  -27.6304   19.4822 C   0  0  0  0  0  0
  -23.6650  -29.7879   20.1516 C   0  0  0  0  0  0
  -25.4121  -36.3032   24.0317 C   0  0  1  0  0  0
  -20.5907  -28.3706   23.1248 C   0  0  2  0  0  0
  -20.6777  -26.9409   22.5409 C   0  0  0  0  0  0
  -19.5754  -26.6378   21.5209 C   0  0  0  0  0  0
  -18.1936  -26.7931   22.1621 C   0  0  0  0  0  0
  -19.1552  -28.8866   23.2855 C   0  0  0  0  0  0
  -18.9471  -30.1465   23.8877 C   0  0  0  0  0  0
  -17.6469  -30.6586   24.0557 C   0  0  0  0  0  0
  -25.9072  -34.9406   23.5066 C   0  0  0  0  0  0
  -16.5361  -29.9081   23.6332 C   0  0  0  0  0  0
  -16.7283  -28.6499   23.0355 C   0  0  0  0  0  0
  -26.4521  -31.6563   25.0710 C   0  0  0  0  0  0
  -25.3724  -31.3737   26.1419 C   0  0  0  0  0  0
  -27.0388  -30.2969   24.6267 C   0  0  0  0  0  0
  -27.6054  -32.4327   25.7496 C   0  0  0  0  0  0
  -27.5573  -37.1782   24.8467 C   0  0  0  0  0  0
  -21.4238  -29.3037   22.3622 N   0  0  0  0  0  0
  -26.4286  -37.3743   23.9411 N   0  0  0  0  0  0
  -24.7106  -31.0337   22.0892 N   0  0  0  0  0  0
  -23.4203  -28.8100   23.3008 O   0  0  0  0  0  0
  -28.3146  -26.2428   20.2513 O   0  0  0  0  0  0
  -26.5658  -34.8900   22.4644 O   0  0  0  0  0  0
  -23.5527  -32.1312   23.7122 O   0  0  0  0  0  0
  -29.7317  -21.2002   21.4356 C   0  0  0  0  0  0
  -28.6440  -19.6868   19.5138 C   0  0  0  0  0  0
  -28.8332  -21.8807   20.5320 C   0  0  0  0  0  0
  -29.5500  -19.0143   20.4169 C   0  0  0  0  0  0
  -30.3761  -21.9436   22.5895 C   0  0  0  0  0  0
  -28.0490  -18.9278   18.3462 C   0  0  0  0  0  0
  -28.2779  -23.4202   20.7806 C   0  0  0  0  0  0
  -30.2707  -17.5468   20.1921 C   0  0  0  0  0  0
  -28.3743  -24.7614   19.8007 C   0  0  0  0  0  0
  -28.2861  -21.0403   19.5851 N   0  0  0  0  0  0
  -30.0725  -19.8514   21.3709 N   0  0  0  0  0  0
  -29.8145  -16.0902   20.5442 N   0  0  0  0  0  0
  -31.4697  -12.6888   19.1972 H   0  0  0  0  0  0
  -30.4018  -11.5944   20.0276 H   0  0  0  0  0  0
  -29.8288  -11.7263   17.5759 H   0  0  0  0  0  0
  -29.6216  -13.4563   17.7017 H   0  0  0  0  0  0
  -27.9287  -11.2784   18.9621 H   0  0  0  0  0  0
  -27.3903  -12.4726   17.8113 H   0  0  0  0  0  0
  -27.5991  -14.2536   19.4231 H   0  0  0  0  0  0
  -28.7402  -12.2835   21.4630 H   0  0  0  0  0  0
  -28.3779  -13.9683   21.7592 H   0  0  0  0  0  0
  -25.2770   -9.5683   22.4759 H   0  0  0  0  0  0
  -24.0009   -7.4631   22.7470 H   0  0  0  0  0  0
  -21.0849   -8.8778   19.8955 H   0  0  0  0  0  0
  -22.3703  -10.9675   19.6170 H   0  0  0  0  0  0
  -21.2008   -7.6147   23.9713 H   0  0  0  0  0  0
  -21.1482   -6.0521   25.9075 H   0  0  0  0  0  0
  -22.0598   -2.7607   23.2849 H   0  0  0  0  0  0
  -22.4085  -11.9867   22.4833 H   0  0  0  0  0  0
  -21.1066  -13.1209   22.2653 H   0  0  0  0  0  0
  -24.6398  -15.8439   20.5260 H   0  0  0  0  0  0
  -26.2532  -15.6376   20.0702 H   0  0  0  0  0  0
  -26.7248  -32.5312   23.1002 H   0  0  0  0  0  0
  -25.0076  -33.9618   25.0334 H   0  0  0  0  0  0
  -22.7431  -31.2876   21.3779 H   0  0  0  0  0  0
  -23.3755  -35.9583   23.3295 H   0  0  0  0  0  0
  -24.3574  -36.8897   22.2060 H   0  0  0  0  0  0
  -23.7241  -37.6446   23.6688 H   0  0  0  0  0  0
  -26.1441  -31.4827   20.6068 H   0  0  0  0  0  0
  -26.8648  -30.7801   22.0207 H   0  0  0  0  0  0
  -28.1205  -28.8308   21.2317 H   0  0  0  0  0  0
  -25.9350  -25.8298   19.0297 H   0  0  0  0  0  0
  -23.9815  -27.2782   18.9962 H   0  0  0  0  0  0
  -23.7976  -30.5600   19.3932 H   0  0  0  0  0  0
  -22.7809  -29.2264   19.8446 H   0  0  0  0  0  0
  -25.1308  -36.1858   25.0811 H   0  0  0  0  0  0
  -21.0001  -28.3288   24.1367 H   0  0  0  0  0  0
  -20.5651  -26.2316   23.3622 H   0  0  0  0  0  0
  -21.6647  -26.7403   22.1217 H   0  0  0  0  0  0
  -19.6909  -25.6283   21.1249 H   0  0  0  0  0  0
  -19.6698  -27.3179   20.6731 H   0  0  0  0  0  0
  -17.4204  -26.6673   21.4027 H   0  0  0  0  0  0
  -18.0334  -26.0078   22.9022 H   0  0  0  0  0  0
  -19.7947  -30.7283   24.2241 H   0  0  0  0  0  0
  -17.5021  -31.6264   24.5161 H   0  0  0  0  0  0
  -15.5358  -30.2976   23.7667 H   0  0  0  0  0  0
  -15.8685  -28.0809   22.7089 H   0  0  0  0  0  0
  -24.5905  -30.7081   25.7744 H   0  0  0  0  0  0
  -24.8915  -32.2914   26.4813 H   0  0  0  0  0  0
  -25.8029  -30.8935   27.0215 H   0  0  0  0  0  0
  -26.2998  -29.6694   24.1273 H   0  0  0  0  0  0
  -27.4014  -29.7262   25.4826 H   0  0  0  0  0  0
  -27.8896  -30.4221   23.9568 H   0  0  0  0  0  0
  -27.2648  -33.3640   26.2032 H   0  0  0  0  0  0
  -28.3891  -32.6864   25.0348 H   0  0  0  0  0  0
  -28.0696  -31.8484   26.5450 H   0  0  0  0  0  0
  -28.2582  -38.0083   24.7509 H   0  0  0  0  0  0
  -28.1073  -36.2613   24.6298 H   0  0  0  0  0  0
  -27.2290  -37.1435   25.8868 H   0  0  0  0  0  0
  -20.9437  -29.8754   21.6815 H   0  0  0  0  0  0
  -26.0149  -38.2809   24.1417 H   0  0  0  0  0  0
  -31.0859  -21.3142   23.1268 H   0  0  0  0  0  0
  -29.6205  -22.2727   23.3028 H   0  0  0  0  0  0
  -30.9155  -22.8184   22.2250 H   0  0  0  0  0  0
  -28.8018  -18.7822   17.5715 H   0  0  0  0  0  0
  -27.2058  -19.4632   17.9084 H   0  0  0  0  0  0
  -27.6928  -17.9491   18.6686 H   0  0  0  0  0  0
  -28.7128  -23.7454   21.7227 H   0  0  0  0  0  0
  -27.2219  -23.3004   21.0223 H   0  0  0  0  0  0
  -31.2528  -17.6472   20.6548 H   0  0  0  0  0  0
  -30.4928  -17.5122   19.1248 H   0  0  0  0  0  0
  -27.7192  -24.6094   18.9445 H   0  0  0  0  0  0
  -29.3714  -24.6986   19.3651 H   0  0  0  0  0  0
  -28.8389  -15.9796   20.7722 H   0  0  0  0  0  0
  1 25  1  0  0  0
  1 30  2  0  0  0
  1 82  1  0  0  0
  2  3  1  0  0  0
  2 25  1  0  0  0
  2 83  1  0  0  0
  2 84  1  0  0  0
  3  4  1  0  0  0
  3 85  1  0  0  0
  3 86  1  0  0  0
  4  5  1  0  0  0
  4 87  1  0  0  0
  4 88  1  0  0  0
  5  6  1  0  0  0
  5 26  1  0  0  0
  5 89  1  0  0  0
  6 25  1  0  0  0
  6 90  1  0  0  0
  6 91  1  0  0  0
  7  8  2  0  0  0
  7 26  1  0  0  0
  7 29  1  0  0  0
  8  9  1  0  0  0
  8 22  1  0  0  0
  9 10  1  0  0  0
  9 27  2  0  0  0
 10 11  2  0  0  0
 10 15  1  0  0  0
 11 12  1  0  0  0
 11 92  1  0  0  0
 12 13  2  0  0  0
 12 93  1  0  0  0
 13 14  1  0  0  0
 13 31  1  0  0  0
 14 15  2  0  0  0
 14 94  1  0  0  0
 15 95  1  0  0  0
 16 17  2  0  0  0
 16 21  1  0  0  0
 16 31  1  0  0  0
 17 18  1  0  0  0
 17 96  1  0  0  0
 18 19  2  0  0  0
 18 97  1  0  0  0
 19 20  1  0  0  0
 19 24  1  0  0  0
 20 21  2  0  0  0
 20 98  1  0  0  0
 21 23  1  0  0  0
 22 28  1  0  0  0
 22 32  2  0  0  0
 26 27  1  0  0  0
 28 99  1  0  0  0
 28100  1  0  0  0
 29101  1  0  0  0
 29102  1  0  0  0
 33 34  1  0  0  0
 33 66  1  0  0  0
 33 70  2  0  0  0
 34 36  1  0  0  0
 34 59  1  0  0  0
 34103  1  0  0  0
 35 44  2  0  0  0
 35 45  1  0  0  0
 35 68  1  0  0  0
 36 56  1  0  0  0
 36104  1  0  0  0
 37 39  1  0  0  0
 37 47  1  0  0  0
 37 66  1  0  0  0
 37105  1  0  0  0
 38 43  2  0  0  0
 38 46  1  0  0  0
 38 47  1  0  0  0
 39 64  1  0  0  0
 39 67  2  0  0  0
 40 52  1  0  0  0
 40 53  2  0  0  0
 40 58  1  0  0  0
 41106  1  0  0  0
 41107  1  0  0  0
 41108  1  0  0  0
 41 48  1  0  0  0
 42 43  1  0  0  0
 42 66  1  0  0  0
 42109  1  0  0  0
 42110  1  0  0  0
 43 44  1  0  0  0
 44111  1  0  0  0
 45 46  2  0  0  0
 45112  1  0  0  0
 46113  1  0  0  0
 47114  1  0  0  0
 47115  1  0  0  0
 48 56  1  0  0  0
 48 65  1  0  0  0
 48116  1  0  0  0
 49 50  1  0  0  0
 49 53  1  0  0  0
 49 64  1  0  0  0
 49117  1  0  0  0
 50 51  1  0  0  0
 50118  1  0  0  0
 50119  1  0  0  0
 51 52  1  0  0  0
 51120  1  0  0  0
 51121  1  0  0  0
 52122  1  0  0  0
 52123  1  0  0  0
 53 54  1  0  0  0
 54 55  2  0  0  0
 54124  1  0  0  0
 55 57  1  0  0  0
 55125  1  0  0  0
 56 69  2  0  0  0
 57 58  2  0  0  0
 57126  1  0  0  0
 58127  1  0  0  0
 59 60  1  0  0  0
 59 61  1  0  0  0
 59 62  1  0  0  0
 60128  1  0  0  0
 60129  1  0  0  0
 60130  1  0  0  0
 61131  1  0  0  0
 61132  1  0  0  0
 61133  1  0  0  0
 62134  1  0  0  0
 62135  1  0  0  0
 62136  1  0  0  0
 63 65  1  0  0  0
 63137  1  0  0  0
 63138  1  0  0  0
 63139  1  0  0  0
 64140  1  0  0  0
 65141  1  0  0  0
 68 79  1  0  0  0
 71 73  2  0  0  0
 71 75  1  0  0  0
 71 81  1  0  0  0
 72 74  1  0  0  0
 72 76  1  0  0  0
 72 80  2  0  0  0
 73 77  1  0  0  0
 73 80  1  0  0  0
 74 78  1  0  0  0
 74 81  2  0  0  0
 75142  1  0  0  0
 75143  1  0  0  0
 75144  1  0  0  0
 76145  1  0  0  0
 76146  1  0  0  0
 76147  1  0  0  0
 77 79  1  0  0  0
 77148  1  0  0  0
 77149  1  0  0  0
 78 82  1  0  0  0
 78150  1  0  0  0
 78151  1  0  0  0
 79152  1  0  0  0
 79153  1  0  0  0
 82154  1  0  0  0
M  ISO  4   1 100  68 101  79 101  82 100
M  END
> <chiral flag>
0

> <version>
0

> <s_m_source_file>
/data/baiqing/PycharmProjects/Reinvent-master-3.2/result/LINK_invent/BTK/process_docking_weight1_custom_sum_contain_oxygen_bond_distance_aromatic_linkinvent_7_9_3/rearranged_h_0045.sdf

> <i_m_source_file_index>
76

> <r_mmod_Potential_Energy-OPLS-2005>
362.911773681641

> <r_mmod_Stretch_Energy-OPLS-2005>
215.944580078125

> <r_mmod_Bend_Energy-OPLS-2005>
271.604431152344

> <r_mmod_Torsional_Energy-OPLS-2005>
203.513046264648

> <r_mmod_Improper_Torsional_Energy-OPLS-2005>
8.82889175415039

> <r_mmod_Van_der_Waal_Energy-OPLS-2005>
134.284286499023

> <r_mmod_Electrostatic_Energy-OPLS-2005>
-399.717010498047

> <r_mmod_Solvation_Energy-OPLS-2005>
-230.852188110352

> <b_mmod_Minimization_Converged-OPLS-2005>
0

> <r_mmod_RMS_Derivative-OPLS-2005>
1.01064169406891

$$$$
77
                    3D
 Structure written by MMmdl.
159167  0  0  1  0            999 V2000
  -30.6663  -14.5220   20.5292 C   0  0  0  0  0  0
  -30.4288  -12.3251   19.4313 C   0  0  0  0  0  0
  -29.4991  -12.4848   18.2110 C   0  0  0  0  0  0
  -28.0192  -12.3491   18.6242 C   0  0  0  0  0  0
  -27.6594  -13.2049   19.8684 C   0  0  2  0  0  0
  -28.7027  -13.0098   20.9925 C   0  0  0  0  0  0
  -25.2580  -13.8141   20.5638 C   0  0  0  0  0  0
  -24.1835  -13.0423   20.9173 C   0  0  0  0  0  0
  -24.6389  -11.6893   20.8745 C   0  0  0  0  0  0
  -23.9046  -10.4291   21.0417 C   0  0  0  0  0  0
  -24.3605   -9.4212   21.9195 C   0  0  0  0  0  0
  -23.6295   -8.2238   22.0745 C   0  0  0  0  0  0
  -22.4279   -8.0269   21.3539 C   0  0  0  0  0  0
  -21.9906   -9.0226   20.4635 C   0  0  0  0  0  0
  -22.7219  -10.2116   20.3064 C   0  0  0  0  0  0
  -21.6845   -6.0751   22.5280 C   0  0  0  0  0  0
  -21.4019   -6.5655   23.8214 C   0  0  0  0  0  0
  -21.3652   -5.6797   24.9171 C   0  0  0  0  0  0
  -21.6040   -4.3058   24.7208 C   0  0  0  0  0  0
  -21.8830   -3.8160   23.4331 C   0  0  0  0  0  0
  -21.9184   -4.6981   22.3394 C   0  0  0  0  0  0
  -22.7856  -13.5204   21.1822 C   0  0  0  0  0  0
  -22.1646   -4.2174   21.0965 F   0  0  0  0  0  0
  -21.5622   -3.4538   25.7720 F   0  0  0  0  0  0
  -30.0270  -13.3221   20.4356 N   0  0  0  0  0  0
  -26.3016  -12.9305   20.3322 N   0  0  0  0  0  0
  -25.9317  -11.6477   20.5791 N   0  0  0  0  0  0
  -22.0483  -12.8225   22.0397 N   0  0  0  0  0  0
  -25.4295  -15.1861   20.4005 N   0  0  0  0  0  0
  -31.8121  -14.7030   20.1120 O   0  0  0  0  0  0
  -21.6633   -6.8880   21.4239 O   0  0  0  0  0  0
  -22.3533  -14.5497   20.6641 O   0  0  0  0  0  0
  -24.6181  -31.8632   23.2057 C   0  0  0  0  0  0
  -25.9049  -32.4804   23.8365 C   0  0  1  0  0  0
  -27.2316  -27.3981   20.1155 C   0  0  0  0  0  0
  -25.5901  -33.8607   24.2293 N   0  0  0  0  0  0
  -23.4090  -30.4859   21.5435 C   0  0  2  0  0  0
  -24.8554  -28.9437   20.1143 C   0  0  0  0  0  0
  -22.7448  -29.4641   22.4953 C   0  0  0  0  0  0
  -18.0281  -28.1390   22.8476 C   0  0  0  0  0  0
  -24.1490  -36.7311   23.2632 C   0  0  0  0  0  0
  -25.9379  -30.8237   21.3571 C   0  0  0  0  0  0
  -26.0177  -29.4521   20.7094 C   0  0  0  0  0  0
  -27.2126  -28.6915   20.6980 C   0  0  0  0  0  0
  -26.0549  -26.9110   19.5116 C   0  0  0  0  0  0
  -24.8714  -27.6740   19.5087 C   0  0  0  0  0  0
  -23.6203  -29.8149   20.1585 C   0  0  0  0  0  0
  -25.4115  -36.3105   24.0319 C   0  0  1  0  0  0
  -20.5881  -28.3665   23.1303 C   0  0  2  0  0  0
  -20.6764  -26.9397   22.5408 C   0  0  0  0  0  0
  -19.5742  -26.6380   21.5209 C   0  0  0  0  0  0
  -18.1925  -26.7921   22.1625 C   0  0  0  0  0  0
  -19.1533  -28.8843   23.2885 C   0  0  0  0  0  0
  -18.9459  -30.1462   23.8883 C   0  0  0  0  0  0
  -17.6458  -30.6576   24.0571 C   0  0  0  0  0  0
  -25.9047  -34.9470   23.5100 C   0  0  0  0  0  0
  -16.5349  -29.9079   23.6342 C   0  0  0  0  0  0
  -16.7266  -28.6515   23.0318 C   0  0  0  0  0  0
  -26.4468  -31.6594   25.0704 C   0  0  0  0  0  0
  -25.3717  -31.3694   26.1442 C   0  0  0  0  0  0
  -27.0304  -30.3045   24.6072 C   0  0  0  0  0  0
  -27.6052  -32.4304   25.7462 C   0  0  0  0  0  0
  -27.5575  -37.1816   24.8458 C   0  0  0  0  0  0
  -21.4171  -29.3031   22.3713 N   0  0  0  0  0  0
  -26.4290  -37.3805   23.9403 N   0  0  0  0  0  0
  -24.6736  -31.0729   22.0943 N   0  0  0  0  0  0
  -23.4225  -28.8180   23.2993 O   0  0  0  0  0  0
  -28.3754  -26.6202   20.1168 O   0  0  0  0  0  0
  -26.5619  -34.8911   22.4679 O   0  0  0  0  0  0
  -23.5370  -32.1385   23.7457 O   0  0  0  0  0  0
  -26.7019  -19.7597   21.0313 C   0  0  0  0  0  0
  -26.3865  -21.8737   21.0594 C   0  0  0  0  0  0
  -27.7363  -21.6799   20.8133 C   0  0  0  0  0  0
  -25.6006  -23.1330   21.2635 C   0  0  0  0  0  0
  -28.8348  -22.7196   20.6149 C   0  0  0  0  0  0
  -28.4753  -24.0762   19.8966 C   0  0  0  0  0  0
  -28.9693  -17.9230   20.9226 C   0  0  0  0  0  0
  -29.1717  -19.4719   20.7277 C   0  0  0  0  0  0
  -30.2075  -17.0010   20.7218 C   0  0  0  0  0  0
  -28.2915  -25.3403   20.7980 C   0  0  0  0  0  0
  -25.7352  -20.6523   21.1592 N   0  0  0  0  0  0
  -27.9327  -20.2732   20.8518 N   0  0  0  0  0  0
  -29.8921  -15.5643   20.9080 N   0  0  0  0  0  0
  -31.4696  -12.4349   19.1234 H   0  0  0  0  0  0
  -30.3432  -11.3212   19.8464 H   0  0  0  0  0  0
  -29.7448  -11.7338   17.4592 H   0  0  0  0  0  0
  -29.6671  -13.4557   17.7428 H   0  0  0  0  0  0
  -27.8312  -11.2961   18.8351 H   0  0  0  0  0  0
  -27.3673  -12.6059   17.7876 H   0  0  0  0  0  0
  -27.6942  -14.2485   19.5549 H   0  0  0  0  0  0
  -28.6895  -11.9794   21.3525 H   0  0  0  0  0  0
  -28.4660  -13.6290   21.8575 H   0  0  0  0  0  0
  -25.2743   -9.5701   22.4777 H   0  0  0  0  0  0
  -24.0012   -7.4646   22.7471 H   0  0  0  0  0  0
  -21.0837   -8.8719   19.8953 H   0  0  0  0  0  0
  -22.3654  -10.9645   19.6179 H   0  0  0  0  0  0
  -21.2036   -7.6165   23.9723 H   0  0  0  0  0  0
  -21.1451   -6.0525   25.9069 H   0  0  0  0  0  0
  -22.0628   -2.7626   23.2808 H   0  0  0  0  0  0
  -22.4050  -11.9860   22.4785 H   0  0  0  0  0  0
  -21.1098  -13.1276   22.2563 H   0  0  0  0  0  0
  -24.6612  -15.8399   20.5012 H   0  0  0  0  0  0
  -26.2680  -15.6138   20.0303 H   0  0  0  0  0  0
  -26.7115  -32.5485   23.1130 H   0  0  0  0  0  0
  -25.0037  -33.9772   25.0424 H   0  0  0  0  0  0
  -22.6992  -31.3038   21.4032 H   0  0  0  0  0  0
  -23.3749  -35.9650   23.3310 H   0  0  0  0  0  0
  -24.3571  -36.8929   22.2045 H   0  0  0  0  0  0
  -23.7256  -37.6516   23.6650 H   0  0  0  0  0  0
  -26.0457  -31.5834   20.5823 H   0  0  0  0  0  0
  -26.8296  -30.8883   21.9686 H   0  0  0  0  0  0
  -28.1113  -29.0845   21.1524 H   0  0  0  0  0  0
  -26.0543  -25.9388   19.0405 H   0  0  0  0  0  0
  -23.9800  -27.2763   19.0438 H   0  0  0  0  0  0
  -23.7325  -30.5861   19.3941 H   0  0  0  0  0  0
  -22.7462  -29.2328   19.8609 H   0  0  0  0  0  0
  -25.1322  -36.1954   25.0812 H   0  0  0  0  0  0
  -20.9984  -28.3192   24.1422 H   0  0  0  0  0  0
  -20.5649  -26.2278   23.3603 H   0  0  0  0  0  0
  -21.6637  -26.7410   22.1232 H   0  0  0  0  0  0
  -19.6882  -25.6297   21.1223 H   0  0  0  0  0  0
  -19.6663  -27.3203   20.6751 H   0  0  0  0  0  0
  -17.4205  -26.6667   21.4014 H   0  0  0  0  0  0
  -18.0317  -26.0081   22.9034 H   0  0  0  0  0  0
  -19.7929  -30.7298   24.2223 H   0  0  0  0  0  0
  -17.5001  -31.6250   24.5192 H   0  0  0  0  0  0
  -15.5349  -30.2967   23.7676 H   0  0  0  0  0  0
  -15.8674  -28.0849   22.6988 H   0  0  0  0  0  0
  -24.5897  -30.7056   25.7749 H   0  0  0  0  0  0
  -24.8894  -32.2845   26.4877 H   0  0  0  0  0  0
  -25.8036  -30.8842   27.0200 H   0  0  0  0  0  0
  -26.2830  -29.6820   24.1130 H   0  0  0  0  0  0
  -27.4114  -29.7290   25.4517 H   0  0  0  0  0  0
  -27.8654  -30.4421   23.9201 H   0  0  0  0  0  0
  -27.2689  -33.3604   26.2060 H   0  0  0  0  0  0
  -28.3834  -32.6853   25.0255 H   0  0  0  0  0  0
  -28.0740  -31.8392   26.5341 H   0  0  0  0  0  0
  -28.2621  -38.0094   24.7540 H   0  0  0  0  0  0
  -28.1049  -36.2635   24.6270 H   0  0  0  0  0  0
  -27.2282  -37.1472   25.8857 H   0  0  0  0  0  0
  -20.9323  -29.8798   21.6986 H   0  0  0  0  0  0
  -26.0163  -38.2870   24.1429 H   0  0  0  0  0  0
  -26.4916  -18.7021   21.1004 H   0  0  0  0  0  0
  -25.6163  -23.7700   20.3799 H   0  0  0  0  0  0
  -25.9871  -23.7019   22.1092 H   0  0  0  0  0  0
  -24.5541  -22.9177   21.4861 H   0  0  0  0  0  0
  -29.6338  -22.2527   20.0364 H   0  0  0  0  0  0
  -29.2932  -22.9356   21.5810 H   0  0  0  0  0  0
  -27.6387  -23.9512   19.2098 H   0  0  0  0  0  0
  -29.3204  -24.3084   19.2489 H   0  0  0  0  0  0
  -28.2075  -17.5806   20.2213 H   0  0  0  0  0  0
  -28.5743  -17.7470   21.9250 H   0  0  0  0  0  0
  -29.6068  -19.6752   19.7482 H   0  0  0  0  0  0
  -29.8796  -19.8438   21.4692 H   0  0  0  0  0  0
  -31.0094  -17.2834   21.4044 H   0  0  0  0  0  0
  -30.5897  -17.1492   19.7096 H   0  0  0  0  0  0
  -27.3690  -25.2675   21.3731 H   0  0  0  0  0  0
  -29.0926  -25.3442   21.5389 H   0  0  0  0  0  0
  -28.9614  -15.3303   21.2197 H   0  0  0  0  0  0
  1 25  1  0  0  0
  1 30  2  0  0  0
  1 83  1  0  0  0
  2  3  1  0  0  0
  2 25  1  0  0  0
  2 84  1  0  0  0
  2 85  1  0  0  0
  3  4  1  0  0  0
  3 86  1  0  0  0
  3 87  1  0  0  0
  4  5  1  0  0  0
  4 88  1  0  0  0
  4 89  1  0  0  0
  5  6  1  0  0  0
  5 26  1  0  0  0
  5 90  1  0  0  0
  6 25  1  0  0  0
  6 91  1  0  0  0
  6 92  1  0  0  0
  7  8  2  0  0  0
  7 26  1  0  0  0
  7 29  1  0  0  0
  8  9  1  0  0  0
  8 22  1  0  0  0
  9 10  1  0  0  0
  9 27  2  0  0  0
 10 11  2  0  0  0
 10 15  1  0  0  0
 11 12  1  0  0  0
 11 93  1  0  0  0
 12 13  2  0  0  0
 12 94  1  0  0  0
 13 14  1  0  0  0
 13 31  1  0  0  0
 14 15  2  0  0  0
 14 95  1  0  0  0
 15 96  1  0  0  0
 16 17  2  0  0  0
 16 21  1  0  0  0
 16 31  1  0  0  0
 17 18  1  0  0  0
 17 97  1  0  0  0
 18 19  2  0  0  0
 18 98  1  0  0  0
 19 20  1  0  0  0
 19 24  1  0  0  0
 20 21  2  0  0  0
 20 99  1  0  0  0
 21 23  1  0  0  0
 22 28  1  0  0  0
 22 32  2  0  0  0
 26 27  1  0  0  0
 28100  1  0  0  0
 28101  1  0  0  0
 29102  1  0  0  0
 29103  1  0  0  0
 33 34  1  0  0  0
 33 66  1  0  0  0
 33 70  2  0  0  0
 34 36  1  0  0  0
 34 59  1  0  0  0
 34104  1  0  0  0
 35 44  2  0  0  0
 35 45  1  0  0  0
 35 68  1  0  0  0
 36 56  1  0  0  0
 36105  1  0  0  0
 37 39  1  0  0  0
 37 47  1  0  0  0
 37 66  1  0  0  0
 37106  1  0  0  0
 38 43  2  0  0  0
 38 46  1  0  0  0
 38 47  1  0  0  0
 39 64  1  0  0  0
 39 67  2  0  0  0
 40 52  1  0  0  0
 40 53  2  0  0  0
 40 58  1  0  0  0
 41107  1  0  0  0
 41108  1  0  0  0
 41109  1  0  0  0
 41 48  1  0  0  0
 42 43  1  0  0  0
 42 66  1  0  0  0
 42110  1  0  0  0
 42111  1  0  0  0
 43 44  1  0  0  0
 44112  1  0  0  0
 45 46  2  0  0  0
 45113  1  0  0  0
 46114  1  0  0  0
 47115  1  0  0  0
 47116  1  0  0  0
 48 56  1  0  0  0
 48 65  1  0  0  0
 48117  1  0  0  0
 49 50  1  0  0  0
 49 53  1  0  0  0
 49 64  1  0  0  0
 49118  1  0  0  0
 50 51  1  0  0  0
 50119  1  0  0  0
 50120  1  0  0  0
 51 52  1  0  0  0
 51121  1  0  0  0
 51122  1  0  0  0
 52123  1  0  0  0
 52124  1  0  0  0
 53 54  1  0  0  0
 54 55  2  0  0  0
 54125  1  0  0  0
 55 57  1  0  0  0
 55126  1  0  0  0
 56 69  2  0  0  0
 57 58  2  0  0  0
 57127  1  0  0  0
 58128  1  0  0  0
 59 60  1  0  0  0
 59 61  1  0  0  0
 59 62  1  0  0  0
 60129  1  0  0  0
 60130  1  0  0  0
 60131  1  0  0  0
 61132  1  0  0  0
 61133  1  0  0  0
 61134  1  0  0  0
 62135  1  0  0  0
 62136  1  0  0  0
 62137  1  0  0  0
 63 65  1  0  0  0
 63138  1  0  0  0
 63139  1  0  0  0
 63140  1  0  0  0
 64141  1  0  0  0
 65142  1  0  0  0
 68 80  1  0  0  0
 71 81  2  0  0  0
 71 82  1  0  0  0
 71143  1  0  0  0
 72 73  2  0  0  0
 72 74  1  0  0  0
 72 81  1  0  0  0
 73 75  1  0  0  0
 73 82  1  0  0  0
 74144  1  0  0  0
 74145  1  0  0  0
 74146  1  0  0  0
 75 76  1  0  0  0
 75147  1  0  0  0
 75148  1  0  0  0
 76 80  1  0  0  0
 76149  1  0  0  0
 76150  1  0  0  0
 77 78  1  0  0  0
 77 79  1  0  0  0
 77151  1  0  0  0
 77152  1  0  0  0
 78 82  1  0  0  0
 78153  1  0  0  0
 78154  1  0  0  0
 79 83  1  0  0  0
 79155  1  0  0  0
 79156  1  0  0  0
 80157  1  0  0  0
 80158  1  0  0  0
 83159  1  0  0  0
M  ISO  4   1 100  68 101  80 101  83 100
M  END
> <chiral flag>
0

> <version>
0

> <s_m_source_file>
/data/baiqing/PycharmProjects/Reinvent-master-3.2/result/LINK_invent/BTK/process_docking_weight1_custom_sum_contain_oxygen_bond_distance_aromatic_linkinvent_7_9_3/rearranged_h_0045.sdf

> <i_m_source_file_index>
77

> <r_mmod_Potential_Energy-OPLS-2005>
-59.6773071289062

> <r_mmod_Stretch_Energy-OPLS-2005>
49.8207969665527

> <r_mmod_Bend_Energy-OPLS-2005>
110.776321411133

> <r_mmod_Torsional_Energy-OPLS-2005>
241.810546875

> <r_mmod_Improper_Torsional_Energy-OPLS-2005>
5.34200239181519

> <r_mmod_Van_der_Waal_Energy-OPLS-2005>
119.852256774902

> <r_mmod_Electrostatic_Energy-OPLS-2005>
-379.136077880859

> <r_mmod_Solvation_Energy-OPLS-2005>
-228.259521484375

> <b_mmod_Minimization_Converged-OPLS-2005>
0

> <r_mmod_RMS_Derivative-OPLS-2005>
2.93169188499451

$$$$
78
                    3D
 Structure written by MMmdl.
165173  0  0  1  0            999 V2000
  -30.6456  -14.6892   20.4756 C   0  0  0  0  0  0
  -30.4293  -12.4245   19.4629 C   0  0  0  0  0  0
  -29.5069  -12.5067   18.2284 C   0  0  0  0  0  0
  -28.0325  -12.3375   18.6421 C   0  0  0  0  0  0
  -27.6449  -13.2304   19.8517 C   0  0  2  0  0  0
  -28.6912  -13.1476   20.9850 C   0  0  0  0  0  0
  -25.2526  -13.8199   20.5692 C   0  0  0  0  0  0
  -24.1810  -13.0448   20.9197 C   0  0  0  0  0  0
  -24.6390  -11.6922   20.8736 C   0  0  0  0  0  0
  -23.9058  -10.4295   21.0400 C   0  0  0  0  0  0
  -24.3611   -9.4212   21.9179 C   0  0  0  0  0  0
  -23.6290   -8.2244   22.0753 C   0  0  0  0  0  0
  -22.4276   -8.0272   21.3541 C   0  0  0  0  0  0
  -21.9904   -9.0244   20.4647 C   0  0  0  0  0  0
  -22.7227  -10.2129   20.3053 C   0  0  0  0  0  0
  -21.6855   -6.0725   22.5272 C   0  0  0  0  0  0
  -21.4013   -6.5630   23.8202 C   0  0  0  0  0  0
  -21.3667   -5.6786   24.9168 C   0  0  0  0  0  0
  -21.6049   -4.3047   24.7223 C   0  0  0  0  0  0
  -21.8821   -3.8137   23.4343 C   0  0  0  0  0  0
  -21.9192   -4.6953   22.3398 C   0  0  0  0  0  0
  -22.7831  -13.5231   21.1857 C   0  0  0  0  0  0
  -22.1663   -4.2137   21.0976 F   0  0  0  0  0  0
  -21.5635   -3.4532   25.7737 F   0  0  0  0  0  0
  -29.9983  -13.4802   20.4041 N   0  0  0  0  0  0
  -26.2956  -12.9403   20.3287 N   0  0  0  0  0  0
  -25.9324  -11.6544   20.5744 N   0  0  0  0  0  0
  -22.0471  -12.8225   22.0412 N   0  0  0  0  0  0
  -25.4219  -15.1924   20.4120 N   0  0  0  0  0  0
  -31.8319  -14.7833   20.1535 O   0  0  0  0  0  0
  -21.6643   -6.8867   21.4234 O   0  0  0  0  0  0
  -22.3511  -14.5530   20.6694 O   0  0  0  0  0  0
  -24.6293  -31.8580   23.2018 C   0  0  0  0  0  0
  -25.9127  -32.4771   23.8352 C   0  0  1  0  0  0
  -27.2174  -27.2876   20.1185 C   0  0  0  0  0  0
  -25.5935  -33.8573   24.2272 N   0  0  0  0  0  0
  -23.4243  -30.4833   21.5452 C   0  0  2  0  0  0
  -24.8700  -28.9392   20.1101 C   0  0  0  0  0  0
  -22.7494  -29.4618   22.4920 C   0  0  0  0  0  0
  -18.0292  -28.1388   22.8486 C   0  0  0  0  0  0
  -24.1491  -36.7296   23.2638 C   0  0  0  0  0  0
  -25.9697  -30.7794   21.3783 C   0  0  0  0  0  0
  -26.0429  -29.4057   20.7170 C   0  0  0  0  0  0
  -27.2211  -28.5934   20.7102 C   0  0  0  0  0  0
  -26.0195  -26.8901   19.4788 C   0  0  0  0  0  0
  -24.8622  -27.6875   19.4806 C   0  0  0  0  0  0
  -23.6409  -29.8234   20.1591 C   0  0  0  0  0  0
  -25.4116  -36.3078   24.0327 C   0  0  1  0  0  0
  -20.5897  -28.3694   23.1277 C   0  0  2  0  0  0
  -20.6787  -26.9415   22.5406 C   0  0  0  0  0  0
  -19.5758  -26.6383   21.5216 C   0  0  0  0  0  0
  -18.1938  -26.7933   22.1627 C   0  0  0  0  0  0
  -19.1545  -28.8861   23.2877 C   0  0  0  0  0  0
  -18.9467  -30.1465   23.8890 C   0  0  0  0  0  0
  -17.6464  -30.6589   24.0566 C   0  0  0  0  0  0
  -25.9053  -34.9448   23.5100 C   0  0  0  0  0  0
  -16.5356  -29.9085   23.6332 C   0  0  0  0  0  0
  -16.7280  -28.6507   23.0348 C   0  0  0  0  0  0
  -26.4503  -31.6585   25.0728 C   0  0  0  0  0  0
  -25.3737  -31.3729   26.1455 C   0  0  0  0  0  0
  -27.0348  -30.3002   24.6202 C   0  0  0  0  0  0
  -27.6051  -32.4323   25.7507 C   0  0  0  0  0  0
  -27.5578  -37.1806   24.8462 C   0  0  0  0  0  0
  -21.4205  -29.3046   22.3671 N   0  0  0  0  0  0
  -26.4288  -37.3775   23.9409 N   0  0  0  0  0  0
  -24.6934  -31.0569   22.0981 N   0  0  0  0  0  0
  -23.4208  -28.8152   23.3006 O   0  0  0  0  0  0
  -28.3098  -26.3922   20.1755 O   0  0  0  0  0  0
  -26.5614  -34.8917   22.4660 O   0  0  0  0  0  0
  -23.5448  -32.1386   23.7330 O   0  0  0  0  0  0
  -28.8515  -21.0342   21.4161 C   0  0  0  0  0  0
  -28.5430  -22.4875   21.3117 C   0  0  0  0  0  0
  -28.1854  -20.6704   22.5709 C   0  0  0  0  0  0
  -28.1863  -19.3935   23.3604 C   0  0  0  0  0  0
  -24.1716  -21.3714   24.9722 C   0  0  0  0  0  0
  -29.7805  -20.0096   20.6552 C   0  0  0  0  0  0
  -29.0596  -23.7637   20.5432 C   0  0  0  0  0  0
  -25.1589  -21.2574   23.8051 C   0  0  0  0  0  0
  -29.3132  -18.4631   20.4859 C   0  0  0  0  0  0
  -26.5325  -21.8642   24.1327 C   0  0  0  0  0  0
  -30.3720  -17.2714   20.7086 C   0  0  0  0  0  0
  -27.9909  -24.9262   20.1894 C   0  0  0  0  0  0
  -27.6906  -22.8296   22.2664 N   0  0  0  0  0  0
  -27.4510  -21.7478   23.0091 N   0  0  0  0  0  0
  -29.8979  -15.8247   20.7072 N   0  0  0  0  0  0
  -31.4723  -12.5356   19.1618 H   0  0  0  0  0  0
  -30.3569  -11.4432   19.9344 H   0  0  0  0  0  0
  -29.7816  -11.7432   17.4995 H   0  0  0  0  0  0
  -29.6422  -13.4688   17.7312 H   0  0  0  0  0  0
  -27.8820  -11.2874   18.8938 H   0  0  0  0  0  0
  -27.3765  -12.5430   17.7953 H   0  0  0  0  0  0
  -27.6443  -14.2557   19.4804 H   0  0  0  0  0  0
  -28.7132  -12.1489   21.4235 H   0  0  0  0  0  0
  -28.4365  -13.8310   21.7965 H   0  0  0  0  0  0
  -25.2757   -9.5691   22.4751 H   0  0  0  0  0  0
  -23.9999   -7.4640   22.7480 H   0  0  0  0  0  0
  -21.0830   -8.8754   19.8961 H   0  0  0  0  0  0
  -22.3672  -10.9660   19.6161 H   0  0  0  0  0  0
  -21.1998   -7.6137   23.9698 H   0  0  0  0  0  0
  -21.1497   -6.0521   25.9072 H   0  0  0  0  0  0
  -22.0596   -2.7597   23.2845 H   0  0  0  0  0  0
  -22.4085  -11.9890   22.4808 H   0  0  0  0  0  0
  -21.1092  -13.1254   22.2614 H   0  0  0  0  0  0
  -24.6524  -15.8451   20.5163 H   0  0  0  0  0  0
  -26.2676  -15.6317   20.0721 H   0  0  0  0  0  0
  -26.7196  -32.5430   23.1099 H   0  0  0  0  0  0
  -25.0099  -33.9721   25.0430 H   0  0  0  0  0  0
  -22.7187  -31.3050   21.4035 H   0  0  0  0  0  0
  -23.3747  -35.9635   23.3298 H   0  0  0  0  0  0
  -24.3582  -36.8916   22.2051 H   0  0  0  0  0  0
  -23.7252  -37.6502   23.6662 H   0  0  0  0  0  0
  -26.1060  -31.5433   20.6117 H   0  0  0  0  0  0
  -26.8479  -30.8257   22.0101 H   0  0  0  0  0  0
  -28.1177  -28.9454   21.2012 H   0  0  0  0  0  0
  -25.9376  -25.9394   18.9757 H   0  0  0  0  0  0
  -23.9653  -27.3258   18.9960 H   0  0  0  0  0  0
  -23.7668  -30.6034   19.4069 H   0  0  0  0  0  0
  -22.7593  -29.2586   19.8505 H   0  0  0  0  0  0
  -25.1300  -36.1925   25.0820 H   0  0  0  0  0  0
  -20.9989  -28.3271   24.1397 H   0  0  0  0  0  0
  -20.5701  -26.2305   23.3609 H   0  0  0  0  0  0
  -21.6657  -26.7454   22.1194 H   0  0  0  0  0  0
  -19.6918  -25.6293   21.1249 H   0  0  0  0  0  0
  -19.6692  -27.3195   20.6747 H   0  0  0  0  0  0
  -17.4210  -26.6680   21.4025 H   0  0  0  0  0  0
  -18.0334  -26.0077   22.9025 H   0  0  0  0  0  0
  -19.7941  -30.7290   24.2245 H   0  0  0  0  0  0
  -17.5016  -31.6266   24.5174 H   0  0  0  0  0  0
  -15.5356  -30.2984   23.7664 H   0  0  0  0  0  0
  -15.8680  -28.0830   22.7052 H   0  0  0  0  0  0
  -24.5915  -30.7072   25.7793 H   0  0  0  0  0  0
  -24.8932  -32.2899   26.4874 H   0  0  0  0  0  0
  -25.8070  -30.8915   27.0234 H   0  0  0  0  0  0
  -26.2927  -29.6749   24.1224 H   0  0  0  0  0  0
  -27.4029  -29.7263   25.4718 H   0  0  0  0  0  0
  -27.8811  -30.4275   23.9447 H   0  0  0  0  0  0
  -27.2649  -33.3624   26.2078 H   0  0  0  0  0  0
  -28.3875  -32.6881   25.0348 H   0  0  0  0  0  0
  -28.0711  -31.8453   26.5434 H   0  0  0  0  0  0
  -28.2594  -38.0103   24.7508 H   0  0  0  0  0  0
  -28.1074  -36.2633   24.6292 H   0  0  0  0  0  0
  -27.2297  -37.1464   25.8865 H   0  0  0  0  0  0
  -20.9379  -29.8778   21.6891 H   0  0  0  0  0  0
  -26.0165  -38.2850   24.1404 H   0  0  0  0  0  0
  -29.1070  -18.8318   23.2082 H   0  0  0  0  0  0
  -27.3411  -18.7622   23.0870 H   0  0  0  0  0  0
  -28.1297  -19.5793   24.4316 H   0  0  0  0  0  0
  -23.2076  -20.9346   24.7109 H   0  0  0  0  0  0
  -24.0014  -22.4133   25.2455 H   0  0  0  0  0  0
  -24.5440  -20.8500   25.8544 H   0  0  0  0  0  0
  -30.7443  -19.9901   21.1644 H   0  0  0  0  0  0
  -30.0228  -20.3968   19.6647 H   0  0  0  0  0  0
  -29.5705  -23.4604   19.6290 H   0  0  0  0  0  0
  -29.8375  -24.2199   21.1549 H   0  0  0  0  0  0
  -24.7419  -21.7537   22.9278 H   0  0  0  0  0  0
  -25.2751  -20.2070   23.5366 H   0  0  0  0  0  0
  -28.8989  -18.3622   19.4821 H   0  0  0  0  0  0
  -28.4562  -18.2575   21.1178 H   0  0  0  0  0  0
  -26.9709  -21.3875   25.0093 H   0  0  0  0  0  0
  -26.4192  -22.9186   24.3916 H   0  0  0  0  0  0
  -30.8673  -17.4322   21.6669 H   0  0  0  0  0  0
  -31.1580  -17.3751   19.9584 H   0  0  0  0  0  0
  -27.1615  -24.8423   20.8907 H   0  0  0  0  0  0
  -27.5775  -24.6464   19.2216 H   0  0  0  0  0  0
  -28.9218  -15.6683   20.9085 H   0  0  0  0  0  0
  1 25  1  0  0  0
  1 30  2  0  0  0
  1 85  1  0  0  0
  2  3  1  0  0  0
  2 25  1  0  0  0
  2 86  1  0  0  0
  2 87  1  0  0  0
  3  4  1  0  0  0
  3 88  1  0  0  0
  3 89  1  0  0  0
  4  5  1  0  0  0
  4 90  1  0  0  0
  4 91  1  0  0  0
  5  6  1  0  0  0
  5 26  1  0  0  0
  5 92  1  0  0  0
  6 25  1  0  0  0
  6 93  1  0  0  0
  6 94  1  0  0  0
  7  8  2  0  0  0
  7 26  1  0  0  0
  7 29  1  0  0  0
  8  9  1  0  0  0
  8 22  1  0  0  0
  9 10  1  0  0  0
  9 27  2  0  0  0
 10 11  2  0  0  0
 10 15  1  0  0  0
 11 12  1  0  0  0
 11 95  1  0  0  0
 12 13  2  0  0  0
 12 96  1  0  0  0
 13 14  1  0  0  0
 13 31  1  0  0  0
 14 15  2  0  0  0
 14 97  1  0  0  0
 15 98  1  0  0  0
 16 17  2  0  0  0
 16 21  1  0  0  0
 16 31  1  0  0  0
 17 18  1  0  0  0
 17 99  1  0  0  0
 18 19  2  0  0  0
 18100  1  0  0  0
 19 20  1  0  0  0
 19 24  1  0  0  0
 20 21  2  0  0  0
 20101  1  0  0  0
 21 23  1  0  0  0
 22 28  1  0  0  0
 22 32  2  0  0  0
 26 27  1  0  0  0
 28102  1  0  0  0
 28103  1  0  0  0
 29104  1  0  0  0
 29105  1  0  0  0
 33 34  1  0  0  0
 33 66  1  0  0  0
 33 70  2  0  0  0
 34 36  1  0  0  0
 34 59  1  0  0  0
 34106  1  0  0  0
 35 44  2  0  0  0
 35 45  1  0  0  0
 35 68  1  0  0  0
 36 56  1  0  0  0
 36107  1  0  0  0
 37 39  1  0  0  0
 37 47  1  0  0  0
 37 66  1  0  0  0
 37108  1  0  0  0
 38 43  2  0  0  0
 38 46  1  0  0  0
 38 47  1  0  0  0
 39 64  1  0  0  0
 39 67  2  0  0  0
 40 52  1  0  0  0
 40 53  2  0  0  0
 40 58  1  0  0  0
 41109  1  0  0  0
 41110  1  0  0  0
 41111  1  0  0  0
 41 48  1  0  0  0
 42 43  1  0  0  0
 42 66  1  0  0  0
 42112  1  0  0  0
 42113  1  0  0  0
 43 44  1  0  0  0
 44114  1  0  0  0
 45 46  2  0  0  0
 45115  1  0  0  0
 46116  1  0  0  0
 47117  1  0  0  0
 47118  1  0  0  0
 48 56  1  0  0  0
 48 65  1  0  0  0
 48119  1  0  0  0
 49 50  1  0  0  0
 49 53  1  0  0  0
 49 64  1  0  0  0
 49120  1  0  0  0
 50 51  1  0  0  0
 50121  1  0  0  0
 50122  1  0  0  0
 51 52  1  0  0  0
 51123  1  0  0  0
 51124  1  0  0  0
 52125  1  0  0  0
 52126  1  0  0  0
 53 54  1  0  0  0
 54 55  2  0  0  0
 54127  1  0  0  0
 55 57  1  0  0  0
 55128  1  0  0  0
 56 69  2  0  0  0
 57 58  2  0  0  0
 57129  1  0  0  0
 58130  1  0  0  0
 59 60  1  0  0  0
 59 61  1  0  0  0
 59 62  1  0  0  0
 60131  1  0  0  0
 60132  1  0  0  0
 60133  1  0  0  0
 61134  1  0  0  0
 61135  1  0  0  0
 61136  1  0  0  0
 62137  1  0  0  0
 62138  1  0  0  0
 62139  1  0  0  0
 63 65  1  0  0  0
 63140  1  0  0  0
 63141  1  0  0  0
 63142  1  0  0  0
 64143  1  0  0  0
 65144  1  0  0  0
 68 82  1  0  0  0
 71 72  1  0  0  0
 71 73  2  0  0  0
 71 76  1  0  0  0
 72 77  1  0  0  0
 72 83  2  0  0  0
 73 74  1  0  0  0
 73 84  1  0  0  0
 74145  1  0  0  0
 74146  1  0  0  0
 74147  1  0  0  0
 75 78  1  0  0  0
 75148  1  0  0  0
 75149  1  0  0  0
 75150  1  0  0  0
 76 79  1  0  0  0
 76151  1  0  0  0
 76152  1  0  0  0
 77 82  1  0  0  0
 77153  1  0  0  0
 77154  1  0  0  0
 78 80  1  0  0  0
 78155  1  0  0  0
 78156  1  0  0  0
 79 81  1  0  0  0
 79157  1  0  0  0
 79158  1  0  0  0
 80 84  1  0  0  0
 80159  1  0  0  0
 80160  1  0  0  0
 81 85  1  0  0  0
 81161  1  0  0  0
 81162  1  0  0  0
 82163  1  0  0  0
 82164  1  0  0  0
 83 84  1  0  0  0
 85165  1  0  0  0
M  ISO  4   1 100  68 101  82 101  85 100
M  END
> <chiral flag>
0

> <version>
0

> <s_m_source_file>
/data/baiqing/PycharmProjects/Reinvent-master-3.2/result/LINK_invent/BTK/process_docking_weight1_custom_sum_contain_oxygen_bond_distance_aromatic_linkinvent_7_9_3/rearranged_h_0045.sdf

> <i_m_source_file_index>
78

> <r_mmod_Potential_Energy-OPLS-2005>
123.680931091309

> <r_mmod_Stretch_Energy-OPLS-2005>
115.29126739502

> <r_mmod_Bend_Energy-OPLS-2005>
168.210494995117

> <r_mmod_Torsional_Energy-OPLS-2005>
236.225952148438

> <r_mmod_Improper_Torsional_Energy-OPLS-2005>
5.70729875564575

> <r_mmod_Van_der_Waal_Energy-OPLS-2005>
126.934600830078

> <r_mmod_Electrostatic_Energy-OPLS-2005>
-377.087677001953

> <r_mmod_Solvation_Energy-OPLS-2005>
-220.245132446289

> <b_mmod_Minimization_Converged-OPLS-2005>
0

> <r_mmod_RMS_Derivative-OPLS-2005>
0.945489764213562

$$$$
79
                    3D
 Structure written by MMmdl.
165173  0  0  1  0            999 V2000
  -30.4973  -15.0379   20.3853 C   0  0  0  0  0  0
  -30.4438  -12.6452   19.5133 C   0  0  0  0  0  0
  -29.5266  -12.5256   18.2719 C   0  0  0  0  0  0
  -28.0645  -12.2972   18.6926 C   0  0  0  0  0  0
  -27.6261  -13.2502   19.8339 C   0  0  2  0  0  0
  -28.6635  -13.3151   20.9752 C   0  0  0  0  0  0
  -25.2447  -13.8215   20.5720 C   0  0  0  0  0  0
  -24.1768  -13.0436   20.9238 C   0  0  0  0  0  0
  -24.6384  -11.6920   20.8752 C   0  0  0  0  0  0
  -23.9076  -10.4286   21.0401 C   0  0  0  0  0  0
  -24.3624   -9.4198   21.9178 C   0  0  0  0  0  0
  -23.6296   -8.2234   22.0747 C   0  0  0  0  0  0
  -22.4272   -8.0279   21.3540 C   0  0  0  0  0  0
  -21.9921   -9.0247   20.4633 C   0  0  0  0  0  0
  -22.7252  -10.2122   20.3047 C   0  0  0  0  0  0
  -21.6867   -6.0736   22.5277 C   0  0  0  0  0  0
  -21.4003   -6.5638   23.8205 C   0  0  0  0  0  0
  -21.3648   -5.6792   24.9168 C   0  0  0  0  0  0
  -21.6052   -4.3057   24.7223 C   0  0  0  0  0  0
  -21.8825   -3.8148   23.4341 C   0  0  0  0  0  0
  -21.9186   -4.6964   22.3395 C   0  0  0  0  0  0
  -22.7787  -13.5202   21.1888 C   0  0  0  0  0  0
  -22.1667   -4.2149   21.0974 F   0  0  0  0  0  0
  -21.5626   -3.4543   25.7735 F   0  0  0  0  0  0
  -29.9318  -13.7544   20.3798 N   0  0  0  0  0  0
  -26.2867  -12.9449   20.3239 N   0  0  0  0  0  0
  -25.9311  -11.6571   20.5729 N   0  0  0  0  0  0
  -22.0445  -12.8172   22.0432 N   0  0  0  0  0  0
  -25.4144  -15.1937   20.4125 N   0  0  0  0  0  0
  -31.6898  -15.1007   20.0649 O   0  0  0  0  0  0
  -21.6636   -6.8875   21.4238 O   0  0  0  0  0  0
  -22.3465  -14.5504   20.6727 O   0  0  0  0  0  0
  -24.6490  -31.8381   23.1827 C   0  0  0  0  0  0
  -25.9268  -32.4643   23.8211 C   0  0  1  0  0  0
  -27.2029  -27.0515   20.1683 C   0  0  0  0  0  0
  -25.6005  -33.8441   24.2168 N   0  0  0  0  0  0
  -23.4514  -30.4549   21.5293 C   0  0  2  0  0  0
  -24.8929  -28.8564   20.1176 C   0  0  0  0  0  0
  -22.7580  -29.4534   22.4855 C   0  0  0  0  0  0
  -18.0332  -28.1428   22.8520 C   0  0  0  0  0  0
  -24.1453  -36.7164   23.2643 C   0  0  0  0  0  0
  -26.0077  -30.6813   21.3937 C   0  0  0  0  0  0
  -26.0677  -29.2793   20.7492 C   0  0  0  0  0  0
  -27.2110  -28.3894   20.7626 C   0  0  0  0  0  0
  -26.0176  -26.7668   19.4620 C   0  0  0  0  0  0
  -24.8838  -27.6148   19.4631 C   0  0  0  0  0  0
  -23.6805  -29.7760   20.1511 C   0  0  0  0  0  0
  -25.4099  -36.2976   24.0320 C   0  0  1  0  0  0
  -20.5952  -28.3737   23.1235 C   0  0  2  0  0  0
  -20.6769  -26.9433   22.5409 C   0  0  0  0  0  0
  -19.5729  -26.6430   21.5221 C   0  0  0  0  0  0
  -18.1942  -26.7971   22.1654 C   0  0  0  0  0  0
  -19.1604  -28.8898   23.2870 C   0  0  0  0  0  0
  -18.9505  -30.1517   23.8879 C   0  0  0  0  0  0
  -17.6500  -30.6597   24.0598 C   0  0  0  0  0  0
  -25.9084  -34.9372   23.5052 C   0  0  0  0  0  0
  -16.5385  -29.9100   23.6361 C   0  0  0  0  0  0
  -16.7325  -28.6523   23.0354 C   0  0  0  0  0  0
  -26.4578  -31.6512   25.0656 C   0  0  0  0  0  0
  -25.3770  -31.3698   26.1352 C   0  0  0  0  0  0
  -27.0421  -30.2888   24.6259 C   0  0  0  0  0  0
  -27.6114  -32.4253   25.7454 C   0  0  0  0  0  0
  -27.5549  -37.1733   24.8503 C   0  0  0  0  0  0
  -21.4275  -29.3031   22.3548 N   0  0  0  0  0  0
  -26.4243  -37.3718   23.9471 N   0  0  0  0  0  0
  -24.7232  -31.0169   22.0894 N   0  0  0  0  0  0
  -23.4179  -28.8113   23.3060 O   0  0  0  0  0  0
  -28.3357  -26.1404   20.1594 O   0  0  0  0  0  0
  -26.5644  -34.8896   22.4621 O   0  0  0  0  0  0
  -23.5611  -32.1321   23.6997 O   0  0  0  0  0  0
  -30.1170  -22.9794   20.3475 C   0  0  0  0  0  0
  -28.9277  -22.2997   20.1790 C   0  0  0  0  0  0
  -28.6564  -24.7124   20.2340 C   0  0  0  0  0  0
  -31.4952  -22.3995   20.4475 C   0  0  0  0  0  0
  -24.6663  -22.1930   23.3435 C   0  0  0  0  0  0
  -27.1384  -21.9541   23.1141 C   0  0  0  0  0  0
  -28.7235  -20.6563   19.9002 C   0  0  0  0  0  0
  -29.3707  -19.2517   20.6639 C   0  0  0  0  0  0
  -25.8029  -23.3744   21.4108 C   0  0  0  0  0  0
  -26.5433  -23.2414   20.0634 C   0  0  0  0  0  0
  -29.7851  -17.7347   19.9498 C   0  0  0  0  0  0
  -25.8242  -22.1292   22.3350 C   0  0  0  0  0  0
  -29.9443  -24.3805   20.3711 N   0  0  0  0  0  0
  -27.9775  -23.4547   20.1616 N   0  0  0  0  0  0
  -29.7053  -16.2335   20.5337 N   0  0  0  0  0  0
  -31.4688  -12.8250   19.1851 H   0  0  0  0  0  0
  -30.4767  -11.7081   20.0692 H   0  0  0  0  0  0
  -29.8612  -11.7070   17.6315 H   0  0  0  0  0  0
  -29.5985  -13.4342   17.6738 H   0  0  0  0  0  0
  -27.9795  -11.2641   19.0278 H   0  0  0  0  0  0
  -27.3981  -12.3934   17.8345 H   0  0  0  0  0  0
  -27.5790  -14.2412   19.3817 H   0  0  0  0  0  0
  -28.7703  -12.3459   21.4655 H   0  0  0  0  0  0
  -28.3443  -14.0190   21.7449 H   0  0  0  0  0  0
  -25.2766   -9.5671   22.4754 H   0  0  0  0  0  0
  -24.0008   -7.4623   22.7459 H   0  0  0  0  0  0
  -21.0868   -8.8759   19.8930 H   0  0  0  0  0  0
  -22.3721  -10.9651   19.6149 H   0  0  0  0  0  0
  -21.1995   -7.6146   23.9708 H   0  0  0  0  0  0
  -21.1468   -6.0519   25.9068 H   0  0  0  0  0  0
  -22.0612   -2.7612   23.2844 H   0  0  0  0  0  0
  -22.4085  -11.9849   22.4826 H   0  0  0  0  0  0
  -21.1037  -13.1130   22.2590 H   0  0  0  0  0  0
  -24.6538  -15.8519   20.5401 H   0  0  0  0  0  0
  -26.2506  -15.6257   20.0418 H   0  0  0  0  0  0
  -26.7310  -32.5244   23.0903 H   0  0  0  0  0  0
  -25.0158  -33.9544   25.0317 H   0  0  0  0  0  0
  -22.7578  -31.2819   21.3689 H   0  0  0  0  0  0
  -23.3748  -35.9463   23.3294 H   0  0  0  0  0  0
  -24.3527  -36.8788   22.2060 H   0  0  0  0  0  0
  -23.7152  -37.6335   23.6667 H   0  0  0  0  0  0
  -26.1697  -31.4182   20.6047 H   0  0  0  0  0  0
  -26.8738  -30.7395   22.0396 H   0  0  0  0  0  0
  -28.1120  -28.7127   21.2640 H   0  0  0  0  0  0
  -25.9522  -25.8711   18.8744 H   0  0  0  0  0  0
  -23.9955  -27.2988   18.9337 H   0  0  0  0  0  0
  -23.8367  -30.5422   19.3900 H   0  0  0  0  0  0
  -22.7885  -29.2299   19.8399 H   0  0  0  0  0  0
  -25.1284  -36.1770   25.0799 H   0  0  0  0  0  0
  -21.0113  -28.3328   24.1337 H   0  0  0  0  0  0
  -20.5652  -26.2360   23.3631 H   0  0  0  0  0  0
  -21.6629  -26.7378   22.1234 H   0  0  0  0  0  0
  -19.6838  -25.6358   21.1210 H   0  0  0  0  0  0
  -19.6636  -27.3262   20.6769 H   0  0  0  0  0  0
  -17.4212  -26.6814   21.4059 H   0  0  0  0  0  0
  -18.0297  -26.0097   22.9021 H   0  0  0  0  0  0
  -19.7971  -30.7391   24.2172 H   0  0  0  0  0  0
  -17.5023  -31.6275   24.5228 H   0  0  0  0  0  0
  -15.5377  -30.2967   23.7698 H   0  0  0  0  0  0
  -15.8734  -28.0838   22.7022 H   0  0  0  0  0  0
  -24.6097  -30.6841   25.7737 H   0  0  0  0  0  0
  -24.8785  -32.2837   26.4583 H   0  0  0  0  0  0
  -25.8123  -30.9106   27.0232 H   0  0  0  0  0  0
  -26.3013  -29.6582   24.1321 H   0  0  0  0  0  0
  -27.4061  -29.7234   25.4851 H   0  0  0  0  0  0
  -27.8920  -30.4077   23.9530 H   0  0  0  0  0  0
  -27.2769  -33.3660   26.1835 H   0  0  0  0  0  0
  -28.4037  -32.6596   25.0332 H   0  0  0  0  0  0
  -28.0603  -31.8447   26.5523 H   0  0  0  0  0  0
  -28.2592  -38.0008   24.7559 H   0  0  0  0  0  0
  -28.1013  -36.2549   24.6316 H   0  0  0  0  0  0
  -27.2278  -37.1377   25.8907 H   0  0  0  0  0  0
  -20.9493  -29.8657   21.6649 H   0  0  0  0  0  0
  -26.0088  -38.2763   24.1521 H   0  0  0  0  0  0
  -31.6989  -22.0489   21.4595 H   0  0  0  0  0  0
  -32.2591  -23.1373   20.1983 H   0  0  0  0  0  0
  -31.6288  -21.5537   19.7725 H   0  0  0  0  0  0
  -24.6631  -21.3227   24.0008 H   0  0  0  0  0  0
  -23.6988  -22.2180   22.8408 H   0  0  0  0  0  0
  -24.7415  -23.0818   23.9727 H   0  0  0  0  0  0
  -27.0729  -21.1237   23.8193 H   0  0  0  0  0  0
  -27.3833  -22.8519   23.6811 H   0  0  0  0  0  0
  -27.9770  -21.7287   22.4633 H   0  0  0  0  0  0
  -28.9727  -20.5249   18.8462 H   0  0  0  0  0  0
  -27.6485  -20.4794   19.9111 H   0  0  0  0  0  0
  -28.6902  -19.0359   21.4869 H   0  0  0  0  0  0
  -30.2784  -19.5811   21.1698 H   0  0  0  0  0  0
  -24.7619  -23.5886   21.1627 H   0  0  0  0  0  0
  -26.1568  -24.2530   21.9520 H   0  0  0  0  0  0
  -26.1415  -23.9307   19.3331 H   0  0  0  0  0  0
  -26.3499  -22.2623   19.6296 H   0  0  0  0  0  0
  -30.8001  -17.8473   19.5658 H   0  0  0  0  0  0
  -29.1808  -17.6743   19.0441 H   0  0  0  0  0  0
  -25.6740  -21.2430   21.7143 H   0  0  0  0  0  0
  -28.7823  -16.0111   20.8755 H   0  0  0  0  0  0
  1 25  1  0  0  0
  1 30  2  0  0  0
  1 85  1  0  0  0
  2  3  1  0  0  0
  2 25  1  0  0  0
  2 86  1  0  0  0
  2 87  1  0  0  0
  3  4  1  0  0  0
  3 88  1  0  0  0
  3 89  1  0  0  0
  4  5  1  0  0  0
  4 90  1  0  0  0
  4 91  1  0  0  0
  5  6  1  0  0  0
  5 26  1  0  0  0
  5 92  1  0  0  0
  6 25  1  0  0  0
  6 93  1  0  0  0
  6 94  1  0  0  0
  7  8  2  0  0  0
  7 26  1  0  0  0
  7 29  1  0  0  0
  8  9  1  0  0  0
  8 22  1  0  0  0
  9 10  1  0  0  0
  9 27  2  0  0  0
 10 11  2  0  0  0
 10 15  1  0  0  0
 11 12  1  0  0  0
 11 95  1  0  0  0
 12 13  2  0  0  0
 12 96  1  0  0  0
 13 14  1  0  0  0
 13 31  1  0  0  0
 14 15  2  0  0  0
 14 97  1  0  0  0
 15 98  1  0  0  0
 16 17  2  0  0  0
 16 21  1  0  0  0
 16 31  1  0  0  0
 17 18  1  0  0  0
 17 99  1  0  0  0
 18 19  2  0  0  0
 18100  1  0  0  0
 19 20  1  0  0  0
 19 24  1  0  0  0
 20 21  2  0  0  0
 20101  1  0  0  0
 21 23  1  0  0  0
 22 28  1  0  0  0
 22 32  2  0  0  0
 26 27  1  0  0  0
 28102  1  0  0  0
 28103  1  0  0  0
 29104  1  0  0  0
 29105  1  0  0  0
 33 34  1  0  0  0
 33 66  1  0  0  0
 33 70  2  0  0  0
 34 36  1  0  0  0
 34 59  1  0  0  0
 34106  1  0  0  0
 35 44  2  0  0  0
 35 45  1  0  0  0
 35 68  1  0  0  0
 36 56  1  0  0  0
 36107  1  0  0  0
 37 39  1  0  0  0
 37 47  1  0  0  0
 37 66  1  0  0  0
 37108  1  0  0  0
 38 43  2  0  0  0
 38 46  1  0  0  0
 38 47  1  0  0  0
 39 64  1  0  0  0
 39 67  2  0  0  0
 40 52  1  0  0  0
 40 53  2  0  0  0
 40 58  1  0  0  0
 41109  1  0  0  0
 41110  1  0  0  0
 41111  1  0  0  0
 41 48  1  0  0  0
 42 43  1  0  0  0
 42 66  1  0  0  0
 42112  1  0  0  0
 42113  1  0  0  0
 43 44  1  0  0  0
 44114  1  0  0  0
 45 46  2  0  0  0
 45115  1  0  0  0
 46116  1  0  0  0
 47117  1  0  0  0
 47118  1  0  0  0
 48 56  1  0  0  0
 48 65  1  0  0  0
 48119  1  0  0  0
 49 50  1  0  0  0
 49 53  1  0  0  0
 49 64  1  0  0  0
 49120  1  0  0  0
 50 51  1  0  0  0
 50121  1  0  0  0
 50122  1  0  0  0
 51 52  1  0  0  0
 51123  1  0  0  0
 51124  1  0  0  0
 52125  1  0  0  0
 52126  1  0  0  0
 53 54  1  0  0  0
 54 55  2  0  0  0
 54127  1  0  0  0
 55 57  1  0  0  0
 55128  1  0  0  0
 56 69  2  0  0  0
 57 58  2  0  0  0
 57129  1  0  0  0
 58130  1  0  0  0
 59 60  1  0  0  0
 59 61  1  0  0  0
 59 62  1  0  0  0
 60131  1  0  0  0
 60132  1  0  0  0
 60133  1  0  0  0
 61134  1  0  0  0
 61135  1  0  0  0
 61136  1  0  0  0
 62137  1  0  0  0
 62138  1  0  0  0
 62139  1  0  0  0
 63 65  1  0  0  0
 63140  1  0  0  0
 63141  1  0  0  0
 63142  1  0  0  0
 64143  1  0  0  0
 65144  1  0  0  0
 68 73  1  0  0  0
 71 72  2  0  0  0
 71 74  1  0  0  0
 71 83  1  0  0  0
 72 77  1  0  0  0
 72 84  1  0  0  0
 73 83  2  0  0  0
 73 84  1  0  0  0
 74145  1  0  0  0
 74146  1  0  0  0
 74147  1  0  0  0
 75148  1  0  0  0
 75149  1  0  0  0
 75150  1  0  0  0
 75 82  1  0  0  0
 76 82  1  0  0  0
 76151  1  0  0  0
 76152  1  0  0  0
 76153  1  0  0  0
 77 78  1  0  0  0
 77154  1  0  0  0
 77155  1  0  0  0
 78 81  1  0  0  0
 78156  1  0  0  0
 78157  1  0  0  0
 79 80  1  0  0  0
 79 82  1  0  0  0
 79158  1  0  0  0
 79159  1  0  0  0
 80 84  1  0  0  0
 80160  1  0  0  0
 80161  1  0  0  0
 81 85  1  0  0  0
 81162  1  0  0  0
 81163  1  0  0  0
 82164  1  0  0  0
 85165  1  0  0  0
M  ISO  4   1 100  68 101  73 101  85 100
M  END
> <chiral flag>
0

> <version>
0

> <s_m_source_file>
/data/baiqing/PycharmProjects/Reinvent-master-3.2/result/LINK_invent/BTK/process_docking_weight1_custom_sum_contain_oxygen_bond_distance_aromatic_linkinvent_7_9_3/rearranged_h_0045.sdf

> <i_m_source_file_index>
79

> <r_mmod_Potential_Energy-OPLS-2005>
781.604187011719

> <r_mmod_Stretch_Energy-OPLS-2005>
340.473510742188

> <r_mmod_Bend_Energy-OPLS-2005>
411.443450927734

> <r_mmod_Torsional_Energy-OPLS-2005>
250.208389282227

> <r_mmod_Improper_Torsional_Energy-OPLS-2005>
6.59043025970459

> <r_mmod_Van_der_Waal_Energy-OPLS-2005>
98.3705444335938

> <r_mmod_Electrostatic_Energy-OPLS-2005>
-351.302764892578

> <r_mmod_Solvation_Energy-OPLS-2005>
-221.650497436523

> <b_mmod_Minimization_Converged-OPLS-2005>
0

> <r_mmod_RMS_Derivative-OPLS-2005>
3.96476674079895

$$$$
80
                    3D
 Structure written by MMmdl.
163171  0  0  1  0            999 V2000
  -30.6064  -14.7300   20.4513 C   0  0  0  0  0  0
  -30.4287  -12.4420   19.4661 C   0  0  0  0  0  0
  -29.5044  -12.4997   18.2301 C   0  0  0  0  0  0
  -28.0295  -12.3304   18.6451 C   0  0  0  0  0  0
  -27.6391  -13.2294   19.8492 C   0  0  2  0  0  0
  -28.6851  -13.1569   20.9820 C   0  0  0  0  0  0
  -25.2500  -13.8198   20.5701 C   0  0  0  0  0  0
  -24.1792  -13.0441   20.9215 C   0  0  0  0  0  0
  -24.6382  -11.6918   20.8750 C   0  0  0  0  0  0
  -23.9061  -10.4294   21.0404 C   0  0  0  0  0  0
  -24.3614   -9.4207   21.9181 C   0  0  0  0  0  0
  -23.6290   -8.2241   22.0750 C   0  0  0  0  0  0
  -22.4274   -8.0278   21.3542 C   0  0  0  0  0  0
  -21.9913   -9.0250   20.4643 C   0  0  0  0  0  0
  -22.7238  -10.2129   20.3051 C   0  0  0  0  0  0
  -21.6859   -6.0729   22.5274 C   0  0  0  0  0  0
  -21.4019   -6.5636   23.8205 C   0  0  0  0  0  0
  -21.3661   -5.6789   24.9171 C   0  0  0  0  0  0
  -21.6047   -4.3049   24.7225 C   0  0  0  0  0  0
  -21.8821   -3.8138   23.4347 C   0  0  0  0  0  0
  -21.9195   -4.6955   22.3401 C   0  0  0  0  0  0
  -22.7813  -13.5217   21.1883 C   0  0  0  0  0  0
  -22.1662   -4.2138   21.0978 F   0  0  0  0  0  0
  -21.5630   -3.4537   25.7737 F   0  0  0  0  0  0
  -29.9831  -13.5052   20.3941 N   0  0  0  0  0  0
  -26.2918  -12.9398   20.3284 N   0  0  0  0  0  0
  -25.9310  -11.6539   20.5756 N   0  0  0  0  0  0
  -22.0477  -12.8184   22.0436 N   0  0  0  0  0  0
  -25.4191  -15.1922   20.4120 N   0  0  0  0  0  0
  -31.8017  -14.8258   20.1613 O   0  0  0  0  0  0
  -21.6643   -6.8869   21.4235 O   0  0  0  0  0  0
  -22.3488  -14.5526   20.6741 O   0  0  0  0  0  0
  -24.6303  -31.8535   23.1956 C   0  0  0  0  0  0
  -25.9129  -32.4738   23.8305 C   0  0  1  0  0  0
  -27.2199  -27.2594   20.1215 C   0  0  0  0  0  0
  -25.5936  -33.8541   24.2232 N   0  0  0  0  0  0
  -23.4266  -30.4755   21.5384 C   0  0  2  0  0  0
  -24.8710  -28.9182   20.1073 C   0  0  0  0  0  0
  -22.7499  -29.4593   22.4900 C   0  0  0  0  0  0
  -18.0298  -28.1375   22.8489 C   0  0  0  0  0  0
  -24.1498  -36.7270   23.2645 C   0  0  0  0  0  0
  -25.9721  -30.7654   21.3742 C   0  0  0  0  0  0
  -26.0413  -29.3882   20.7143 C   0  0  0  0  0  0
  -27.2150  -28.5711   20.7082 C   0  0  0  0  0  0
  -26.0205  -26.8472   19.5000 C   0  0  0  0  0  0
  -24.8660  -27.6568   19.4913 C   0  0  0  0  0  0
  -23.6422  -29.8056   20.1551 C   0  0  0  0  0  0
  -25.4124  -36.3053   24.0330 C   0  0  1  0  0  0
  -20.5901  -28.3683   23.1267 C   0  0  2  0  0  0
  -20.6782  -26.9401   22.5408 C   0  0  0  0  0  0
  -19.5763  -26.6368   21.5211 C   0  0  0  0  0  0
  -18.1939  -26.7925   22.1608 C   0  0  0  0  0  0
  -19.1548  -28.8845   23.2878 C   0  0  0  0  0  0
  -18.9473  -30.1448   23.8892 C   0  0  0  0  0  0
  -17.6472  -30.6576   24.0561 C   0  0  0  0  0  0
  -25.9063  -34.9428   23.5081 C   0  0  0  0  0  0
  -16.5364  -29.9070   23.6332 C   0  0  0  0  0  0
  -16.7284  -28.6486   23.0355 C   0  0  0  0  0  0
  -26.4492  -31.6575   25.0698 C   0  0  0  0  0  0
  -25.3723  -31.3734   26.1427 C   0  0  0  0  0  0
  -27.0345  -30.2993   24.6195 C   0  0  0  0  0  0
  -27.6043  -32.4323   25.7470 C   0  0  0  0  0  0
  -27.5583  -37.1790   24.8469 C   0  0  0  0  0  0
  -21.4207  -29.3034   22.3653 N   0  0  0  0  0  0
  -26.4291  -37.3755   23.9413 N   0  0  0  0  0  0
  -24.6952  -31.0508   22.0923 N   0  0  0  0  0  0
  -23.4209  -28.8144   23.2993 O   0  0  0  0  0  0
  -28.3478  -26.4122   20.1914 O   0  0  0  0  0  0
  -26.5633  -34.8914   22.4651 O   0  0  0  0  0  0
  -23.5454  -32.1344   23.7258 O   0  0  0  0  0  0
  -27.8171  -21.4128   22.5077 C   0  0  0  0  0  0
  -28.4571  -21.0074   21.3134 C   0  0  0  0  0  0
  -28.7310  -19.5570   21.2690 C   0  0  0  0  0  0
  -27.6776  -19.3011   23.3151 C   0  0  0  0  0  0
  -28.3956  -17.6529   25.1037 C   0  0  0  0  0  0
  -26.1608  -17.3461   23.8857 C   0  0  0  0  0  0
  -28.7134  -22.1874   20.2643 C   0  0  0  0  0  0
  -29.3687  -18.5979   20.1892 C   0  0  0  0  0  0
  -28.2919  -23.7230   20.6780 C   0  0  0  0  0  0
  -30.2858  -17.3329   20.6819 C   0  0  0  0  0  0
  -28.4122  -24.9948   19.6875 C   0  0  0  0  0  0
  -27.2124  -18.3412   24.4052 C   0  0  0  0  0  0
  -27.4359  -20.5834   23.4881 N   0  0  0  0  0  0
  -28.2936  -18.7754   22.2739 N   0  0  0  0  0  0
  -29.8312  -15.8673   20.6256 N   0  0  0  0  0  0
  -31.4698  -12.5666   19.1634 H   0  0  0  0  0  0
  -30.3710  -11.4648   19.9478 H   0  0  0  0  0  0
  -29.7813  -11.7261   17.5126 H   0  0  0  0  0  0
  -29.6348  -13.4544   17.7181 H   0  0  0  0  0  0
  -27.8814  -11.2817   18.9056 H   0  0  0  0  0  0
  -27.3728  -12.5267   17.7974 H   0  0  0  0  0  0
  -27.6347  -14.2518   19.4708 H   0  0  0  0  0  0
  -28.7181  -12.1580   21.4192 H   0  0  0  0  0  0
  -28.4270  -13.8395   21.7932 H   0  0  0  0  0  0
  -25.2761   -9.5686   22.4756 H   0  0  0  0  0  0
  -24.0002   -7.4633   22.7470 H   0  0  0  0  0  0
  -21.0841   -8.8764   19.8946 H   0  0  0  0  0  0
  -22.3695  -10.9663   19.6156 H   0  0  0  0  0  0
  -21.2013   -7.6145   23.9705 H   0  0  0  0  0  0
  -21.1484   -6.0522   25.9073 H   0  0  0  0  0  0
  -22.0599   -2.7602   23.2851 H   0  0  0  0  0  0
  -22.4108  -11.9825   22.4773 H   0  0  0  0  0  0
  -21.1099  -13.1186   22.2674 H   0  0  0  0  0  0
  -24.6525  -15.8450   20.5310 H   0  0  0  0  0  0
  -26.2657  -15.6357   20.0816 H   0  0  0  0  0  0
  -26.7186  -32.5370   23.1032 H   0  0  0  0  0  0
  -25.0120  -33.9682   25.0399 H   0  0  0  0  0  0
  -22.7238  -31.2977   21.3891 H   0  0  0  0  0  0
  -23.3768  -35.9595   23.3298 H   0  0  0  0  0  0
  -24.3600  -36.8892   22.2064 H   0  0  0  0  0  0
  -23.7235  -37.6462   23.6673 H   0  0  0  0  0  0
  -26.1187  -31.5292   20.6088 H   0  0  0  0  0  0
  -26.8468  -30.8060   22.0112 H   0  0  0  0  0  0
  -28.1130  -28.9305   21.1893 H   0  0  0  0  0  0
  -25.9353  -25.8767   19.0374 H   0  0  0  0  0  0
  -23.9646  -27.2887   19.0192 H   0  0  0  0  0  0
  -23.7658  -30.5791   19.3964 H   0  0  0  0  0  0
  -22.7603  -29.2380   19.8517 H   0  0  0  0  0  0
  -25.1302  -36.1897   25.0820 H   0  0  0  0  0  0
  -20.9996  -28.3249   24.1389 H   0  0  0  0  0  0
  -20.5665  -26.2290   23.3611 H   0  0  0  0  0  0
  -21.6649  -26.7406   22.1209 H   0  0  0  0  0  0
  -19.6928  -25.6279   21.1237 H   0  0  0  0  0  0
  -19.6708  -27.3185   20.6750 H   0  0  0  0  0  0
  -17.4214  -26.6693   21.4003 H   0  0  0  0  0  0
  -18.0317  -26.0057   22.8992 H   0  0  0  0  0  0
  -19.7952  -30.7263   24.2249 H   0  0  0  0  0  0
  -17.5030  -31.6261   24.5153 H   0  0  0  0  0  0
  -15.5365  -30.2966   23.7664 H   0  0  0  0  0  0
  -15.8689  -28.0801   22.7068 H   0  0  0  0  0  0
  -24.5912  -30.7058   25.7765 H   0  0  0  0  0  0
  -24.8902  -32.2908   26.4816 H   0  0  0  0  0  0
  -25.8048  -30.8947   27.0222 H   0  0  0  0  0  0
  -26.2923  -29.6736   24.1220 H   0  0  0  0  0  0
  -27.4036  -29.7251   25.4700 H   0  0  0  0  0  0
  -27.8797  -30.4269   23.9426 H   0  0  0  0  0  0
  -27.2646  -33.3641   26.2003 H   0  0  0  0  0  0
  -28.3872  -32.6852   25.0307 H   0  0  0  0  0  0
  -28.0692  -31.8482   26.5422 H   0  0  0  0  0  0
  -28.2582  -38.0102   24.7512 H   0  0  0  0  0  0
  -28.1087  -36.2628   24.6280 H   0  0  0  0  0  0
  -27.2312  -37.1413   25.8876 H   0  0  0  0  0  0
  -20.9384  -29.8762   21.6875 H   0  0  0  0  0  0
  -26.0169  -38.2828   24.1414 H   0  0  0  0  0  0
  -27.5638  -22.4391   22.7124 H   0  0  0  0  0  0
  -29.0860  -18.3906   25.5131 H   0  0  0  0  0  0
  -28.9518  -17.0254   24.4070 H   0  0  0  0  0  0
  -28.0541  -17.0248   25.9263 H   0  0  0  0  0  0
  -25.3155  -17.8723   23.4416 H   0  0  0  0  0  0
  -25.7751  -16.7196   24.6893 H   0  0  0  0  0  0
  -26.5791  -16.6895   23.1224 H   0  0  0  0  0  0
  -28.1848  -21.9231   19.3475 H   0  0  0  0  0  0
  -29.7724  -22.1703   20.0061 H   0  0  0  0  0  0
  -29.9906  -19.2375   19.5627 H   0  0  0  0  0  0
  -28.5761  -18.2408   19.5318 H   0  0  0  0  0  0
  -28.8598  -23.9845   21.5715 H   0  0  0  0  0  0
  -27.2458  -23.7147   20.9844 H   0  0  0  0  0  0
  -30.6462  -17.5305   21.6921 H   0  0  0  0  0  0
  -31.1879  -17.3745   20.0710 H   0  0  0  0  0  0
  -27.7527  -24.8492   18.8341 H   0  0  0  0  0  0
  -29.4069  -24.9276   19.2467 H   0  0  0  0  0  0
  -26.7146  -18.9425   25.1685 H   0  0  0  0  0  0
  -28.8502  -15.7034   20.7937 H   0  0  0  0  0  0
  1 25  1  0  0  0
  1 30  2  0  0  0
  1 85  1  0  0  0
  2  3  1  0  0  0
  2 25  1  0  0  0
  2 86  1  0  0  0
  2 87  1  0  0  0
  3  4  1  0  0  0
  3 88  1  0  0  0
  3 89  1  0  0  0
  4  5  1  0  0  0
  4 90  1  0  0  0
  4 91  1  0  0  0
  5  6  1  0  0  0
  5 26  1  0  0  0
  5 92  1  0  0  0
  6 25  1  0  0  0
  6 93  1  0  0  0
  6 94  1  0  0  0
  7  8  2  0  0  0
  7 26  1  0  0  0
  7 29  1  0  0  0
  8  9  1  0  0  0
  8 22  1  0  0  0
  9 10  1  0  0  0
  9 27  2  0  0  0
 10 11  2  0  0  0
 10 15  1  0  0  0
 11 12  1  0  0  0
 11 95  1  0  0  0
 12 13  2  0  0  0
 12 96  1  0  0  0
 13 14  1  0  0  0
 13 31  1  0  0  0
 14 15  2  0  0  0
 14 97  1  0  0  0
 15 98  1  0  0  0
 16 17  2  0  0  0
 16 21  1  0  0  0
 16 31  1  0  0  0
 17 18  1  0  0  0
 17 99  1  0  0  0
 18 19  2  0  0  0
 18100  1  0  0  0
 19 20  1  0  0  0
 19 24  1  0  0  0
 20 21  2  0  0  0
 20101  1  0  0  0
 21 23  1  0  0  0
 22 28  1  0  0  0
 22 32  2  0  0  0
 26 27  1  0  0  0
 28102  1  0  0  0
 28103  1  0  0  0
 29104  1  0  0  0
 29105  1  0  0  0
 33 34  1  0  0  0
 33 66  1  0  0  0
 33 70  2  0  0  0
 34 36  1  0  0  0
 34 59  1  0  0  0
 34106  1  0  0  0
 35 44  2  0  0  0
 35 45  1  0  0  0
 35 68  1  0  0  0
 36 56  1  0  0  0
 36107  1  0  0  0
 37 39  1  0  0  0
 37 47  1  0  0  0
 37 66  1  0  0  0
 37108  1  0  0  0
 38 43  2  0  0  0
 38 46  1  0  0  0
 38 47  1  0  0  0
 39 64  1  0  0  0
 39 67  2  0  0  0
 40 52  1  0  0  0
 40 53  2  0  0  0
 40 58  1  0  0  0
 41109  1  0  0  0
 41110  1  0  0  0
 41111  1  0  0  0
 41 48  1  0  0  0
 42 43  1  0  0  0
 42 66  1  0  0  0
 42112  1  0  0  0
 42113  1  0  0  0
 43 44  1  0  0  0
 44114  1  0  0  0
 45 46  2  0  0  0
 45115  1  0  0  0
 46116  1  0  0  0
 47117  1  0  0  0
 47118  1  0  0  0
 48 56  1  0  0  0
 48 65  1  0  0  0
 48119  1  0  0  0
 49 50  1  0  0  0
 49 53  1  0  0  0
 49 64  1  0  0  0
 49120  1  0  0  0
 50 51  1  0  0  0
 50121  1  0  0  0
 50122  1  0  0  0
 51 52  1  0  0  0
 51123  1  0  0  0
 51124  1  0  0  0
 52125  1  0  0  0
 52126  1  0  0  0
 53 54  1  0  0  0
 54 55  2  0  0  0
 54127  1  0  0  0
 55 57  1  0  0  0
 55128  1  0  0  0
 56 69  2  0  0  0
 57 58  2  0  0  0
 57129  1  0  0  0
 58130  1  0  0  0
 59 60  1  0  0  0
 59 61  1  0  0  0
 59 62  1  0  0  0
 60131  1  0  0  0
 60132  1  0  0  0
 60133  1  0  0  0
 61134  1  0  0  0
 61135  1  0  0  0
 61136  1  0  0  0
 62137  1  0  0  0
 62138  1  0  0  0
 62139  1  0  0  0
 63 65  1  0  0  0
 63140  1  0  0  0
 63141  1  0  0  0
 63142  1  0  0  0
 64143  1  0  0  0
 65144  1  0  0  0
 68 81  1  0  0  0
 71 72  2  0  0  0
 71 83  1  0  0  0
 71145  1  0  0  0
 72 73  1  0  0  0
 72 77  1  0  0  0
 73 78  1  0  0  0
 73 84  2  0  0  0
 74 82  1  0  0  0
 74 83  2  0  0  0
 74 84  1  0  0  0
 75146  1  0  0  0
 75147  1  0  0  0
 75148  1  0  0  0
 75 82  1  0  0  0
 76 82  1  0  0  0
 76149  1  0  0  0
 76150  1  0  0  0
 76151  1  0  0  0
 77 79  1  0  0  0
 77152  1  0  0  0
 77153  1  0  0  0
 78 80  1  0  0  0
 78154  1  0  0  0
 78155  1  0  0  0
 79 81  1  0  0  0
 79156  1  0  0  0
 79157  1  0  0  0
 80 85  1  0  0  0
 80158  1  0  0  0
 80159  1  0  0  0
 81160  1  0  0  0
 81161  1  0  0  0
 82162  1  0  0  0
 85163  1  0  0  0
M  ISO  4   1 100  68 101  81 101  85 100
M  END
> <chiral flag>
0

> <version>
0

> <s_m_source_file>
/data/baiqing/PycharmProjects/Reinvent-master-3.2/result/LINK_invent/BTK/process_docking_weight1_custom_sum_contain_oxygen_bond_distance_aromatic_linkinvent_7_9_3/rearranged_h_0045.sdf

> <i_m_source_file_index>
80

> <r_mmod_Potential_Energy-OPLS-2005>
-178.755798339844

> <r_mmod_Stretch_Energy-OPLS-2005>
136.7861328125

> <r_mmod_Bend_Energy-OPLS-2005>
221.336990356445

> <r_mmod_Torsional_Energy-OPLS-2005>
195.351821899414

> <r_mmod_Improper_Torsional_Energy-OPLS-2005>
4.80826330184937

> <r_mmod_Van_der_Waal_Energy-OPLS-2005>
144.253845214844

> <r_mmod_Electrostatic_Energy-OPLS-2005>
-738.59716796875

> <r_mmod_Solvation_Energy-OPLS-2005>
-223.026870727539

> <b_mmod_Minimization_Converged-OPLS-2005>
0

> <r_mmod_RMS_Derivative-OPLS-2005>
1.56717646121979

$$$$
81
                    3D
 Structure written by MMmdl.
171180  0  0  1  0            999 V2000
  -27.9073  -17.1654   20.8461 C   0  0  0  0  0  0
  -29.5816  -14.6278   19.7699 C   0  0  0  0  0  0
  -29.3790  -13.3906   18.6972 C   0  0  0  0  0  0
  -28.2307  -12.4583   19.0613 C   0  0  0  0  0  0
  -27.3552  -13.3764   19.8946 C   0  0  2  0  0  0
  -27.9720  -14.1556   21.0933 C   0  0  0  0  0  0
  -25.0766  -13.8048   20.5554 C   0  0  0  0  0  0
  -24.0627  -13.0070   20.9410 C   0  0  0  0  0  0
  -24.5651  -11.6681   20.8894 C   0  0  0  0  0  0
  -23.8682  -10.4054   21.0533 C   0  0  0  0  0  0
  -24.3414   -9.4046   21.9267 C   0  0  0  0  0  0
  -23.6170   -8.2057   22.0781 C   0  0  0  0  0  0
  -22.4156   -8.0097   21.3559 C   0  0  0  0  0  0
  -21.9715   -9.0014   20.4651 C   0  0  0  0  0  0
  -22.6954  -10.1903   20.3092 C   0  0  0  0  0  0
  -21.6790   -6.0643   22.5308 C   0  0  0  0  0  0
  -21.3963   -6.5586   23.8229 C   0  0  0  0  0  0
  -21.3641   -5.6760   24.9205 C   0  0  0  0  0  0
  -21.6050   -4.3024   24.7263 C   0  0  0  0  0  0
  -21.8826   -3.8095   23.4391 C   0  0  0  0  0  0
  -21.9171   -4.6891   22.3437 C   0  0  0  0  0  0
  -22.6806  -13.4863   21.2149 C   0  0  0  0  0  0
  -22.1654   -4.2085   21.1014 F   0  0  0  0  0  0
  -21.5628   -3.4518   25.7781 F   0  0  0  0  0  0
  -28.3190  -15.5207   20.5260 N   0  0  0  0  0  0
  -26.1051  -12.9339   20.3022 N   0  0  0  0  0  0
  -25.8474  -11.6422   20.5620 N   0  0  0  0  0  0
  -21.9596  -12.7914   22.0804 N   0  0  0  0  0  0
  -25.2034  -15.1854   20.3744 N   0  0  0  0  0  0
  -29.2372  -17.2041   20.6684 O   0  0  0  0  0  0
  -21.6541   -6.8715   21.4247 O   0  0  0  0  0  0
  -22.2630  -14.5241   20.7009 O   0  0  0  0  0  0
  -24.6183  -31.8456   23.0753 C   0  0  0  0  0  0
  -25.8957  -32.4753   23.7845 C   0  0  1  0  0  0
  -26.6586  -27.8191   21.1666 C   0  0  0  0  0  0
  -25.5540  -33.8483   24.1849 N   0  0  0  0  0  0
  -23.5283  -30.2383   21.2369 C   0  0  2  0  0  0
  -25.2349  -29.3485   19.5509 C   0  0  0  0  0  0
  -23.2829  -28.6237   21.2570 C   0  0  0  0  0  0
  -18.5589  -26.9679   23.2267 C   0  0  0  0  0  0
  -24.1441  -36.7355   23.2658 C   0  0  0  0  0  0
  -25.9460  -31.0954   21.1850 C   0  0  0  0  0  0
  -26.2167  -29.8428   20.4239 C   0  0  0  0  0  0
  -27.2446  -29.0216   20.8767 C   0  0  0  0  0  0
  -26.1686  -27.1538   19.9679 C   0  0  0  0  0  0
  -25.3739  -27.9848   19.1102 C   0  0  0  0  0  0
  -23.8892  -30.1069   19.7109 C   0  0  0  0  0  0
  -25.4048  -36.3063   24.0337 C   0  0  1  0  0  0
  -22.3114  -26.8936   23.3545 C   0  0  2  0  0  0
  -22.5229  -25.7185   21.1173 C   0  0  0  0  0  0
  -20.2672  -24.7284   20.3934 C   0  0  0  0  0  0
  -18.5277  -25.5364   21.7627 C   0  0  0  0  0  0
  -19.9789  -27.4997   24.1368 C   0  0  0  0  0  0
  -19.5265  -28.9236   24.5504 C   0  0  0  0  0  0
  -18.3044  -29.7086   24.3261 C   0  0  0  0  0  0
  -25.8946  -34.9484   23.4980 C   0  0  0  0  0  0
  -17.2007  -29.1808   23.6455 C   0  0  0  0  0  0
  -17.3662  -27.8592   23.1325 C   0  0  0  0  0  0
  -26.4687  -31.6832   25.0390 C   0  0  0  0  0  0
  -25.3969  -31.3519   26.1126 C   0  0  0  0  0  0
  -27.2353  -30.4035   24.6008 C   0  0  0  0  0  0
  -27.5519  -32.5273   25.7562 C   0  0  0  0  0  0
  -27.5553  -37.1768   24.8460 C   0  0  0  0  0  0
  -23.0645  -27.5527   22.1077 N   0  0  0  0  0  0
  -26.4229  -37.3766   23.9462 N   0  0  0  0  0  0
  -24.6830  -31.0286   21.9464 N   0  0  0  0  0  0
  -24.0823  -27.8577   21.2895 O   0  0  0  0  0  0
  -26.0067  -27.8569   22.5246 O   0  0  0  0  0  0
  -26.5694  -34.9059   22.4650 O   0  0  0  0  0  0
  -23.5482  -32.1646   23.5993 O   0  0  0  0  0  0
  -20.5861  -26.8223   22.0154 C   0  0  0  0  0  0
  -20.9775  -28.6490   22.3465 C   0  0  0  0  0  0
  -20.3521  -29.2574   21.2155 C   0  0  0  0  0  0
  -20.8839  -25.2792   22.4633 C   0  0  0  0  0  0
  -20.1013  -28.1542   20.3860 C   0  0  0  0  0  0
  -24.2823  -22.1305   21.1236 C   0  0  0  0  0  0
  -23.5738  -21.2755   22.4411 C   0  0  0  0  0  0
  -25.4380  -20.2715   20.6129 C   0  0  0  0  0  0
  -25.2581  -19.7966   22.2230 C   0  0  0  0  0  0
  -22.5372  -23.1341   21.9534 C   0  0  0  0  0  0
  -19.7976  -31.6637   21.9710 C   0  0  0  0  0  0
  -18.3719  -27.6905   18.5631 C   0  0  0  0  0  0
  -22.4854  -29.3312   23.5701 C   0  0  0  0  0  0
  -20.1214  -30.7144   20.8150 C   0  0  0  0  0  0
  -19.7903  -28.1644   18.8987 C   0  0  0  0  0  0
  -24.6179  -28.7545   23.5449 C   0  0  0  0  0  0
  -20.4656  -26.7772   21.1579 N   0  0  0  0  0  0
  -26.4225  -18.6375   21.1307 N   0  0  0  0  0  0
  -30.1368  -15.3753   19.1997 H   0  0  0  0  0  0
  -30.3266  -14.3360   20.5134 H   0  0  0  0  0  0
  -30.3057  -12.8291   18.5730 H   0  0  0  0  0  0
  -29.1641  -13.8272   17.7197 H   0  0  0  0  0  0
  -28.5819  -11.6206   19.6654 H   0  0  0  0  0  0
  -27.7231  -12.0634   18.1799 H   0  0  0  0  0  0
  -27.0810  -14.1042   19.1243 H   0  0  0  0  0  0
  -28.7364  -13.5943   21.6393 H   0  0  0  0  0  0
  -27.2459  -14.3603   21.8820 H   0  0  0  0  0  0
  -25.2539   -9.5600   22.4850 H   0  0  0  0  0  0
  -23.9895   -7.4444   22.7479 H   0  0  0  0  0  0
  -21.0660   -8.8502   19.8953 H   0  0  0  0  0  0
  -22.3416  -10.9458   19.6221 H   0  0  0  0  0  0
  -21.1943   -7.6094   23.9717 H   0  0  0  0  0  0
  -21.1462   -6.0495   25.9110 H   0  0  0  0  0  0
  -22.0625   -2.7553   23.2920 H   0  0  0  0  0  0
  -22.3235  -11.9586   22.5191 H   0  0  0  0  0  0
  -21.0271  -13.0996   22.3139 H   0  0  0  0  0  0
  -24.3550  -15.7414   20.3710 H   0  0  0  0  0  0
  -25.9007  -15.5342   19.7305 H   0  0  0  0  0  0
  -26.7398  -32.6038   23.1201 H   0  0  0  0  0  0
  -24.9520  -33.9484   24.9886 H   0  0  0  0  0  0
  -22.6179  -30.8039   21.3697 H   0  0  0  0  0  0
  -23.3678  -35.9704   23.3265 H   0  0  0  0  0  0
  -24.3554  -36.9079   22.2085 H   0  0  0  0  0  0
  -23.7221  -37.6534   23.6761 H   0  0  0  0  0  0
  -25.8981  -31.9303   20.4832 H   0  0  0  0  0  0
  -26.8522  -31.2574   21.7471 H   0  0  0  0  0  0
  -27.8779  -29.4402   21.6450 H   0  0  0  0  0  0
  -25.9127  -26.1039   19.9796 H   0  0  0  0  0  0
  -24.6471  -27.5237   18.4577 H   0  0  0  0  0  0
  -24.0023  -31.1005   19.2772 H   0  0  0  0  0  0
  -23.1083  -29.6500   19.0957 H   0  0  0  0  0  0
  -25.1255  -36.1824   25.0833 H   0  0  0  0  0  0
  -22.9558  -26.4365   24.1071 H   0  0  0  0  0  0
  -23.4147  -25.1002   21.0344 H   0  0  0  0  0  0
  -22.6939  -26.3236   20.2188 H   0  0  0  0  0  0
  -20.2319  -23.6412   20.3663 H   0  0  0  0  0  0
  -20.0832  -25.0054   19.3522 H   0  0  0  0  0  0
  -17.7180  -25.8286   21.0934 H   0  0  0  0  0  0
  -18.1187  -24.6601   22.2657 H   0  0  0  0  0  0
  -20.2737  -29.5065   25.0615 H   0  0  0  0  0  0
  -18.2521  -30.7199   24.7046 H   0  0  0  0  0  0
  -16.3028  -29.7580   23.4717 H   0  0  0  0  0  0
  -16.5554  -27.4985   22.5160 H   0  0  0  0  0  0
  -24.5526  -30.7754   25.7415 H   0  0  0  0  0  0
  -24.9803  -32.2594   26.5497 H   0  0  0  0  0  0
  -25.8328  -30.7800   26.9326 H   0  0  0  0  0  0
  -27.1267  -29.5848   25.3123 H   0  0  0  0  0  0
  -28.3073  -30.5825   24.5155 H   0  0  0  0  0  0
  -26.9688  -30.0404   23.6164 H   0  0  0  0  0  0
  -27.1332  -33.4154   26.2296 H   0  0  0  0  0  0
  -28.3167  -32.8712   25.0579 H   0  0  0  0  0  0
  -28.0491  -31.9606   26.5448 H   0  0  0  0  0  0
  -28.2532  -38.0101   24.7543 H   0  0  0  0  0  0
  -28.1074  -36.2636   24.6192 H   0  0  0  0  0  0
  -27.2319  -37.1331   25.8873 H   0  0  0  0  0  0
  -23.8050  -26.9519   21.7848 H   0  0  0  0  0  0
  -26.0116  -38.2830   24.1513 H   0  0  0  0  0  0
  -20.4847  -25.9774   22.8892 H   0  0  0  0  0  0
  -24.1649  -22.4934   20.1004 H   0  0  0  0  0  0
  -25.0895  -22.7793   21.4856 H   0  0  0  0  0  0
  -23.6796  -21.4493   23.5137 H   0  0  0  0  0  0
  -22.7272  -20.5857   22.4080 H   0  0  0  0  0  0
  -26.2063  -20.7085   19.9714 H   0  0  0  0  0  0
  -24.7650  -19.8214   19.8739 H   0  0  0  0  0  0
  -24.8550  -19.0053   22.8581 H   0  0  0  0  0  0
  -26.0091  -20.2351   22.8932 H   0  0  0  0  0  0
  -21.7593  -22.6753   21.3523 H   0  0  0  0  0  0
  -19.7243  -32.6911   21.6147 H   0  0  0  0  0  0
  -20.5503  -31.6416   22.7583 H   0  0  0  0  0  0
  -18.8302  -31.4160   22.4056 H   0  0  0  0  0  0
  -18.2004  -27.7294   17.4876 H   0  0  0  0  0  0
  -17.6210  -28.3154   19.0461 H   0  0  0  0  0  0
  -18.2120  -26.6599   18.8806 H   0  0  0  0  0  0
  -22.2203  -29.0661   24.5923 H   0  0  0  0  0  0
  -22.2781  -30.3780   23.6242 H   0  0  0  0  0  0
  -19.2594  -30.7241   20.1466 H   0  0  0  0  0  0
  -20.9335  -31.0946   20.1989 H   0  0  0  0  0  0
  -20.5138  -27.5180   18.4015 H   0  0  0  0  0  0
  -19.9524  -29.1632   18.4953 H   0  0  0  0  0  0
  -25.0753  -29.5084   24.1352 H   0  0  0  0  0  0
  -24.5841  -27.9851   24.3153 H   0  0  0  0  0  0
  1 25  1  0  0  0
  1 30  2  0  0  0
  1 88  1  0  0  0
  2  3  1  0  0  0
  2 25  1  0  0  0
  2 89  1  0  0  0
  2 90  1  0  0  0
  3  4  1  0  0  0
  3 91  1  0  0  0
  3 92  1  0  0  0
  4  5  1  0  0  0
  4 93  1  0  0  0
  4 94  1  0  0  0
  5  6  1  0  0  0
  5 26  1  0  0  0
  5 95  1  0  0  0
  6 25  1  0  0  0
  6 96  1  0  0  0
  6 97  1  0  0  0
  7  8  2  0  0  0
  7 26  1  0  0  0
  7 29  1  0  0  0
  8  9  1  0  0  0
  8 22  1  0  0  0
  9 10  1  0  0  0
  9 27  2  0  0  0
 10 11  2  0  0  0
 10 15  1  0  0  0
 11 12  1  0  0  0
 11 98  1  0  0  0
 12 13  2  0  0  0
 12 99  1  0  0  0
 13 14  1  0  0  0
 13 31  1  0  0  0
 14 15  2  0  0  0
 14100  1  0  0  0
 15101  1  0  0  0
 16 17  2  0  0  0
 16 21  1  0  0  0
 16 31  1  0  0  0
 17 18  1  0  0  0
 17102  1  0  0  0
 18 19  2  0  0  0
 18103  1  0  0  0
 19 20  1  0  0  0
 19 24  1  0  0  0
 20 21  2  0  0  0
 20104  1  0  0  0
 21 23  1  0  0  0
 22 28  1  0  0  0
 22 32  2  0  0  0
 26 27  1  0  0  0
 28105  1  0  0  0
 28106  1  0  0  0
 29107  1  0  0  0
 29108  1  0  0  0
 33 34  1  0  0  0
 33 66  1  0  0  0
 33 70  2  0  0  0
 34 36  1  0  0  0
 34 59  1  0  0  0
 34109  1  0  0  0
 35 44  2  0  0  0
 35 45  1  0  0  0
 35 68  1  0  0  0
 36 56  1  0  0  0
 36110  1  0  0  0
 37 39  1  0  0  0
 37 47  1  0  0  0
 37 66  1  0  0  0
 37111  1  0  0  0
 38 43  2  0  0  0
 38 46  1  0  0  0
 38 47  1  0  0  0
 39 64  1  0  0  0
 39 67  2  0  0  0
 40 52  1  0  0  0
 40 53  2  0  0  0
 40 58  1  0  0  0
 41112  1  0  0  0
 41113  1  0  0  0
 41114  1  0  0  0
 41 48  1  0  0  0
 42 43  1  0  0  0
 42 66  1  0  0  0
 42115  1  0  0  0
 42116  1  0  0  0
 43 44  1  0  0  0
 44117  1  0  0  0
 45 46  2  0  0  0
 45118  1  0  0  0
 46119  1  0  0  0
 47120  1  0  0  0
 47121  1  0  0  0
 48 56  1  0  0  0
 48 65  1  0  0  0
 48122  1  0  0  0
 49 50  1  0  0  0
 49 53  1  0  0  0
 49 64  1  0  0  0
 49123  1  0  0  0
 50 51  1  0  0  0
 50124  1  0  0  0
 50125  1  0  0  0
 51 52  1  0  0  0
 51126  1  0  0  0
 51127  1  0  0  0
 52128  1  0  0  0
 52129  1  0  0  0
 53 54  1  0  0  0
 54 55  2  0  0  0
 54130  1  0  0  0
 55 57  1  0  0  0
 55131  1  0  0  0
 56 69  2  0  0  0
 57 58  2  0  0  0
 57132  1  0  0  0
 58133  1  0  0  0
 59 60  1  0  0  0
 59 61  1  0  0  0
 59 62  1  0  0  0
 60134  1  0  0  0
 60135  1  0  0  0
 60136  1  0  0  0
 61137  1  0  0  0
 61138  1  0  0  0
 61139  1  0  0  0
 62140  1  0  0  0
 62141  1  0  0  0
 62142  1  0  0  0
 63 65  1  0  0  0
 63143  1  0  0  0
 63144  1  0  0  0
 63145  1  0  0  0
 64146  1  0  0  0
 65147  1  0  0  0
 68 86  1  0  0  0
 71 72  2  0  0  0
 71 74  1  0  0  0
 71148  1  0  0  0
 72 73  1  0  0  0
 72 83  1  0  0  0
 73 75  2  0  0  0
 73 84  1  0  0  0
 74 87  2  0  0  0
 74 80  1  0  0  0
 75 85  1  0  0  0
 75 87  1  0  0  0
 76 78  1  0  0  0
 76 80  1  0  0  0
 76149  1  0  0  0
 76150  1  0  0  0
 77 79  1  0  0  0
 77 80  1  0  0  0
 77151  1  0  0  0
 77152  1  0  0  0
 78 88  1  0  0  0
 78153  1  0  0  0
 78154  1  0  0  0
 79 88  1  0  0  0
 79155  1  0  0  0
 79156  1  0  0  0
 80157  1  0  0  0
 81 84  1  0  0  0
 81158  1  0  0  0
 81159  1  0  0  0
 81160  1  0  0  0
 82 85  1  0  0  0
 82161  1  0  0  0
 82162  1  0  0  0
 82163  1  0  0  0
 83 86  1  0  0  0
 83164  1  0  0  0
 83165  1  0  0  0
 84166  1  0  0  0
 84167  1  0  0  0
 85168  1  0  0  0
 85169  1  0  0  0
 86170  1  0  0  0
 86171  1  0  0  0
M  ISO  4   1 100  68 101  86 101  88 100
M  END
> <chiral flag>
0

> <version>
0

> <s_m_source_file>
/data/baiqing/PycharmProjects/Reinvent-master-3.2/result/LINK_invent/BTK/process_docking_weight1_custom_sum_contain_oxygen_bond_distance_aromatic_linkinvent_7_9_3/rearranged_h_0045.sdf

> <i_m_source_file_index>
81

> <r_mmod_Potential_Energy-OPLS-2005>
36000.890625

> <r_mmod_Stretch_Energy-OPLS-2005>
15134.48828125

> <r_mmod_Bend_Energy-OPLS-2005>
5335.9208984375

> <r_mmod_Torsional_Energy-OPLS-2005>
853.889953613281

> <r_mmod_Improper_Torsional_Energy-OPLS-2005>
154.256790161133

> <r_mmod_Van_der_Waal_Energy-OPLS-2005>
4253.86962890625

> <r_mmod_Electrostatic_Energy-OPLS-2005>
-447.291229248047

> <r_mmod_Solvation_Energy-OPLS-2005>
-216.694625854492

> <b_mmod_Minimization_Converged-OPLS-2005>
0

> <r_mmod_RMS_Derivative-OPLS-2005>
5.78479909896851

$$$$
82
                    3D
 Structure written by MMmdl.
159167  0  0  1  0            999 V2000
  -30.6821  -14.4355   20.6151 C   0  0  0  0  0  0
  -30.4282  -12.2969   19.4030 C   0  0  0  0  0  0
  -29.4917  -12.5141   18.1963 C   0  0  0  0  0  0
  -28.0116  -12.3726   18.6097 C   0  0  0  0  0  0
  -27.6661  -13.1930   19.8811 C   0  0  2  0  0  0
  -28.7041  -12.9271   20.9937 C   0  0  0  0  0  0
  -25.2608  -13.8122   20.5626 C   0  0  0  0  0  0
  -24.1849  -13.0415   20.9140 C   0  0  0  0  0  0
  -24.6393  -11.6886   20.8738 C   0  0  0  0  0  0
  -23.9053  -10.4286   21.0428 C   0  0  0  0  0  0
  -24.3623   -9.4212   21.9206 C   0  0  0  0  0  0
  -23.6296   -8.2252   22.0787 C   0  0  0  0  0  0
  -22.4283   -8.0286   21.3565 C   0  0  0  0  0  0
  -21.9904   -9.0270   20.4682 C   0  0  0  0  0  0
  -22.7227  -10.2148   20.3083 C   0  0  0  0  0  0
  -21.6862   -6.0739   22.5292 C   0  0  0  0  0  0
  -21.4011   -6.5648   23.8215 C   0  0  0  0  0  0
  -21.3653   -5.6809   24.9183 C   0  0  0  0  0  0
  -21.6037   -4.3067   24.7241 C   0  0  0  0  0  0
  -21.8810   -3.8155   23.4358 C   0  0  0  0  0  0
  -21.9187   -4.6964   22.3414 C   0  0  0  0  0  0
  -22.7886  -13.5261   21.1823 C   0  0  0  0  0  0
  -22.1653   -4.2133   21.0995 F   0  0  0  0  0  0
  -21.5633   -3.4566   25.7758 F   0  0  0  0  0  0
  -30.0391  -13.2510   20.4520 N   0  0  0  0  0  0
  -26.3047  -12.9277   20.3392 N   0  0  0  0  0  0
  -25.9318  -11.6448   20.5789 N   0  0  0  0  0  0
  -22.0533  -12.8278   22.0391 N   0  0  0  0  0  0
  -25.4310  -15.1840   20.3993 N   0  0  0  0  0  0
  -31.7773  -14.6953   20.1056 O   0  0  0  0  0  0
  -21.6646   -6.8891   21.4257 O   0  0  0  0  0  0
  -22.3589  -14.5576   20.6670 O   0  0  0  0  0  0
  -24.6124  -31.8680   23.2104 C   0  0  0  0  0  0
  -25.9014  -32.4815   23.8401 C   0  0  1  0  0  0
  -27.2435  -27.4731   20.0836 C   0  0  0  0  0  0
  -25.5864  -33.8613   24.2329 N   0  0  0  0  0  0
  -23.3983  -30.4923   21.5490 C   0  0  2  0  0  0
  -24.8474  -28.9588   20.1159 C   0  0  0  0  0  0
  -22.7370  -29.4667   22.4976 C   0  0  0  0  0  0
  -18.0262  -28.1411   22.8489 C   0  0  0  0  0  0
  -24.1483  -36.7344   23.2631 C   0  0  0  0  0  0
  -25.9250  -30.8439   21.3614 C   0  0  0  0  0  0
  -26.0035  -29.4806   20.7107 C   0  0  0  0  0  0
  -27.2067  -28.7445   20.6931 C   0  0  0  0  0  0
  -26.0765  -26.9550   19.4864 C   0  0  0  0  0  0
  -24.8773  -27.6932   19.5017 C   0  0  0  0  0  0
  -23.6070  -29.8210   20.1650 C   0  0  0  0  0  0
  -25.4104  -36.3126   24.0339 C   0  0  1  0  0  0
  -20.5846  -28.3708   23.1369 C   0  0  2  0  0  0
  -20.6740  -26.9420   22.5586 C   0  0  0  0  0  0
  -19.5790  -26.6339   21.5300 C   0  0  0  0  0  0
  -18.1938  -26.7938   22.1662 C   0  0  0  0  0  0
  -19.1499  -28.8896   23.2880 C   0  0  0  0  0  0
  -18.9424  -30.1531   23.8832 C   0  0  0  0  0  0
  -17.6428  -30.6665   24.0486 C   0  0  0  0  0  0
  -25.9037  -34.9477   23.5154 C   0  0  0  0  0  0
  -16.5325  -29.9116   23.6310 C   0  0  0  0  0  0
  -16.7250  -28.6516   23.0364 C   0  0  0  0  0  0
  -26.4454  -31.6572   25.0708 C   0  0  0  0  0  0
  -25.3735  -31.3686   26.1465 C   0  0  0  0  0  0
  -27.0263  -30.3005   24.6058 C   0  0  0  0  0  0
  -27.6044  -32.4265   25.7462 C   0  0  0  0  0  0
  -27.5586  -37.1820   24.8458 C   0  0  0  0  0  0
  -21.4104  -29.3035   22.3718 N   0  0  0  0  0  0
  -26.4297  -37.3805   23.9402 N   0  0  0  0  0  0
  -24.6635  -31.0817   22.0989 N   0  0  0  0  0  0
  -23.4147  -28.8203   23.2997 O   0  0  0  0  0  0
  -28.4061  -26.7465   20.0504 O   0  0  0  0  0  0
  -26.5602  -34.8925   22.4727 O   0  0  0  0  0  0
  -23.5325  -32.1405   23.7514 O   0  0  0  0  0  0
  -26.6636  -20.2570   21.2601 C   0  0  0  0  0  0
  -27.8791  -19.9885   21.9460 C   0  0  0  0  0  0
  -26.6036  -21.6195   21.1725 C   0  0  0  0  0  0
  -25.4963  -22.4778   20.6501 C   0  0  0  0  0  0
  -28.3588  -18.6575   22.4929 C   0  0  0  0  0  0
  -28.9383  -17.6539   21.4365 C   0  0  0  0  0  0
  -28.2051  -24.4273   20.7864 C   0  0  0  0  0  0
  -28.1757  -23.4915   22.0125 C   0  0  0  0  0  0
  -30.2452  -16.7835   21.4845 C   0  0  0  0  0  0
  -28.5771  -25.8721   21.1645 C   0  0  0  0  0  0
  -28.5646  -21.1028   22.1714 N   0  0  0  0  0  0
  -27.7775  -22.1132   21.7258 N   0  0  0  0  0  0
  -29.9683  -15.3507   21.2898 N   0  0  0  0  0  0
  -31.4707  -12.4162   19.1012 H   0  0  0  0  0  0
  -30.3460  -11.2733   19.7772 H   0  0  0  0  0  0
  -29.7284  -11.8069   17.4001 H   0  0  0  0  0  0
  -29.6596  -13.5077   17.7775 H   0  0  0  0  0  0
  -27.8121  -11.3158   18.7900 H   0  0  0  0  0  0
  -27.3620  -12.6652   17.7841 H   0  0  0  0  0  0
  -27.7248  -14.2467   19.6095 H   0  0  0  0  0  0
  -28.6801  -11.8760   21.2855 H   0  0  0  0  0  0
  -28.4577  -13.4724   21.9060 H   0  0  0  0  0  0
  -25.2762   -9.5686   22.4784 H   0  0  0  0  0  0
  -23.9990   -7.4653   22.7517 H   0  0  0  0  0  0
  -21.0821   -8.8802   19.9009 H   0  0  0  0  0  0
  -22.3681  -10.9707   19.6208 H   0  0  0  0  0  0
  -21.2004   -7.6158   23.9704 H   0  0  0  0  0  0
  -21.1483   -6.0558   25.9082 H   0  0  0  0  0  0
  -22.0587   -2.7614   23.2882 H   0  0  0  0  0  0
  -22.4139  -11.9914   22.4740 H   0  0  0  0  0  0
  -21.1191  -13.1380   22.2663 H   0  0  0  0  0  0
  -24.6592  -15.8337   20.5049 H   0  0  0  0  0  0
  -26.2749  -15.6264   20.0587 H   0  0  0  0  0  0
  -26.7092  -32.5532   23.1176 H   0  0  0  0  0  0
  -24.9939  -33.9779   25.0413 H   0  0  0  0  0  0
  -22.6866  -31.3100   21.4095 H   0  0  0  0  0  0
  -23.3730  -35.9694   23.3312 H   0  0  0  0  0  0
  -24.3590  -36.8940   22.2046 H   0  0  0  0  0  0
  -23.7252  -37.6561   23.6636 H   0  0  0  0  0  0
  -26.0310  -31.6117   20.5940 H   0  0  0  0  0  0
  -26.8176  -30.8989   21.9732 H   0  0  0  0  0  0
  -28.1038  -29.1515   21.1383 H   0  0  0  0  0  0
  -26.0991  -25.9889   19.0030 H   0  0  0  0  0  0
  -23.9921  -27.2871   19.0322 H   0  0  0  0  0  0
  -23.7076  -30.5952   19.4034 H   0  0  0  0  0  0
  -22.7338  -29.2362   19.8727 H   0  0  0  0  0  0
  -25.1284  -36.2009   25.0832 H   0  0  0  0  0  0
  -20.9899  -28.3386   24.1503 H   0  0  0  0  0  0
  -20.5494  -26.2408   23.3855 H   0  0  0  0  0  0
  -21.6674  -26.7363   22.1544 H   0  0  0  0  0  0
  -19.6978  -25.6208   21.1437 H   0  0  0  0  0  0
  -19.6773  -27.3073   20.6762 H   0  0  0  0  0  0
  -17.4198  -26.6602   21.4092 H   0  0  0  0  0  0
  -18.0336  -26.0131   22.9125 H   0  0  0  0  0  0
  -19.7882  -30.7385   24.2162 H   0  0  0  0  0  0
  -17.4984  -31.6379   24.5016 H   0  0  0  0  0  0
  -15.5328  -30.3004   23.7674 H   0  0  0  0  0  0
  -15.8632  -28.0796   22.7160 H   0  0  0  0  0  0
  -24.5906  -30.7015   25.7833 H   0  0  0  0  0  0
  -24.8924  -32.2840   26.4908 H   0  0  0  0  0  0
  -25.8113  -30.8866   27.0209 H   0  0  0  0  0  0
  -26.2801  -29.6767   24.1105 H   0  0  0  0  0  0
  -27.4029  -29.7221   25.4505 H   0  0  0  0  0  0
  -27.8636  -30.4327   23.9201 H   0  0  0  0  0  0
  -27.2680  -33.3551   26.2089 H   0  0  0  0  0  0
  -28.3833  -32.6834   25.0269 H   0  0  0  0  0  0
  -28.0707  -31.8323   26.5325 H   0  0  0  0  0  0
  -28.2623  -38.0097   24.7503 H   0  0  0  0  0  0
  -28.1068  -36.2640   24.6302 H   0  0  0  0  0  0
  -27.2302  -37.1488   25.8856 H   0  0  0  0  0  0
  -20.9242  -29.8757   21.6955 H   0  0  0  0  0  0
  -26.0199  -38.2892   24.1379 H   0  0  0  0  0  0
  -25.9050  -19.5525   20.9481 H   0  0  0  0  0  0
  -25.7214  -22.8295   19.6438 H   0  0  0  0  0  0
  -25.3202  -23.3410   21.2924 H   0  0  0  0  0  0
  -24.5622  -21.9191   20.5980 H   0  0  0  0  0  0
  -27.4897  -18.2347   23.0124 H   0  0  0  0  0  0
  -29.0864  -18.8272   23.2915 H   0  0  0  0  0  0
  -28.6807  -16.9736   22.2469 H   0  0  0  0  0  0
  -29.6528  -18.4663   21.2989 H   0  0  0  0  0  0
  -27.2309  -24.4432   20.3073 H   0  0  0  0  0  0
  -28.9084  -24.0501   20.0457 H   0  0  0  0  0  0
  -27.4812  -23.8873   22.7538 H   0  0  0  0  0  0
  -29.1574  -23.4861   22.4888 H   0  0  0  0  0  0
  -30.7702  -16.9090   22.4368 H   0  0  0  0  0  0
  -30.9509  -17.0942   20.7083 H   0  0  0  0  0  0
  -27.9852  -26.2021   22.0219 H   0  0  0  0  0  0
  -29.6204  -25.9161   21.4787 H   0  0  0  0  0  0
  -29.0942  -15.0055   21.6606 H   0  0  0  0  0  0
  1 25  1  0  0  0
  1 30  2  0  0  0
  1 83  1  0  0  0
  2  3  1  0  0  0
  2 25  1  0  0  0
  2 84  1  0  0  0
  2 85  1  0  0  0
  3  4  1  0  0  0
  3 86  1  0  0  0
  3 87  1  0  0  0
  4  5  1  0  0  0
  4 88  1  0  0  0
  4 89  1  0  0  0
  5  6  1  0  0  0
  5 26  1  0  0  0
  5 90  1  0  0  0
  6 25  1  0  0  0
  6 91  1  0  0  0
  6 92  1  0  0  0
  7  8  2  0  0  0
  7 26  1  0  0  0
  7 29  1  0  0  0
  8  9  1  0  0  0
  8 22  1  0  0  0
  9 10  1  0  0  0
  9 27  2  0  0  0
 10 11  2  0  0  0
 10 15  1  0  0  0
 11 12  1  0  0  0
 11 93  1  0  0  0
 12 13  2  0  0  0
 12 94  1  0  0  0
 13 14  1  0  0  0
 13 31  1  0  0  0
 14 15  2  0  0  0
 14 95  1  0  0  0
 15 96  1  0  0  0
 16 17  2  0  0  0
 16 21  1  0  0  0
 16 31  1  0  0  0
 17 18  1  0  0  0
 17 97  1  0  0  0
 18 19  2  0  0  0
 18 98  1  0  0  0
 19 20  1  0  0  0
 19 24  1  0  0  0
 20 21  2  0  0  0
 20 99  1  0  0  0
 21 23  1  0  0  0
 22 28  1  0  0  0
 22 32  2  0  0  0
 26 27  1  0  0  0
 28100  1  0  0  0
 28101  1  0  0  0
 29102  1  0  0  0
 29103  1  0  0  0
 33 34  1  0  0  0
 33 66  1  0  0  0
 33 70  2  0  0  0
 34 36  1  0  0  0
 34 59  1  0  0  0
 34104  1  0  0  0
 35 44  2  0  0  0
 35 45  1  0  0  0
 35 68  1  0  0  0
 36 56  1  0  0  0
 36105  1  0  0  0
 37 39  1  0  0  0
 37 47  1  0  0  0
 37 66  1  0  0  0
 37106  1  0  0  0
 38 43  2  0  0  0
 38 46  1  0  0  0
 38 47  1  0  0  0
 39 64  1  0  0  0
 39 67  2  0  0  0
 40 52  1  0  0  0
 40 53  2  0  0  0
 40 58  1  0  0  0
 41107  1  0  0  0
 41108  1  0  0  0
 41109  1  0  0  0
 41 48  1  0  0  0
 42 43  1  0  0  0
 42 66  1  0  0  0
 42110  1  0  0  0
 42111  1  0  0  0
 43 44  1  0  0  0
 44112  1  0  0  0
 45 46  2  0  0  0
 45113  1  0  0  0
 46114  1  0  0  0
 47115  1  0  0  0
 47116  1  0  0  0
 48 56  1  0  0  0
 48 65  1  0  0  0
 48117  1  0  0  0
 49 50  1  0  0  0
 49 53  1  0  0  0
 49 64  1  0  0  0
 49118  1  0  0  0
 50 51  1  0  0  0
 50119  1  0  0  0
 50120  1  0  0  0
 51 52  1  0  0  0
 51121  1  0  0  0
 51122  1  0  0  0
 52123  1  0  0  0
 52124  1  0  0  0
 53 54  1  0  0  0
 54 55  2  0  0  0
 54125  1  0  0  0
 55 57  1  0  0  0
 55126  1  0  0  0
 56 69  2  0  0  0
 57 58  2  0  0  0
 57127  1  0  0  0
 58128  1  0  0  0
 59 60  1  0  0  0
 59 61  1  0  0  0
 59 62  1  0  0  0
 60129  1  0  0  0
 60130  1  0  0  0
 60131  1  0  0  0
 61132  1  0  0  0
 61133  1  0  0  0
 61134  1  0  0  0
 62135  1  0  0  0
 62136  1  0  0  0
 62137  1  0  0  0
 63 65  1  0  0  0
 63138  1  0  0  0
 63139  1  0  0  0
 63140  1  0  0  0
 64141  1  0  0  0
 65142  1  0  0  0
 68 80  1  0  0  0
 71 72  1  0  0  0
 71 73  2  0  0  0
 71143  1  0  0  0
 72 75  1  0  0  0
 72 81  2  0  0  0
 73 74  1  0  0  0
 73 82  1  0  0  0
 74144  1  0  0  0
 74145  1  0  0  0
 74146  1  0  0  0
 75 76  1  0  0  0
 75147  1  0  0  0
 75148  1  0  0  0
 76 79  1  0  0  0
 76149  1  0  0  0
 76150  1  0  0  0
 77 78  1  0  0  0
 77 80  1  0  0  0
 77151  1  0  0  0
 77152  1  0  0  0
 78 82  1  0  0  0
 78153  1  0  0  0
 78154  1  0  0  0
 79 83  1  0  0  0
 79155  1  0  0  0
 79156  1  0  0  0
 80157  1  0  0  0
 80158  1  0  0  0
 81 82  1  0  0  0
 83159  1  0  0  0
M  ISO  4   1 100  68 101  80 101  83 100
M  END
> <chiral flag>
0

> <version>
0

> <s_m_source_file>
/data/baiqing/PycharmProjects/Reinvent-master-3.2/result/LINK_invent/BTK/process_docking_weight1_custom_sum_contain_oxygen_bond_distance_aromatic_linkinvent_7_9_3/rearranged_h_0045.sdf

> <i_m_source_file_index>
82

> <r_mmod_Potential_Energy-OPLS-2005>
98.7373199462891

> <r_mmod_Stretch_Energy-OPLS-2005>
35.1086082458496

> <r_mmod_Bend_Energy-OPLS-2005>
316.169097900391

> <r_mmod_Torsional_Energy-OPLS-2005>
238.478179931641

> <r_mmod_Improper_Torsional_Energy-OPLS-2005>
3.65088629722595

> <r_mmod_Van_der_Waal_Energy-OPLS-2005>
143.760116577148

> <r_mmod_Electrostatic_Energy-OPLS-2005>
-427.144134521484

> <r_mmod_Solvation_Energy-OPLS-2005>
-219.908187866211

> <b_mmod_Minimization_Converged-OPLS-2005>
0

> <r_mmod_RMS_Derivative-OPLS-2005>
3.01568627357483

$$$$
83
                    3D
 Structure written by MMmdl.
157165  0  0  1  0            999 V2000
  -30.6449  -14.6562   20.5238 C   0  0  0  0  0  0
  -30.4275  -12.4096   19.4590 C   0  0  0  0  0  0
  -29.5020  -12.5110   18.2276 C   0  0  0  0  0  0
  -28.0273  -12.3455   18.6415 C   0  0  0  0  0  0
  -27.6487  -13.2250   19.8630 C   0  0  2  0  0  0
  -28.6910  -13.1009   20.9952 C   0  0  0  0  0  0
  -25.2531  -13.8191   20.5703 C   0  0  0  0  0  0
  -24.1806  -13.0441   20.9188 C   0  0  0  0  0  0
  -24.6389  -11.6917   20.8738 C   0  0  0  0  0  0
  -23.9060  -10.4295   21.0405 C   0  0  0  0  0  0
  -24.3613   -9.4211   21.9184 C   0  0  0  0  0  0
  -23.6288   -8.2245   22.0756 C   0  0  0  0  0  0
  -22.4270   -8.0280   21.3543 C   0  0  0  0  0  0
  -21.9907   -9.0254   20.4647 C   0  0  0  0  0  0
  -22.7234  -10.2133   20.3056 C   0  0  0  0  0  0
  -21.6851   -6.0735   22.5279 C   0  0  0  0  0  0
  -21.4014   -6.5638   23.8210 C   0  0  0  0  0  0
  -21.3659   -5.6794   24.9173 C   0  0  0  0  0  0
  -21.6044   -4.3056   24.7225 C   0  0  0  0  0  0
  -21.8818   -3.8143   23.4347 C   0  0  0  0  0  0
  -21.9193   -4.6962   22.3403 C   0  0  0  0  0  0
  -22.7829  -13.5229   21.1856 C   0  0  0  0  0  0
  -22.1661   -4.2147   21.0980 F   0  0  0  0  0  0
  -21.5628   -3.4539   25.7737 F   0  0  0  0  0  0
  -30.0037  -13.4436   20.4291 N   0  0  0  0  0  0
  -26.2964  -12.9391   20.3331 N   0  0  0  0  0  0
  -25.9319  -11.6533   20.5761 N   0  0  0  0  0  0
  -22.0478  -12.8221   22.0415 N   0  0  0  0  0  0
  -25.4239  -15.1914   20.4142 N   0  0  0  0  0  0
  -31.7779  -14.8057   20.0542 O   0  0  0  0  0  0
  -21.6638   -6.8876   21.4240 O   0  0  0  0  0  0
  -22.3513  -14.5536   20.6707 O   0  0  0  0  0  0
  -24.6251  -31.8580   23.1998 C   0  0  0  0  0  0
  -25.9099  -32.4765   23.8327 C   0  0  1  0  0  0
  -27.2312  -27.3123   20.1089 C   0  0  0  0  0  0
  -25.5914  -33.8568   24.2252 N   0  0  0  0  0  0
  -23.4192  -30.4791   21.5421 C   0  0  2  0  0  0
  -24.8670  -28.9293   20.1061 C   0  0  0  0  0  0
  -22.7468  -29.4603   22.4932 C   0  0  0  0  0  0
  -18.0282  -28.1385   22.8490 C   0  0  0  0  0  0
  -24.1484  -36.7280   23.2641 C   0  0  0  0  0  0
  -25.9591  -30.7837   21.3724 C   0  0  0  0  0  0
  -26.0322  -29.4096   20.7155 C   0  0  0  0  0  0
  -27.2107  -28.6078   20.7146 C   0  0  0  0  0  0
  -26.0394  -26.8760   19.4884 C   0  0  0  0  0  0
  -24.8724  -27.6678   19.4873 C   0  0  0  0  0  0
  -23.6339  -29.8099   20.1575 C   0  0  0  0  0  0
  -25.4110  -36.3070   24.0327 C   0  0  1  0  0  0
  -20.5878  -28.3675   23.1294 C   0  0  2  0  0  0
  -20.6769  -26.9398   22.5420 C   0  0  0  0  0  0
  -19.5746  -26.6377   21.5221 C   0  0  0  0  0  0
  -18.1920  -26.7928   22.1626 C   0  0  0  0  0  0
  -19.1536  -28.8848   23.2885 C   0  0  0  0  0  0
  -18.9465  -30.1454   23.8892 C   0  0  0  0  0  0
  -17.6467  -30.6586   24.0567 C   0  0  0  0  0  0
  -25.9054  -34.9444   23.5093 C   0  0  0  0  0  0
  -16.5357  -29.9086   23.6338 C   0  0  0  0  0  0
  -16.7271  -28.6508   23.0351 C   0  0  0  0  0  0
  -26.4486  -31.6590   25.0708 C   0  0  0  0  0  0
  -25.3721  -31.3736   26.1441 C   0  0  0  0  0  0
  -27.0335  -30.3016   24.6161 C   0  0  0  0  0  0
  -27.6040  -32.4339   25.7474 C   0  0  0  0  0  0
  -27.5574  -37.1786   24.8463 C   0  0  0  0  0  0
  -21.4181  -29.3030   22.3687 N   0  0  0  0  0  0
  -26.4279  -37.3775   23.9419 N   0  0  0  0  0  0
  -24.6864  -31.0581   22.0950 N   0  0  0  0  0  0
  -23.4195  -28.8153   23.3016 O   0  0  0  0  0  0
  -28.3628  -26.4854   20.1948 O   0  0  0  0  0  0
  -26.5631  -34.8921   22.4664 O   0  0  0  0  0  0
  -23.5417  -32.1383   23.7328 O   0  0  0  0  0  0
  -29.3564  -23.2321   20.7884 C   0  0  0  0  0  0
  -28.5163  -23.8186   19.7943 C   0  0  0  0  0  0
  -27.8530  -21.6199   19.2403 C   0  0  0  0  0  0
  -28.6833  -21.0259   20.2446 C   0  0  0  0  0  0
  -26.9597  -20.7865   18.3407 C   0  0  0  0  0  0
  -30.1224  -16.0164   22.4676 C   0  0  0  0  0  0
  -28.5751  -19.4890   20.6347 C   0  0  0  0  0  0
  -28.5821  -25.3248   19.3064 C   0  0  0  0  0  0
  -29.7577  -18.4201   20.4849 C   0  0  0  0  0  0
  -29.3222  -16.8793   20.2700 C   0  0  0  0  0  0
  -29.4252  -21.8724   21.0228 N   0  0  0  0  0  0
  -27.7747  -22.9707   19.0266 N   0  0  0  0  0  0
  -29.9542  -15.7359   21.0429 N   0  0  0  0  0  0
  -31.4700  -12.5236   19.1563 H   0  0  0  0  0  0
  -30.3569  -11.4185   19.9100 H   0  0  0  0  0  0
  -29.7689  -11.7520   17.4907 H   0  0  0  0  0  0
  -29.6409  -13.4759   17.7376 H   0  0  0  0  0  0
  -27.8707  -11.2936   18.8835 H   0  0  0  0  0  0
  -27.3693  -12.5636   17.7993 H   0  0  0  0  0  0
  -27.6632  -14.2585   19.5160 H   0  0  0  0  0  0
  -28.7063  -12.0868   21.3977 H   0  0  0  0  0  0
  -28.4262  -13.7510   21.8299 H   0  0  0  0  0  0
  -25.2758   -9.5689   22.4755 H   0  0  0  0  0  0
  -23.9997   -7.4642   22.7479 H   0  0  0  0  0  0
  -21.0835   -8.8770   19.8954 H   0  0  0  0  0  0
  -22.3689  -10.9671   19.6162 H   0  0  0  0  0  0
  -21.2005   -7.6147   23.9712 H   0  0  0  0  0  0
  -21.1482   -6.0525   25.9078 H   0  0  0  0  0  0
  -22.0595   -2.7607   23.2848 H   0  0  0  0  0  0
  -22.4094  -11.9879   22.4798 H   0  0  0  0  0  0
  -21.1101  -13.1250   22.2635 H   0  0  0  0  0  0
  -24.6595  -15.8473   20.5314 H   0  0  0  0  0  0
  -26.2845  -15.6319   20.1165 H   0  0  0  0  0  0
  -26.7159  -32.5430   23.1063 H   0  0  0  0  0  0
  -25.0066  -33.9709   25.0399 H   0  0  0  0  0  0
  -22.7127  -31.2992   21.3975 H   0  0  0  0  0  0
  -23.3756  -35.9601   23.3293 H   0  0  0  0  0  0
  -24.3572  -36.8912   22.2056 H   0  0  0  0  0  0
  -23.7224  -37.6470   23.6677 H   0  0  0  0  0  0
  -26.0917  -31.5461   20.6036 H   0  0  0  0  0  0
  -26.8393  -30.8328   22.0022 H   0  0  0  0  0  0
  -28.1032  -28.9695   21.2054 H   0  0  0  0  0  0
  -25.9764  -25.8981   19.0347 H   0  0  0  0  0  0
  -23.9749  -27.2890   19.0179 H   0  0  0  0  0  0
  -23.7495  -30.5855   19.3995 H   0  0  0  0  0  0
  -22.7538  -29.2381   19.8579 H   0  0  0  0  0  0
  -25.1290  -36.1908   25.0817 H   0  0  0  0  0  0
  -20.9975  -28.3251   24.1414 H   0  0  0  0  0  0
  -20.5671  -26.2282   23.3617 H   0  0  0  0  0  0
  -21.6635  -26.7426   22.1211 H   0  0  0  0  0  0
  -19.6905  -25.6289   21.1245 H   0  0  0  0  0  0
  -19.6687  -27.3197   20.6760 H   0  0  0  0  0  0
  -17.4193  -26.6686   21.4025 H   0  0  0  0  0  0
  -18.0312  -26.0065   22.9016 H   0  0  0  0  0  0
  -19.7941  -30.7281   24.2246 H   0  0  0  0  0  0
  -17.5020  -31.6266   24.5167 H   0  0  0  0  0  0
  -15.5358  -30.2992   23.7664 H   0  0  0  0  0  0
  -15.8666  -28.0838   22.7057 H   0  0  0  0  0  0
  -24.5894  -30.7079   25.7782 H   0  0  0  0  0  0
  -24.8916  -32.2909   26.4860 H   0  0  0  0  0  0
  -25.8050  -30.8926   27.0221 H   0  0  0  0  0  0
  -26.2908  -29.6762   24.1194 H   0  0  0  0  0  0
  -27.4051  -29.7275   25.4660 H   0  0  0  0  0  0
  -27.8766  -30.4312   23.9370 H   0  0  0  0  0  0
  -27.2644  -33.3655   26.2013 H   0  0  0  0  0  0
  -28.3863  -32.6874   25.0307 H   0  0  0  0  0  0
  -28.0688  -31.8488   26.5419 H   0  0  0  0  0  0
  -28.2580  -38.0097   24.7536 H   0  0  0  0  0  0
  -28.1081  -36.2630   24.6256 H   0  0  0  0  0  0
  -27.2298  -37.1393   25.8867 H   0  0  0  0  0  0
  -20.9357  -29.8753   21.6901 H   0  0  0  0  0  0
  -26.0154  -38.2838   24.1456 H   0  0  0  0  0  0
  -30.0134  -23.8549   21.3777 H   0  0  0  0  0  0
  -26.0982  -20.4184   18.8979 H   0  0  0  0  0  0
  -27.5054  -19.9336   17.9376 H   0  0  0  0  0  0
  -26.5897  -21.3676   17.4953 H   0  0  0  0  0  0
  -29.3264  -16.6610   22.8416 H   0  0  0  0  0  0
  -31.0769  -16.5137   22.6454 H   0  0  0  0  0  0
  -30.1065  -15.1005   23.0607 H   0  0  0  0  0  0
  -27.7214  -19.0797   20.0994 H   0  0  0  0  0  0
  -28.2504  -19.4641   21.6751 H   0  0  0  0  0  0
  -27.9973  -25.4295   18.3930 H   0  0  0  0  0  0
  -29.6072  -25.4489   18.9565 H   0  0  0  0  0  0
  -30.4342  -18.5244   21.3328 H   0  0  0  0  0  0
  -30.3537  -18.7064   19.6179 H   0  0  0  0  0  0
  -29.4032  -16.6506   19.2058 H   0  0  0  0  0  0
  -28.2547  -16.8020   20.4792 H   0  0  0  0  0  0
  1 25  1  0  0  0
  1 30  2  0  0  0
  1 83  1  0  0  0
  2  3  1  0  0  0
  2 25  1  0  0  0
  2 84  1  0  0  0
  2 85  1  0  0  0
  3  4  1  0  0  0
  3 86  1  0  0  0
  3 87  1  0  0  0
  4  5  1  0  0  0
  4 88  1  0  0  0
  4 89  1  0  0  0
  5  6  1  0  0  0
  5 26  1  0  0  0
  5 90  1  0  0  0
  6 25  1  0  0  0
  6 91  1  0  0  0
  6 92  1  0  0  0
  7  8  2  0  0  0
  7 26  1  0  0  0
  7 29  1  0  0  0
  8  9  1  0  0  0
  8 22  1  0  0  0
  9 10  1  0  0  0
  9 27  2  0  0  0
 10 11  2  0  0  0
 10 15  1  0  0  0
 11 12  1  0  0  0
 11 93  1  0  0  0
 12 13  2  0  0  0
 12 94  1  0  0  0
 13 14  1  0  0  0
 13 31  1  0  0  0
 14 15  2  0  0  0
 14 95  1  0  0  0
 15 96  1  0  0  0
 16 17  2  0  0  0
 16 21  1  0  0  0
 16 31  1  0  0  0
 17 18  1  0  0  0
 17 97  1  0  0  0
 18 19  2  0  0  0
 18 98  1  0  0  0
 19 20  1  0  0  0
 19 24  1  0  0  0
 20 21  2  0  0  0
 20 99  1  0  0  0
 21 23  1  0  0  0
 22 28  1  0  0  0
 22 32  2  0  0  0
 26 27  1  0  0  0
 28100  1  0  0  0
 28101  1  0  0  0
 29102  1  0  0  0
 29103  1  0  0  0
 33 34  1  0  0  0
 33 66  1  0  0  0
 33 70  2  0  0  0
 34 36  1  0  0  0
 34 59  1  0  0  0
 34104  1  0  0  0
 35 44  2  0  0  0
 35 45  1  0  0  0
 35 68  1  0  0  0
 36 56  1  0  0  0
 36105  1  0  0  0
 37 39  1  0  0  0
 37 47  1  0  0  0
 37 66  1  0  0  0
 37106  1  0  0  0
 38 43  2  0  0  0
 38 46  1  0  0  0
 38 47  1  0  0  0
 39 64  1  0  0  0
 39 67  2  0  0  0
 40 52  1  0  0  0
 40 53  2  0  0  0
 40 58  1  0  0  0
 41107  1  0  0  0
 41108  1  0  0  0
 41109  1  0  0  0
 41 48  1  0  0  0
 42 43  1  0  0  0
 42 66  1  0  0  0
 42110  1  0  0  0
 42111  1  0  0  0
 43 44  1  0  0  0
 44112  1  0  0  0
 45 46  2  0  0  0
 45113  1  0  0  0
 46114  1  0  0  0
 47115  1  0  0  0
 47116  1  0  0  0
 48 56  1  0  0  0
 48 65  1  0  0  0
 48117  1  0  0  0
 49 50  1  0  0  0
 49 53  1  0  0  0
 49 64  1  0  0  0
 49118  1  0  0  0
 50 51  1  0  0  0
 50119  1  0  0  0
 50120  1  0  0  0
 51 52  1  0  0  0
 51121  1  0  0  0
 51122  1  0  0  0
 52123  1  0  0  0
 52124  1  0  0  0
 53 54  1  0  0  0
 54 55  2  0  0  0
 54125  1  0  0  0
 55 57  1  0  0  0
 55126  1  0  0  0
 56 69  2  0  0  0
 57 58  2  0  0  0
 57127  1  0  0  0
 58128  1  0  0  0
 59 60  1  0  0  0
 59 61  1  0  0  0
 59 62  1  0  0  0
 60129  1  0  0  0
 60130  1  0  0  0
 60131  1  0  0  0
 61132  1  0  0  0
 61133  1  0  0  0
 61134  1  0  0  0
 62135  1  0  0  0
 62136  1  0  0  0
 62137  1  0  0  0
 63 65  1  0  0  0
 63138  1  0  0  0
 63139  1  0  0  0
 63140  1  0  0  0
 64141  1  0  0  0
 65142  1  0  0  0
 68 78  1  0  0  0
 71 72  2  0  0  0
 71 81  1  0  0  0
 71143  1  0  0  0
 72 78  1  0  0  0
 72 82  1  0  0  0
 73 74  1  0  0  0
 73 75  1  0  0  0
 73 82  2  0  0  0
 74 77  1  0  0  0
 74 81  2  0  0  0
 75144  1  0  0  0
 75145  1  0  0  0
 75146  1  0  0  0
 76 83  1  0  0  0
 76147  1  0  0  0
 76148  1  0  0  0
 76149  1  0  0  0
 77 79  1  0  0  0
 77150  1  0  0  0
 77151  1  0  0  0
 78152  1  0  0  0
 78153  1  0  0  0
 79 80  1  0  0  0
 79154  1  0  0  0
 79155  1  0  0  0
 80 83  1  0  0  0
 80156  1  0  0  0
 80157  1  0  0  0
M  ISO  4   1 100  68 101  78 101  83 100
M  END
> <chiral flag>
0

> <version>
0

> <s_m_source_file>
/data/baiqing/PycharmProjects/Reinvent-master-3.2/result/LINK_invent/BTK/process_docking_weight1_custom_sum_contain_oxygen_bond_distance_aromatic_linkinvent_7_9_3/rearranged_h_0045.sdf

> <i_m_source_file_index>
83

> <r_mmod_Potential_Energy-OPLS-2005>
355.330047607422

> <r_mmod_Stretch_Energy-OPLS-2005>
98.1667251586914

> <r_mmod_Bend_Energy-OPLS-2005>
171.795715332031

> <r_mmod_Torsional_Energy-OPLS-2005>
316.786346435547

> <r_mmod_Improper_Torsional_Energy-OPLS-2005>
5.97522640228271

> <r_mmod_Van_der_Waal_Energy-OPLS-2005>
140.515838623047

> <r_mmod_Electrostatic_Energy-OPLS-2005>
-219.231460571289

> <r_mmod_Solvation_Energy-OPLS-2005>
-210.625152587891

> <b_mmod_Minimization_Converged-OPLS-2005>
0

> <r_mmod_RMS_Derivative-OPLS-2005>
0.822931349277496

$$$$
84
                    3D
 Structure written by MMmdl.
159167  0  0  1  0            999 V2000
  -30.6834  -14.4673   20.5036 C   0  0  0  0  0  0
  -30.4198  -12.2775   19.4390 C   0  0  0  0  0  0
  -29.4956  -12.4772   18.2192 C   0  0  0  0  0  0
  -28.0166  -12.3394   18.6295 C   0  0  0  0  0  0
  -27.6582  -13.1977   19.8725 C   0  0  2  0  0  0
  -28.6985  -12.9975   21.0021 C   0  0  0  0  0  0
  -25.2570  -13.8149   20.5684 C   0  0  0  0  0  0
  -24.1804  -13.0437   20.9175 C   0  0  0  0  0  0
  -24.6337  -11.6893   20.8719 C   0  0  0  0  0  0
  -23.9012  -10.4282   21.0394 C   0  0  0  0  0  0
  -24.3586   -9.4211   21.9175 C   0  0  0  0  0  0
  -23.6273   -8.2238   22.0738 C   0  0  0  0  0  0
  -22.4257   -8.0259   21.3532 C   0  0  0  0  0  0
  -21.9883   -9.0232   20.4637 C   0  0  0  0  0  0
  -22.7186  -10.2124   20.3043 C   0  0  0  0  0  0
  -21.6854   -6.0717   22.5273 C   0  0  0  0  0  0
  -21.4019   -6.5626   23.8203 C   0  0  0  0  0  0
  -21.3664   -5.6780   24.9172 C   0  0  0  0  0  0
  -21.6050   -4.3045   24.7226 C   0  0  0  0  0  0
  -21.8823   -3.8128   23.4349 C   0  0  0  0  0  0
  -21.9194   -4.6941   22.3404 C   0  0  0  0  0  0
  -22.7832  -13.5236   21.1851 C   0  0  0  0  0  0
  -22.1656   -4.2127   21.0981 F   0  0  0  0  0  0
  -21.5639   -3.4530   25.7742 F   0  0  0  0  0  0
  -30.0356  -13.2751   20.4493 N   0  0  0  0  0  0
  -26.2987  -12.9295   20.3353 N   0  0  0  0  0  0
  -25.9262  -11.6463   20.5756 N   0  0  0  0  0  0
  -22.0485  -12.8221   22.0414 N   0  0  0  0  0  0
  -25.4345  -15.1871   20.4130 N   0  0  0  0  0  0
  -31.8404  -14.6316   20.1101 O   0  0  0  0  0  0
  -21.6639   -6.8850   21.4225 O   0  0  0  0  0  0
  -22.3519  -14.5535   20.6690 O   0  0  0  0  0  0
  -24.6155  -31.8693   23.2105 C   0  0  0  0  0  0
  -25.9056  -32.4819   23.8395 C   0  0  1  0  0  0
  -27.2252  -27.4374   20.0900 C   0  0  0  0  0  0
  -25.5925  -33.8619   24.2339 N   0  0  0  0  0  0
  -23.4030  -30.4977   21.5482 C   0  0  2  0  0  0
  -24.8498  -28.9726   20.1067 C   0  0  0  0  0  0
  -22.7403  -29.4686   22.4938 C   0  0  0  0  0  0
  -18.0279  -28.1374   22.8487 C   0  0  0  0  0  0
  -24.1488  -36.7316   23.2620 C   0  0  0  0  0  0
  -25.9336  -30.8382   21.3637 C   0  0  0  0  0  0
  -26.0120  -29.4748   20.7068 C   0  0  0  0  0  0
  -27.2057  -28.7155   20.6958 C   0  0  0  0  0  0
  -26.0508  -26.9677   19.4586 C   0  0  0  0  0  0
  -24.8642  -27.7190   19.4780 C   0  0  0  0  0  0
  -23.6134  -29.8400   20.1589 C   0  0  0  0  0  0
  -25.4098  -36.3106   24.0331 C   0  0  1  0  0  0
  -20.5870  -28.3684   23.1289 C   0  0  2  0  0  0
  -20.6781  -26.9418   22.5400 C   0  0  0  0  0  0
  -19.5755  -26.6390   21.5203 C   0  0  0  0  0  0
  -18.1935  -26.7913   22.1623 C   0  0  0  0  0  0
  -19.1531  -28.8838   23.2894 C   0  0  0  0  0  0
  -18.9457  -30.1438   23.8911 C   0  0  0  0  0  0
  -17.6464  -30.6583   24.0564 C   0  0  0  0  0  0
  -25.9034  -34.9469   23.5130 C   0  0  0  0  0  0
  -16.5356  -29.9098   23.6308 C   0  0  0  0  0  0
  -16.7271  -28.6509   23.0336 C   0  0  0  0  0  0
  -26.4476  -31.6569   25.0706 C   0  0  0  0  0  0
  -25.3754  -31.3691   26.1468 C   0  0  0  0  0  0
  -27.0252  -30.2991   24.6052 C   0  0  0  0  0  0
  -27.6074  -32.4238   25.7479 C   0  0  0  0  0  0
  -27.5575  -37.1803   24.8456 C   0  0  0  0  0  0
  -21.4130  -29.3069   22.3691 N   0  0  0  0  0  0
  -26.4277  -37.3795   23.9413 N   0  0  0  0  0  0
  -24.6686  -31.0809   22.1004 N   0  0  0  0  0  0
  -23.4168  -28.8209   23.2980 O   0  0  0  0  0  0
  -28.3502  -26.6378   20.1520 O   0  0  0  0  0  0
  -26.5577  -34.8917   22.4678 O   0  0  0  0  0  0
  -23.5349  -32.1448   23.7508 O   0  0  0  0  0  0
  -31.8198  -22.3843   20.6366 C   0  0  0  0  0  0
  -32.1469  -21.0561   20.5673 C   0  0  0  0  0  0
  -31.0648  -20.4641   19.8534 C   0  0  0  0  0  0
  -33.3833  -20.3737   21.0805 C   0  0  0  0  0  0
  -30.9064  -19.0321   19.3847 C   0  0  0  0  0  0
  -30.5608  -17.9916   20.4788 C   0  0  0  0  0  0
  -29.2548  -24.4093   20.9515 C   0  0  0  0  0  0
  -29.8940  -23.7851   19.6961 C   0  0  0  0  0  0
  -29.9442  -16.7256   19.8371 C   0  0  0  0  0  0
  -28.0504  -25.3226   20.6600 C   0  0  0  0  0  0
  -30.1405  -21.3643   19.5354 N   0  0  0  0  0  0
  -30.6182  -22.5509   19.9823 N   0  0  0  0  0  0
  -29.8728  -15.5256   20.6856 N   0  0  0  0  0  0
  -31.4651  -12.3680   19.1377 H   0  0  0  0  0  0
  -30.3140  -11.2704   19.8454 H   0  0  0  0  0  0
  -29.7364  -11.7521   17.4418 H   0  0  0  0  0  0
  -29.6674  -13.4622   17.7815 H   0  0  0  0  0  0
  -27.8298  -11.2860   18.8422 H   0  0  0  0  0  0
  -27.3674  -12.5971   17.7921 H   0  0  0  0  0  0
  -27.6963  -14.2383   19.5516 H   0  0  0  0  0  0
  -28.6593  -11.9700   21.3679 H   0  0  0  0  0  0
  -28.4722  -13.6312   21.8609 H   0  0  0  0  0  0
  -25.2739   -9.5707   22.4740 H   0  0  0  0  0  0
  -24.0007   -7.4632   22.7453 H   0  0  0  0  0  0
  -21.0822   -8.8723   19.8942 H   0  0  0  0  0  0
  -22.3623  -10.9656   19.6148 H   0  0  0  0  0  0
  -21.1999   -7.6131   23.9696 H   0  0  0  0  0  0
  -21.1494   -6.0517   25.9075 H   0  0  0  0  0  0
  -22.0598   -2.7589   23.2857 H   0  0  0  0  0  0
  -22.4102  -11.9888   22.4819 H   0  0  0  0  0  0
  -21.1092  -13.1225   22.2598 H   0  0  0  0  0  0
  -24.6808  -15.8520   20.5489 H   0  0  0  0  0  0
  -26.2948  -15.6261   20.1106 H   0  0  0  0  0  0
  -26.7130  -32.5524   23.1160 H   0  0  0  0  0  0
  -25.0106  -33.9791   25.0504 H   0  0  0  0  0  0
  -22.6925  -31.3158   21.4108 H   0  0  0  0  0  0
  -23.3748  -35.9651   23.3261 H   0  0  0  0  0  0
  -24.3602  -36.8948   22.2042 H   0  0  0  0  0  0
  -23.7241  -37.6518   23.6640 H   0  0  0  0  0  0
  -26.0421  -31.6052   20.5958 H   0  0  0  0  0  0
  -26.8230  -30.8907   21.9797 H   0  0  0  0  0  0
  -28.0976  -29.0916   21.1773 H   0  0  0  0  0  0
  -26.0336  -26.0194   18.9436 H   0  0  0  0  0  0
  -23.9754  -27.3326   18.9983 H   0  0  0  0  0  0
  -23.7289  -30.6229   19.4087 H   0  0  0  0  0  0
  -22.7364  -29.2678   19.8513 H   0  0  0  0  0  0
  -25.1262  -36.1969   25.0822 H   0  0  0  0  0  0
  -20.9972  -28.3260   24.1404 H   0  0  0  0  0  0
  -20.5692  -26.2290   23.3587 H   0  0  0  0  0  0
  -21.6649  -26.7467   22.1181 H   0  0  0  0  0  0
  -19.6929  -25.6308   21.1217 H   0  0  0  0  0  0
  -19.6685  -27.3208   20.6738 H   0  0  0  0  0  0
  -17.4198  -26.6638   21.4040 H   0  0  0  0  0  0
  -18.0374  -26.0054   22.9025 H   0  0  0  0  0  0
  -19.7940  -30.7248   24.2283 H   0  0  0  0  0  0
  -17.5031  -31.6259   24.5175 H   0  0  0  0  0  0
  -15.5365  -30.3022   23.7609 H   0  0  0  0  0  0
  -15.8663  -28.0841   22.7036 H   0  0  0  0  0  0
  -24.6037  -30.6866   25.7890 H   0  0  0  0  0  0
  -24.8803  -32.2829   26.4760 H   0  0  0  0  0  0
  -25.8159  -30.9067   27.0312 H   0  0  0  0  0  0
  -26.2778  -29.6816   24.1056 H   0  0  0  0  0  0
  -27.3963  -29.7152   25.4485 H   0  0  0  0  0  0
  -27.8642  -30.4271   23.9209 H   0  0  0  0  0  0
  -27.2759  -33.3612   26.1951 H   0  0  0  0  0  0
  -28.3972  -32.6643   25.0351 H   0  0  0  0  0  0
  -28.0607  -31.8377   26.5485 H   0  0  0  0  0  0
  -28.2573  -38.0119   24.7534 H   0  0  0  0  0  0
  -28.1094  -36.2657   24.6241 H   0  0  0  0  0  0
  -27.2299  -37.1403   25.8858 H   0  0  0  0  0  0
  -20.9267  -29.8838   21.6961 H   0  0  0  0  0  0
  -26.0163  -38.2863   24.1457 H   0  0  0  0  0  0
  -32.3493  -23.2250   21.0642 H   0  0  0  0  0  0
  -34.1396  -21.0887   21.4045 H   0  0  0  0  0  0
  -33.8439  -19.7514   20.3124 H   0  0  0  0  0  0
  -33.1643  -19.7257   21.9291 H   0  0  0  0  0  0
  -31.8205  -18.7153   18.8790 H   0  0  0  0  0  0
  -30.1376  -18.9982   18.6109 H   0  0  0  0  0  0
  -29.8479  -18.4159   21.1865 H   0  0  0  0  0  0
  -31.4572  -17.7507   21.0505 H   0  0  0  0  0  0
  -29.9994  -24.9308   21.5507 H   0  0  0  0  0  0
  -28.8844  -23.5950   21.5772 H   0  0  0  0  0  0
  -30.5797  -24.4971   19.2363 H   0  0  0  0  0  0
  -29.1310  -23.5662   18.9485 H   0  0  0  0  0  0
  -30.4774  -16.4859   18.9140 H   0  0  0  0  0  0
  -28.9282  -16.9614   19.5149 H   0  0  0  0  0  0
  -27.4999  -25.4419   21.5949 H   0  0  0  0  0  0
  -27.3874  -24.7777   19.9894 H   0  0  0  0  0  0
  -28.9576  -15.3007   21.0460 H   0  0  0  0  0  0
  1 25  1  0  0  0
  1 30  2  0  0  0
  1 83  1  0  0  0
  2  3  1  0  0  0
  2 25  1  0  0  0
  2 84  1  0  0  0
  2 85  1  0  0  0
  3  4  1  0  0  0
  3 86  1  0  0  0
  3 87  1  0  0  0
  4  5  1  0  0  0
  4 88  1  0  0  0
  4 89  1  0  0  0
  5  6  1  0  0  0
  5 26  1  0  0  0
  5 90  1  0  0  0
  6 25  1  0  0  0
  6 91  1  0  0  0
  6 92  1  0  0  0
  7  8  2  0  0  0
  7 26  1  0  0  0
  7 29  1  0  0  0
  8  9  1  0  0  0
  8 22  1  0  0  0
  9 10  1  0  0  0
  9 27  2  0  0  0
 10 11  2  0  0  0
 10 15  1  0  0  0
 11 12  1  0  0  0
 11 93  1  0  0  0
 12 13  2  0  0  0
 12 94  1  0  0  0
 13 14  1  0  0  0
 13 31  1  0  0  0
 14 15  2  0  0  0
 14 95  1  0  0  0
 15 96  1  0  0  0
 16 17  2  0  0  0
 16 21  1  0  0  0
 16 31  1  0  0  0
 17 18  1  0  0  0
 17 97  1  0  0  0
 18 19  2  0  0  0
 18 98  1  0  0  0
 19 20  1  0  0  0
 19 24  1  0  0  0
 20 21  2  0  0  0
 20 99  1  0  0  0
 21 23  1  0  0  0
 22 28  1  0  0  0
 22 32  2  0  0  0
 26 27  1  0  0  0
 28100  1  0  0  0
 28101  1  0  0  0
 29102  1  0  0  0
 29103  1  0  0  0
 33 34  1  0  0  0
 33 66  1  0  0  0
 33 70  2  0  0  0
 34 36  1  0  0  0
 34 59  1  0  0  0
 34104  1  0  0  0
 35 44  2  0  0  0
 35 45  1  0  0  0
 35 68  1  0  0  0
 36 56  1  0  0  0
 36105  1  0  0  0
 37 39  1  0  0  0
 37 47  1  0  0  0
 37 66  1  0  0  0
 37106  1  0  0  0
 38 43  2  0  0  0
 38 46  1  0  0  0
 38 47  1  0  0  0
 39 64  1  0  0  0
 39 67  2  0  0  0
 40 52  1  0  0  0
 40 53  2  0  0  0
 40 58  1  0  0  0
 41107  1  0  0  0
 41108  1  0  0  0
 41109  1  0  0  0
 41 48  1  0  0  0
 42 43  1  0  0  0
 42 66  1  0  0  0
 42110  1  0  0  0
 42111  1  0  0  0
 43 44  1  0  0  0
 44112  1  0  0  0
 45 46  2  0  0  0
 45113  1  0  0  0
 46114  1  0  0  0
 47115  1  0  0  0
 47116  1  0  0  0
 48 56  1  0  0  0
 48 65  1  0  0  0
 48117  1  0  0  0
 49 50  1  0  0  0
 49 53  1  0  0  0
 49 64  1  0  0  0
 49118  1  0  0  0
 50 51  1  0  0  0
 50119  1  0  0  0
 50120  1  0  0  0
 51 52  1  0  0  0
 51121  1  0  0  0
 51122  1  0  0  0
 52123  1  0  0  0
 52124  1  0  0  0
 53 54  1  0  0  0
 54 55  2  0  0  0
 54125  1  0  0  0
 55 57  1  0  0  0
 55126  1  0  0  0
 56 69  2  0  0  0
 57 58  2  0  0  0
 57127  1  0  0  0
 58128  1  0  0  0
 59 60  1  0  0  0
 59 61  1  0  0  0
 59 62  1  0  0  0
 60129  1  0  0  0
 60130  1  0  0  0
 60131  1  0  0  0
 61132  1  0  0  0
 61133  1  0  0  0
 61134  1  0  0  0
 62135  1  0  0  0
 62136  1  0  0  0
 62137  1  0  0  0
 63 65  1  0  0  0
 63138  1  0  0  0
 63139  1  0  0  0
 63140  1  0  0  0
 64141  1  0  0  0
 65142  1  0  0  0
 68 80  1  0  0  0
 71 72  2  0  0  0
 71 82  1  0  0  0
 71143  1  0  0  0
 72 73  1  0  0  0
 72 74  1  0  0  0
 73 75  1  0  0  0
 73 81  2  0  0  0
 74144  1  0  0  0
 74145  1  0  0  0
 74146  1  0  0  0
 75 76  1  0  0  0
 75147  1  0  0  0
 75148  1  0  0  0
 76 79  1  0  0  0
 76149  1  0  0  0
 76150  1  0  0  0
 77 78  1  0  0  0
 77 80  1  0  0  0
 77151  1  0  0  0
 77152  1  0  0  0
 78 82  1  0  0  0
 78153  1  0  0  0
 78154  1  0  0  0
 79 83  1  0  0  0
 79155  1  0  0  0
 79156  1  0  0  0
 80157  1  0  0  0
 80158  1  0  0  0
 81 82  1  0  0  0
 83159  1  0  0  0
M  ISO  4   1 100  68 101  80 101  83 100
M  END
> <chiral flag>
0

> <version>
0

> <s_m_source_file>
/data/baiqing/PycharmProjects/Reinvent-master-3.2/result/LINK_invent/BTK/process_docking_weight1_custom_sum_contain_oxygen_bond_distance_aromatic_linkinvent_7_9_3/rearranged_h_0045.sdf

> <i_m_source_file_index>
84

> <r_mmod_Potential_Energy-OPLS-2005>
-100.094917297363

> <r_mmod_Stretch_Energy-OPLS-2005>
33.920783996582

> <r_mmod_Bend_Energy-OPLS-2005>
92.4236526489258

> <r_mmod_Torsional_Energy-OPLS-2005>
248.366302490234

> <r_mmod_Improper_Torsional_Energy-OPLS-2005>
11.4335632324219

> <r_mmod_Van_der_Waal_Energy-OPLS-2005>
129.573028564453

> <r_mmod_Electrostatic_Energy-OPLS-2005>
-410.159515380859

> <r_mmod_Solvation_Energy-OPLS-2005>
-223.508270263672

> <b_mmod_Minimization_Converged-OPLS-2005>
0

> <r_mmod_RMS_Derivative-OPLS-2005>
2.38177275657654

$$$$
85
                    3D
 Structure written by MMmdl.
156164  0  0  1  0            999 V2000
  -30.7228  -14.4685   20.5664 C   0  0  0  0  0  0
  -30.4164  -12.3044   19.4255 C   0  0  0  0  0  0
  -29.4913  -12.4952   18.2065 C   0  0  0  0  0  0
  -28.0120  -12.3621   18.6195 C   0  0  0  0  0  0
  -27.6588  -13.2124   19.8691 C   0  0  2  0  0  0
  -28.7010  -13.0114   20.9925 C   0  0  0  0  0  0
  -25.2583  -13.8169   20.5695 C   0  0  0  0  0  0
  -24.1825  -13.0444   20.9172 C   0  0  0  0  0  0
  -24.6373  -11.6910   20.8717 C   0  0  0  0  0  0
  -23.9040  -10.4293   21.0381 C   0  0  0  0  0  0
  -24.3598   -9.4215   21.9163 C   0  0  0  0  0  0
  -23.6288   -8.2244   22.0736 C   0  0  0  0  0  0
  -22.4271   -8.0270   21.3526 C   0  0  0  0  0  0
  -21.9896   -9.0244   20.4635 C   0  0  0  0  0  0
  -22.7214  -10.2125   20.3033 C   0  0  0  0  0  0
  -21.6856   -6.0728   22.5271 C   0  0  0  0  0  0
  -21.4022   -6.5633   23.8202 C   0  0  0  0  0  0
  -21.3665   -5.6779   24.9164 C   0  0  0  0  0  0
  -21.6046   -4.3044   24.7217 C   0  0  0  0  0  0
  -21.8822   -3.8137   23.4340 C   0  0  0  0  0  0
  -21.9200   -4.6959   22.3395 C   0  0  0  0  0  0
  -22.7847  -13.5247   21.1840 C   0  0  0  0  0  0
  -22.1666   -4.2139   21.0977 F   0  0  0  0  0  0
  -21.5630   -3.4530   25.7736 F   0  0  0  0  0  0
  -30.0308  -13.3036   20.4342 N   0  0  0  0  0  0
  -26.3014  -12.9351   20.3347 N   0  0  0  0  0  0
  -25.9307  -11.6502   20.5750 N   0  0  0  0  0  0
  -22.0491  -12.8236   22.0397 N   0  0  0  0  0  0
  -25.4333  -15.1885   20.4133 N   0  0  0  0  0  0
  -31.8539  -14.6227   20.1001 O   0  0  0  0  0  0
  -21.6632   -6.8871   21.4228 O   0  0  0  0  0  0
  -22.3537  -14.5564   20.6709 O   0  0  0  0  0  0
  -24.6152  -31.8682   23.2116 C   0  0  0  0  0  0
  -25.9050  -32.4823   23.8403 C   0  0  1  0  0  0
  -27.2154  -27.4074   20.0937 C   0  0  0  0  0  0
  -25.5912  -33.8627   24.2334 N   0  0  0  0  0  0
  -23.4034  -30.4957   21.5517 C   0  0  2  0  0  0
  -24.8455  -28.9657   20.1109 C   0  0  0  0  0  0
  -22.7419  -29.4657   22.4957 C   0  0  0  0  0  0
  -18.0284  -28.1379   22.8491 C   0  0  0  0  0  0
  -24.1492  -36.7301   23.2633 C   0  0  0  0  0  0
  -25.9373  -30.8224   21.3742 C   0  0  0  0  0  0
  -26.0084  -29.4580   20.7160 C   0  0  0  0  0  0
  -27.1954  -28.6854   20.7065 C   0  0  0  0  0  0
  -26.0384  -26.9567   19.4503 C   0  0  0  0  0  0
  -24.8572  -27.7159   19.4740 C   0  0  0  0  0  0
  -23.6122  -29.8367   20.1637 C   0  0  0  0  0  0
  -25.4112  -36.3111   24.0335 C   0  0  1  0  0  0
  -20.5874  -28.3665   23.1311 C   0  0  2  0  0  0
  -20.6772  -26.9399   22.5416 C   0  0  0  0  0  0
  -19.5754  -26.6388   21.5208 C   0  0  0  0  0  0
  -18.1931  -26.7931   22.1615 C   0  0  0  0  0  0
  -19.1534  -28.8837   23.2904 C   0  0  0  0  0  0
  -18.9453  -30.1444   23.8917 C   0  0  0  0  0  0
  -17.6456  -30.6583   24.0565 C   0  0  0  0  0  0
  -25.9038  -34.9477   23.5130 C   0  0  0  0  0  0
  -16.5348  -29.9080   23.6330 C   0  0  0  0  0  0
  -16.7274  -28.6497   23.0349 C   0  0  0  0  0  0
  -26.4480  -31.6610   25.0730 C   0  0  0  0  0  0
  -25.3748  -31.3715   26.1472 C   0  0  0  0  0  0
  -27.0312  -30.3053   24.6117 C   0  0  0  0  0  0
  -27.6058  -32.4325   25.7484 C   0  0  0  0  0  0
  -27.5593  -37.1799   24.8458 C   0  0  0  0  0  0
  -21.4142  -29.3039   22.3710 N   0  0  0  0  0  0
  -26.4298  -37.3796   23.9418 N   0  0  0  0  0  0
  -24.6698  -31.0769   22.1030 N   0  0  0  0  0  0
  -23.4190  -28.8180   23.2984 O   0  0  0  0  0  0
  -28.3650  -26.6349   20.1377 O   0  0  0  0  0  0
  -26.5587  -34.8922   22.4681 O   0  0  0  0  0  0
  -23.5348  -32.1441   23.7506 O   0  0  0  0  0  0
  -30.1366  -21.9740   20.9020 C   0  0  0  0  0  0
  -29.0517  -22.8990   20.9106 C   0  0  0  0  0  0
  -29.5814  -20.7239   21.0246 C   0  0  0  0  0  0
  -27.1178  -19.9747   21.1369 C   0  0  0  0  0  0
  -29.1170  -24.4225   20.9987 C   0  0  0  0  0  0
  -30.3376  -19.4145   21.1993 C   0  0  0  0  0  0
  -29.6294  -18.0326   21.0740 C   0  0  0  0  0  0
  -30.6298  -16.8618   21.2861 C   0  0  0  0  0  0
  -28.2317  -25.1965   19.9946 C   0  0  0  0  0  0
  -27.8956  -22.2517   20.9873 N   0  0  0  0  0  0
  -28.2066  -20.9293   21.0402 N   0  0  0  0  0  0
  -30.0624  -15.5069   21.1175 N   0  0  0  0  0  0
  -31.4615  -12.3913   19.1216 H   0  0  0  0  0  0
  -30.3100  -11.2992   19.8357 H   0  0  0  0  0  0
  -29.7294  -11.7630   17.4338 H   0  0  0  0  0  0
  -29.6613  -13.4780   17.7637 H   0  0  0  0  0  0
  -27.8198  -11.3077   18.8235 H   0  0  0  0  0  0
  -27.3611  -12.6309   17.7867 H   0  0  0  0  0  0
  -27.6989  -14.2580   19.5604 H   0  0  0  0  0  0
  -28.6730  -11.9833   21.3543 H   0  0  0  0  0  0
  -28.4647  -13.6344   21.8565 H   0  0  0  0  0  0
  -25.2740   -9.5715   22.4740 H   0  0  0  0  0  0
  -24.0002   -7.4648   22.7467 H   0  0  0  0  0  0
  -21.0814   -8.8765   19.8964 H   0  0  0  0  0  0
  -22.3658  -10.9657   19.6145 H   0  0  0  0  0  0
  -21.2009   -7.6138   23.9704 H   0  0  0  0  0  0
  -21.1486   -6.0504   25.9063 H   0  0  0  0  0  0
  -22.0601   -2.7601   23.2833 H   0  0  0  0  0  0
  -22.4114  -11.9909   22.4799 H   0  0  0  0  0  0
  -21.1119  -13.1270   22.2617 H   0  0  0  0  0  0
  -24.6701  -15.8460   20.5300 H   0  0  0  0  0  0
  -26.2903  -15.6258   20.0990 H   0  0  0  0  0  0
  -26.7102  -32.5522   23.1142 H   0  0  0  0  0  0
  -25.0120  -33.9798   25.0518 H   0  0  0  0  0  0
  -22.6927  -31.3135   21.4174 H   0  0  0  0  0  0
  -23.3768  -35.9621   23.3293 H   0  0  0  0  0  0
  -24.3592  -36.8917   22.2050 H   0  0  0  0  0  0
  -23.7231  -37.6497   23.6647 H   0  0  0  0  0  0
  -26.0637  -31.5906   20.6103 H   0  0  0  0  0  0
  -26.8215  -30.8654   21.9987 H   0  0  0  0  0  0
  -28.0890  -29.0557   21.1908 H   0  0  0  0  0  0
  -26.0088  -26.0192   18.9153 H   0  0  0  0  0  0
  -23.9679  -27.3405   18.9853 H   0  0  0  0  0  0
  -23.7262  -30.6159   19.4095 H   0  0  0  0  0  0
  -22.7349  -29.2610   19.8616 H   0  0  0  0  0  0
  -25.1292  -36.1972   25.0831 H   0  0  0  0  0  0
  -20.9984  -28.3239   24.1423 H   0  0  0  0  0  0
  -20.5671  -26.2270   23.3603 H   0  0  0  0  0  0
  -21.6643  -26.7436   22.1212 H   0  0  0  0  0  0
  -19.6908  -25.6301   21.1229 H   0  0  0  0  0  0
  -19.6703  -27.3201   20.6743 H   0  0  0  0  0  0
  -17.4206  -26.6691   21.4011 H   0  0  0  0  0  0
  -18.0327  -26.0065   22.9006 H   0  0  0  0  0  0
  -19.7929  -30.7257   24.2295 H   0  0  0  0  0  0
  -17.5009  -31.6264   24.5160 H   0  0  0  0  0  0
  -15.5348  -30.2980   23.7647 H   0  0  0  0  0  0
  -15.8676  -28.0817   22.7053 H   0  0  0  0  0  0
  -24.5919  -30.7061   25.7806 H   0  0  0  0  0  0
  -24.8932  -32.2868   26.4926 H   0  0  0  0  0  0
  -25.8102  -30.8879   27.0228 H   0  0  0  0  0  0
  -26.2853  -29.6806   24.1180 H   0  0  0  0  0  0
  -27.4094  -29.7294   25.4579 H   0  0  0  0  0  0
  -27.8695  -30.4373   23.9267 H   0  0  0  0  0  0
  -27.2687  -33.3620   26.2086 H   0  0  0  0  0  0
  -28.3855  -32.6895   25.0298 H   0  0  0  0  0  0
  -28.0740  -31.8432   26.5381 H   0  0  0  0  0  0
  -28.2589  -38.0117   24.7553 H   0  0  0  0  0  0
  -28.1116  -36.2655   24.6234 H   0  0  0  0  0  0
  -27.2318  -37.1385   25.8860 H   0  0  0  0  0  0
  -20.9284  -29.8783   21.6961 H   0  0  0  0  0  0
  -26.0187  -38.2873   24.1441 H   0  0  0  0  0  0
  -31.1928  -22.2038   20.8824 H   0  0  0  0  0  0
  -27.1778  -19.2577   20.3179 H   0  0  0  0  0  0
  -26.1536  -20.4798   21.0772 H   0  0  0  0  0  0
  -27.1691  -19.4476   22.0892 H   0  0  0  0  0  0
  -30.1494  -24.7457   20.8665 H   0  0  0  0  0  0
  -28.8408  -24.7290   22.0083 H   0  0  0  0  0  0
  -30.8190  -19.4505   22.1767 H   0  0  0  0  0  0
  -31.1625  -19.4236   20.4858 H   0  0  0  0  0  0
  -29.1637  -17.9484   20.0920 H   0  0  0  0  0  0
  -28.8394  -17.9482   21.8182 H   0  0  0  0  0  0
  -31.0522  -16.9179   22.2897 H   0  0  0  0  0  0
  -31.4698  -17.0100   20.6043 H   0  0  0  0  0  0
  -27.2161  -24.8509   20.1848 H   0  0  0  0  0  0
  -28.4808  -24.9180   18.9701 H   0  0  0  0  0  0
  -29.1269  -15.3328   21.4552 H   0  0  0  0  0  0
  1 25  1  0  0  0
  1 30  2  0  0  0
  1 82  1  0  0  0
  2  3  1  0  0  0
  2 25  1  0  0  0
  2 83  1  0  0  0
  2 84  1  0  0  0
  3  4  1  0  0  0
  3 85  1  0  0  0
  3 86  1  0  0  0
  4  5  1  0  0  0
  4 87  1  0  0  0
  4 88  1  0  0  0
  5  6  1  0  0  0
  5 26  1  0  0  0
  5 89  1  0  0  0
  6 25  1  0  0  0
  6 90  1  0  0  0
  6 91  1  0  0  0
  7  8  2  0  0  0
  7 26  1  0  0  0
  7 29  1  0  0  0
  8  9  1  0  0  0
  8 22  1  0  0  0
  9 10  1  0  0  0
  9 27  2  0  0  0
 10 11  2  0  0  0
 10 15  1  0  0  0
 11 12  1  0  0  0
 11 92  1  0  0  0
 12 13  2  0  0  0
 12 93  1  0  0  0
 13 14  1  0  0  0
 13 31  1  0  0  0
 14 15  2  0  0  0
 14 94  1  0  0  0
 15 95  1  0  0  0
 16 17  2  0  0  0
 16 21  1  0  0  0
 16 31  1  0  0  0
 17 18  1  0  0  0
 17 96  1  0  0  0
 18 19  2  0  0  0
 18 97  1  0  0  0
 19 20  1  0  0  0
 19 24  1  0  0  0
 20 21  2  0  0  0
 20 98  1  0  0  0
 21 23  1  0  0  0
 22 28  1  0  0  0
 22 32  2  0  0  0
 26 27  1  0  0  0
 28 99  1  0  0  0
 28100  1  0  0  0
 29101  1  0  0  0
 29102  1  0  0  0
 33 34  1  0  0  0
 33 66  1  0  0  0
 33 70  2  0  0  0
 34 36  1  0  0  0
 34 59  1  0  0  0
 34103  1  0  0  0
 35 44  2  0  0  0
 35 45  1  0  0  0
 35 68  1  0  0  0
 36 56  1  0  0  0
 36104  1  0  0  0
 37 39  1  0  0  0
 37 47  1  0  0  0
 37 66  1  0  0  0
 37105  1  0  0  0
 38 43  2  0  0  0
 38 46  1  0  0  0
 38 47  1  0  0  0
 39 64  1  0  0  0
 39 67  2  0  0  0
 40 52  1  0  0  0
 40 53  2  0  0  0
 40 58  1  0  0  0
 41106  1  0  0  0
 41107  1  0  0  0
 41108  1  0  0  0
 41 48  1  0  0  0
 42 43  1  0  0  0
 42 66  1  0  0  0
 42109  1  0  0  0
 42110  1  0  0  0
 43 44  1  0  0  0
 44111  1  0  0  0
 45 46  2  0  0  0
 45112  1  0  0  0
 46113  1  0  0  0
 47114  1  0  0  0
 47115  1  0  0  0
 48 56  1  0  0  0
 48 65  1  0  0  0
 48116  1  0  0  0
 49 50  1  0  0  0
 49 53  1  0  0  0
 49 64  1  0  0  0
 49117  1  0  0  0
 50 51  1  0  0  0
 50118  1  0  0  0
 50119  1  0  0  0
 51 52  1  0  0  0
 51120  1  0  0  0
 51121  1  0  0  0
 52122  1  0  0  0
 52123  1  0  0  0
 53 54  1  0  0  0
 54 55  2  0  0  0
 54124  1  0  0  0
 55 57  1  0  0  0
 55125  1  0  0  0
 56 69  2  0  0  0
 57 58  2  0  0  0
 57126  1  0  0  0
 58127  1  0  0  0
 59 60  1  0  0  0
 59 61  1  0  0  0
 59 62  1  0  0  0
 60128  1  0  0  0
 60129  1  0  0  0
 60130  1  0  0  0
 61131  1  0  0  0
 61132  1  0  0  0
 61133  1  0  0  0
 62134  1  0  0  0
 62135  1  0  0  0
 62136  1  0  0  0
 63 65  1  0  0  0
 63137  1  0  0  0
 63138  1  0  0  0
 63139  1  0  0  0
 64140  1  0  0  0
 65141  1  0  0  0
 68 79  1  0  0  0
 71 72  1  0  0  0
 71 73  2  0  0  0
 71142  1  0  0  0
 72 75  1  0  0  0
 72 80  2  0  0  0
 73 76  1  0  0  0
 73 81  1  0  0  0
 74 81  1  0  0  0
 74143  1  0  0  0
 74144  1  0  0  0
 74145  1  0  0  0
 75 79  1  0  0  0
 75146  1  0  0  0
 75147  1  0  0  0
 76 77  1  0  0  0
 76148  1  0  0  0
 76149  1  0  0  0
 77 78  1  0  0  0
 77150  1  0  0  0
 77151  1  0  0  0
 78 82  1  0  0  0
 78152  1  0  0  0
 78153  1  0  0  0
 79154  1  0  0  0
 79155  1  0  0  0
 80 81  1  0  0  0
 82156  1  0  0  0
M  ISO  4   1 100  68 101  79 101  82 100
M  END
> <chiral flag>
0

> <version>
0

> <s_m_source_file>
/data/baiqing/PycharmProjects/Reinvent-master-3.2/result/LINK_invent/BTK/process_docking_weight1_custom_sum_contain_oxygen_bond_distance_aromatic_linkinvent_7_9_3/rearranged_h_0045.sdf

> <i_m_source_file_index>
85

> <r_mmod_Potential_Energy-OPLS-2005>
-116.034851074219

> <r_mmod_Stretch_Energy-OPLS-2005>
39.2543983459473

> <r_mmod_Bend_Energy-OPLS-2005>
109.598686218262

> <r_mmod_Torsional_Energy-OPLS-2005>
195.522445678711

> <r_mmod_Improper_Torsional_Energy-OPLS-2005>
3.52295756340027

> <r_mmod_Van_der_Waal_Energy-OPLS-2005>
135.79167175293

> <r_mmod_Electrostatic_Energy-OPLS-2005>
-393.696838378906

> <r_mmod_Solvation_Energy-OPLS-2005>
-223.261932373047

> <b_mmod_Minimization_Converged-OPLS-2005>
0

> <r_mmod_RMS_Derivative-OPLS-2005>
1.81884241104126

$$$$
86
                    3D
 Structure written by MMmdl.
167175  0  0  1  0            999 V2000
  -29.4512  -15.5947   20.3365 C   0  0  0  0  0  0
  -30.2919  -13.1271   19.6105 C   0  0  0  0  0  0
  -29.5124  -12.6453   18.3504 C   0  0  0  0  0  0
  -28.0776  -12.2244   18.7249 C   0  0  0  0  0  0
  -27.4925  -13.1892   19.7805 C   0  0  2  0  0  0
  -28.3983  -13.3810   20.9789 C   0  0  0  0  0  0
  -25.1863  -13.7638   20.5493 C   0  0  0  0  0  0
  -24.1288  -13.0050   20.9254 C   0  0  0  0  0  0
  -24.5889  -11.6549   20.8780 C   0  0  0  0  0  0
  -23.8686  -10.4047   21.0519 C   0  0  0  0  0  0
  -24.3365   -9.4055   21.9276 C   0  0  0  0  0  0
  -23.6120   -8.2075   22.0783 C   0  0  0  0  0  0
  -22.4116   -8.0102   21.3554 C   0  0  0  0  0  0
  -21.9694   -9.0039   20.4672 C   0  0  0  0  0  0
  -22.6932  -10.1927   20.3129 C   0  0  0  0  0  0
  -21.6790   -6.0620   22.5292 C   0  0  0  0  0  0
  -21.3947   -6.5574   23.8206 C   0  0  0  0  0  0
  -21.3657   -5.6770   24.9202 C   0  0  0  0  0  0
  -21.6049   -4.3029   24.7275 C   0  0  0  0  0  0
  -21.8821   -3.8074   23.4412 C   0  0  0  0  0  0
  -21.9162   -4.6859   22.3442 C   0  0  0  0  0  0
  -22.7466  -13.5073   21.1987 C   0  0  0  0  0  0
  -22.1657   -4.2071   21.1019 F   0  0  0  0  0  0
  -21.5658   -3.4514   25.7788 F   0  0  0  0  0  0
  -29.4480  -14.1511   20.3893 N   0  0  0  0  0  0
  -26.1918  -12.8729   20.2589 N   0  0  0  0  0  0
  -25.8680  -11.5972   20.5425 N   0  0  0  0  0  0
  -22.0039  -12.8213   22.0568 N   0  0  0  0  0  0
  -25.3658  -15.1238   20.3880 N   0  0  0  0  0  0
  -30.6738  -15.8187   20.0784 O   0  0  0  0  0  0
  -21.6523   -6.8704   21.4238 O   0  0  0  0  0  0
  -22.3340  -14.5475   20.6847 O   0  0  0  0  0  0
  -24.6877  -31.9624   23.2017 C   0  0  0  0  0  0
  -25.9711  -32.5164   23.8611 C   0  0  1  0  0  0
  -26.0542  -27.1336   20.6551 C   0  0  0  0  0  0
  -25.6534  -33.8885   24.2618 N   0  0  0  0  0  0
  -23.4928  -30.7072   21.4856 C   0  0  2  0  0  0
  -24.8398  -29.2529   19.8583 C   0  0  0  0  0  0
  -22.9749  -29.6700   22.4856 C   0  0  0  0  0  0
  -18.9909  -27.5163   21.6177 C   0  0  0  0  0  0
  -24.1527  -36.7359   23.2590 C   0  0  0  0  0  0
  -26.0154  -30.8384   21.3888 C   0  0  0  0  0  0
  -25.9205  -29.4832   20.7130 C   0  0  0  0  0  0
  -26.6975  -28.3598   21.0379 C   0  0  0  0  0  0
  -25.7449  -27.0674   19.3144 C   0  0  0  0  0  0
  -24.8304  -28.0932   19.0380 C   0  0  0  0  0  0
  -23.6720  -30.1919   20.0142 C   0  0  0  0  0  0
  -25.4143  -36.3239   24.0337 C   0  0  1  0  0  0
  -20.9586  -28.6275   23.3741 C   0  0  2  0  0  0
  -21.8012  -27.2016   24.0028 C   0  0  0  0  0  0
  -21.7634  -25.5044   23.5776 C   0  0  0  0  0  0
  -20.6670  -24.8546   22.4973 C   0  0  0  0  0  0
  -19.5523  -28.7353   22.5456 C   0  0  0  0  0  0
  -18.9565  -29.8939   23.2099 C   0  0  0  0  0  0
  -17.6034  -30.0601   23.4068 C   0  0  0  0  0  0
  -25.9173  -34.9654   23.5149 C   0  0  0  0  0  0
  -16.8919  -29.0187   22.8051 C   0  0  0  0  0  0
  -17.5247  -27.9217   22.0088 C   0  0  0  0  0  0
  -26.4623  -31.6679   25.0917 C   0  0  0  0  0  0
  -25.3653  -31.3869   26.1442 C   0  0  0  0  0  0
  -27.0319  -30.3083   24.6279 C   0  0  0  0  0  0
  -27.6175  -32.4214   25.7880 C   0  0  0  0  0  0
  -27.5618  -37.1919   24.8467 C   0  0  0  0  0  0
  -21.6853  -29.4819   22.4929 N   0  0  0  0  0  0
  -26.4300  -37.3950   23.9450 N   0  0  0  0  0  0
  -24.7547  -31.2332   22.0536 N   0  0  0  0  0  0
  -23.7354  -29.0719   23.2390 O   0  0  0  0  0  0
  -24.8469  -26.7072   21.3839 O   0  0  0  0  0  0
  -26.5463  -34.9046   22.4550 O   0  0  0  0  0  0
  -23.6019  -32.2302   23.7424 O   0  0  0  0  0  0
  -19.5678  -26.4384   23.3819 C   0  0  0  0  0  0
  -21.1526  -26.8091   21.6609 C   0  0  0  0  0  0
  -18.7132  -24.8425   21.1635 C   0  0  0  0  0  0
  -20.0936  -24.7444   20.2317 C   0  0  0  0  0  0
  -15.2687  -24.0544   21.7861 C   0  0  0  0  0  0
  -17.5127  -24.1261   20.5610 C   0  0  0  0  0  0
  -21.2276  -23.1831   19.9126 C   0  0  0  0  0  0
  -23.0466  -27.0518   21.2048 C   0  0  0  0  0  0
  -28.1467  -17.0303   20.6736 C   0  0  0  0  0  0
  -16.6089  -23.3445   21.5365 C   0  0  0  0  0  0
  -26.4972  -18.1344   20.1684 C   0  0  0  0  0  0
  -22.9242  -22.1972   20.4577 C   0  0  0  0  0  0
  -25.4289  -19.8278   20.5374 C   0  0  0  0  0  0
  -18.4475  -25.4510   22.6501 N   0  0  0  0  0  0
  -20.8726  -26.0132   20.3770 N   0  0  0  0  0  0
  -23.8565  -20.6629   20.0907 N   0  3  0  0  0  0
  -31.2463  -13.5615   19.3100 H   0  0  0  0  0  0
  -30.5538  -12.2750   20.2419 H   0  0  0  0  0  0
  -30.0336  -11.8267   17.8546 H   0  0  0  0  0  0
  -29.4733  -13.4634   17.6312 H   0  0  0  0  0  0
  -28.1234  -11.2177   19.1450 H   0  0  0  0  0  0
  -27.4431  -12.1653   17.8385 H   0  0  0  0  0  0
  -27.3745  -14.1316   19.2412 H   0  0  0  0  0  0
  -28.7120  -12.4374   21.4224 H   0  0  0  0  0  0
  -27.9050  -13.9612   21.7604 H   0  0  0  0  0  0
  -25.2478   -9.5614   22.4867 H   0  0  0  0  0  0
  -23.9846   -7.4474   22.7479 H   0  0  0  0  0  0
  -21.0647   -8.8502   19.8981 H   0  0  0  0  0  0
  -22.3366  -10.9479   19.6275 H   0  0  0  0  0  0
  -21.1892   -7.6075   23.9708 H   0  0  0  0  0  0
  -21.1506   -6.0487   25.9112 H   0  0  0  0  0  0
  -22.0597   -2.7534   23.2930 H   0  0  0  0  0  0
  -22.3496  -11.9841   22.5012 H   0  0  0  0  0  0
  -21.0724  -13.1480   22.2769 H   0  0  0  0  0  0
  -24.5906  -15.7690   20.4794 H   0  0  0  0  0  0
  -26.1965  -15.5478   20.0024 H   0  0  0  0  0  0
  -26.7867  -32.5699   23.1438 H   0  0  0  0  0  0
  -25.1050  -34.0056   25.1008 H   0  0  0  0  0  0
  -22.7718  -31.5250   21.4432 H   0  0  0  0  0  0
  -23.3850  -35.9637   23.3232 H   0  0  0  0  0  0
  -24.3637  -36.8987   22.2010 H   0  0  0  0  0  0
  -23.7195  -37.6530   23.6584 H   0  0  0  0  0  0
  -26.2581  -31.5810   20.6290 H   0  0  0  0  0  0
  -26.8789  -30.7965   22.0404 H   0  0  0  0  0  0
  -27.3198  -28.4121   21.9213 H   0  0  0  0  0  0
  -25.4965  -26.1263   18.8452 H   0  0  0  0  0  0
  -24.0673  -27.9460   18.2862 H   0  0  0  0  0  0
  -23.8916  -31.0562   19.3872 H   0  0  0  0  0  0
  -22.7513  -29.7825   19.6000 H   0  0  0  0  0  0
  -25.1292  -36.2103   25.0829 H   0  0  0  0  0  0
  -20.8940  -29.1989   24.3032 H   0  0  0  0  0  0
  -21.4251  -27.1789   25.0280 H   0  0  0  0  0  0
  -22.8253  -27.3689   24.2991 H   0  0  0  0  0  0
  -21.6464  -24.9509   24.5134 H   0  0  0  0  0  0
  -22.7739  -25.2257   23.2721 H   0  0  0  0  0  0
  -21.4737  -24.3368   21.9732 H   0  0  0  0  0  0
  -20.1934  -24.0054   23.0192 H   0  0  0  0  0  0
  -19.5765  -30.6324   23.7046 H   0  0  0  0  0  0
  -17.1605  -30.8729   23.9628 H   0  0  0  0  0  0
  -15.8170  -29.0062   22.9139 H   0  0  0  0  0  0
  -16.7967  -27.1873   21.6960 H   0  0  0  0  0  0
  -24.5770  -30.7403   25.7571 H   0  0  0  0  0  0
  -24.8943  -32.3079   26.4899 H   0  0  0  0  0  0
  -25.7752  -30.8879   27.0230 H   0  0  0  0  0  0
  -26.2860  -29.7048   24.1095 H   0  0  0  0  0  0
  -27.3780  -29.7153   25.4755 H   0  0  0  0  0  0
  -27.8902  -30.4351   23.9673 H   0  0  0  0  0  0
  -27.2819  -33.3486   26.2545 H   0  0  0  0  0  0
  -28.4083  -32.6794   25.0822 H   0  0  0  0  0  0
  -28.0686  -31.8193   26.5778 H   0  0  0  0  0  0
  -28.2591  -38.0269   24.7620 H   0  0  0  0  0  0
  -28.1168  -36.2814   24.6156 H   0  0  0  0  0  0
  -27.2358  -37.1408   25.8872 H   0  0  0  0  0  0
  -21.1282  -30.0281   21.8520 H   0  0  0  0  0  0
  -26.0173  -38.3016   24.1511 H   0  0  0  0  0  0
  -19.4831  -26.6906   24.4294 H   0  0  0  0  0  0
  -14.6441  -23.4897   22.4779 H   0  0  0  0  0  0
  -14.7003  -24.1658   20.8616 H   0  0  0  0  0  0
  -15.4212  -25.0490   22.2061 H   0  0  0  0  0  0
  -17.9014  -23.4288   19.8170 H   0  0  0  0  0  0
  -16.9399  -24.8575   19.9900 H   0  0  0  0  0  0
  -21.3879  -23.2947   18.8390 H   0  0  0  0  0  0
  -20.4770  -22.3949   19.9766 H   0  0  0  0  0  0
  -22.9164  -27.9338   20.6270 H   0  0  0  0  0  0
  -23.0818  -26.3331   20.3903 H   0  0  0  0  0  0
  -28.0151  -16.8973   21.7493 H   0  0  0  0  0  0
  -28.8761  -17.8375   20.6171 H   0  0  0  0  0  0
  -16.3902  -22.3714   21.0929 H   0  0  0  0  0  0
  -17.1167  -23.1336   22.4802 H   0  0  0  0  0  0
  -25.7123  -17.4691   20.4953 H   0  0  0  0  0  0
  -26.4921  -18.0624   19.0809 H   0  0  0  0  0  0
  -22.8525  -22.1516   21.5475 H   0  0  0  0  0  0
  -23.6982  -22.9462   20.2905 H   0  0  0  0  0  0
  -26.1569  -20.6182   20.3535 H   0  0  0  0  0  0
  -25.3381  -19.8124   21.6243 H   0  0  0  0  0  0
  -23.8712  -20.6409   19.0844 H   0  0  0  0  0  0
  -23.1777  -19.9636   20.3459 H   0  0  0  0  0  0
  1 25  1  0  0  0
  1 30  2  0  0  0
  1 79  1  0  0  0
  2  3  1  0  0  0
  2 25  1  0  0  0
  2 87  1  0  0  0
  2 88  1  0  0  0
  3  4  1  0  0  0
  3 89  1  0  0  0
  3 90  1  0  0  0
  4  5  1  0  0  0
  4 91  1  0  0  0
  4 92  1  0  0  0
  5  6  1  0  0  0
  5 26  1  0  0  0
  5 93  1  0  0  0
  6 25  1  0  0  0
  6 94  1  0  0  0
  6 95  1  0  0  0
  7  8  2  0  0  0
  7 26  1  0  0  0
  7 29  1  0  0  0
  8  9  1  0  0  0
  8 22  1  0  0  0
  9 10  1  0  0  0
  9 27  2  0  0  0
 10 11  2  0  0  0
 10 15  1  0  0  0
 11 12  1  0  0  0
 11 96  1  0  0  0
 12 13  2  0  0  0
 12 97  1  0  0  0
 13 14  1  0  0  0
 13 31  1  0  0  0
 14 15  2  0  0  0
 14 98  1  0  0  0
 15 99  1  0  0  0
 16 17  2  0  0  0
 16 21  1  0  0  0
 16 31  1  0  0  0
 17 18  1  0  0  0
 17100  1  0  0  0
 18 19  2  0  0  0
 18101  1  0  0  0
 19 20  1  0  0  0
 19 24  1  0  0  0
 20 21  2  0  0  0
 20102  1  0  0  0
 21 23  1  0  0  0
 22 28  1  0  0  0
 22 32  2  0  0  0
 26 27  1  0  0  0
 28103  1  0  0  0
 28104  1  0  0  0
 29105  1  0  0  0
 29106  1  0  0  0
 33 34  1  0  0  0
 33 66  1  0  0  0
 33 70  2  0  0  0
 34 36  1  0  0  0
 34 59  1  0  0  0
 34107  1  0  0  0
 35 44  2  0  0  0
 35 45  1  0  0  0
 35 68  1  0  0  0
 36 56  1  0  0  0
 36108  1  0  0  0
 37 39  1  0  0  0
 37 47  1  0  0  0
 37 66  1  0  0  0
 37109  1  0  0  0
 38 43  2  0  0  0
 38 46  1  0  0  0
 38 47  1  0  0  0
 39 64  1  0  0  0
 39 67  2  0  0  0
 40 52  1  0  0  0
 40 53  2  0  0  0
 40 58  1  0  0  0
 41110  1  0  0  0
 41111  1  0  0  0
 41112  1  0  0  0
 41 48  1  0  0  0
 42 43  1  0  0  0
 42 66  1  0  0  0
 42113  1  0  0  0
 42114  1  0  0  0
 43 44  1  0  0  0
 44115  1  0  0  0
 45 46  2  0  0  0
 45116  1  0  0  0
 46117  1  0  0  0
 47118  1  0  0  0
 47119  1  0  0  0
 48 56  1  0  0  0
 48 65  1  0  0  0
 48120  1  0  0  0
 49 50  1  0  0  0
 49 53  1  0  0  0
 49 64  1  0  0  0
 49121  1  0  0  0
 50 51  1  0  0  0
 50122  1  0  0  0
 50123  1  0  0  0
 51 52  1  0  0  0
 51124  1  0  0  0
 51125  1  0  0  0
 52126  1  0  0  0
 52127  1  0  0  0
 53 54  1  0  0  0
 54 55  2  0  0  0
 54128  1  0  0  0
 55 57  1  0  0  0
 55129  1  0  0  0
 56 69  2  0  0  0
 57 58  2  0  0  0
 57130  1  0  0  0
 58131  1  0  0  0
 59 60  1  0  0  0
 59 61  1  0  0  0
 59 62  1  0  0  0
 60132  1  0  0  0
 60133  1  0  0  0
 60134  1  0  0  0
 61135  1  0  0  0
 61136  1  0  0  0
 61137  1  0  0  0
 62138  1  0  0  0
 62139  1  0  0  0
 62140  1  0  0  0
 63 65  1  0  0  0
 63141  1  0  0  0
 63142  1  0  0  0
 63143  1  0  0  0
 64144  1  0  0  0
 65145  1  0  0  0
 68 78  1  0  0  0
 71 72  2  0  0  0
 71 84  1  0  0  0
 71146  1  0  0  0
 72 78  1  0  0  0
 72 85  1  0  0  0
 73 74  1  0  0  0
 73 76  1  0  0  0
 73 84  2  0  0  0
 74 77  1  0  0  0
 74 85  2  0  0  0
 75 80  1  0  0  0
 75147  1  0  0  0
 75148  1  0  0  0
 75149  1  0  0  0
 76 80  1  0  0  0
 76150  1  0  0  0
 76151  1  0  0  0
 77 82  1  0  0  0
 77152  1  0  0  0
 77153  1  0  0  0
 78154  1  0  0  0
 78155  1  0  0  0
 79 81  1  0  0  0
 79156  1  0  0  0
 79157  1  0  0  0
 80158  1  0  0  0
 80159  1  0  0  0
 81 83  1  0  0  0
 81160  1  0  0  0
 81161  1  0  0  0
 82 86  1  0  0  0
 82162  1  0  0  0
 82163  1  0  0  0
 83 86  1  0  0  0
 83164  1  0  0  0
 83165  1  0  0  0
 86166  1  0  0  0
 86167  1  0  0  0
M  CHG  1  86   1
M  ISO  4   1 100  68 101  78 101  79 100
M  END
> <chiral flag>
0

> <version>
0

> <s_m_source_file>
/data/baiqing/PycharmProjects/Reinvent-master-3.2/result/LINK_invent/BTK/process_docking_weight1_custom_sum_contain_oxygen_bond_distance_aromatic_linkinvent_7_9_3/rearranged_h_0045.sdf

> <i_m_source_file_index>
86

> <r_mmod_Potential_Energy-OPLS-2005>
20375.525390625

> <r_mmod_Stretch_Energy-OPLS-2005>
9360.3115234375

> <r_mmod_Bend_Energy-OPLS-2005>
1803.63659667969

> <r_mmod_Torsional_Energy-OPLS-2005>
708.668823242188

> <r_mmod_Improper_Torsional_Energy-OPLS-2005>
80.4707412719727

> <r_mmod_Van_der_Waal_Energy-OPLS-2005>
3112.76342773438

> <r_mmod_Electrostatic_Energy-OPLS-2005>
-189.010070800781

> <r_mmod_Solvation_Energy-OPLS-2005>
-477.836700439453

> <b_mmod_Minimization_Converged-OPLS-2005>
0

> <r_mmod_RMS_Derivative-OPLS-2005>
9.73885250091553

$$$$
87
                    3D
 Structure written by MMmdl.
152160  0  0  1  0            999 V2000
  -30.5213  -15.1415   20.3796 C   0  0  0  0  0  0
  -30.4273  -12.7182   19.5327 C   0  0  0  0  0  0
  -29.5305  -12.5545   18.2831 C   0  0  0  0  0  0
  -28.0708  -12.3080   18.6996 C   0  0  0  0  0  0
  -27.6112  -13.2768   19.8188 C   0  0  2  0  0  0
  -28.6424  -13.4294   20.9542 C   0  0  0  0  0  0
  -25.2391  -13.8263   20.5748 C   0  0  0  0  0  0
  -24.1739  -13.0448   20.9238 C   0  0  0  0  0  0
  -24.6397  -11.6946   20.8748 C   0  0  0  0  0  0
  -23.9096  -10.4305   21.0398 C   0  0  0  0  0  0
  -24.3643   -9.4219   21.9178 C   0  0  0  0  0  0
  -23.6311   -8.2257   22.0752 C   0  0  0  0  0  0
  -22.4290   -8.0294   21.3545 C   0  0  0  0  0  0
  -21.9929   -9.0268   20.4646 C   0  0  0  0  0  0
  -22.7264  -10.2144   20.3052 C   0  0  0  0  0  0
  -21.6858   -6.0746   22.5278 C   0  0  0  0  0  0
  -21.4017   -6.5646   23.8213 C   0  0  0  0  0  0
  -21.3660   -5.6797   24.9173 C   0  0  0  0  0  0
  -21.6043   -4.3060   24.7220 C   0  0  0  0  0  0
  -21.8818   -3.8153   23.4340 C   0  0  0  0  0  0
  -21.9194   -4.6974   22.3398 C   0  0  0  0  0  0
  -22.7758  -13.5196   21.1900 C   0  0  0  0  0  0
  -22.1660   -4.2158   21.0976 F   0  0  0  0  0  0
  -21.5627   -3.4542   25.7732 F   0  0  0  0  0  0
  -29.9015  -13.8722   20.3424 N   0  0  0  0  0  0
  -26.2812  -12.9545   20.3196 N   0  0  0  0  0  0
  -25.9331  -11.6646   20.5701 N   0  0  0  0  0  0
  -22.0428  -12.8171   22.0457 N   0  0  0  0  0  0
  -25.4051  -15.2001   20.4244 N   0  0  0  0  0  0
  -31.7392  -15.0804   20.1738 O   0  0  0  0  0  0
  -21.6650   -6.8893   21.4242 O   0  0  0  0  0  0
  -22.3432  -14.5501   20.6755 O   0  0  0  0  0  0
  -24.6595  -31.8350   23.1772 C   0  0  0  0  0  0
  -25.9310  -32.4641   23.8214 C   0  0  1  0  0  0
  -27.2093  -27.0031   20.1700 C   0  0  0  0  0  0
  -25.6007  -33.8446   24.2129 N   0  0  0  0  0  0
  -23.4695  -30.4557   21.5256 C   0  0  2  0  0  0
  -24.9154  -28.8506   20.1142 C   0  0  0  0  0  0
  -22.7647  -29.4662   22.4867 C   0  0  0  0  0  0
  -18.0127  -28.1523   22.8242 C   0  0  0  0  0  0
  -24.1499  -36.7225   23.2641 C   0  0  0  0  0  0
  -26.0338  -30.6648   21.3939 C   0  0  0  0  0  0
  -26.1000  -29.2618   20.7382 C   0  0  0  0  0  0
  -27.2458  -28.3579   20.7417 C   0  0  0  0  0  0
  -25.9960  -26.7271   19.5023 C   0  0  0  0  0  0
  -24.8846  -27.6018   19.4769 C   0  0  0  0  0  0
  -23.6999  -29.7705   20.1518 C   0  0  0  0  0  0
  -25.4136  -36.2991   24.0301 C   0  0  1  0  0  0
  -20.6009  -28.3798   23.0995 C   0  0  2  0  0  0
  -20.7779  -26.9753   22.4580 C   0  0  0  0  0  0
  -19.5490  -26.4220   21.7062 C   0  0  0  0  0  0
  -18.1083  -26.8602   22.0250 C   0  0  0  0  0  0
  -19.1537  -28.8771   23.2720 C   0  0  0  0  0  0
  -18.9524  -30.1293   23.8966 C   0  0  0  0  0  0
  -17.6583  -30.6537   24.0760 C   0  0  0  0  0  0
  -25.9101  -34.9376   23.5024 C   0  0  0  0  0  0
  -16.5385  -29.9187   23.6544 C   0  0  0  0  0  0
  -16.7186  -28.6701   23.0379 C   0  0  0  0  0  0
  -26.4564  -31.6540   25.0705 C   0  0  0  0  0  0
  -25.3701  -31.3768   26.1364 C   0  0  0  0  0  0
  -27.0438  -30.2915   24.6372 C   0  0  0  0  0  0
  -27.6065  -32.4323   25.7516 C   0  0  0  0  0  0
  -27.5575  -37.1774   24.8466 C   0  0  0  0  0  0
  -21.4295  -29.3466   22.3757 N   0  0  0  0  0  0
  -26.4285  -37.3720   23.9406 N   0  0  0  0  0  0
  -24.7426  -31.0103   22.0859 N   0  0  0  0  0  0
  -23.4225  -28.8050   23.2945 O   0  0  0  0  0  0
  -28.2263  -25.9378   20.2275 O   0  0  0  0  0  0
  -26.5686  -34.8896   22.4605 O   0  0  0  0  0  0
  -23.5684  -32.1289   23.6920 O   0  0  0  0  0  0
  -29.0849  -17.3492   19.4721 C   0  0  0  0  0  0
  -29.8939  -16.6763   20.4608 C   0  0  0  0  0  0
  -30.2837  -17.7488   21.3649 C   0  0  0  0  0  0
  -29.1247  -19.6610   20.3294 C   0  0  0  0  0  0
  -30.3794  -17.2581   23.8458 C   0  0  0  0  0  0
  -31.1833  -17.4466   22.5535 C   0  0  0  0  0  0
  -28.3941  -21.2165   20.4055 C   0  0  0  0  0  0
  -28.9049  -22.8880   20.2407 C   0  0  0  0  0  0
  -27.9172  -24.3493   20.2035 C   0  0  0  0  0  0
  -28.7268  -18.7197   19.4222 N   0  0  0  0  0  0
  -29.8899  -19.1121   21.3142 N   0  0  0  0  0  0
  -31.4597  -12.8705   19.2158 H   0  0  0  0  0  0
  -30.4384  -11.8026   20.1266 H   0  0  0  0  0  0
  -29.8902  -11.7329   17.6623 H   0  0  0  0  0  0
  -29.5922  -13.4548   17.6699 H   0  0  0  0  0  0
  -28.0009  -11.2791   19.0537 H   0  0  0  0  0  0
  -27.4091  -12.3798   17.8358 H   0  0  0  0  0  0
  -27.5361  -14.2511   19.3350 H   0  0  0  0  0  0
  -28.7694  -12.4966   21.5054 H   0  0  0  0  0  0
  -28.3046  -14.1750   21.6756 H   0  0  0  0  0  0
  -25.2788   -9.5693   22.4758 H   0  0  0  0  0  0
  -24.0017   -7.4646   22.7474 H   0  0  0  0  0  0
  -21.0858   -8.8796   19.8952 H   0  0  0  0  0  0
  -22.3722  -10.9688   19.6167 H   0  0  0  0  0  0
  -21.2012   -7.6154   23.9718 H   0  0  0  0  0  0
  -21.1479   -6.0525   25.9076 H   0  0  0  0  0  0
  -22.0595   -2.7615   23.2834 H   0  0  0  0  0  0
  -22.4068  -11.9830   22.4822 H   0  0  0  0  0  0
  -21.1052  -13.1185   22.2696 H   0  0  0  0  0  0
  -24.6421  -15.8547   20.5584 H   0  0  0  0  0  0
  -26.2641  -15.6474   20.1341 H   0  0  0  0  0  0
  -26.7375  -32.5199   23.0930 H   0  0  0  0  0  0
  -25.0128  -33.9532   25.0262 H   0  0  0  0  0  0
  -22.7821  -31.2875   21.3582 H   0  0  0  0  0  0
  -23.3767  -35.9549   23.3281 H   0  0  0  0  0  0
  -24.3579  -36.8890   22.2060 H   0  0  0  0  0  0
  -23.7250  -37.6408   23.6706 H   0  0  0  0  0  0
  -26.2052  -31.4099   20.6160 H   0  0  0  0  0  0
  -26.8978  -30.7189   22.0441 H   0  0  0  0  0  0
  -28.1462  -28.6695   21.2517 H   0  0  0  0  0  0
  -25.8672  -25.7770   19.0075 H   0  0  0  0  0  0
  -23.9834  -27.2830   18.9717 H   0  0  0  0  0  0
  -23.8469  -30.5375   19.3906 H   0  0  0  0  0  0
  -22.8096  -29.2205   19.8419 H   0  0  0  0  0  0
  -25.1331  -36.1796   25.0791 H   0  0  0  0  0  0
  -20.9943  -28.3181   24.1171 H   0  0  0  0  0  0
  -21.1651  -26.2975   23.2303 H   0  0  0  0  0  0
  -21.6128  -26.9849   21.7542 H   0  0  0  0  0  0
  -19.3914  -26.0231   22.7075 H   0  0  0  0  0  0
  -19.6099  -27.3493   21.1322 H   0  0  0  0  0  0
  -17.5776  -27.0233   21.0836 H   0  0  0  0  0  0
  -17.5042  -26.0888   22.5194 H   0  0  0  0  0  0
  -19.8044  -30.7017   24.2379 H   0  0  0  0  0  0
  -17.5258  -31.6171   24.5495 H   0  0  0  0  0  0
  -15.5426  -30.3153   23.7978 H   0  0  0  0  0  0
  -15.8515  -28.1216   22.6945 H   0  0  0  0  0  0
  -24.5898  -30.7104   25.7669 H   0  0  0  0  0  0
  -24.8870  -32.2958   26.4691 H   0  0  0  0  0  0
  -25.7942  -30.9000   27.0210 H   0  0  0  0  0  0
  -26.3081  -29.6617   24.1353 H   0  0  0  0  0  0
  -27.3972  -29.7248   25.4997 H   0  0  0  0  0  0
  -27.9027  -30.4112   23.9764 H   0  0  0  0  0  0
  -27.2640  -33.3658   26.1999 H   0  0  0  0  0  0
  -28.3936  -32.6829   25.0390 H   0  0  0  0  0  0
  -28.0662  -31.8506   26.5516 H   0  0  0  0  0  0
  -28.2574  -38.0086   24.7509 H   0  0  0  0  0  0
  -28.1087  -36.2612   24.6298 H   0  0  0  0  0  0
  -27.2288  -37.1423   25.8867 H   0  0  0  0  0  0
  -20.9527  -29.9353   21.7067 H   0  0  0  0  0  0
  -26.0137  -38.2781   24.1413 H   0  0  0  0  0  0
  -28.7222  -16.7690   18.6364 H   0  0  0  0  0  0
  -31.0393  -17.0500   24.6874 H   0  0  0  0  0  0
  -29.6794  -16.4280   23.7530 H   0  0  0  0  0  0
  -29.8071  -18.1556   24.0833 H   0  0  0  0  0  0
  -31.8895  -18.2684   22.6791 H   0  0  0  0  0  0
  -31.7959  -16.5661   22.3690 H   0  0  0  0  0  0
  -27.8735  -21.1880   21.3623 H   0  0  0  0  0  0
  -27.5867  -21.1269   19.6791 H   0  0  0  0  0  0
  -29.4993  -22.9192   19.3277 H   0  0  0  0  0  0
  -29.6304  -23.0414   21.0390 H   0  0  0  0  0  0
  -27.3075  -24.2071   19.3127 H   0  0  0  0  0  0
  -27.2158  -24.2242   21.0291 H   0  0  0  0  0  0
  1 25  1  0  0  0
  1 30  2  0  0  0
  1 72  1  0  0  0
  2  3  1  0  0  0
  2 25  1  0  0  0
  2 82  1  0  0  0
  2 83  1  0  0  0
  3  4  1  0  0  0
  3 84  1  0  0  0
  3 85  1  0  0  0
  4  5  1  0  0  0
  4 86  1  0  0  0
  4 87  1  0  0  0
  5  6  1  0  0  0
  5 26  1  0  0  0
  5 88  1  0  0  0
  6 25  1  0  0  0
  6 89  1  0  0  0
  6 90  1  0  0  0
  7  8  2  0  0  0
  7 26  1  0  0  0
  7 29  1  0  0  0
  8  9  1  0  0  0
  8 22  1  0  0  0
  9 10  1  0  0  0
  9 27  2  0  0  0
 10 11  2  0  0  0
 10 15  1  0  0  0
 11 12  1  0  0  0
 11 91  1  0  0  0
 12 13  2  0  0  0
 12 92  1  0  0  0
 13 14  1  0  0  0
 13 31  1  0  0  0
 14 15  2  0  0  0
 14 93  1  0  0  0
 15 94  1  0  0  0
 16 17  2  0  0  0
 16 21  1  0  0  0
 16 31  1  0  0  0
 17 18  1  0  0  0
 17 95  1  0  0  0
 18 19  2  0  0  0
 18 96  1  0  0  0
 19 20  1  0  0  0
 19 24  1  0  0  0
 20 21  2  0  0  0
 20 97  1  0  0  0
 21 23  1  0  0  0
 22 28  1  0  0  0
 22 32  2  0  0  0
 26 27  1  0  0  0
 28 98  1  0  0  0
 28 99  1  0  0  0
 29100  1  0  0  0
 29101  1  0  0  0
 33 34  1  0  0  0
 33 66  1  0  0  0
 33 70  2  0  0  0
 34 36  1  0  0  0
 34 59  1  0  0  0
 34102  1  0  0  0
 35 44  2  0  0  0
 35 45  1  0  0  0
 35 68  1  0  0  0
 36 56  1  0  0  0
 36103  1  0  0  0
 37 39  1  0  0  0
 37 47  1  0  0  0
 37 66  1  0  0  0
 37104  1  0  0  0
 38 43  2  0  0  0
 38 46  1  0  0  0
 38 47  1  0  0  0
 39 64  1  0  0  0
 39 67  2  0  0  0
 40 52  1  0  0  0
 40 53  2  0  0  0
 40 58  1  0  0  0
 41105  1  0  0  0
 41106  1  0  0  0
 41107  1  0  0  0
 41 48  1  0  0  0
 42 43  1  0  0  0
 42 66  1  0  0  0
 42108  1  0  0  0
 42109  1  0  0  0
 43 44  1  0  0  0
 44110  1  0  0  0
 45 46  2  0  0  0
 45111  1  0  0  0
 46112  1  0  0  0
 47113  1  0  0  0
 47114  1  0  0  0
 48 56  1  0  0  0
 48 65  1  0  0  0
 48115  1  0  0  0
 49 50  1  0  0  0
 49 53  1  0  0  0
 49 64  1  0  0  0
 49116  1  0  0  0
 50 51  1  0  0  0
 50117  1  0  0  0
 50118  1  0  0  0
 51 52  1  0  0  0
 51119  1  0  0  0
 51120  1  0  0  0
 52121  1  0  0  0
 52122  1  0  0  0
 53 54  1  0  0  0
 54 55  2  0  0  0
 54123  1  0  0  0
 55 57  1  0  0  0
 55124  1  0  0  0
 56 69  2  0  0  0
 57 58  2  0  0  0
 57125  1  0  0  0
 58126  1  0  0  0
 59 60  1  0  0  0
 59 61  1  0  0  0
 59 62  1  0  0  0
 60127  1  0  0  0
 60128  1  0  0  0
 60129  1  0  0  0
 61130  1  0  0  0
 61131  1  0  0  0
 61132  1  0  0  0
 62133  1  0  0  0
 62134  1  0  0  0
 62135  1  0  0  0
 63 65  1  0  0  0
 63136  1  0  0  0
 63137  1  0  0  0
 63138  1  0  0  0
 64139  1  0  0  0
 65140  1  0  0  0
 68 79  1  0  0  0
 71 72  2  0  0  0
 71 80  1  0  0  0
 71141  1  0  0  0
 72 73  1  0  0  0
 73 76  1  0  0  0
 73 81  2  0  0  0
 74 77  1  0  0  0
 74 80  2  0  0  0
 74 81  1  0  0  0
 75 76  1  0  0  0
 75142  1  0  0  0
 75143  1  0  0  0
 75144  1  0  0  0
 76145  1  0  0  0
 76146  1  0  0  0
 77 78  1  0  0  0
 77147  1  0  0  0
 77148  1  0  0  0
 78 79  1  0  0  0
 78149  1  0  0  0
 78150  1  0  0  0
 79151  1  0  0  0
 79152  1  0  0  0
M  ISO  4   1 100  68 101  72 100  79 101
M  END
> <chiral flag>
0

> <version>
0

> <s_m_source_file>
/data/baiqing/PycharmProjects/Reinvent-master-3.2/result/LINK_invent/BTK/process_docking_weight1_custom_sum_contain_oxygen_bond_distance_aromatic_linkinvent_7_9_3/rearranged_h_0045.sdf

> <i_m_source_file_index>
87

> <r_mmod_Potential_Energy-OPLS-2005>
837.739807128906

> <r_mmod_Stretch_Energy-OPLS-2005>
418.309906005859

> <r_mmod_Bend_Energy-OPLS-2005>
629.016967773438

> <r_mmod_Torsional_Energy-OPLS-2005>
209.060440063477

> <r_mmod_Improper_Torsional_Energy-OPLS-2005>
7.60052824020386

> <r_mmod_Van_der_Waal_Energy-OPLS-2005>
156.782623291016

> <r_mmod_Electrostatic_Energy-OPLS-2005>
-725.00341796875

> <r_mmod_Solvation_Energy-OPLS-2005>
-213.458358764648

> <b_mmod_Minimization_Converged-OPLS-2005>
0

> <r_mmod_RMS_Derivative-OPLS-2005>
0.755524933338165

$$$$
88
                    3D
 Structure written by MMmdl.
166175  0  0  1  0            999 V2000
  -30.7554  -14.3923   20.6562 C   0  0  0  0  0  0
  -30.4222  -12.2920   19.4082 C   0  0  0  0  0  0
  -29.4919  -12.5148   18.2019 C   0  0  0  0  0  0
  -28.0141  -12.3760   18.6176 C   0  0  0  0  0  0
  -27.6671  -13.2044   19.8829 C   0  0  2  0  0  0
  -28.7064  -12.9589   20.9988 C   0  0  0  0  0  0
  -25.2620  -13.8156   20.5694 C   0  0  0  0  0  0
  -24.1857  -13.0438   20.9156 C   0  0  0  0  0  0
  -24.6402  -11.6905   20.8726 C   0  0  0  0  0  0
  -23.9058  -10.4292   21.0391 C   0  0  0  0  0  0
  -24.3611   -9.4208   21.9171 C   0  0  0  0  0  0
  -23.6284   -8.2245   22.0753 C   0  0  0  0  0  0
  -22.4265   -8.0283   21.3541 C   0  0  0  0  0  0
  -21.9897   -9.0255   20.4642 C   0  0  0  0  0  0
  -22.7230  -10.2131   20.3045 C   0  0  0  0  0  0
  -21.6850   -6.0734   22.5265 C   0  0  0  0  0  0
  -21.4021   -6.5635   23.8204 C   0  0  0  0  0  0
  -21.3658   -5.6782   24.9167 C   0  0  0  0  0  0
  -21.6046   -4.3046   24.7209 C   0  0  0  0  0  0
  -21.8820   -3.8142   23.4331 C   0  0  0  0  0  0
  -21.9194   -4.6962   22.3394 C   0  0  0  0  0  0
  -22.7879  -13.5243   21.1813 C   0  0  0  0  0  0
  -22.1660   -4.2153   21.0964 F   0  0  0  0  0  0
  -21.5629   -3.4527   25.7723 F   0  0  0  0  0  0
  -30.0424  -13.2554   20.4522 N   0  0  0  0  0  0
  -26.3065  -12.9321   20.3407 N   0  0  0  0  0  0
  -25.9334  -11.6481   20.5782 N   0  0  0  0  0  0
  -22.0508  -12.8260   22.0376 N   0  0  0  0  0  0
  -25.4312  -15.1887   20.4104 N   0  0  0  0  0  0
  -31.8207  -14.6335   20.0812 O   0  0  0  0  0  0
  -21.6635   -6.8879   21.4232 O   0  0  0  0  0  0
  -22.3565  -14.5544   20.6645 O   0  0  0  0  0  0
  -24.6120  -31.8713   23.2093 C   0  0  0  0  0  0
  -25.9006  -32.4851   23.8372 C   0  0  1  0  0  0
  -27.2428  -27.4595   20.1007 C   0  0  0  0  0  0
  -25.5870  -33.8642   24.2323 N   0  0  0  0  0  0
  -23.3998  -30.4944   21.5505 C   0  0  2  0  0  0
  -24.8496  -28.9547   20.1227 C   0  0  0  0  0  0
  -22.7380  -29.4700   22.4993 C   0  0  0  0  0  0
  -18.0280  -28.1405   22.8481 C   0  0  0  0  0  0
  -24.1501  -36.7292   23.2654 C   0  0  0  0  0  0
  -25.9244  -30.8392   21.3615 C   0  0  0  0  0  0
  -26.0033  -29.4675   20.7291 C   0  0  0  0  0  0
  -27.2018  -28.7216   20.7333 C   0  0  0  0  0  0
  -26.0807  -26.9579   19.4856 C   0  0  0  0  0  0
  -24.8781  -27.6899   19.5068 C   0  0  0  0  0  0
  -23.6095  -29.8199   20.1677 C   0  0  0  0  0  0
  -25.4129  -36.3126   24.0369 C   0  0  1  0  0  0
  -20.5872  -28.3684   23.1328 C   0  0  2  0  0  0
  -20.6795  -26.9416   22.5447 C   0  0  0  0  0  0
  -19.5785  -26.6408   21.5230 C   0  0  0  0  0  0
  -18.1936  -26.7959   22.1601 C   0  0  0  0  0  0
  -19.1533  -28.8852   23.2897 C   0  0  0  0  0  0
  -18.9472  -30.1450   23.8921 C   0  0  0  0  0  0
  -17.6483  -30.6596   24.0582 C   0  0  0  0  0  0
  -25.9058  -34.9495   23.5149 C   0  0  0  0  0  0
  -16.5368  -29.9108   23.6350 C   0  0  0  0  0  0
  -16.7276  -28.6536   23.0346 C   0  0  0  0  0  0
  -26.4448  -31.6616   25.0674 C   0  0  0  0  0  0
  -25.3685  -31.3727   26.1396 C   0  0  0  0  0  0
  -27.0296  -30.3076   24.6014 C   0  0  0  0  0  0
  -27.6059  -32.4320   25.7407 C   0  0  0  0  0  0
  -27.5605  -37.1787   24.8471 C   0  0  0  0  0  0
  -21.4121  -29.3032   22.3693 N   0  0  0  0  0  0
  -26.4321  -37.3803   23.9427 N   0  0  0  0  0  0
  -24.6632  -31.0825   22.0993 N   0  0  0  0  0  0
  -23.4145  -28.8244   23.3048 O   0  0  0  0  0  0
  -28.4049  -26.7399   19.9742 O   0  0  0  0  0  0
  -26.5627  -34.8957   22.4711 O   0  0  0  0  0  0
  -23.5313  -32.1466   23.7491 O   0  0  0  0  0  0
  -29.4935  -21.8052   21.0537 C   0  0  0  0  0  0
  -29.3395  -20.4056   21.0067 C   0  0  0  0  0  0
  -29.2007  -20.3417   23.4293 C   0  0  0  0  0  0
  -29.4879  -22.4996   22.2852 C   0  0  0  0  0  0
  -29.3594  -21.7443   23.4810 C   0  0  0  0  0  0
  -29.1936  -19.6619   22.1951 C   0  0  0  0  0  0
  -29.4049  -22.4188   24.8398 C   0  0  0  0  0  0
  -30.2018  -23.7227   24.7995 C   0  0  0  0  0  0
  -29.6298  -24.6465   23.7217 C   0  0  0  0  0  0
  -29.6826  -24.0299   22.3049 C   0  0  2  0  0  0
  -29.0118  -18.1475   22.1439 C   0  0  0  0  0  0
  -28.7251  -24.7820   21.3435 C   0  0  0  0  0  0
  -30.0911  -17.3517   22.9125 C   0  0  0  0  0  0
  -30.9545  -16.4384   22.0257 C   0  0  0  0  0  0
  -29.0401  -26.2810   21.1632 C   0  0  0  0  0  0
  -30.2371  -15.2603   21.5352 N   0  0  0  0  0  0
  -31.4657  -12.3909   19.1037 H   0  0  0  0  0  0
  -30.3252  -11.2748   19.7893 H   0  0  0  0  0  0
  -29.7256  -11.8023   17.4102 H   0  0  0  0  0  0
  -29.6668  -13.5090   17.7858 H   0  0  0  0  0  0
  -27.8169  -11.3186   18.8008 H   0  0  0  0  0  0
  -27.3654  -12.6661   17.7896 H   0  0  0  0  0  0
  -27.7225  -14.2571   19.6060 H   0  0  0  0  0  0
  -28.6789  -11.9174   21.3239 H   0  0  0  0  0  0
  -28.4611  -13.5396   21.8884 H   0  0  0  0  0  0
  -25.2756   -9.5682   22.4739 H   0  0  0  0  0  0
  -23.9988   -7.4637   22.7478 H   0  0  0  0  0  0
  -21.0826   -8.8769   19.8951 H   0  0  0  0  0  0
  -22.3686  -10.9664   19.6149 H   0  0  0  0  0  0
  -21.2015   -7.6137   23.9712 H   0  0  0  0  0  0
  -21.1485   -6.0506   25.9067 H   0  0  0  0  0  0
  -22.0603   -2.7601   23.2819 H   0  0  0  0  0  0
  -22.4096  -11.9919   22.4771 H   0  0  0  0  0  0
  -21.1135  -13.1316   22.2574 H   0  0  0  0  0  0
  -24.6633  -15.8418   20.5264 H   0  0  0  0  0  0
  -26.2844  -15.6316   20.0900 H   0  0  0  0  0  0
  -26.7066  -32.5608   23.1145 H   0  0  0  0  0  0
  -24.9997  -33.9809   25.0448 H   0  0  0  0  0  0
  -22.6900  -31.3123   21.4060 H   0  0  0  0  0  0
  -23.3800  -35.9584   23.3337 H   0  0  0  0  0  0
  -24.3595  -36.8880   22.2059 H   0  0  0  0  0  0
  -23.7204  -37.6493   23.6641 H   0  0  0  0  0  0
  -26.0248  -31.5922   20.5774 H   0  0  0  0  0  0
  -26.8176  -30.9083   21.9697 H   0  0  0  0  0  0
  -28.0947  -29.1176   21.1951 H   0  0  0  0  0  0
  -26.1117  -26.0028   18.9779 H   0  0  0  0  0  0
  -23.9930  -27.2885   19.0330 H   0  0  0  0  0  0
  -23.7084  -30.5931   19.4043 H   0  0  0  0  0  0
  -22.7324  -29.2375   19.8789 H   0  0  0  0  0  0
  -25.1298  -36.2019   25.0865 H   0  0  0  0  0  0
  -20.9977  -28.3290   24.1442 H   0  0  0  0  0  0
  -20.5763  -26.2270   23.3635 H   0  0  0  0  0  0
  -21.6659  -26.7513   22.1205 H   0  0  0  0  0  0
  -19.6981  -25.6333   21.1236 H   0  0  0  0  0  0
  -19.6784  -27.3250   20.6796 H   0  0  0  0  0  0
  -17.4254  -26.6781   21.3948 H   0  0  0  0  0  0
  -18.0257  -26.0090   22.8965 H   0  0  0  0  0  0
  -19.7958  -30.7233   24.2314 H   0  0  0  0  0  0
  -17.5060  -31.6289   24.5159 H   0  0  0  0  0  0
  -15.5375  -30.3017   23.7679 H   0  0  0  0  0  0
  -15.8677  -28.0869   22.7039 H   0  0  0  0  0  0
  -24.5980  -30.6929   25.7734 H   0  0  0  0  0  0
  -24.8695  -32.2859   26.4647 H   0  0  0  0  0  0
  -25.8001  -30.9075   27.0258 H   0  0  0  0  0  0
  -26.2823  -29.6786   24.1154 H   0  0  0  0  0  0
  -27.4219  -29.7362   25.4437 H   0  0  0  0  0  0
  -27.8574  -30.4455   23.9053 H   0  0  0  0  0  0
  -27.2740  -33.3649   26.1979 H   0  0  0  0  0  0
  -28.3830  -32.6828   25.0167 H   0  0  0  0  0  0
  -28.0751  -31.8416   26.5290 H   0  0  0  0  0  0
  -28.2628  -38.0074   24.7531 H   0  0  0  0  0  0
  -28.1098  -36.2617   24.6292 H   0  0  0  0  0  0
  -27.2318  -37.1416   25.8868 H   0  0  0  0  0  0
  -20.9278  -29.8649   21.6830 H   0  0  0  0  0  0
  -26.0244  -38.2896   24.1431 H   0  0  0  0  0  0
  -29.6237  -22.3392   20.1239 H   0  0  0  0  0  0
  -29.3291  -19.9102   20.0463 H   0  0  0  0  0  0
  -29.0906  -19.7815   24.3486 H   0  0  0  0  0  0
  -29.8353  -21.7448   25.5823 H   0  0  0  0  0  0
  -28.3799  -22.6183   25.1526 H   0  0  0  0  0  0
  -31.2518  -23.5104   24.5882 H   0  0  0  0  0  0
  -30.1762  -24.2094   25.7749 H   0  0  0  0  0  0
  -30.1479  -25.6061   23.7307 H   0  0  0  0  0  0
  -28.5945  -24.8621   23.9876 H   0  0  0  0  0  0
  -30.6998  -24.1732   21.9368 H   0  0  0  0  0  0
  -28.9742  -17.8192   21.1047 H   0  0  0  0  0  0
  -28.0307  -17.9145   22.5591 H   0  0  0  0  0  0
  -27.6917  -24.6660   21.6690 H   0  0  0  0  0  0
  -28.7767  -24.3281   20.3554 H   0  0  0  0  0  0
  -29.6165  -16.7508   23.6894 H   0  0  0  0  0  0
  -30.7522  -18.0323   23.4509 H   0  0  0  0  0  0
  -31.8099  -16.0858   22.6054 H   0  0  0  0  0  0
  -31.3614  -17.0149   21.1925 H   0  0  0  0  0  0
  -30.1133  -26.4182   21.0222 H   0  0  0  0  0  0
  -28.7613  -26.8541   22.0484 H   0  0  0  0  0  0
  -29.3371  -15.0378   21.9328 H   0  0  0  0  0  0
  1 25  1  0  0  0
  1 30  2  0  0  0
  1 86  1  0  0  0
  2  3  1  0  0  0
  2 25  1  0  0  0
  2 87  1  0  0  0
  2 88  1  0  0  0
  3  4  1  0  0  0
  3 89  1  0  0  0
  3 90  1  0  0  0
  4  5  1  0  0  0
  4 91  1  0  0  0
  4 92  1  0  0  0
  5  6  1  0  0  0
  5 26  1  0  0  0
  5 93  1  0  0  0
  6 25  1  0  0  0
  6 94  1  0  0  0
  6 95  1  0  0  0
  7  8  2  0  0  0
  7 26  1  0  0  0
  7 29  1  0  0  0
  8  9  1  0  0  0
  8 22  1  0  0  0
  9 10  1  0  0  0
  9 27  2  0  0  0
 10 11  2  0  0  0
 10 15  1  0  0  0
 11 12  1  0  0  0
 11 96  1  0  0  0
 12 13  2  0  0  0
 12 97  1  0  0  0
 13 14  1  0  0  0
 13 31  1  0  0  0
 14 15  2  0  0  0
 14 98  1  0  0  0
 15 99  1  0  0  0
 16 17  2  0  0  0
 16 21  1  0  0  0
 16 31  1  0  0  0
 17 18  1  0  0  0
 17100  1  0  0  0
 18 19  2  0  0  0
 18101  1  0  0  0
 19 20  1  0  0  0
 19 24  1  0  0  0
 20 21  2  0  0  0
 20102  1  0  0  0
 21 23  1  0  0  0
 22 28  1  0  0  0
 22 32  2  0  0  0
 26 27  1  0  0  0
 28103  1  0  0  0
 28104  1  0  0  0
 29105  1  0  0  0
 29106  1  0  0  0
 33 34  1  0  0  0
 33 66  1  0  0  0
 33 70  2  0  0  0
 34 36  1  0  0  0
 34 59  1  0  0  0
 34107  1  0  0  0
 35 44  2  0  0  0
 35 45  1  0  0  0
 35 68  1  0  0  0
 36 56  1  0  0  0
 36108  1  0  0  0
 37 39  1  0  0  0
 37 47  1  0  0  0
 37 66  1  0  0  0
 37109  1  0  0  0
 38 43  2  0  0  0
 38 46  1  0  0  0
 38 47  1  0  0  0
 39 64  1  0  0  0
 39 67  2  0  0  0
 40 52  1  0  0  0
 40 53  2  0  0  0
 40 58  1  0  0  0
 41110  1  0  0  0
 41111  1  0  0  0
 41112  1  0  0  0
 41 48  1  0  0  0
 42 43  1  0  0  0
 42 66  1  0  0  0
 42113  1  0  0  0
 42114  1  0  0  0
 43 44  1  0  0  0
 44115  1  0  0  0
 45 46  2  0  0  0
 45116  1  0  0  0
 46117  1  0  0  0
 47118  1  0  0  0
 47119  1  0  0  0
 48 56  1  0  0  0
 48 65  1  0  0  0
 48120  1  0  0  0
 49 50  1  0  0  0
 49 53  1  0  0  0
 49 64  1  0  0  0
 49121  1  0  0  0
 50 51  1  0  0  0
 50122  1  0  0  0
 50123  1  0  0  0
 51 52  1  0  0  0
 51124  1  0  0  0
 51125  1  0  0  0
 52126  1  0  0  0
 52127  1  0  0  0
 53 54  1  0  0  0
 54 55  2  0  0  0
 54128  1  0  0  0
 55 57  1  0  0  0
 55129  1  0  0  0
 56 69  2  0  0  0
 57 58  2  0  0  0
 57130  1  0  0  0
 58131  1  0  0  0
 59 60  1  0  0  0
 59 61  1  0  0  0
 59 62  1  0  0  0
 60132  1  0  0  0
 60133  1  0  0  0
 60134  1  0  0  0
 61135  1  0  0  0
 61136  1  0  0  0
 61137  1  0  0  0
 62138  1  0  0  0
 62139  1  0  0  0
 62140  1  0  0  0
 63 65  1  0  0  0
 63141  1  0  0  0
 63142  1  0  0  0
 63143  1  0  0  0
 64144  1  0  0  0
 65145  1  0  0  0
 68 85  1  0  0  0
 71 72  2  0  0  0
 71 74  1  0  0  0
 71146  1  0  0  0
 72 76  1  0  0  0
 72147  1  0  0  0
 73 75  1  0  0  0
 73 76  2  0  0  0
 73148  1  0  0  0
 74 75  2  0  0  0
 74 80  1  0  0  0
 75 77  1  0  0  0
 76 81  1  0  0  0
 77 78  1  0  0  0
 77149  1  0  0  0
 77150  1  0  0  0
 78 79  1  0  0  0
 78151  1  0  0  0
 78152  1  0  0  0
 79 80  1  0  0  0
 79153  1  0  0  0
 79154  1  0  0  0
 80 82  1  0  0  0
 80155  1  0  0  0
 81 83  1  0  0  0
 81156  1  0  0  0
 81157  1  0  0  0
 82 85  1  0  0  0
 82158  1  0  0  0
 82159  1  0  0  0
 83 84  1  0  0  0
 83160  1  0  0  0
 83161  1  0  0  0
 84 86  1  0  0  0
 84162  1  0  0  0
 84163  1  0  0  0
 85164  1  0  0  0
 85165  1  0  0  0
 86166  1  0  0  0
M  ISO  4   1 100  68 101  85 101  86 100
M  END
> <chiral flag>
0

> <version>
0

> <s_m_source_file>
/data/baiqing/PycharmProjects/Reinvent-master-3.2/result/LINK_invent/BTK/process_docking_weight1_custom_sum_contain_oxygen_bond_distance_aromatic_linkinvent_7_9_3/rearranged_h_0045.sdf

> <i_m_source_file_index>
88

> <r_mmod_Potential_Energy-OPLS-2005>
-51.4319610595703

> <r_mmod_Stretch_Energy-OPLS-2005>
33.745979309082

> <r_mmod_Bend_Energy-OPLS-2005>
93.5595092773438

> <r_mmod_Torsional_Energy-OPLS-2005>
242.763290405273

> <r_mmod_Improper_Torsional_Energy-OPLS-2005>
2.03980469703674

> <r_mmod_Van_der_Waal_Energy-OPLS-2005>
156.474533081055

> <r_mmod_Electrostatic_Energy-OPLS-2005>
-384.202056884766

> <r_mmod_Solvation_Energy-OPLS-2005>
-203.005676269531

> <b_mmod_Minimization_Converged-OPLS-2005>
0

> <r_mmod_RMS_Derivative-OPLS-2005>
2.84708523750305

$$$$
89
                    3D
 Structure written by MMmdl.
157165  0  0  1  0            999 V2000
  -30.6067  -14.7072   20.3943 C   0  0  0  0  0  0
  -30.4241  -12.4178   19.4497 C   0  0  0  0  0  0
  -29.5080  -12.4835   18.2080 C   0  0  0  0  0  0
  -28.0241  -12.3349   18.6083 C   0  0  0  0  0  0
  -27.6316  -13.2237   19.8204 C   0  0  2  0  0  0
  -28.6792  -13.1360   20.9521 C   0  0  0  0  0  0
  -25.2450  -13.8162   20.5643 C   0  0  0  0  0  0
  -24.1778  -13.0396   20.9218 C   0  0  0  0  0  0
  -24.6341  -11.6876   20.8694 C   0  0  0  0  0  0
  -23.9033  -10.4252   21.0359 C   0  0  0  0  0  0
  -24.3598   -9.4184   21.9153 C   0  0  0  0  0  0
  -23.6300   -8.2216   22.0740 C   0  0  0  0  0  0
  -22.4275   -8.0232   21.3533 C   0  0  0  0  0  0
  -21.9887   -9.0189   20.4643 C   0  0  0  0  0  0
  -22.7199  -10.2075   20.3029 C   0  0  0  0  0  0
  -21.6861   -6.0705   22.5297 C   0  0  0  0  0  0
  -21.4012   -6.5625   23.8207 C   0  0  0  0  0  0
  -21.3677   -5.6795   24.9188 C   0  0  0  0  0  0
  -21.6043   -4.3054   24.7236 C   0  0  0  0  0  0
  -21.8837   -3.8138   23.4365 C   0  0  0  0  0  0
  -21.9181   -4.6943   22.3423 C   0  0  0  0  0  0
  -22.7781  -13.5176   21.1890 C   0  0  0  0  0  0
  -22.1665   -4.2123   21.0990 F   0  0  0  0  0  0
  -21.5622   -3.4530   25.7752 F   0  0  0  0  0  0
  -29.9843  -13.4830   20.3786 N   0  0  0  0  0  0
  -26.2829  -12.9351   20.3050 N   0  0  0  0  0  0
  -25.9243  -11.6482   20.5602 N   0  0  0  0  0  0
  -22.0432  -12.8171   22.0470 N   0  0  0  0  0  0
  -25.4007  -15.1884   20.4094 N   0  0  0  0  0  0
  -31.8005  -14.7972   20.0966 O   0  0  0  0  0  0
  -21.6640   -6.8810   21.4246 O   0  0  0  0  0  0
  -22.3484  -14.5459   20.6708 O   0  0  0  0  0  0
  -24.6319  -31.8543   23.2066 C   0  0  0  0  0  0
  -25.9191  -32.4713   23.8386 C   0  0  1  0  0  0
  -27.2055  -27.2822   20.1083 C   0  0  0  0  0  0
  -25.5999  -33.8514   24.2301 N   0  0  0  0  0  0
  -23.4229  -30.4950   21.5407 C   0  0  2  0  0  0
  -24.8621  -28.9484   20.1087 C   0  0  0  0  0  0
  -22.7478  -29.4675   22.4812 C   0  0  0  0  0  0
  -18.0313  -28.1368   22.8464 C   0  0  0  0  0  0
  -24.1509  -36.7271   23.2654 C   0  0  0  0  0  0
  -25.9726  -30.7788   21.3863 C   0  0  0  0  0  0
  -26.0397  -29.4111   20.7107 C   0  0  0  0  0  0
  -27.2115  -28.5904   20.6997 C   0  0  0  0  0  0
  -25.9950  -26.8701   19.5112 C   0  0  0  0  0  0
  -24.8436  -27.6824   19.5056 C   0  0  0  0  0  0
  -23.6433  -29.8457   20.1513 C   0  0  0  0  0  0
  -25.4126  -36.3043   24.0341 C   0  0  1  0  0  0
  -20.5922  -28.3723   23.1209 C   0  0  2  0  0  0
  -20.6792  -26.9413   22.5405 C   0  0  0  0  0  0
  -19.5785  -26.6363   21.5202 C   0  0  0  0  0  0
  -18.1960  -26.7899   22.1587 C   0  0  0  0  0  0
  -19.1560  -28.8851   23.2837 C   0  0  0  0  0  0
  -18.9505  -30.1440   23.8876 C   0  0  0  0  0  0
  -17.6512  -30.6569   24.0578 C   0  0  0  0  0  0
  -25.9046  -34.9408   23.5098 C   0  0  0  0  0  0
  -16.5400  -29.9087   23.6336 C   0  0  0  0  0  0
  -16.7303  -28.6507   23.0347 C   0  0  0  0  0  0
  -26.4557  -31.6523   25.0759 C   0  0  0  0  0  0
  -25.3830  -31.3689   26.1526 C   0  0  0  0  0  0
  -27.0473  -30.2933   24.6334 C   0  0  0  0  0  0
  -27.6064  -32.4315   25.7533 C   0  0  0  0  0  0
  -27.5570  -37.1800   24.8461 C   0  0  0  0  0  0
  -21.4192  -29.3080   22.3540 N   0  0  0  0  0  0
  -26.4301  -37.3745   23.9410 N   0  0  0  0  0  0
  -24.6943  -31.0597   22.0985 N   0  0  0  0  0  0
  -23.4189  -28.8176   23.2891 O   0  0  0  0  0  0
  -28.3168  -26.4120   20.1802 O   0  0  0  0  0  0
  -26.5606  -34.8886   22.4653 O   0  0  0  0  0  0
  -23.5498  -32.1353   23.7381 O   0  0  0  0  0  0
  -29.0418  -22.5114   19.3368 C   0  0  0  0  0  0
  -28.5561  -23.6903   20.0278 C   0  0  0  0  0  0
  -29.0604  -21.3661   20.1202 C   0  0  0  0  0  0
  -28.2150  -23.1897   21.2639 C   0  0  0  0  0  0
  -27.5970  -23.9143   22.4241 C   0  0  0  0  0  0
  -28.3325  -20.9527   22.4993 C   0  0  0  0  0  0
  -28.4092  -25.1443   19.3918 C   0  0  0  0  0  0
  -29.6004  -19.9291   19.7369 C   0  0  0  0  0  0
  -29.4688  -18.5531   20.5723 C   0  0  0  0  0  0
  -30.1489  -17.2416   19.9324 C   0  0  0  0  0  0
  -28.5325  -21.8096   21.3363 N   0  0  0  0  0  0
  -29.8200  -15.8443   20.4499 N   0  0  0  0  0  0
  -31.4655  -12.5426   19.1450 H   0  0  0  0  0  0
  -30.3738  -11.4406   19.9330 H   0  0  0  0  0  0
  -29.7885  -11.7104   17.4920 H   0  0  0  0  0  0
  -29.6573  -13.4383   17.7016 H   0  0  0  0  0  0
  -27.8431  -11.2871   18.8407 H   0  0  0  0  0  0
  -27.3948  -12.5716   17.7464 H   0  0  0  0  0  0
  -27.6205  -14.2440   19.4409 H   0  0  0  0  0  0
  -28.6992  -12.1280   21.3748 H   0  0  0  0  0  0
  -28.4220  -13.8077   21.7682 H   0  0  0  0  0  0
  -25.2723   -9.5695   22.4718 H   0  0  0  0  0  0
  -24.0017   -7.4617   22.7453 H   0  0  0  0  0  0
  -21.0811   -8.8703   19.8937 H   0  0  0  0  0  0
  -22.3639  -10.9609   19.6135 H   0  0  0  0  0  0
  -21.2014   -7.6132   23.9729 H   0  0  0  0  0  0
  -21.1488   -6.0510   25.9093 H   0  0  0  0  0  0
  -22.0591   -2.7590   23.2891 H   0  0  0  0  0  0
  -22.4066  -11.9886   22.4950 H   0  0  0  0  0  0
  -21.1002  -13.1135   22.2508 H   0  0  0  0  0  0
  -24.6232  -15.8226   20.5436 H   0  0  0  0  0  0
  -26.2239  -15.6539   20.0502 H   0  0  0  0  0  0
  -26.7228  -32.5381   23.1102 H   0  0  0  0  0  0
  -25.0210  -33.9628   25.0501 H   0  0  0  0  0  0
  -22.7246  -31.3231   21.4047 H   0  0  0  0  0  0
  -23.3743  -35.9624   23.3296 H   0  0  0  0  0  0
  -24.3622  -36.8903   22.2073 H   0  0  0  0  0  0
  -23.7280  -37.6480   23.6675 H   0  0  0  0  0  0
  -26.1488  -31.5596   20.6446 H   0  0  0  0  0  0
  -26.8324  -30.7897   22.0444 H   0  0  0  0  0  0
  -28.1170  -28.9478   21.1744 H   0  0  0  0  0  0
  -25.8764  -25.8872   19.0820 H   0  0  0  0  0  0
  -23.9323  -27.3084   19.0632 H   0  0  0  0  0  0
  -23.7918  -30.6384   19.4166 H   0  0  0  0  0  0
  -22.7537  -29.3091   19.8170 H   0  0  0  0  0  0
  -25.1301  -36.1882   25.0833 H   0  0  0  0  0  0
  -21.0067  -28.3354   24.1314 H   0  0  0  0  0  0
  -20.5708  -26.2340   23.3640 H   0  0  0  0  0  0
  -21.6661  -26.7424   22.1227 H   0  0  0  0  0  0
  -19.6973  -25.6282   21.1227 H   0  0  0  0  0  0
  -19.6709  -27.3166   20.6735 H   0  0  0  0  0  0
  -17.4232  -26.6675   21.3976 H   0  0  0  0  0  0
  -18.0340  -26.0049   22.8982 H   0  0  0  0  0  0
  -19.8010  -30.7242   24.2225 H   0  0  0  0  0  0
  -17.5095  -31.6252   24.5181 H   0  0  0  0  0  0
  -15.5398  -30.3000   23.7654 H   0  0  0  0  0  0
  -15.8709  -28.0820   22.7059 H   0  0  0  0  0  0
  -24.5978  -30.7024   25.7934 H   0  0  0  0  0  0
  -24.9088  -32.2884   26.4981 H   0  0  0  0  0  0
  -25.8243  -30.8894   27.0283 H   0  0  0  0  0  0
  -26.3129  -29.6561   24.1410 H   0  0  0  0  0  0
  -27.4161  -29.7287   25.4906 H   0  0  0  0  0  0
  -27.8977  -30.4131   23.9622 H   0  0  0  0  0  0
  -27.2596  -33.3598   26.2084 H   0  0  0  0  0  0
  -28.3911  -32.6910   25.0407 H   0  0  0  0  0  0
  -28.0711  -31.8493   26.5504 H   0  0  0  0  0  0
  -28.2574  -38.0095   24.7496 H   0  0  0  0  0  0
  -28.1068  -36.2636   24.6296 H   0  0  0  0  0  0
  -27.2298  -37.1467   25.8860 H   0  0  0  0  0  0
  -20.9323  -29.8866   21.6824 H   0  0  0  0  0  0
  -26.0149  -38.2809   24.1401 H   0  0  0  0  0  0
  -29.3771  -22.5248   18.3096 H   0  0  0  0  0  0
  -27.1022  -24.8288   22.0924 H   0  0  0  0  0  0
  -28.3539  -24.1944   23.1597 H   0  0  0  0  0  0
  -26.8436  -23.3073   22.9254 H   0  0  0  0  0  0
  -28.1777  -21.5271   23.4082 H   0  0  0  0  0  0
  -29.2104  -20.3395   22.6651 H   0  0  0  0  0  0
  -27.4659  -20.3060   22.3469 H   0  0  0  0  0  0
  -27.6661  -25.0752   18.6022 H   0  0  0  0  0  0
  -29.3268  -25.2743   18.8223 H   0  0  0  0  0  0
  -30.6680  -20.0597   19.5557 H   0  0  0  0  0  0
  -29.1989  -19.7144   18.7456 H   0  0  0  0  0  0
  -28.4175  -18.3468   20.7756 H   0  0  0  0  0  0
  -29.9548  -18.6908   21.5323 H   0  0  0  0  0  0
  -29.9112  -17.2273   18.8709 H   0  0  0  0  0  0
  -31.2288  -17.3773   19.9803 H   0  0  0  0  0  0
  -28.8386  -15.6715   20.5901 H   0  0  0  0  0  0
  1 25  1  0  0  0
  1 30  2  0  0  0
  1 82  1  0  0  0
  2  3  1  0  0  0
  2 25  1  0  0  0
  2 83  1  0  0  0
  2 84  1  0  0  0
  3  4  1  0  0  0
  3 85  1  0  0  0
  3 86  1  0  0  0
  4  5  1  0  0  0
  4 87  1  0  0  0
  4 88  1  0  0  0
  5  6  1  0  0  0
  5 26  1  0  0  0
  5 89  1  0  0  0
  6 25  1  0  0  0
  6 90  1  0  0  0
  6 91  1  0  0  0
  7  8  2  0  0  0
  7 26  1  0  0  0
  7 29  1  0  0  0
  8  9  1  0  0  0
  8 22  1  0  0  0
  9 10  1  0  0  0
  9 27  2  0  0  0
 10 11  2  0  0  0
 10 15  1  0  0  0
 11 12  1  0  0  0
 11 92  1  0  0  0
 12 13  2  0  0  0
 12 93  1  0  0  0
 13 14  1  0  0  0
 13 31  1  0  0  0
 14 15  2  0  0  0
 14 94  1  0  0  0
 15 95  1  0  0  0
 16 17  2  0  0  0
 16 21  1  0  0  0
 16 31  1  0  0  0
 17 18  1  0  0  0
 17 96  1  0  0  0
 18 19  2  0  0  0
 18 97  1  0  0  0
 19 20  1  0  0  0
 19 24  1  0  0  0
 20 21  2  0  0  0
 20 98  1  0  0  0
 21 23  1  0  0  0
 22 28  1  0  0  0
 22 32  2  0  0  0
 26 27  1  0  0  0
 28 99  1  0  0  0
 28100  1  0  0  0
 29101  1  0  0  0
 29102  1  0  0  0
 33 34  1  0  0  0
 33 66  1  0  0  0
 33 70  2  0  0  0
 34 36  1  0  0  0
 34 59  1  0  0  0
 34103  1  0  0  0
 35 44  2  0  0  0
 35 45  1  0  0  0
 35 68  1  0  0  0
 36 56  1  0  0  0
 36104  1  0  0  0
 37 39  1  0  0  0
 37 47  1  0  0  0
 37 66  1  0  0  0
 37105  1  0  0  0
 38 43  2  0  0  0
 38 46  1  0  0  0
 38 47  1  0  0  0
 39 64  1  0  0  0
 39 67  2  0  0  0
 40 52  1  0  0  0
 40 53  2  0  0  0
 40 58  1  0  0  0
 41106  1  0  0  0
 41107  1  0  0  0
 41108  1  0  0  0
 41 48  1  0  0  0
 42 43  1  0  0  0
 42 66  1  0  0  0
 42109  1  0  0  0
 42110  1  0  0  0
 43 44  1  0  0  0
 44111  1  0  0  0
 45 46  2  0  0  0
 45112  1  0  0  0
 46113  1  0  0  0
 47114  1  0  0  0
 47115  1  0  0  0
 48 56  1  0  0  0
 48 65  1  0  0  0
 48116  1  0  0  0
 49 50  1  0  0  0
 49 53  1  0  0  0
 49 64  1  0  0  0
 49117  1  0  0  0
 50 51  1  0  0  0
 50118  1  0  0  0
 50119  1  0  0  0
 51 52  1  0  0  0
 51120  1  0  0  0
 51121  1  0  0  0
 52122  1  0  0  0
 52123  1  0  0  0
 53 54  1  0  0  0
 54 55  2  0  0  0
 54124  1  0  0  0
 55 57  1  0  0  0
 55125  1  0  0  0
 56 69  2  0  0  0
 57 58  2  0  0  0
 57126  1  0  0  0
 58127  1  0  0  0
 59 60  1  0  0  0
 59 61  1  0  0  0
 59 62  1  0  0  0
 60128  1  0  0  0
 60129  1  0  0  0
 60130  1  0  0  0
 61131  1  0  0  0
 61132  1  0  0  0
 61133  1  0  0  0
 62134  1  0  0  0
 62135  1  0  0  0
 62136  1  0  0  0
 63 65  1  0  0  0
 63137  1  0  0  0
 63138  1  0  0  0
 63139  1  0  0  0
 64140  1  0  0  0
 65141  1  0  0  0
 68 77  1  0  0  0
 71 72  1  0  0  0
 71 73  2  0  0  0
 71142  1  0  0  0
 72 74  2  0  0  0
 72 77  1  0  0  0
 73 78  1  0  0  0
 73 81  1  0  0  0
 74 75  1  0  0  0
 74 81  1  0  0  0
 75143  1  0  0  0
 75144  1  0  0  0
 75145  1  0  0  0
 76 81  1  0  0  0
 76146  1  0  0  0
 76147  1  0  0  0
 76148  1  0  0  0
 77149  1  0  0  0
 77150  1  0  0  0
 78 79  1  0  0  0
 78151  1  0  0  0
 78152  1  0  0  0
 79 80  1  0  0  0
 79153  1  0  0  0
 79154  1  0  0  0
 80 82  1  0  0  0
 80155  1  0  0  0
 80156  1  0  0  0
 82157  1  0  0  0
M  ISO  4   1 100  68 101  77 101  82 100
M  END
> <chiral flag>
0

> <version>
0

> <s_m_source_file>
/data/baiqing/PycharmProjects/Reinvent-master-3.2/result/LINK_invent/BTK/process_docking_weight1_custom_sum_contain_oxygen_bond_distance_aromatic_linkinvent_7_9_3/rearranged_h_0045.sdf

> <i_m_source_file_index>
89

> <r_mmod_Potential_Energy-OPLS-2005>
132.705703735352

> <r_mmod_Stretch_Energy-OPLS-2005>
106.662620544434

> <r_mmod_Bend_Energy-OPLS-2005>
190.632720947266

> <r_mmod_Torsional_Energy-OPLS-2005>
220.209365844727

> <r_mmod_Improper_Torsional_Energy-OPLS-2005>
8.81957817077637

> <r_mmod_Van_der_Waal_Energy-OPLS-2005>
120.307929992676

> <r_mmod_Electrostatic_Energy-OPLS-2005>
-372.324340820312

> <r_mmod_Solvation_Energy-OPLS-2005>
-216.690734863281

> <b_mmod_Minimization_Converged-OPLS-2005>
0

> <r_mmod_RMS_Derivative-OPLS-2005>
7.52071189880371

$$$$
90
                    3D
 Structure written by MMmdl.
166174  0  0  1  0            999 V2000
  -30.5173  -15.8451   19.3869 C   0  0  0  0  0  0
  -31.1407  -13.2204   19.4840 C   0  0  0  0  0  0
  -30.2701  -12.2794   18.6616 C   0  0  0  0  0  0
  -28.8800  -12.2247   19.2547 C   0  0  0  0  0  0
  -27.9650  -13.5976   20.0937 C   0  0  2  0  0  0
  -29.4191  -13.8369   20.8450 C   0  0  0  0  0  0
  -24.8250  -14.3729   20.4650 C   0  0  0  0  0  0
  -23.7826  -13.4468   20.7148 C   0  0  0  0  0  0
  -24.2425  -12.1462   20.8775 C   0  0  0  0  0  0
  -23.7548  -10.6983   21.0719 C   0  0  0  0  0  0
  -24.2868   -9.6776   21.9273 C   0  0  0  0  0  0
  -23.6544   -8.4014   22.0686 C   0  0  0  0  0  0
  -22.4703   -8.1011   21.3486 C   0  0  0  0  0  0
  -22.0010   -9.0648   20.4412 C   0  0  0  0  0  0
  -22.6371  -10.3153   20.2982 C   0  0  0  0  0  0
  -21.7359   -6.1007   22.5208 C   0  0  0  0  0  0
  -21.4376   -6.5854   23.8136 C   0  0  0  0  0  0
  -21.3759   -5.6959   24.9073 C   0  0  0  0  0  0
  -21.6019   -4.3195   24.7134 C   0  0  0  0  0  0
  -21.8772   -3.8294   23.4255 C   0  0  0  0  0  0
  -21.9357   -4.7152   22.3342 C   0  0  0  0  0  0
  -22.4088  -13.7678   21.0606 C   0  0  0  0  0  0
  -22.1757   -4.2274   21.0931 F   0  0  0  0  0  0
  -21.5526   -3.4660   25.7638 F   0  0  0  0  0  0
  -30.4140  -14.4561   19.9836 N   0  0  0  0  0  0
  -25.9982  -13.7525   20.6384 N   0  0  0  0  0  0
  -25.1941  -12.7728   21.4428 N   0  0  0  0  0  0
  -21.8120  -12.9846   21.9604 N   0  0  0  0  0  0
  -24.9283  -15.7048   20.2174 N   0  0  0  0  0  0
  -31.7128  -16.0683   19.5527 O   0  0  0  0  0  0
  -21.7547   -6.9182   21.4128 O   0  0  0  0  0  0
  -21.9186  -14.7788   20.6007 O   0  0  0  0  0  0
  -24.7627  -31.6871   23.0856 C   0  0  0  0  0  0
  -25.9793  -32.3916   23.7687 C   0  0  1  0  0  0
  -26.9352  -25.6671   20.4011 C   0  0  0  0  0  0
  -25.6012  -33.7817   24.1439 N   0  0  0  0  0  0
  -23.6114  -30.2631   21.4618 C   0  0  2  0  0  0
  -25.0176  -28.3952   20.1408 C   0  0  0  0  0  0
  -22.8025  -29.3733   22.4496 C   0  0  0  0  0  0
  -18.0365  -28.1460   22.8414 C   0  0  0  0  0  0
  -24.1494  -36.6922   23.2667 C   0  0  0  0  0  0
  -26.1974  -30.0606   21.5132 C   0  0  0  0  0  0
  -26.1870  -28.5181   20.8908 C   0  0  0  0  0  0
  -27.0997  -27.2123   20.9667 C   0  0  0  0  0  0
  -25.8292  -26.0187   19.5202 C   0  0  0  0  0  0
  -24.9464  -27.1848   19.4168 C   0  0  0  0  0  0
  -23.8993  -29.4946   20.1235 C   0  0  0  0  0  0
  -25.4170  -36.2587   24.0216 C   0  0  1  0  0  0
  -20.6021  -28.3828   23.1018 C   0  0  2  0  0  0
  -20.6777  -26.9417   22.5429 C   0  0  0  0  0  0
  -19.5778  -26.6331   21.5225 C   0  0  0  0  0  0
  -18.1961  -26.7972   22.1602 C   0  0  0  0  0  0
  -19.1648  -28.8990   23.2676 C   0  0  0  0  0  0
  -18.9550  -30.1559   23.8750 C   0  0  0  0  0  0
  -17.6534  -30.6625   24.0537 C   0  0  0  0  0  0
  -25.9210  -34.8999   23.4744 C   0  0  0  0  0  0
  -16.5417  -29.9094   23.6376 C   0  0  0  0  0  0
  -16.7341  -28.6524   23.0377 C   0  0  0  0  0  0
  -26.4720  -31.6396   25.0691 C   0  0  0  0  0  0
  -25.3564  -31.3957   26.1143 C   0  0  0  0  0  0
  -27.0824  -30.2665   24.7292 C   0  0  0  0  0  0
  -27.6001  -32.4515   25.7510 C   0  0  0  0  0  0
  -27.5554  -37.1578   24.8438 C   0  0  0  0  0  0
  -21.4618  -29.2901   22.3233 N   0  0  0  0  0  0
  -26.4208  -37.3465   23.9447 N   0  0  0  0  0  0
  -24.8981  -30.7328   22.0686 N   0  0  0  0  0  0
  -23.4087  -28.7469   23.3212 O   0  0  0  0  0  0
  -27.5600  -23.9579   20.5701 O   0  0  0  0  0  0
  -26.6003  -34.8754   22.4469 O   0  0  0  0  0  0
  -23.6491  -32.0451   23.5213 O   0  0  0  0  0  0
  -27.3269  -18.4238   21.9526 C   0  0  0  0  0  0
  -27.6137  -19.3925   20.7606 C   0  0  0  0  0  0
  -28.0091  -16.1602   20.1387 C   0  0  0  0  0  0
  -27.6123  -15.6011   21.6198 C   0  0  0  0  0  0
  -28.9195  -14.7013   16.4992 C   0  0  0  0  0  0
  -27.8300  -10.5677   21.8036 C   0  0  0  0  0  0
  -28.7957  -14.5273   18.1434 C   0  0  0  0  0  0
  -27.5279  -13.5639   22.3990 C   0  0  0  0  0  0
  -27.2992  -21.7194   20.3764 C   0  0  0  0  0  0
  -26.3322  -14.0057   18.0748 C   0  0  0  0  0  0
  -27.2981  -16.1421   17.8613 C   0  0  0  0  0  0
  -26.4927  -11.9826   19.2730 C   0  0  0  0  0  0
  -27.3327  -16.9130   22.2921 N   0  0  0  0  0  0
  -27.8979  -17.9125   20.0082 N   0  0  0  0  0  0
  -29.3939  -16.6725   18.3420 N   0  0  0  0  0  0
  -27.2620  -11.8292   21.2717 N   0  3  1  0  0  0
  -31.9763  -13.5418   18.8583 H   0  0  0  0  0  0
  -31.6227  -12.6960   20.3106 H   0  0  0  0  0  0
  -30.7289  -11.2889   18.7162 H   0  0  0  0  0  0
  -30.3255  -12.4628   17.5874 H   0  0  0  0  0  0
  -29.0358  -11.3450   19.8621 H   0  0  0  0  0  0
  -28.5329  -11.8096   18.3097 H   0  0  0  0  0  0
  -27.4993  -14.2720   19.6932 H   0  0  0  0  0  0
  -29.7742  -12.9184   21.3245 H   0  0  0  0  0  0
  -29.5961  -14.5112   21.6806 H   0  0  0  0  0  0
  -25.1503   -9.8931   22.5364 H   0  0  0  0  0  0
  -24.0720   -7.6757   22.7516 H   0  0  0  0  0  0
  -21.1219   -8.8494   19.8492 H   0  0  0  0  0  0
  -22.2116  -11.0255   19.6028 H   0  0  0  0  0  0
  -21.2537   -7.6387   23.9668 H   0  0  0  0  0  0
  -21.1554   -6.0704   25.8962 H   0  0  0  0  0  0
  -22.0392   -2.7733   23.2722 H   0  0  0  0  0  0
  -22.2882  -12.1924   22.3654 H   0  0  0  0  0  0
  -20.8718  -13.1984   22.2617 H   0  0  0  0  0  0
  -24.0962  -16.2823   20.2020 H   0  0  0  0  0  0
  -25.7779  -16.2439   20.3394 H   0  0  0  0  0  0
  -26.7983  -32.4202   23.0481 H   0  0  0  0  0  0
  -24.9884  -33.8717   24.9409 H   0  0  0  0  0  0
  -22.9937  -31.1285   21.2123 H   0  0  0  0  0  0
  -23.3842  -35.9155   23.3085 H   0  0  0  0  0  0
  -24.3565  -36.8895   22.2140 H   0  0  0  0  0  0
  -23.7148  -37.5943   23.6982 H   0  0  0  0  0  0
  -26.5193  -30.7031   20.6927 H   0  0  0  0  0  0
  -27.0226  -30.1219   22.2066 H   0  0  0  0  0  0
  -27.9423  -27.3268   21.6342 H   0  0  0  0  0  0
  -25.5006  -25.1935   18.9045 H   0  0  0  0  0  0
  -24.1045  -27.0794   18.7462 H   0  0  0  0  0  0
  -24.1809  -30.2206   19.3600 H   0  0  0  0  0  0
  -22.9766  -29.0407   19.7591 H   0  0  0  0  0  0
  -25.1408  -36.1209   25.0695 H   0  0  0  0  0  0
  -21.0071  -28.3516   24.1162 H   0  0  0  0  0  0
  -20.5569  -26.2474   23.3757 H   0  0  0  0  0  0
  -21.6637  -26.7240   22.1303 H   0  0  0  0  0  0
  -19.6922  -25.6200   21.1361 H   0  0  0  0  0  0
  -19.6766  -27.3058   20.6696 H   0  0  0  0  0  0
  -17.4240  -26.6732   21.3990 H   0  0  0  0  0  0
  -18.0312  -26.0146   22.9026 H   0  0  0  0  0  0
  -19.8031  -30.7401   24.2058 H   0  0  0  0  0  0
  -17.5089  -31.6291   24.5169 H   0  0  0  0  0  0
  -15.5417  -30.2959   23.7778 H   0  0  0  0  0  0
  -15.8738  -28.0799   22.7173 H   0  0  0  0  0  0
  -24.5822  -30.7246   25.7401 H   0  0  0  0  0  0
  -24.8682  -32.3251   26.4088 H   0  0  0  0  0  0
  -25.7529  -30.9413   27.0232 H   0  0  0  0  0  0
  -26.3631  -29.5890   24.2692 H   0  0  0  0  0  0
  -27.4250  -29.7625   25.6340 H   0  0  0  0  0  0
  -27.9621  -30.3602   24.0928 H   0  0  0  0  0  0
  -27.2430  -33.4004   26.1526 H   0  0  0  0  0  0
  -28.4050  -32.6786   25.0506 H   0  0  0  0  0  0
  -28.0420  -31.9067   26.5865 H   0  0  0  0  0  0
  -28.2366  -38.0063   24.7673 H   0  0  0  0  0  0
  -28.1251  -36.2594   24.6019 H   0  0  0  0  0  0
  -27.2311  -37.0885   25.8835 H   0  0  0  0  0  0
  -21.0104  -29.8443   21.6084 H   0  0  0  0  0  0
  -25.9945  -38.2443   24.1592 H   0  0  0  0  0  0
  -26.9931  -18.9641   22.8248 H   0  0  0  0  0  0
  -29.4366  -13.8642   16.0127 H   0  0  0  0  0  0
  -29.4691  -15.5813   16.1587 H   0  0  0  0  0  0
  -27.9728  -14.7055   15.9570 H   0  0  0  0  0  0
  -27.4026  -10.3451   22.7808 H   0  0  0  0  0  0
  -28.9079  -10.6522   21.9464 H   0  0  0  0  0  0
  -27.6290   -9.7285   21.1382 H   0  0  0  0  0  0
  -28.3728  -13.6554   17.7409 H   0  0  0  0  0  0
  -29.8194  -14.3804   17.8320 H   0  0  0  0  0  0
  -26.7464  -13.5919   23.1593 H   0  0  0  0  0  0
  -28.3748  -13.3942   23.0660 H   0  0  0  0  0  0
  -26.2117  -21.7123   20.4245 H   0  0  0  0  0  0
  -27.5151  -21.6782   19.3088 H   0  0  0  0  0  0
  -26.3981  -13.6090   17.0611 H   0  0  0  0  0  0
  -25.2666  -14.2223   18.0234 H   0  0  0  0  0  0
  -26.5822  -16.8481   18.2838 H   0  0  0  0  0  0
  -27.1544  -16.4613   16.8291 H   0  0  0  0  0  0
  -26.8162  -11.1244   18.6836 H   0  0  0  0  0  0
  -25.5308  -11.5123   19.1328 H   0  0  0  0  0  0
  -29.7281  -17.5401   17.9463 H   0  0  0  0  0  0
  -26.3112  -11.7625   21.6334 H   0  0  0  0  0  0
  1 25  1  0  0  0
  1 30  2  0  0  0
  1 85  1  0  0  0
  2  3  1  0  0  0
  2 25  1  0  0  0
  2 87  1  0  0  0
  2 88  1  0  0  0
  3  4  1  0  0  0
  3 89  1  0  0  0
  3 90  1  0  0  0
  4  5  1  0  0  0
  4 91  1  0  0  0
  4 92  1  0  0  0
  5  6  1  0  0  0
  5 26  1  0  0  0
  5 93  1  0  0  0
  6 25  1  0  0  0
  6 94  1  0  0  0
  6 95  1  0  0  0
  7  8  2  0  0  0
  7 26  1  0  0  0
  7 29  1  0  0  0
  8  9  1  0  0  0
  8 22  1  0  0  0
  9 10  1  0  0  0
  9 27  2  0  0  0
 10 11  2  0  0  0
 10 15  1  0  0  0
 11 12  1  0  0  0
 11 96  1  0  0  0
 12 13  2  0  0  0
 12 97  1  0  0  0
 13 14  1  0  0  0
 13 31  1  0  0  0
 14 15  2  0  0  0
 14 98  1  0  0  0
 15 99  1  0  0  0
 16 17  2  0  0  0
 16 21  1  0  0  0
 16 31  1  0  0  0
 17 18  1  0  0  0
 17100  1  0  0  0
 18 19  2  0  0  0
 18101  1  0  0  0
 19 20  1  0  0  0
 19 24  1  0  0  0
 20 21  2  0  0  0
 20102  1  0  0  0
 21 23  1  0  0  0
 22 28  1  0  0  0
 22 32  2  0  0  0
 26 27  1  0  0  0
 28103  1  0  0  0
 28104  1  0  0  0
 29105  1  0  0  0
 29106  1  0  0  0
 33 34  1  0  0  0
 33 66  1  0  0  0
 33 70  2  0  0  0
 34 36  1  0  0  0
 34 59  1  0  0  0
 34107  1  0  0  0
 35 44  2  0  0  0
 35 45  1  0  0  0
 35 68  1  0  0  0
 36 56  1  0  0  0
 36108  1  0  0  0
 37 39  1  0  0  0
 37 47  1  0  0  0
 37 66  1  0  0  0
 37109  1  0  0  0
 38 43  2  0  0  0
 38 46  1  0  0  0
 38 47  1  0  0  0
 39 64  1  0  0  0
 39 67  2  0  0  0
 40 52  1  0  0  0
 40 53  2  0  0  0
 40 58  1  0  0  0
 41110  1  0  0  0
 41111  1  0  0  0
 41112  1  0  0  0
 41 48  1  0  0  0
 42 43  1  0  0  0
 42 66  1  0  0  0
 42113  1  0  0  0
 42114  1  0  0  0
 43 44  1  0  0  0
 44115  1  0  0  0
 45 46  2  0  0  0
 45116  1  0  0  0
 46117  1  0  0  0
 47118  1  0  0  0
 47119  1  0  0  0
 48 56  1  0  0  0
 48 65  1  0  0  0
 48120  1  0  0  0
 49 50  1  0  0  0
 49 53  1  0  0  0
 49 64  1  0  0  0
 49121  1  0  0  0
 50 51  1  0  0  0
 50122  1  0  0  0
 50123  1  0  0  0
 51 52  1  0  0  0
 51124  1  0  0  0
 51125  1  0  0  0
 52126  1  0  0  0
 52127  1  0  0  0
 53 54  1  0  0  0
 54 55  2  0  0  0
 54128  1  0  0  0
 55 57  1  0  0  0
 55129  1  0  0  0
 56 69  2  0  0  0
 57 58  2  0  0  0
 57130  1  0  0  0
 58131  1  0  0  0
 59 60  1  0  0  0
 59 61  1  0  0  0
 59 62  1  0  0  0
 60132  1  0  0  0
 60133  1  0  0  0
 60134  1  0  0  0
 61135  1  0  0  0
 61136  1  0  0  0
 61137  1  0  0  0
 62138  1  0  0  0
 62139  1  0  0  0
 62140  1  0  0  0
 63 65  1  0  0  0
 63141  1  0  0  0
 63142  1  0  0  0
 63143  1  0  0  0
 64144  1  0  0  0
 65145  1  0  0  0
 68 79  1  0  0  0
 71 72  2  0  0  0
 71 83  1  0  0  0
 71146  1  0  0  0
 72 79  1  0  0  0
 72 84  1  0  0  0
 73 74  1  0  0  0
 73 77  1  0  0  0
 73 84  2  0  0  0
 74 78  1  0  0  0
 74 83  2  0  0  0
 75 77  1  0  0  0
 75147  1  0  0  0
 75148  1  0  0  0
 75149  1  0  0  0
 76150  1  0  0  0
 76151  1  0  0  0
 76152  1  0  0  0
 76 86  1  0  0  0
 77153  1  0  0  0
 77154  1  0  0  0
 78 86  1  0  0  0
 78155  1  0  0  0
 78156  1  0  0  0
 79157  1  0  0  0
 79158  1  0  0  0
 80 81  1  0  0  0
 80 82  1  0  0  0
 80159  1  0  0  0
 80160  1  0  0  0
 81 85  1  0  0  0
 81161  1  0  0  0
 81162  1  0  0  0
 82 86  1  0  0  0
 82163  1  0  0  0
 82164  1  0  0  0
 85165  1  0  0  0
 86166  1  0  0  0
M  CHG  1  86   1
M  ISO  4   1 100  68 101  79 101  85 100
M  END
> <chiral flag>
0

> <version>
0

> <s_m_source_file>
/data/baiqing/PycharmProjects/Reinvent-master-3.2/result/LINK_invent/BTK/process_docking_weight1_custom_sum_contain_oxygen_bond_distance_aromatic_linkinvent_7_9_3/rearranged_h_0045.sdf

> <i_m_source_file_index>
90

> <r_mmod_Potential_Energy-OPLS-2005>
20533.263671875

> <r_mmod_Stretch_Energy-OPLS-2005>
10866.193359375

> <r_mmod_Bend_Energy-OPLS-2005>
2495.34619140625

> <r_mmod_Torsional_Energy-OPLS-2005>
501.089721679688

> <r_mmod_Improper_Torsional_Energy-OPLS-2005>
25.351224899292

> <r_mmod_Van_der_Waal_Energy-OPLS-2005>
3527.3955078125

> <r_mmod_Electrostatic_Energy-OPLS-2005>
-262.136657714844

> <r_mmod_Solvation_Energy-OPLS-2005>
-442.255737304688

> <b_mmod_Minimization_Converged-OPLS-2005>
0

> <r_mmod_RMS_Derivative-OPLS-2005>
3.03226780891418

$$$$
91
                    3D
 Structure written by MMmdl.
162170  0  0  1  0            999 V2000
  -30.6573  -14.7677   20.3758 C   0  0  0  0  0  0
  -30.4279  -12.4667   19.4412 C   0  0  0  0  0  0
  -29.4735  -12.4144   18.2286 C   0  0  0  0  0  0
  -28.0128  -12.2662   18.6760 C   0  0  0  0  0  0
  -27.6330  -13.2192   19.8397 C   0  0  2  0  0  0
  -28.6980  -13.2331   20.9532 C   0  0  0  0  0  0
  -25.2538  -13.8199   20.5768 C   0  0  0  0  0  0
  -24.1808  -13.0467   20.9245 C   0  0  0  0  0  0
  -24.6373  -11.6934   20.8838 C   0  0  0  0  0  0
  -23.9063  -10.4310   21.0466 C   0  0  0  0  0  0
  -24.3613   -9.4207   21.9238 C   0  0  0  0  0  0
  -23.6300   -8.2234   22.0773 C   0  0  0  0  0  0
  -22.4287   -8.0279   21.3545 C   0  0  0  0  0  0
  -21.9932   -9.0261   20.4641 C   0  0  0  0  0  0
  -22.7253  -10.2145   20.3087 C   0  0  0  0  0  0
  -21.6846   -6.0741   22.5276 C   0  0  0  0  0  0
  -21.4005   -6.5654   23.8203 C   0  0  0  0  0  0
  -21.3657   -5.6810   24.9175 C   0  0  0  0  0  0
  -21.6042   -4.3075   24.7225 C   0  0  0  0  0  0
  -21.8828   -3.8159   23.4354 C   0  0  0  0  0  0
  -21.9193   -4.6973   22.3402 C   0  0  0  0  0  0
  -22.7834  -13.5253   21.1879 C   0  0  0  0  0  0
  -22.1680   -4.2156   21.0986 F   0  0  0  0  0  0
  -21.5628   -3.4558   25.7740 F   0  0  0  0  0  0
  -29.9749  -13.5719   20.3123 N   0  0  0  0  0  0
  -26.2936  -12.9373   20.3404 N   0  0  0  0  0  0
  -25.9303  -11.6531   20.5917 N   0  0  0  0  0  0
  -22.0463  -12.8228   22.0395 N   0  0  0  0  0  0
  -25.4320  -15.1915   20.4143 N   0  0  0  0  0  0
  -31.8886  -14.7519   20.3183 O   0  0  0  0  0  0
  -21.6643   -6.8884   21.4229 O   0  0  0  0  0  0
  -22.3538  -14.5573   20.6732 O   0  0  0  0  0  0
  -24.6303  -31.8550   23.2013 C   0  0  0  0  0  0
  -25.9151  -32.4736   23.8326 C   0  0  1  0  0  0
  -27.2154  -27.2841   20.1288 C   0  0  0  0  0  0
  -25.5970  -33.8538   24.2271 N   0  0  0  0  0  0
  -23.4222  -30.4836   21.5425 C   0  0  2  0  0  0
  -24.8688  -28.9361   20.1048 C   0  0  0  0  0  0
  -22.7468  -29.4610   22.4886 C   0  0  0  0  0  0
  -18.0277  -28.1389   22.8460 C   0  0  0  0  0  0
  -24.1499  -36.7285   23.2628 C   0  0  0  0  0  0
  -25.9650  -30.7800   21.3722 C   0  0  0  0  0  0
  -26.0386  -29.4037   20.7173 C   0  0  0  0  0  0
  -27.2154  -28.5910   20.7185 C   0  0  0  0  0  0
  -26.0252  -26.8844   19.4787 C   0  0  0  0  0  0
  -24.8668  -27.6834   19.4744 C   0  0  0  0  0  0
  -23.6390  -29.8230   20.1550 C   0  0  0  0  0  0
  -25.4119  -36.3058   24.0318 C   0  0  1  0  0  0
  -20.5881  -28.3698   23.1250 C   0  0  2  0  0  0
  -20.6788  -26.9419   22.5391 C   0  0  0  0  0  0
  -19.5777  -26.6377   21.5186 C   0  0  0  0  0  0
  -18.1942  -26.7926   22.1591 C   0  0  0  0  0  0
  -19.1531  -28.8857   23.2855 C   0  0  0  0  0  0
  -18.9459  -30.1450   23.8894 C   0  0  0  0  0  0
  -17.6466  -30.6595   24.0552 C   0  0  0  0  0  0
  -25.9068  -34.9424   23.5095 C   0  0  0  0  0  0
  -16.5352  -29.9101   23.6323 C   0  0  0  0  0  0
  -16.7262  -28.6509   23.0349 C   0  0  0  0  0  0
  -26.4537  -31.6511   25.0673 C   0  0  0  0  0  0
  -25.3783  -31.3626   26.1398 C   0  0  0  0  0  0
  -27.0362  -30.2933   24.6103 C   0  0  0  0  0  0
  -27.6115  -32.4194   25.7472 C   0  0  0  0  0  0
  -27.5581  -37.1792   24.8461 C   0  0  0  0  0  0
  -21.4176  -29.3052   22.3637 N   0  0  0  0  0  0
  -26.4293  -37.3760   23.9407 N   0  0  0  0  0  0
  -24.6914  -31.0559   22.0962 N   0  0  0  0  0  0
  -23.4176  -28.8137   23.2968 O   0  0  0  0  0  0
  -28.3106  -26.3971   20.2067 O   0  0  0  0  0  0
  -26.5618  -34.8903   22.4647 O   0  0  0  0  0  0
  -23.5465  -32.1346   23.7349 O   0  0  0  0  0  0
  -30.4838  -21.7804   22.4168 C   0  0  0  0  0  0
  -31.0351  -20.6563   23.0706 C   0  0  0  0  0  0
  -29.6918  -21.2933   21.4083 C   0  0  0  0  0  0
  -31.0253  -15.9105   17.6591 C   0  0  0  0  0  0
  -28.6352  -16.6592   18.0988 C   0  0  0  0  0  0
  -28.8494  -22.2477   20.4968 C   0  0  0  0  0  0
  -29.0981  -23.8508   20.6414 C   0  0  0  0  0  0
  -29.3523  -18.6460   20.6996 C   0  0  0  0  0  0
  -30.0530  -17.1836   21.0328 C   0  0  0  0  0  0
  -28.0691  -24.9273   20.0416 C   0  0  0  0  0  0
  -30.0497  -16.5206   18.6915 C   0  0  0  0  0  0
  -30.6468  -19.5296   22.5172 N   0  0  0  0  0  0
  -29.8447  -19.8510   21.4717 N   0  0  0  0  0  0
  -29.9921  -15.9716   20.0869 N   0  0  0  0  0  0
  -31.4522  -12.6122   19.0947 H   0  0  0  0  0  0
  -30.4224  -11.5244   19.9916 H   0  0  0  0  0  0
  -29.7454  -11.5882   17.5706 H   0  0  0  0  0  0
  -29.5413  -13.3116   17.6266 H   0  0  0  0  0  0
  -27.8774  -11.2291   18.9831 H   0  0  0  0  0  0
  -27.3404  -12.4183   17.8308 H   0  0  0  0  0  0
  -27.6063  -14.2193   19.4149 H   0  0  0  0  0  0
  -28.7587  -12.2691   21.4598 H   0  0  0  0  0  0
  -28.4474  -13.9731   21.7137 H   0  0  0  0  0  0
  -25.2744   -9.5691   22.4837 H   0  0  0  0  0  0
  -23.9992   -7.4629   22.7498 H   0  0  0  0  0  0
  -21.0882   -8.8794   19.8932 H   0  0  0  0  0  0
  -22.3730  -10.9708   19.6216 H   0  0  0  0  0  0
  -21.1995   -7.6164   23.9712 H   0  0  0  0  0  0
  -21.1476   -6.0546   25.9079 H   0  0  0  0  0  0
  -22.0608   -2.7617   23.2851 H   0  0  0  0  0  0
  -22.4088  -11.9892   22.4791 H   0  0  0  0  0  0
  -21.1074  -13.1244   22.2604 H   0  0  0  0  0  0
  -24.6778  -15.8599   20.5261 H   0  0  0  0  0  0
  -26.3011  -15.6185   20.1195 H   0  0  0  0  0  0
  -26.7192  -32.5411   23.1050 H   0  0  0  0  0  0
  -25.0149  -33.9655   25.0441 H   0  0  0  0  0  0
  -22.7177  -31.3064   21.4026 H   0  0  0  0  0  0
  -23.3761  -35.9619   23.3266 H   0  0  0  0  0  0
  -24.3603  -36.8932   22.2050 H   0  0  0  0  0  0
  -23.7254  -37.6477   23.6671 H   0  0  0  0  0  0
  -26.0916  -31.5372   20.5964 H   0  0  0  0  0  0
  -26.8492  -30.8356   21.9949 H   0  0  0  0  0  0
  -28.1100  -28.9442   21.2134 H   0  0  0  0  0  0
  -25.9591  -25.9305   18.9769 H   0  0  0  0  0  0
  -23.9747  -27.3212   18.9823 H   0  0  0  0  0  0
  -23.7648  -30.6055   19.4046 H   0  0  0  0  0  0
  -22.7552  -29.2613   19.8468 H   0  0  0  0  0  0
  -25.1296  -36.1897   25.0809 H   0  0  0  0  0  0
  -20.9974  -28.3295   24.1372 H   0  0  0  0  0  0
  -20.5687  -26.2301   23.3591 H   0  0  0  0  0  0
  -21.6660  -26.7458   22.1197 H   0  0  0  0  0  0
  -19.6963  -25.6280   21.1239 H   0  0  0  0  0  0
  -19.6749  -27.3157   20.6698 H   0  0  0  0  0  0
  -17.4215  -26.6625   21.3998 H   0  0  0  0  0  0
  -18.0385  -26.0074   22.9003 H   0  0  0  0  0  0
  -19.7940  -30.7240   24.2288 H   0  0  0  0  0  0
  -17.5032  -31.6282   24.5137 H   0  0  0  0  0  0
  -15.5358  -30.3018   23.7654 H   0  0  0  0  0  0
  -15.8645  -28.0828   22.7100 H   0  0  0  0  0  0
  -24.6030  -30.6884   25.7729 H   0  0  0  0  0  0
  -24.8898  -32.2771   26.4768 H   0  0  0  0  0  0
  -25.8143  -30.8864   27.0188 H   0  0  0  0  0  0
  -26.2896  -29.6658   24.1218 H   0  0  0  0  0  0
  -27.4151  -29.7203   25.4570 H   0  0  0  0  0  0
  -27.8737  -30.4190   23.9242 H   0  0  0  0  0  0
  -27.2764  -33.3493   26.2076 H   0  0  0  0  0  0
  -28.3972  -32.6711   25.0334 H   0  0  0  0  0  0
  -28.0735  -31.8262   26.5378 H   0  0  0  0  0  0
  -28.2572  -38.0113   24.7531 H   0  0  0  0  0  0
  -28.1103  -36.2640   24.6269 H   0  0  0  0  0  0
  -27.2293  -37.1415   25.8861 H   0  0  0  0  0  0
  -20.9339  -29.8773   21.6853 H   0  0  0  0  0  0
  -26.0164  -38.2819   24.1447 H   0  0  0  0  0  0
  -30.6512  -22.8135   22.6812 H   0  0  0  0  0  0
  -31.7040  -20.6307   23.9204 H   0  0  0  0  0  0
  -31.0765  -16.5751   16.7937 H   0  0  0  0  0  0
  -30.7262  -14.9439   17.2740 H   0  0  0  0  0  0
  -32.0479  -15.8379   18.0331 H   0  0  0  0  0  0
  -28.1874  -15.6917   17.8769 H   0  0  0  0  0  0
  -28.6557  -17.2248   17.1659 H   0  0  0  0  0  0
  -27.9601  -17.1869   18.7743 H   0  0  0  0  0  0
  -27.7974  -22.0569   20.7062 H   0  0  0  0  0  0
  -28.9882  -21.9592   19.4550 H   0  0  0  0  0  0
  -30.0905  -24.0720   20.2487 H   0  0  0  0  0  0
  -29.1485  -24.0869   21.7034 H   0  0  0  0  0  0
  -28.2804  -18.5633   20.8788 H   0  0  0  0  0  0
  -29.4279  -18.9453   19.6574 H   0  0  0  0  0  0
  -29.6660  -16.8509   21.9971 H   0  0  0  0  0  0
  -31.1177  -17.3513   21.2007 H   0  0  0  0  0  0
  -27.1067  -24.6886   20.4957 H   0  0  0  0  0  0
  -27.9553  -24.7315   18.9741 H   0  0  0  0  0  0
  -30.5007  -17.5080   18.7405 H   0  0  0  0  0  0
  1 25  1  0  0  0
  1 30  2  0  0  0
  1 84  1  0  0  0
  2  3  1  0  0  0
  2 25  1  0  0  0
  2 85  1  0  0  0
  2 86  1  0  0  0
  3  4  1  0  0  0
  3 87  1  0  0  0
  3 88  1  0  0  0
  4  5  1  0  0  0
  4 89  1  0  0  0
  4 90  1  0  0  0
  5  6  1  0  0  0
  5 26  1  0  0  0
  5 91  1  0  0  0
  6 25  1  0  0  0
  6 92  1  0  0  0
  6 93  1  0  0  0
  7  8  2  0  0  0
  7 26  1  0  0  0
  7 29  1  0  0  0
  8  9  1  0  0  0
  8 22  1  0  0  0
  9 10  1  0  0  0
  9 27  2  0  0  0
 10 11  2  0  0  0
 10 15  1  0  0  0
 11 12  1  0  0  0
 11 94  1  0  0  0
 12 13  2  0  0  0
 12 95  1  0  0  0
 13 14  1  0  0  0
 13 31  1  0  0  0
 14 15  2  0  0  0
 14 96  1  0  0  0
 15 97  1  0  0  0
 16 17  2  0  0  0
 16 21  1  0  0  0
 16 31  1  0  0  0
 17 18  1  0  0  0
 17 98  1  0  0  0
 18 19  2  0  0  0
 18 99  1  0  0  0
 19 20  1  0  0  0
 19 24  1  0  0  0
 20 21  2  0  0  0
 20100  1  0  0  0
 21 23  1  0  0  0
 22 28  1  0  0  0
 22 32  2  0  0  0
 26 27  1  0  0  0
 28101  1  0  0  0
 28102  1  0  0  0
 29103  1  0  0  0
 29104  1  0  0  0
 33 34  1  0  0  0
 33 66  1  0  0  0
 33 70  2  0  0  0
 34 36  1  0  0  0
 34 59  1  0  0  0
 34105  1  0  0  0
 35 44  2  0  0  0
 35 45  1  0  0  0
 35 68  1  0  0  0
 36 56  1  0  0  0
 36106  1  0  0  0
 37 39  1  0  0  0
 37 47  1  0  0  0
 37 66  1  0  0  0
 37107  1  0  0  0
 38 43  2  0  0  0
 38 46  1  0  0  0
 38 47  1  0  0  0
 39 64  1  0  0  0
 39 67  2  0  0  0
 40 52  1  0  0  0
 40 53  2  0  0  0
 40 58  1  0  0  0
 41108  1  0  0  0
 41109  1  0  0  0
 41110  1  0  0  0
 41 48  1  0  0  0
 42 43  1  0  0  0
 42 66  1  0  0  0
 42111  1  0  0  0
 42112  1  0  0  0
 43 44  1  0  0  0
 44113  1  0  0  0
 45 46  2  0  0  0
 45114  1  0  0  0
 46115  1  0  0  0
 47116  1  0  0  0
 47117  1  0  0  0
 48 56  1  0  0  0
 48 65  1  0  0  0
 48118  1  0  0  0
 49 50  1  0  0  0
 49 53  1  0  0  0
 49 64  1  0  0  0
 49119  1  0  0  0
 50 51  1  0  0  0
 50120  1  0  0  0
 50121  1  0  0  0
 51 52  1  0  0  0
 51122  1  0  0  0
 51123  1  0  0  0
 52124  1  0  0  0
 52125  1  0  0  0
 53 54  1  0  0  0
 54 55  2  0  0  0
 54126  1  0  0  0
 55 57  1  0  0  0
 55127  1  0  0  0
 56 69  2  0  0  0
 57 58  2  0  0  0
 57128  1  0  0  0
 58129  1  0  0  0
 59 60  1  0  0  0
 59 61  1  0  0  0
 59 62  1  0  0  0
 60130  1  0  0  0
 60131  1  0  0  0
 60132  1  0  0  0
 61133  1  0  0  0
 61134  1  0  0  0
 61135  1  0  0  0
 62136  1  0  0  0
 62137  1  0  0  0
 62138  1  0  0  0
 63 65  1  0  0  0
 63139  1  0  0  0
 63140  1  0  0  0
 63141  1  0  0  0
 64142  1  0  0  0
 65143  1  0  0  0
 68 80  1  0  0  0
 71 72  1  0  0  0
 71 73  2  0  0  0
 71144  1  0  0  0
 72 82  2  0  0  0
 72145  1  0  0  0
 73 76  1  0  0  0
 73 83  1  0  0  0
 74146  1  0  0  0
 74147  1  0  0  0
 74148  1  0  0  0
 74 81  1  0  0  0
 75 81  1  0  0  0
 75149  1  0  0  0
 75150  1  0  0  0
 75151  1  0  0  0
 76 77  1  0  0  0
 76152  1  0  0  0
 76153  1  0  0  0
 77 80  1  0  0  0
 77154  1  0  0  0
 77155  1  0  0  0
 78 79  1  0  0  0
 78 83  1  0  0  0
 78156  1  0  0  0
 78157  1  0  0  0
 79 84  1  0  0  0
 79158  1  0  0  0
 79159  1  0  0  0
 80160  1  0  0  0
 80161  1  0  0  0
 81 84  1  0  0  0
 81162  1  0  0  0
 82 83  1  0  0  0
M  ISO  4   1 100  68 101  80 101  84 100
M  END
> <chiral flag>
0

> <version>
0

> <s_m_source_file>
/data/baiqing/PycharmProjects/Reinvent-master-3.2/result/LINK_invent/BTK/process_docking_weight1_custom_sum_contain_oxygen_bond_distance_aromatic_linkinvent_7_9_3/rearranged_h_0045.sdf

> <i_m_source_file_index>
91

> <r_mmod_Potential_Energy-OPLS-2005>
431.486114501953

> <r_mmod_Stretch_Energy-OPLS-2005>
135.931427001953

> <r_mmod_Bend_Energy-OPLS-2005>
204.678421020508

> <r_mmod_Torsional_Energy-OPLS-2005>
325.718566894531

> <r_mmod_Improper_Torsional_Energy-OPLS-2005>
15.215799331665

> <r_mmod_Van_der_Waal_Energy-OPLS-2005>
135.392501831055

> <r_mmod_Electrostatic_Energy-OPLS-2005>
-282.679412841797

> <r_mmod_Solvation_Energy-OPLS-2005>
-205.398544311523

> <b_mmod_Minimization_Converged-OPLS-2005>
0

> <r_mmod_RMS_Derivative-OPLS-2005>
2.83368587493896

$$$$
92
                    3D
 Structure written by MMmdl.
148156  0  0  1  0            999 V2000
  -30.5985  -14.9640   20.4123 C   0  0  0  0  0  0
  -30.4298  -12.5916   19.5405 C   0  0  0  0  0  0
  -29.5468  -12.5347   18.2770 C   0  0  0  0  0  0
  -28.0679  -12.3382   18.6581 C   0  0  0  0  0  0
  -27.6218  -13.2725   19.8147 C   0  0  2  0  0  0
  -28.6504  -13.3514   20.9608 C   0  0  0  0  0  0
  -25.2370  -13.8228   20.5589 C   0  0  0  0  0  0
  -24.1748  -13.0393   20.9186 C   0  0  0  0  0  0
  -24.6435  -11.6929   20.8667 C   0  0  0  0  0  0
  -23.9129  -10.4270   21.0328 C   0  0  0  0  0  0
  -24.3684   -9.4200   21.9103 C   0  0  0  0  0  0
  -23.6339   -8.2254   22.0724 C   0  0  0  0  0  0
  -22.4306   -8.0284   21.3529 C   0  0  0  0  0  0
  -21.9936   -9.0250   20.4624 C   0  0  0  0  0  0
  -22.7297  -10.2115   20.3001 C   0  0  0  0  0  0
  -21.6886   -6.0717   22.5253 C   0  0  0  0  0  0
  -21.4028   -6.5622   23.8179 C   0  0  0  0  0  0
  -21.3671   -5.6793   24.9139 C   0  0  0  0  0  0
  -21.6072   -4.3048   24.7208 C   0  0  0  0  0  0
  -21.8835   -3.8141   23.4326 C   0  0  0  0  0  0
  -21.9224   -4.6950   22.3388 C   0  0  0  0  0  0
  -22.7761  -13.5127   21.1874 C   0  0  0  0  0  0
  -22.1678   -4.2138   21.0958 F   0  0  0  0  0  0
  -21.5643   -3.4539   25.7712 F   0  0  0  0  0  0
  -29.9477  -13.7259   20.3827 N   0  0  0  0  0  0
  -26.2828  -12.9547   20.3025 N   0  0  0  0  0  0
  -25.9370  -11.6651   20.5576 N   0  0  0  0  0  0
  -22.0480  -12.8088   22.0467 N   0  0  0  0  0  0
  -25.3857  -15.1973   20.4064 N   0  0  0  0  0  0
  -31.8072  -14.9338   20.1617 O   0  0  0  0  0  0
  -21.6669   -6.8894   21.4223 O   0  0  0  0  0  0
  -22.3396  -14.5397   20.6697 O   0  0  0  0  0  0
  -24.6459  -31.8435   23.1846 C   0  0  0  0  0  0
  -25.9242  -32.4674   23.8240 C   0  0  1  0  0  0
  -27.2175  -27.1305   20.1630 C   0  0  0  0  0  0
  -25.5985  -33.8481   24.2140 N   0  0  0  0  0  0
  -23.4491  -30.4643   21.5282 C   0  0  2  0  0  0
  -24.9006  -28.8897   20.1107 C   0  0  0  0  0  0
  -22.7579  -29.4552   22.4827 C   0  0  0  0  0  0
  -18.0289  -28.1410   22.8469 C   0  0  0  0  0  0
  -24.1500  -36.7279   23.2634 C   0  0  0  0  0  0
  -26.0066  -30.7202   21.3802 C   0  0  0  0  0  0
  -26.0780  -29.3297   20.7259 C   0  0  0  0  0  0
  -27.2411  -28.4694   20.7290 C   0  0  0  0  0  0
  -26.0096  -26.7924   19.5132 C   0  0  0  0  0  0
  -24.8793  -27.6352   19.4875 C   0  0  0  0  0  0
  -23.6795  -29.7936   20.1485 C   0  0  0  0  0  0
  -25.4122  -36.3004   24.0287 C   0  0  1  0  0  0
  -20.5915  -28.3734   23.1237 C   0  0  2  0  0  0
  -20.6789  -26.9438   22.5402 C   0  0  0  0  0  0
  -19.5767  -26.6374   21.5225 C   0  0  0  0  0  0
  -18.1940  -26.7926   22.1624 C   0  0  0  0  0  0
  -19.1547  -28.8890   23.2841 C   0  0  0  0  0  0
  -18.9465  -30.1481   23.8865 C   0  0  0  0  0  0
  -17.6465  -30.6597   24.0564 C   0  0  0  0  0  0
  -25.9084  -34.9391   23.5016 C   0  0  0  0  0  0
  -16.5360  -29.9089   23.6350 C   0  0  0  0  0  0
  -16.7275  -28.6528   23.0349 C   0  0  0  0  0  0
  -26.4537  -31.6562   25.0713 C   0  0  0  0  0  0
  -25.3709  -31.3834   26.1412 C   0  0  0  0  0  0
  -27.0401  -30.2929   24.6351 C   0  0  0  0  0  0
  -27.6024  -32.4353   25.7543 C   0  0  0  0  0  0
  -27.5569  -37.1785   24.8445 C   0  0  0  0  0  0
  -21.4264  -29.3059   22.3615 N   0  0  0  0  0  0
  -26.4263  -37.3728   23.9400 N   0  0  0  0  0  0
  -24.7203  -31.0310   22.0863 N   0  0  0  0  0  0
  -23.4230  -28.8070   23.2960 O   0  0  0  0  0  0
  -28.2716  -26.1453   20.2295 O   0  0  0  0  0  0
  -26.5666  -34.8907   22.4600 O   0  0  0  0  0  0
  -23.5580  -32.1313   23.7062 O   0  0  0  0  0  0
  -28.5982  -16.8522   20.7235 C   0  0  0  0  0  0
  -30.5429  -17.7133   20.3182 C   0  0  0  0  0  0
  -29.9495  -16.4394   20.4980 C   0  0  0  0  0  0
  -28.7223  -21.6618   20.5215 C   0  0  0  0  0  0
  -29.0675  -23.3188   20.3293 C   0  0  0  0  0  0
  -29.7879  -20.3895   20.1900 C   0  0  0  0  0  0
  -27.9749  -24.6115   20.2854 C   0  0  0  0  0  0
  -28.4020  -18.2040   20.6453 N   0  0  0  0  0  0
  -29.6040  -18.8182   20.4075 N   0  0  0  0  0  0
  -31.4739  -12.7040   19.2512 H   0  0  0  0  0  0
  -30.3771  -11.6528   20.0942 H   0  0  0  0  0  0
  -29.8828  -11.7291   17.6223 H   0  0  0  0  0  0
  -29.6694  -13.4628   17.7165 H   0  0  0  0  0  0
  -27.9499  -11.2943   18.9496 H   0  0  0  0  0  0
  -27.4363  -12.4907   17.7830 H   0  0  0  0  0  0
  -27.5674  -14.2669   19.3705 H   0  0  0  0  0  0
  -28.7126  -12.4043   21.4975 H   0  0  0  0  0  0
  -28.3362  -14.0973   21.6918 H   0  0  0  0  0  0
  -25.2855   -9.5678   22.4620 H   0  0  0  0  0  0
  -24.0076   -7.4666   22.7434 H   0  0  0  0  0  0
  -21.0885   -8.8786   19.8919 H   0  0  0  0  0  0
  -22.3772  -10.9637   19.6093 H   0  0  0  0  0  0
  -21.1980   -7.6121   23.9677 H   0  0  0  0  0  0
  -21.1482   -6.0490   25.9046 H   0  0  0  0  0  0
  -22.0605   -2.7603   23.2813 H   0  0  0  0  0  0
  -22.4219  -11.9810   22.4870 H   0  0  0  0  0  0
  -21.1028  -13.0962   22.2614 H   0  0  0  0  0  0
  -24.6104  -15.8305   20.5652 H   0  0  0  0  0  0
  -26.1979  -15.6629   20.0259 H   0  0  0  0  0  0
  -26.7323  -32.5269   23.0986 H   0  0  0  0  0  0
  -25.0123  -33.9595   25.0276 H   0  0  0  0  0  0
  -22.7506  -31.2887   21.3698 H   0  0  0  0  0  0
  -23.3726  -35.9650   23.3267 H   0  0  0  0  0  0
  -24.3599  -36.8971   22.2063 H   0  0  0  0  0  0
  -23.7308  -37.6478   23.6721 H   0  0  0  0  0  0
  -26.1629  -31.4705   20.6022 H   0  0  0  0  0  0
  -26.8767  -30.7703   22.0234 H   0  0  0  0  0  0
  -28.1434  -28.8064   21.2211 H   0  0  0  0  0  0
  -25.8981  -25.8371   19.0271 H   0  0  0  0  0  0
  -23.9763  -27.2928   18.9969 H   0  0  0  0  0  0
  -23.8287  -30.5663   19.3933 H   0  0  0  0  0  0
  -22.7929  -29.2419   19.8303 H   0  0  0  0  0  0
  -25.1316  -36.1791   25.0770 H   0  0  0  0  0  0
  -20.9990  -28.3318   24.1372 H   0  0  0  0  0  0
  -20.5707  -26.2345   23.3620 H   0  0  0  0  0  0
  -21.6656  -26.7450   22.1204 H   0  0  0  0  0  0
  -19.6934  -25.6270   21.1304 H   0  0  0  0  0  0
  -19.6716  -27.3142   20.6733 H   0  0  0  0  0  0
  -17.4208  -26.6660   21.4033 H   0  0  0  0  0  0
  -18.0346  -26.0082   22.9038 H   0  0  0  0  0  0
  -19.7947  -30.7322   24.2210 H   0  0  0  0  0  0
  -17.5016  -31.6270   24.5182 H   0  0  0  0  0  0
  -15.5358  -30.2990   23.7694 H   0  0  0  0  0  0
  -15.8673  -28.0850   22.7069 H   0  0  0  0  0  0
  -24.5772  -30.7327   25.7735 H   0  0  0  0  0  0
  -24.9069  -32.3093   26.4825 H   0  0  0  0  0  0
  -25.7958  -30.8962   27.0196 H   0  0  0  0  0  0
  -26.3043  -29.6630   24.1332 H   0  0  0  0  0  0
  -27.3944  -29.7266   25.4977 H   0  0  0  0  0  0
  -27.8989  -30.4130   23.9737 H   0  0  0  0  0  0
  -27.2522  -33.3597   26.2147 H   0  0  0  0  0  0
  -28.3848  -32.7003   25.0427 H   0  0  0  0  0  0
  -28.0680  -31.8482   26.5468 H   0  0  0  0  0  0
  -28.2520  -38.0127   24.7472 H   0  0  0  0  0  0
  -28.1103  -36.2646   24.6242 H   0  0  0  0  0  0
  -27.2308  -37.1420   25.8848 H   0  0  0  0  0  0
  -20.9451  -29.8843   21.6869 H   0  0  0  0  0  0
  -26.0104  -38.2787   24.1383 H   0  0  0  0  0  0
  -27.7456  -16.2252   20.9218 H   0  0  0  0  0  0
  -31.5852  -17.9332   20.1176 H   0  0  0  0  0  0
  -27.8041  -21.4621   19.9722 H   0  0  0  0  0  0
  -28.4367  -21.5462   21.5678 H   0  0  0  0  0  0
  -29.6457  -23.4021   19.4099 H   0  0  0  0  0  0
  -29.7814  -23.5604   21.1186 H   0  0  0  0  0  0
  -30.7213  -20.6408   20.6963 H   0  0  0  0  0  0
  -30.0317  -20.4956   19.1319 H   0  0  0  0  0  0
  -27.3122  -24.4903   21.1454 H   0  0  0  0  0  0
  -27.3538  -24.3855   19.4225 H   0  0  0  0  0  0
  1 25  1  0  0  0
  1 30  2  0  0  0
  1 73  1  0  0  0
  2  3  1  0  0  0
  2 25  1  0  0  0
  2 80  1  0  0  0
  2 81  1  0  0  0
  3  4  1  0  0  0
  3 82  1  0  0  0
  3 83  1  0  0  0
  4  5  1  0  0  0
  4 84  1  0  0  0
  4 85  1  0  0  0
  5  6  1  0  0  0
  5 26  1  0  0  0
  5 86  1  0  0  0
  6 25  1  0  0  0
  6 87  1  0  0  0
  6 88  1  0  0  0
  7  8  2  0  0  0
  7 26  1  0  0  0
  7 29  1  0  0  0
  8  9  1  0  0  0
  8 22  1  0  0  0
  9 10  1  0  0  0
  9 27  2  0  0  0
 10 11  2  0  0  0
 10 15  1  0  0  0
 11 12  1  0  0  0
 11 89  1  0  0  0
 12 13  2  0  0  0
 12 90  1  0  0  0
 13 14  1  0  0  0
 13 31  1  0  0  0
 14 15  2  0  0  0
 14 91  1  0  0  0
 15 92  1  0  0  0
 16 17  2  0  0  0
 16 21  1  0  0  0
 16 31  1  0  0  0
 17 18  1  0  0  0
 17 93  1  0  0  0
 18 19  2  0  0  0
 18 94  1  0  0  0
 19 20  1  0  0  0
 19 24  1  0  0  0
 20 21  2  0  0  0
 20 95  1  0  0  0
 21 23  1  0  0  0
 22 28  1  0  0  0
 22 32  2  0  0  0
 26 27  1  0  0  0
 28 96  1  0  0  0
 28 97  1  0  0  0
 29 98  1  0  0  0
 29 99  1  0  0  0
 33 34  1  0  0  0
 33 66  1  0  0  0
 33 70  2  0  0  0
 34 36  1  0  0  0
 34 59  1  0  0  0
 34100  1  0  0  0
 35 44  2  0  0  0
 35 45  1  0  0  0
 35 68  1  0  0  0
 36 56  1  0  0  0
 36101  1  0  0  0
 37 39  1  0  0  0
 37 47  1  0  0  0
 37 66  1  0  0  0
 37102  1  0  0  0
 38 43  2  0  0  0
 38 46  1  0  0  0
 38 47  1  0  0  0
 39 64  1  0  0  0
 39 67  2  0  0  0
 40 52  1  0  0  0
 40 53  2  0  0  0
 40 58  1  0  0  0
 41103  1  0  0  0
 41104  1  0  0  0
 41105  1  0  0  0
 41 48  1  0  0  0
 42 43  1  0  0  0
 42 66  1  0  0  0
 42106  1  0  0  0
 42107  1  0  0  0
 43 44  1  0  0  0
 44108  1  0  0  0
 45 46  2  0  0  0
 45109  1  0  0  0
 46110  1  0  0  0
 47111  1  0  0  0
 47112  1  0  0  0
 48 56  1  0  0  0
 48 65  1  0  0  0
 48113  1  0  0  0
 49 50  1  0  0  0
 49 53  1  0  0  0
 49 64  1  0  0  0
 49114  1  0  0  0
 50 51  1  0  0  0
 50115  1  0  0  0
 50116  1  0  0  0
 51 52  1  0  0  0
 51117  1  0  0  0
 51118  1  0  0  0
 52119  1  0  0  0
 52120  1  0  0  0
 53 54  1  0  0  0
 54 55  2  0  0  0
 54121  1  0  0  0
 55 57  1  0  0  0
 55122  1  0  0  0
 56 69  2  0  0  0
 57 58  2  0  0  0
 57123  1  0  0  0
 58124  1  0  0  0
 59 60  1  0  0  0
 59 61  1  0  0  0
 59 62  1  0  0  0
 60125  1  0  0  0
 60126  1  0  0  0
 60127  1  0  0  0
 61128  1  0  0  0
 61129  1  0  0  0
 61130  1  0  0  0
 62131  1  0  0  0
 62132  1  0  0  0
 62133  1  0  0  0
 63 65  1  0  0  0
 63134  1  0  0  0
 63135  1  0  0  0
 63136  1  0  0  0
 64137  1  0  0  0
 65138  1  0  0  0
 68 77  1  0  0  0
 71 73  1  0  0  0
 71 78  2  0  0  0
 71139  1  0  0  0
 72 73  2  0  0  0
 72 79  1  0  0  0
 72140  1  0  0  0
 74 75  1  0  0  0
 74 76  1  0  0  0
 74141  1  0  0  0
 74142  1  0  0  0
 75 77  1  0  0  0
 75143  1  0  0  0
 75144  1  0  0  0
 76 79  1  0  0  0
 76145  1  0  0  0
 76146  1  0  0  0
 77147  1  0  0  0
 77148  1  0  0  0
 78 79  1  0  0  0
M  ISO  4   1 100  68 101  73 100  77 101
M  END
> <chiral flag>
0

> <version>
0

> <s_m_source_file>
/data/baiqing/PycharmProjects/Reinvent-master-3.2/result/LINK_invent/BTK/process_docking_weight1_custom_sum_contain_oxygen_bond_distance_aromatic_linkinvent_7_9_3/rearranged_h_0045.sdf

> <i_m_source_file_index>
92

> <r_mmod_Potential_Energy-OPLS-2005>
533.0224609375

> <r_mmod_Stretch_Energy-OPLS-2005>
267.118621826172

> <r_mmod_Bend_Energy-OPLS-2005>
281.650909423828

> <r_mmod_Torsional_Energy-OPLS-2005>
203.485488891602

> <r_mmod_Improper_Torsional_Energy-OPLS-2005>
4.81556558609009

> <r_mmod_Van_der_Waal_Energy-OPLS-2005>
109.411499023438

> <r_mmod_Electrostatic_Energy-OPLS-2005>
-332.699432373047

> <r_mmod_Solvation_Energy-OPLS-2005>
-203.285568237305

> <b_mmod_Minimization_Converged-OPLS-2005>
0

> <r_mmod_RMS_Derivative-OPLS-2005>
5.0116925239563

$$$$
93
                    3D
 Structure written by MMmdl.
154162  0  0  1  0            999 V2000
  -30.6235  -14.6334   20.4977 C   0  0  0  0  0  0
  -30.4374  -12.3863   19.4540 C   0  0  0  0  0  0
  -29.5035  -12.4888   18.2272 C   0  0  0  0  0  0
  -28.0279  -12.3312   18.6438 C   0  0  0  0  0  0
  -27.6520  -13.2120   19.8643 C   0  0  2  0  0  0
  -28.6961  -13.0750   20.9952 C   0  0  0  0  0  0
  -25.2559  -13.8165   20.5678 C   0  0  0  0  0  0
  -24.1828  -13.0446   20.9215 C   0  0  0  0  0  0
  -24.6391  -11.6912   20.8776 C   0  0  0  0  0  0
  -23.9075  -10.4300   21.0437 C   0  0  0  0  0  0
  -24.3625   -9.4201   21.9208 C   0  0  0  0  0  0
  -23.6292   -8.2240   22.0760 C   0  0  0  0  0  0
  -22.4276   -8.0292   21.3547 C   0  0  0  0  0  0
  -21.9923   -9.0270   20.4653 C   0  0  0  0  0  0
  -22.7256  -10.2147   20.3070 C   0  0  0  0  0  0
  -21.6851   -6.0740   22.5283 C   0  0  0  0  0  0
  -21.4010   -6.5645   23.8215 C   0  0  0  0  0  0
  -21.3655   -5.6793   24.9175 C   0  0  0  0  0  0
  -21.6046   -4.3063   24.7223 C   0  0  0  0  0  0
  -21.8821   -3.8156   23.4348 C   0  0  0  0  0  0
  -21.9188   -4.6969   22.3405 C   0  0  0  0  0  0
  -22.7853  -13.5237   21.1888 C   0  0  0  0  0  0
  -22.1661   -4.2159   21.0979 F   0  0  0  0  0  0
  -21.5626   -3.4541   25.7736 F   0  0  0  0  0  0
  -30.0087  -13.4125   20.4249 N   0  0  0  0  0  0
  -26.2982  -12.9335   20.3333 N   0  0  0  0  0  0
  -25.9314  -11.6507   20.5797 N   0  0  0  0  0  0
  -22.0493  -12.8205   22.0424 N   0  0  0  0  0  0
  -25.4278  -15.1879   20.4011 N   0  0  0  0  0  0
  -31.7921  -14.7919   20.1333 O   0  0  0  0  0  0
  -21.6636   -6.8885   21.4247 O   0  0  0  0  0  0
  -22.3540  -14.5545   20.6739 O   0  0  0  0  0  0
  -24.6254  -31.8573   23.2010 C   0  0  0  0  0  0
  -25.9080  -32.4755   23.8345 C   0  0  1  0  0  0
  -27.2315  -27.3273   20.1179 C   0  0  0  0  0  0
  -25.5892  -33.8559   24.2261 N   0  0  0  0  0  0
  -23.4205  -30.4783   21.5433 C   0  0  2  0  0  0
  -24.8670  -28.9258   20.1152 C   0  0  0  0  0  0
  -22.7467  -29.4614   22.4955 C   0  0  0  0  0  0
  -18.0275  -28.1401   22.8490 C   0  0  0  0  0  0
  -24.1499  -36.7302   23.2650 C   0  0  0  0  0  0
  -25.9583  -30.7908   21.3679 C   0  0  0  0  0  0
  -26.0354  -29.4177   20.7126 C   0  0  0  0  0  0
  -27.2219  -28.6316   20.6978 C   0  0  0  0  0  0
  -26.0432  -26.8727   19.5117 C   0  0  0  0  0  0
  -24.8719  -27.6571   19.5093 C   0  0  0  0  0  0
  -23.6350  -29.8059   20.1616 C   0  0  0  0  0  0
  -25.4113  -36.3060   24.0333 C   0  0  1  0  0  0
  -20.5874  -28.3706   23.1286 C   0  0  2  0  0  0
  -20.6771  -26.9435   22.5406 C   0  0  0  0  0  0
  -19.5752  -26.6403   21.5210 C   0  0  0  0  0  0
  -18.1927  -26.7935   22.1613 C   0  0  0  0  0  0
  -19.1531  -28.8863   23.2881 C   0  0  0  0  0  0
  -18.9458  -30.1457   23.8921 C   0  0  0  0  0  0
  -17.6460  -30.6606   24.0568 C   0  0  0  0  0  0
  -25.9056  -34.9425   23.5096 C   0  0  0  0  0  0
  -16.5351  -29.9107   23.6338 C   0  0  0  0  0  0
  -16.7265  -28.6524   23.0359 C   0  0  0  0  0  0
  -26.4476  -31.6565   25.0712 C   0  0  0  0  0  0
  -25.3729  -31.3641   26.1452 C   0  0  0  0  0  0
  -27.0316  -30.2998   24.6138 C   0  0  0  0  0  0
  -27.6056  -32.4295   25.7445 C   0  0  0  0  0  0
  -27.5571  -37.1784   24.8461 C   0  0  0  0  0  0
  -21.4184  -29.3046   22.3674 N   0  0  0  0  0  0
  -26.4289  -37.3749   23.9420 N   0  0  0  0  0  0
  -24.6875  -31.0592   22.0946 N   0  0  0  0  0  0
  -23.4173  -28.8164   23.3049 O   0  0  0  0  0  0
  -28.3796  -26.5273   20.1160 O   0  0  0  0  0  0
  -26.5658  -34.8893   22.4682 O   0  0  0  0  0  0
  -23.5430  -32.1375   23.7348 O   0  0  0  0  0  0
  -29.6539  -21.6794   19.1984 C   0  0  0  0  0  0
  -27.9479  -21.6816   20.8128 C   0  0  0  0  0  0
  -28.6858  -22.4480   19.8874 C   0  0  0  0  0  0
  -29.0278  -19.6925   20.2353 C   0  0  0  0  0  0
  -27.3523  -24.8944   21.7182 C   0  0  0  0  0  0
  -28.3831  -23.9526   19.5059 C   0  0  0  0  0  0
  -28.9509  -18.1141   20.1963 C   0  0  0  0  0  0
  -30.1129  -17.1861   20.7618 C   0  0  0  0  0  0
  -28.3737  -25.1179   20.5880 C   0  0  1  0  0  0
  -29.8066  -20.3338   19.3607 N   0  0  0  0  0  0
  -28.1282  -20.3411   20.9827 N   0  0  0  0  0  0
  -29.8193  -15.7009   20.7950 N   0  0  0  0  0  0
  -31.4765  -12.5166   19.1474 H   0  0  0  0  0  0
  -30.3814  -11.3933   19.9021 H   0  0  0  0  0  0
  -29.7650  -11.7236   17.4951 H   0  0  0  0  0  0
  -29.6439  -13.4505   17.7307 H   0  0  0  0  0  0
  -27.8686  -11.2793   18.8863 H   0  0  0  0  0  0
  -27.3695  -12.5509   17.8023 H   0  0  0  0  0  0
  -27.6705  -14.2440   19.5158 H   0  0  0  0  0  0
  -28.7073  -12.0586   21.3918 H   0  0  0  0  0  0
  -28.4464  -13.7205   21.8384 H   0  0  0  0  0  0
  -25.2763   -9.5671   22.4784 H   0  0  0  0  0  0
  -24.0007   -7.4622   22.7470 H   0  0  0  0  0  0
  -21.0859   -8.8800   19.8941 H   0  0  0  0  0  0
  -22.3737  -10.9694   19.6182 H   0  0  0  0  0  0
  -21.2007   -7.6152   23.9726 H   0  0  0  0  0  0
  -21.1470   -6.0521   25.9076 H   0  0  0  0  0  0
  -22.0602   -2.7619   23.2842 H   0  0  0  0  0  0
  -22.4106  -11.9842   22.4764 H   0  0  0  0  0  0
  -21.1119  -13.1226   22.2662 H   0  0  0  0  0  0
  -24.6592  -15.8416   20.4990 H   0  0  0  0  0  0
  -26.2585  -15.6132   20.0102 H   0  0  0  0  0  0
  -26.7140  -32.5430   23.1083 H   0  0  0  0  0  0
  -24.9949  -33.9711   25.0328 H   0  0  0  0  0  0
  -22.7151  -31.2979   21.3962 H   0  0  0  0  0  0
  -23.3737  -35.9659   23.3307 H   0  0  0  0  0  0
  -24.3610  -36.8959   22.2076 H   0  0  0  0  0  0
  -23.7280  -37.6501   23.6700 H   0  0  0  0  0  0
  -26.0842  -31.5496   20.5940 H   0  0  0  0  0  0
  -26.8413  -30.8429   21.9952 H   0  0  0  0  0  0
  -28.1270  -29.0098   21.1538 H   0  0  0  0  0  0
  -26.0186  -25.8975   19.0477 H   0  0  0  0  0  0
  -23.9724  -27.2713   19.0490 H   0  0  0  0  0  0
  -23.7506  -30.5792   19.4000 H   0  0  0  0  0  0
  -22.7569  -29.2316   19.8639 H   0  0  0  0  0  0
  -25.1269  -36.1905   25.0818 H   0  0  0  0  0  0
  -20.9952  -28.3299   24.1412 H   0  0  0  0  0  0
  -20.5682  -26.2321   23.3604 H   0  0  0  0  0  0
  -21.6639  -26.7480   22.1202 H   0  0  0  0  0  0
  -19.6928  -25.6309   21.1250 H   0  0  0  0  0  0
  -19.6700  -27.3215   20.6738 H   0  0  0  0  0  0
  -17.4189  -26.6682   21.4024 H   0  0  0  0  0  0
  -18.0343  -26.0079   22.9011 H   0  0  0  0  0  0
  -19.7937  -30.7251   24.2334 H   0  0  0  0  0  0
  -17.5021  -31.6300   24.5142 H   0  0  0  0  0  0
  -15.5347  -30.3006   23.7679 H   0  0  0  0  0  0
  -15.8657  -28.0846   22.7072 H   0  0  0  0  0  0
  -24.5940  -30.6949   25.7758 H   0  0  0  0  0  0
  -24.8861  -32.2768   26.4908 H   0  0  0  0  0  0
  -25.8075  -30.8802   27.0212 H   0  0  0  0  0  0
  -26.2866  -29.6726   24.1234 H   0  0  0  0  0  0
  -27.4097  -29.7255   25.4599 H   0  0  0  0  0  0
  -27.8694  -30.4277   23.9280 H   0  0  0  0  0  0
  -27.2721  -33.3635   26.1970 H   0  0  0  0  0  0
  -28.3871  -32.6796   25.0250 H   0  0  0  0  0  0
  -28.0716  -31.8447   26.5390 H   0  0  0  0  0  0
  -28.2542  -38.0114   24.7535 H   0  0  0  0  0  0
  -28.1096  -36.2640   24.6235 H   0  0  0  0  0  0
  -27.2311  -37.1402   25.8865 H   0  0  0  0  0  0
  -20.9373  -29.8751   21.6871 H   0  0  0  0  0  0
  -26.0159  -38.2813   24.1411 H   0  0  0  0  0  0
  -30.2738  -22.1278   18.4360 H   0  0  0  0  0  0
  -27.1450  -22.1191   21.3827 H   0  0  0  0  0  0
  -27.6267  -24.0398   22.3337 H   0  0  0  0  0  0
  -26.3527  -24.7183   21.3211 H   0  0  0  0  0  0
  -27.3003  -25.7534   22.3894 H   0  0  0  0  0  0
  -27.4249  -23.9577   18.9869 H   0  0  0  0  0  0
  -29.1092  -24.2333   18.7417 H   0  0  0  0  0  0
  -28.7771  -17.8352   19.1566 H   0  0  0  0  0  0
  -28.0337  -17.8284   20.7138 H   0  0  0  0  0  0
  -30.3353  -17.4988   21.7832 H   0  0  0  0  0  0
  -31.0215  -17.3724   20.1876 H   0  0  0  0  0  0
  -29.3498  -25.0421   21.0693 H   0  0  0  0  0  0
  -28.8820  -15.4437   21.0697 H   0  0  0  0  0  0
  1 25  1  0  0  0
  1 30  2  0  0  0
  1 82  1  0  0  0
  2  3  1  0  0  0
  2 25  1  0  0  0
  2 83  1  0  0  0
  2 84  1  0  0  0
  3  4  1  0  0  0
  3 85  1  0  0  0
  3 86  1  0  0  0
  4  5  1  0  0  0
  4 87  1  0  0  0
  4 88  1  0  0  0
  5  6  1  0  0  0
  5 26  1  0  0  0
  5 89  1  0  0  0
  6 25  1  0  0  0
  6 90  1  0  0  0
  6 91  1  0  0  0
  7  8  2  0  0  0
  7 26  1  0  0  0
  7 29  1  0  0  0
  8  9  1  0  0  0
  8 22  1  0  0  0
  9 10  1  0  0  0
  9 27  2  0  0  0
 10 11  2  0  0  0
 10 15  1  0  0  0
 11 12  1  0  0  0
 11 92  1  0  0  0
 12 13  2  0  0  0
 12 93  1  0  0  0
 13 14  1  0  0  0
 13 31  1  0  0  0
 14 15  2  0  0  0
 14 94  1  0  0  0
 15 95  1  0  0  0
 16 17  2  0  0  0
 16 21  1  0  0  0
 16 31  1  0  0  0
 17 18  1  0  0  0
 17 96  1  0  0  0
 18 19  2  0  0  0
 18 97  1  0  0  0
 19 20  1  0  0  0
 19 24  1  0  0  0
 20 21  2  0  0  0
 20 98  1  0  0  0
 21 23  1  0  0  0
 22 28  1  0  0  0
 22 32  2  0  0  0
 26 27  1  0  0  0
 28 99  1  0  0  0
 28100  1  0  0  0
 29101  1  0  0  0
 29102  1  0  0  0
 33 34  1  0  0  0
 33 66  1  0  0  0
 33 70  2  0  0  0
 34 36  1  0  0  0
 34 59  1  0  0  0
 34103  1  0  0  0
 35 44  2  0  0  0
 35 45  1  0  0  0
 35 68  1  0  0  0
 36 56  1  0  0  0
 36104  1  0  0  0
 37 39  1  0  0  0
 37 47  1  0  0  0
 37 66  1  0  0  0
 37105  1  0  0  0
 38 43  2  0  0  0
 38 46  1  0  0  0
 38 47  1  0  0  0
 39 64  1  0  0  0
 39 67  2  0  0  0
 40 52  1  0  0  0
 40 53  2  0  0  0
 40 58  1  0  0  0
 41106  1  0  0  0
 41107  1  0  0  0
 41108  1  0  0  0
 41 48  1  0  0  0
 42 43  1  0  0  0
 42 66  1  0  0  0
 42109  1  0  0  0
 42110  1  0  0  0
 43 44  1  0  0  0
 44111  1  0  0  0
 45 46  2  0  0  0
 45112  1  0  0  0
 46113  1  0  0  0
 47114  1  0  0  0
 47115  1  0  0  0
 48 56  1  0  0  0
 48 65  1  0  0  0
 48116  1  0  0  0
 49 50  1  0  0  0
 49 53  1  0  0  0
 49 64  1  0  0  0
 49117  1  0  0  0
 50 51  1  0  0  0
 50118  1  0  0  0
 50119  1  0  0  0
 51 52  1  0  0  0
 51120  1  0  0  0
 51121  1  0  0  0
 52122  1  0  0  0
 52123  1  0  0  0
 53 54  1  0  0  0
 54 55  2  0  0  0
 54124  1  0  0  0
 55 57  1  0  0  0
 55125  1  0  0  0
 56 69  2  0  0  0
 57 58  2  0  0  0
 57126  1  0  0  0
 58127  1  0  0  0
 59 60  1  0  0  0
 59 61  1  0  0  0
 59 62  1  0  0  0
 60128  1  0  0  0
 60129  1  0  0  0
 60130  1  0  0  0
 61131  1  0  0  0
 61132  1  0  0  0
 61133  1  0  0  0
 62134  1  0  0  0
 62135  1  0  0  0
 62136  1  0  0  0
 63 65  1  0  0  0
 63137  1  0  0  0
 63138  1  0  0  0
 63139  1  0  0  0
 64140  1  0  0  0
 65141  1  0  0  0
 68 79  1  0  0  0
 71 73  2  0  0  0
 71 80  1  0  0  0
 71142  1  0  0  0
 72 73  1  0  0  0
 72 81  2  0  0  0
 72143  1  0  0  0
 73 76  1  0  0  0
 74 77  1  0  0  0
 74 80  2  0  0  0
 74 81  1  0  0  0
 75144  1  0  0  0
 75145  1  0  0  0
 75146  1  0  0  0
 75 79  1  0  0  0
 76 79  1  0  0  0
 76147  1  0  0  0
 76148  1  0  0  0
 77 78  1  0  0  0
 77149  1  0  0  0
 77150  1  0  0  0
 78 82  1  0  0  0
 78151  1  0  0  0
 78152  1  0  0  0
 79153  1  0  0  0
 82154  1  0  0  0
M  ISO  4   1 100  68 101  79 101  82 100
M  END
> <chiral flag>
0

> <version>
0

> <s_m_source_file>
/data/baiqing/PycharmProjects/Reinvent-master-3.2/result/LINK_invent/BTK/process_docking_weight1_custom_sum_contain_oxygen_bond_distance_aromatic_linkinvent_7_9_3/rearranged_h_0045.sdf

> <i_m_source_file_index>
93

> <r_mmod_Potential_Energy-OPLS-2005>
-372.883941650391

> <r_mmod_Stretch_Energy-OPLS-2005>
77.307975769043

> <r_mmod_Bend_Energy-OPLS-2005>
150.025314331055

> <r_mmod_Torsional_Energy-OPLS-2005>
209.657333374023

> <r_mmod_Improper_Torsional_Energy-OPLS-2005>
6.89761734008789

> <r_mmod_Van_der_Waal_Energy-OPLS-2005>
144.098968505859

> <r_mmod_Electrostatic_Energy-OPLS-2005>
-770.361755371094

> <r_mmod_Solvation_Energy-OPLS-2005>
-234.225616455078

> <b_mmod_Minimization_Converged-OPLS-2005>
0

> <r_mmod_RMS_Derivative-OPLS-2005>
2.41129422187805

$$$$
