0
                    3D
 Structure written by MMmdl.
179187  0  0  1  0            999 V2000
  -30.6411  -14.5543   20.5507 C   0  0  0  0  0  0
  -30.4342  -12.3493   19.4590 C   0  0  0  0  0  0
  -29.5074  -12.5149   18.2323 C   0  0  0  0  0  0
  -28.0238  -12.3660   18.6316 C   0  0  0  0  0  0
  -27.6554  -13.2096   19.8819 C   0  0  2  0  0  0
  -28.6933  -13.0129   21.0129 C   0  0  0  0  0  0
  -25.2538  -13.8158   20.5703 C   0  0  0  0  0  0
  -24.1777  -13.0440   20.9177 C   0  0  0  0  0  0
  -24.6312  -11.6901   20.8700 C   0  0  0  0  0  0
  -23.8963  -10.4277   21.0358 C   0  0  0  0  0  0
  -24.3537   -9.4216   21.9133 C   0  0  0  0  0  0
  -23.6272   -8.2228   22.0704 C   0  0  0  0  0  0
  -22.4254   -8.0214   21.3495 C   0  0  0  0  0  0
  -21.9854   -9.0167   20.4610 C   0  0  0  0  0  0
  -22.7121  -10.2092   20.3013 C   0  0  0  0  0  0
  -21.6870   -6.0688   22.5268 C   0  0  0  0  0  0
  -21.4014   -6.5601   23.8195 C   0  0  0  0  0  0
  -21.3660   -5.6752   24.9164 C   0  0  0  0  0  0
  -21.6053   -4.3017   24.7221 C   0  0  0  0  0  0
  -21.8828   -3.8092   23.4344 C   0  0  0  0  0  0
  -21.9202   -4.6907   22.3388 C   0  0  0  0  0  0
  -22.7804  -13.5244   21.1866 C   0  0  0  0  0  0
  -22.1674   -4.2098   21.0976 F   0  0  0  0  0  0
  -21.5623   -3.4492   25.7737 F   0  0  0  0  0  0
  -30.0226  -13.3404   20.4682 N   0  0  0  0  0  0
  -26.2960  -12.9328   20.3384 N   0  0  0  0  0  0
  -25.9254  -11.6484   20.5742 N   0  0  0  0  0  0
  -22.0466  -12.8230   22.0445 N   0  0  0  0  0  0
  -25.4330  -15.1868   20.4116 N   0  0  0  0  0  0
  -31.7663  -14.7559   20.0812 O   0  0  0  0  0  0
  -21.6638   -6.8815   21.4226 O   0  0  0  0  0  0
  -22.3486  -14.5549   20.6706 O   0  0  0  0  0  0
  -24.6188  -31.8620   23.2034 C   0  0  0  0  0  0
  -25.9030  -32.4813   23.8363 C   0  0  1  0  0  0
  -27.2314  -27.3607   20.1053 C   0  0  0  0  0  0
  -25.5838  -33.8612   24.2273 N   0  0  0  0  0  0
  -23.4102  -30.4807   21.5488 C   0  0  2  0  0  0
  -24.8595  -28.9397   20.1145 C   0  0  0  0  0  0
  -22.7442  -29.4604   22.5007 C   0  0  0  0  0  0
  -18.0262  -28.1360   22.8498 C   0  0  0  0  0  0
  -24.1476  -36.7317   23.2639 C   0  0  0  0  0  0
  -25.9463  -30.8051   21.3663 C   0  0  0  0  0  0
  -26.0246  -29.4335   20.7129 C   0  0  0  0  0  0
  -27.2134  -28.6538   20.7005 C   0  0  0  0  0  0
  -26.0393  -26.9053   19.4932 C   0  0  0  0  0  0
  -24.8663  -27.6805   19.4974 C   0  0  0  0  0  0
  -23.6194  -29.8056   20.1670 C   0  0  0  0  0  0
  -25.4100  -36.3104   24.0330 C   0  0  1  0  0  0
  -20.5857  -28.3620   23.1320 C   0  0  2  0  0  0
  -20.6728  -26.9351   22.5421 C   0  0  0  0  0  0
  -19.5722  -26.6359   21.5202 C   0  0  0  0  0  0
  -18.1907  -26.7907   22.1626 C   0  0  0  0  0  0
  -19.1517  -28.8817   23.2901 C   0  0  0  0  0  0
  -18.9445  -30.1423   23.8906 C   0  0  0  0  0  0
  -17.6452  -30.6579   24.0541 C   0  0  0  0  0  0
  -25.9023  -34.9468   23.5114 C   0  0  0  0  0  0
  -16.5339  -29.9072   23.6330 C   0  0  0  0  0  0
  -16.7254  -28.6476   23.0382 C   0  0  0  0  0  0
  -26.4413  -31.6634   25.0733 C   0  0  0  0  0  0
  -25.3632  -31.3809   26.1465 C   0  0  0  0  0  0
  -27.0231  -30.3061   24.6161 C   0  0  0  0  0  0
  -27.6005  -32.4351   25.7490 C   0  0  0  0  0  0
  -27.5581  -37.1806   24.8453 C   0  0  0  0  0  0
  -21.4160  -29.2984   22.3749 N   0  0  0  0  0  0
  -26.4288  -37.3786   23.9406 N   0  0  0  0  0  0
  -24.6773  -31.0649   22.0973 N   0  0  0  0  0  0
  -23.4202  -28.8155   23.3062 O   0  0  0  0  0  0
  -28.3786  -26.5684   20.1423 O   0  0  0  0  0  0
  -26.5633  -34.8916   22.4704 O   0  0  0  0  0  0
  -23.5355  -32.1399   23.7385 O   0  0  0  0  0  0
  -31.4955  -17.5464   22.2729 C   0  0  0  0  0  0
  -32.4700  -18.3367   22.8765 C   0  0  0  0  0  0
  -30.7239  -18.0443   21.1992 C   0  0  0  0  0  0
  -30.8908  -19.4484   20.8300 C   0  0  0  0  0  0
  -32.0131  -20.0928   21.4432 C   0  0  0  0  0  0
  -32.5553  -21.4370   20.9946 C   0  0  0  0  0  0
  -28.8941  -19.5432   19.0897 C   0  0  0  0  0  0
  -31.2737  -23.7656   16.7379 C   0  0  0  0  0  0
  -28.9532  -24.0135   15.7916 C   0  0  0  0  0  0
  -29.7097  -24.2087   21.7660 C   0  0  0  0  0  0
  -29.8613  -16.9810   20.4737 C   0  0  0  0  0  0
  -29.2631  -22.8508   18.0321 C   0  0  0  0  0  0
  -28.2426  -25.1310   19.9046 C   0  0  0  0  0  0
  -30.0509  -20.2958   19.7787 C   0  0  1  0  0  0
  -29.7885  -23.9565   17.0802 C   0  0  0  0  0  0
  -29.5364  -24.2889   20.2375 C   0  0  2  0  0  0
  -29.8075  -22.8948   19.4902 C   0  0  1  0  0  0
  -32.7490  -19.5710   22.4426 N   0  0  0  0  0  0
  -29.8573  -15.5740   20.9676 N   0  0  0  0  0  0
  -29.5058  -21.6277   20.2793 N   0  3  0  0  0  0
  -31.4765  -12.4728   19.1604 H   0  0  0  0  0  0
  -30.3612  -11.3440   19.8744 H   0  0  0  0  0  0
  -29.7667  -11.7846   17.4651 H   0  0  0  0  0  0
  -29.6673  -13.4979   17.7857 H   0  0  0  0  0  0
  -27.8431  -11.3107   18.8355 H   0  0  0  0  0  0
  -27.3754  -12.6241   17.7918 H   0  0  0  0  0  0
  -27.6889  -14.2566   19.5788 H   0  0  0  0  0  0
  -28.6836  -11.9774   21.3576 H   0  0  0  0  0  0
  -28.4396  -13.6138   21.8886 H   0  0  0  0  0  0
  -25.2675   -9.5739   22.4704 H   0  0  0  0  0  0
  -23.9992   -7.4629   22.7420 H   0  0  0  0  0  0
  -21.0766   -8.8631   19.8945 H   0  0  0  0  0  0
  -22.3505  -10.9589   19.6099 H   0  0  0  0  0  0
  -21.2012   -7.6108   23.9680 H   0  0  0  0  0  0
  -21.1489   -6.0489   25.9075 H   0  0  0  0  0  0
  -22.0624   -2.7557   23.2851 H   0  0  0  0  0  0
  -22.4083  -11.9893   22.4855 H   0  0  0  0  0  0
  -21.1065  -13.1218   22.2622 H   0  0  0  0  0  0
  -24.6687  -15.8486   20.4889 H   0  0  0  0  0  0
  -26.2899  -15.6065   20.0748 H   0  0  0  0  0  0
  -26.7104  -32.5495   23.1127 H   0  0  0  0  0  0
  -24.9877  -33.9772   25.0340 H   0  0  0  0  0  0
  -22.6990  -31.2973   21.4053 H   0  0  0  0  0  0
  -23.3742  -35.9647   23.3299 H   0  0  0  0  0  0
  -24.3553  -36.8952   22.2053 H   0  0  0  0  0  0
  -23.7236  -37.6517   23.6671 H   0  0  0  0  0  0
  -26.0580  -31.5661   20.5927 H   0  0  0  0  0  0
  -26.8340  -30.8655   21.9847 H   0  0  0  0  0  0
  -28.1102  -29.0265   21.1741 H   0  0  0  0  0  0
  -25.9821  -25.9426   19.0085 H   0  0  0  0  0  0
  -23.9727  -27.2960   19.0259 H   0  0  0  0  0  0
  -23.7150  -30.5716   19.3984 H   0  0  0  0  0  0
  -22.7463  -29.2158   19.8834 H   0  0  0  0  0  0
  -25.1289  -36.1951   25.0827 H   0  0  0  0  0  0
  -20.9933  -28.3139   24.1446 H   0  0  0  0  0  0
  -20.5573  -26.2216   23.3597 H   0  0  0  0  0  0
  -21.6598  -26.7358   22.1240 H   0  0  0  0  0  0
  -19.6860  -25.6265   21.1237 H   0  0  0  0  0  0
  -19.6672  -27.3157   20.6723 H   0  0  0  0  0  0
  -17.4165  -26.6650   21.4044 H   0  0  0  0  0  0
  -18.0315  -26.0047   22.9021 H   0  0  0  0  0  0
  -19.7918  -30.7226   24.2298 H   0  0  0  0  0  0
  -17.5007  -31.6273   24.5118 H   0  0  0  0  0  0
  -15.5337  -30.2982   23.7653 H   0  0  0  0  0  0
  -15.8644  -28.0783   22.7142 H   0  0  0  0  0  0
  -24.5757  -30.7220   25.7781 H   0  0  0  0  0  0
  -24.8865  -32.3001   26.4888 H   0  0  0  0  0  0
  -25.7900  -30.8962   27.0251 H   0  0  0  0  0  0
  -26.2790  -29.6884   24.1116 H   0  0  0  0  0  0
  -27.3854  -29.7256   25.4656 H   0  0  0  0  0  0
  -27.8690  -30.4376   23.9411 H   0  0  0  0  0  0
  -27.2644  -33.3656   26.2076 H   0  0  0  0  0  0
  -28.3794  -32.6910   25.0297 H   0  0  0  0  0  0
  -28.0679  -31.8466   26.5395 H   0  0  0  0  0  0
  -28.2596  -38.0103   24.7503 H   0  0  0  0  0  0
  -28.1081  -36.2642   24.6271 H   0  0  0  0  0  0
  -27.2301  -37.1440   25.8853 H   0  0  0  0  0  0
  -20.9332  -29.8696   21.6958 H   0  0  0  0  0  0
  -26.0181  -38.2861   24.1420 H   0  0  0  0  0  0
  -31.3942  -16.5333   22.6308 H   0  0  0  0  0  0
  -33.0835  -17.9456   23.6742 H   0  0  0  0  0  0
  -32.6110  -21.5071   19.9099 H   0  0  0  0  0  0
  -33.5697  -21.5999   21.3614 H   0  0  0  0  0  0
  -31.9448  -22.2404   21.3883 H   0  0  0  0  0  0
  -29.2467  -18.6841   18.5246 H   0  0  0  0  0  0
  -28.3753  -20.1642   18.3618 H   0  0  0  0  0  0
  -28.1386  -19.2185   19.8054 H   0  0  0  0  0  0
  -31.6050  -24.5059   16.0090 H   0  0  0  0  0  0
  -31.4607  -22.7804   16.3110 H   0  0  0  0  0  0
  -31.9082  -23.8771   17.6164 H   0  0  0  0  0  0
  -29.2948  -24.8155   15.1346 H   0  0  0  0  0  0
  -27.9009  -24.2016   16.0082 H   0  0  0  0  0  0
  -29.0183  -23.0796   15.2323 H   0  0  0  0  0  0
  -29.6131  -25.1944   22.2230 H   0  0  0  0  0  0
  -30.6886  -23.8364   22.0590 H   0  0  0  0  0  0
  -28.9463  -23.5796   22.2249 H   0  0  0  0  0  0
  -30.1794  -16.9466   19.4326 H   0  0  0  0  0  0
  -28.8179  -17.2876   20.4868 H   0  0  0  0  0  0
  -29.5211  -21.9030   17.5632 H   0  0  0  0  0  0
  -28.1731  -22.8727   18.0598 H   0  0  0  0  0  0
  -27.4157  -24.7316   20.4971 H   0  0  0  0  0  0
  -27.9536  -25.0009   18.8652 H   0  0  0  0  0  0
  -30.7656  -20.5149   18.9835 H   0  0  0  0  0  0
  -29.6933  -24.9334   17.5518 H   0  0  0  0  0  0
  -30.3534  -24.9271   19.8926 H   0  0  0  0  0  0
  -30.8891  -22.8667   19.3766 H   0  0  0  0  0  0
  -29.0019  -15.2949   21.4246 H   0  0  0  0  0  0
  -29.8446  -21.7675   21.2161 H   0  0  0  0  0  0
  -28.5045  -21.5370   20.3604 H   0  0  0  0  0  0
  1 25  1  0  0  0
  1 30  2  0  0  0
  1 89  1  0  0  0
  2  3  1  0  0  0
  2 25  1  0  0  0
  2 91  1  0  0  0
  2 92  1  0  0  0
  3  4  1  0  0  0
  3 93  1  0  0  0
  3 94  1  0  0  0
  4  5  1  0  0  0
  4 95  1  0  0  0
  4 96  1  0  0  0
  5  6  1  0  0  0
  5 26  1  0  0  0
  5 97  1  0  0  0
  6 25  1  0  0  0
  6 98  1  0  0  0
  6 99  1  0  0  0
  7  8  2  0  0  0
  7 26  1  0  0  0
  7 29  1  0  0  0
  8  9  1  0  0  0
  8 22  1  0  0  0
  9 10  1  0  0  0
  9 27  2  0  0  0
 10 11  2  0  0  0
 10 15  1  0  0  0
 11 12  1  0  0  0
 11100  1  0  0  0
 12 13  2  0  0  0
 12101  1  0  0  0
 13 14  1  0  0  0
 13 31  1  0  0  0
 14 15  2  0  0  0
 14102  1  0  0  0
 15103  1  0  0  0
 16 17  2  0  0  0
 16 21  1  0  0  0
 16 31  1  0  0  0
 17 18  1  0  0  0
 17104  1  0  0  0
 18 19  2  0  0  0
 18105  1  0  0  0
 19 20  1  0  0  0
 19 24  1  0  0  0
 20 21  2  0  0  0
 20106  1  0  0  0
 21 23  1  0  0  0
 22 28  1  0  0  0
 22 32  2  0  0  0
 26 27  1  0  0  0
 28107  1  0  0  0
 28108  1  0  0  0
 29109  1  0  0  0
 29110  1  0  0  0
 33 34  1  0  0  0
 33 66  1  0  0  0
 33 70  2  0  0  0
 34 36  1  0  0  0
 34 59  1  0  0  0
 34111  1  0  0  0
 35 44  2  0  0  0
 35 45  1  0  0  0
 35 68  1  0  0  0
 36 56  1  0  0  0
 36112  1  0  0  0
 37 39  1  0  0  0
 37 47  1  0  0  0
 37 66  1  0  0  0
 37113  1  0  0  0
 38 43  2  0  0  0
 38 46  1  0  0  0
 38 47  1  0  0  0
 39 64  1  0  0  0
 39 67  2  0  0  0
 40 52  1  0  0  0
 40 53  2  0  0  0
 40 58  1  0  0  0
 41114  1  0  0  0
 41115  1  0  0  0
 41116  1  0  0  0
 41 48  1  0  0  0
 42 43  1  0  0  0
 42 66  1  0  0  0
 42117  1  0  0  0
 42118  1  0  0  0
 43 44  1  0  0  0
 44119  1  0  0  0
 45 46  2  0  0  0
 45120  1  0  0  0
 46121  1  0  0  0
 47122  1  0  0  0
 47123  1  0  0  0
 48 56  1  0  0  0
 48 65  1  0  0  0
 48124  1  0  0  0
 49 50  1  0  0  0
 49 53  1  0  0  0
 49 64  1  0  0  0
 49125  1  0  0  0
 50 51  1  0  0  0
 50126  1  0  0  0
 50127  1  0  0  0
 51 52  1  0  0  0
 51128  1  0  0  0
 51129  1  0  0  0
 52130  1  0  0  0
 52131  1  0  0  0
 53 54  1  0  0  0
 54 55  2  0  0  0
 54132  1  0  0  0
 55 57  1  0  0  0
 55133  1  0  0  0
 56 69  2  0  0  0
 57 58  2  0  0  0
 57134  1  0  0  0
 58135  1  0  0  0
 59 60  1  0  0  0
 59 61  1  0  0  0
 59 62  1  0  0  0
 60136  1  0  0  0
 60137  1  0  0  0
 60138  1  0  0  0
 61139  1  0  0  0
 61140  1  0  0  0
 61141  1  0  0  0
 62142  1  0  0  0
 62143  1  0  0  0
 62144  1  0  0  0
 63 65  1  0  0  0
 63145  1  0  0  0
 63146  1  0  0  0
 63147  1  0  0  0
 64148  1  0  0  0
 65149  1  0  0  0
 68 83  1  0  0  0
 71 72  2  0  0  0
 71 73  1  0  0  0
 71150  1  0  0  0
 72 88  1  0  0  0
 72151  1  0  0  0
 73 74  2  0  0  0
 73 81  1  0  0  0
 74 75  1  0  0  0
 74 84  1  0  0  0
 75 76  1  0  0  0
 75 88  2  0  0  0
 76152  1  0  0  0
 76153  1  0  0  0
 76154  1  0  0  0
 77155  1  0  0  0
 77156  1  0  0  0
 77157  1  0  0  0
 77 84  1  0  0  0
 78158  1  0  0  0
 78159  1  0  0  0
 78160  1  0  0  0
 78 85  1  0  0  0
 79 85  1  0  0  0
 79161  1  0  0  0
 79162  1  0  0  0
 79163  1  0  0  0
 80164  1  0  0  0
 80165  1  0  0  0
 80166  1  0  0  0
 80 86  1  0  0  0
 81 89  1  0  0  0
 81167  1  0  0  0
 81168  1  0  0  0
 82 85  1  0  0  0
 82169  1  0  0  0
 82170  1  0  0  0
 82 87  1  0  0  0
 83 86  1  0  0  0
 83171  1  0  0  0
 83172  1  0  0  0
 84 90  1  0  0  0
 84173  1  0  0  0
 85174  1  0  0  0
 86 87  1  0  0  0
 86175  1  0  0  0
 87 90  1  0  0  0
 87176  1  0  0  0
 89177  1  0  0  0
 90178  1  0  0  0
 90179  1  0  0  0
M  CHG  1  90   1
M  ISO  4   1 100  68 101  83 101  89 100
M  END
> <chiral flag>
0

> <version>
0

> <s_m_source_file>
/data/baiqing/PycharmProjects/Reinvent-master-3.2/result/LINK_invent/BTK/process_docking_weight1_custom_sum_contain_oxygen_bond_distance_aromatic_linkinvent_7_9_3/rearranged_h_0094.sdf

> <i_m_source_file_index>
1

> <r_mmod_Potential_Energy-OPLS-2005>
-226.861343383789

> <r_mmod_Stretch_Energy-OPLS-2005>
81.3689117431641

> <r_mmod_Bend_Energy-OPLS-2005>
156.56477355957

> <r_mmod_Torsional_Energy-OPLS-2005>
256.232299804688

> <r_mmod_Improper_Torsional_Energy-OPLS-2005>
7.12818670272827

> <r_mmod_Van_der_Waal_Energy-OPLS-2005>
166.837387084961

> <r_mmod_Electrostatic_Energy-OPLS-2005>
-453.665924072266

> <r_mmod_Solvation_Energy-OPLS-2005>
-469.185424804688

> <b_mmod_Minimization_Converged-OPLS-2005>
0

> <r_mmod_RMS_Derivative-OPLS-2005>
3.90215945243835

$$$$
1
                    3D
 Structure written by MMmdl.
182190  0  0  1  0            999 V2000
  -30.6956  -14.4194   20.5919 C   0  0  0  0  0  0
  -30.4275  -12.2779   19.4127 C   0  0  0  0  0  0
  -29.4960  -12.5128   18.2049 C   0  0  0  0  0  0
  -28.0136  -12.3859   18.6121 C   0  0  0  0  0  0
  -27.6698  -13.1993   19.8888 C   0  0  2  0  0  0
  -28.7089  -12.9278   21.0017 C   0  0  0  0  0  0
  -25.2620  -13.8153   20.5694 C   0  0  0  0  0  0
  -24.1850  -13.0448   20.9167 C   0  0  0  0  0  0
  -24.6388  -11.6903   20.8728 C   0  0  0  0  0  0
  -23.9049  -10.4302   21.0403 C   0  0  0  0  0  0
  -24.3598   -9.4226   21.9190 C   0  0  0  0  0  0
  -23.6282   -8.2255   22.0760 C   0  0  0  0  0  0
  -22.4274   -8.0286   21.3535 C   0  0  0  0  0  0
  -21.9905   -9.0252   20.4638 C   0  0  0  0  0  0
  -22.7227  -10.2138   20.3047 C   0  0  0  0  0  0
  -21.6846   -6.0731   22.5278 C   0  0  0  0  0  0
  -21.4011   -6.5636   23.8208 C   0  0  0  0  0  0
  -21.3664   -5.6790   24.9175 C   0  0  0  0  0  0
  -21.6046   -4.3051   24.7224 C   0  0  0  0  0  0
  -21.8821   -3.8145   23.4347 C   0  0  0  0  0  0
  -21.9191   -4.6962   22.3405 C   0  0  0  0  0  0
  -22.7876  -13.5255   21.1833 C   0  0  0  0  0  0
  -22.1657   -4.2146   21.0980 F   0  0  0  0  0  0
  -21.5637   -3.4539   25.7737 F   0  0  0  0  0  0
  -30.0479  -13.2329   20.4627 N   0  0  0  0  0  0
  -26.3064  -12.9304   20.3425 N   0  0  0  0  0  0
  -25.9317  -11.6475   20.5776 N   0  0  0  0  0  0
  -22.0492  -12.8235   22.0364 N   0  0  0  0  0  0
  -25.4375  -15.1868   20.4119 N   0  0  0  0  0  0
  -31.7921  -14.6609   20.0785 O   0  0  0  0  0  0
  -21.6632   -6.8882   21.4242 O   0  0  0  0  0  0
  -22.3572  -14.5569   20.6699 O   0  0  0  0  0  0
  -24.6127  -31.8684   23.2094 C   0  0  0  0  0  0
  -25.9030  -32.4819   23.8384 C   0  0  1  0  0  0
  -27.2396  -27.4421   20.0859 C   0  0  0  0  0  0
  -25.5900  -33.8618   24.2321 N   0  0  0  0  0  0
  -23.3998  -30.4895   21.5509 C   0  0  2  0  0  0
  -24.8455  -28.9510   20.1208 C   0  0  0  0  0  0
  -22.7413  -29.4642   22.5014 C   0  0  0  0  0  0
  -18.0276  -28.1351   22.8474 C   0  0  0  0  0  0
  -24.1498  -36.7293   23.2635 C   0  0  0  0  0  0
  -25.9298  -30.8318   21.3650 C   0  0  0  0  0  0
  -26.0056  -29.4689   20.7079 C   0  0  0  0  0  0
  -27.2042  -28.7224   20.6810 C   0  0  0  0  0  0
  -26.0534  -26.9251   19.5133 C   0  0  0  0  0  0
  -24.8628  -27.6775   19.5259 C   0  0  0  0  0  0
  -23.6066  -29.8162   20.1684 C   0  0  0  0  0  0
  -25.4128  -36.3096   24.0332 C   0  0  1  0  0  0
  -20.5857  -28.3631   23.1310 C   0  0  2  0  0  0
  -20.6768  -26.9373   22.5402 C   0  0  0  0  0  0
  -19.5759  -26.6368   21.5181 C   0  0  0  0  0  0
  -18.1924  -26.7899   22.1583 C   0  0  0  0  0  0
  -19.1523  -28.8811   23.2872 C   0  0  0  0  0  0
  -18.9458  -30.1407   23.8884 C   0  0  0  0  0  0
  -17.6461  -30.6559   24.0552 C   0  0  0  0  0  0
  -25.9053  -34.9468   23.5117 C   0  0  0  0  0  0
  -16.5352  -29.9063   23.6331 C   0  0  0  0  0  0
  -16.7266  -28.6474   23.0353 C   0  0  0  0  0  0
  -26.4465  -31.6612   25.0722 C   0  0  0  0  0  0
  -25.3721  -31.3687   26.1450 C   0  0  0  0  0  0
  -27.0351  -30.3070   24.6108 C   0  0  0  0  0  0
  -27.6015  -32.4365   25.7492 C   0  0  0  0  0  0
  -27.5587  -37.1810   24.8468 C   0  0  0  0  0  0
  -21.4147  -29.3005   22.3739 N   0  0  0  0  0  0
  -26.4316  -37.3779   23.9397 N   0  0  0  0  0  0
  -24.6649  -31.0777   22.0980 N   0  0  0  0  0  0
  -23.4187  -28.8196   23.3058 O   0  0  0  0  0  0
  -28.4516  -26.7824   20.0664 O   0  0  0  0  0  0
  -26.5608  -34.8910   22.4683 O   0  0  0  0  0  0
  -23.5324  -32.1453   23.7488 O   0  0  0  0  0  0
  -29.7371  -20.1399   22.3345 C   0  0  0  0  0  0
  -28.7262  -21.0307   22.7636 C   0  0  0  0  0  0
  -27.5518  -20.4694   23.3429 C   0  0  0  0  0  0
  -29.5708  -18.7466   22.4869 C   0  0  0  0  0  0
  -27.4741  -19.0570   23.4693 C   0  0  0  0  0  0
  -26.3839  -21.3423   23.8104 C   0  0  0  0  0  0
  -25.4145  -16.6200   25.7769 C   0  0  0  0  0  0
  -30.3382  -22.9782   23.0971 C   0  0  0  0  0  0
  -27.5536  -22.3194   20.3958 C   0  0  0  0  0  0
  -31.0260  -16.8626   23.3172 C   0  0  0  0  0  0
  -31.9326  -18.3558   21.5689 C   0  0  0  0  0  0
  -26.2702  -18.3189   24.0622 C   0  0  0  0  0  0
  -26.6442  -17.2939   25.1520 C   0  0  0  0  0  0
  -28.2863  -24.6194   21.1973 C   0  0  0  0  0  0
  -30.0732  -16.8193   20.8991 C   0  0  0  0  0  0
  -28.5159  -25.3676   19.8678 C   0  0  0  0  0  0
  -28.9418  -22.5511   22.5964 C   0  0  1  0  0  0
  -28.6393  -23.1059   21.1641 C   0  0  1  0  0  0
  -30.6290  -17.6928   22.0726 C   0  0  0  0  0  0
  -28.4442  -18.2371   23.0234 N   0  0  0  0  0  0
  -29.9619  -15.3808   21.1636 N   0  0  0  0  0  0
  -31.4721  -12.3814   19.1140 H   0  0  0  0  0  0
  -30.3254  -11.2572   19.7841 H   0  0  0  0  0  0
  -29.7265  -11.8046   17.4080 H   0  0  0  0  0  0
  -29.6769  -13.5067   17.7910 H   0  0  0  0  0  0
  -27.8025  -11.3288   18.7774 H   0  0  0  0  0  0
  -27.3718  -12.6967   17.7877 H   0  0  0  0  0  0
  -27.7300  -14.2551   19.6233 H   0  0  0  0  0  0
  -28.6734  -11.8798   21.3013 H   0  0  0  0  0  0
  -28.4759  -13.4892   21.9075 H   0  0  0  0  0  0
  -25.2736   -9.5701   22.4766 H   0  0  0  0  0  0
  -23.9986   -7.4649   22.7481 H   0  0  0  0  0  0
  -21.0842   -8.8770   19.8929 H   0  0  0  0  0  0
  -22.3698  -10.9670   19.6146 H   0  0  0  0  0  0
  -21.1997   -7.6136   23.9713 H   0  0  0  0  0  0
  -21.1484   -6.0515   25.9073 H   0  0  0  0  0  0
  -22.0595   -2.7605   23.2847 H   0  0  0  0  0  0
  -22.4072  -11.9866   22.4717 H   0  0  0  0  0  0
  -21.1110  -13.1270   22.2555 H   0  0  0  0  0  0
  -24.6808  -15.8494   20.5380 H   0  0  0  0  0  0
  -26.3044  -15.6243   20.1266 H   0  0  0  0  0  0
  -26.7093  -32.5526   23.1138 H   0  0  0  0  0  0
  -25.0101  -33.9796   25.0493 H   0  0  0  0  0  0
  -22.6875  -31.3047   21.4087 H   0  0  0  0  0  0
  -23.3768  -35.9610   23.3315 H   0  0  0  0  0  0
  -24.3576  -36.8909   22.2038 H   0  0  0  0  0  0
  -23.7253  -37.6505   23.6657 H   0  0  0  0  0  0
  -26.0563  -31.6037   20.6043 H   0  0  0  0  0  0
  -26.8109  -30.8736   21.9938 H   0  0  0  0  0  0
  -28.1075  -29.1237   21.1181 H   0  0  0  0  0  0
  -26.0176  -25.9560   19.0390 H   0  0  0  0  0  0
  -23.9658  -27.2715   19.0767 H   0  0  0  0  0  0
  -23.7120  -30.5861   19.4038 H   0  0  0  0  0  0
  -22.7326  -29.2305   19.8786 H   0  0  0  0  0  0
  -25.1305  -36.1953   25.0826 H   0  0  0  0  0  0
  -20.9934  -28.3194   24.1436 H   0  0  0  0  0  0
  -20.5677  -26.2235   23.3587 H   0  0  0  0  0  0
  -21.6641  -26.7450   22.1179 H   0  0  0  0  0  0
  -19.6937  -25.6291   21.1188 H   0  0  0  0  0  0
  -19.6685  -27.3199   20.6719 H   0  0  0  0  0  0
  -17.4207  -26.6657   21.3966 H   0  0  0  0  0  0
  -18.0304  -26.0021   22.8956 H   0  0  0  0  0  0
  -19.7940  -30.7200   24.2269 H   0  0  0  0  0  0
  -17.5035  -31.6244   24.5145 H   0  0  0  0  0  0
  -15.5350  -30.2958   23.7671 H   0  0  0  0  0  0
  -15.8659  -28.0787   22.7092 H   0  0  0  0  0  0
  -24.5944  -30.6976   25.7780 H   0  0  0  0  0  0
  -24.8823  -32.2819   26.4854 H   0  0  0  0  0  0
  -25.8055  -30.8909   27.0250 H   0  0  0  0  0  0
  -26.2922  -29.6788   24.1171 H   0  0  0  0  0  0
  -27.4178  -29.7329   25.4565 H   0  0  0  0  0  0
  -27.8723  -30.4427   23.9245 H   0  0  0  0  0  0
  -27.2631  -33.3689   26.2036 H   0  0  0  0  0  0
  -28.3839  -32.6918   25.0329 H   0  0  0  0  0  0
  -28.0683  -31.8535   26.5445 H   0  0  0  0  0  0
  -28.2591  -38.0116   24.7533 H   0  0  0  0  0  0
  -28.1098  -36.2650   24.6295 H   0  0  0  0  0  0
  -27.2293  -37.1462   25.8864 H   0  0  0  0  0  0
  -20.9340  -29.8736   21.6950 H   0  0  0  0  0  0
  -26.0200  -38.2859   24.1382 H   0  0  0  0  0  0
  -30.6354  -20.5365   21.8892 H   0  0  0  0  0  0
  -26.3570  -22.3325   23.3606 H   0  0  0  0  0  0
  -26.4125  -21.4603   24.8949 H   0  0  0  0  0  0
  -25.4262  -20.9022   23.5366 H   0  0  0  0  0  0
  -25.7105  -15.8667   26.5079 H   0  0  0  0  0  0
  -24.8090  -16.1265   25.0162 H   0  0  0  0  0  0
  -24.7844  -17.3479   26.2896 H   0  0  0  0  0  0
  -30.4962  -22.6420   24.1228 H   0  0  0  0  0  0
  -30.4551  -24.0608   23.0979 H   0  0  0  0  0  0
  -31.1449  -22.5753   22.4864 H   0  0  0  0  0  0
  -27.3995  -22.7194   19.3928 H   0  0  0  0  0  0
  -26.5960  -22.3529   20.9156 H   0  0  0  0  0  0
  -27.8249  -21.2709   20.2696 H   0  0  0  0  0  0
  -31.4047  -17.5107   24.1081 H   0  0  0  0  0  0
  -31.8067  -16.1375   23.0877 H   0  0  0  0  0  0
  -30.1788  -16.3137   23.7282 H   0  0  0  0  0  0
  -32.3862  -18.9873   22.3340 H   0  0  0  0  0  0
  -31.7598  -18.9692   20.6835 H   0  0  0  0  0  0
  -32.6724  -17.6027   21.2940 H   0  0  0  0  0  0
  -25.7351  -17.8278   23.2487 H   0  0  0  0  0  0
  -25.5649  -19.0123   24.5112 H   0  0  0  0  0  0
  -27.2912  -16.5245   24.7277 H   0  0  0  0  0  0
  -27.2225  -17.7866   25.9346 H   0  0  0  0  0  0
  -27.2583  -24.7566   21.5350 H   0  0  0  0  0  0
  -28.9032  -25.1186   21.9434 H   0  0  0  0  0  0
  -30.6459  -16.9829   19.9835 H   0  0  0  0  0  0
  -29.0701  -17.1527   20.6304 H   0  0  0  0  0  0
  -27.8717  -25.0086   19.0677 H   0  0  0  0  0  0
  -29.5304  -25.1611   19.5271 H   0  0  0  0  0  0
  -28.2719  -23.0602   23.2839 H   0  0  0  0  0  0
  -29.5560  -22.9762   20.5873 H   0  0  0  0  0  0
  -29.1087  -15.0775   21.6069 H   0  0  0  0  0  0
  1 25  1  0  0  0
  1 30  2  0  0  0
  1 91  1  0  0  0
  2  3  1  0  0  0
  2 25  1  0  0  0
  2 92  1  0  0  0
  2 93  1  0  0  0
  3  4  1  0  0  0
  3 94  1  0  0  0
  3 95  1  0  0  0
  4  5  1  0  0  0
  4 96  1  0  0  0
  4 97  1  0  0  0
  5  6  1  0  0  0
  5 26  1  0  0  0
  5 98  1  0  0  0
  6 25  1  0  0  0
  6 99  1  0  0  0
  6100  1  0  0  0
  7  8  2  0  0  0
  7 26  1  0  0  0
  7 29  1  0  0  0
  8  9  1  0  0  0
  8 22  1  0  0  0
  9 10  1  0  0  0
  9 27  2  0  0  0
 10 11  2  0  0  0
 10 15  1  0  0  0
 11 12  1  0  0  0
 11101  1  0  0  0
 12 13  2  0  0  0
 12102  1  0  0  0
 13 14  1  0  0  0
 13 31  1  0  0  0
 14 15  2  0  0  0
 14103  1  0  0  0
 15104  1  0  0  0
 16 17  2  0  0  0
 16 21  1  0  0  0
 16 31  1  0  0  0
 17 18  1  0  0  0
 17105  1  0  0  0
 18 19  2  0  0  0
 18106  1  0  0  0
 19 20  1  0  0  0
 19 24  1  0  0  0
 20 21  2  0  0  0
 20107  1  0  0  0
 21 23  1  0  0  0
 22 28  1  0  0  0
 22 32  2  0  0  0
 26 27  1  0  0  0
 28108  1  0  0  0
 28109  1  0  0  0
 29110  1  0  0  0
 29111  1  0  0  0
 33 34  1  0  0  0
 33 66  1  0  0  0
 33 70  2  0  0  0
 34 36  1  0  0  0
 34 59  1  0  0  0
 34112  1  0  0  0
 35 44  2  0  0  0
 35 45  1  0  0  0
 35 68  1  0  0  0
 36 56  1  0  0  0
 36113  1  0  0  0
 37 39  1  0  0  0
 37 47  1  0  0  0
 37 66  1  0  0  0
 37114  1  0  0  0
 38 43  2  0  0  0
 38 46  1  0  0  0
 38 47  1  0  0  0
 39 64  1  0  0  0
 39 67  2  0  0  0
 40 52  1  0  0  0
 40 53  2  0  0  0
 40 58  1  0  0  0
 41115  1  0  0  0
 41116  1  0  0  0
 41117  1  0  0  0
 41 48  1  0  0  0
 42 43  1  0  0  0
 42 66  1  0  0  0
 42118  1  0  0  0
 42119  1  0  0  0
 43 44  1  0  0  0
 44120  1  0  0  0
 45 46  2  0  0  0
 45121  1  0  0  0
 46122  1  0  0  0
 47123  1  0  0  0
 47124  1  0  0  0
 48 56  1  0  0  0
 48 65  1  0  0  0
 48125  1  0  0  0
 49 50  1  0  0  0
 49 53  1  0  0  0
 49 64  1  0  0  0
 49126  1  0  0  0
 50 51  1  0  0  0
 50127  1  0  0  0
 50128  1  0  0  0
 51 52  1  0  0  0
 51129  1  0  0  0
 51130  1  0  0  0
 52131  1  0  0  0
 52132  1  0  0  0
 53 54  1  0  0  0
 54 55  2  0  0  0
 54133  1  0  0  0
 55 57  1  0  0  0
 55134  1  0  0  0
 56 69  2  0  0  0
 57 58  2  0  0  0
 57135  1  0  0  0
 58136  1  0  0  0
 59 60  1  0  0  0
 59 61  1  0  0  0
 59 62  1  0  0  0
 60137  1  0  0  0
 60138  1  0  0  0
 60139  1  0  0  0
 61140  1  0  0  0
 61141  1  0  0  0
 61142  1  0  0  0
 62143  1  0  0  0
 62144  1  0  0  0
 62145  1  0  0  0
 63 65  1  0  0  0
 63146  1  0  0  0
 63147  1  0  0  0
 63148  1  0  0  0
 64149  1  0  0  0
 65150  1  0  0  0
 68 86  1  0  0  0
 71 72  2  0  0  0
 71 74  1  0  0  0
 71151  1  0  0  0
 72 73  1  0  0  0
 72 87  1  0  0  0
 73 75  2  0  0  0
 73 76  1  0  0  0
 74 89  1  0  0  0
 74 90  2  0  0  0
 75 82  1  0  0  0
 75 90  1  0  0  0
 76152  1  0  0  0
 76153  1  0  0  0
 76154  1  0  0  0
 77 83  1  0  0  0
 77155  1  0  0  0
 77156  1  0  0  0
 77157  1  0  0  0
 78158  1  0  0  0
 78159  1  0  0  0
 78160  1  0  0  0
 78 87  1  0  0  0
 79161  1  0  0  0
 79162  1  0  0  0
 79163  1  0  0  0
 79 88  1  0  0  0
 80164  1  0  0  0
 80165  1  0  0  0
 80166  1  0  0  0
 80 89  1  0  0  0
 81 89  1  0  0  0
 81167  1  0  0  0
 81168  1  0  0  0
 81169  1  0  0  0
 82 83  1  0  0  0
 82170  1  0  0  0
 82171  1  0  0  0
 83172  1  0  0  0
 83173  1  0  0  0
 84 86  1  0  0  0
 84 88  1  0  0  0
 84174  1  0  0  0
 84175  1  0  0  0
 85 89  1  0  0  0
 85 91  1  0  0  0
 85176  1  0  0  0
 85177  1  0  0  0
 86178  1  0  0  0
 86179  1  0  0  0
 87 88  1  0  0  0
 87180  1  0  0  0
 88181  1  0  0  0
 91182  1  0  0  0
M  ISO  4   1 100  68 101  86 101  91 100
M  END
> <chiral flag>
0

> <version>
0

> <s_m_source_file>
/data/baiqing/PycharmProjects/Reinvent-master-3.2/result/LINK_invent/BTK/process_docking_weight1_custom_sum_contain_oxygen_bond_distance_aromatic_linkinvent_7_9_3/rearranged_h_0094.sdf

> <i_m_source_file_index>
2

> <r_mmod_Potential_Energy-OPLS-2005>
-194.738800048828

> <r_mmod_Stretch_Energy-OPLS-2005>
43.8066062927246

> <r_mmod_Bend_Energy-OPLS-2005>
122.814781188965

> <r_mmod_Torsional_Energy-OPLS-2005>
218.153991699219

> <r_mmod_Improper_Torsional_Energy-OPLS-2005>
5.03264713287354

> <r_mmod_Van_der_Waal_Energy-OPLS-2005>
174.593109130859

> <r_mmod_Electrostatic_Energy-OPLS-2005>
-579.665100097656

> <r_mmod_Solvation_Energy-OPLS-2005>
-189.09814453125

> <b_mmod_Minimization_Converged-OPLS-2005>
0

> <r_mmod_RMS_Derivative-OPLS-2005>
2.28315353393555

$$$$
2
                    3D
 Structure written by MMmdl.
181189  0  0  1  0            999 V2000
  -30.6943  -14.4478   20.5917 C   0  0  0  0  0  0
  -30.4325  -12.2995   19.4218 C   0  0  0  0  0  0
  -29.5015  -12.5146   18.2107 C   0  0  0  0  0  0
  -28.0231  -12.3602   18.6177 C   0  0  0  0  0  0
  -27.6637  -13.2002   19.8714 C   0  0  2  0  0  0
  -28.7018  -12.9646   20.9943 C   0  0  0  0  0  0
  -25.2587  -13.8156   20.5670 C   0  0  0  0  0  0
  -24.1843  -13.0423   20.9131 C   0  0  0  0  0  0
  -24.6401  -11.6885   20.8691 C   0  0  0  0  0  0
  -23.9079  -10.4273   21.0363 C   0  0  0  0  0  0
  -24.3645   -9.4197   21.9127 C   0  0  0  0  0  0
  -23.6322   -8.2240   22.0726 C   0  0  0  0  0  0
  -22.4290   -8.0286   21.3545 C   0  0  0  0  0  0
  -21.9928   -9.0234   20.4630 C   0  0  0  0  0  0
  -22.7253  -10.2108   20.3013 C   0  0  0  0  0  0
  -21.6852   -6.0751   22.5286 C   0  0  0  0  0  0
  -21.4007   -6.5648   23.8220 C   0  0  0  0  0  0
  -21.3658   -5.6792   24.9172 C   0  0  0  0  0  0
  -21.6047   -4.3059   24.7216 C   0  0  0  0  0  0
  -21.8822   -3.8162   23.4330 C   0  0  0  0  0  0
  -21.9197   -4.6981   22.3401 C   0  0  0  0  0  0
  -22.7868  -13.5204   21.1836 C   0  0  0  0  0  0
  -22.1660   -4.2176   21.0974 F   0  0  0  0  0  0
  -21.5635   -3.4536   25.7725 F   0  0  0  0  0  0
  -30.0406  -13.2661   20.4568 N   0  0  0  0  0  0
  -26.3024  -12.9315   20.3320 N   0  0  0  0  0  0
  -25.9318  -11.6481   20.5706 N   0  0  0  0  0  0
  -22.0555  -12.8174   22.0401 N   0  0  0  0  0  0
  -25.4269  -15.1885   20.4143 N   0  0  0  0  0  0
  -31.8065  -14.6731   20.1027 O   0  0  0  0  0  0
  -21.6642   -6.8886   21.4255 O   0  0  0  0  0  0
  -22.3530  -14.5499   20.6679 O   0  0  0  0  0  0
  -24.6086  -31.8697   23.2134 C   0  0  0  0  0  0
  -25.9000  -32.4836   23.8419 C   0  0  1  0  0  0
  -27.2461  -27.4802   20.0941 C   0  0  0  0  0  0
  -25.5882  -33.8629   24.2355 N   0  0  0  0  0  0
  -23.3952  -30.4904   21.5540 C   0  0  2  0  0  0
  -24.8481  -28.9613   20.1197 C   0  0  0  0  0  0
  -22.7377  -29.4651   22.5026 C   0  0  0  0  0  0
  -18.0269  -28.1362   22.8558 C   0  0  0  0  0  0
  -24.1491  -36.7338   23.2639 C   0  0  0  0  0  0
  -25.9189  -30.8496   21.3594 C   0  0  0  0  0  0
  -26.0019  -29.4828   20.7172 C   0  0  0  0  0  0
  -27.2060  -28.7474   20.7068 C   0  0  0  0  0  0
  -26.0810  -26.9629   19.4933 C   0  0  0  0  0  0
  -24.8782  -27.6949   19.5089 C   0  0  0  0  0  0
  -23.6042  -29.8208   20.1696 C   0  0  0  0  0  0
  -25.4105  -36.3117   24.0342 C   0  0  1  0  0  0
  -20.5861  -28.3624   23.1406 C   0  0  2  0  0  0
  -20.6744  -26.9387   22.5435 C   0  0  0  0  0  0
  -19.5714  -26.6379   21.5228 C   0  0  0  0  0  0
  -18.1877  -26.7956   22.1600 C   0  0  0  0  0  0
  -19.1525  -28.8784   23.3008 C   0  0  0  0  0  0
  -18.9448  -30.1365   23.9084 C   0  0  0  0  0  0
  -17.6463  -30.6565   24.0661 C   0  0  0  0  0  0
  -25.9020  -34.9477   23.5142 C   0  0  0  0  0  0
  -16.5360  -29.9093   23.6335 C   0  0  0  0  0  0
  -16.7260  -28.6492   23.0394 C   0  0  0  0  0  0
  -26.4448  -31.6604   25.0729 C   0  0  0  0  0  0
  -25.3736  -31.3698   26.1502 C   0  0  0  0  0  0
  -27.0277  -30.3062   24.6044 C   0  0  0  0  0  0
  -27.6037  -32.4316   25.7489 C   0  0  0  0  0  0
  -27.5578  -37.1825   24.8462 C   0  0  0  0  0  0
  -21.4101  -29.3041   22.3835 N   0  0  0  0  0  0
  -26.4292  -37.3794   23.9409 N   0  0  0  0  0  0
  -24.6586  -31.0830   22.1018 N   0  0  0  0  0  0
  -23.4175  -28.8188   23.3040 O   0  0  0  0  0  0
  -28.4238  -26.7836   20.0191 O   0  0  0  0  0  0
  -26.5569  -34.8911   22.4690 O   0  0  0  0  0  0
  -23.5297  -32.1414   23.7569 O   0  0  0  0  0  0
  -26.7098  -23.7807   17.7092 C   0  0  0  0  0  0
  -25.2368  -22.2995   18.4743 C   0  0  0  0  0  0
  -25.4622  -23.1514   17.4321 C   0  0  0  0  0  0
  -27.1690  -23.3497   18.9245 C   0  0  0  0  0  0
  -24.3967  -22.1123   15.4048 C   0  0  0  0  0  0
  -24.9650  -24.5814   15.4029 C   0  0  0  0  0  0
  -28.1984  -17.7878   22.1865 C   0  0  0  0  0  0
  -26.7978  -19.0900   19.1435 C   0  0  0  0  0  0
  -28.3629  -23.8348   19.6897 C   0  0  0  0  0  0
  -27.9887  -24.5854   20.9860 C   0  0  0  0  0  0
  -26.2815  -21.6620   20.6511 C   0  0  0  0  0  0
  -30.2019  -16.8669   20.9518 C   0  0  0  0  0  0
  -27.5116  -20.7604   20.8995 C   0  0  0  0  0  0
  -29.1106  -19.0272   20.0875 C   0  0  0  0  0  0
  -28.7048  -25.9386   21.1322 C   0  0  0  0  0  0
  -24.5358  -23.3802   16.2585 C   0  0  0  0  0  0
  -28.8756  -17.6589   20.8070 C   0  0  2  0  0  0
  -26.2695  -22.3966   19.3894 N   0  0  0  0  0  0
  -29.9609  -15.4311   21.1389 N   0  0  0  0  0  0
  -27.9010  -19.8531   19.7812 N   0  3  1  0  0  0
  -31.4757  -12.4121   19.1191 H   0  0  0  0  0  0
  -30.3395  -11.2836   19.8080 H   0  0  0  0  0  0
  -29.7531  -11.8137   17.4139 H   0  0  0  0  0  0
  -29.6599  -13.5137   17.7994 H   0  0  0  0  0  0
  -27.8382  -11.3036   18.8195 H   0  0  0  0  0  0
  -27.3754  -12.6252   17.7824 H   0  0  0  0  0  0
  -27.7112  -14.2473   19.5704 H   0  0  0  0  0  0
  -28.6772  -11.9241   21.3206 H   0  0  0  0  0  0
  -28.4561  -13.5489   21.8820 H   0  0  0  0  0  0
  -25.2796   -9.5689   22.4665 H   0  0  0  0  0  0
  -24.0042   -7.4646   22.7456 H   0  0  0  0  0  0
  -21.0849   -8.8748   19.8951 H   0  0  0  0  0  0
  -22.3704  -10.9633   19.6109 H   0  0  0  0  0  0
  -21.1979   -7.6149   23.9737 H   0  0  0  0  0  0
  -21.1481   -6.0504   25.9077 H   0  0  0  0  0  0
  -22.0611   -2.7627   23.2813 H   0  0  0  0  0  0
  -22.4238  -11.9846   22.4769 H   0  0  0  0  0  0
  -21.1157  -13.1129   22.2625 H   0  0  0  0  0  0
  -24.6453  -15.8280   20.5178 H   0  0  0  0  0  0
  -26.2804  -15.6450   20.1266 H   0  0  0  0  0  0
  -26.7090  -32.5572   23.1204 H   0  0  0  0  0  0
  -25.0049  -33.9781   25.0512 H   0  0  0  0  0  0
  -22.6804  -31.3023   21.4146 H   0  0  0  0  0  0
  -23.3720  -35.9704   23.3316 H   0  0  0  0  0  0
  -24.3591  -36.8928   22.2050 H   0  0  0  0  0  0
  -23.7272  -37.6567   23.6634 H   0  0  0  0  0  0
  -26.0140  -31.6102   20.5839 H   0  0  0  0  0  0
  -26.8133  -30.9162   21.9664 H   0  0  0  0  0  0
  -28.1030  -29.1528   21.1533 H   0  0  0  0  0  0
  -26.1059  -26.0002   19.0066 H   0  0  0  0  0  0
  -23.9932  -27.2871   19.0396 H   0  0  0  0  0  0
  -23.7087  -30.5956   19.4090 H   0  0  0  0  0  0
  -22.7332  -29.2319   19.8751 H   0  0  0  0  0  0
  -25.1279  -36.1989   25.0835 H   0  0  0  0  0  0
  -20.9911  -28.3119   24.1530 H   0  0  0  0  0  0
  -20.5722  -26.2209   23.3585 H   0  0  0  0  0  0
  -21.6603  -26.7486   22.1145 H   0  0  0  0  0  0
  -19.6841  -25.6291   21.1276 H   0  0  0  0  0  0
  -19.6699  -27.3172   20.6766 H   0  0  0  0  0  0
  -17.4210  -26.6902   21.3903 H   0  0  0  0  0  0
  -18.0110  -26.0049   22.8898 H   0  0  0  0  0  0
  -19.7930  -30.7105   24.2591 H   0  0  0  0  0  0
  -17.5010  -31.6238   24.5257 H   0  0  0  0  0  0
  -15.5360  -30.3074   23.7565 H   0  0  0  0  0  0
  -15.8648  -28.0820   22.7106 H   0  0  0  0  0  0
  -24.5877  -30.7070   25.7851 H   0  0  0  0  0  0
  -24.8956  -32.2862   26.4996 H   0  0  0  0  0  0
  -25.8107  -30.8835   27.0235 H   0  0  0  0  0  0
  -26.2807  -29.6837   24.1104 H   0  0  0  0  0  0
  -27.4100  -29.7272   25.4466 H   0  0  0  0  0  0
  -27.8618  -30.4422   23.9147 H   0  0  0  0  0  0
  -27.2652  -33.3580   26.2144 H   0  0  0  0  0  0
  -28.3814  -32.6936   25.0301 H   0  0  0  0  0  0
  -28.0753  -31.8396   26.5343 H   0  0  0  0  0  0
  -28.2607  -38.0107   24.7483 H   0  0  0  0  0  0
  -28.1056  -36.2639   24.6318 H   0  0  0  0  0  0
  -27.2300  -37.1531   25.8863 H   0  0  0  0  0  0
  -20.9174  -29.8821   21.7169 H   0  0  0  0  0  0
  -26.0184  -38.2878   24.1379 H   0  0  0  0  0  0
  -27.1934  -24.5372   17.1072 H   0  0  0  0  0  0
  -24.3982  -21.6393   18.6545 H   0  0  0  0  0  0
  -24.0000  -21.2789   15.9869 H   0  0  0  0  0  0
  -25.3585  -21.8005   14.9971 H   0  0  0  0  0  0
  -23.7178  -22.2747   14.5662 H   0  0  0  0  0  0
  -25.0352  -25.4879   16.0046 H   0  0  0  0  0  0
  -24.2440  -24.7733   14.6082 H   0  0  0  0  0  0
  -25.9370  -24.4124   14.9377 H   0  0  0  0  0  0
  -28.6890  -18.5429   22.8009 H   0  0  0  0  0  0
  -28.2346  -16.8538   22.7442 H   0  0  0  0  0  0
  -27.1460  -18.0506   22.0953 H   0  0  0  0  0  0
  -26.0562  -19.7438   18.6880 H   0  0  0  0  0  0
  -26.2855  -18.4452   19.8538 H   0  0  0  0  0  0
  -27.1859  -18.4652   18.3378 H   0  0  0  0  0  0
  -28.9380  -24.4927   19.0352 H   0  0  0  0  0  0
  -29.0587  -23.0249   19.8996 H   0  0  0  0  0  0
  -28.2173  -23.9562   21.8483 H   0  0  0  0  0  0
  -26.9125  -24.7528   21.0298 H   0  0  0  0  0  0
  -26.1846  -22.3786   21.4644 H   0  0  0  0  0  0
  -25.3804  -21.0518   20.7033 H   0  0  0  0  0  0
  -30.8144  -17.0227   20.0629 H   0  0  0  0  0  0
  -30.7837  -17.2485   21.7933 H   0  0  0  0  0  0
  -27.3011  -20.1932   21.8013 H   0  0  0  0  0  0
  -28.3693  -21.3804   21.1576 H   0  0  0  0  0  0
  -29.5842  -18.8268   19.1283 H   0  0  0  0  0  0
  -29.8373  -19.6271   20.6369 H   0  0  0  0  0  0
  -29.7832  -25.7826   21.1782 H   0  0  0  0  0  0
  -28.4223  -26.4197   22.0699 H   0  0  0  0  0  0
  -23.5535  -23.6101   16.6754 H   0  0  0  0  0  0
  -28.2266  -17.0601   20.1716 H   0  0  0  0  0  0
  -29.0755  -15.1556   21.5357 H   0  0  0  0  0  0
  -28.2141  -20.4837   19.0548 H   0  0  0  0  0  0
  1 25  1  0  0  0
  1 30  2  0  0  0
  1 89  1  0  0  0
  2  3  1  0  0  0
  2 25  1  0  0  0
  2 91  1  0  0  0
  2 92  1  0  0  0
  3  4  1  0  0  0
  3 93  1  0  0  0
  3 94  1  0  0  0
  4  5  1  0  0  0
  4 95  1  0  0  0
  4 96  1  0  0  0
  5  6  1  0  0  0
  5 26  1  0  0  0
  5 97  1  0  0  0
  6 25  1  0  0  0
  6 98  1  0  0  0
  6 99  1  0  0  0
  7  8  2  0  0  0
  7 26  1  0  0  0
  7 29  1  0  0  0
  8  9  1  0  0  0
  8 22  1  0  0  0
  9 10  1  0  0  0
  9 27  2  0  0  0
 10 11  2  0  0  0
 10 15  1  0  0  0
 11 12  1  0  0  0
 11100  1  0  0  0
 12 13  2  0  0  0
 12101  1  0  0  0
 13 14  1  0  0  0
 13 31  1  0  0  0
 14 15  2  0  0  0
 14102  1  0  0  0
 15103  1  0  0  0
 16 17  2  0  0  0
 16 21  1  0  0  0
 16 31  1  0  0  0
 17 18  1  0  0  0
 17104  1  0  0  0
 18 19  2  0  0  0
 18105  1  0  0  0
 19 20  1  0  0  0
 19 24  1  0  0  0
 20 21  2  0  0  0
 20106  1  0  0  0
 21 23  1  0  0  0
 22 28  1  0  0  0
 22 32  2  0  0  0
 26 27  1  0  0  0
 28107  1  0  0  0
 28108  1  0  0  0
 29109  1  0  0  0
 29110  1  0  0  0
 33 34  1  0  0  0
 33 66  1  0  0  0
 33 70  2  0  0  0
 34 36  1  0  0  0
 34 59  1  0  0  0
 34111  1  0  0  0
 35 44  2  0  0  0
 35 45  1  0  0  0
 35 68  1  0  0  0
 36 56  1  0  0  0
 36112  1  0  0  0
 37 39  1  0  0  0
 37 47  1  0  0  0
 37 66  1  0  0  0
 37113  1  0  0  0
 38 43  2  0  0  0
 38 46  1  0  0  0
 38 47  1  0  0  0
 39 64  1  0  0  0
 39 67  2  0  0  0
 40 52  1  0  0  0
 40 53  2  0  0  0
 40 58  1  0  0  0
 41114  1  0  0  0
 41115  1  0  0  0
 41116  1  0  0  0
 41 48  1  0  0  0
 42 43  1  0  0  0
 42 66  1  0  0  0
 42117  1  0  0  0
 42118  1  0  0  0
 43 44  1  0  0  0
 44119  1  0  0  0
 45 46  2  0  0  0
 45120  1  0  0  0
 46121  1  0  0  0
 47122  1  0  0  0
 47123  1  0  0  0
 48 56  1  0  0  0
 48 65  1  0  0  0
 48124  1  0  0  0
 49 50  1  0  0  0
 49 53  1  0  0  0
 49 64  1  0  0  0
 49125  1  0  0  0
 50 51  1  0  0  0
 50126  1  0  0  0
 50127  1  0  0  0
 51 52  1  0  0  0
 51128  1  0  0  0
 51129  1  0  0  0
 52130  1  0  0  0
 52131  1  0  0  0
 53 54  1  0  0  0
 54 55  2  0  0  0
 54132  1  0  0  0
 55 57  1  0  0  0
 55133  1  0  0  0
 56 69  2  0  0  0
 57 58  2  0  0  0
 57134  1  0  0  0
 58135  1  0  0  0
 59 60  1  0  0  0
 59 61  1  0  0  0
 59 62  1  0  0  0
 60136  1  0  0  0
 60137  1  0  0  0
 60138  1  0  0  0
 61139  1  0  0  0
 61140  1  0  0  0
 61141  1  0  0  0
 62142  1  0  0  0
 62143  1  0  0  0
 62144  1  0  0  0
 63 65  1  0  0  0
 63145  1  0  0  0
 63146  1  0  0  0
 63147  1  0  0  0
 64148  1  0  0  0
 65149  1  0  0  0
 68 85  1  0  0  0
 71 73  1  0  0  0
 71 74  2  0  0  0
 71150  1  0  0  0
 72 73  2  0  0  0
 72 88  1  0  0  0
 72151  1  0  0  0
 73 86  1  0  0  0
 74 79  1  0  0  0
 74 88  1  0  0  0
 75152  1  0  0  0
 75153  1  0  0  0
 75154  1  0  0  0
 75 86  1  0  0  0
 76 86  1  0  0  0
 76155  1  0  0  0
 76156  1  0  0  0
 76157  1  0  0  0
 77158  1  0  0  0
 77159  1  0  0  0
 77160  1  0  0  0
 77 87  1  0  0  0
 78161  1  0  0  0
 78162  1  0  0  0
 78163  1  0  0  0
 78 90  1  0  0  0
 79 80  1  0  0  0
 79164  1  0  0  0
 79165  1  0  0  0
 80 85  1  0  0  0
 80166  1  0  0  0
 80167  1  0  0  0
 81 83  1  0  0  0
 81 88  1  0  0  0
 81168  1  0  0  0
 81169  1  0  0  0
 82 87  1  0  0  0
 82 89  1  0  0  0
 82170  1  0  0  0
 82171  1  0  0  0
 83 90  1  0  0  0
 83172  1  0  0  0
 83173  1  0  0  0
 84 87  1  0  0  0
 84 90  1  0  0  0
 84174  1  0  0  0
 84175  1  0  0  0
 85176  1  0  0  0
 85177  1  0  0  0
 86178  1  0  0  0
 87179  1  0  0  0
 89180  1  0  0  0
 90181  1  0  0  0
M  CHG  1  90   1
M  ISO  4   1 100  68 101  85 101  89 100
M  END
> <chiral flag>
0

> <version>
0

> <s_m_source_file>
/data/baiqing/PycharmProjects/Reinvent-master-3.2/result/LINK_invent/BTK/process_docking_weight1_custom_sum_contain_oxygen_bond_distance_aromatic_linkinvent_7_9_3/rearranged_h_0094.sdf

> <i_m_source_file_index>
3

> <r_mmod_Potential_Energy-OPLS-2005>
-208.318542480469

> <r_mmod_Stretch_Energy-OPLS-2005>
34.594310760498

> <r_mmod_Bend_Energy-OPLS-2005>
110.711303710938

> <r_mmod_Torsional_Energy-OPLS-2005>
285.029083251953

> <r_mmod_Improper_Torsional_Energy-OPLS-2005>
5.07938146591187

> <r_mmod_Van_der_Waal_Energy-OPLS-2005>
120.720748901367

> <r_mmod_Electrostatic_Energy-OPLS-2005>
-324.429290771484

> <r_mmod_Solvation_Energy-OPLS-2005>
-448.872467041016

> <b_mmod_Minimization_Converged-OPLS-2005>
0

> <r_mmod_RMS_Derivative-OPLS-2005>
4.17643594741821

$$$$
3
                    3D
 Structure written by MMmdl.
161169  0  0  1  0            999 V2000
  -30.5659  -14.7069   20.4441 C   0  0  0  0  0  0
  -30.4273  -12.4351   19.4326 C   0  0  0  0  0  0
  -29.4910  -12.4910   18.2061 C   0  0  0  0  0  0
  -28.0107  -12.3506   18.6241 C   0  0  0  0  0  0
  -27.6376  -13.2210   19.8538 C   0  0  2  0  0  0
  -28.6927  -13.0843   20.9706 C   0  0  0  0  0  0
  -25.2501  -13.8158   20.5732 C   0  0  0  0  0  0
  -24.1787  -13.0365   20.9347 C   0  0  0  0  0  0
  -24.6383  -11.6899   20.8875 C   0  0  0  0  0  0
  -23.9035  -10.4273   21.0440 C   0  0  0  0  0  0
  -24.3601   -9.4175   21.9167 C   0  0  0  0  0  0
  -23.6326   -8.2185   22.0693 C   0  0  0  0  0  0
  -22.4289   -8.0237   21.3486 C   0  0  0  0  0  0
  -21.9910   -9.0211   20.4571 C   0  0  0  0  0  0
  -22.7240  -10.2111   20.3034 C   0  0  0  0  0  0
  -21.6851   -6.0753   22.5315 C   0  0  0  0  0  0
  -21.4018   -6.5645   23.8255 C   0  0  0  0  0  0
  -21.3692   -5.6762   24.9201 C   0  0  0  0  0  0
  -21.6056   -4.3028   24.7227 C   0  0  0  0  0  0
  -21.8852   -3.8164   23.4343 C   0  0  0  0  0  0
  -21.9177   -4.6990   22.3407 C   0  0  0  0  0  0
  -22.7823  -13.5157   21.2005 C   0  0  0  0  0  0
  -22.1652   -4.2197   21.0983 F   0  0  0  0  0  0
  -21.5579   -3.4493   25.7716 F   0  0  0  0  0  0
  -29.9818  -13.4676   20.3841 N   0  0  0  0  0  0
  -26.2900  -12.9337   20.3356 N   0  0  0  0  0  0
  -25.9326  -11.6504   20.5933 N   0  0  0  0  0  0
  -22.0464  -12.8100   22.0579 N   0  0  0  0  0  0
  -25.4088  -15.1842   20.4030 N   0  0  0  0  0  0
  -31.7686  -14.8439   20.2030 O   0  0  0  0  0  0
  -21.6607   -6.8873   21.4255 O   0  0  0  0  0  0
  -22.3526  -14.5422   20.6861 O   0  0  0  0  0  0
  -24.6296  -31.8538   23.2006 C   0  0  0  0  0  0
  -25.9132  -32.4738   23.8323 C   0  0  1  0  0  0
  -27.2138  -27.2795   20.1105 C   0  0  0  0  0  0
  -25.5940  -33.8549   24.2241 N   0  0  0  0  0  0
  -23.4228  -30.4810   21.5440 C   0  0  2  0  0  0
  -24.8666  -28.9347   20.1050 C   0  0  0  0  0  0
  -22.7471  -29.4612   22.4921 C   0  0  0  0  0  0
  -18.0276  -28.1440   22.8447 C   0  0  0  0  0  0
  -24.1499  -36.7295   23.2635 C   0  0  0  0  0  0
  -25.9647  -30.7739   21.3736 C   0  0  0  0  0  0
  -26.0379  -29.3981   20.7154 C   0  0  0  0  0  0
  -27.2126  -28.5801   20.7114 C   0  0  0  0  0  0
  -26.0189  -26.8827   19.4672 C   0  0  0  0  0  0
  -24.8610  -27.6838   19.4731 C   0  0  0  0  0  0
  -23.6364  -29.8194   20.1577 C   0  0  0  0  0  0
  -25.4126  -36.3056   24.0303 C   0  0  1  0  0  0
  -20.5887  -28.3716   23.1280 C   0  0  2  0  0  0
  -20.6785  -26.9437   22.5402 C   0  0  0  0  0  0
  -19.5769  -26.6428   21.5194 C   0  0  0  0  0  0
  -18.1940  -26.7972   22.1601 C   0  0  0  0  0  0
  -19.1540  -28.8889   23.2859 C   0  0  0  0  0  0
  -18.9474  -30.1490   23.8868 C   0  0  0  0  0  0
  -17.6481  -30.6627   24.0579 C   0  0  0  0  0  0
  -25.9071  -34.9427   23.5069 C   0  0  0  0  0  0
  -16.5361  -29.9127   23.6357 C   0  0  0  0  0  0
  -16.7267  -28.6571   23.0318 C   0  0  0  0  0  0
  -26.4513  -31.6555   25.0700 C   0  0  0  0  0  0
  -25.3727  -31.3706   26.1409 C   0  0  0  0  0  0
  -27.0371  -30.2983   24.6162 C   0  0  0  0  0  0
  -27.6069  -32.4274   25.7474 C   0  0  0  0  0  0
  -27.5573  -37.1784   24.8452 C   0  0  0  0  0  0
  -21.4180  -29.3052   22.3636 N   0  0  0  0  0  0
  -26.4301  -37.3751   23.9388 N   0  0  0  0  0  0
  -24.6916  -31.0547   22.0958 N   0  0  0  0  0  0
  -23.4176  -28.8144   23.3013 O   0  0  0  0  0  0
  -28.3270  -26.4110   20.1561 O   0  0  0  0  0  0
  -26.5647  -34.8896   22.4647 O   0  0  0  0  0  0
  -23.5462  -32.1375   23.7335 O   0  0  0  0  0  0
  -29.2332  -21.1903   20.1276 C   0  0  0  0  0  0
  -28.0228  -20.9837   22.5457 C   0  0  0  0  0  0
  -28.9001  -22.4346   20.8012 C   0  0  0  0  0  0
  -28.3093  -22.2882   22.0923 C   0  0  0  0  0  0
  -28.9647  -19.8938   20.7133 C   0  0  0  0  0  0
  -28.6553  -23.1595   24.4710 C   0  0  0  0  0  0
  -26.4983  -23.7982   23.1166 C   0  0  0  0  0  0
  -29.2684  -23.8683   20.2266 C   0  0  0  0  0  0
  -29.1351  -18.4568   20.0418 C   0  0  0  0  0  0
  -29.9800  -17.2876   20.7951 C   0  0  0  0  0  0
  -28.1280  -24.9513   19.8956 C   0  0  0  0  0  0
  -28.0209  -23.4467   23.0679 C   0  0  0  0  0  0
  -28.3302  -19.8436   21.8972 N   0  0  0  0  0  0
  -29.7201  -15.7953   20.5510 N   0  0  0  0  0  0
  -31.4552  -12.5930   19.1135 H   0  0  0  0  0  0
  -30.3951  -11.4504   19.8966 H   0  0  0  0  0  0
  -29.7616  -11.7029   17.5040 H   0  0  0  0  0  0
  -29.6332  -13.4318   17.6726 H   0  0  0  0  0  0
  -27.8407  -11.3023   18.8688 H   0  0  0  0  0  0
  -27.3530  -12.5738   17.7802 H   0  0  0  0  0  0
  -27.6405  -14.2568   19.5216 H   0  0  0  0  0  0
  -28.7149  -12.0553   21.3383 H   0  0  0  0  0  0
  -28.4552  -13.7109   21.8280 H   0  0  0  0  0  0
  -25.2757   -9.5648   22.4704 H   0  0  0  0  0  0
  -24.0088   -7.4541   22.7374 H   0  0  0  0  0  0
  -21.0847   -8.8720   19.8846 H   0  0  0  0  0  0
  -22.3719  -10.9623   19.6106 H   0  0  0  0  0  0
  -21.2038   -7.6152   23.9797 H   0  0  0  0  0  0
  -21.1478   -6.0450   25.9086 H   0  0  0  0  0  0
  -22.0618   -2.7643   23.2807 H   0  0  0  0  0  0
  -22.4079  -11.9781   22.5010 H   0  0  0  0  0  0
  -21.1049  -13.1052   22.2679 H   0  0  0  0  0  0
  -24.6322  -15.8287   20.4962 H   0  0  0  0  0  0
  -26.2253  -15.6145   19.9907 H   0  0  0  0  0  0
  -26.7159  -32.5387   23.1030 H   0  0  0  0  0  0
  -24.9984  -33.9666   25.0313 H   0  0  0  0  0  0
  -22.7226  -31.3057   21.3970 H   0  0  0  0  0  0
  -23.3738  -35.9652   23.3299 H   0  0  0  0  0  0
  -24.3599  -36.8949   22.2056 H   0  0  0  0  0  0
  -23.7287  -37.6500   23.6688 H   0  0  0  0  0  0
  -26.0993  -31.5382   20.6061 H   0  0  0  0  0  0
  -26.8441  -30.8250   22.0033 H   0  0  0  0  0  0
  -28.1140  -28.9220   21.2018 H   0  0  0  0  0  0
  -25.9467  -25.9325   18.9612 H   0  0  0  0  0  0
  -23.9651  -27.3255   18.9884 H   0  0  0  0  0  0
  -23.7584  -30.5954   19.3996 H   0  0  0  0  0  0
  -22.7480  -29.2617   19.8521 H   0  0  0  0  0  0
  -25.1302  -36.1898   25.0792 H   0  0  0  0  0  0
  -20.9976  -28.3307   24.1414 H   0  0  0  0  0  0
  -20.5750  -26.2300   23.3584 H   0  0  0  0  0  0
  -21.6649  -26.7499   22.1170 H   0  0  0  0  0  0
  -19.6976  -25.6345   21.1224 H   0  0  0  0  0  0
  -19.6783  -27.3225   20.6716 H   0  0  0  0  0  0
  -17.4211  -26.6664   21.4009 H   0  0  0  0  0  0
  -18.0386  -26.0143   22.9033 H   0  0  0  0  0  0
  -19.7955  -30.7303   24.2234 H   0  0  0  0  0  0
  -17.5046  -31.6297   24.5191 H   0  0  0  0  0  0
  -15.5373  -30.3032   23.7743 H   0  0  0  0  0  0
  -15.8647  -28.0927   22.7026 H   0  0  0  0  0  0
  -24.5904  -30.7064   25.7718 H   0  0  0  0  0  0
  -24.8923  -32.2887   26.4796 H   0  0  0  0  0  0
  -25.8032  -30.8895   27.0200 H   0  0  0  0  0  0
  -26.2963  -29.6694   24.1213 H   0  0  0  0  0  0
  -27.4110  -29.7270   25.4666 H   0  0  0  0  0  0
  -27.8803  -30.4265   23.9369 H   0  0  0  0  0  0
  -27.2694  -33.3581   26.2031 H   0  0  0  0  0  0
  -28.3905  -32.6802   25.0322 H   0  0  0  0  0  0
  -28.0696  -31.8396   26.5407 H   0  0  0  0  0  0
  -28.2541  -38.0108   24.7481 H   0  0  0  0  0  0
  -28.1095  -36.2633   24.6290 H   0  0  0  0  0  0
  -27.2273  -37.1431   25.8842 H   0  0  0  0  0  0
  -20.9364  -29.8761   21.6817 H   0  0  0  0  0  0
  -26.0168  -38.2811   24.1429 H   0  0  0  0  0  0
  -29.6988  -21.2348   19.1520 H   0  0  0  0  0  0
  -27.5406  -20.8385   23.4988 H   0  0  0  0  0  0
  -29.7179  -22.8978   24.3855 H   0  0  0  0  0  0
  -28.1837  -22.3410   25.0259 H   0  0  0  0  0  0
  -28.6105  -24.0363   25.1180 H   0  0  0  0  0  0
  -25.8447  -22.9333   22.9682 H   0  0  0  0  0  0
  -26.2121  -24.5173   22.3431 H   0  0  0  0  0  0
  -26.2102  -24.2593   24.0641 H   0  0  0  0  0  0
  -29.8059  -23.6944   19.2931 H   0  0  0  0  0  0
  -30.0185  -24.3027   20.8923 H   0  0  0  0  0  0
  -29.5373  -18.6011   19.0400 H   0  0  0  0  0  0
  -28.1137  -18.1106   19.8718 H   0  0  0  0  0  0
  -31.0384  -17.5032   20.6618 H   0  0  0  0  0  0
  -29.7725  -17.4003   21.8588 H   0  0  0  0  0  0
  -27.2109  -24.6243   20.3774 H   0  0  0  0  0  0
  -27.9272  -24.8464   18.8279 H   0  0  0  0  0  0
  -28.5331  -24.3408   22.7017 H   0  0  0  0  0  0
  -28.7538  -15.5138   20.6069 H   0  0  0  0  0  0
  1 25  1  0  0  0
  1 30  2  0  0  0
  1 84  1  0  0  0
  2  3  1  0  0  0
  2 25  1  0  0  0
  2 85  1  0  0  0
  2 86  1  0  0  0
  3  4  1  0  0  0
  3 87  1  0  0  0
  3 88  1  0  0  0
  4  5  1  0  0  0
  4 89  1  0  0  0
  4 90  1  0  0  0
  5  6  1  0  0  0
  5 26  1  0  0  0
  5 91  1  0  0  0
  6 25  1  0  0  0
  6 92  1  0  0  0
  6 93  1  0  0  0
  7  8  2  0  0  0
  7 26  1  0  0  0
  7 29  1  0  0  0
  8  9  1  0  0  0
  8 22  1  0  0  0
  9 10  1  0  0  0
  9 27  2  0  0  0
 10 11  2  0  0  0
 10 15  1  0  0  0
 11 12  1  0  0  0
 11 94  1  0  0  0
 12 13  2  0  0  0
 12 95  1  0  0  0
 13 14  1  0  0  0
 13 31  1  0  0  0
 14 15  2  0  0  0
 14 96  1  0  0  0
 15 97  1  0  0  0
 16 17  2  0  0  0
 16 21  1  0  0  0
 16 31  1  0  0  0
 17 18  1  0  0  0
 17 98  1  0  0  0
 18 19  2  0  0  0
 18 99  1  0  0  0
 19 20  1  0  0  0
 19 24  1  0  0  0
 20 21  2  0  0  0
 20100  1  0  0  0
 21 23  1  0  0  0
 22 28  1  0  0  0
 22 32  2  0  0  0
 26 27  1  0  0  0
 28101  1  0  0  0
 28102  1  0  0  0
 29103  1  0  0  0
 29104  1  0  0  0
 33 34  1  0  0  0
 33 66  1  0  0  0
 33 70  2  0  0  0
 34 36  1  0  0  0
 34 59  1  0  0  0
 34105  1  0  0  0
 35 44  2  0  0  0
 35 45  1  0  0  0
 35 68  1  0  0  0
 36 56  1  0  0  0
 36106  1  0  0  0
 37 39  1  0  0  0
 37 47  1  0  0  0
 37 66  1  0  0  0
 37107  1  0  0  0
 38 43  2  0  0  0
 38 46  1  0  0  0
 38 47  1  0  0  0
 39 64  1  0  0  0
 39 67  2  0  0  0
 40 52  1  0  0  0
 40 53  2  0  0  0
 40 58  1  0  0  0
 41108  1  0  0  0
 41109  1  0  0  0
 41110  1  0  0  0
 41 48  1  0  0  0
 42 43  1  0  0  0
 42 66  1  0  0  0
 42111  1  0  0  0
 42112  1  0  0  0
 43 44  1  0  0  0
 44113  1  0  0  0
 45 46  2  0  0  0
 45114  1  0  0  0
 46115  1  0  0  0
 47116  1  0  0  0
 47117  1  0  0  0
 48 56  1  0  0  0
 48 65  1  0  0  0
 48118  1  0  0  0
 49 50  1  0  0  0
 49 53  1  0  0  0
 49 64  1  0  0  0
 49119  1  0  0  0
 50 51  1  0  0  0
 50120  1  0  0  0
 50121  1  0  0  0
 51 52  1  0  0  0
 51122  1  0  0  0
 51123  1  0  0  0
 52124  1  0  0  0
 52125  1  0  0  0
 53 54  1  0  0  0
 54 55  2  0  0  0
 54126  1  0  0  0
 55 57  1  0  0  0
 55127  1  0  0  0
 56 69  2  0  0  0
 57 58  2  0  0  0
 57128  1  0  0  0
 58129  1  0  0  0
 59 60  1  0  0  0
 59 61  1  0  0  0
 59 62  1  0  0  0
 60130  1  0  0  0
 60131  1  0  0  0
 60132  1  0  0  0
 61133  1  0  0  0
 61134  1  0  0  0
 61135  1  0  0  0
 62136  1  0  0  0
 62137  1  0  0  0
 62138  1  0  0  0
 63 65  1  0  0  0
 63139  1  0  0  0
 63140  1  0  0  0
 63141  1  0  0  0
 64142  1  0  0  0
 65143  1  0  0  0
 68 81  1  0  0  0
 71 73  2  0  0  0
 71 75  1  0  0  0
 71144  1  0  0  0
 72 74  2  0  0  0
 72 83  1  0  0  0
 72145  1  0  0  0
 73 74  1  0  0  0
 73 78  1  0  0  0
 74 82  1  0  0  0
 75 79  1  0  0  0
 75 83  2  0  0  0
 76146  1  0  0  0
 76147  1  0  0  0
 76148  1  0  0  0
 76 82  1  0  0  0
 77 82  1  0  0  0
 77149  1  0  0  0
 77150  1  0  0  0
 77151  1  0  0  0
 78 81  1  0  0  0
 78152  1  0  0  0
 78153  1  0  0  0
 79 80  1  0  0  0
 79154  1  0  0  0
 79155  1  0  0  0
 80 84  1  0  0  0
 80156  1  0  0  0
 80157  1  0  0  0
 81158  1  0  0  0
 81159  1  0  0  0
 82160  1  0  0  0
 84161  1  0  0  0
M  ISO  4   1 100  68 101  81 101  84 100
M  END
> <chiral flag>
0

> <version>
0

> <s_m_source_file>
/data/baiqing/PycharmProjects/Reinvent-master-3.2/result/LINK_invent/BTK/process_docking_weight1_custom_sum_contain_oxygen_bond_distance_aromatic_linkinvent_7_9_3/rearranged_h_0094.sdf

> <i_m_source_file_index>
4

> <r_mmod_Potential_Energy-OPLS-2005>
52.4422874450684

> <r_mmod_Stretch_Energy-OPLS-2005>
116.064796447754

> <r_mmod_Bend_Energy-OPLS-2005>
167.716720581055

> <r_mmod_Torsional_Energy-OPLS-2005>
229.305236816406

> <r_mmod_Improper_Torsional_Energy-OPLS-2005>
6.87661552429199

> <r_mmod_Van_der_Waal_Energy-OPLS-2005>
140.930404663086

> <r_mmod_Electrostatic_Energy-OPLS-2005>
-462.961059570312

> <r_mmod_Solvation_Energy-OPLS-2005>
-218.680297851562

> <b_mmod_Minimization_Converged-OPLS-2005>
0

> <r_mmod_RMS_Derivative-OPLS-2005>
9.79137420654297

$$$$
4
                    3D
 Structure written by MMmdl.
163171  0  0  1  0            999 V2000
  -30.5791  -14.8316   20.3555 C   0  0  0  0  0  0
  -30.4345  -12.4847   19.4684 C   0  0  0  0  0  0
  -29.5129  -12.4959   18.2282 C   0  0  0  0  0  0
  -28.0356  -12.3377   18.6392 C   0  0  0  0  0  0
  -27.6359  -13.2490   19.8303 C   0  0  2  0  0  0
  -28.6883  -13.2218   20.9555 C   0  0  0  0  0  0
  -25.2457  -13.8225   20.5690 C   0  0  0  0  0  0
  -24.1776  -13.0477   20.9188 C   0  0  0  0  0  0
  -24.6384  -11.6946   20.8706 C   0  0  0  0  0  0
  -23.9096  -10.4296   21.0388 C   0  0  0  0  0  0
  -24.3649   -9.4192   21.9153 C   0  0  0  0  0  0
  -23.6311   -8.2238   22.0745 C   0  0  0  0  0  0
  -22.4283   -8.0291   21.3539 C   0  0  0  0  0  0
  -21.9916   -9.0271   20.4651 C   0  0  0  0  0  0
  -22.7266  -10.2131   20.3037 C   0  0  0  0  0  0
  -21.6871   -6.0722   22.5259 C   0  0  0  0  0  0
  -21.4049   -6.5620   23.8193 C   0  0  0  0  0  0
  -21.3684   -5.6761   24.9142 C   0  0  0  0  0  0
  -21.6065   -4.3023   24.7183 C   0  0  0  0  0  0
  -21.8826   -3.8121   23.4294 C   0  0  0  0  0  0
  -21.9200   -4.6948   22.3356 C   0  0  0  0  0  0
  -22.7765  -13.5209   21.1869 C   0  0  0  0  0  0
  -22.1650   -4.2139   21.0924 F   0  0  0  0  0  0
  -21.5641   -3.4508   25.7695 F   0  0  0  0  0  0
  -29.9789  -13.5840   20.3567 N   0  0  0  0  0  0
  -26.2924  -12.9504   20.3192 N   0  0  0  0  0  0
  -25.9322  -11.6626   20.5660 N   0  0  0  0  0  0
  -22.0420  -12.8210   22.0423 N   0  0  0  0  0  0
  -25.4034  -15.1978   20.4138 N   0  0  0  0  0  0
  -31.7873  -14.9130   20.1247 O   0  0  0  0  0  0
  -21.6647   -6.8889   21.4234 O   0  0  0  0  0  0
  -22.3425  -14.5513   20.6700 O   0  0  0  0  0  0
  -24.6454  -31.8503   23.1925 C   0  0  0  0  0  0
  -25.9227  -32.4747   23.8294 C   0  0  1  0  0  0
  -27.1754  -27.1415   20.0785 C   0  0  0  0  0  0
  -25.5990  -33.8541   24.2250 N   0  0  0  0  0  0
  -23.4433  -30.4758   21.5477 C   0  0  2  0  0  0
  -24.8722  -28.9133   20.1034 C   0  0  0  0  0  0
  -22.7593  -29.4577   22.4934 C   0  0  0  0  0  0
  -18.0310  -28.1401   22.8489 C   0  0  0  0  0  0
  -24.1487  -36.7251   23.2630 C   0  0  0  0  0  0
  -26.0012  -30.7139   21.3899 C   0  0  0  0  0  0
  -26.0595  -29.3296   20.7186 C   0  0  0  0  0  0
  -27.2123  -28.4575   20.6992 C   0  0  0  0  0  0
  -25.9581  -26.8427   19.4206 C   0  0  0  0  0  0
  -24.8323  -27.6820   19.4445 C   0  0  0  0  0  0
  -23.6599  -29.8230   20.1609 C   0  0  0  0  0  0
  -25.4126  -36.3052   24.0331 C   0  0  1  0  0  0
  -20.5929  -28.3723   23.1277 C   0  0  2  0  0  0
  -20.6807  -26.9452   22.5407 C   0  0  0  0  0  0
  -19.5765  -26.6396   21.5225 C   0  0  0  0  0  0
  -18.1947  -26.7945   22.1632 C   0  0  0  0  0  0
  -19.1566  -28.8885   23.2866 C   0  0  0  0  0  0
  -18.9470  -30.1480   23.8897 C   0  0  0  0  0  0
  -17.6462  -30.6601   24.0552 C   0  0  0  0  0  0
  -25.9094  -34.9433   23.5098 C   0  0  0  0  0  0
  -16.5361  -29.9097   23.6319 C   0  0  0  0  0  0
  -16.7290  -28.6506   23.0365 C   0  0  0  0  0  0
  -26.4541  -31.6563   25.0698 C   0  0  0  0  0  0
  -25.3737  -31.3712   26.1406 C   0  0  0  0  0  0
  -27.0385  -30.2963   24.6197 C   0  0  0  0  0  0
  -27.6095  -32.4306   25.7473 C   0  0  0  0  0  0
  -27.5599  -37.1796   24.8493 C   0  0  0  0  0  0
  -21.4295  -29.3057   22.3694 N   0  0  0  0  0  0
  -26.4301  -37.3763   23.9432 N   0  0  0  0  0  0
  -24.7189  -31.0326   22.0992 N   0  0  0  0  0  0
  -23.4250  -28.8107   23.3064 O   0  0  0  0  0  0
  -28.1931  -26.1171   20.1119 O   0  0  0  0  0  0
  -26.5643  -34.8929   22.4652 O   0  0  0  0  0  0
  -23.5580  -32.1410   23.7137 O   0  0  0  0  0  0
  -28.5834  -20.9796   18.9071 C   0  0  0  0  0  0
  -29.0427  -20.2975   20.0787 C   0  0  0  0  0  0
  -28.4948  -23.1902   19.9090 C   0  0  0  0  0  0
  -28.9982  -22.5136   21.0872 C   0  0  0  0  0  0
  -27.9505  -23.4844   23.1813 C   0  0  0  0  0  0
  -31.3353  -24.3247   21.2730 C   0  0  0  0  0  0
  -30.6943  -25.0392   23.5894 C   0  0  0  0  0  0
  -28.9586  -18.6717   20.2898 C   0  0  0  0  0  0
  -27.7678  -24.6647   19.7550 C   0  0  0  0  0  0
  -30.0975  -17.4884   20.0414 C   0  0  0  0  0  0
  -29.2574  -23.2603   22.3990 C   0  0  2  0  0  0
  -30.1566  -24.5234   22.2462 C   0  0  0  0  0  0
  -28.3250  -22.3430   18.8336 N   0  0  0  0  0  0
  -29.2536  -21.1362   21.1518 N   0  0  0  0  0  0
  -29.7785  -15.9857   20.3598 N   0  0  0  0  0  0
  -30.3844  -11.5225   19.9801 H   0  0  0  0  0  0
  -31.4757  -12.6039   19.1608 H   0  0  0  0  0  0
  -29.7854  -11.6952   17.5360 H   0  0  0  0  0  0
  -29.6395  -13.4318   17.6823 H   0  0  0  0  0  0
  -27.8809  -11.2920   18.9133 H   0  0  0  0  0  0
  -27.3885  -12.5342   17.7838 H   0  0  0  0  0  0
  -27.6198  -14.2648   19.4386 H   0  0  0  0  0  0
  -28.4231  -13.9324   21.7396 H   0  0  0  0  0  0
  -28.7295  -12.2379   21.4224 H   0  0  0  0  0  0
  -25.2798   -9.5668   22.4716 H   0  0  0  0  0  0
  -24.0032   -7.4620   22.7453 H   0  0  0  0  0  0
  -21.0850   -8.8809   19.8960 H   0  0  0  0  0  0
  -22.3734  -10.9669   19.6145 H   0  0  0  0  0  0
  -21.2056   -7.6132   23.9700 H   0  0  0  0  0  0
  -21.1515   -6.0465   25.9047 H   0  0  0  0  0  0
  -22.0588   -2.7589   23.2752 H   0  0  0  0  0  0
  -22.4080  -11.9942   22.4902 H   0  0  0  0  0  0
  -21.1020  -13.1214   22.2643 H   0  0  0  0  0  0
  -24.6228  -15.8363   20.5265 H   0  0  0  0  0  0
  -26.2318  -15.6425   20.0426 H   0  0  0  0  0  0
  -26.7281  -32.5357   23.1004 H   0  0  0  0  0  0
  -25.0193  -33.9702   25.0438 H   0  0  0  0  0  0
  -22.7445  -31.3023   21.4113 H   0  0  0  0  0  0
  -23.3780  -35.9555   23.3290 H   0  0  0  0  0  0
  -24.3560  -36.8869   22.2042 H   0  0  0  0  0  0
  -23.7223  -37.6446   23.6649 H   0  0  0  0  0  0
  -26.1576  -31.4661   20.6169 H   0  0  0  0  0  0
  -26.8752  -30.7627   22.0279 H   0  0  0  0  0  0
  -28.1114  -28.7698   21.2071 H   0  0  0  0  0  0
  -25.8061  -25.9201   18.8803 H   0  0  0  0  0  0
  -23.9236  -27.3704   18.9460 H   0  0  0  0  0  0
  -23.8107  -30.6081   19.4211 H   0  0  0  0  0  0
  -22.7687  -29.2784   19.8421 H   0  0  0  0  0  0
  -25.1305  -36.1882   25.0823 H   0  0  0  0  0  0
  -20.9974  -28.3251   24.1406 H   0  0  0  0  0  0
  -20.5735  -26.2341   23.3607 H   0  0  0  0  0  0
  -21.6686  -26.7508   22.1191 H   0  0  0  0  0  0
  -19.6957  -25.6299   21.1273 H   0  0  0  0  0  0
  -19.6686  -27.3198   20.6738 H   0  0  0  0  0  0
  -17.4240  -26.6696   21.4011 H   0  0  0  0  0  0
  -18.0331  -26.0091   22.9024 H   0  0  0  0  0  0
  -19.7940  -30.7292   24.2290 H   0  0  0  0  0  0
  -17.5010  -31.6275   24.5157 H   0  0  0  0  0  0
  -15.5364  -30.2982   23.7656 H   0  0  0  0  0  0
  -15.8684  -28.0797   22.7115 H   0  0  0  0  0  0
  -24.5962  -30.7005   25.7717 H   0  0  0  0  0  0
  -24.8865  -32.2865   26.4760 H   0  0  0  0  0  0
  -25.8044  -30.8940   27.0219 H   0  0  0  0  0  0
  -26.2957  -29.6716   24.1219 H   0  0  0  0  0  0
  -27.4074  -29.7208   25.4696 H   0  0  0  0  0  0
  -27.8837  -30.4245   23.9437 H   0  0  0  0  0  0
  -27.2733  -33.3661   26.1951 H   0  0  0  0  0  0
  -28.3930  -32.6776   25.0299 H   0  0  0  0  0  0
  -28.0711  -31.8476   26.5457 H   0  0  0  0  0  0
  -28.2636  -38.0075   24.7538 H   0  0  0  0  0  0
  -28.1090  -36.2625   24.6320 H   0  0  0  0  0  0
  -27.2336  -37.1442   25.8900 H   0  0  0  0  0  0
  -20.9546  -29.8732   21.6822 H   0  0  0  0  0  0
  -26.0180  -38.2847   24.1386 H   0  0  0  0  0  0
  -28.3107  -20.4106   18.0304 H   0  0  0  0  0  0
  -27.4520  -22.5301   23.3628 H   0  0  0  0  0  0
  -27.2514  -24.1229   22.6437 H   0  0  0  0  0  0
  -28.1299  -23.9400   24.1554 H   0  0  0  0  0  0
  -31.8937  -25.2513   21.1530 H   0  0  0  0  0  0
  -31.0108  -24.0370   20.2744 H   0  0  0  0  0  0
  -32.0264  -23.5611   21.6347 H   0  0  0  0  0  0
  -31.2867  -25.9443   23.4435 H   0  0  0  0  0  0
  -31.3291  -24.3061   24.0885 H   0  0  0  0  0  0
  -29.8832  -25.3067   24.2650 H   0  0  0  0  0  0
  -28.0984  -18.3858   19.6854 H   0  0  0  0  0  0
  -28.6348  -18.5516   21.3241 H   0  0  0  0  0  0
  -26.8062  -24.4962   20.2327 H   0  0  0  0  0  0
  -27.5561  -24.6992   18.6846 H   0  0  0  0  0  0
  -31.0123  -17.7547   20.5747 H   0  0  0  0  0  0
  -30.3684  -17.5171   18.9807 H   0  0  0  0  0  0
  -29.8287  -22.5707   23.0247 H   0  0  0  0  0  0
  -29.5494  -25.3265   21.8405 H   0  0  0  0  0  0
  -28.7992  -15.7742   20.4797 H   0  0  0  0  0  0
  1 25  1  0  0  0
  1 30  2  0  0  0
  1 85  1  0  0  0
  2  3  1  0  0  0
  2 25  1  0  0  0
  2 86  1  0  0  0
  2 87  1  0  0  0
  3  4  1  0  0  0
  3 88  1  0  0  0
  3 89  1  0  0  0
  4  5  1  0  0  0
  4 90  1  0  0  0
  4 91  1  0  0  0
  5  6  1  0  0  0
  5 26  1  0  0  0
  5 92  1  0  0  0
  6 25  1  0  0  0
  6 93  1  0  0  0
  6 94  1  0  0  0
  7  8  2  0  0  0
  7 26  1  0  0  0
  7 29  1  0  0  0
  8  9  1  0  0  0
  8 22  1  0  0  0
  9 10  1  0  0  0
  9 27  2  0  0  0
 10 11  2  0  0  0
 10 15  1  0  0  0
 11 12  1  0  0  0
 11 95  1  0  0  0
 12 13  2  0  0  0
 12 96  1  0  0  0
 13 14  1  0  0  0
 13 31  1  0  0  0
 14 15  2  0  0  0
 14 97  1  0  0  0
 15 98  1  0  0  0
 16 17  2  0  0  0
 16 21  1  0  0  0
 16 31  1  0  0  0
 17 18  1  0  0  0
 17 99  1  0  0  0
 18 19  2  0  0  0
 18100  1  0  0  0
 19 20  1  0  0  0
 19 24  1  0  0  0
 20 21  2  0  0  0
 20101  1  0  0  0
 21 23  1  0  0  0
 22 28  1  0  0  0
 22 32  2  0  0  0
 26 27  1  0  0  0
 28102  1  0  0  0
 28103  1  0  0  0
 29104  1  0  0  0
 29105  1  0  0  0
 33 34  1  0  0  0
 33 66  1  0  0  0
 33 70  2  0  0  0
 34 36  1  0  0  0
 34 59  1  0  0  0
 34106  1  0  0  0
 35 44  2  0  0  0
 35 45  1  0  0  0
 35 68  1  0  0  0
 36 56  1  0  0  0
 36107  1  0  0  0
 37 39  1  0  0  0
 37 47  1  0  0  0
 37 66  1  0  0  0
 37108  1  0  0  0
 38 43  2  0  0  0
 38 46  1  0  0  0
 38 47  1  0  0  0
 39 64  1  0  0  0
 39 67  2  0  0  0
 40 52  1  0  0  0
 40 53  2  0  0  0
 40 58  1  0  0  0
 41109  1  0  0  0
 41110  1  0  0  0
 41111  1  0  0  0
 41 48  1  0  0  0
 42 43  1  0  0  0
 42 66  1  0  0  0
 42112  1  0  0  0
 42113  1  0  0  0
 43 44  1  0  0  0
 44114  1  0  0  0
 45 46  2  0  0  0
 45115  1  0  0  0
 46116  1  0  0  0
 47117  1  0  0  0
 47118  1  0  0  0
 48 56  1  0  0  0
 48 65  1  0  0  0
 48119  1  0  0  0
 49 50  1  0  0  0
 49 53  1  0  0  0
 49 64  1  0  0  0
 49120  1  0  0  0
 50 51  1  0  0  0
 50121  1  0  0  0
 50122  1  0  0  0
 51 52  1  0  0  0
 51123  1  0  0  0
 51124  1  0  0  0
 52125  1  0  0  0
 52126  1  0  0  0
 53 54  1  0  0  0
 54 55  2  0  0  0
 54127  1  0  0  0
 55 57  1  0  0  0
 55128  1  0  0  0
 56 69  2  0  0  0
 57 58  2  0  0  0
 57129  1  0  0  0
 58130  1  0  0  0
 59 60  1  0  0  0
 59 61  1  0  0  0
 59 62  1  0  0  0
 60131  1  0  0  0
 60132  1  0  0  0
 60133  1  0  0  0
 61134  1  0  0  0
 61135  1  0  0  0
 61136  1  0  0  0
 62137  1  0  0  0
 62138  1  0  0  0
 62139  1  0  0  0
 63 65  1  0  0  0
 63140  1  0  0  0
 63141  1  0  0  0
 63142  1  0  0  0
 64143  1  0  0  0
 65144  1  0  0  0
 68 79  1  0  0  0
 71 72  2  0  0  0
 71 83  1  0  0  0
 71145  1  0  0  0
 72 78  1  0  0  0
 72 84  1  0  0  0
 73 74  1  0  0  0
 73 79  1  0  0  0
 73 83  2  0  0  0
 74 81  1  0  0  0
 74 84  2  0  0  0
 75146  1  0  0  0
 75147  1  0  0  0
 75148  1  0  0  0
 75 81  1  0  0  0
 76149  1  0  0  0
 76150  1  0  0  0
 76151  1  0  0  0
 76 82  1  0  0  0
 77 82  1  0  0  0
 77152  1  0  0  0
 77153  1  0  0  0
 77154  1  0  0  0
 78 80  1  0  0  0
 78155  1  0  0  0
 78156  1  0  0  0
 79157  1  0  0  0
 79158  1  0  0  0
 80 85  1  0  0  0
 80159  1  0  0  0
 80160  1  0  0  0
 81 82  1  0  0  0
 81161  1  0  0  0
 82162  1  0  0  0
 85163  1  0  0  0
M  ISO  4   1 100  68 101  79 101  85 100
M  END
> <chiral flag>
0

> <version>
0

> <s_m_source_file>
/data/baiqing/PycharmProjects/Reinvent-master-3.2/result/LINK_invent/BTK/process_docking_weight1_custom_sum_contain_oxygen_bond_distance_aromatic_linkinvent_7_9_3/rearranged_h_0094.sdf

> <i_m_source_file_index>
5

> <r_mmod_Potential_Energy-OPLS-2005>
520.217163085938

> <r_mmod_Stretch_Energy-OPLS-2005>
215.050323486328

> <r_mmod_Bend_Energy-OPLS-2005>
269.795593261719

> <r_mmod_Torsional_Energy-OPLS-2005>
216.327056884766

> <r_mmod_Improper_Torsional_Energy-OPLS-2005>
10.4381523132324

> <r_mmod_Van_der_Waal_Energy-OPLS-2005>
145.208084106445

> <r_mmod_Electrostatic_Energy-OPLS-2005>
-275.426208496094

> <r_mmod_Solvation_Energy-OPLS-2005>
-221.850784301758

> <b_mmod_Minimization_Converged-OPLS-2005>
0

> <r_mmod_RMS_Derivative-OPLS-2005>
5.9039101600647

$$$$
5
                    3D
 Structure written by MMmdl.
170178  0  0  1  0            999 V2000
  -30.7274  -14.4201   20.6188 C   0  0  0  0  0  0
  -30.4241  -12.2927   19.4110 C   0  0  0  0  0  0
  -29.4933  -12.5081   18.2009 C   0  0  0  0  0  0
  -28.0154  -12.3685   18.6139 C   0  0  0  0  0  0
  -27.6657  -13.2003   19.8765 C   0  0  2  0  0  0
  -28.7049  -12.9585   20.9950 C   0  0  0  0  0  0
  -25.2614  -13.8150   20.5666 C   0  0  0  0  0  0
  -24.1849  -13.0442   20.9157 C   0  0  0  0  0  0
  -24.6378  -11.6900   20.8707 C   0  0  0  0  0  0
  -23.9029  -10.4296   21.0393 C   0  0  0  0  0  0
  -24.3591   -9.4216   21.9175 C   0  0  0  0  0  0
  -23.6274   -8.2249   22.0750 C   0  0  0  0  0  0
  -22.4257   -8.0276   21.3540 C   0  0  0  0  0  0
  -21.9882   -9.0245   20.4644 C   0  0  0  0  0  0
  -22.7200  -10.2130   20.3048 C   0  0  0  0  0  0
  -21.6851   -6.0724   22.5273 C   0  0  0  0  0  0
  -21.4017   -6.5633   23.8205 C   0  0  0  0  0  0
  -21.3662   -5.6787   24.9171 C   0  0  0  0  0  0
  -21.6043   -4.3048   24.7218 C   0  0  0  0  0  0
  -21.8825   -3.8135   23.4345 C   0  0  0  0  0  0
  -21.9197   -4.6953   22.3398 C   0  0  0  0  0  0
  -22.7876  -13.5256   21.1813 C   0  0  0  0  0  0
  -22.1667   -4.2141   21.0975 F   0  0  0  0  0  0
  -21.5627   -3.4535   25.7734 F   0  0  0  0  0  0
  -30.0419  -13.2592   20.4516 N   0  0  0  0  0  0
  -26.3039  -12.9302   20.3347 N   0  0  0  0  0  0
  -25.9302  -11.6469   20.5728 N   0  0  0  0  0  0
  -22.0498  -12.8270   22.0371 N   0  0  0  0  0  0
  -25.4367  -15.1866   20.4077 N   0  0  0  0  0  0
  -31.8163  -14.6454   20.0834 O   0  0  0  0  0  0
  -21.6635   -6.8865   21.4231 O   0  0  0  0  0  0
  -22.3573  -14.5559   20.6649 O   0  0  0  0  0  0
  -24.6119  -31.8687   23.2113 C   0  0  0  0  0  0
  -25.9023  -32.4827   23.8403 C   0  0  1  0  0  0
  -27.2418  -27.4703   20.0823 C   0  0  0  0  0  0
  -25.5885  -33.8625   24.2334 N   0  0  0  0  0  0
  -23.3994  -30.4913   21.5501 C   0  0  2  0  0  0
  -24.8499  -28.9630   20.1097 C   0  0  0  0  0  0
  -22.7401  -29.4652   22.4990 C   0  0  0  0  0  0
  -18.0267  -28.1374   22.8487 C   0  0  0  0  0  0
  -24.1486  -36.7323   23.2639 C   0  0  0  0  0  0
  -25.9251  -30.8444   21.3603 C   0  0  0  0  0  0
  -26.0065  -29.4823   20.7055 C   0  0  0  0  0  0
  -27.2059  -28.7388   20.6975 C   0  0  0  0  0  0
  -26.0725  -26.9517   19.4911 C   0  0  0  0  0  0
  -24.8754  -27.6938   19.5016 C   0  0  0  0  0  0
  -23.6078  -29.8234   20.1636 C   0  0  0  0  0  0
  -25.4103  -36.3116   24.0339 C   0  0  1  0  0  0
  -20.5856  -28.3657   23.1322 C   0  0  2  0  0  0
  -20.6759  -26.9393   22.5419 C   0  0  0  0  0  0
  -19.5740  -26.6381   21.5210 C   0  0  0  0  0  0
  -18.1917  -26.7918   22.1620 C   0  0  0  0  0  0
  -19.1517  -28.8829   23.2902 C   0  0  0  0  0  0
  -18.9447  -30.1436   23.8913 C   0  0  0  0  0  0
  -17.6454  -30.6580   24.0562 C   0  0  0  0  0  0
  -25.9026  -34.9479   23.5134 C   0  0  0  0  0  0
  -16.5343  -29.9084   23.6323 C   0  0  0  0  0  0
  -16.7258  -28.6501   23.0342 C   0  0  0  0  0  0
  -26.4464  -31.6594   25.0717 C   0  0  0  0  0  0
  -25.3746  -31.3701   26.1480 C   0  0  0  0  0  0
  -27.0288  -30.3036   24.6071 C   0  0  0  0  0  0
  -27.6042  -32.4311   25.7480 C   0  0  0  0  0  0
  -27.5579  -37.1815   24.8463 C   0  0  0  0  0  0
  -21.4130  -29.3026   22.3734 N   0  0  0  0  0  0
  -26.4293  -37.3794   23.9404 N   0  0  0  0  0  0
  -24.6633  -31.0815   22.0998 N   0  0  0  0  0  0
  -23.4183  -28.8192   23.3021 O   0  0  0  0  0  0
  -28.3723  -26.6984   20.1432 O   0  0  0  0  0  0
  -26.5588  -34.8925   22.4697 O   0  0  0  0  0  0
  -23.5318  -32.1428   23.7525 O   0  0  0  0  0  0
  -29.0704  -22.8739   20.4198 C   0  0  0  0  0  0
  -31.0094  -23.8737   19.3922 C   0  0  0  0  0  0
  -29.6170  -23.6908   19.4112 C   0  0  0  0  0  0
  -29.9131  -22.3077   21.4038 C   0  0  0  0  0  0
  -31.2980  -22.5954   21.3148 C   0  0  0  0  0  0
  -32.3014  -22.1075   22.3442 C   0  0  0  0  0  0
  -28.1971  -22.3042   23.2712 C   0  0  0  0  0  0
  -28.6998  -24.3278   18.3685 C   0  0  0  0  0  0
  -29.0000  -25.7879   17.9426 C   0  0  0  0  0  0
  -30.5677  -16.7440   21.5275 C   0  0  0  0  0  0
  -29.3992  -17.7554   21.5617 C   0  0  0  0  0  0
  -28.7775  -20.0974   22.1396 C   0  0  0  0  0  0
  -29.2889  -26.8051   19.0649 C   0  0  0  0  0  0
  -29.2991  -21.4973   22.5589 C   0  0  1  0  0  0
  -31.8282  -23.3403   20.3210 N   0  0  0  0  0  0
  -30.1008  -15.3634   21.3383 N   0  0  0  0  0  0
  -29.8567  -19.1529   21.7655 N   0  3  0  0  0  0
  -31.4680  -12.3939   19.1078 H   0  0  0  0  0  0
  -30.3264  -11.2758   19.7934 H   0  0  0  0  0  0
  -29.7287  -11.7911   17.4133 H   0  0  0  0  0  0
  -29.6653  -13.4982   17.7757 H   0  0  0  0  0  0
  -27.8230  -11.3112   18.8030 H   0  0  0  0  0  0
  -27.3657  -12.6510   17.7850 H   0  0  0  0  0  0
  -27.7182  -14.2507   19.5890 H   0  0  0  0  0  0
  -28.6754  -11.9169   21.3194 H   0  0  0  0  0  0
  -28.4604  -13.5416   21.8834 H   0  0  0  0  0  0
  -25.2743   -9.5701   22.4741 H   0  0  0  0  0  0
  -23.9991   -7.4646   22.7474 H   0  0  0  0  0  0
  -21.0814   -8.8748   19.8953 H   0  0  0  0  0  0
  -22.3649  -10.9660   19.6153 H   0  0  0  0  0  0
  -21.2009   -7.6142   23.9703 H   0  0  0  0  0  0
  -21.1477   -6.0519   25.9073 H   0  0  0  0  0  0
  -22.0598   -2.7596   23.2841 H   0  0  0  0  0  0
  -22.4098  -11.9951   22.4811 H   0  0  0  0  0  0
  -21.1109  -13.1301   22.2528 H   0  0  0  0  0  0
  -24.6676  -15.8414   20.5003 H   0  0  0  0  0  0
  -26.2847  -15.6156   20.0586 H   0  0  0  0  0  0
  -26.7096  -32.5554   23.1174 H   0  0  0  0  0  0
  -25.0038  -33.9788   25.0481 H   0  0  0  0  0  0
  -22.6868  -31.3070   21.4120 H   0  0  0  0  0  0
  -23.3735  -35.9669   23.3316 H   0  0  0  0  0  0
  -24.3580  -36.8921   22.2050 H   0  0  0  0  0  0
  -23.7254  -37.6540   23.6642 H   0  0  0  0  0  0
  -26.0329  -31.6122   20.5933 H   0  0  0  0  0  0
  -26.8143  -30.8985   21.9766 H   0  0  0  0  0  0
  -28.0959  -29.1277   21.1722 H   0  0  0  0  0  0
  -26.0831  -25.9705   19.0394 H   0  0  0  0  0  0
  -23.9838  -27.2825   19.0478 H   0  0  0  0  0  0
  -23.7120  -30.5992   19.4043 H   0  0  0  0  0  0
  -22.7337  -29.2399   19.8688 H   0  0  0  0  0  0
  -25.1281  -36.1985   25.0833 H   0  0  0  0  0  0
  -20.9945  -28.3219   24.1444 H   0  0  0  0  0  0
  -20.5655  -26.2260   23.3602 H   0  0  0  0  0  0
  -21.6633  -26.7434   22.1216 H   0  0  0  0  0  0
  -19.6902  -25.6295   21.1226 H   0  0  0  0  0  0
  -19.6684  -27.3204   20.6750 H   0  0  0  0  0  0
  -17.4187  -26.6660   21.4022 H   0  0  0  0  0  0
  -18.0321  -26.0060   22.9018 H   0  0  0  0  0  0
  -19.7927  -30.7239   24.2294 H   0  0  0  0  0  0
  -17.5013  -31.6264   24.5158 H   0  0  0  0  0  0
  -15.5345  -30.2993   23.7639 H   0  0  0  0  0  0
  -15.8656  -28.0829   22.7047 H   0  0  0  0  0  0
  -24.5899  -30.7064   25.7828 H   0  0  0  0  0  0
  -24.8963  -32.2863   26.4956 H   0  0  0  0  0  0
  -25.8114  -30.8851   27.0220 H   0  0  0  0  0  0
  -26.2821  -29.6812   24.1124 H   0  0  0  0  0  0
  -27.4067  -29.7254   25.4514 H   0  0  0  0  0  0
  -27.8653  -30.4360   23.9204 H   0  0  0  0  0  0
  -27.2653  -33.3588   26.2104 H   0  0  0  0  0  0
  -28.3832  -32.6912   25.0299 H   0  0  0  0  0  0
  -28.0736  -31.8411   26.5364 H   0  0  0  0  0  0
  -28.2606  -38.0103   24.7497 H   0  0  0  0  0  0
  -28.1065  -36.2634   24.6300 H   0  0  0  0  0  0
  -27.2297  -37.1482   25.8867 H   0  0  0  0  0  0
  -20.9283  -29.8765   21.6980 H   0  0  0  0  0  0
  -26.0186  -38.2875   24.1397 H   0  0  0  0  0  0
  -28.0038  -22.7029   20.4495 H   0  0  0  0  0  0
  -31.4811  -24.4709   18.6261 H   0  0  0  0  0  0
  -32.0880  -22.5446   23.3199 H   0  0  0  0  0  0
  -33.3208  -22.3865   22.0751 H   0  0  0  0  0  0
  -32.2718  -21.0224   22.4332 H   0  0  0  0  0  0
  -28.5726  -23.2728   23.6032 H   0  0  0  0  0  0
  -27.8345  -21.7783   24.1550 H   0  0  0  0  0  0
  -27.3347  -22.4839   22.6299 H   0  0  0  0  0  0
  -27.6801  -24.2911   18.7520 H   0  0  0  0  0  0
  -28.7004  -23.6925   17.4823 H   0  0  0  0  0  0
  -28.1623  -26.1482   17.3437 H   0  0  0  0  0  0
  -29.8551  -25.7915   17.2656 H   0  0  0  0  0  0
  -31.1281  -16.7866   22.4631 H   0  0  0  0  0  0
  -31.2634  -17.0275   20.7346 H   0  0  0  0  0  0
  -28.7187  -17.4773   22.3684 H   0  0  0  0  0  0
  -28.8244  -17.7021   20.6354 H   0  0  0  0  0  0
  -28.0564  -20.1808   21.3251 H   0  0  0  0  0  0
  -28.2350  -19.6655   22.9821 H   0  0  0  0  0  0
  -29.3075  -27.8208   18.6640 H   0  0  0  0  0  0
  -30.2853  -26.6289   19.4702 H   0  0  0  0  0  0
  -30.0564  -21.3376   23.3253 H   0  0  0  0  0  0
  -29.2177  -15.1009   21.7511 H   0  0  0  0  0  0
  -30.3084  -19.4866   20.9289 H   0  0  0  0  0  0
  -30.5354  -19.1503   22.5089 H   0  0  0  0  0  0
  1 25  1  0  0  0
  1 30  2  0  0  0
  1 86  1  0  0  0
  2  3  1  0  0  0
  2 25  1  0  0  0
  2 88  1  0  0  0
  2 89  1  0  0  0
  3  4  1  0  0  0
  3 90  1  0  0  0
  3 91  1  0  0  0
  4  5  1  0  0  0
  4 92  1  0  0  0
  4 93  1  0  0  0
  5  6  1  0  0  0
  5 26  1  0  0  0
  5 94  1  0  0  0
  6 25  1  0  0  0
  6 95  1  0  0  0
  6 96  1  0  0  0
  7  8  2  0  0  0
  7 26  1  0  0  0
  7 29  1  0  0  0
  8  9  1  0  0  0
  8 22  1  0  0  0
  9 10  1  0  0  0
  9 27  2  0  0  0
 10 11  2  0  0  0
 10 15  1  0  0  0
 11 12  1  0  0  0
 11 97  1  0  0  0
 12 13  2  0  0  0
 12 98  1  0  0  0
 13 14  1  0  0  0
 13 31  1  0  0  0
 14 15  2  0  0  0
 14 99  1  0  0  0
 15100  1  0  0  0
 16 17  2  0  0  0
 16 21  1  0  0  0
 16 31  1  0  0  0
 17 18  1  0  0  0
 17101  1  0  0  0
 18 19  2  0  0  0
 18102  1  0  0  0
 19 20  1  0  0  0
 19 24  1  0  0  0
 20 21  2  0  0  0
 20103  1  0  0  0
 21 23  1  0  0  0
 22 28  1  0  0  0
 22 32  2  0  0  0
 26 27  1  0  0  0
 28104  1  0  0  0
 28105  1  0  0  0
 29106  1  0  0  0
 29107  1  0  0  0
 33 34  1  0  0  0
 33 66  1  0  0  0
 33 70  2  0  0  0
 34 36  1  0  0  0
 34 59  1  0  0  0
 34108  1  0  0  0
 35 44  2  0  0  0
 35 45  1  0  0  0
 35 68  1  0  0  0
 36 56  1  0  0  0
 36109  1  0  0  0
 37 39  1  0  0  0
 37 47  1  0  0  0
 37 66  1  0  0  0
 37110  1  0  0  0
 38 43  2  0  0  0
 38 46  1  0  0  0
 38 47  1  0  0  0
 39 64  1  0  0  0
 39 67  2  0  0  0
 40 52  1  0  0  0
 40 53  2  0  0  0
 40 58  1  0  0  0
 41111  1  0  0  0
 41112  1  0  0  0
 41113  1  0  0  0
 41 48  1  0  0  0
 42 43  1  0  0  0
 42 66  1  0  0  0
 42114  1  0  0  0
 42115  1  0  0  0
 43 44  1  0  0  0
 44116  1  0  0  0
 45 46  2  0  0  0
 45117  1  0  0  0
 46118  1  0  0  0
 47119  1  0  0  0
 47120  1  0  0  0
 48 56  1  0  0  0
 48 65  1  0  0  0
 48121  1  0  0  0
 49 50  1  0  0  0
 49 53  1  0  0  0
 49 64  1  0  0  0
 49122  1  0  0  0
 50 51  1  0  0  0
 50123  1  0  0  0
 50124  1  0  0  0
 51 52  1  0  0  0
 51125  1  0  0  0
 51126  1  0  0  0
 52127  1  0  0  0
 52128  1  0  0  0
 53 54  1  0  0  0
 54 55  2  0  0  0
 54129  1  0  0  0
 55 57  1  0  0  0
 55130  1  0  0  0
 56 69  2  0  0  0
 57 58  2  0  0  0
 57131  1  0  0  0
 58132  1  0  0  0
 59 60  1  0  0  0
 59 61  1  0  0  0
 59 62  1  0  0  0
 60133  1  0  0  0
 60134  1  0  0  0
 60135  1  0  0  0
 61136  1  0  0  0
 61137  1  0  0  0
 61138  1  0  0  0
 62139  1  0  0  0
 62140  1  0  0  0
 62141  1  0  0  0
 63 65  1  0  0  0
 63142  1  0  0  0
 63143  1  0  0  0
 63144  1  0  0  0
 64145  1  0  0  0
 65146  1  0  0  0
 68 83  1  0  0  0
 71 73  2  0  0  0
 71 74  1  0  0  0
 71147  1  0  0  0
 72 73  1  0  0  0
 72 85  2  0  0  0
 72148  1  0  0  0
 73 78  1  0  0  0
 74 75  2  0  0  0
 74 84  1  0  0  0
 75 76  1  0  0  0
 75 85  1  0  0  0
 76149  1  0  0  0
 76150  1  0  0  0
 76151  1  0  0  0
 77152  1  0  0  0
 77153  1  0  0  0
 77154  1  0  0  0
 77 84  1  0  0  0
 78 79  1  0  0  0
 78155  1  0  0  0
 78156  1  0  0  0
 79 83  1  0  0  0
 79157  1  0  0  0
 79158  1  0  0  0
 80 81  1  0  0  0
 80 86  1  0  0  0
 80159  1  0  0  0
 80160  1  0  0  0
 81 87  1  0  0  0
 81161  1  0  0  0
 81162  1  0  0  0
 82 84  1  0  0  0
 82 87  1  0  0  0
 82163  1  0  0  0
 82164  1  0  0  0
 83165  1  0  0  0
 83166  1  0  0  0
 84167  1  0  0  0
 86168  1  0  0  0
 87169  1  0  0  0
 87170  1  0  0  0
M  CHG  1  87   1
M  ISO  4   1 100  68 101  83 101  86 100
M  END
> <chiral flag>
0

> <version>
0

> <s_m_source_file>
/data/baiqing/PycharmProjects/Reinvent-master-3.2/result/LINK_invent/BTK/process_docking_weight1_custom_sum_contain_oxygen_bond_distance_aromatic_linkinvent_7_9_3/rearranged_h_0094.sdf

> <i_m_source_file_index>
6

> <r_mmod_Potential_Energy-OPLS-2005>
-439.762756347656

> <r_mmod_Stretch_Energy-OPLS-2005>
34.8193130493164

> <r_mmod_Bend_Energy-OPLS-2005>
98.2616195678711

> <r_mmod_Torsional_Energy-OPLS-2005>
236.72102355957

> <r_mmod_Improper_Torsional_Energy-OPLS-2005>
2.93121552467346

> <r_mmod_Van_der_Waal_Energy-OPLS-2005>
147.147125244141

> <r_mmod_Electrostatic_Energy-OPLS-2005>
-471.808380126953

> <r_mmod_Solvation_Energy-OPLS-2005>
-497.426483154297

> <b_mmod_Minimization_Converged-OPLS-2005>
0

> <r_mmod_RMS_Derivative-OPLS-2005>
0.980630874633789

$$$$
6
                    3D
 Structure written by MMmdl.
171179  0  0  1  0            999 V2000
  -30.6006  -14.7667   20.4262 C   0  0  0  0  0  0
  -30.4337  -12.4715   19.4537 C   0  0  0  0  0  0
  -29.5031  -12.4989   18.2224 C   0  0  0  0  0  0
  -28.0302  -12.3292   18.6446 C   0  0  0  0  0  0
  -27.6377  -13.2347   19.8428 C   0  0  2  0  0  0
  -28.6889  -13.1828   20.9702 C   0  0  0  0  0  0
  -25.2497  -13.8185   20.5698 C   0  0  0  0  0  0
  -24.1788  -13.0429   20.9223 C   0  0  0  0  0  0
  -24.6388  -11.6914   20.8761 C   0  0  0  0  0  0
  -23.9060  -10.4284   21.0406 C   0  0  0  0  0  0
  -24.3613   -9.4211   21.9177 C   0  0  0  0  0  0
  -23.6302   -8.2242   22.0755 C   0  0  0  0  0  0
  -22.4289   -8.0268   21.3541 C   0  0  0  0  0  0
  -21.9909   -9.0239   20.4640 C   0  0  0  0  0  0
  -22.7233  -10.2118   20.3052 C   0  0  0  0  0  0
  -21.6847   -6.0733   22.5272 C   0  0  0  0  0  0
  -21.4006   -6.5636   23.8206 C   0  0  0  0  0  0
  -21.3662   -5.6792   24.9169 C   0  0  0  0  0  0
  -21.6047   -4.3059   24.7218 C   0  0  0  0  0  0
  -21.8821   -3.8140   23.4342 C   0  0  0  0  0  0
  -21.9198   -4.6959   22.3399 C   0  0  0  0  0  0
  -22.7810  -13.5206   21.1888 C   0  0  0  0  0  0
  -22.1664   -4.2148   21.0977 F   0  0  0  0  0  0
  -21.5636   -3.4537   25.7731 F   0  0  0  0  0  0
  -29.9781  -13.5405   20.3661 N   0  0  0  0  0  0
  -26.2929  -12.9404   20.3287 N   0  0  0  0  0  0
  -25.9323  -11.6549   20.5759 N   0  0  0  0  0  0
  -22.0468  -12.8178   22.0438 N   0  0  0  0  0  0
  -25.4153  -15.1915   20.4115 N   0  0  0  0  0  0
  -31.8096  -14.8530   20.1971 O   0  0  0  0  0  0
  -21.6653   -6.8871   21.4235 O   0  0  0  0  0  0
  -22.3504  -14.5524   20.6757 O   0  0  0  0  0  0
  -24.6280  -31.8529   23.1934 C   0  0  0  0  0  0
  -25.9089  -32.4738   23.8301 C   0  0  1  0  0  0
  -27.2399  -27.2764   20.1035 C   0  0  0  0  0  0
  -25.5914  -33.8555   24.2229 N   0  0  0  0  0  0
  -23.4245  -30.4708   21.5364 C   0  0  2  0  0  0
  -24.8734  -28.9112   20.1042 C   0  0  0  0  0  0
  -22.7501  -29.4577   22.4910 C   0  0  0  0  0  0
  -18.0299  -28.1353   22.8504 C   0  0  0  0  0  0
  -24.1487  -36.7265   23.2661 C   0  0  0  0  0  0
  -25.9691  -30.7652   21.3706 C   0  0  0  0  0  0
  -26.0426  -29.3887   20.7109 C   0  0  0  0  0  0
  -27.2206  -28.5806   20.7023 C   0  0  0  0  0  0
  -26.0442  -26.8514   19.4851 C   0  0  0  0  0  0
  -24.8801  -27.6500   19.4833 C   0  0  0  0  0  0
  -23.6394  -29.7924   20.1549 C   0  0  0  0  0  0
  -25.4108  -36.3057   24.0345 C   0  0  1  0  0  0
  -20.5910  -28.3654   23.1284 C   0  0  2  0  0  0
  -20.6781  -26.9378   22.5410 C   0  0  0  0  0  0
  -19.5734  -26.6352   21.5222 C   0  0  0  0  0  0
  -18.1904  -26.7908   22.1622 C   0  0  0  0  0  0
  -19.1560  -28.8819   23.2886 C   0  0  0  0  0  0
  -18.9477  -30.1438   23.8872 C   0  0  0  0  0  0
  -17.6475  -30.6576   24.0539 C   0  0  0  0  0  0
  -25.9047  -34.9436   23.5083 C   0  0  0  0  0  0
  -16.5362  -29.9074   23.6322 C   0  0  0  0  0  0
  -16.7282  -28.6487   23.0354 C   0  0  0  0  0  0
  -26.4462  -31.6586   25.0719 C   0  0  0  0  0  0
  -25.3709  -31.3751   26.1463 C   0  0  0  0  0  0
  -27.0317  -30.3014   24.6182 C   0  0  0  0  0  0
  -27.5992  -32.4355   25.7484 C   0  0  0  0  0  0
  -27.5559  -37.1798   24.8475 C   0  0  0  0  0  0
  -21.4206  -29.3023   22.3683 N   0  0  0  0  0  0
  -26.4268  -37.3750   23.9429 N   0  0  0  0  0  0
  -24.6929  -31.0493   22.0894 N   0  0  0  0  0  0
  -23.4218  -28.8114   23.2982 O   0  0  0  0  0  0
  -28.3824  -26.4483   20.1653 O   0  0  0  0  0  0
  -26.5631  -34.8927   22.4659 O   0  0  0  0  0  0
  -23.5430  -32.1341   23.7232 O   0  0  0  0  0  0
  -26.9556  -20.9511   20.3932 C   0  0  0  0  0  0
  -26.5460  -19.6022   20.3946 C   0  0  0  0  0  0
  -28.3025  -20.9468   20.1506 C   0  0  0  0  0  0
  -30.5395  -22.2436   19.9370 C   0  0  0  0  0  0
  -24.6119  -19.6091   16.4067 C   0  0  0  0  0  0
  -24.0586  -21.2671   18.2276 C   0  0  0  0  0  0
  -25.1369  -19.0912   20.2982 C   0  0  0  0  0  0
  -24.7078  -18.8490   18.8311 C   0  0  0  0  0  0
  -28.4204  -23.7113   20.3369 C   0  0  0  0  0  0
  -29.9013  -18.6726   19.9411 C   0  0  0  0  0  0
  -30.2113  -17.3572   20.8642 C   0  0  0  0  0  0
  -28.5324  -25.1045   19.5173 C   0  0  0  0  0  0
  -29.0172  -22.2979   19.7524 C   0  0  2  0  0  0
  -24.9042  -20.0366   17.8527 C   0  0  0  0  0  0
  -27.5671  -18.7751   20.3467 N   0  0  0  0  0  0
  -28.6784  -19.5341   20.1958 N   0  0  0  0  0  0
  -29.8167  -15.9091   20.5389 N   0  0  0  0  0  0
  -31.4717  -12.6086   19.1451 H   0  0  0  0  0  0
  -30.3921  -11.5013   19.9517 H   0  0  0  0  0  0
  -29.7839  -11.7120   17.5213 H   0  0  0  0  0  0
  -29.6262  -13.4427   17.6881 H   0  0  0  0  0  0
  -27.8880  -11.2822   18.9114 H   0  0  0  0  0  0
  -27.3694  -12.5181   17.7985 H   0  0  0  0  0  0
  -27.6219  -14.2534   19.4563 H   0  0  0  0  0  0
  -28.7386  -12.1884   21.4176 H   0  0  0  0  0  0
  -28.4293  -13.8703   21.7768 H   0  0  0  0  0  0
  -25.2756   -9.5692   22.4761 H   0  0  0  0  0  0
  -24.0011   -7.4630   22.7468 H   0  0  0  0  0  0
  -21.0848   -8.8739   19.8940 H   0  0  0  0  0  0
  -22.3680  -10.9655   19.6164 H   0  0  0  0  0  0
  -21.1981   -7.6148   23.9705 H   0  0  0  0  0  0
  -21.1483   -6.0526   25.9075 H   0  0  0  0  0  0
  -22.0598   -2.7605   23.2840 H   0  0  0  0  0  0
  -22.4098  -11.9825   22.4780 H   0  0  0  0  0  0
  -21.1089  -13.1174   22.2662 H   0  0  0  0  0  0
  -24.6389  -15.8346   20.5144 H   0  0  0  0  0  0
  -26.2633  -15.6431   20.0935 H   0  0  0  0  0  0
  -26.7165  -32.5335   23.1052 H   0  0  0  0  0  0
  -25.0106  -33.9686   25.0393 H   0  0  0  0  0  0
  -22.7237  -31.2948   21.3852 H   0  0  0  0  0  0
  -23.3751  -35.9597   23.3317 H   0  0  0  0  0  0
  -24.3588  -36.8852   22.2073 H   0  0  0  0  0  0
  -23.7247  -37.6475   23.6677 H   0  0  0  0  0  0
  -26.1191  -31.5248   20.6033 H   0  0  0  0  0  0
  -26.8487  -30.8087   22.0030 H   0  0  0  0  0  0
  -28.1152  -28.9474   21.1877 H   0  0  0  0  0  0
  -25.9767  -25.8776   19.0266 H   0  0  0  0  0  0
  -23.9802  -27.2761   19.0136 H   0  0  0  0  0  0
  -23.7508  -30.5651   19.3944 H   0  0  0  0  0  0
  -22.7581  -29.2192   19.8537 H   0  0  0  0  0  0
  -25.1288  -36.1880   25.0832 H   0  0  0  0  0  0
  -21.0015  -28.3182   24.1395 H   0  0  0  0  0  0
  -20.5634  -26.2265   23.3610 H   0  0  0  0  0  0
  -21.6633  -26.7337   22.1203 H   0  0  0  0  0  0
  -19.6892  -25.6268   21.1234 H   0  0  0  0  0  0
  -19.6673  -27.3191   20.6780 H   0  0  0  0  0  0
  -17.4199  -26.6696   21.4015 H   0  0  0  0  0  0
  -18.0245  -26.0045   22.8988 H   0  0  0  0  0  0
  -19.7959  -30.7258   24.2212 H   0  0  0  0  0  0
  -17.5033  -31.6256   24.5153 H   0  0  0  0  0  0
  -15.5361  -30.2955   23.7693 H   0  0  0  0  0  0
  -15.8675  -28.0805   22.7072 H   0  0  0  0  0  0
  -24.5865  -30.7104   25.7826 H   0  0  0  0  0  0
  -24.8946  -32.2943   26.4885 H   0  0  0  0  0  0
  -25.8055  -30.8949   27.0235 H   0  0  0  0  0  0
  -26.2904  -29.6783   24.1187 H   0  0  0  0  0  0
  -27.4007  -29.7238   25.4655 H   0  0  0  0  0  0
  -27.8758  -30.4313   23.9418 H   0  0  0  0  0  0
  -27.2572  -33.3664   26.2008 H   0  0  0  0  0  0
  -28.3833  -32.6898   25.0352 H   0  0  0  0  0  0
  -28.0643  -31.8546   26.5447 H   0  0  0  0  0  0
  -28.2584  -38.0084   24.7464 H   0  0  0  0  0  0
  -28.1033  -36.2611   24.6332 H   0  0  0  0  0  0
  -27.2286  -37.1439   25.8881 H   0  0  0  0  0  0
  -20.9373  -29.8781   21.6933 H   0  0  0  0  0  0
  -26.0129  -38.2821   24.1402 H   0  0  0  0  0  0
  -26.2971  -21.8047   20.3961 H   0  0  0  0  0  0
  -30.9798  -21.4509   19.3319 H   0  0  0  0  0  0
  -30.8043  -22.0680   20.9798 H   0  0  0  0  0  0
  -31.0047  -23.1738   19.6146 H   0  0  0  0  0  0
  -24.7925  -20.4293   15.7099 H   0  0  0  0  0  0
  -23.5756  -19.2932   16.2845 H   0  0  0  0  0  0
  -25.2521  -18.7801   16.1021 H   0  0  0  0  0  0
  -24.2071  -22.0758   17.5100 H   0  0  0  0  0  0
  -24.3230  -21.6610   19.2088 H   0  0  0  0  0  0
  -22.9944  -21.0279   18.2426 H   0  0  0  0  0  0
  -24.4574  -19.8058   20.7639 H   0  0  0  0  0  0
  -25.0288  -18.1678   20.8674 H   0  0  0  0  0  0
  -23.6652  -18.5301   18.8152 H   0  0  0  0  0  0
  -25.2831  -17.9999   18.4567 H   0  0  0  0  0  0
  -27.3544  -23.6043   20.5135 H   0  0  0  0  0  0
  -28.8423  -23.8580   21.3302 H   0  0  0  0  0  0
  -29.9065  -18.3931   18.8870 H   0  0  0  0  0  0
  -30.7564  -19.3371   20.0595 H   0  0  0  0  0  0
  -29.8411  -17.5660   21.8682 H   0  0  0  0  0  0
  -31.2947  -17.3390   20.9883 H   0  0  0  0  0  0
  -27.9272  -25.0469   18.6138 H   0  0  0  0  0  0
  -29.5507  -25.1369   19.1318 H   0  0  0  0  0  0
  -28.8614  -22.3778   18.6750 H   0  0  0  0  0  0
  -25.9544  -20.3332   17.8713 H   0  0  0  0  0  0
  -28.8245  -15.7316   20.5772 H   0  0  0  0  0  0
  1 25  1  0  0  0
  1 30  2  0  0  0
  1 87  1  0  0  0
  2  3  1  0  0  0
  2 25  1  0  0  0
  2 88  1  0  0  0
  2 89  1  0  0  0
  3  4  1  0  0  0
  3 90  1  0  0  0
  3 91  1  0  0  0
  4  5  1  0  0  0
  4 92  1  0  0  0
  4 93  1  0  0  0
  5  6  1  0  0  0
  5 26  1  0  0  0
  5 94  1  0  0  0
  6 25  1  0  0  0
  6 95  1  0  0  0
  6 96  1  0  0  0
  7  8  2  0  0  0
  7 26  1  0  0  0
  7 29  1  0  0  0
  8  9  1  0  0  0
  8 22  1  0  0  0
  9 10  1  0  0  0
  9 27  2  0  0  0
 10 11  2  0  0  0
 10 15  1  0  0  0
 11 12  1  0  0  0
 11 97  1  0  0  0
 12 13  2  0  0  0
 12 98  1  0  0  0
 13 14  1  0  0  0
 13 31  1  0  0  0
 14 15  2  0  0  0
 14 99  1  0  0  0
 15100  1  0  0  0
 16 17  2  0  0  0
 16 21  1  0  0  0
 16 31  1  0  0  0
 17 18  1  0  0  0
 17101  1  0  0  0
 18 19  2  0  0  0
 18102  1  0  0  0
 19 20  1  0  0  0
 19 24  1  0  0  0
 20 21  2  0  0  0
 20103  1  0  0  0
 21 23  1  0  0  0
 22 28  1  0  0  0
 22 32  2  0  0  0
 26 27  1  0  0  0
 28104  1  0  0  0
 28105  1  0  0  0
 29106  1  0  0  0
 29107  1  0  0  0
 33 34  1  0  0  0
 33 66  1  0  0  0
 33 70  2  0  0  0
 34 36  1  0  0  0
 34 59  1  0  0  0
 34108  1  0  0  0
 35 44  2  0  0  0
 35 45  1  0  0  0
 35 68  1  0  0  0
 36 56  1  0  0  0
 36109  1  0  0  0
 37 39  1  0  0  0
 37 47  1  0  0  0
 37 66  1  0  0  0
 37110  1  0  0  0
 38 43  2  0  0  0
 38 46  1  0  0  0
 38 47  1  0  0  0
 39 64  1  0  0  0
 39 67  2  0  0  0
 40 52  1  0  0  0
 40 53  2  0  0  0
 40 58  1  0  0  0
 41111  1  0  0  0
 41112  1  0  0  0
 41113  1  0  0  0
 41 48  1  0  0  0
 42 43  1  0  0  0
 42 66  1  0  0  0
 42114  1  0  0  0
 42115  1  0  0  0
 43 44  1  0  0  0
 44116  1  0  0  0
 45 46  2  0  0  0
 45117  1  0  0  0
 46118  1  0  0  0
 47119  1  0  0  0
 47120  1  0  0  0
 48 56  1  0  0  0
 48 65  1  0  0  0
 48121  1  0  0  0
 49 50  1  0  0  0
 49 53  1  0  0  0
 49 64  1  0  0  0
 49122  1  0  0  0
 50 51  1  0  0  0
 50123  1  0  0  0
 50124  1  0  0  0
 51 52  1  0  0  0
 51125  1  0  0  0
 51126  1  0  0  0
 52127  1  0  0  0
 52128  1  0  0  0
 53 54  1  0  0  0
 54 55  2  0  0  0
 54129  1  0  0  0
 55 57  1  0  0  0
 55130  1  0  0  0
 56 69  2  0  0  0
 57 58  2  0  0  0
 57131  1  0  0  0
 58132  1  0  0  0
 59 60  1  0  0  0
 59 61  1  0  0  0
 59 62  1  0  0  0
 60133  1  0  0  0
 60134  1  0  0  0
 60135  1  0  0  0
 61136  1  0  0  0
 61137  1  0  0  0
 61138  1  0  0  0
 62139  1  0  0  0
 62140  1  0  0  0
 62141  1  0  0  0
 63 65  1  0  0  0
 63142  1  0  0  0
 63143  1  0  0  0
 63144  1  0  0  0
 64145  1  0  0  0
 65146  1  0  0  0
 68 82  1  0  0  0
 71 72  1  0  0  0
 71 73  2  0  0  0
 71147  1  0  0  0
 72 77  1  0  0  0
 72 85  2  0  0  0
 73 83  1  0  0  0
 73 86  1  0  0  0
 74148  1  0  0  0
 74149  1  0  0  0
 74150  1  0  0  0
 74 83  1  0  0  0
 75151  1  0  0  0
 75152  1  0  0  0
 75153  1  0  0  0
 75 84  1  0  0  0
 76 84  1  0  0  0
 76154  1  0  0  0
 76155  1  0  0  0
 76156  1  0  0  0
 77 78  1  0  0  0
 77157  1  0  0  0
 77158  1  0  0  0
 78 84  1  0  0  0
 78159  1  0  0  0
 78160  1  0  0  0
 79 82  1  0  0  0
 79 83  1  0  0  0
 79161  1  0  0  0
 79162  1  0  0  0
 80 81  1  0  0  0
 80 86  1  0  0  0
 80163  1  0  0  0
 80164  1  0  0  0
 81 87  1  0  0  0
 81165  1  0  0  0
 81166  1  0  0  0
 82167  1  0  0  0
 82168  1  0  0  0
 83169  1  0  0  0
 84170  1  0  0  0
 85 86  1  0  0  0
 87171  1  0  0  0
M  ISO  4   1 100  68 101  82 101  87 100
M  END
> <chiral flag>
0

> <version>
0

> <s_m_source_file>
/data/baiqing/PycharmProjects/Reinvent-master-3.2/result/LINK_invent/BTK/process_docking_weight1_custom_sum_contain_oxygen_bond_distance_aromatic_linkinvent_7_9_3/rearranged_h_0094.sdf

> <i_m_source_file_index>
7

> <r_mmod_Potential_Energy-OPLS-2005>
197.458938598633

> <r_mmod_Stretch_Energy-OPLS-2005>
136.601043701172

> <r_mmod_Bend_Energy-OPLS-2005>
236.733703613281

> <r_mmod_Torsional_Energy-OPLS-2005>
236.328018188477

> <r_mmod_Improper_Torsional_Energy-OPLS-2005>
6.78736305236816

> <r_mmod_Van_der_Waal_Energy-OPLS-2005>
102.755142211914

> <r_mmod_Electrostatic_Energy-OPLS-2005>
-406.929718017578

> <r_mmod_Solvation_Energy-OPLS-2005>
-201.412673950195

> <b_mmod_Minimization_Converged-OPLS-2005>
0

> <r_mmod_RMS_Derivative-OPLS-2005>
3.58679723739624

$$$$
7
                    3D
 Structure written by MMmdl.
181189  0  0  1  0            999 V2000
  -30.6231  -14.5686   20.5396 C   0  0  0  0  0  0
  -30.4438  -12.3594   19.4310 C   0  0  0  0  0  0
  -29.5073  -12.5157   18.2118 C   0  0  0  0  0  0
  -28.0243  -12.3664   18.6125 C   0  0  0  0  0  0
  -27.6576  -13.2067   19.8662 C   0  0  2  0  0  0
  -28.7010  -13.0031   20.9876 C   0  0  0  0  0  0
  -25.2572  -13.8158   20.5638 C   0  0  0  0  0  0
  -24.1828  -13.0454   20.9139 C   0  0  0  0  0  0
  -24.6373  -11.6917   20.8716 C   0  0  0  0  0  0
  -23.9049  -10.4313   21.0374 C   0  0  0  0  0  0
  -24.3610   -9.4247   21.9168 C   0  0  0  0  0  0
  -23.6306   -8.2273   22.0749 C   0  0  0  0  0  0
  -22.4297   -8.0283   21.3527 C   0  0  0  0  0  0
  -21.9907   -9.0249   20.4629 C   0  0  0  0  0  0
  -22.7213  -10.2141   20.3036 C   0  0  0  0  0  0
  -21.6868   -6.0738   22.5275 C   0  0  0  0  0  0
  -21.4030   -6.5647   23.8202 C   0  0  0  0  0  0
  -21.3666   -5.6793   24.9168 C   0  0  0  0  0  0
  -21.6051   -4.3048   24.7221 C   0  0  0  0  0  0
  -21.8819   -3.8141   23.4339 C   0  0  0  0  0  0
  -21.9203   -4.6964   22.3395 C   0  0  0  0  0  0
  -22.7847  -13.5254   21.1819 C   0  0  0  0  0  0
  -22.1665   -4.2151   21.0969 F   0  0  0  0  0  0
  -21.5627   -3.4533   25.7729 F   0  0  0  0  0  0
  -30.0222  -13.3471   20.4363 N   0  0  0  0  0  0
  -26.3002  -12.9320   20.3298 N   0  0  0  0  0  0
  -25.9291  -11.6493   20.5709 N   0  0  0  0  0  0
  -22.0473  -12.8273   22.0381 N   0  0  0  0  0  0
  -25.4316  -15.1882   20.4061 N   0  0  0  0  0  0
  -31.7753  -14.7760   20.1494 O   0  0  0  0  0  0
  -21.6663   -6.8876   21.4233 O   0  0  0  0  0  0
  -22.3540  -14.5555   20.6652 O   0  0  0  0  0  0
  -24.6167  -31.8644   23.2041 C   0  0  0  0  0  0
  -25.9017  -32.4814   23.8374 C   0  0  1  0  0  0
  -27.2468  -27.3877   20.1235 C   0  0  0  0  0  0
  -25.5851  -33.8613   24.2302 N   0  0  0  0  0  0
  -23.4112  -30.4817   21.5453 C   0  0  2  0  0  0
  -24.8636  -28.9345   20.1220 C   0  0  0  0  0  0
  -22.7434  -29.4623   22.4972 C   0  0  0  0  0  0
  -18.0274  -28.1383   22.8488 C   0  0  0  0  0  0
  -24.1486  -36.7322   23.2648 C   0  0  0  0  0  0
  -25.9432  -30.8160   21.3642 C   0  0  0  0  0  0
  -26.0252  -29.4446   20.7157 C   0  0  0  0  0  0
  -27.2220  -28.6817   20.7059 C   0  0  0  0  0  0
  -26.0661  -26.9037   19.5183 C   0  0  0  0  0  0
  -24.8799  -27.6643   19.5187 C   0  0  0  0  0  0
  -23.6250  -29.8033   20.1657 C   0  0  0  0  0  0
  -25.4105  -36.3104   24.0345 C   0  0  1  0  0  0
  -20.5866  -28.3662   23.1305 C   0  0  2  0  0  0
  -20.6756  -26.9397   22.5399 C   0  0  0  0  0  0
  -19.5741  -26.6380   21.5193 C   0  0  0  0  0  0
  -18.1921  -26.7929   22.1612 C   0  0  0  0  0  0
  -19.1526  -28.8842   23.2896 C   0  0  0  0  0  0
  -18.9452  -30.1441   23.8917 C   0  0  0  0  0  0
  -17.6456  -30.6591   24.0557 C   0  0  0  0  0  0
  -25.9025  -34.9472   23.5132 C   0  0  0  0  0  0
  -16.5345  -29.9084   23.6340 C   0  0  0  0  0  0
  -16.7258  -28.6497   23.0367 C   0  0  0  0  0  0
  -26.4427  -31.6620   25.0726 C   0  0  0  0  0  0
  -25.3673  -31.3753   26.1463 C   0  0  0  0  0  0
  -27.0254  -30.3051   24.6143 C   0  0  0  0  0  0
  -27.6009  -32.4338   25.7486 C   0  0  0  0  0  0
  -27.5589  -37.1808   24.8462 C   0  0  0  0  0  0
  -21.4156  -29.3033   22.3721 N   0  0  0  0  0  0
  -26.4300  -37.3778   23.9407 N   0  0  0  0  0  0
  -24.6755  -31.0697   22.0958 N   0  0  0  0  0  0
  -23.4175  -28.8174   23.3049 O   0  0  0  0  0  0
  -28.4057  -26.6240   20.1091 O   0  0  0  0  0  0
  -26.5617  -34.8932   22.4709 O   0  0  0  0  0  0
  -23.5341  -32.1418   23.7388 O   0  0  0  0  0  0
  -29.6259  -20.3859   20.3535 C   0  0  0  0  0  0
  -27.7467  -21.7389   19.6206 C   0  0  0  0  0  0
  -28.9788  -21.6559   20.2826 C   0  0  0  0  0  0
  -29.0611  -19.2066   19.7763 C   0  0  0  0  0  0
  -27.7711  -19.3260   19.1699 C   0  0  0  0  0  0
  -27.1268  -20.5891   19.0856 C   0  0  0  0  0  0
  -27.2985  -17.8839   17.1160 C   0  0  0  0  0  0
  -23.0481  -22.9606   15.9247 C   0  0  0  0  0  0
  -31.2568  -18.0953   19.1262 C   0  0  0  0  0  0
  -30.8444  -25.0203   20.4047 C   0  0  0  0  0  0
  -29.5453  -22.9185   20.9706 C   0  0  0  0  0  0
  -27.0280  -18.1130   18.6077 C   0  0  0  0  0  0
  -24.2216  -22.5576   16.8267 C   0  0  0  0  0  0
  -23.7709  -21.7371   18.0452 C   0  0  0  0  0  0
  -29.9602  -17.0416   21.0565 C   0  0  0  0  0  0
  -24.9023  -21.4764   19.0476 C   0  0  0  0  0  0
  -28.3293  -25.2758   20.6613 C   0  0  0  0  0  0
  -29.8613  -17.8601   19.7246 C   0  0  1  0  0  0
  -29.4891  -24.3093   20.2163 C   0  0  1  0  0  0
  -29.7949  -15.5653   20.9383 N   0  0  0  0  0  0
  -25.9145  -20.6779   18.4362 O   0  0  0  0  0  0
  -31.4820  -12.5017   19.1229 H   0  0  0  0  0  0
  -30.3865  -11.3512   19.8437 H   0  0  0  0  0  0
  -29.7651  -11.7873   17.4430 H   0  0  0  0  0  0
  -29.6603  -13.5004   17.7659 H   0  0  0  0  0  0
  -27.8268  -11.3111   18.7994 H   0  0  0  0  0  0
  -27.3857  -12.6461   17.7739 H   0  0  0  0  0  0
  -27.6919  -14.2529   19.5606 H   0  0  0  0  0  0
  -28.6990  -11.9639   21.3222 H   0  0  0  0  0  0
  -28.4490  -13.5926   21.8692 H   0  0  0  0  0  0
  -25.2756   -9.5768   22.4729 H   0  0  0  0  0  0
  -24.0037   -7.4689   22.7491 H   0  0  0  0  0  0
  -21.0823   -8.8755   19.8950 H   0  0  0  0  0  0
  -22.3656  -10.9669   19.6135 H   0  0  0  0  0  0
  -21.2025   -7.6154   23.9712 H   0  0  0  0  0  0
  -21.1488   -6.0518   25.9075 H   0  0  0  0  0  0
  -22.0590   -2.7605   23.2828 H   0  0  0  0  0  0
  -22.4099  -11.9972   22.4827 H   0  0  0  0  0  0
  -21.1067  -13.1283   22.2525 H   0  0  0  0  0  0
  -24.6630  -15.8403   20.5068 H   0  0  0  0  0  0
  -26.2837  -15.6229   20.0822 H   0  0  0  0  0  0
  -26.7098  -32.5519   23.1159 H   0  0  0  0  0  0
  -24.9937  -33.9769   25.0402 H   0  0  0  0  0  0
  -22.7010  -31.2976   21.3968 H   0  0  0  0  0  0
  -23.3742  -35.9658   23.3301 H   0  0  0  0  0  0
  -24.3601  -36.8942   22.2065 H   0  0  0  0  0  0
  -23.7240  -37.6530   23.6667 H   0  0  0  0  0  0
  -26.0602  -31.5756   20.5900 H   0  0  0  0  0  0
  -26.8278  -30.8751   21.9867 H   0  0  0  0  0  0
  -28.1205  -29.0722   21.1634 H   0  0  0  0  0  0
  -26.0577  -25.9358   19.0378 H   0  0  0  0  0  0
  -23.9879  -27.2672   19.0537 H   0  0  0  0  0  0
  -23.7332  -30.5708   19.3982 H   0  0  0  0  0  0
  -22.7501  -29.2175   19.8754 H   0  0  0  0  0  0
  -25.1283  -36.1977   25.0838 H   0  0  0  0  0  0
  -20.9955  -28.3213   24.1427 H   0  0  0  0  0  0
  -20.5626  -26.2275   23.3582 H   0  0  0  0  0  0
  -21.6631  -26.7422   22.1211 H   0  0  0  0  0  0
  -19.6901  -25.6288   21.1228 H   0  0  0  0  0  0
  -19.6687  -27.3187   20.6717 H   0  0  0  0  0  0
  -17.4179  -26.6663   21.4025 H   0  0  0  0  0  0
  -18.0342  -26.0077   22.9019 H   0  0  0  0  0  0
  -19.7926  -30.7244   24.2306 H   0  0  0  0  0  0
  -17.5012  -31.6275   24.5144 H   0  0  0  0  0  0
  -15.5344  -30.2982   23.7677 H   0  0  0  0  0  0
  -15.8651  -28.0802   22.7106 H   0  0  0  0  0  0
  -24.5822  -30.7139   25.7787 H   0  0  0  0  0  0
  -24.8881  -32.2915   26.4917 H   0  0  0  0  0  0
  -25.7975  -30.8895   27.0232 H   0  0  0  0  0  0
  -26.2806  -29.6837   24.1153 H   0  0  0  0  0  0
  -27.3956  -29.7269   25.4626 H   0  0  0  0  0  0
  -27.8673  -30.4362   23.9344 H   0  0  0  0  0  0
  -27.2634  -33.3627   26.2110 H   0  0  0  0  0  0
  -28.3785  -32.6935   25.0285 H   0  0  0  0  0  0
  -28.0726  -31.8446   26.5366 H   0  0  0  0  0  0
  -28.2588  -38.0125   24.7512 H   0  0  0  0  0  0
  -28.1104  -36.2651   24.6263 H   0  0  0  0  0  0
  -27.2328  -37.1433   25.8875 H   0  0  0  0  0  0
  -20.9323  -29.8755   21.6945 H   0  0  0  0  0  0
  -26.0198  -38.2866   24.1377 H   0  0  0  0  0  0
  -30.5801  -20.3189   20.8551 H   0  0  0  0  0  0
  -27.2865  -22.7094   19.5343 H   0  0  0  0  0  0
  -26.7578  -17.0043   16.7606 H   0  0  0  0  0  0
  -28.3581  -17.7281   16.9167 H   0  0  0  0  0  0
  -26.9688  -18.7397   16.5246 H   0  0  0  0  0  0
  -23.4054  -23.4686   15.0298 H   0  0  0  0  0  0
  -22.3643  -23.6391   16.4396 H   0  0  0  0  0  0
  -22.4731  -22.0907   15.6037 H   0  0  0  0  0  0
  -31.1817  -18.5646   18.1466 H   0  0  0  0  0  0
  -31.7925  -17.1554   18.9969 H   0  0  0  0  0  0
  -31.8742  -18.7390   19.7543 H   0  0  0  0  0  0
  -31.6688  -24.4048   20.0399 H   0  0  0  0  0  0
  -31.0346  -25.2382   21.4579 H   0  0  0  0  0  0
  -30.8825  -25.9633   19.8579 H   0  0  0  0  0  0
  -30.5835  -22.6785   21.2065 H   0  0  0  0  0  0
  -29.0585  -23.0125   21.9420 H   0  0  0  0  0  0
  -25.9555  -18.2382   18.7553 H   0  0  0  0  0  0
  -27.2661  -17.2191   19.1820 H   0  0  0  0  0  0
  -24.7487  -23.4547   17.1553 H   0  0  0  0  0  0
  -24.9384  -21.9740   16.2457 H   0  0  0  0  0  0
  -23.3435  -20.7888   17.7179 H   0  0  0  0  0  0
  -22.9740  -22.2744   18.5628 H   0  0  0  0  0  0
  -29.1496  -17.3670   21.7095 H   0  0  0  0  0  0
  -30.8797  -17.2860   21.5919 H   0  0  0  0  0  0
  -24.5122  -20.9327   19.9089 H   0  0  0  0  0  0
  -25.2510  -22.4363   19.4220 H   0  0  0  0  0  0
  -28.3474  -25.3764   21.7477 H   0  0  0  0  0  0
  -27.3776  -24.8025   20.4309 H   0  0  0  0  0  0
  -29.3792  -17.2081   19.0008 H   0  0  0  0  0  0
  -29.3919  -24.1140   19.1473 H   0  0  0  0  0  0
  -28.8828  -15.2315   21.2118 H   0  0  0  0  0  0
  1 25  1  0  0  0
  1 30  2  0  0  0
  1 90  1  0  0  0
  2  3  1  0  0  0
  2 25  1  0  0  0
  2 92  1  0  0  0
  2 93  1  0  0  0
  3  4  1  0  0  0
  3 94  1  0  0  0
  3 95  1  0  0  0
  4  5  1  0  0  0
  4 96  1  0  0  0
  4 97  1  0  0  0
  5  6  1  0  0  0
  5 26  1  0  0  0
  5 98  1  0  0  0
  6 25  1  0  0  0
  6 99  1  0  0  0
  6100  1  0  0  0
  7  8  2  0  0  0
  7 26  1  0  0  0
  7 29  1  0  0  0
  8  9  1  0  0  0
  8 22  1  0  0  0
  9 10  1  0  0  0
  9 27  2  0  0  0
 10 11  2  0  0  0
 10 15  1  0  0  0
 11 12  1  0  0  0
 11101  1  0  0  0
 12 13  2  0  0  0
 12102  1  0  0  0
 13 14  1  0  0  0
 13 31  1  0  0  0
 14 15  2  0  0  0
 14103  1  0  0  0
 15104  1  0  0  0
 16 17  2  0  0  0
 16 21  1  0  0  0
 16 31  1  0  0  0
 17 18  1  0  0  0
 17105  1  0  0  0
 18 19  2  0  0  0
 18106  1  0  0  0
 19 20  1  0  0  0
 19 24  1  0  0  0
 20 21  2  0  0  0
 20107  1  0  0  0
 21 23  1  0  0  0
 22 28  1  0  0  0
 22 32  2  0  0  0
 26 27  1  0  0  0
 28108  1  0  0  0
 28109  1  0  0  0
 29110  1  0  0  0
 29111  1  0  0  0
 33 34  1  0  0  0
 33 66  1  0  0  0
 33 70  2  0  0  0
 34 36  1  0  0  0
 34 59  1  0  0  0
 34112  1  0  0  0
 35 44  2  0  0  0
 35 45  1  0  0  0
 35 68  1  0  0  0
 36 56  1  0  0  0
 36113  1  0  0  0
 37 39  1  0  0  0
 37 47  1  0  0  0
 37 66  1  0  0  0
 37114  1  0  0  0
 38 43  2  0  0  0
 38 46  1  0  0  0
 38 47  1  0  0  0
 39 64  1  0  0  0
 39 67  2  0  0  0
 40 52  1  0  0  0
 40 53  2  0  0  0
 40 58  1  0  0  0
 41115  1  0  0  0
 41116  1  0  0  0
 41117  1  0  0  0
 41 48  1  0  0  0
 42 43  1  0  0  0
 42 66  1  0  0  0
 42118  1  0  0  0
 42119  1  0  0  0
 43 44  1  0  0  0
 44120  1  0  0  0
 45 46  2  0  0  0
 45121  1  0  0  0
 46122  1  0  0  0
 47123  1  0  0  0
 47124  1  0  0  0
 48 56  1  0  0  0
 48 65  1  0  0  0
 48125  1  0  0  0
 49 50  1  0  0  0
 49 53  1  0  0  0
 49 64  1  0  0  0
 49126  1  0  0  0
 50 51  1  0  0  0
 50127  1  0  0  0
 50128  1  0  0  0
 51 52  1  0  0  0
 51129  1  0  0  0
 51130  1  0  0  0
 52131  1  0  0  0
 52132  1  0  0  0
 53 54  1  0  0  0
 54 55  2  0  0  0
 54133  1  0  0  0
 55 57  1  0  0  0
 55134  1  0  0  0
 56 69  2  0  0  0
 57 58  2  0  0  0
 57135  1  0  0  0
 58136  1  0  0  0
 59 60  1  0  0  0
 59 61  1  0  0  0
 59 62  1  0  0  0
 60137  1  0  0  0
 60138  1  0  0  0
 60139  1  0  0  0
 61140  1  0  0  0
 61141  1  0  0  0
 61142  1  0  0  0
 62143  1  0  0  0
 62144  1  0  0  0
 62145  1  0  0  0
 63 65  1  0  0  0
 63146  1  0  0  0
 63147  1  0  0  0
 63148  1  0  0  0
 64149  1  0  0  0
 65150  1  0  0  0
 68 87  1  0  0  0
 71 73  2  0  0  0
 71 74  1  0  0  0
 71151  1  0  0  0
 72 73  1  0  0  0
 72 76  2  0  0  0
 72152  1  0  0  0
 73 81  1  0  0  0
 74 75  2  0  0  0
 74 88  1  0  0  0
 75 76  1  0  0  0
 75 82  1  0  0  0
 76 91  1  0  0  0
 77 82  1  0  0  0
 77153  1  0  0  0
 77154  1  0  0  0
 77155  1  0  0  0
 78 83  1  0  0  0
 78156  1  0  0  0
 78157  1  0  0  0
 78158  1  0  0  0
 79159  1  0  0  0
 79160  1  0  0  0
 79161  1  0  0  0
 79 88  1  0  0  0
 80162  1  0  0  0
 80163  1  0  0  0
 80164  1  0  0  0
 80 89  1  0  0  0
 81 89  1  0  0  0
 81165  1  0  0  0
 81166  1  0  0  0
 82167  1  0  0  0
 82168  1  0  0  0
 83 84  1  0  0  0
 83169  1  0  0  0
 83170  1  0  0  0
 84 86  1  0  0  0
 84171  1  0  0  0
 84172  1  0  0  0
 85 88  1  0  0  0
 85 90  1  0  0  0
 85173  1  0  0  0
 85174  1  0  0  0
 86 91  1  0  0  0
 86175  1  0  0  0
 86176  1  0  0  0
 87 89  1  0  0  0
 87177  1  0  0  0
 87178  1  0  0  0
 88179  1  0  0  0
 89180  1  0  0  0
 90181  1  0  0  0
M  ISO  4   1 100  68 101  87 101  90 100
M  END
> <chiral flag>
0

> <version>
0

> <s_m_source_file>
/data/baiqing/PycharmProjects/Reinvent-master-3.2/result/LINK_invent/BTK/process_docking_weight1_custom_sum_contain_oxygen_bond_distance_aromatic_linkinvent_7_9_3/rearranged_h_0094.sdf

> <i_m_source_file_index>
8

> <r_mmod_Potential_Energy-OPLS-2005>
9.93429946899414

> <r_mmod_Stretch_Energy-OPLS-2005>
59.5818862915039

> <r_mmod_Bend_Energy-OPLS-2005>
126.267875671387

> <r_mmod_Torsional_Energy-OPLS-2005>
261.470336914062

> <r_mmod_Improper_Torsional_Energy-OPLS-2005>
4.25872421264648

> <r_mmod_Van_der_Waal_Energy-OPLS-2005>
139.814071655273

> <r_mmod_Electrostatic_Energy-OPLS-2005>
-409.396331787109

> <r_mmod_Solvation_Energy-OPLS-2005>
-197.807159423828

> <b_mmod_Minimization_Converged-OPLS-2005>
0

> <r_mmod_RMS_Derivative-OPLS-2005>
2.97346949577332

$$$$
8
                    3D
 Structure written by MMmdl.
169177  0  0  1  0            999 V2000
  -30.7003  -14.3808   20.6960 C   0  0  0  0  0  0
  -30.4324  -12.2967   19.3889 C   0  0  0  0  0  0
  -29.4937  -12.5587   18.1935 C   0  0  0  0  0  0
  -28.0141  -12.4066   18.6016 C   0  0  0  0  0  0
  -27.6713  -13.1972   19.8921 C   0  0  2  0  0  0
  -28.7047  -12.8795   20.9950 C   0  0  0  0  0  0
  -25.2591  -13.8107   20.5642 C   0  0  0  0  0  0
  -24.1839  -13.0396   20.9140 C   0  0  0  0  0  0
  -24.6379  -11.6874   20.8704 C   0  0  0  0  0  0
  -23.9041  -10.4266   21.0378 C   0  0  0  0  0  0
  -24.3596   -9.4194   21.9165 C   0  0  0  0  0  0
  -23.6274   -8.2225   22.0735 C   0  0  0  0  0  0
  -22.4247   -8.0264   21.3539 C   0  0  0  0  0  0
  -21.9886   -9.0236   20.4637 C   0  0  0  0  0  0
  -22.7210  -10.2118   20.3032 C   0  0  0  0  0  0
  -21.6872   -6.0720   22.5270 C   0  0  0  0  0  0
  -21.4036   -6.5632   23.8204 C   0  0  0  0  0  0
  -21.3648   -5.6783   24.9164 C   0  0  0  0  0  0
  -21.6034   -4.3047   24.7224 C   0  0  0  0  0  0
  -21.8820   -3.8136   23.4354 C   0  0  0  0  0  0
  -21.9193   -4.6944   22.3406 C   0  0  0  0  0  0
  -22.7855  -13.5195   21.1812 C   0  0  0  0  0  0
  -22.1658   -4.2128   21.0983 F   0  0  0  0  0  0
  -21.5616   -3.4531   25.7747 F   0  0  0  0  0  0
  -30.0517  -13.2072   20.4800 N   0  0  0  0  0  0
  -26.3062  -12.9280   20.3410 N   0  0  0  0  0  0
  -25.9315  -11.6447   20.5736 N   0  0  0  0  0  0
  -22.0517  -12.8214   22.0415 N   0  0  0  0  0  0
  -25.4256  -15.1818   20.4013 N   0  0  0  0  0  0
  -31.7025  -14.7401   20.0688 O   0  0  0  0  0  0
  -21.6630   -6.8859   21.4233 O   0  0  0  0  0  0
  -22.3532  -14.5497   20.6652 O   0  0  0  0  0  0
  -24.6100  -31.8705   23.2110 C   0  0  0  0  0  0
  -25.9015  -32.4824   23.8389 C   0  0  1  0  0  0
  -27.2323  -27.4521   20.1069 C   0  0  0  0  0  0
  -25.5877  -33.8622   24.2342 N   0  0  0  0  0  0
  -23.3972  -30.4933   21.5510 C   0  0  2  0  0  0
  -24.8449  -28.9574   20.1178 C   0  0  0  0  0  0
  -22.7383  -29.4683   22.4997 C   0  0  0  0  0  0
  -18.0294  -28.1370   22.8506 C   0  0  0  0  0  0
  -24.1485  -36.7331   23.2636 C   0  0  0  0  0  0
  -25.9221  -30.8376   21.3652 C   0  0  0  0  0  0
  -26.0010  -29.4716   20.7201 C   0  0  0  0  0  0
  -27.1979  -28.7236   20.7173 C   0  0  0  0  0  0
  -26.0695  -26.9556   19.4819 C   0  0  0  0  0  0
  -24.8710  -27.6941   19.4988 C   0  0  0  0  0  0
  -23.6056  -29.8230   20.1652 C   0  0  0  0  0  0
  -25.4101  -36.3121   24.0340 C   0  0  1  0  0  0
  -20.5879  -28.3658   23.1326 C   0  0  2  0  0  0
  -20.6781  -26.9401   22.5415 C   0  0  0  0  0  0
  -19.5762  -26.6393   21.5208 C   0  0  0  0  0  0
  -18.1945  -26.7925   22.1628 C   0  0  0  0  0  0
  -19.1534  -28.8826   23.2926 C   0  0  0  0  0  0
  -18.9468  -30.1435   23.8925 C   0  0  0  0  0  0
  -17.6469  -30.6572   24.0586 C   0  0  0  0  0  0
  -25.9014  -34.9479   23.5144 C   0  0  0  0  0  0
  -16.5363  -29.9076   23.6329 C   0  0  0  0  0  0
  -16.7284  -28.6499   23.0340 C   0  0  0  0  0  0
  -26.4458  -31.6587   25.0708 C   0  0  0  0  0  0
  -25.3744  -31.3677   26.1464 C   0  0  0  0  0  0
  -27.0272  -30.3020   24.6067 C   0  0  0  0  0  0
  -27.6046  -32.4286   25.7474 C   0  0  0  0  0  0
  -27.5585  -37.1815   24.8463 C   0  0  0  0  0  0
  -21.4117  -29.3031   22.3720 N   0  0  0  0  0  0
  -26.4300  -37.3801   23.9401 N   0  0  0  0  0  0
  -24.6612  -31.0816   22.1011 N   0  0  0  0  0  0
  -23.4164  -28.8226   23.3036 O   0  0  0  0  0  0
  -28.3979  -26.7256   20.0870 O   0  0  0  0  0  0
  -26.5585  -34.8934   22.4710 O   0  0  0  0  0  0
  -23.5306  -32.1456   23.7535 O   0  0  0  0  0  0
  -27.4244  -18.9586   22.7423 C   0  0  0  0  0  0
  -28.3338  -19.4656   20.7718 C   0  0  0  0  0  0
  -28.1660  -18.4288   21.6464 C   0  0  0  0  0  0
  -27.0613  -20.2501   22.4612 C   0  0  0  0  0  0
  -26.0421  -22.8111   25.2296 C   0  0  0  0  0  0
  -24.7968  -20.5078   23.5095 C   0  0  0  0  0  0
  -28.5598  -16.9802   21.4450 C   0  0  0  0  0  0
  -26.8099  -21.6761   24.5316 C   0  0  0  0  0  0
  -28.1895  -23.0398   21.1382 C   0  0  0  0  0  0
  -27.8608  -24.3345   20.3723 C   0  0  0  0  0  0
  -27.4987  -21.8208   20.4922 C   0  0  0  0  0  0
  -30.0319  -16.5972   21.7030 C   0  0  0  0  0  0
  -28.4491  -25.6165   20.9915 C   0  0  0  0  0  0
  -26.1520  -21.1786   23.2289 C   0  0  1  0  0  0
  -27.6480  -20.5761   21.2416 N   0  0  0  0  0  0
  -30.1187  -15.1376   21.6376 N   0  0  0  0  0  0
  -31.4743  -12.4206   19.0896 H   0  0  0  0  0  0
  -30.3434  -11.2615   19.7218 H   0  0  0  0  0  0
  -29.7274  -11.8833   17.3705 H   0  0  0  0  0  0
  -29.6669  -13.5684   17.8139 H   0  0  0  0  0  0
  -27.8079  -11.3470   18.7577 H   0  0  0  0  0  0
  -27.3675  -12.7250   17.7835 H   0  0  0  0  0  0
  -27.7399  -14.2591   19.6576 H   0  0  0  0  0  0
  -28.6692  -11.8148   21.2319 H   0  0  0  0  0  0
  -28.4374  -13.3740   21.9290 H   0  0  0  0  0  0
  -25.2739   -9.5678   22.4738 H   0  0  0  0  0  0
  -23.9979   -7.4627   22.7467 H   0  0  0  0  0  0
  -21.0808   -8.8755   19.8964 H   0  0  0  0  0  0
  -22.3650  -10.9650   19.6142 H   0  0  0  0  0  0
  -21.2050   -7.6145   23.9711 H   0  0  0  0  0  0
  -21.1466   -6.0513   25.9070 H   0  0  0  0  0  0
  -22.0614   -2.7596   23.2861 H   0  0  0  0  0  0
  -22.4137  -11.9875   22.4809 H   0  0  0  0  0  0
  -21.1140  -13.1242   22.2614 H   0  0  0  0  0  0
  -24.6523  -15.8303   20.4978 H   0  0  0  0  0  0
  -26.2732  -15.6242   20.0734 H   0  0  0  0  0  0
  -26.7085  -32.5533   23.1156 H   0  0  0  0  0  0
  -25.0040  -33.9789   25.0488 H   0  0  0  0  0  0
  -22.6861  -31.3099   21.4126 H   0  0  0  0  0  0
  -23.3741  -35.9670   23.3309 H   0  0  0  0  0  0
  -24.3587  -36.8927   22.2049 H   0  0  0  0  0  0
  -23.7241  -37.6545   23.6632 H   0  0  0  0  0  0
  -26.0293  -31.5986   20.5914 H   0  0  0  0  0  0
  -26.8120  -30.8950   21.9787 H   0  0  0  0  0  0
  -28.0902  -29.1155   21.1855 H   0  0  0  0  0  0
  -26.0870  -26.0064   18.9672 H   0  0  0  0  0  0
  -23.9863  -27.2941   19.0227 H   0  0  0  0  0  0
  -23.7131  -30.5985   19.4052 H   0  0  0  0  0  0
  -22.7276  -29.2442   19.8702 H   0  0  0  0  0  0
  -25.1279  -36.2014   25.0835 H   0  0  0  0  0  0
  -21.0004  -28.3214   24.1433 H   0  0  0  0  0  0
  -20.5686  -26.2269   23.3600 H   0  0  0  0  0  0
  -21.6651  -26.7447   22.1201 H   0  0  0  0  0  0
  -19.6914  -25.6311   21.1212 H   0  0  0  0  0  0
  -19.6680  -27.3219   20.6751 H   0  0  0  0  0  0
  -17.4211  -26.6696   21.4035 H   0  0  0  0  0  0
  -18.0348  -26.0050   22.9010 H   0  0  0  0  0  0
  -19.7939  -30.7261   24.2283 H   0  0  0  0  0  0
  -17.5018  -31.6248   24.5204 H   0  0  0  0  0  0
  -15.5362  -30.2985   23.7625 H   0  0  0  0  0  0
  -15.8697  -28.0831   22.7010 H   0  0  0  0  0  0
  -24.5929  -30.7008   25.7810 H   0  0  0  0  0  0
  -24.8919  -32.2828   26.4902 H   0  0  0  0  0  0
  -25.8112  -30.8861   27.0221 H   0  0  0  0  0  0
  -26.2803  -29.6796   24.1121 H   0  0  0  0  0  0
  -27.4049  -29.7228   25.4507 H   0  0  0  0  0  0
  -27.8641  -30.4324   23.9198 H   0  0  0  0  0  0
  -27.2673  -33.3574   26.2082 H   0  0  0  0  0  0
  -28.3848  -32.6856   25.0301 H   0  0  0  0  0  0
  -28.0723  -31.8386   26.5365 H   0  0  0  0  0  0
  -28.2615  -38.0107   24.7506 H   0  0  0  0  0  0
  -28.1075  -36.2635   24.6297 H   0  0  0  0  0  0
  -27.2299  -37.1481   25.8868 H   0  0  0  0  0  0
  -20.9256  -29.8766   21.6962 H   0  0  0  0  0  0
  -26.0202  -38.2890   24.1389 H   0  0  0  0  0  0
  -27.1034  -18.4185   23.6236 H   0  0  0  0  0  0
  -28.8249  -19.4914   19.8070 H   0  0  0  0  0  0
  -26.5828  -23.1554   26.1119 H   0  0  0  0  0  0
  -25.0551  -22.4902   25.5649 H   0  0  0  0  0  0
  -25.9108  -23.6680   24.5683 H   0  0  0  0  0  0
  -24.3561  -20.1295   22.5863 H   0  0  0  0  0  0
  -24.0802  -21.2060   23.9420 H   0  0  0  0  0  0
  -24.9006  -19.6684   24.1969 H   0  0  0  0  0  0
  -28.3024  -16.7148   20.4190 H   0  0  0  0  0  0
  -27.9077  -16.3766   22.0782 H   0  0  0  0  0  0
  -26.9456  -20.8417   25.2203 H   0  0  0  0  0  0
  -27.8122  -22.0411   24.3046 H   0  0  0  0  0  0
  -27.8826  -23.1503   22.1762 H   0  0  0  0  0  0
  -29.2683  -22.8771   21.1579 H   0  0  0  0  0  0
  -26.7758  -24.4285   20.3290 H   0  0  0  0  0  0
  -28.2130  -24.2373   19.3449 H   0  0  0  0  0  0
  -27.8948  -21.6713   19.4875 H   0  0  0  0  0  0
  -26.4319  -22.0101   20.3620 H   0  0  0  0  0  0
  -30.3527  -16.9238   22.6940 H   0  0  0  0  0  0
  -30.6881  -17.0725   20.9733 H   0  0  0  0  0  0
  -29.4969  -25.4477   21.2431 H   0  0  0  0  0  0
  -27.9455  -25.8532   21.9311 H   0  0  0  0  0  0
  -25.9296  -22.0530   22.6172 H   0  0  0  0  0  0
  -29.4120  -14.6490   22.1660 H   0  0  0  0  0  0
  1 25  1  0  0  0
  1 30  2  0  0  0
  1 86  1  0  0  0
  2  3  1  0  0  0
  2 25  1  0  0  0
  2 87  1  0  0  0
  2 88  1  0  0  0
  3  4  1  0  0  0
  3 89  1  0  0  0
  3 90  1  0  0  0
  4  5  1  0  0  0
  4 91  1  0  0  0
  4 92  1  0  0  0
  5  6  1  0  0  0
  5 26  1  0  0  0
  5 93  1  0  0  0
  6 25  1  0  0  0
  6 94  1  0  0  0
  6 95  1  0  0  0
  7  8  2  0  0  0
  7 26  1  0  0  0
  7 29  1  0  0  0
  8  9  1  0  0  0
  8 22  1  0  0  0
  9 10  1  0  0  0
  9 27  2  0  0  0
 10 11  2  0  0  0
 10 15  1  0  0  0
 11 12  1  0  0  0
 11 96  1  0  0  0
 12 13  2  0  0  0
 12 97  1  0  0  0
 13 14  1  0  0  0
 13 31  1  0  0  0
 14 15  2  0  0  0
 14 98  1  0  0  0
 15 99  1  0  0  0
 16 17  2  0  0  0
 16 21  1  0  0  0
 16 31  1  0  0  0
 17 18  1  0  0  0
 17100  1  0  0  0
 18 19  2  0  0  0
 18101  1  0  0  0
 19 20  1  0  0  0
 19 24  1  0  0  0
 20 21  2  0  0  0
 20102  1  0  0  0
 21 23  1  0  0  0
 22 28  1  0  0  0
 22 32  2  0  0  0
 26 27  1  0  0  0
 28103  1  0  0  0
 28104  1  0  0  0
 29105  1  0  0  0
 29106  1  0  0  0
 33 34  1  0  0  0
 33 66  1  0  0  0
 33 70  2  0  0  0
 34 36  1  0  0  0
 34 59  1  0  0  0
 34107  1  0  0  0
 35 44  2  0  0  0
 35 45  1  0  0  0
 35 68  1  0  0  0
 36 56  1  0  0  0
 36108  1  0  0  0
 37 39  1  0  0  0
 37 47  1  0  0  0
 37 66  1  0  0  0
 37109  1  0  0  0
 38 43  2  0  0  0
 38 46  1  0  0  0
 38 47  1  0  0  0
 39 64  1  0  0  0
 39 67  2  0  0  0
 40 52  1  0  0  0
 40 53  2  0  0  0
 40 58  1  0  0  0
 41110  1  0  0  0
 41111  1  0  0  0
 41112  1  0  0  0
 41 48  1  0  0  0
 42 43  1  0  0  0
 42 66  1  0  0  0
 42113  1  0  0  0
 42114  1  0  0  0
 43 44  1  0  0  0
 44115  1  0  0  0
 45 46  2  0  0  0
 45116  1  0  0  0
 46117  1  0  0  0
 47118  1  0  0  0
 47119  1  0  0  0
 48 56  1  0  0  0
 48 65  1  0  0  0
 48120  1  0  0  0
 49 50  1  0  0  0
 49 53  1  0  0  0
 49 64  1  0  0  0
 49121  1  0  0  0
 50 51  1  0  0  0
 50122  1  0  0  0
 50123  1  0  0  0
 51 52  1  0  0  0
 51124  1  0  0  0
 51125  1  0  0  0
 52126  1  0  0  0
 52127  1  0  0  0
 53 54  1  0  0  0
 54 55  2  0  0  0
 54128  1  0  0  0
 55 57  1  0  0  0
 55129  1  0  0  0
 56 69  2  0  0  0
 57 58  2  0  0  0
 57130  1  0  0  0
 58131  1  0  0  0
 59 60  1  0  0  0
 59 61  1  0  0  0
 59 62  1  0  0  0
 60132  1  0  0  0
 60133  1  0  0  0
 60134  1  0  0  0
 61135  1  0  0  0
 61136  1  0  0  0
 61137  1  0  0  0
 62138  1  0  0  0
 62139  1  0  0  0
 62140  1  0  0  0
 63 65  1  0  0  0
 63141  1  0  0  0
 63142  1  0  0  0
 63143  1  0  0  0
 64144  1  0  0  0
 65145  1  0  0  0
 68 83  1  0  0  0
 71 73  1  0  0  0
 71 74  2  0  0  0
 71146  1  0  0  0
 72 73  2  0  0  0
 72 85  1  0  0  0
 72147  1  0  0  0
 73 77  1  0  0  0
 74 84  1  0  0  0
 74 85  1  0  0  0
 75 78  1  0  0  0
 75148  1  0  0  0
 75149  1  0  0  0
 75150  1  0  0  0
 76151  1  0  0  0
 76152  1  0  0  0
 76153  1  0  0  0
 76 84  1  0  0  0
 77 82  1  0  0  0
 77154  1  0  0  0
 77155  1  0  0  0
 78 84  1  0  0  0
 78156  1  0  0  0
 78157  1  0  0  0
 79 80  1  0  0  0
 79 81  1  0  0  0
 79158  1  0  0  0
 79159  1  0  0  0
 80 83  1  0  0  0
 80160  1  0  0  0
 80161  1  0  0  0
 81 85  1  0  0  0
 81162  1  0  0  0
 81163  1  0  0  0
 82 86  1  0  0  0
 82164  1  0  0  0
 82165  1  0  0  0
 83166  1  0  0  0
 83167  1  0  0  0
 84168  1  0  0  0
 86169  1  0  0  0
M  ISO  4   1 100  68 101  83 101  86 100
M  END
> <chiral flag>
0

> <version>
0

> <s_m_source_file>
/data/baiqing/PycharmProjects/Reinvent-master-3.2/result/LINK_invent/BTK/process_docking_weight1_custom_sum_contain_oxygen_bond_distance_aromatic_linkinvent_7_9_3/rearranged_h_0094.sdf

> <i_m_source_file_index>
9

> <r_mmod_Potential_Energy-OPLS-2005>
-89.5242309570312

> <r_mmod_Stretch_Energy-OPLS-2005>
32.389778137207

> <r_mmod_Bend_Energy-OPLS-2005>
99.0784683227539

> <r_mmod_Torsional_Energy-OPLS-2005>
252.871490478516

> <r_mmod_Improper_Torsional_Energy-OPLS-2005>
4.55933713912964

> <r_mmod_Van_der_Waal_Energy-OPLS-2005>
118.616050720215

> <r_mmod_Electrostatic_Energy-OPLS-2005>
-404.744293212891

> <r_mmod_Solvation_Energy-OPLS-2005>
-201.839904785156

> <b_mmod_Minimization_Converged-OPLS-2005>
0

> <r_mmod_RMS_Derivative-OPLS-2005>
2.99291086196899

$$$$
9
                    3D
 Structure written by MMmdl.
190198  0  0  1  0            999 V2000
  -30.6997  -14.3814   20.6808 C   0  0  0  0  0  0
  -30.4260  -12.2879   19.3922 C   0  0  0  0  0  0
  -29.5012  -12.5419   18.1880 C   0  0  0  0  0  0
  -28.0133  -12.4109   18.5823 C   0  0  0  0  0  0
  -27.6645  -13.1980   19.8749 C   0  0  2  0  0  0
  -28.6958  -12.8843   20.9774 C   0  0  0  0  0  0
  -25.2559  -13.8115   20.5588 C   0  0  0  0  0  0
  -24.1834  -13.0429   20.9138 C   0  0  0  0  0  0
  -24.6387  -11.6882   20.8708 C   0  0  0  0  0  0
  -23.9063  -10.4279   21.0367 C   0  0  0  0  0  0
  -24.3606   -9.4195   21.9136 C   0  0  0  0  0  0
  -23.6270   -8.2248   22.0769 C   0  0  0  0  0  0
  -22.4251   -8.0271   21.3561 C   0  0  0  0  0  0
  -21.9877   -9.0257   20.4679 C   0  0  0  0  0  0
  -22.7227  -10.2109   20.3041 C   0  0  0  0  0  0
  -21.6855   -6.0703   22.5278 C   0  0  0  0  0  0
  -21.4025   -6.5621   23.8211 C   0  0  0  0  0  0
  -21.3670   -5.6768   24.9169 C   0  0  0  0  0  0
  -21.6051   -4.3037   24.7227 C   0  0  0  0  0  0
  -21.8809   -3.8125   23.4347 C   0  0  0  0  0  0
  -21.9197   -4.6937   22.3404 C   0  0  0  0  0  0
  -22.7834  -13.5230   21.1787 C   0  0  0  0  0  0
  -22.1643   -4.2119   21.0971 F   0  0  0  0  0  0
  -21.5645   -3.4528   25.7740 F   0  0  0  0  0  0
  -30.0351  -13.2197   20.4540 N   0  0  0  0  0  0
  -26.3003  -12.9298   20.3268 N   0  0  0  0  0  0
  -25.9280  -11.6467   20.5623 N   0  0  0  0  0  0
  -22.0496  -12.8304   22.0404 N   0  0  0  0  0  0
  -25.4248  -15.1852   20.3980 N   0  0  0  0  0  0
  -31.7635  -14.6909   20.1318 O   0  0  0  0  0  0
  -21.6664   -6.8837   21.4229 O   0  0  0  0  0  0
  -22.3504  -14.5535   20.6599 O   0  0  0  0  0  0
  -24.6185  -31.8677   23.2187 C   0  0  0  0  0  0
  -25.9091  -32.4827   23.8404 C   0  0  1  0  0  0
  -27.2194  -27.4584   20.0903 C   0  0  0  0  0  0
  -25.5960  -33.8603   24.2347 N   0  0  0  0  0  0
  -23.4001  -30.5034   21.5532 C   0  0  2  0  0  0
  -24.8438  -28.9823   20.1063 C   0  0  0  0  0  0
  -22.7378  -29.4721   22.4964 C   0  0  0  0  0  0
  -18.0240  -28.1284   22.8622 C   0  0  0  0  0  0
  -24.1489  -36.7310   23.2636 C   0  0  0  0  0  0
  -25.9254  -30.8410   21.3675 C   0  0  0  0  0  0
  -26.0017  -29.4774   20.7208 C   0  0  0  0  0  0
  -27.1915  -28.7167   20.7298 C   0  0  0  0  0  0
  -26.0681  -27.0095   19.4074 C   0  0  0  0  0  0
  -24.8710  -27.7418   19.4520 C   0  0  0  0  0  0
  -23.6068  -29.8499   20.1617 C   0  0  0  0  0  0
  -25.4120  -36.3109   24.0337 C   0  0  1  0  0  0
  -20.5874  -28.3681   23.1231 C   0  0  2  0  0  0
  -20.6872  -26.9446   22.5251 C   0  0  0  0  0  0
  -19.5598  -26.6225   21.5356 C   0  0  0  0  0  0
  -18.1916  -26.7697   22.2027 C   0  0  0  0  0  0
  -19.1515  -28.8823   23.2879 C   0  0  0  0  0  0
  -18.9464  -30.1477   23.8774 C   0  0  0  0  0  0
  -17.6474  -30.6639   24.0382 C   0  0  0  0  0  0
  -25.9041  -34.9475   23.5122 C   0  0  0  0  0  0
  -16.5341  -29.9104   23.6267 C   0  0  0  0  0  0
  -16.7235  -28.6438   23.0433 C   0  0  0  0  0  0
  -26.4519  -31.6578   25.0694 C   0  0  0  0  0  0
  -25.3799  -31.3657   26.1448 C   0  0  0  0  0  0
  -27.0352  -30.3041   24.6027 C   0  0  0  0  0  0
  -27.6108  -32.4266   25.7452 C   0  0  0  0  0  0
  -27.5582  -37.1821   24.8464 C   0  0  0  0  0  0
  -21.4129  -29.3070   22.3656 N   0  0  0  0  0  0
  -26.4293  -37.3803   23.9409 N   0  0  0  0  0  0
  -24.6653  -31.0832   22.1066 N   0  0  0  0  0  0
  -23.4127  -28.8292   23.3039 O   0  0  0  0  0  0
  -28.3367  -26.6572   20.1341 O   0  0  0  0  0  0
  -26.5553  -34.8921   22.4655 O   0  0  0  0  0  0
  -23.5395  -32.1391   23.7623 O   0  0  0  0  0  0
  -28.3667  -20.5683   24.2815 C   0  0  0  0  0  0
  -28.6065  -19.2357   24.0683 C   0  0  0  0  0  0
  -26.6098  -19.4493   25.0576 C   0  0  0  0  0  0
  -22.9657  -21.6574   29.4326 C   0  0  0  0  0  0
  -24.8258  -17.6585   25.3280 C   0  0  0  0  0  0
  -23.8278  -21.2601   22.5124 C   0  0  0  0  0  0
  -29.7614  -18.5429   23.4093 C   0  0  0  0  0  0
  -24.0728  -20.6533   29.0774 C   0  0  0  0  0  0
  -29.3453  -17.2533   22.6721 C   0  0  0  0  0  0
  -24.0018  -20.1924   27.6132 C   0  0  0  0  0  0
  -26.9850  -23.5947   22.1261 C   0  0  0  0  0  0
  -27.2281  -24.5971   20.9863 C   0  0  0  0  0  0
  -25.2371  -19.3816   27.1811 C   0  0  0  0  0  0
  -25.5994  -22.9404   21.9187 C   0  0  0  0  0  0
  -25.2163  -22.2901   24.3756 C   0  0  0  0  0  0
  -26.4673  -21.9444   25.2203 C   0  0  0  0  0  0
  -30.5227  -16.4931   22.0332 C   0  0  0  0  0  0
  -28.3112  -25.6846   21.1968 C   0  0  0  0  0  0
  -25.2730  -19.0944   25.6622 C   0  0  1  0  0  0
  -25.2128  -21.8153   22.8944 C   0  0  1  0  0  0
  -27.1329  -20.6762   24.8696 N   0  0  0  0  0  0
  -27.5208  -18.5837   24.5973 N   0  3  0  0  0  0
  -30.0795  -15.1941   21.5447 N   0  0  0  0  0  0
  -31.4711  -12.4012   19.0977 H   0  0  0  0  0  0
  -30.3173  -11.2573   19.7360 H   0  0  0  0  0  0
  -29.7490  -11.8524   17.3802 H   0  0  0  0  0  0
  -29.6834  -13.5428   17.7939 H   0  0  0  0  0  0
  -27.7991  -11.3505   18.7223 H   0  0  0  0  0  0
  -27.3774  -12.7444   17.7602 H   0  0  0  0  0  0
  -27.7306  -14.2618   19.6443 H   0  0  0  0  0  0
  -28.6587  -11.8213   21.2253 H   0  0  0  0  0  0
  -28.4373  -13.3952   21.9056 H   0  0  0  0  0  0
  -25.2753   -9.5678   22.4690 H   0  0  0  0  0  0
  -24.0011   -7.4646   22.7489 H   0  0  0  0  0  0
  -21.0800   -8.8756   19.8984 H   0  0  0  0  0  0
  -22.3676  -10.9633   19.6143 H   0  0  0  0  0  0
  -21.2018   -7.6122   23.9694 H   0  0  0  0  0  0
  -21.1510   -6.0511   25.9073 H   0  0  0  0  0  0
  -22.0594   -2.7591   23.2869 H   0  0  0  0  0  0
  -22.4129  -12.0002   22.4832 H   0  0  0  0  0  0
  -21.1074  -13.1301   22.2550 H   0  0  0  0  0  0
  -24.6467  -15.8276   20.4909 H   0  0  0  0  0  0
  -26.2684  -15.6345   20.0666 H   0  0  0  0  0  0
  -26.7144  -32.5577   23.1149 H   0  0  0  0  0  0
  -25.0197  -33.9741   25.0554 H   0  0  0  0  0  0
  -22.6935  -31.3266   21.4212 H   0  0  0  0  0  0
  -23.3753  -35.9637   23.3310 H   0  0  0  0  0  0
  -24.3595  -36.8890   22.2044 H   0  0  0  0  0  0
  -23.7238  -37.6532   23.6613 H   0  0  0  0  0  0
  -26.0272  -31.6052   20.5954 H   0  0  0  0  0  0
  -26.8154  -30.8990   21.9821 H   0  0  0  0  0  0
  -28.0734  -29.0881   21.2329 H   0  0  0  0  0  0
  -26.0763  -26.0658   18.8780 H   0  0  0  0  0  0
  -23.9865  -27.3627   18.9601 H   0  0  0  0  0  0
  -23.7276  -30.6263   19.4043 H   0  0  0  0  0  0
  -22.7187  -29.2901   19.8630 H   0  0  0  0  0  0
  -25.1305  -36.1974   25.0827 H   0  0  0  0  0  0
  -20.9932  -28.3282   24.1375 H   0  0  0  0  0  0
  -20.6309  -26.2275   23.3448 H   0  0  0  0  0  0
  -21.6636  -26.7670   22.0690 H   0  0  0  0  0  0
  -19.6664  -25.6068   21.1593 H   0  0  0  0  0  0
  -19.6279  -27.2924   20.6784 H   0  0  0  0  0  0
  -18.0723  -25.9986   22.9663 H   0  0  0  0  0  0
  -17.3996  -26.5969   21.4726 H   0  0  0  0  0  0
  -19.7970  -30.7343   24.1966 H   0  0  0  0  0  0
  -17.5100  -31.6419   24.4753 H   0  0  0  0  0  0
  -15.5365  -30.3075   23.7544 H   0  0  0  0  0  0
  -15.8613  -28.0743   22.7204 H   0  0  0  0  0  0
  -24.6031  -30.6918   25.7790 H   0  0  0  0  0  0
  -24.8930  -32.2801   26.4838 H   0  0  0  0  0  0
  -25.8187  -30.8889   27.0227 H   0  0  0  0  0  0
  -26.2861  -29.6771   24.1175 H   0  0  0  0  0  0
  -27.4264  -29.7304   25.4443 H   0  0  0  0  0  0
  -27.8610  -30.4395   23.9045 H   0  0  0  0  0  0
  -27.2756  -33.3578   26.2047 H   0  0  0  0  0  0
  -28.3922  -32.6799   25.0255 H   0  0  0  0  0  0
  -28.0771  -31.8358   26.5360 H   0  0  0  0  0  0
  -28.2636  -38.0089   24.7526 H   0  0  0  0  0  0
  -28.1053  -36.2637   24.6298 H   0  0  0  0  0  0
  -27.2285  -37.1467   25.8859 H   0  0  0  0  0  0
  -20.9316  -29.8733   21.6809 H   0  0  0  0  0  0
  -26.0188  -38.2868   24.1443 H   0  0  0  0  0  0
  -28.9647  -21.4356   24.0383 H   0  0  0  0  0  0
  -23.0075  -21.9314   30.4872 H   0  0  0  0  0  0
  -21.9763  -21.2446   29.2360 H   0  0  0  0  0  0
  -23.0657  -22.5767   28.8547 H   0  0  0  0  0  0
  -24.8040  -17.4967   24.2465 H   0  0  0  0  0  0
  -23.8191  -17.4687   25.7028 H   0  0  0  0  0  0
  -25.4892  -16.9135   25.7736 H   0  0  0  0  0  0
  -23.7720  -21.0377   21.4460 H   0  0  0  0  0  0
  -23.0352  -21.9715   22.7470 H   0  0  0  0  0  0
  -23.5997  -20.3320   23.0370 H   0  0  0  0  0  0
  -30.5254  -18.3316   24.1575 H   0  0  0  0  0  0
  -30.2056  -19.2471   22.7046 H   0  0  0  0  0  0
  -24.0143  -19.7866   29.7375 H   0  0  0  0  0  0
  -25.0382  -21.1214   29.2770 H   0  0  0  0  0  0
  -28.8391  -16.5917   23.3761 H   0  0  0  0  0  0
  -28.6191  -17.5044   21.8975 H   0  0  0  0  0  0
  -23.9168  -21.0747   26.9789 H   0  0  0  0  0  0
  -23.0965  -19.6044   27.4490 H   0  0  0  0  0  0
  -27.0063  -24.1114   23.0872 H   0  0  0  0  0  0
  -27.7762  -22.8454   22.1520 H   0  0  0  0  0  0
  -26.2682  -25.0861   20.8677 H   0  0  0  0  0  0
  -27.4148  -24.0614   20.0547 H   0  0  0  0  0  0
  -25.2999  -18.4504   27.7462 H   0  0  0  0  0  0
  -26.1271  -19.9446   27.4671 H   0  0  0  0  0  0
  -25.5565  -22.5408   20.9039 H   0  0  0  0  0  0
  -24.8309  -23.7148   21.9689 H   0  0  0  0  0  0
  -25.0381  -23.3662   24.4282 H   0  0  0  0  0  0
  -24.3448  -21.8817   24.8854 H   0  0  0  0  0  0
  -26.2196  -21.9204   26.2815 H   0  0  0  0  0  0
  -27.2115  -22.7327   25.1044 H   0  0  0  0  0  0
  -31.3060  -16.3220   22.7688 H   0  0  0  0  0  0
  -30.9558  -17.0893   21.2306 H   0  0  0  0  0  0
  -28.1568  -26.2012   22.1461 H   0  0  0  0  0  0
  -29.2928  -25.2124   21.2618 H   0  0  0  0  0  0
  -24.5630  -19.7427   25.1531 H   0  0  0  0  0  0
  -25.9112  -20.9959   22.7202 H   0  0  0  0  0  0
  -27.4008  -17.5792   24.6055 H   0  0  0  0  0  0
  -29.2061  -14.8458   21.9110 H   0  0  0  0  0  0
  1 25  1  0  0  0
  1 30  2  0  0  0
  1 93  1  0  0  0
  2  3  1  0  0  0
  2 25  1  0  0  0
  2 94  1  0  0  0
  2 95  1  0  0  0
  3  4  1  0  0  0
  3 96  1  0  0  0
  3 97  1  0  0  0
  4  5  1  0  0  0
  4 98  1  0  0  0
  4 99  1  0  0  0
  5  6  1  0  0  0
  5 26  1  0  0  0
  5100  1  0  0  0
  6 25  1  0  0  0
  6101  1  0  0  0
  6102  1  0  0  0
  7  8  2  0  0  0
  7 26  1  0  0  0
  7 29  1  0  0  0
  8  9  1  0  0  0
  8 22  1  0  0  0
  9 10  1  0  0  0
  9 27  2  0  0  0
 10 11  2  0  0  0
 10 15  1  0  0  0
 11 12  1  0  0  0
 11103  1  0  0  0
 12 13  2  0  0  0
 12104  1  0  0  0
 13 14  1  0  0  0
 13 31  1  0  0  0
 14 15  2  0  0  0
 14105  1  0  0  0
 15106  1  0  0  0
 16 17  2  0  0  0
 16 21  1  0  0  0
 16 31  1  0  0  0
 17 18  1  0  0  0
 17107  1  0  0  0
 18 19  2  0  0  0
 18108  1  0  0  0
 19 20  1  0  0  0
 19 24  1  0  0  0
 20 21  2  0  0  0
 20109  1  0  0  0
 21 23  1  0  0  0
 22 28  1  0  0  0
 22 32  2  0  0  0
 26 27  1  0  0  0
 28110  1  0  0  0
 28111  1  0  0  0
 29112  1  0  0  0
 29113  1  0  0  0
 33 34  1  0  0  0
 33 66  1  0  0  0
 33 70  2  0  0  0
 34 36  1  0  0  0
 34 59  1  0  0  0
 34114  1  0  0  0
 35 44  2  0  0  0
 35 45  1  0  0  0
 35 68  1  0  0  0
 36 56  1  0  0  0
 36115  1  0  0  0
 37 39  1  0  0  0
 37 47  1  0  0  0
 37 66  1  0  0  0
 37116  1  0  0  0
 38 43  2  0  0  0
 38 46  1  0  0  0
 38 47  1  0  0  0
 39 64  1  0  0  0
 39 67  2  0  0  0
 40 52  1  0  0  0
 40 53  2  0  0  0
 40 58  1  0  0  0
 41117  1  0  0  0
 41118  1  0  0  0
 41119  1  0  0  0
 41 48  1  0  0  0
 42 43  1  0  0  0
 42 66  1  0  0  0
 42120  1  0  0  0
 42121  1  0  0  0
 43 44  1  0  0  0
 44122  1  0  0  0
 45 46  2  0  0  0
 45123  1  0  0  0
 46124  1  0  0  0
 47125  1  0  0  0
 47126  1  0  0  0
 48 56  1  0  0  0
 48 65  1  0  0  0
 48127  1  0  0  0
 49 50  1  0  0  0
 49 53  1  0  0  0
 49 64  1  0  0  0
 49128  1  0  0  0
 50 51  1  0  0  0
 50129  1  0  0  0
 50130  1  0  0  0
 51 52  1  0  0  0
 51131  1  0  0  0
 51132  1  0  0  0
 52133  1  0  0  0
 52134  1  0  0  0
 53 54  1  0  0  0
 54 55  2  0  0  0
 54135  1  0  0  0
 55 57  1  0  0  0
 55136  1  0  0  0
 56 69  2  0  0  0
 57 58  2  0  0  0
 57137  1  0  0  0
 58138  1  0  0  0
 59 60  1  0  0  0
 59 61  1  0  0  0
 59 62  1  0  0  0
 60139  1  0  0  0
 60140  1  0  0  0
 60141  1  0  0  0
 61142  1  0  0  0
 61143  1  0  0  0
 61144  1  0  0  0
 62145  1  0  0  0
 62146  1  0  0  0
 62147  1  0  0  0
 63 65  1  0  0  0
 63148  1  0  0  0
 63149  1  0  0  0
 63150  1  0  0  0
 64151  1  0  0  0
 65152  1  0  0  0
 68 88  1  0  0  0
 71 72  2  0  0  0
 71 91  1  0  0  0
 71153  1  0  0  0
 72 77  1  0  0  0
 72 92  1  0  0  0
 73 89  1  0  0  0
 73 91  1  0  0  0
 73 92  2  0  0  0
 74 78  1  0  0  0
 74154  1  0  0  0
 74155  1  0  0  0
 74156  1  0  0  0
 75157  1  0  0  0
 75158  1  0  0  0
 75159  1  0  0  0
 75 89  1  0  0  0
 76160  1  0  0  0
 76161  1  0  0  0
 76162  1  0  0  0
 76 90  1  0  0  0
 77 79  1  0  0  0
 77163  1  0  0  0
 77164  1  0  0  0
 78 80  1  0  0  0
 78165  1  0  0  0
 78166  1  0  0  0
 79 87  1  0  0  0
 79167  1  0  0  0
 79168  1  0  0  0
 80 83  1  0  0  0
 80169  1  0  0  0
 80170  1  0  0  0
 81 82  1  0  0  0
 81 84  1  0  0  0
 81171  1  0  0  0
 81172  1  0  0  0
 82 88  1  0  0  0
 82173  1  0  0  0
 82174  1  0  0  0
 83 89  1  0  0  0
 83175  1  0  0  0
 83176  1  0  0  0
 84 90  1  0  0  0
 84177  1  0  0  0
 84178  1  0  0  0
 85 86  1  0  0  0
 85 90  1  0  0  0
 85179  1  0  0  0
 85180  1  0  0  0
 86 91  1  0  0  0
 86181  1  0  0  0
 86182  1  0  0  0
 87 93  1  0  0  0
 87183  1  0  0  0
 87184  1  0  0  0
 88185  1  0  0  0
 88186  1  0  0  0
 89187  1  0  0  0
 90188  1  0  0  0
 92189  1  0  0  0
 93190  1  0  0  0
M  CHG  1  92   1
M  ISO  4   1 100  68 101  88 101  93 100
M  END
> <chiral flag>
0

> <version>
0

> <s_m_source_file>
/data/baiqing/PycharmProjects/Reinvent-master-3.2/result/LINK_invent/BTK/process_docking_weight1_custom_sum_contain_oxygen_bond_distance_aromatic_linkinvent_7_9_3/rearranged_h_0094.sdf

> <i_m_source_file_index>
10

> <r_mmod_Potential_Energy-OPLS-2005>
-26.685998916626

> <r_mmod_Stretch_Energy-OPLS-2005>
34.0931129455566

> <r_mmod_Bend_Energy-OPLS-2005>
106.425872802734

> <r_mmod_Torsional_Energy-OPLS-2005>
273.048461914062

> <r_mmod_Improper_Torsional_Energy-OPLS-2005>
2.10858678817749

> <r_mmod_Van_der_Waal_Energy-OPLS-2005>
131.648010253906

> <r_mmod_Electrostatic_Energy-OPLS-2005>
-182.365051269531

> <r_mmod_Solvation_Energy-OPLS-2005>
-404.868225097656

> <b_mmod_Minimization_Converged-OPLS-2005>
0

> <r_mmod_RMS_Derivative-OPLS-2005>
5.82142686843872

$$$$
10
                    3D
 Structure written by MMmdl.
164172  0  0  1  0            999 V2000
  -30.6736  -14.8124   20.3872 C   0  0  0  0  0  0
  -30.4251  -12.5202   19.4304 C   0  0  0  0  0  0
  -29.4933  -12.4689   18.2083 C   0  0  0  0  0  0
  -28.0297  -12.2862   18.6557 C   0  0  0  0  0  0
  -27.6284  -13.2215   19.8294 C   0  0  2  0  0  0
  -28.6963  -13.2780   20.9367 C   0  0  0  0  0  0
  -25.2518  -13.8162   20.5817 C   0  0  0  0  0  0
  -24.1794  -13.0411   20.9254 C   0  0  0  0  0  0
  -24.6371  -11.6890   20.8775 C   0  0  0  0  0  0
  -23.9057  -10.4273   21.0411 C   0  0  0  0  0  0
  -24.3621   -9.4191   21.9184 C   0  0  0  0  0  0
  -23.6291   -8.2233   22.0742 C   0  0  0  0  0  0
  -22.4274   -8.0264   21.3538 C   0  0  0  0  0  0
  -21.9907   -9.0233   20.4642 C   0  0  0  0  0  0
  -22.7234  -10.2113   20.3049 C   0  0  0  0  0  0
  -21.6849   -6.0714   22.5268 C   0  0  0  0  0  0
  -21.4004   -6.5621   23.8199 C   0  0  0  0  0  0
  -21.3667   -5.6784   24.9168 C   0  0  0  0  0  0
  -21.6051   -4.3046   24.7224 C   0  0  0  0  0  0
  -21.8830   -3.8125   23.4347 C   0  0  0  0  0  0
  -21.9200   -4.6941   22.3397 C   0  0  0  0  0  0
  -22.7820  -13.5203   21.1873 C   0  0  0  0  0  0
  -22.1670   -4.2123   21.0980 F   0  0  0  0  0  0
  -21.5642   -3.4535   25.7739 F   0  0  0  0  0  0
  -29.9478  -13.6454   20.2662 N   0  0  0  0  0  0
  -26.2910  -12.9351   20.3330 N   0  0  0  0  0  0
  -25.9298  -11.6507   20.5788 N   0  0  0  0  0  0
  -22.0451  -12.8214   22.0434 N   0  0  0  0  0  0
  -25.4218  -15.1897   20.4394 N   0  0  0  0  0  0
  -31.8984  -14.6700   20.4413 O   0  0  0  0  0  0
  -21.6645   -6.8852   21.4226 O   0  0  0  0  0  0
  -22.3518  -14.5488   20.6666 O   0  0  0  0  0  0
  -24.6326  -31.8544   23.1940 C   0  0  0  0  0  0
  -25.9146  -32.4753   23.8300 C   0  0  1  0  0  0
  -27.2186  -27.2492   20.1515 C   0  0  0  0  0  0
  -25.5940  -33.8551   24.2230 N   0  0  0  0  0  0
  -23.4302  -30.4738   21.5389 C   0  0  2  0  0  0
  -24.8751  -28.9063   20.1189 C   0  0  0  0  0  0
  -22.7503  -29.4615   22.4918 C   0  0  0  0  0  0
  -18.0289  -28.1407   22.8489 C   0  0  0  0  0  0
  -24.1494  -36.7290   23.2644 C   0  0  0  0  0  0
  -25.9740  -30.7650   21.3721 C   0  0  0  0  0  0
  -26.0457  -29.3805   20.7249 C   0  0  0  0  0  0
  -27.2244  -28.5676   20.7205 C   0  0  0  0  0  0
  -26.0250  -26.8290   19.5329 C   0  0  0  0  0  0
  -24.8700  -27.6382   19.5099 C   0  0  0  0  0  0
  -23.6481  -29.7984   20.1577 C   0  0  0  0  0  0
  -25.4130  -36.3077   24.0320 C   0  0  1  0  0  0
  -20.5895  -28.3722   23.1272 C   0  0  2  0  0  0
  -20.6781  -26.9443   22.5411 C   0  0  0  0  0  0
  -19.5753  -26.6396   21.5222 C   0  0  0  0  0  0
  -18.1932  -26.7951   22.1627 C   0  0  0  0  0  0
  -19.1548  -28.8880   23.2877 C   0  0  0  0  0  0
  -18.9472  -30.1478   23.8906 C   0  0  0  0  0  0
  -17.6469  -30.6606   24.0571 C   0  0  0  0  0  0
  -25.9074  -34.9447   23.5084 C   0  0  0  0  0  0
  -16.5354  -29.9113   23.6322 C   0  0  0  0  0  0
  -16.7280  -28.6525   23.0353 C   0  0  0  0  0  0
  -26.4501  -31.6582   25.0702 C   0  0  0  0  0  0
  -25.3713  -31.3744   26.1415 C   0  0  0  0  0  0
  -27.0345  -30.2997   24.6192 C   0  0  0  0  0  0
  -27.6047  -32.4325   25.7485 C   0  0  0  0  0  0
  -27.5586  -37.1805   24.8461 C   0  0  0  0  0  0
  -21.4208  -29.3062   22.3659 N   0  0  0  0  0  0
  -26.4296  -37.3773   23.9407 N   0  0  0  0  0  0
  -24.6985  -31.0502   22.0914 N   0  0  0  0  0  0
  -23.4191  -28.8169   23.3046 O   0  0  0  0  0  0
  -28.3345  -26.3891   20.1049 O   0  0  0  0  0  0
  -26.5649  -34.8926   22.4658 O   0  0  0  0  0  0
  -23.5468  -32.1372   23.7229 O   0  0  0  0  0  0
  -28.4681  -20.5685   18.2527 C   0  0  0  0  0  0
  -28.0945  -19.9507   17.0641 C   0  0  0  0  0  0
  -28.7848  -19.8184   19.4039 C   0  0  0  0  0  0
  -28.8126  -18.3365   19.2620 C   0  0  0  0  0  0
  -28.2503  -17.8631   18.0316 C   0  0  0  0  0  0
  -27.8508  -16.4184   17.8043 C   0  0  0  0  0  0
  -32.2231  -17.5025   19.2611 C   0  0  0  0  0  0
  -28.9282  -20.7450   20.6717 C   0  0  0  0  0  0
  -29.3350  -17.1876   20.2833 C   0  0  0  0  0  0
  -29.2222  -22.3668   20.5984 C   0  0  0  0  0  0
  -28.2542  -23.5829   20.0885 C   0  0  0  0  0  0
  -31.1458  -16.5319   18.7265 C   0  0  0  0  0  0
  -28.3394  -25.0527   20.7941 C   0  0  0  0  0  0
  -27.9374  -18.6289   16.9719 N   0  0  0  0  0  0
  -30.2200  -16.0122   19.7760 N   0  0  0  0  0  0
  -31.4549  -12.6583   19.0939 H   0  0  0  0  0  0
  -30.4103  -11.5801   19.9841 H   0  0  0  0  0  0
  -29.7870  -11.6502   17.5507 H   0  0  0  0  0  0
  -29.5967  -13.3823   17.6210 H   0  0  0  0  0  0
  -27.9161  -11.2467   18.9634 H   0  0  0  0  0  0
  -27.3564  -12.4249   17.8090 H   0  0  0  0  0  0
  -27.5877  -14.2109   19.3962 H   0  0  0  0  0  0
  -28.7919  -12.3214   21.4542 H   0  0  0  0  0  0
  -28.4306  -14.0263   21.6855 H   0  0  0  0  0  0
  -25.2772   -9.5671   22.4757 H   0  0  0  0  0  0
  -24.0006   -7.4635   22.7469 H   0  0  0  0  0  0
  -21.0826   -8.8733   19.8969 H   0  0  0  0  0  0
  -22.3677  -10.9637   19.6153 H   0  0  0  0  0  0
  -21.1970   -7.6132   23.9685 H   0  0  0  0  0  0
  -21.1490   -6.0521   25.9073 H   0  0  0  0  0  0
  -22.0601   -2.7580   23.2859 H   0  0  0  0  0  0
  -22.4045  -11.9917   22.4918 H   0  0  0  0  0  0
  -21.1032  -13.1204   22.2500 H   0  0  0  0  0  0
  -24.6630  -15.8453   20.5912 H   0  0  0  0  0  0
  -26.2981  -15.6418   20.2189 H   0  0  0  0  0  0
  -26.7224  -32.5396   23.1054 H   0  0  0  0  0  0
  -25.0057  -33.9680   25.0353 H   0  0  0  0  0  0
  -22.7285  -31.2969   21.3881 H   0  0  0  0  0  0
  -23.3754  -35.9623   23.3295 H   0  0  0  0  0  0
  -24.3586  -36.8926   22.2059 H   0  0  0  0  0  0
  -23.7238  -37.6489   23.6673 H   0  0  0  0  0  0
  -26.1096  -31.5193   20.5960 H   0  0  0  0  0  0
  -26.8530  -30.8207   22.0023 H   0  0  0  0  0  0
  -28.1307  -28.9359   21.1802 H   0  0  0  0  0  0
  -25.9873  -25.8554   19.0642 H   0  0  0  0  0  0
  -23.9735  -27.2707   19.0295 H   0  0  0  0  0  0
  -23.7769  -30.5698   19.3977 H   0  0  0  0  0  0
  -22.7644  -29.2343   19.8547 H   0  0  0  0  0  0
  -25.1311  -36.1926   25.0808 H   0  0  0  0  0  0
  -20.9986  -28.3314   24.1399 H   0  0  0  0  0  0
  -20.5689  -26.2352   23.3632 H   0  0  0  0  0  0
  -21.6652  -26.7476   22.1211 H   0  0  0  0  0  0
  -19.6917  -25.6305   21.1274 H   0  0  0  0  0  0
  -19.6691  -27.3190   20.6743 H   0  0  0  0  0  0
  -17.4209  -26.6712   21.4022 H   0  0  0  0  0  0
  -18.0318  -26.0093   22.9023 H   0  0  0  0  0  0
  -19.7952  -30.7287   24.2288 H   0  0  0  0  0  0
  -17.5030  -31.6288   24.5180 H   0  0  0  0  0  0
  -15.5363  -30.3023   23.7648 H   0  0  0  0  0  0
  -15.8676  -28.0847   22.7072 H   0  0  0  0  0  0
  -24.5864  -30.7131   25.7727 H   0  0  0  0  0  0
  -24.8940  -32.2925   26.4848 H   0  0  0  0  0  0
  -25.8016  -30.8892   27.0186 H   0  0  0  0  0  0
  -26.2927  -29.6743   24.1213 H   0  0  0  0  0  0
  -27.4018  -29.7266   25.4716 H   0  0  0  0  0  0
  -27.8806  -30.4267   23.9436 H   0  0  0  0  0  0
  -27.2641  -33.3605   26.2087 H   0  0  0  0  0  0
  -28.3853  -32.6921   25.0322 H   0  0  0  0  0  0
  -28.0727  -31.8439   26.5388 H   0  0  0  0  0  0
  -28.2599  -38.0104   24.7520 H   0  0  0  0  0  0
  -28.1087  -36.2642   24.6274 H   0  0  0  0  0  0
  -27.2311  -37.1435   25.8862 H   0  0  0  0  0  0
  -20.9406  -29.8800   21.6863 H   0  0  0  0  0  0
  -26.0177  -38.2851   24.1398 H   0  0  0  0  0  0
  -28.4639  -21.6462   18.2579 H   0  0  0  0  0  0
  -27.8397  -20.5353   16.1923 H   0  0  0  0  0  0
  -27.2279  -16.1161   18.6378 H   0  0  0  0  0  0
  -28.6997  -15.7461   17.6980 H   0  0  0  0  0  0
  -27.2411  -16.3018   16.9070 H   0  0  0  0  0  0
  -32.9069  -17.7876   18.4605 H   0  0  0  0  0  0
  -32.8233  -17.0615   20.0575 H   0  0  0  0  0  0
  -31.7825  -18.4221   19.6469 H   0  0  0  0  0  0
  -29.7323  -20.3017   21.2603 H   0  0  0  0  0  0
  -28.0298  -20.5908   21.2707 H   0  0  0  0  0  0
  -28.4581  -16.7526   20.7618 H   0  0  0  0  0  0
  -29.8796  -17.6848   21.0871 H   0  0  0  0  0  0
  -30.1831  -22.4963   20.0993 H   0  0  0  0  0  0
  -29.4336  -22.6252   21.6371 H   0  0  0  0  0  0
  -27.2201  -23.2455   20.1617 H   0  0  0  0  0  0
  -28.4254  -23.7228   19.0213 H   0  0  0  0  0  0
  -31.6439  -15.7038   18.2159 H   0  0  0  0  0  0
  -30.6224  -17.0163   17.9105 H   0  0  0  0  0  0
  -27.6037  -25.0863   21.6005 H   0  0  0  0  0  0
  -29.2949  -25.0591   21.3177 H   0  0  0  0  0  0
  1 25  1  0  0  0
  1 30  2  0  0  0
  1 85  1  0  0  0
  2  3  1  0  0  0
  2 25  1  0  0  0
  2 86  1  0  0  0
  2 87  1  0  0  0
  3  4  1  0  0  0
  3 88  1  0  0  0
  3 89  1  0  0  0
  4  5  1  0  0  0
  4 90  1  0  0  0
  4 91  1  0  0  0
  5  6  1  0  0  0
  5 26  1  0  0  0
  5 92  1  0  0  0
  6 25  1  0  0  0
  6 93  1  0  0  0
  6 94  1  0  0  0
  7  8  2  0  0  0
  7 26  1  0  0  0
  7 29  1  0  0  0
  8  9  1  0  0  0
  8 22  1  0  0  0
  9 10  1  0  0  0
  9 27  2  0  0  0
 10 11  2  0  0  0
 10 15  1  0  0  0
 11 12  1  0  0  0
 11 95  1  0  0  0
 12 13  2  0  0  0
 12 96  1  0  0  0
 13 14  1  0  0  0
 13 31  1  0  0  0
 14 15  2  0  0  0
 14 97  1  0  0  0
 15 98  1  0  0  0
 16 17  2  0  0  0
 16 21  1  0  0  0
 16 31  1  0  0  0
 17 18  1  0  0  0
 17 99  1  0  0  0
 18 19  2  0  0  0
 18100  1  0  0  0
 19 20  1  0  0  0
 19 24  1  0  0  0
 20 21  2  0  0  0
 20101  1  0  0  0
 21 23  1  0  0  0
 22 28  1  0  0  0
 22 32  2  0  0  0
 26 27  1  0  0  0
 28102  1  0  0  0
 28103  1  0  0  0
 29104  1  0  0  0
 29105  1  0  0  0
 33 34  1  0  0  0
 33 66  1  0  0  0
 33 70  2  0  0  0
 34 36  1  0  0  0
 34 59  1  0  0  0
 34106  1  0  0  0
 35 44  2  0  0  0
 35 45  1  0  0  0
 35 68  1  0  0  0
 36 56  1  0  0  0
 36107  1  0  0  0
 37 39  1  0  0  0
 37 47  1  0  0  0
 37 66  1  0  0  0
 37108  1  0  0  0
 38 43  2  0  0  0
 38 46  1  0  0  0
 38 47  1  0  0  0
 39 64  1  0  0  0
 39 67  2  0  0  0
 40 52  1  0  0  0
 40 53  2  0  0  0
 40 58  1  0  0  0
 41109  1  0  0  0
 41110  1  0  0  0
 41111  1  0  0  0
 41 48  1  0  0  0
 42 43  1  0  0  0
 42 66  1  0  0  0
 42112  1  0  0  0
 42113  1  0  0  0
 43 44  1  0  0  0
 44114  1  0  0  0
 45 46  2  0  0  0
 45115  1  0  0  0
 46116  1  0  0  0
 47117  1  0  0  0
 47118  1  0  0  0
 48 56  1  0  0  0
 48 65  1  0  0  0
 48119  1  0  0  0
 49 50  1  0  0  0
 49 53  1  0  0  0
 49 64  1  0  0  0
 49120  1  0  0  0
 50 51  1  0  0  0
 50121  1  0  0  0
 50122  1  0  0  0
 51 52  1  0  0  0
 51123  1  0  0  0
 51124  1  0  0  0
 52125  1  0  0  0
 52126  1  0  0  0
 53 54  1  0  0  0
 54 55  2  0  0  0
 54127  1  0  0  0
 55 57  1  0  0  0
 55128  1  0  0  0
 56 69  2  0  0  0
 57 58  2  0  0  0
 57129  1  0  0  0
 58130  1  0  0  0
 59 60  1  0  0  0
 59 61  1  0  0  0
 59 62  1  0  0  0
 60131  1  0  0  0
 60132  1  0  0  0
 60133  1  0  0  0
 61134  1  0  0  0
 61135  1  0  0  0
 61136  1  0  0  0
 62137  1  0  0  0
 62138  1  0  0  0
 62139  1  0  0  0
 63 65  1  0  0  0
 63140  1  0  0  0
 63141  1  0  0  0
 63142  1  0  0  0
 64143  1  0  0  0
 65144  1  0  0  0
 68 83  1  0  0  0
 71 72  2  0  0  0
 71 73  1  0  0  0
 71145  1  0  0  0
 72 84  1  0  0  0
 72146  1  0  0  0
 73 74  2  0  0  0
 73 78  1  0  0  0
 74 75  1  0  0  0
 74 79  1  0  0  0
 75 76  1  0  0  0
 75 84  2  0  0  0
 76147  1  0  0  0
 76148  1  0  0  0
 76149  1  0  0  0
 77 82  1  0  0  0
 77150  1  0  0  0
 77151  1  0  0  0
 77152  1  0  0  0
 78 80  1  0  0  0
 78153  1  0  0  0
 78154  1  0  0  0
 79 85  1  0  0  0
 79155  1  0  0  0
 79156  1  0  0  0
 80 81  1  0  0  0
 80157  1  0  0  0
 80158  1  0  0  0
 81 83  1  0  0  0
 81159  1  0  0  0
 81160  1  0  0  0
 82 85  1  0  0  0
 82161  1  0  0  0
 82162  1  0  0  0
 83163  1  0  0  0
 83164  1  0  0  0
M  ISO  4   1 100  68 101  83 101  85 100
M  END
> <chiral flag>
0

> <version>
0

> <s_m_source_file>
/data/baiqing/PycharmProjects/Reinvent-master-3.2/result/LINK_invent/BTK/process_docking_weight1_custom_sum_contain_oxygen_bond_distance_aromatic_linkinvent_7_9_3/rearranged_h_0094.sdf

> <i_m_source_file_index>
11

> <r_mmod_Potential_Energy-OPLS-2005>
472.055419921875

> <r_mmod_Stretch_Energy-OPLS-2005>
170.435592651367

> <r_mmod_Bend_Energy-OPLS-2005>
260.568023681641

> <r_mmod_Torsional_Energy-OPLS-2005>
340.865234375

> <r_mmod_Improper_Torsional_Energy-OPLS-2005>
30.3321762084961

> <r_mmod_Van_der_Waal_Energy-OPLS-2005>
147.857315063477

> <r_mmod_Electrostatic_Energy-OPLS-2005>
-400.312591552734

> <r_mmod_Solvation_Energy-OPLS-2005>
-205.674758911133

> <b_mmod_Minimization_Converged-OPLS-2005>
0

> <r_mmod_RMS_Derivative-OPLS-2005>
2.35215997695923

$$$$
11
                    3D
 Structure written by MMmdl.
182190  0  0  1  0            999 V2000
  -30.6562  -14.5469   20.4750 C   0  0  0  0  0  0
  -30.4265  -12.3452   19.4143 C   0  0  0  0  0  0
  -29.4901  -12.4874   18.1976 C   0  0  0  0  0  0
  -28.0126  -12.3530   18.6137 C   0  0  0  0  0  0
  -27.6503  -13.2097   19.8550 C   0  0  2  0  0  0
  -28.6959  -13.0489   20.9782 C   0  0  0  0  0  0
  -25.2566  -13.8153   20.5640 C   0  0  0  0  0  0
  -24.1862  -13.0444   20.9183 C   0  0  0  0  0  0
  -24.6419  -11.6893   20.8741 C   0  0  0  0  0  0
  -23.9099  -10.4283   21.0408 C   0  0  0  0  0  0
  -24.3635   -9.4207   21.9183 C   0  0  0  0  0  0
  -23.6306   -8.2255   22.0760 C   0  0  0  0  0  0
  -22.4278   -8.0307   21.3570 C   0  0  0  0  0  0
  -21.9927   -9.0268   20.4656 C   0  0  0  0  0  0
  -22.7270  -10.2139   20.3069 C   0  0  0  0  0  0
  -21.6878   -6.0759   22.5272 C   0  0  0  0  0  0
  -21.4014   -6.5651   23.8202 C   0  0  0  0  0  0
  -21.3654   -5.6804   24.9145 C   0  0  0  0  0  0
  -21.6040   -4.3069   24.7217 C   0  0  0  0  0  0
  -21.8838   -3.8179   23.4337 C   0  0  0  0  0  0
  -21.9204   -4.6985   22.3393 C   0  0  0  0  0  0
  -22.7881  -13.5248   21.1829 C   0  0  0  0  0  0
  -22.1684   -4.2179   21.0971 F   0  0  0  0  0  0
  -21.5600   -3.4547   25.7726 F   0  0  0  0  0  0
  -30.0144  -13.3510   20.4059 N   0  0  0  0  0  0
  -26.2984  -12.9328   20.3281 N   0  0  0  0  0  0
  -25.9342  -11.6493   20.5737 N   0  0  0  0  0  0
  -22.0526  -12.8241   22.0360 N   0  0  0  0  0  0
  -25.4322  -15.1870   20.3984 N   0  0  0  0  0  0
  -31.8395  -14.6775   20.1546 O   0  0  0  0  0  0
  -21.6668   -6.8892   21.4243 O   0  0  0  0  0  0
  -22.3597  -14.5568   20.6654 O   0  0  0  0  0  0
  -24.6148  -31.8628   23.2055 C   0  0  0  0  0  0
  -25.9031  -32.4803   23.8349 C   0  0  1  0  0  0
  -27.2440  -27.4189   20.0972 C   0  0  0  0  0  0
  -25.5892  -33.8613   24.2306 N   0  0  0  0  0  0
  -23.4059  -30.4803   21.5461 C   0  0  2  0  0  0
  -24.8582  -28.9419   20.1102 C   0  0  0  0  0  0
  -22.7398  -29.4634   22.5001 C   0  0  0  0  0  0
  -18.0249  -28.1364   22.8509 C   0  0  0  0  0  0
  -24.1489  -36.7319   23.2644 C   0  0  0  0  0  0
  -25.9325  -30.8200   21.3630 C   0  0  0  0  0  0
  -26.0115  -29.4500   20.7207 C   0  0  0  0  0  0
  -27.2087  -28.6950   20.7095 C   0  0  0  0  0  0
  -26.0816  -26.9347   19.4664 C   0  0  0  0  0  0
  -24.8914  -27.6898   19.4695 C   0  0  0  0  0  0
  -23.6150  -29.8010   20.1640 C   0  0  0  0  0  0
  -25.4115  -36.3127   24.0327 C   0  0  1  0  0  0
  -20.5839  -28.3662   23.1329 C   0  0  2  0  0  0
  -20.6749  -26.9400   22.5425 C   0  0  0  0  0  0
  -19.5741  -26.6392   21.5213 C   0  0  0  0  0  0
  -18.1912  -26.7934   22.1614 C   0  0  0  0  0  0
  -19.1498  -28.8835   23.2916 C   0  0  0  0  0  0
  -18.9434  -30.1445   23.8918 C   0  0  0  0  0  0
  -17.6435  -30.6583   24.0564 C   0  0  0  0  0  0
  -25.9031  -34.9484   23.5124 C   0  0  0  0  0  0
  -16.5323  -29.9066   23.6331 C   0  0  0  0  0  0
  -16.7241  -28.6470   23.0382 C   0  0  0  0  0  0
  -26.4477  -31.6585   25.0670 C   0  0  0  0  0  0
  -25.3713  -31.3617   26.1379 C   0  0  0  0  0  0
  -27.0314  -30.3043   24.6011 C   0  0  0  0  0  0
  -27.6072  -32.4292   25.7396 C   0  0  0  0  0  0
  -27.5589  -37.1797   24.8465 C   0  0  0  0  0  0
  -21.4117  -29.3027   22.3730 N   0  0  0  0  0  0
  -26.4314  -37.3800   23.9399 N   0  0  0  0  0  0
  -24.6691  -31.0692   22.0984 N   0  0  0  0  0  0
  -23.4147  -28.8204   23.3070 O   0  0  0  0  0  0
  -28.4125  -26.6826   20.0685 O   0  0  0  0  0  0
  -26.5595  -34.8956   22.4678 O   0  0  0  0  0  0
  -23.5338  -32.1406   23.7430 O   0  0  0  0  0  0
  -30.7928  -22.1646   19.8334 C   0  0  0  0  0  0
  -31.5909  -21.2001   19.1923 C   0  0  0  0  0  0
  -31.1091  -19.8579   19.0461 C   0  0  0  0  0  0
  -29.5374  -21.8155   20.3267 C   0  0  0  0  0  0
  -29.8664  -19.5402   19.7083 C   0  0  0  0  0  0
  -32.9713  -21.6758   18.7637 C   0  0  0  0  0  0
  -27.8107  -21.5003   23.0831 C   0  0  0  0  0  0
  -33.2174  -18.3611   18.9154 C   0  0  0  0  0  0
  -32.0553  -19.0451   16.7246 C   0  0  0  0  0  0
  -27.7938  -25.6633   22.2593 C   0  0  0  0  0  0
  -28.6454  -17.5951   18.5458 C   0  0  0  0  0  0
  -28.0648  -18.0962   20.8714 C   0  0  0  0  0  0
  -27.4689  -22.3181   21.8256 C   0  0  0  0  0  0
  -28.3242  -24.1438   20.2037 C   0  0  0  0  0  0
  -30.2918  -17.0477   20.5200 C   0  0  0  0  0  0
  -31.9014  -18.7905   18.2380 C   0  0  0  0  0  0
  -28.7017  -22.8876   21.0709 C   0  0  2  0  0  0
  -28.5404  -25.5170   20.9189 C   0  0  1  0  0  0
  -29.2647  -18.0813   19.8813 C   0  0  0  0  0  0
  -29.0990  -20.5346   20.2448 N   0  0  0  0  0  0
  -29.8643  -15.6300   20.6744 N   0  0  0  0  0  0
  -31.4600  -12.4791   19.0892 H   0  0  0  0  0  0
  -30.3678  -11.3423   19.8387 H   0  0  0  0  0  0
  -29.7307  -11.7243   17.4553 H   0  0  0  0  0  0
  -29.6571  -13.4522   17.7137 H   0  0  0  0  0  0
  -27.8208  -11.2985   18.8173 H   0  0  0  0  0  0
  -27.3675  -12.6208   17.7748 H   0  0  0  0  0  0
  -27.6713  -14.2474   19.5278 H   0  0  0  0  0  0
  -28.6762  -12.0358   21.3781 H   0  0  0  0  0  0
  -28.4599  -13.7069   21.8151 H   0  0  0  0  0  0
  -25.2764   -9.5692   22.4771 H   0  0  0  0  0  0
  -24.0022   -7.4654   22.7479 H   0  0  0  0  0  0
  -21.0871   -8.8809   19.8941 H   0  0  0  0  0  0
  -22.3744  -10.9692   19.6203 H   0  0  0  0  0  0
  -21.2009   -7.6158   23.9705 H   0  0  0  0  0  0
  -21.1441   -6.0525   25.9044 H   0  0  0  0  0  0
  -22.0620   -2.7649   23.2830 H   0  0  0  0  0  0
  -22.4175  -11.9912   22.4750 H   0  0  0  0  0  0
  -21.1141  -13.1284   22.2524 H   0  0  0  0  0  0
  -24.6620  -15.8400   20.4840 H   0  0  0  0  0  0
  -26.2655  -15.6096   20.0144 H   0  0  0  0  0  0
  -26.7090  -32.5540   23.1096 H   0  0  0  0  0  0
  -25.0051  -33.9807   25.0452 H   0  0  0  0  0  0
  -22.6955  -31.2966   21.3977 H   0  0  0  0  0  0
  -23.3772  -35.9633   23.3288 H   0  0  0  0  0  0
  -24.3571  -36.8948   22.2065 H   0  0  0  0  0  0
  -23.7233  -37.6502   23.6679 H   0  0  0  0  0  0
  -26.0357  -31.5765   20.5828 H   0  0  0  0  0  0
  -26.8258  -30.8881   21.9726 H   0  0  0  0  0  0
  -28.1032  -29.0796   21.1824 H   0  0  0  0  0  0
  -26.1071  -25.9851   18.9529 H   0  0  0  0  0  0
  -24.0189  -27.3124   18.9526 H   0  0  0  0  0  0
  -23.7019  -30.5627   19.3888 H   0  0  0  0  0  0
  -22.7481  -29.1987   19.8877 H   0  0  0  0  0  0
  -25.1295  -36.1990   25.0822 H   0  0  0  0  0  0
  -20.9912  -28.3230   24.1465 H   0  0  0  0  0  0
  -20.5660  -26.2261   23.3585 H   0  0  0  0  0  0
  -21.6616  -26.7472   22.1203 H   0  0  0  0  0  0
  -19.6895  -25.6310   21.1221 H   0  0  0  0  0  0
  -19.6688  -27.3203   20.6745 H   0  0  0  0  0  0
  -17.4181  -26.6694   21.4007 H   0  0  0  0  0  0
  -18.0322  -26.0059   22.9001 H   0  0  0  0  0  0
  -19.7905  -30.7252   24.2293 H   0  0  0  0  0  0
  -17.4986  -31.6281   24.5155 H   0  0  0  0  0  0
  -15.5332  -30.2978   23.7639 H   0  0  0  0  0  0
  -15.8645  -28.0775   22.7127 H   0  0  0  0  0  0
  -24.5939  -30.6946   25.7604 H   0  0  0  0  0  0
  -24.8857  -32.2750   26.4848 H   0  0  0  0  0  0
  -25.8065  -30.8713   27.0101 H   0  0  0  0  0  0
  -26.2827  -29.6750   24.1181 H   0  0  0  0  0  0
  -27.4221  -29.7337   25.4448 H   0  0  0  0  0  0
  -27.8604  -30.4353   23.9045 H   0  0  0  0  0  0
  -27.2725  -33.3608   26.1963 H   0  0  0  0  0  0
  -28.3860  -32.6796   25.0175 H   0  0  0  0  0  0
  -28.0754  -31.8390   26.5284 H   0  0  0  0  0  0
  -28.2590  -38.0113   24.7548 H   0  0  0  0  0  0
  -28.1111  -36.2641   24.6264 H   0  0  0  0  0  0
  -27.2296  -37.1397   25.8867 H   0  0  0  0  0  0
  -20.9286  -29.8723   21.6915 H   0  0  0  0  0  0
  -26.0208  -38.2876   24.1403 H   0  0  0  0  0  0
  -31.1419  -23.1811   19.9673 H   0  0  0  0  0  0
  -33.1087  -22.7418   18.9596 H   0  0  0  0  0  0
  -33.1518  -21.5442   17.7030 H   0  0  0  0  0  0
  -33.7411  -21.1673   19.3381 H   0  0  0  0  0  0
  -26.9041  -21.0859   23.5236 H   0  0  0  0  0  0
  -28.2930  -22.1135   23.8454 H   0  0  0  0  0  0
  -28.4758  -20.6684   22.8579 H   0  0  0  0  0  0
  -33.0744  -18.1977   19.9833 H   0  0  0  0  0  0
  -34.0250  -19.0793   18.7942 H   0  0  0  0  0  0
  -33.5797  -17.4190   18.5033 H   0  0  0  0  0  0
  -31.0890  -19.2230   16.2492 H   0  0  0  0  0  0
  -32.4806  -18.1659   16.2307 H   0  0  0  0  0  0
  -32.7070  -19.8775   16.4833 H   0  0  0  0  0  0
  -28.0726  -24.8765   22.9583 H   0  0  0  0  0  0
  -26.7122  -25.6229   22.1243 H   0  0  0  0  0  0
  -28.0404  -26.6074   22.7452 H   0  0  0  0  0  0
  -27.8756  -18.2922   18.2111 H   0  0  0  0  0  0
  -28.1689  -16.6207   18.6536 H   0  0  0  0  0  0
  -29.3482  -17.5104   17.7217 H   0  0  0  0  0  0
  -27.2563  -18.7398   20.5193 H   0  0  0  0  0  0
  -28.3560  -18.4565   21.8566 H   0  0  0  0  0  0
  -27.6345  -17.1059   21.0049 H   0  0  0  0  0  0
  -26.8245  -23.1351   22.1486 H   0  0  0  0  0  0
  -26.8600  -21.7303   21.1364 H   0  0  0  0  0  0
  -27.3067  -24.0442   19.8301 H   0  0  0  0  0  0
  -28.9507  -24.1577   19.3114 H   0  0  0  0  0  0
  -30.6064  -17.4111   21.4966 H   0  0  0  0  0  0
  -31.2111  -17.0189   19.9615 H   0  0  0  0  0  0
  -31.3033  -17.8968   18.1811 H   0  0  0  0  0  0
  -29.3936  -23.2457   21.8354 H   0  0  0  0  0  0
  -29.5983  -25.5335   21.1790 H   0  0  0  0  0  0
  -28.9041  -15.4550   20.9221 H   0  0  0  0  0  0
  1 25  1  0  0  0
  1 30  2  0  0  0
  1 91  1  0  0  0
  2  3  1  0  0  0
  2 25  1  0  0  0
  2 92  1  0  0  0
  2 93  1  0  0  0
  3  4  1  0  0  0
  3 94  1  0  0  0
  3 95  1  0  0  0
  4  5  1  0  0  0
  4 96  1  0  0  0
  4 97  1  0  0  0
  5  6  1  0  0  0
  5 26  1  0  0  0
  5 98  1  0  0  0
  6 25  1  0  0  0
  6 99  1  0  0  0
  6100  1  0  0  0
  7  8  2  0  0  0
  7 26  1  0  0  0
  7 29  1  0  0  0
  8  9  1  0  0  0
  8 22  1  0  0  0
  9 10  1  0  0  0
  9 27  2  0  0  0
 10 11  2  0  0  0
 10 15  1  0  0  0
 11 12  1  0  0  0
 11101  1  0  0  0
 12 13  2  0  0  0
 12102  1  0  0  0
 13 14  1  0  0  0
 13 31  1  0  0  0
 14 15  2  0  0  0
 14103  1  0  0  0
 15104  1  0  0  0
 16 17  2  0  0  0
 16 21  1  0  0  0
 16 31  1  0  0  0
 17 18  1  0  0  0
 17105  1  0  0  0
 18 19  2  0  0  0
 18106  1  0  0  0
 19 20  1  0  0  0
 19 24  1  0  0  0
 20 21  2  0  0  0
 20107  1  0  0  0
 21 23  1  0  0  0
 22 28  1  0  0  0
 22 32  2  0  0  0
 26 27  1  0  0  0
 28108  1  0  0  0
 28109  1  0  0  0
 29110  1  0  0  0
 29111  1  0  0  0
 33 34  1  0  0  0
 33 66  1  0  0  0
 33 70  2  0  0  0
 34 36  1  0  0  0
 34 59  1  0  0  0
 34112  1  0  0  0
 35 44  2  0  0  0
 35 45  1  0  0  0
 35 68  1  0  0  0
 36 56  1  0  0  0
 36113  1  0  0  0
 37 39  1  0  0  0
 37 47  1  0  0  0
 37 66  1  0  0  0
 37114  1  0  0  0
 38 43  2  0  0  0
 38 46  1  0  0  0
 38 47  1  0  0  0
 39 64  1  0  0  0
 39 67  2  0  0  0
 40 52  1  0  0  0
 40 53  2  0  0  0
 40 58  1  0  0  0
 41115  1  0  0  0
 41116  1  0  0  0
 41117  1  0  0  0
 41 48  1  0  0  0
 42 43  1  0  0  0
 42 66  1  0  0  0
 42118  1  0  0  0
 42119  1  0  0  0
 43 44  1  0  0  0
 44120  1  0  0  0
 45 46  2  0  0  0
 45121  1  0  0  0
 46122  1  0  0  0
 47123  1  0  0  0
 47124  1  0  0  0
 48 56  1  0  0  0
 48 65  1  0  0  0
 48125  1  0  0  0
 49 50  1  0  0  0
 49 53  1  0  0  0
 49 64  1  0  0  0
 49126  1  0  0  0
 50 51  1  0  0  0
 50127  1  0  0  0
 50128  1  0  0  0
 51 52  1  0  0  0
 51129  1  0  0  0
 51130  1  0  0  0
 52131  1  0  0  0
 52132  1  0  0  0
 53 54  1  0  0  0
 54 55  2  0  0  0
 54133  1  0  0  0
 55 57  1  0  0  0
 55134  1  0  0  0
 56 69  2  0  0  0
 57 58  2  0  0  0
 57135  1  0  0  0
 58136  1  0  0  0
 59 60  1  0  0  0
 59 61  1  0  0  0
 59 62  1  0  0  0
 60137  1  0  0  0
 60138  1  0  0  0
 60139  1  0  0  0
 61140  1  0  0  0
 61141  1  0  0  0
 61142  1  0  0  0
 62143  1  0  0  0
 62144  1  0  0  0
 62145  1  0  0  0
 63 65  1  0  0  0
 63146  1  0  0  0
 63147  1  0  0  0
 63148  1  0  0  0
 64149  1  0  0  0
 65150  1  0  0  0
 68 88  1  0  0  0
 71 72  2  0  0  0
 71 74  1  0  0  0
 71151  1  0  0  0
 72 73  1  0  0  0
 72 76  1  0  0  0
 73 75  2  0  0  0
 73 86  1  0  0  0
 74 87  1  0  0  0
 74 90  2  0  0  0
 75 89  1  0  0  0
 75 90  1  0  0  0
 76152  1  0  0  0
 76153  1  0  0  0
 76154  1  0  0  0
 77 83  1  0  0  0
 77155  1  0  0  0
 77156  1  0  0  0
 77157  1  0  0  0
 78158  1  0  0  0
 78159  1  0  0  0
 78160  1  0  0  0
 78 86  1  0  0  0
 79 86  1  0  0  0
 79161  1  0  0  0
 79162  1  0  0  0
 79163  1  0  0  0
 80164  1  0  0  0
 80165  1  0  0  0
 80166  1  0  0  0
 80 88  1  0  0  0
 81167  1  0  0  0
 81168  1  0  0  0
 81169  1  0  0  0
 81 89  1  0  0  0
 82 89  1  0  0  0
 82170  1  0  0  0
 82171  1  0  0  0
 82172  1  0  0  0
 83173  1  0  0  0
 83174  1  0  0  0
 83 87  1  0  0  0
 84 87  1  0  0  0
 84 88  1  0  0  0
 84175  1  0  0  0
 84176  1  0  0  0
 85 89  1  0  0  0
 85 91  1  0  0  0
 85177  1  0  0  0
 85178  1  0  0  0
 86179  1  0  0  0
 87180  1  0  0  0
 88181  1  0  0  0
 91182  1  0  0  0
M  ISO  4   1 100  68 101  88 101  91 100
M  END
> <chiral flag>
0

> <version>
0

> <s_m_source_file>
/data/baiqing/PycharmProjects/Reinvent-master-3.2/result/LINK_invent/BTK/process_docking_weight1_custom_sum_contain_oxygen_bond_distance_aromatic_linkinvent_7_9_3/rearranged_h_0094.sdf

> <i_m_source_file_index>
12

> <r_mmod_Potential_Energy-OPLS-2005>
-100.795715332031

> <r_mmod_Stretch_Energy-OPLS-2005>
66.5698394775391

> <r_mmod_Bend_Energy-OPLS-2005>
147.723449707031

> <r_mmod_Torsional_Energy-OPLS-2005>
272.522918701172

> <r_mmod_Improper_Torsional_Energy-OPLS-2005>
6.42775726318359

> <r_mmod_Van_der_Waal_Energy-OPLS-2005>
166.602981567383

> <r_mmod_Electrostatic_Energy-OPLS-2005>
-587.649475097656

> <r_mmod_Solvation_Energy-OPLS-2005>
-195.796691894531

> <b_mmod_Minimization_Converged-OPLS-2005>
0

> <r_mmod_RMS_Derivative-OPLS-2005>
5.37719821929932

$$$$
12
                    3D
 Structure written by MMmdl.
171179  0  0  1  0            999 V2000
  -30.6215  -14.6937   20.4652 C   0  0  0  0  0  0
  -30.4204  -12.4192   19.4647 C   0  0  0  0  0  0
  -29.5083  -12.5218   18.2237 C   0  0  0  0  0  0
  -28.0281  -12.3606   18.6257 C   0  0  0  0  0  0
  -27.6427  -13.2336   19.8523 C   0  0  2  0  0  0
  -28.6862  -13.1358   20.9872 C   0  0  0  0  0  0
  -25.2506  -13.8195   20.5664 C   0  0  0  0  0  0
  -24.1793  -13.0428   20.9197 C   0  0  0  0  0  0
  -24.6386  -11.6909   20.8715 C   0  0  0  0  0  0
  -23.9050  -10.4289   21.0382 C   0  0  0  0  0  0
  -24.3604   -9.4226   21.9172 C   0  0  0  0  0  0
  -23.6297   -8.2251   22.0737 C   0  0  0  0  0  0
  -22.4285   -8.0271   21.3529 C   0  0  0  0  0  0
  -21.9908   -9.0234   20.4631 C   0  0  0  0  0  0
  -22.7217  -10.2128   20.3038 C   0  0  0  0  0  0
  -21.6870   -6.0730   22.5277 C   0  0  0  0  0  0
  -21.4025   -6.5632   23.8206 C   0  0  0  0  0  0
  -21.3667   -5.6796   24.9176 C   0  0  0  0  0  0
  -21.6052   -4.3051   24.7234 C   0  0  0  0  0  0
  -21.8821   -3.8139   23.4356 C   0  0  0  0  0  0
  -21.9198   -4.6954   22.3413 C   0  0  0  0  0  0
  -22.7829  -13.5210   21.1877 C   0  0  0  0  0  0
  -22.1664   -4.2140   21.0991 F   0  0  0  0  0  0
  -21.5632   -3.4532   25.7745 F   0  0  0  0  0  0
  -29.9939  -13.4727   20.4117 N   0  0  0  0  0  0
  -26.2939  -12.9405   20.3263 N   0  0  0  0  0  0
  -25.9325  -11.6544   20.5722 N   0  0  0  0  0  0
  -22.0469  -12.8192   22.0420 N   0  0  0  0  0  0
  -25.4161  -15.1922   20.4062 N   0  0  0  0  0  0
  -31.8101  -14.8001   20.1483 O   0  0  0  0  0  0
  -21.6662   -6.8856   21.4232 O   0  0  0  0  0  0
  -22.3510  -14.5519   20.6734 O   0  0  0  0  0  0
  -24.6315  -31.8565   23.2013 C   0  0  0  0  0  0
  -25.9148  -32.4747   23.8379 C   0  0  1  0  0  0
  -27.2250  -27.2808   20.1188 C   0  0  0  0  0  0
  -25.5959  -33.8556   24.2308 N   0  0  0  0  0  0
  -23.4283  -30.4813   21.5427 C   0  0  2  0  0  0
  -24.8711  -28.9261   20.1127 C   0  0  0  0  0  0
  -22.7533  -29.4612   22.4903 C   0  0  0  0  0  0
  -18.0315  -28.1408   22.8488 C   0  0  0  0  0  0
  -24.1484  -36.7265   23.2636 C   0  0  0  0  0  0
  -25.9726  -30.7753   21.3772 C   0  0  0  0  0  0
  -26.0420  -29.4003   20.7156 C   0  0  0  0  0  0
  -27.2173  -28.5889   20.7046 C   0  0  0  0  0  0
  -26.0222  -26.8543   19.5101 C   0  0  0  0  0  0
  -24.8642  -27.6613   19.5027 C   0  0  0  0  0  0
  -23.6477  -29.8211   20.1567 C   0  0  0  0  0  0
  -25.4104  -36.3056   24.0340 C   0  0  1  0  0  0
  -20.5922  -28.3729   23.1262 C   0  0  2  0  0  0
  -20.6819  -26.9450   22.5408 C   0  0  0  0  0  0
  -19.5777  -26.6402   21.5233 C   0  0  0  0  0  0
  -18.1954  -26.7954   22.1630 C   0  0  0  0  0  0
  -19.1567  -28.8886   23.2871 C   0  0  0  0  0  0
  -18.9468  -30.1484   23.8897 C   0  0  0  0  0  0
  -17.6459  -30.6587   24.0582 C   0  0  0  0  0  0
  -25.9048  -34.9427   23.5118 C   0  0  0  0  0  0
  -16.5360  -29.9087   23.6326 C   0  0  0  0  0  0
  -16.7298  -28.6514   23.0336 C   0  0  0  0  0  0
  -26.4535  -31.6547   25.0746 C   0  0  0  0  0  0
  -25.3752  -31.3680   26.1454 C   0  0  0  0  0  0
  -27.0405  -30.2970   24.6218 C   0  0  0  0  0  0
  -27.6099  -32.4278   25.7522 C   0  0  0  0  0  0
  -27.5584  -37.1780   24.8466 C   0  0  0  0  0  0
  -21.4237  -29.3058   22.3644 N   0  0  0  0  0  0
  -26.4275  -37.3758   23.9431 N   0  0  0  0  0  0
  -24.6968  -31.0562   22.0971 N   0  0  0  0  0  0
  -23.4235  -28.8153   23.3002 O   0  0  0  0  0  0
  -28.3618  -26.4486   20.1951 O   0  0  0  0  0  0
  -26.5608  -34.8897   22.4676 O   0  0  0  0  0  0
  -23.5464  -32.1388   23.7295 O   0  0  0  0  0  0
  -28.9397  -21.0474   20.3234 C   0  0  0  0  0  0
  -29.2158  -22.3481   18.3180 C   0  0  0  0  0  0
  -28.9054  -22.3438   19.6847 C   0  0  0  0  0  0
  -29.1926  -19.7973   19.6252 C   0  0  0  0  0  0
  -29.4622  -21.1692   17.5758 C   0  0  0  0  0  0
  -29.4001  -19.8765   18.2024 C   0  0  0  0  0  0
  -31.0541  -22.1906   15.8695 C   0  0  0  0  0  0
  -28.5559  -22.0632   15.3807 C   0  0  0  0  0  0
  -30.9325  -18.2989   16.8427 C   0  0  0  0  0  0
  -28.4040  -18.3970   16.2879 C   0  0  0  0  0  0
  -28.5423  -23.7194   20.4045 C   0  0  0  0  0  0
  -29.0563  -18.3910   20.3755 C   0  0  0  0  0  0
  -30.2241  -17.2721   20.3921 C   0  0  0  0  0  0
  -28.4857  -25.1008   19.5602 C   0  0  0  0  0  0
  -29.7538  -21.3983   16.0834 C   0  0  0  0  0  0
  -29.5059  -18.5780   17.3595 C   0  0  0  0  0  0
  -29.8449  -15.8187   20.6473 N   0  0  0  0  0  0
  -31.4662  -12.5267   19.1743 H   0  0  0  0  0  0
  -30.3306  -11.4307   19.9199 H   0  0  0  0  0  0
  -29.7813  -11.7659   17.4878 H   0  0  0  0  0  0
  -29.6586  -13.4847   17.7315 H   0  0  0  0  0  0
  -27.8546  -11.3068   18.8437 H   0  0  0  0  0  0
  -27.3821  -12.5981   17.7788 H   0  0  0  0  0  0
  -27.6430  -14.2640   19.4967 H   0  0  0  0  0  0
  -28.7067  -12.1305   21.4113 H   0  0  0  0  0  0
  -28.4310  -13.8108   21.8057 H   0  0  0  0  0  0
  -25.2739   -9.5751   22.4748 H   0  0  0  0  0  0
  -24.0034   -7.4663   22.7454 H   0  0  0  0  0  0
  -21.0840   -8.8733   19.8936 H   0  0  0  0  0  0
  -22.3644  -10.9660   19.6146 H   0  0  0  0  0  0
  -21.2007   -7.6143   23.9704 H   0  0  0  0  0  0
  -21.1495   -6.0526   25.9076 H   0  0  0  0  0  0
  -22.0588   -2.7599   23.2865 H   0  0  0  0  0  0
  -22.4091  -11.9874   22.4868 H   0  0  0  0  0  0
  -21.1066  -13.1191   22.2557 H   0  0  0  0  0  0
  -24.6364  -15.8344   20.4917 H   0  0  0  0  0  0
  -26.2574  -15.6379   20.0644 H   0  0  0  0  0  0
  -26.7225  -32.5397   23.1133 H   0  0  0  0  0  0
  -25.0189  -33.9731   25.0510 H   0  0  0  0  0  0
  -22.7220  -31.3015   21.4008 H   0  0  0  0  0  0
  -23.3761  -35.9576   23.3246 H   0  0  0  0  0  0
  -24.3601  -36.8936   22.2065 H   0  0  0  0  0  0
  -23.7209  -37.6442   23.6682 H   0  0  0  0  0  0
  -26.1152  -31.5388   20.6115 H   0  0  0  0  0  0
  -26.8501  -30.8189   22.0119 H   0  0  0  0  0  0
  -28.1193  -28.9523   21.1770 H   0  0  0  0  0  0
  -25.9338  -25.8766   19.0642 H   0  0  0  0  0  0
  -23.9598  -27.2897   19.0399 H   0  0  0  0  0  0
  -23.7924  -30.6064   19.4132 H   0  0  0  0  0  0
  -22.7620  -29.2715   19.8344 H   0  0  0  0  0  0
  -25.1268  -36.1914   25.0830 H   0  0  0  0  0  0
  -21.0027  -28.3319   24.1375 H   0  0  0  0  0  0
  -20.5785  -26.2344   23.3623 H   0  0  0  0  0  0
  -21.6674  -26.7509   22.1154 H   0  0  0  0  0  0
  -19.6948  -25.6309   21.1273 H   0  0  0  0  0  0
  -19.6699  -27.3212   20.6761 H   0  0  0  0  0  0
  -17.4244  -26.6736   21.4010 H   0  0  0  0  0  0
  -18.0307  -26.0089   22.9011 H   0  0  0  0  0  0
  -19.7931  -30.7325   24.2250 H   0  0  0  0  0  0
  -17.4989  -31.6253   24.5213 H   0  0  0  0  0  0
  -15.5351  -30.2981   23.7619 H   0  0  0  0  0  0
  -15.8714  -28.0833   22.7015 H   0  0  0  0  0  0
  -24.5941  -30.7027   25.7765 H   0  0  0  0  0  0
  -24.8929  -32.2840   26.4870 H   0  0  0  0  0  0
  -25.8051  -30.8859   27.0243 H   0  0  0  0  0  0
  -26.3006  -29.6675   24.1263 H   0  0  0  0  0  0
  -27.4148  -29.7251   25.4724 H   0  0  0  0  0  0
  -27.8847  -30.4264   23.9437 H   0  0  0  0  0  0
  -27.2738  -33.3592   26.2085 H   0  0  0  0  0  0
  -28.3921  -32.6807   25.0352 H   0  0  0  0  0  0
  -28.0756  -31.8409   26.5451 H   0  0  0  0  0  0
  -28.2540  -38.0136   24.7564 H   0  0  0  0  0  0
  -28.1142  -36.2669   24.6199 H   0  0  0  0  0  0
  -27.2329  -37.1313   25.8874 H   0  0  0  0  0  0
  -20.9443  -29.8746   21.6813 H   0  0  0  0  0  0
  -26.0147  -38.2821   24.1460 H   0  0  0  0  0  0
  -28.7257  -21.0109   21.3824 H   0  0  0  0  0  0
  -29.2395  -23.2939   17.7994 H   0  0  0  0  0  0
  -31.9018  -21.6777   16.3259 H   0  0  0  0  0  0
  -31.0065  -23.1950   16.2902 H   0  0  0  0  0  0
  -31.2732  -22.2918   14.8063 H   0  0  0  0  0  0
  -27.6411  -21.4907   15.5391 H   0  0  0  0  0  0
  -28.7118  -22.1407   14.3050 H   0  0  0  0  0  0
  -28.3741  -23.0705   15.7529 H   0  0  0  0  0  0
  -31.6299  -18.2007   17.6726 H   0  0  0  0  0  0
  -31.3391  -19.0734   16.1979 H   0  0  0  0  0  0
  -30.9632  -17.3635   16.2832 H   0  0  0  0  0  0
  -27.4134  -18.4544   16.7382 H   0  0  0  0  0  0
  -28.4872  -17.4154   15.8166 H   0  0  0  0  0  0
  -28.4132  -19.1168   15.4765 H   0  0  0  0  0  0
  -29.2639  -23.8459   21.2118 H   0  0  0  0  0  0
  -27.5774  -23.5777   20.8919 H   0  0  0  0  0  0
  -28.1407  -17.9361   19.9961 H   0  0  0  0  0  0
  -28.8178  -18.6059   21.4177 H   0  0  0  0  0  0
  -30.9678  -17.5704   21.1324 H   0  0  0  0  0  0
  -30.7708  -17.2694   19.4543 H   0  0  0  0  0  0
  -27.7954  -24.9913   18.7263 H   0  0  0  0  0  0
  -29.4610  -25.1760   19.0792 H   0  0  0  0  0  0
  -29.9333  -20.4706   15.5603 H   0  0  0  0  0  0
  -29.2831  -17.7339   18.0005 H   0  0  0  0  0  0
  -28.8802  -15.6481   20.8867 H   0  0  0  0  0  0
  1 25  1  0  0  0
  1 30  2  0  0  0
  1 87  1  0  0  0
  2  3  1  0  0  0
  2 25  1  0  0  0
  2 88  1  0  0  0
  2 89  1  0  0  0
  3  4  1  0  0  0
  3 90  1  0  0  0
  3 91  1  0  0  0
  4  5  1  0  0  0
  4 92  1  0  0  0
  4 93  1  0  0  0
  5  6  1  0  0  0
  5 26  1  0  0  0
  5 94  1  0  0  0
  6 25  1  0  0  0
  6 95  1  0  0  0
  6 96  1  0  0  0
  7  8  2  0  0  0
  7 26  1  0  0  0
  7 29  1  0  0  0
  8  9  1  0  0  0
  8 22  1  0  0  0
  9 10  1  0  0  0
  9 27  2  0  0  0
 10 11  2  0  0  0
 10 15  1  0  0  0
 11 12  1  0  0  0
 11 97  1  0  0  0
 12 13  2  0  0  0
 12 98  1  0  0  0
 13 14  1  0  0  0
 13 31  1  0  0  0
 14 15  2  0  0  0
 14 99  1  0  0  0
 15100  1  0  0  0
 16 17  2  0  0  0
 16 21  1  0  0  0
 16 31  1  0  0  0
 17 18  1  0  0  0
 17101  1  0  0  0
 18 19  2  0  0  0
 18102  1  0  0  0
 19 20  1  0  0  0
 19 24  1  0  0  0
 20 21  2  0  0  0
 20103  1  0  0  0
 21 23  1  0  0  0
 22 28  1  0  0  0
 22 32  2  0  0  0
 26 27  1  0  0  0
 28104  1  0  0  0
 28105  1  0  0  0
 29106  1  0  0  0
 29107  1  0  0  0
 33 34  1  0  0  0
 33 66  1  0  0  0
 33 70  2  0  0  0
 34 36  1  0  0  0
 34 59  1  0  0  0
 34108  1  0  0  0
 35 44  2  0  0  0
 35 45  1  0  0  0
 35 68  1  0  0  0
 36 56  1  0  0  0
 36109  1  0  0  0
 37 39  1  0  0  0
 37 47  1  0  0  0
 37 66  1  0  0  0
 37110  1  0  0  0
 38 43  2  0  0  0
 38 46  1  0  0  0
 38 47  1  0  0  0
 39 64  1  0  0  0
 39 67  2  0  0  0
 40 52  1  0  0  0
 40 53  2  0  0  0
 40 58  1  0  0  0
 41111  1  0  0  0
 41112  1  0  0  0
 41113  1  0  0  0
 41 48  1  0  0  0
 42 43  1  0  0  0
 42 66  1  0  0  0
 42114  1  0  0  0
 42115  1  0  0  0
 43 44  1  0  0  0
 44116  1  0  0  0
 45 46  2  0  0  0
 45117  1  0  0  0
 46118  1  0  0  0
 47119  1  0  0  0
 47120  1  0  0  0
 48 56  1  0  0  0
 48 65  1  0  0  0
 48121  1  0  0  0
 49 50  1  0  0  0
 49 53  1  0  0  0
 49 64  1  0  0  0
 49122  1  0  0  0
 50 51  1  0  0  0
 50123  1  0  0  0
 50124  1  0  0  0
 51 52  1  0  0  0
 51125  1  0  0  0
 51126  1  0  0  0
 52127  1  0  0  0
 52128  1  0  0  0
 53 54  1  0  0  0
 54 55  2  0  0  0
 54129  1  0  0  0
 55 57  1  0  0  0
 55130  1  0  0  0
 56 69  2  0  0  0
 57 58  2  0  0  0
 57131  1  0  0  0
 58132  1  0  0  0
 59 60  1  0  0  0
 59 61  1  0  0  0
 59 62  1  0  0  0
 60133  1  0  0  0
 60134  1  0  0  0
 60135  1  0  0  0
 61136  1  0  0  0
 61137  1  0  0  0
 61138  1  0  0  0
 62139  1  0  0  0
 62140  1  0  0  0
 62141  1  0  0  0
 63 65  1  0  0  0
 63142  1  0  0  0
 63143  1  0  0  0
 63144  1  0  0  0
 64145  1  0  0  0
 65146  1  0  0  0
 68 84  1  0  0  0
 71 73  2  0  0  0
 71 74  1  0  0  0
 71147  1  0  0  0
 72 73  1  0  0  0
 72 75  2  0  0  0
 72148  1  0  0  0
 73 81  1  0  0  0
 74 76  2  0  0  0
 74 82  1  0  0  0
 75 76  1  0  0  0
 75 85  1  0  0  0
 76 86  1  0  0  0
 77149  1  0  0  0
 77150  1  0  0  0
 77151  1  0  0  0
 77 85  1  0  0  0
 78 85  1  0  0  0
 78152  1  0  0  0
 78153  1  0  0  0
 78154  1  0  0  0
 79155  1  0  0  0
 79156  1  0  0  0
 79157  1  0  0  0
 79 86  1  0  0  0
 80 86  1  0  0  0
 80158  1  0  0  0
 80159  1  0  0  0
 80160  1  0  0  0
 81 84  1  0  0  0
 81161  1  0  0  0
 81162  1  0  0  0
 82 83  1  0  0  0
 82163  1  0  0  0
 82164  1  0  0  0
 83 87  1  0  0  0
 83165  1  0  0  0
 83166  1  0  0  0
 84167  1  0  0  0
 84168  1  0  0  0
 85169  1  0  0  0
 86170  1  0  0  0
 87171  1  0  0  0
M  ISO  4   1 100  68 101  84 101  87 100
M  END
> <chiral flag>
0

> <version>
0

> <s_m_source_file>
/data/baiqing/PycharmProjects/Reinvent-master-3.2/result/LINK_invent/BTK/process_docking_weight1_custom_sum_contain_oxygen_bond_distance_aromatic_linkinvent_7_9_3/rearranged_h_0094.sdf

> <i_m_source_file_index>
13

> <r_mmod_Potential_Energy-OPLS-2005>
121.755828857422

> <r_mmod_Stretch_Energy-OPLS-2005>
120.782691955566

> <r_mmod_Bend_Energy-OPLS-2005>
182.436019897461

> <r_mmod_Torsional_Energy-OPLS-2005>
207.361450195312

> <r_mmod_Improper_Torsional_Energy-OPLS-2005>
6.23399496078491

> <r_mmod_Van_der_Waal_Energy-OPLS-2005>
150.517593383789

> <r_mmod_Electrostatic_Energy-OPLS-2005>
-409.602874755859

> <r_mmod_Solvation_Energy-OPLS-2005>
-202.748413085938

> <b_mmod_Minimization_Converged-OPLS-2005>
0

> <r_mmod_RMS_Derivative-OPLS-2005>
2.9363751411438

$$$$
13
                    3D
 Structure written by MMmdl.
173181  0  0  1  0            999 V2000
  -30.7132  -14.4402   20.4987 C   0  0  0  0  0  0
  -30.4114  -12.2628   19.4359 C   0  0  0  0  0  0
  -29.4975  -12.4758   18.2114 C   0  0  0  0  0  0
  -28.0157  -12.3528   18.6183 C   0  0  0  0  0  0
  -27.6583  -13.2059   19.8664 C   0  0  2  0  0  0
  -28.6992  -13.0158   20.9965 C   0  0  0  0  0  0
  -25.2587  -13.8173   20.5685 C   0  0  0  0  0  0
  -24.1845  -13.0445   20.9195 C   0  0  0  0  0  0
  -24.6392  -11.6913   20.8742 C   0  0  0  0  0  0
  -23.9059  -10.4296   21.0405 C   0  0  0  0  0  0
  -24.3614   -9.4212   21.9177 C   0  0  0  0  0  0
  -23.6299   -8.2239   22.0741 C   0  0  0  0  0  0
  -22.4281   -8.0274   21.3532 C   0  0  0  0  0  0
  -21.9907   -9.0253   20.4640 C   0  0  0  0  0  0
  -22.7233  -10.2137   20.3050 C   0  0  0  0  0  0
  -21.6855   -6.0741   22.5287 C   0  0  0  0  0  0
  -21.4013   -6.5644   23.8223 C   0  0  0  0  0  0
  -21.3657   -5.6790   24.9181 C   0  0  0  0  0  0
  -21.6042   -4.3054   24.7226 C   0  0  0  0  0  0
  -21.8819   -3.8149   23.4344 C   0  0  0  0  0  0
  -21.9196   -4.6969   22.3403 C   0  0  0  0  0  0
  -22.7866  -13.5242   21.1860 C   0  0  0  0  0  0
  -22.1663   -4.2156   21.0982 F   0  0  0  0  0  0
  -21.5627   -3.4537   25.7734 F   0  0  0  0  0  0
  -30.0339  -13.2688   20.4372 N   0  0  0  0  0  0
  -26.3011  -12.9335   20.3325 N   0  0  0  0  0  0
  -25.9312  -11.6499   20.5745 N   0  0  0  0  0  0
  -22.0499  -12.8242   22.0415 N   0  0  0  0  0  0
  -25.4288  -15.1896   20.4102 N   0  0  0  0  0  0
  -31.8938  -14.5508   20.1612 O   0  0  0  0  0  0
  -21.6637   -6.8879   21.4244 O   0  0  0  0  0  0
  -22.3550  -14.5550   20.6701 O   0  0  0  0  0  0
  -24.6115  -31.8706   23.2119 C   0  0  0  0  0  0
  -25.9024  -32.4834   23.8400 C   0  0  1  0  0  0
  -27.2328  -27.4605   20.0837 C   0  0  0  0  0  0
  -25.5889  -33.8632   24.2333 N   0  0  0  0  0  0
  -23.3963  -30.4968   21.5521 C   0  0  2  0  0  0
  -24.8388  -28.9628   20.1170 C   0  0  0  0  0  0
  -22.7375  -29.4690   22.4996 C   0  0  0  0  0  0
  -18.0264  -28.1370   22.8490 C   0  0  0  0  0  0
  -24.1487  -36.7326   23.2640 C   0  0  0  0  0  0
  -25.9228  -30.8433   21.3600 C   0  0  0  0  0  0
  -25.9975  -29.4797   20.7070 C   0  0  0  0  0  0
  -27.1956  -28.7361   20.6854 C   0  0  0  0  0  0
  -26.0492  -26.9431   19.5048 C   0  0  0  0  0  0
  -24.8579  -27.6922   19.5159 C   0  0  0  0  0  0
  -23.6008  -29.8286   20.1662 C   0  0  0  0  0  0
  -25.4108  -36.3124   24.0341 C   0  0  1  0  0  0
  -20.5850  -28.3661   23.1316 C   0  0  2  0  0  0
  -20.6750  -26.9399   22.5417 C   0  0  0  0  0  0
  -19.5737  -26.6384   21.5202 C   0  0  0  0  0  0
  -18.1916  -26.7919   22.1615 C   0  0  0  0  0  0
  -19.1513  -28.8828   23.2907 C   0  0  0  0  0  0
  -18.9446  -30.1429   23.8926 C   0  0  0  0  0  0
  -17.6454  -30.6582   24.0567 C   0  0  0  0  0  0
  -25.9030  -34.9487   23.5138 C   0  0  0  0  0  0
  -16.5341  -29.9091   23.6317 C   0  0  0  0  0  0
  -16.7257  -28.6501   23.0348 C   0  0  0  0  0  0
  -26.4460  -31.6605   25.0720 C   0  0  0  0  0  0
  -25.3739  -31.3709   26.1482 C   0  0  0  0  0  0
  -27.0280  -30.3049   24.6076 C   0  0  0  0  0  0
  -27.6044  -32.4322   25.7470 C   0  0  0  0  0  0
  -27.5586  -37.1818   24.8463 C   0  0  0  0  0  0
  -21.4106  -29.3040   22.3730 N   0  0  0  0  0  0
  -26.4297  -37.3805   23.9407 N   0  0  0  0  0  0
  -24.6622  -31.0830   22.1005 N   0  0  0  0  0  0
  -23.4159  -28.8223   23.3023 O   0  0  0  0  0  0
  -28.4354  -26.7918   20.0754 O   0  0  0  0  0  0
  -26.5595  -34.8934   22.4698 O   0  0  0  0  0  0
  -23.5316  -32.1453   23.7529 O   0  0  0  0  0  0
  -31.1467  -21.3418   20.6442 C   0  0  0  0  0  0
  -30.2986  -20.6172   19.7675 C   0  0  0  0  0  0
  -31.0118  -22.7545   20.7058 C   0  0  0  0  0  0
  -29.2918  -21.3250   19.0735 C   0  0  0  0  0  0
  -30.0170  -23.3764   19.9054 C   0  0  0  0  0  0
  -32.2241  -20.6358   21.4625 C   0  0  0  0  0  0
  -28.2832  -20.6402   18.1676 C   0  0  0  0  0  0
  -31.3225  -23.9482   22.9286 C   0  0  0  0  0  0
  -30.9116  -26.8300   18.2809 C   0  0  0  0  0  0
  -31.9553  -23.5885   21.5782 C   0  0  0  0  0  0
  -30.5573  -19.1453   19.4427 C   0  0  0  0  0  0
  -30.6709  -25.3204   18.4440 C   0  0  0  0  0  0
  -29.9202  -18.0852   20.3697 C   0  0  0  0  0  0
  -30.2050  -16.7057   19.7500 C   0  0  0  0  0  0
  -28.4551  -25.4002   19.7639 C   0  0  0  0  0  0
  -29.9150  -24.9001   19.7293 C   0  0  1  0  0  0
  -29.1766  -22.6626   19.1283 N   0  0  0  0  0  0
  -29.9349  -15.5312   20.5915 N   0  0  0  0  0  0
  -31.4614  -12.3311   19.1443 H   0  0  0  0  0  0
  -30.2795  -11.2595   19.8443 H   0  0  0  0  0  0
  -29.7320  -11.7461   17.4349 H   0  0  0  0  0  0
  -29.6831  -13.4589   17.7753 H   0  0  0  0  0  0
  -27.8196  -11.3001   18.8232 H   0  0  0  0  0  0
  -27.3720  -12.6220   17.7799 H   0  0  0  0  0  0
  -27.6915  -14.2465   19.5453 H   0  0  0  0  0  0
  -28.6545  -12.0000   21.3926 H   0  0  0  0  0  0
  -28.4874  -13.6779   21.8379 H   0  0  0  0  0  0
  -25.2758   -9.5708   22.4751 H   0  0  0  0  0  0
  -24.0023   -7.4632   22.7456 H   0  0  0  0  0  0
  -21.0832   -8.8772   19.8951 H   0  0  0  0  0  0
  -22.3681  -10.9674   19.6161 H   0  0  0  0  0  0
  -21.1997   -7.6149   23.9732 H   0  0  0  0  0  0
  -21.1481   -6.0515   25.9089 H   0  0  0  0  0  0
  -22.0600   -2.7610   23.2844 H   0  0  0  0  0  0
  -22.4093  -11.9901   22.4826 H   0  0  0  0  0  0
  -21.1109  -13.1270   22.2589 H   0  0  0  0  0  0
  -24.6586  -15.8417   20.5153 H   0  0  0  0  0  0
  -26.2759  -15.6330   20.0791 H   0  0  0  0  0  0
  -26.7091  -32.5552   23.1162 H   0  0  0  0  0  0
  -25.0028  -33.9792   25.0470 H   0  0  0  0  0  0
  -22.6849  -31.3141   21.4152 H   0  0  0  0  0  0
  -23.3744  -35.9665   23.3319 H   0  0  0  0  0  0
  -24.3580  -36.8922   22.2051 H   0  0  0  0  0  0
  -23.7243  -37.6539   23.6640 H   0  0  0  0  0  0
  -26.0319  -31.6107   20.5924 H   0  0  0  0  0  0
  -26.8126  -30.8950   21.9758 H   0  0  0  0  0  0
  -28.0950  -29.1379   21.1314 H   0  0  0  0  0  0
  -26.0210  -25.9736   19.0316 H   0  0  0  0  0  0
  -23.9651  -27.2870   19.0606 H   0  0  0  0  0  0
  -23.7051  -30.6034   19.4052 H   0  0  0  0  0  0
  -22.7244  -29.2471   19.8750 H   0  0  0  0  0  0
  -25.1284  -36.1996   25.0834 H   0  0  0  0  0  0
  -20.9951  -28.3233   24.1431 H   0  0  0  0  0  0
  -20.5624  -26.2280   23.3608 H   0  0  0  0  0  0
  -21.6628  -26.7437   22.1232 H   0  0  0  0  0  0
  -19.6906  -25.6299   21.1223 H   0  0  0  0  0  0
  -19.6674  -27.3198   20.6734 H   0  0  0  0  0  0
  -17.4185  -26.6667   21.4016 H   0  0  0  0  0  0
  -18.0324  -26.0050   22.9001 H   0  0  0  0  0  0
  -19.7929  -30.7224   24.2318 H   0  0  0  0  0  0
  -17.5020  -31.6263   24.5163 H   0  0  0  0  0  0
  -15.5349  -30.3010   23.7620 H   0  0  0  0  0  0
  -15.8653  -28.0830   22.7057 H   0  0  0  0  0  0
  -24.5899  -30.7067   25.7828 H   0  0  0  0  0  0
  -24.8944  -32.2864   26.4956 H   0  0  0  0  0  0
  -25.8105  -30.8862   27.0222 H   0  0  0  0  0  0
  -26.2811  -29.6820   24.1140 H   0  0  0  0  0  0
  -27.4062  -29.7274   25.4521 H   0  0  0  0  0  0
  -27.8640  -30.4370   23.9206 H   0  0  0  0  0  0
  -27.2667  -33.3601   26.2096 H   0  0  0  0  0  0
  -28.3820  -32.6920   25.0277 H   0  0  0  0  0  0
  -28.0752  -31.8423   26.5342 H   0  0  0  0  0  0
  -28.2616  -38.0103   24.7507 H   0  0  0  0  0  0
  -28.1067  -36.2638   24.6288 H   0  0  0  0  0  0
  -27.2306  -37.1475   25.8866 H   0  0  0  0  0  0
  -20.9251  -29.8777   21.6977 H   0  0  0  0  0  0
  -26.0194  -38.2888   24.1399 H   0  0  0  0  0  0
  -32.0939  -19.5590   21.5233 H   0  0  0  0  0  0
  -32.2260  -20.9929   22.4922 H   0  0  0  0  0  0
  -33.2067  -20.8245   21.0301 H   0  0  0  0  0  0
  -27.9214  -19.7130   18.6123 H   0  0  0  0  0  0
  -28.7286  -20.4110   17.1997 H   0  0  0  0  0  0
  -27.4132  -21.2749   17.9937 H   0  0  0  0  0  0
  -32.0138  -24.5292   23.5394 H   0  0  0  0  0  0
  -31.0590  -23.0533   23.4930 H   0  0  0  0  0  0
  -30.4143  -24.5385   22.8023 H   0  0  0  0  0  0
  -31.5244  -27.0317   17.4017 H   0  0  0  0  0  0
  -31.4285  -27.2474   19.1456 H   0  0  0  0  0  0
  -29.9759  -27.3732   18.1503 H   0  0  0  0  0  0
  -32.2651  -24.4889   21.0489 H   0  0  0  0  0  0
  -32.8981  -23.0723   21.7515 H   0  0  0  0  0  0
  -31.6366  -18.9930   19.4012 H   0  0  0  0  0  0
  -30.2435  -18.9518   18.4169 H   0  0  0  0  0  0
  -31.6441  -24.8278   18.4422 H   0  0  0  0  0  0
  -30.1471  -24.9340   17.5693 H   0  0  0  0  0  0
  -28.8442  -18.2423   20.4525 H   0  0  0  0  0  0
  -30.3297  -18.1482   21.3778 H   0  0  0  0  0  0
  -31.2415  -16.7081   19.4084 H   0  0  0  0  0  0
  -29.6106  -16.5968   18.8414 H   0  0  0  0  0  0
  -27.8985  -24.8700   20.5386 H   0  0  0  0  0  0
  -27.9870  -25.1848   18.8030 H   0  0  0  0  0  0
  -30.3931  -25.3792   20.5794 H   0  0  0  0  0  0
  -28.9806  -15.3741   20.8802 H   0  0  0  0  0  0
  1 25  1  0  0  0
  1 30  2  0  0  0
  1 88  1  0  0  0
  2  3  1  0  0  0
  2 25  1  0  0  0
  2 89  1  0  0  0
  2 90  1  0  0  0
  3  4  1  0  0  0
  3 91  1  0  0  0
  3 92  1  0  0  0
  4  5  1  0  0  0
  4 93  1  0  0  0
  4 94  1  0  0  0
  5  6  1  0  0  0
  5 26  1  0  0  0
  5 95  1  0  0  0
  6 25  1  0  0  0
  6 96  1  0  0  0
  6 97  1  0  0  0
  7  8  2  0  0  0
  7 26  1  0  0  0
  7 29  1  0  0  0
  8  9  1  0  0  0
  8 22  1  0  0  0
  9 10  1  0  0  0
  9 27  2  0  0  0
 10 11  2  0  0  0
 10 15  1  0  0  0
 11 12  1  0  0  0
 11 98  1  0  0  0
 12 13  2  0  0  0
 12 99  1  0  0  0
 13 14  1  0  0  0
 13 31  1  0  0  0
 14 15  2  0  0  0
 14100  1  0  0  0
 15101  1  0  0  0
 16 17  2  0  0  0
 16 21  1  0  0  0
 16 31  1  0  0  0
 17 18  1  0  0  0
 17102  1  0  0  0
 18 19  2  0  0  0
 18103  1  0  0  0
 19 20  1  0  0  0
 19 24  1  0  0  0
 20 21  2  0  0  0
 20104  1  0  0  0
 21 23  1  0  0  0
 22 28  1  0  0  0
 22 32  2  0  0  0
 26 27  1  0  0  0
 28105  1  0  0  0
 28106  1  0  0  0
 29107  1  0  0  0
 29108  1  0  0  0
 33 34  1  0  0  0
 33 66  1  0  0  0
 33 70  2  0  0  0
 34 36  1  0  0  0
 34 59  1  0  0  0
 34109  1  0  0  0
 35 44  2  0  0  0
 35 45  1  0  0  0
 35 68  1  0  0  0
 36 56  1  0  0  0
 36110  1  0  0  0
 37 39  1  0  0  0
 37 47  1  0  0  0
 37 66  1  0  0  0
 37111  1  0  0  0
 38 43  2  0  0  0
 38 46  1  0  0  0
 38 47  1  0  0  0
 39 64  1  0  0  0
 39 67  2  0  0  0
 40 52  1  0  0  0
 40 53  2  0  0  0
 40 58  1  0  0  0
 41112  1  0  0  0
 41113  1  0  0  0
 41114  1  0  0  0
 41 48  1  0  0  0
 42 43  1  0  0  0
 42 66  1  0  0  0
 42115  1  0  0  0
 42116  1  0  0  0
 43 44  1  0  0  0
 44117  1  0  0  0
 45 46  2  0  0  0
 45118  1  0  0  0
 46119  1  0  0  0
 47120  1  0  0  0
 47121  1  0  0  0
 48 56  1  0  0  0
 48 65  1  0  0  0
 48122  1  0  0  0
 49 50  1  0  0  0
 49 53  1  0  0  0
 49 64  1  0  0  0
 49123  1  0  0  0
 50 51  1  0  0  0
 50124  1  0  0  0
 50125  1  0  0  0
 51 52  1  0  0  0
 51126  1  0  0  0
 51127  1  0  0  0
 52128  1  0  0  0
 52129  1  0  0  0
 53 54  1  0  0  0
 54 55  2  0  0  0
 54130  1  0  0  0
 55 57  1  0  0  0
 55131  1  0  0  0
 56 69  2  0  0  0
 57 58  2  0  0  0
 57132  1  0  0  0
 58133  1  0  0  0
 59 60  1  0  0  0
 59 61  1  0  0  0
 59 62  1  0  0  0
 60134  1  0  0  0
 60135  1  0  0  0
 60136  1  0  0  0
 61137  1  0  0  0
 61138  1  0  0  0
 61139  1  0  0  0
 62140  1  0  0  0
 62141  1  0  0  0
 62142  1  0  0  0
 63 65  1  0  0  0
 63143  1  0  0  0
 63144  1  0  0  0
 63145  1  0  0  0
 64146  1  0  0  0
 65147  1  0  0  0
 68 85  1  0  0  0
 71 72  2  0  0  0
 71 73  1  0  0  0
 71 76  1  0  0  0
 72 74  1  0  0  0
 72 81  1  0  0  0
 73 75  2  0  0  0
 73 80  1  0  0  0
 74 77  1  0  0  0
 74 87  2  0  0  0
 75 86  1  0  0  0
 75 87  1  0  0  0
 76148  1  0  0  0
 76149  1  0  0  0
 76150  1  0  0  0
 77151  1  0  0  0
 77152  1  0  0  0
 77153  1  0  0  0
 78 80  1  0  0  0
 78154  1  0  0  0
 78155  1  0  0  0
 78156  1  0  0  0
 79 82  1  0  0  0
 79157  1  0  0  0
 79158  1  0  0  0
 79159  1  0  0  0
 80160  1  0  0  0
 80161  1  0  0  0
 81 83  1  0  0  0
 81162  1  0  0  0
 81163  1  0  0  0
 82164  1  0  0  0
 82165  1  0  0  0
 82 86  1  0  0  0
 83 84  1  0  0  0
 83166  1  0  0  0
 83167  1  0  0  0
 84 88  1  0  0  0
 84168  1  0  0  0
 84169  1  0  0  0
 85 86  1  0  0  0
 85170  1  0  0  0
 85171  1  0  0  0
 86172  1  0  0  0
 88173  1  0  0  0
M  ISO  4   1 100  68 101  85 101  88 100
M  END
> <chiral flag>
0

> <version>
0

> <s_m_source_file>
/data/baiqing/PycharmProjects/Reinvent-master-3.2/result/LINK_invent/BTK/process_docking_weight1_custom_sum_contain_oxygen_bond_distance_aromatic_linkinvent_7_9_3/rearranged_h_0094.sdf

> <i_m_source_file_index>
14

> <r_mmod_Potential_Energy-OPLS-2005>
-146.452606201172

> <r_mmod_Stretch_Energy-OPLS-2005>
36.0776176452637

> <r_mmod_Bend_Energy-OPLS-2005>
107.295272827148

> <r_mmod_Torsional_Energy-OPLS-2005>
217.834762573242

> <r_mmod_Improper_Torsional_Energy-OPLS-2005>
12.8077182769775

> <r_mmod_Van_der_Waal_Energy-OPLS-2005>
172.607116699219

> <r_mmod_Electrostatic_Energy-OPLS-2005>
-495.3154296875

> <r_mmod_Solvation_Energy-OPLS-2005>
-214.157821655273

> <b_mmod_Minimization_Converged-OPLS-2005>
0

> <r_mmod_RMS_Derivative-OPLS-2005>
1.29973518848419

$$$$
14
                    3D
 Structure written by MMmdl.
171179  0  0  1  0            999 V2000
  -30.6960  -14.4667   20.5957 C   0  0  0  0  0  0
  -30.4220  -12.3153   19.4148 C   0  0  0  0  0  0
  -29.4956  -12.5468   18.2041 C   0  0  0  0  0  0
  -28.0201  -12.3840   18.6173 C   0  0  0  0  0  0
  -27.6641  -13.2095   19.8837 C   0  0  2  0  0  0
  -28.7054  -12.9695   21.0025 C   0  0  0  0  0  0
  -25.2568  -13.8146   20.5693 C   0  0  0  0  0  0
  -24.1822  -13.0402   20.9122 C   0  0  0  0  0  0
  -24.6390  -11.6873   20.8653 C   0  0  0  0  0  0
  -23.9064  -10.4251   21.0334 C   0  0  0  0  0  0
  -24.3617   -9.4196   21.9135 C   0  0  0  0  0  0
  -23.6284   -8.2246   22.0762 C   0  0  0  0  0  0
  -22.4268   -8.0254   21.3539 C   0  0  0  0  0  0
  -21.9889   -9.0214   20.4638 C   0  0  0  0  0  0
  -22.7215  -10.2085   20.3018 C   0  0  0  0  0  0
  -21.6840   -6.0709   22.5257 C   0  0  0  0  0  0
  -21.4003   -6.5622   23.8185 C   0  0  0  0  0  0
  -21.3667   -5.6797   24.9165 C   0  0  0  0  0  0
  -21.6060   -4.3056   24.7218 C   0  0  0  0  0  0
  -21.8817   -3.8124   23.4337 C   0  0  0  0  0  0
  -21.9186   -4.6940   22.3393 C   0  0  0  0  0  0
  -22.7843  -13.5185   21.1834 C   0  0  0  0  0  0
  -22.1662   -4.2130   21.0974 F   0  0  0  0  0  0
  -21.5661   -3.4550   25.7736 F   0  0  0  0  0  0
  -30.0398  -13.2828   20.4570 N   0  0  0  0  0  0
  -26.3039  -12.9336   20.3384 N   0  0  0  0  0  0
  -25.9320  -11.6481   20.5668 N   0  0  0  0  0  0
  -22.0544  -12.8113   22.0377 N   0  0  0  0  0  0
  -25.4250  -15.1884   20.4190 N   0  0  0  0  0  0
  -31.7899  -14.6967   20.0769 O   0  0  0  0  0  0
  -21.6629   -6.8854   21.4228 O   0  0  0  0  0  0
  -22.3490  -14.5506   20.6734 O   0  0  0  0  0  0
  -24.6148  -31.8678   23.2103 C   0  0  0  0  0  0
  -25.9032  -32.4830   23.8420 C   0  0  1  0  0  0
  -27.2380  -27.4342   20.0876 C   0  0  0  0  0  0
  -25.5883  -33.8633   24.2353 N   0  0  0  0  0  0
  -23.4022  -30.4902   21.5539 C   0  0  2  0  0  0
  -24.8510  -28.9570   20.1147 C   0  0  0  0  0  0
  -22.7414  -29.4635   22.5031 C   0  0  0  0  0  0
  -18.0264  -28.1358   22.8496 C   0  0  0  0  0  0
  -24.1474  -36.7316   23.2645 C   0  0  0  0  0  0
  -25.9321  -30.8321   21.3640 C   0  0  0  0  0  0
  -26.0130  -29.4668   20.7092 C   0  0  0  0  0  0
  -27.2124  -28.7148   20.6897 C   0  0  0  0  0  0
  -26.0609  -26.9414   19.4847 C   0  0  0  0  0  0
  -24.8713  -27.6940   19.4976 C   0  0  0  0  0  0
  -23.6108  -29.8230   20.1680 C   0  0  0  0  0  0
  -25.4095  -36.3129   24.0355 C   0  0  1  0  0  0
  -20.5855  -28.3638   23.1320 C   0  0  2  0  0  0
  -20.6756  -26.9380   22.5415 C   0  0  0  0  0  0
  -19.5736  -26.6367   21.5210 C   0  0  0  0  0  0
  -18.1909  -26.7908   22.1615 C   0  0  0  0  0  0
  -19.1518  -28.8814   23.2900 C   0  0  0  0  0  0
  -18.9449  -30.1423   23.8912 C   0  0  0  0  0  0
  -17.6459  -30.6570   24.0548 C   0  0  0  0  0  0
  -25.9024  -34.9486   23.5158 C   0  0  0  0  0  0
  -16.5345  -29.9077   23.6316 C   0  0  0  0  0  0
  -16.7259  -28.6483   23.0353 C   0  0  0  0  0  0
  -26.4461  -31.6597   25.0747 C   0  0  0  0  0  0
  -25.3723  -31.3672   26.1485 C   0  0  0  0  0  0
  -27.0311  -30.3056   24.6087 C   0  0  0  0  0  0
  -27.6033  -32.4310   25.7523 C   0  0  0  0  0  0
  -27.5578  -37.1821   24.8473 C   0  0  0  0  0  0
  -21.4146  -29.3014   22.3759 N   0  0  0  0  0  0
  -26.4287  -37.3806   23.9421 N   0  0  0  0  0  0
  -24.6684  -31.0767   22.1014 N   0  0  0  0  0  0
  -23.4178  -28.8179   23.3071 O   0  0  0  0  0  0
  -28.3864  -26.6674   20.0728 O   0  0  0  0  0  0
  -26.5593  -34.8932   22.4724 O   0  0  0  0  0  0
  -23.5336  -32.1445   23.7472 O   0  0  0  0  0  0
  -28.4506  -21.0947   19.9942 C   0  0  0  0  0  0
  -29.5242  -21.9577   19.7075 C   0  0  0  0  0  0
  -28.6290  -19.7003   20.1097 C   0  0  0  0  0  0
  -30.8327  -21.4088   19.6146 C   0  0  0  0  0  0
  -29.9233  -19.1279   19.9806 C   0  0  0  0  0  0
  -31.0377  -19.9994   19.7826 C   0  0  0  0  0  0
  -31.9870  -22.3572   19.2889 C   0  0  0  0  0  0
  -26.6998  -18.4896   18.9829 C   0  0  0  0  0  0
  -32.9458  -19.2003   18.2809 C   0  0  0  0  0  0
  -27.3776  -18.8528   20.3128 C   0  0  0  0  0  0
  -29.1963  -23.4417   19.4368 C   0  0  0  0  0  0
  -32.4511  -19.4127   19.7184 C   0  0  0  0  0  0
  -30.0785  -17.5875   19.9361 C   0  0  0  0  0  0
  -29.3995  -24.4033   20.6343 C   0  0  0  0  0  0
  -30.2984  -16.8725   21.2957 C   0  0  0  0  0  0
  -28.2804  -25.4624   20.8522 C   0  0  0  0  0  0
  -30.0044  -15.4282   21.2340 N   0  0  0  0  0  0
  -31.4682  -12.4069   19.1194 H   0  0  0  0  0  0
  -30.3065  -11.2971   19.7908 H   0  0  0  0  0  0
  -29.7438  -11.8646   17.3928 H   0  0  0  0  0  0
  -29.6499  -13.5519   17.8083 H   0  0  0  0  0  0
  -27.8413  -11.3237   18.8026 H   0  0  0  0  0  0
  -27.3663  -12.6654   17.7918 H   0  0  0  0  0  0
  -27.7084  -14.2615   19.6016 H   0  0  0  0  0  0
  -28.6832  -11.9289   21.3319 H   0  0  0  0  0  0
  -28.4591  -13.5510   21.8922 H   0  0  0  0  0  0
  -25.2788   -9.5689   22.4660 H   0  0  0  0  0  0
  -23.9985   -7.4667   22.7497 H   0  0  0  0  0  0
  -21.0827   -8.8710   19.8932 H   0  0  0  0  0  0
  -22.3684  -10.9595   19.6103 H   0  0  0  0  0  0
  -21.1990   -7.6129   23.9664 H   0  0  0  0  0  0
  -21.1508   -6.0547   25.9062 H   0  0  0  0  0  0
  -22.0595   -2.7581   23.2839 H   0  0  0  0  0  0
  -22.4222  -11.9730   22.4633 H   0  0  0  0  0  0
  -21.1180  -13.1083   22.2711 H   0  0  0  0  0  0
  -24.6532  -15.8346   20.5370 H   0  0  0  0  0  0
  -26.2855  -15.6344   20.1303 H   0  0  0  0  0  0
  -26.7111  -32.5543   23.1196 H   0  0  0  0  0  0
  -25.0041  -33.9799   25.0504 H   0  0  0  0  0  0
  -22.6908  -31.3073   21.4172 H   0  0  0  0  0  0
  -23.3745  -35.9639   23.3314 H   0  0  0  0  0  0
  -24.3567  -36.8918   22.2058 H   0  0  0  0  0  0
  -23.7207  -37.6518   23.6647 H   0  0  0  0  0  0
  -26.0417  -31.5967   20.5934 H   0  0  0  0  0  0
  -26.8202  -30.8872   21.9822 H   0  0  0  0  0  0
  -28.1106  -29.1071   21.1475 H   0  0  0  0  0  0
  -26.0633  -25.9730   19.0025 H   0  0  0  0  0  0
  -23.9808  -27.2973   19.0303 H   0  0  0  0  0  0
  -23.7171  -30.6007   19.4107 H   0  0  0  0  0  0
  -22.7328  -29.2454   19.8717 H   0  0  0  0  0  0
  -25.1266  -36.2020   25.0848 H   0  0  0  0  0  0
  -20.9921  -28.3193   24.1440 H   0  0  0  0  0  0
  -20.5627  -26.2256   23.3606 H   0  0  0  0  0  0
  -21.6637  -26.7406   22.1229 H   0  0  0  0  0  0
  -19.6896  -25.6275   21.1238 H   0  0  0  0  0  0
  -19.6668  -27.3174   20.6736 H   0  0  0  0  0  0
  -17.4179  -26.6649   21.4014 H   0  0  0  0  0  0
  -18.0306  -26.0034   22.8999 H   0  0  0  0  0  0
  -19.7927  -30.7233   24.2292 H   0  0  0  0  0  0
  -17.5008  -31.6252   24.5145 H   0  0  0  0  0  0
  -15.5342  -30.2985   23.7619 H   0  0  0  0  0  0
  -15.8655  -28.0797   22.7080 H   0  0  0  0  0  0
  -24.5910  -30.7007   25.7819 H   0  0  0  0  0  0
  -24.8882  -32.2801   26.4962 H   0  0  0  0  0  0
  -25.8069  -30.8832   27.0237 H   0  0  0  0  0  0
  -26.2865  -29.6829   24.1109 H   0  0  0  0  0  0
  -27.4092  -29.7277   25.4531 H   0  0  0  0  0  0
  -27.8688  -30.4433   23.9244 H   0  0  0  0  0  0
  -27.2661  -33.3605   26.2127 H   0  0  0  0  0  0
  -28.3835  -32.6870   25.0346 H   0  0  0  0  0  0
  -28.0704  -31.8411   26.5419 H   0  0  0  0  0  0
  -28.2605  -38.0113   24.7522 H   0  0  0  0  0  0
  -28.1067  -36.2645   24.6298 H   0  0  0  0  0  0
  -27.2300  -37.1472   25.8878 H   0  0  0  0  0  0
  -20.9313  -29.8784   21.7026 H   0  0  0  0  0  0
  -26.0190  -38.2896   24.1398 H   0  0  0  0  0  0
  -27.4522  -21.5041   20.0663 H   0  0  0  0  0  0
  -32.0714  -23.1311   20.0509 H   0  0  0  0  0  0
  -31.8154  -22.8430   18.3271 H   0  0  0  0  0  0
  -32.9615  -21.8845   19.2163 H   0  0  0  0  0  0
  -25.7698  -17.9494   19.1554 H   0  0  0  0  0  0
  -27.3334  -17.8594   18.3593 H   0  0  0  0  0  0
  -26.4639  -19.3847   18.4078 H   0  0  0  0  0  0
  -33.9445  -18.7637   18.2779 H   0  0  0  0  0  0
  -32.9985  -20.1403   17.7321 H   0  0  0  0  0  0
  -32.2883  -18.5328   17.7241 H   0  0  0  0  0  0
  -26.6732  -19.4052   20.9364 H   0  0  0  0  0  0
  -27.5974  -17.9513   20.8829 H   0  0  0  0  0  0
  -28.1539  -23.4886   19.1214 H   0  0  0  0  0  0
  -29.7495  -23.8021   18.5689 H   0  0  0  0  0  0
  -32.5061  -18.4726   20.2657 H   0  0  0  0  0  0
  -33.1481  -20.0457   20.2663 H   0  0  0  0  0  0
  -30.8858  -17.3196   19.2564 H   0  0  0  0  0  0
  -29.2030  -17.1591   19.4503 H   0  0  0  0  0  0
  -30.3842  -24.8682   20.5889 H   0  0  0  0  0  0
  -29.4115  -23.7914   21.5366 H   0  0  0  0  0  0
  -29.6263  -17.2983   22.0408 H   0  0  0  0  0  0
  -31.3072  -17.0466   21.6703 H   0  0  0  0  0  0
  -28.3104  -25.7778   21.8964 H   0  0  0  0  0  0
  -27.3120  -24.9790   20.7255 H   0  0  0  0  0  0
  -29.1322  -15.1305   21.6453 H   0  0  0  0  0  0
  1 25  1  0  0  0
  1 30  2  0  0  0
  1 87  1  0  0  0
  2  3  1  0  0  0
  2 25  1  0  0  0
  2 88  1  0  0  0
  2 89  1  0  0  0
  3  4  1  0  0  0
  3 90  1  0  0  0
  3 91  1  0  0  0
  4  5  1  0  0  0
  4 92  1  0  0  0
  4 93  1  0  0  0
  5  6  1  0  0  0
  5 26  1  0  0  0
  5 94  1  0  0  0
  6 25  1  0  0  0
  6 95  1  0  0  0
  6 96  1  0  0  0
  7  8  2  0  0  0
  7 26  1  0  0  0
  7 29  1  0  0  0
  8  9  1  0  0  0
  8 22  1  0  0  0
  9 10  1  0  0  0
  9 27  2  0  0  0
 10 11  2  0  0  0
 10 15  1  0  0  0
 11 12  1  0  0  0
 11 97  1  0  0  0
 12 13  2  0  0  0
 12 98  1  0  0  0
 13 14  1  0  0  0
 13 31  1  0  0  0
 14 15  2  0  0  0
 14 99  1  0  0  0
 15100  1  0  0  0
 16 17  2  0  0  0
 16 21  1  0  0  0
 16 31  1  0  0  0
 17 18  1  0  0  0
 17101  1  0  0  0
 18 19  2  0  0  0
 18102  1  0  0  0
 19 20  1  0  0  0
 19 24  1  0  0  0
 20 21  2  0  0  0
 20103  1  0  0  0
 21 23  1  0  0  0
 22 28  1  0  0  0
 22 32  2  0  0  0
 26 27  1  0  0  0
 28104  1  0  0  0
 28105  1  0  0  0
 29106  1  0  0  0
 29107  1  0  0  0
 33 34  1  0  0  0
 33 66  1  0  0  0
 33 70  2  0  0  0
 34 36  1  0  0  0
 34 59  1  0  0  0
 34108  1  0  0  0
 35 44  2  0  0  0
 35 45  1  0  0  0
 35 68  1  0  0  0
 36 56  1  0  0  0
 36109  1  0  0  0
 37 39  1  0  0  0
 37 47  1  0  0  0
 37 66  1  0  0  0
 37110  1  0  0  0
 38 43  2  0  0  0
 38 46  1  0  0  0
 38 47  1  0  0  0
 39 64  1  0  0  0
 39 67  2  0  0  0
 40 52  1  0  0  0
 40 53  2  0  0  0
 40 58  1  0  0  0
 41111  1  0  0  0
 41112  1  0  0  0
 41113  1  0  0  0
 41 48  1  0  0  0
 42 43  1  0  0  0
 42 66  1  0  0  0
 42114  1  0  0  0
 42115  1  0  0  0
 43 44  1  0  0  0
 44116  1  0  0  0
 45 46  2  0  0  0
 45117  1  0  0  0
 46118  1  0  0  0
 47119  1  0  0  0
 47120  1  0  0  0
 48 56  1  0  0  0
 48 65  1  0  0  0
 48121  1  0  0  0
 49 50  1  0  0  0
 49 53  1  0  0  0
 49 64  1  0  0  0
 49122  1  0  0  0
 50 51  1  0  0  0
 50123  1  0  0  0
 50124  1  0  0  0
 51 52  1  0  0  0
 51125  1  0  0  0
 51126  1  0  0  0
 52127  1  0  0  0
 52128  1  0  0  0
 53 54  1  0  0  0
 54 55  2  0  0  0
 54129  1  0  0  0
 55 57  1  0  0  0
 55130  1  0  0  0
 56 69  2  0  0  0
 57 58  2  0  0  0
 57131  1  0  0  0
 58132  1  0  0  0
 59 60  1  0  0  0
 59 61  1  0  0  0
 59 62  1  0  0  0
 60133  1  0  0  0
 60134  1  0  0  0
 60135  1  0  0  0
 61136  1  0  0  0
 61137  1  0  0  0
 61138  1  0  0  0
 62139  1  0  0  0
 62140  1  0  0  0
 62141  1  0  0  0
 63 65  1  0  0  0
 63142  1  0  0  0
 63143  1  0  0  0
 63144  1  0  0  0
 64145  1  0  0  0
 65146  1  0  0  0
 68 86  1  0  0  0
 71 72  2  0  0  0
 71 73  1  0  0  0
 71147  1  0  0  0
 72 74  1  0  0  0
 72 81  1  0  0  0
 73 75  2  0  0  0
 73 80  1  0  0  0
 74 76  2  0  0  0
 74 77  1  0  0  0
 75 76  1  0  0  0
 75 83  1  0  0  0
 76 82  1  0  0  0
 77148  1  0  0  0
 77149  1  0  0  0
 77150  1  0  0  0
 78 80  1  0  0  0
 78151  1  0  0  0
 78152  1  0  0  0
 78153  1  0  0  0
 79 82  1  0  0  0
 79154  1  0  0  0
 79155  1  0  0  0
 79156  1  0  0  0
 80157  1  0  0  0
 80158  1  0  0  0
 81 84  1  0  0  0
 81159  1  0  0  0
 81160  1  0  0  0
 82161  1  0  0  0
 82162  1  0  0  0
 83 85  1  0  0  0
 83163  1  0  0  0
 83164  1  0  0  0
 84 86  1  0  0  0
 84165  1  0  0  0
 84166  1  0  0  0
 85 87  1  0  0  0
 85167  1  0  0  0
 85168  1  0  0  0
 86169  1  0  0  0
 86170  1  0  0  0
 87171  1  0  0  0
M  ISO  4   1 100  68 101  86 101  87 100
M  END
> <chiral flag>
0

> <version>
0

> <s_m_source_file>
/data/baiqing/PycharmProjects/Reinvent-master-3.2/result/LINK_invent/BTK/process_docking_weight1_custom_sum_contain_oxygen_bond_distance_aromatic_linkinvent_7_9_3/rearranged_h_0094.sdf

> <i_m_source_file_index>
15

> <r_mmod_Potential_Energy-OPLS-2005>
-82.5513076782227

> <r_mmod_Stretch_Energy-OPLS-2005>
45.5617485046387

> <r_mmod_Bend_Energy-OPLS-2005>
102.660095214844

> <r_mmod_Torsional_Energy-OPLS-2005>
231.161392211914

> <r_mmod_Improper_Torsional_Energy-OPLS-2005>
3.58445858955383

> <r_mmod_Van_der_Waal_Energy-OPLS-2005>
151.570709228516

> <r_mmod_Electrostatic_Energy-OPLS-2005>
-428.562957763672

> <r_mmod_Solvation_Energy-OPLS-2005>
-199.947525024414

> <b_mmod_Minimization_Converged-OPLS-2005>
0

> <r_mmod_RMS_Derivative-OPLS-2005>
3.39088773727417

$$$$
15
                    3D
 Structure written by MMmdl.
177185  0  0  1  0            999 V2000
  -30.5408  -14.6949   20.4808 C   0  0  0  0  0  0
  -30.4319  -12.4132   19.4778 C   0  0  0  0  0  0
  -29.5085  -12.4932   18.2394 C   0  0  0  0  0  0
  -28.0195  -12.3590   18.6267 C   0  0  0  0  0  0
  -27.6422  -13.2117   19.8686 C   0  0  2  0  0  0
  -28.6764  -13.0510   21.0031 C   0  0  0  0  0  0
  -25.2517  -13.8149   20.5710 C   0  0  0  0  0  0
  -24.1762  -13.0412   20.9206 C   0  0  0  0  0  0
  -24.6335  -11.6859   20.8729 C   0  0  0  0  0  0
  -23.9007  -10.4252   21.0388 C   0  0  0  0  0  0
  -24.3569   -9.4186   21.9172 C   0  0  0  0  0  0
  -23.6258   -8.2228   22.0774 C   0  0  0  0  0  0
  -22.4251   -8.0270   21.3565 C   0  0  0  0  0  0
  -21.9857   -9.0219   20.4653 C   0  0  0  0  0  0
  -22.7178  -10.2099   20.3044 C   0  0  0  0  0  0
  -21.6852   -6.0686   22.5261 C   0  0  0  0  0  0
  -21.4009   -6.5607   23.8194 C   0  0  0  0  0  0
  -21.3678   -5.6775   24.9162 C   0  0  0  0  0  0
  -21.6058   -4.3045   24.7214 C   0  0  0  0  0  0
  -21.8825   -3.8122   23.4344 C   0  0  0  0  0  0
  -21.9181   -4.6911   22.3385 C   0  0  0  0  0  0
  -22.7826  -13.5225   21.1859 C   0  0  0  0  0  0
  -22.1655   -4.2106   21.0963 F   0  0  0  0  0  0
  -21.5638   -3.4529   25.7736 F   0  0  0  0  0  0
  -29.9846  -13.4359   20.4503 N   0  0  0  0  0  0
  -26.2891  -12.9286   20.3292 N   0  0  0  0  0  0
  -25.9248  -11.6452   20.5713 N   0  0  0  0  0  0
  -22.0450  -12.8218   22.0413 N   0  0  0  0  0  0
  -25.4283  -15.1852   20.4243 N   0  0  0  0  0  0
  -31.6950  -14.8796   20.0760 O   0  0  0  0  0  0
  -21.6641   -6.8841   21.4249 O   0  0  0  0  0  0
  -22.3506  -14.5520   20.6710 O   0  0  0  0  0  0
  -24.6324  -31.8531   23.1938 C   0  0  0  0  0  0
  -25.9149  -32.4750   23.8319 C   0  0  1  0  0  0
  -27.2268  -27.2642   20.1377 C   0  0  0  0  0  0
  -25.5954  -33.8543   24.2269 N   0  0  0  0  0  0
  -23.4315  -30.4704   21.5360 C   0  0  2  0  0  0
  -24.8812  -28.9113   20.1092 C   0  0  0  0  0  0
  -22.7479  -29.4624   22.4890 C   0  0  0  0  0  0
  -18.0345  -28.1309   22.8378 C   0  0  0  0  0  0
  -24.1495  -36.7247   23.2630 C   0  0  0  0  0  0
  -25.9749  -30.7678   21.3689 C   0  0  0  0  0  0
  -26.0513  -29.3876   20.7179 C   0  0  0  0  0  0
  -27.2307  -28.5771   20.7154 C   0  0  0  0  0  0
  -26.0344  -26.8426   19.5150 C   0  0  0  0  0  0
  -24.8770  -27.6448   19.4967 C   0  0  0  0  0  0
  -23.6485  -29.7942   20.1557 C   0  0  0  0  0  0
  -25.4121  -36.3047   24.0321 C   0  0  1  0  0  0
  -20.5920  -28.3738   23.1236 C   0  0  2  0  0  0
  -20.6982  -26.9503   22.5308 C   0  0  0  0  0  0
  -19.5932  -26.6256   21.5209 C   0  0  0  0  0  0
  -18.2068  -26.7883   22.1476 C   0  0  0  0  0  0
  -19.1557  -28.8816   23.2828 C   0  0  0  0  0  0
  -18.9423  -30.1382   23.8917 C   0  0  0  0  0  0
  -17.6398  -30.6467   24.0575 C   0  0  0  0  0  0
  -25.9071  -34.9419   23.5097 C   0  0  0  0  0  0
  -16.5331  -29.8921   23.6290 C   0  0  0  0  0  0
  -16.7302  -28.6368   23.0275 C   0  0  0  0  0  0
  -26.4521  -31.6557   25.0714 C   0  0  0  0  0  0
  -25.3711  -31.3721   26.1428 C   0  0  0  0  0  0
  -27.0388  -30.2967   24.6201 C   0  0  0  0  0  0
  -27.6109  -32.4275   25.7458 C   0  0  0  0  0  0
  -27.5577  -37.1779   24.8466 C   0  0  0  0  0  0
  -21.4180  -29.3141   22.3670 N   0  0  0  0  0  0
  -26.4293  -37.3745   23.9421 N   0  0  0  0  0  0
  -24.6992  -31.0486   22.0897 N   0  0  0  0  0  0
  -23.4143  -28.8090   23.2959 O   0  0  0  0  0  0
  -28.3307  -26.3879   20.1225 O   0  0  0  0  0  0
  -26.5631  -34.8885   22.4665 O   0  0  0  0  0  0
  -23.5474  -32.1390   23.7218 O   0  0  0  0  0  0
  -29.1884  -21.0329   20.3796 C   0  0  0  0  0  0
  -27.0643  -21.9879   21.0224 C   0  0  0  0  0  0
  -28.3081  -22.1961   20.4101 C   0  0  0  0  0  0
  -28.8370  -19.7315   20.9290 C   0  0  0  0  0  0
  -26.7054  -20.7737   21.6478 C   0  0  0  0  0  0
  -27.5810  -19.6449   21.6007 C   0  0  0  0  0  0
  -27.2999  -17.3980   24.7911 C   0  0  0  0  0  0
  -24.1909  -20.6213   21.4197 C   0  0  0  0  0  0
  -25.2015  -21.9736   23.3235 C   0  0  0  0  0  0
  -29.8327  -18.4811   20.9814 C   0  0  0  0  0  0
  -27.2228  -18.3795   22.3923 C   0  0  0  0  0  0
  -27.5711  -18.5950   23.8796 C   0  0  0  0  0  0
  -29.5583  -17.1342   20.1368 C   0  0  0  0  0  0
  -29.8864  -23.7582   19.0386 C   0  0  0  0  0  0
  -28.1854  -24.9803   20.6352 C   0  0  0  0  0  0
  -28.5274  -23.6473   19.7577 C   0  0  2  0  0  0
  -25.3644  -20.7556   22.3959 C   0  0  0  0  0  0
  -29.6878  -15.7444   20.7600 N   0  0  0  0  0  0
  -29.9848  -22.8401   17.8813 N   0  3  0  0  0  0
  -31.4678  -12.5681   19.1804 H   0  0  0  0  0  0
  -30.3984  -11.4159   19.9217 H   0  0  0  0  0  0
  -29.7704  -11.7127   17.5259 H   0  0  0  0  0  0
  -29.6698  -13.4405   17.7259 H   0  0  0  0  0  0
  -27.8112  -11.3063   18.8146 H   0  0  0  0  0  0
  -27.3898  -12.6423   17.7816 H   0  0  0  0  0  0
  -27.6612  -14.2517   19.5424 H   0  0  0  0  0  0
  -28.6979  -12.0143   21.3444 H   0  0  0  0  0  0
  -28.4061  -13.6469   21.8777 H   0  0  0  0  0  0
  -25.2701   -9.5656   22.4736 H   0  0  0  0  0  0
  -23.9950   -7.4616   22.7502 H   0  0  0  0  0  0
  -21.0786   -8.8718   19.8961 H   0  0  0  0  0  0
  -22.3627  -10.9625   19.6150 H   0  0  0  0  0  0
  -21.2021   -7.6118   23.9689 H   0  0  0  0  0  0
  -21.1510   -6.0496   25.9058 H   0  0  0  0  0  0
  -22.0591   -2.7578   23.2848 H   0  0  0  0  0  0
  -22.4057  -11.9875   22.4798 H   0  0  0  0  0  0
  -21.1090  -13.1315   22.2614 H   0  0  0  0  0  0
  -24.6830  -15.8479   20.5986 H   0  0  0  0  0  0
  -26.2714  -15.6264   20.0834 H   0  0  0  0  0  0
  -26.7209  -32.5367   23.1063 H   0  0  0  0  0  0
  -25.0199  -33.9696   25.0476 H   0  0  0  0  0  0
  -22.7299  -31.2904   21.3806 H   0  0  0  0  0  0
  -23.3781  -35.9564   23.3312 H   0  0  0  0  0  0
  -24.3609  -36.8850   22.2044 H   0  0  0  0  0  0
  -23.7222  -37.6440   23.6652 H   0  0  0  0  0  0
  -26.1119  -31.5293   20.5972 H   0  0  0  0  0  0
  -26.8533  -30.8209   21.9999 H   0  0  0  0  0  0
  -28.1290  -28.9387   21.1960 H   0  0  0  0  0  0
  -26.0014  -25.8695   19.0437 H   0  0  0  0  0  0
  -23.9823  -27.2741   19.0179 H   0  0  0  0  0  0
  -23.7554  -30.5670   19.3909 H   0  0  0  0  0  0
  -22.7752  -29.2090   19.8620 H   0  0  0  0  0  0
  -25.1285  -36.1918   25.0809 H   0  0  0  0  0  0
  -21.0007  -28.3320   24.1354 H   0  0  0  0  0  0
  -20.6321  -26.2308   23.3484 H   0  0  0  0  0  0
  -21.6803  -26.7797   22.0863 H   0  0  0  0  0  0
  -19.7126  -25.6064   21.1503 H   0  0  0  0  0  0
  -19.6957  -27.2829   20.6562 H   0  0  0  0  0  0
  -17.4446  -26.6650   21.3746 H   0  0  0  0  0  0
  -18.0408  -25.9962   22.8779 H   0  0  0  0  0  0
  -19.7877  -30.7200   24.2319 H   0  0  0  0  0  0
  -17.4893  -31.6110   24.5241 H   0  0  0  0  0  0
  -15.5307  -30.2748   23.7604 H   0  0  0  0  0  0
  -15.8751  -28.0624   22.6954 H   0  0  0  0  0  0
  -24.5943  -30.6990   25.7779 H   0  0  0  0  0  0
  -24.8812  -32.2866   26.4761 H   0  0  0  0  0  0
  -25.8018  -30.8998   27.0250 H   0  0  0  0  0  0
  -26.2972  -29.6672   24.1248 H   0  0  0  0  0  0
  -27.4115  -29.7299   25.4746 H   0  0  0  0  0  0
  -27.8833  -30.4330   23.9442 H   0  0  0  0  0  0
  -27.2803  -33.3629   26.2002 H   0  0  0  0  0  0
  -28.3920  -32.6709   25.0227 H   0  0  0  0  0  0
  -28.0763  -31.8365   26.5369 H   0  0  0  0  0  0
  -28.2566  -38.0088   24.7494 H   0  0  0  0  0  0
  -28.1080  -36.2606   24.6311 H   0  0  0  0  0  0
  -27.2293  -37.1438   25.8863 H   0  0  0  0  0  0
  -20.9323  -29.8930   21.6940 H   0  0  0  0  0  0
  -26.0174  -38.2821   24.1435 H   0  0  0  0  0  0
  -30.1771  -21.1252   19.9524 H   0  0  0  0  0  0
  -26.3641  -22.8075   21.0290 H   0  0  0  0  0  0
  -27.4961  -17.6730   25.8285 H   0  0  0  0  0  0
  -27.9401  -16.5532   24.5467 H   0  0  0  0  0  0
  -26.2613  -17.0753   24.7309 H   0  0  0  0  0  0
  -24.2977  -19.7238   20.8087 H   0  0  0  0  0  0
  -24.1237  -21.4794   20.7506 H   0  0  0  0  0  0
  -23.2462  -20.5375   21.9583 H   0  0  0  0  0  0
  -26.0574  -22.0713   23.9945 H   0  0  0  0  0  0
  -24.3106  -21.8810   23.9423 H   0  0  0  0  0  0
  -25.0986  -22.9064   22.7695 H   0  0  0  0  0  0
  -29.9473  -18.2098   22.0284 H   0  0  0  0  0  0
  -30.8244  -18.8395   20.7009 H   0  0  0  0  0  0
  -27.7283  -17.4902   22.0253 H   0  0  0  0  0  0
  -26.1730  -18.1263   22.2477 H   0  0  0  0  0  0
  -28.6167  -18.8831   23.9672 H   0  0  0  0  0  0
  -27.0131  -19.4402   24.2728 H   0  0  0  0  0  0
  -30.1655  -17.1681   19.2298 H   0  0  0  0  0  0
  -28.5300  -17.1802   19.7719 H   0  0  0  0  0  0
  -30.6983  -23.5473   19.7388 H   0  0  0  0  0  0
  -30.0383  -24.7771   18.6853 H   0  0  0  0  0  0
  -27.1852  -24.8835   21.0554 H   0  0  0  0  0  0
  -28.8376  -24.9439   21.5052 H   0  0  0  0  0  0
  -27.7756  -23.6873   18.9667 H   0  0  0  0  0  0
  -25.2944  -19.8979   23.0593 H   0  0  0  0  0  0
  -28.8267  -15.4273   21.1817 H   0  0  0  0  0  0
  -29.7739  -21.8965   18.1565 H   0  0  0  0  0  0
  -30.9120  -22.8603   17.4919 H   0  0  0  0  0  0
  -29.3378  -23.0997   17.1612 H   0  0  0  0  0  0
  1 25  1  0  0  0
  1 30  2  0  0  0
  1 88  1  0  0  0
  2  3  1  0  0  0
  2 25  1  0  0  0
  2 90  1  0  0  0
  2 91  1  0  0  0
  3  4  1  0  0  0
  3 92  1  0  0  0
  3 93  1  0  0  0
  4  5  1  0  0  0
  4 94  1  0  0  0
  4 95  1  0  0  0
  5  6  1  0  0  0
  5 26  1  0  0  0
  5 96  1  0  0  0
  6 25  1  0  0  0
  6 97  1  0  0  0
  6 98  1  0  0  0
  7  8  2  0  0  0
  7 26  1  0  0  0
  7 29  1  0  0  0
  8  9  1  0  0  0
  8 22  1  0  0  0
  9 10  1  0  0  0
  9 27  2  0  0  0
 10 11  2  0  0  0
 10 15  1  0  0  0
 11 12  1  0  0  0
 11 99  1  0  0  0
 12 13  2  0  0  0
 12100  1  0  0  0
 13 14  1  0  0  0
 13 31  1  0  0  0
 14 15  2  0  0  0
 14101  1  0  0  0
 15102  1  0  0  0
 16 17  2  0  0  0
 16 21  1  0  0  0
 16 31  1  0  0  0
 17 18  1  0  0  0
 17103  1  0  0  0
 18 19  2  0  0  0
 18104  1  0  0  0
 19 20  1  0  0  0
 19 24  1  0  0  0
 20 21  2  0  0  0
 20105  1  0  0  0
 21 23  1  0  0  0
 22 28  1  0  0  0
 22 32  2  0  0  0
 26 27  1  0  0  0
 28106  1  0  0  0
 28107  1  0  0  0
 29108  1  0  0  0
 29109  1  0  0  0
 33 34  1  0  0  0
 33 66  1  0  0  0
 33 70  2  0  0  0
 34 36  1  0  0  0
 34 59  1  0  0  0
 34110  1  0  0  0
 35 44  2  0  0  0
 35 45  1  0  0  0
 35 68  1  0  0  0
 36 56  1  0  0  0
 36111  1  0  0  0
 37 39  1  0  0  0
 37 47  1  0  0  0
 37 66  1  0  0  0
 37112  1  0  0  0
 38 43  2  0  0  0
 38 46  1  0  0  0
 38 47  1  0  0  0
 39 64  1  0  0  0
 39 67  2  0  0  0
 40 52  1  0  0  0
 40 53  2  0  0  0
 40 58  1  0  0  0
 41113  1  0  0  0
 41114  1  0  0  0
 41115  1  0  0  0
 41 48  1  0  0  0
 42 43  1  0  0  0
 42 66  1  0  0  0
 42116  1  0  0  0
 42117  1  0  0  0
 43 44  1  0  0  0
 44118  1  0  0  0
 45 46  2  0  0  0
 45119  1  0  0  0
 46120  1  0  0  0
 47121  1  0  0  0
 47122  1  0  0  0
 48 56  1  0  0  0
 48 65  1  0  0  0
 48123  1  0  0  0
 49 50  1  0  0  0
 49 53  1  0  0  0
 49 64  1  0  0  0
 49124  1  0  0  0
 50 51  1  0  0  0
 50125  1  0  0  0
 50126  1  0  0  0
 51 52  1  0  0  0
 51127  1  0  0  0
 51128  1  0  0  0
 52129  1  0  0  0
 52130  1  0  0  0
 53 54  1  0  0  0
 54 55  2  0  0  0
 54131  1  0  0  0
 55 57  1  0  0  0
 55132  1  0  0  0
 56 69  2  0  0  0
 57 58  2  0  0  0
 57133  1  0  0  0
 58134  1  0  0  0
 59 60  1  0  0  0
 59 61  1  0  0  0
 59 62  1  0  0  0
 60135  1  0  0  0
 60136  1  0  0  0
 60137  1  0  0  0
 61138  1  0  0  0
 61139  1  0  0  0
 61140  1  0  0  0
 62141  1  0  0  0
 62142  1  0  0  0
 62143  1  0  0  0
 63 65  1  0  0  0
 63144  1  0  0  0
 63145  1  0  0  0
 63146  1  0  0  0
 64147  1  0  0  0
 65148  1  0  0  0
 68 85  1  0  0  0
 71 73  2  0  0  0
 71 74  1  0  0  0
 71149  1  0  0  0
 72 73  1  0  0  0
 72 75  2  0  0  0
 72150  1  0  0  0
 73 86  1  0  0  0
 74 76  2  0  0  0
 74 80  1  0  0  0
 75 76  1  0  0  0
 75 87  1  0  0  0
 76 81  1  0  0  0
 77 82  1  0  0  0
 77151  1  0  0  0
 77152  1  0  0  0
 77153  1  0  0  0
 78154  1  0  0  0
 78155  1  0  0  0
 78156  1  0  0  0
 78 87  1  0  0  0
 79 87  1  0  0  0
 79157  1  0  0  0
 79158  1  0  0  0
 79159  1  0  0  0
 80 83  1  0  0  0
 80160  1  0  0  0
 80161  1  0  0  0
 81 82  1  0  0  0
 81162  1  0  0  0
 81163  1  0  0  0
 82164  1  0  0  0
 82165  1  0  0  0
 83 88  1  0  0  0
 83166  1  0  0  0
 83167  1  0  0  0
 84 89  1  0  0  0
 84168  1  0  0  0
 84169  1  0  0  0
 84 86  1  0  0  0
 85 86  1  0  0  0
 85170  1  0  0  0
 85171  1  0  0  0
 86172  1  0  0  0
 87173  1  0  0  0
 88174  1  0  0  0
 89175  1  0  0  0
 89176  1  0  0  0
 89177  1  0  0  0
M  CHG  1  89   1
M  ISO  4   1 100  68 101  85 101  88 100
M  END
> <chiral flag>
0

> <version>
0

> <s_m_source_file>
/data/baiqing/PycharmProjects/Reinvent-master-3.2/result/LINK_invent/BTK/process_docking_weight1_custom_sum_contain_oxygen_bond_distance_aromatic_linkinvent_7_9_3/rearranged_h_0094.sdf

> <i_m_source_file_index>
16

> <r_mmod_Potential_Energy-OPLS-2005>
-60.6917495727539

> <r_mmod_Stretch_Energy-OPLS-2005>
128.7958984375

> <r_mmod_Bend_Energy-OPLS-2005>
180.704025268555

> <r_mmod_Torsional_Energy-OPLS-2005>
268.160949707031

> <r_mmod_Improper_Torsional_Energy-OPLS-2005>
8.0743932723999

> <r_mmod_Van_der_Waal_Energy-OPLS-2005>
136.66145324707

> <r_mmod_Electrostatic_Energy-OPLS-2005>
-374.736938476562

> <r_mmod_Solvation_Energy-OPLS-2005>
-480.720336914062

> <b_mmod_Minimization_Converged-OPLS-2005>
0

> <r_mmod_RMS_Derivative-OPLS-2005>
6.29033231735229

$$$$
16
                    3D
 Structure written by MMmdl.
178186  0  0  1  0            999 V2000
  -30.5077  -14.5950   20.3811 C   0  0  0  0  0  0
  -30.4321  -12.3438   19.4229 C   0  0  0  0  0  0
  -29.4997  -12.5083   18.1995 C   0  0  0  0  0  0
  -28.0270  -12.3293   18.6330 C   0  0  0  0  0  0
  -27.6523  -13.1908   19.8719 C   0  0  2  0  0  0
  -28.6972  -12.9750   20.9934 C   0  0  0  0  0  0
  -25.2543  -13.8099   20.5715 C   0  0  0  0  0  0
  -24.1852  -13.0458   20.9218 C   0  0  0  0  0  0
  -24.6335  -11.6885   20.8714 C   0  0  0  0  0  0
  -23.8986  -10.4299   21.0374 C   0  0  0  0  0  0
  -24.3551   -9.4237   21.9179 C   0  0  0  0  0  0
  -23.6251   -8.2241   22.0749 C   0  0  0  0  0  0
  -22.4210   -8.0241   21.3580 C   0  0  0  0  0  0
  -21.9852   -9.0203   20.4654 C   0  0  0  0  0  0
  -22.7155  -10.2092   20.3049 C   0  0  0  0  0  0
  -21.6837   -6.0690   22.5283 C   0  0  0  0  0  0
  -21.3976   -6.5602   23.8211 C   0  0  0  0  0  0
  -21.3705   -5.6756   24.9166 C   0  0  0  0  0  0
  -21.6047   -4.3018   24.7227 C   0  0  0  0  0  0
  -21.8828   -3.8118   23.4349 C   0  0  0  0  0  0
  -21.9184   -4.6913   22.3403 C   0  0  0  0  0  0
  -22.7839  -13.5197   21.1916 C   0  0  0  0  0  0
  -22.1664   -4.2094   21.0968 F   0  0  0  0  0  0
  -21.5663   -3.4527   25.7762 F   0  0  0  0  0  0
  -30.0047  -13.3313   20.4300 N   0  0  0  0  0  0
  -26.2970  -12.9285   20.3288 N   0  0  0  0  0  0
  -25.9244  -11.6476   20.5751 N   0  0  0  0  0  0
  -22.0434  -12.8202   22.0356 N   0  0  0  0  0  0
  -25.4237  -15.1871   20.4136 N   0  0  0  0  0  0
  -31.4840  -14.8707   19.6839 O   0  0  0  0  0  0
  -21.6618   -6.8814   21.4240 O   0  0  0  0  0  0
  -22.3511  -14.5509   20.6665 O   0  0  0  0  0  0
  -24.6219  -31.8577   23.2076 C   0  0  0  0  0  0
  -25.9070  -32.4799   23.8391 C   0  0  1  0  0  0
  -27.2525  -27.3593   20.0977 C   0  0  0  0  0  0
  -25.5896  -33.8592   24.2311 N   0  0  0  0  0  0
  -23.4190  -30.4820   21.5430 C   0  0  2  0  0  0
  -24.8742  -28.9411   20.1184 C   0  0  0  0  0  0
  -22.7464  -29.4582   22.4890 C   0  0  0  0  0  0
  -18.0281  -28.1387   22.8490 C   0  0  0  0  0  0
  -24.1491  -36.7337   23.2643 C   0  0  0  0  0  0
  -25.9626  -30.7948   21.3827 C   0  0  0  0  0  0
  -26.0368  -29.4208   20.7333 C   0  0  0  0  0  0
  -27.2278  -28.6410   20.7165 C   0  0  0  0  0  0
  -26.0613  -26.9165   19.4739 C   0  0  0  0  0  0
  -24.8875  -27.6896   19.4840 C   0  0  0  0  0  0
  -23.6433  -29.8216   20.1568 C   0  0  0  0  0  0
  -25.4098  -36.3099   24.0328 C   0  0  1  0  0  0
  -20.5885  -28.3693   23.1279 C   0  0  2  0  0  0
  -20.6785  -26.9391   22.5421 C   0  0  0  0  0  0
  -19.5761  -26.6391   21.5206 C   0  0  0  0  0  0
  -18.1935  -26.7925   22.1611 C   0  0  0  0  0  0
  -19.1540  -28.8847   23.2893 C   0  0  0  0  0  0
  -18.9450  -30.1445   23.8933 C   0  0  0  0  0  0
  -17.6454  -30.6594   24.0578 C   0  0  0  0  0  0
  -25.9032  -34.9463   23.5117 C   0  0  0  0  0  0
  -16.5351  -29.9097   23.6328 C   0  0  0  0  0  0
  -16.7264  -28.6520   23.0337 C   0  0  0  0  0  0
  -26.4442  -31.6600   25.0764 C   0  0  0  0  0  0
  -25.3679  -31.3754   26.1494 C   0  0  0  0  0  0
  -27.0234  -30.3007   24.6280 C   0  0  0  0  0  0
  -27.5973  -32.4267   25.7606 C   0  0  0  0  0  0
  -27.5578  -37.1797   24.8440 C   0  0  0  0  0  0
  -21.4174  -29.3041   22.3684 N   0  0  0  0  0  0
  -26.4278  -37.3775   23.9406 N   0  0  0  0  0  0
  -24.6848  -31.0602   22.1018 N   0  0  0  0  0  0
  -23.4194  -28.8100   23.2933 O   0  0  0  0  0  0
  -28.3997  -26.5634   20.0573 O   0  0  0  0  0  0
  -26.5561  -34.8893   22.4685 O   0  0  0  0  0  0
  -23.5349  -32.1385   23.7375 O   0  0  0  0  0  0
  -32.1273  -19.3059   19.2436 C   0  0  0  0  0  0
  -33.0515  -18.4604   19.7795 C   0  0  0  0  0  0
  -32.3853  -17.6058   20.7221 C   0  0  0  0  0  0
  -31.0171  -17.7761   20.4311 C   0  0  0  0  0  0
  -33.4856  -14.0975   21.3632 C   0  0  0  0  0  0
  -35.0622  -19.8952   20.1075 C   0  0  0  0  0  0
  -34.8082  -18.4530   17.9835 C   0  0  0  0  0  0
  -32.9983  -17.7991   23.1673 C   0  0  0  0  0  0
  -29.7381  -16.9964   20.7354 C   0  0  0  0  0  0
  -33.3958  -15.3784   22.2568 C   0  0  0  0  0  0
  -28.9858  -22.5800   19.9185 C   0  0  0  0  0  0
  -30.0021  -21.5175   19.3169 C   0  0  0  0  0  0
  -29.1485  -24.1138   19.5222 C   0  0  0  0  0  0
  -29.7005  -19.9495   19.5421 C   0  0  0  0  0  0
  -28.2736  -25.1328   20.3653 C   0  0  0  0  0  0
  -34.5302  -18.5922   19.4880 C   0  0  0  0  0  0
  -33.2009  -16.9265   21.8925 C   0  0  1  0  0  0
  -30.8852  -19.0313   19.7573 N   0  0  0  0  0  0
  -29.7869  -15.5432   21.0063 N   0  0  0  0  0  0
  -30.3660  -11.3369   19.8345 H   0  0  0  0  0  0
  -31.4764  -12.4876   19.1413 H   0  0  0  0  0  0
  -29.7630  -11.7908   17.4212 H   0  0  0  0  0  0
  -29.6341  -13.4979   17.7559 H   0  0  0  0  0  0
  -27.8819  -11.2772   18.8940 H   0  0  0  0  0  0
  -27.3585  -12.5368   17.7979 H   0  0  0  0  0  0
  -27.6875  -14.2343   19.5607 H   0  0  0  0  0  0
  -28.4639  -13.5470   21.8928 H   0  0  0  0  0  0
  -28.7143  -11.9331   21.3078 H   0  0  0  0  0  0
  -25.2726   -9.5690   22.4734 H   0  0  0  0  0  0
  -24.0023   -7.4572   22.7407 H   0  0  0  0  0  0
  -21.0825   -8.8644   19.8875 H   0  0  0  0  0  0
  -22.3616  -10.9613   19.6115 H   0  0  0  0  0  0
  -21.1925   -7.6117   23.9675 H   0  0  0  0  0  0
  -21.1546   -6.0500   25.9056 H   0  0  0  0  0  0
  -22.0567   -2.7577   23.2874 H   0  0  0  0  0  0
  -22.4078  -11.9975   22.5030 H   0  0  0  0  0  0
  -21.0969  -13.1149   22.2362 H   0  0  0  0  0  0
  -24.6555  -15.8356   20.5335 H   0  0  0  0  0  0
  -26.2544  -15.6304   20.0425 H   0  0  0  0  0  0
  -26.7180  -32.5463   23.1165 H   0  0  0  0  0  0
  -25.0142  -33.9790   25.0501 H   0  0  0  0  0  0
  -22.7119  -31.2997   21.3920 H   0  0  0  0  0  0
  -23.3725  -35.9696   23.3289 H   0  0  0  0  0  0
  -24.3603  -36.8963   22.2063 H   0  0  0  0  0  0
  -23.7276  -37.6550   23.6663 H   0  0  0  0  0  0
  -26.0850  -31.5511   20.6036 H   0  0  0  0  0  0
  -26.8473  -30.8476   22.0074 H   0  0  0  0  0  0
  -28.1206  -29.0133   21.2033 H   0  0  0  0  0  0
  -26.0413  -25.9733   18.9524 H   0  0  0  0  0  0
  -24.0020  -27.3216   18.9832 H   0  0  0  0  0  0
  -23.7746  -30.6003   19.4033 H   0  0  0  0  0  0
  -22.7689  -29.2527   19.8388 H   0  0  0  0  0  0
  -25.1257  -36.1947   25.0796 H   0  0  0  0  0  0
  -20.9967  -28.3218   24.1397 H   0  0  0  0  0  0
  -20.5697  -26.2232   23.3592 H   0  0  0  0  0  0
  -21.6643  -26.7434   22.1179 H   0  0  0  0  0  0
  -19.6939  -25.6301   21.1206 H   0  0  0  0  0  0
  -19.6743  -27.3220   20.6742 H   0  0  0  0  0  0
  -17.4204  -26.6664   21.4022 H   0  0  0  0  0  0
  -18.0378  -26.0055   22.8999 H   0  0  0  0  0  0
  -19.7913  -30.7242   24.2316 H   0  0  0  0  0  0
  -17.5011  -31.6268   24.5166 H   0  0  0  0  0  0
  -15.5351  -30.3029   23.7648 H   0  0  0  0  0  0
  -15.8648  -28.0882   22.7019 H   0  0  0  0  0  0
  -24.5823  -30.7173   25.7820 H   0  0  0  0  0  0
  -24.8939  -32.2935   26.4922 H   0  0  0  0  0  0
  -25.7965  -30.8881   27.0260 H   0  0  0  0  0  0
  -26.2780  -29.6745   24.1441 H   0  0  0  0  0  0
  -27.4004  -29.7264   25.4737 H   0  0  0  0  0  0
  -27.8576  -30.4205   23.9397 H   0  0  0  0  0  0
  -27.2579  -33.3483   26.2271 H   0  0  0  0  0  0
  -28.3805  -32.6917   25.0529 H   0  0  0  0  0  0
  -28.0645  -31.8375   26.5486 H   0  0  0  0  0  0
  -28.2554  -38.0131   24.7447 H   0  0  0  0  0  0
  -28.1116  -36.2655   24.6255 H   0  0  0  0  0  0
  -27.2317  -37.1370   25.8850 H   0  0  0  0  0  0
  -20.9288  -29.8825   21.6980 H   0  0  0  0  0  0
  -26.0170  -38.2843   24.1418 H   0  0  0  0  0  0
  -32.2820  -20.1487   18.5862 H   0  0  0  0  0  0
  -34.2101  -13.4117   21.7946 H   0  0  0  0  0  0
  -33.8086  -14.2626   20.3368 H   0  0  0  0  0  0
  -32.5856  -13.4737   21.3496 H   0  0  0  0  0  0
  -34.8903  -19.8939   21.1846 H   0  0  0  0  0  0
  -34.5462  -20.7732   19.7137 H   0  0  0  0  0  0
  -36.1299  -20.0198   19.9321 H   0  0  0  0  0  0
  -34.4452  -17.4854   17.6343 H   0  0  0  0  0  0
  -35.8776  -18.4698   17.7770 H   0  0  0  0  0  0
  -34.3354  -19.2346   17.3837 H   0  0  0  0  0  0
  -33.6499  -18.6824   23.1756 H   0  0  0  0  0  0
  -33.2294  -17.2715   24.0897 H   0  0  0  0  0  0
  -31.9802  -18.1892   23.2478 H   0  0  0  0  0  0
  -29.0849  -17.0695   19.8612 H   0  0  0  0  0  0
  -29.1716  -17.4685   21.5386 H   0  0  0  0  0  0
  -34.4306  -15.3823   22.6128 H   0  0  0  0  0  0
  -32.8009  -15.1155   23.1331 H   0  0  0  0  0  0
  -29.0507  -22.5141   21.0081 H   0  0  0  0  0  0
  -27.9665  -22.2793   19.6679 H   0  0  0  0  0  0
  -30.0840  -21.7142   18.2442 H   0  0  0  0  0  0
  -30.9926  -21.7472   19.7131 H   0  0  0  0  0  0
  -28.8920  -24.2547   18.4678 H   0  0  0  0  0  0
  -30.2054  -24.3834   19.6164 H   0  0  0  0  0  0
  -29.0984  -19.5722   18.7129 H   0  0  0  0  0  0
  -29.0596  -19.8512   20.4162 H   0  0  0  0  0  0
  -28.5632  -25.0282   21.4101 H   0  0  0  0  0  0
  -27.2350  -24.8054   20.3428 H   0  0  0  0  0  0
  -35.0486  -17.7465   19.9264 H   0  0  0  0  0  0
  -34.2487  -17.1725   21.6891 H   0  0  0  0  0  0
  -29.0069  -15.1929   21.5460 H   0  0  0  0  0  0
  1 25  1  0  0  0
  1 30  2  0  0  0
  1 89  1  0  0  0
  2  3  1  0  0  0
  2 25  1  0  0  0
  2 90  1  0  0  0
  2 91  1  0  0  0
  3  4  1  0  0  0
  3 92  1  0  0  0
  3 93  1  0  0  0
  4  5  1  0  0  0
  4 94  1  0  0  0
  4 95  1  0  0  0
  5  6  1  0  0  0
  5 26  1  0  0  0
  5 96  1  0  0  0
  6 25  1  0  0  0
  6 97  1  0  0  0
  6 98  1  0  0  0
  7  8  2  0  0  0
  7 26  1  0  0  0
  7 29  1  0  0  0
  8  9  1  0  0  0
  8 22  1  0  0  0
  9 10  1  0  0  0
  9 27  2  0  0  0
 10 11  2  0  0  0
 10 15  1  0  0  0
 11 12  1  0  0  0
 11 99  1  0  0  0
 12 13  2  0  0  0
 12100  1  0  0  0
 13 14  1  0  0  0
 13 31  1  0  0  0
 14 15  2  0  0  0
 14101  1  0  0  0
 15102  1  0  0  0
 16 17  2  0  0  0
 16 21  1  0  0  0
 16 31  1  0  0  0
 17 18  1  0  0  0
 17103  1  0  0  0
 18 19  2  0  0  0
 18104  1  0  0  0
 19 20  1  0  0  0
 19 24  1  0  0  0
 20 21  2  0  0  0
 20105  1  0  0  0
 21 23  1  0  0  0
 22 28  1  0  0  0
 22 32  2  0  0  0
 26 27  1  0  0  0
 28106  1  0  0  0
 28107  1  0  0  0
 29108  1  0  0  0
 29109  1  0  0  0
 33 34  1  0  0  0
 33 66  1  0  0  0
 33 70  2  0  0  0
 34 36  1  0  0  0
 34 59  1  0  0  0
 34110  1  0  0  0
 35 44  2  0  0  0
 35 45  1  0  0  0
 35 68  1  0  0  0
 36 56  1  0  0  0
 36111  1  0  0  0
 37 39  1  0  0  0
 37 47  1  0  0  0
 37 66  1  0  0  0
 37112  1  0  0  0
 38 43  2  0  0  0
 38 46  1  0  0  0
 38 47  1  0  0  0
 39 64  1  0  0  0
 39 67  2  0  0  0
 40 52  1  0  0  0
 40 53  2  0  0  0
 40 58  1  0  0  0
 41113  1  0  0  0
 41114  1  0  0  0
 41115  1  0  0  0
 41 48  1  0  0  0
 42 43  1  0  0  0
 42 66  1  0  0  0
 42116  1  0  0  0
 42117  1  0  0  0
 43 44  1  0  0  0
 44118  1  0  0  0
 45 46  2  0  0  0
 45119  1  0  0  0
 46120  1  0  0  0
 47121  1  0  0  0
 47122  1  0  0  0
 48 56  1  0  0  0
 48 65  1  0  0  0
 48123  1  0  0  0
 49 50  1  0  0  0
 49 53  1  0  0  0
 49 64  1  0  0  0
 49124  1  0  0  0
 50 51  1  0  0  0
 50125  1  0  0  0
 50126  1  0  0  0
 51 52  1  0  0  0
 51127  1  0  0  0
 51128  1  0  0  0
 52129  1  0  0  0
 52130  1  0  0  0
 53 54  1  0  0  0
 54 55  2  0  0  0
 54131  1  0  0  0
 55 57  1  0  0  0
 55132  1  0  0  0
 56 69  2  0  0  0
 57 58  2  0  0  0
 57133  1  0  0  0
 58134  1  0  0  0
 59 60  1  0  0  0
 59 61  1  0  0  0
 59 62  1  0  0  0
 60135  1  0  0  0
 60136  1  0  0  0
 60137  1  0  0  0
 61138  1  0  0  0
 61139  1  0  0  0
 61140  1  0  0  0
 62141  1  0  0  0
 62142  1  0  0  0
 62143  1  0  0  0
 63 65  1  0  0  0
 63144  1  0  0  0
 63145  1  0  0  0
 63146  1  0  0  0
 64147  1  0  0  0
 65148  1  0  0  0
 68 85  1  0  0  0
 71 72  2  0  0  0
 71 88  1  0  0  0
 71149  1  0  0  0
 72 73  1  0  0  0
 72 86  1  0  0  0
 73 74  2  0  0  0
 73 87  1  0  0  0
 74 79  1  0  0  0
 74 88  1  0  0  0
 75 80  1  0  0  0
 75150  1  0  0  0
 75151  1  0  0  0
 75152  1  0  0  0
 76153  1  0  0  0
 76154  1  0  0  0
 76155  1  0  0  0
 76 86  1  0  0  0
 77 86  1  0  0  0
 77156  1  0  0  0
 77157  1  0  0  0
 77158  1  0  0  0
 78159  1  0  0  0
 78160  1  0  0  0
 78161  1  0  0  0
 78 87  1  0  0  0
 79 89  1  0  0  0
 79162  1  0  0  0
 79163  1  0  0  0
 80 87  1  0  0  0
 80164  1  0  0  0
 80165  1  0  0  0
 81 82  1  0  0  0
 81 83  1  0  0  0
 81166  1  0  0  0
 81167  1  0  0  0
 82 84  1  0  0  0
 82168  1  0  0  0
 82169  1  0  0  0
 83 85  1  0  0  0
 83170  1  0  0  0
 83171  1  0  0  0
 84 88  1  0  0  0
 84172  1  0  0  0
 84173  1  0  0  0
 85174  1  0  0  0
 85175  1  0  0  0
 86176  1  0  0  0
 87177  1  0  0  0
 89178  1  0  0  0
M  ISO  4   1 100  68 101  85 101  89 100
M  END
> <chiral flag>
0

> <version>
0

> <s_m_source_file>
/data/baiqing/PycharmProjects/Reinvent-master-3.2/result/LINK_invent/BTK/process_docking_weight1_custom_sum_contain_oxygen_bond_distance_aromatic_linkinvent_7_9_3/rearranged_h_0094.sdf

> <i_m_source_file_index>
17

> <r_mmod_Potential_Energy-OPLS-2005>
224.470718383789

> <r_mmod_Stretch_Energy-OPLS-2005>
94.9479675292969

> <r_mmod_Bend_Energy-OPLS-2005>
244.309814453125

> <r_mmod_Torsional_Energy-OPLS-2005>
294.978912353516

> <r_mmod_Improper_Torsional_Energy-OPLS-2005>
7.89597940444946

> <r_mmod_Van_der_Waal_Energy-OPLS-2005>
144.347915649414

> <r_mmod_Electrostatic_Energy-OPLS-2005>
-422.137054443359

> <r_mmod_Solvation_Energy-OPLS-2005>
-206.737060546875

> <b_mmod_Minimization_Converged-OPLS-2005>
0

> <r_mmod_RMS_Derivative-OPLS-2005>
14.260516166687

$$$$
17
                    3D
 Structure written by MMmdl.
178186  0  0  1  0            999 V2000
  -30.6778  -14.5094   20.5426 C   0  0  0  0  0  0
  -30.4263  -12.3212   19.4341 C   0  0  0  0  0  0
  -29.5036  -12.5233   18.2140 C   0  0  0  0  0  0
  -28.0241  -12.3751   18.6223 C   0  0  0  0  0  0
  -27.6643  -13.2117   19.8811 C   0  0  2  0  0  0
  -28.7051  -13.0057   21.0069 C   0  0  0  0  0  0
  -25.2615  -13.8175   20.5696 C   0  0  0  0  0  0
  -24.1834  -13.0452   20.9140 C   0  0  0  0  0  0
  -24.6379  -11.6927   20.8697 C   0  0  0  0  0  0
  -23.9039  -10.4317   21.0392 C   0  0  0  0  0  0
  -24.3587   -9.4219   21.9159 C   0  0  0  0  0  0
  -23.6269   -8.2257   22.0733 C   0  0  0  0  0  0
  -22.4249   -8.0288   21.3538 C   0  0  0  0  0  0
  -21.9856   -9.0268   20.4629 C   0  0  0  0  0  0
  -22.7208  -10.2145   20.3056 C   0  0  0  0  0  0
  -21.6867   -6.0698   22.5261 C   0  0  0  0  0  0
  -21.4032   -6.5603   23.8187 C   0  0  0  0  0  0
  -21.3670   -5.6757   24.9141 C   0  0  0  0  0  0
  -21.6076   -4.3018   24.7185 C   0  0  0  0  0  0
  -21.8840   -3.8114   23.4310 C   0  0  0  0  0  0
  -21.9197   -4.6928   22.3361 C   0  0  0  0  0  0
  -22.7863  -13.5267   21.1821 C   0  0  0  0  0  0
  -22.1680   -4.2123   21.0935 F   0  0  0  0  0  0
  -21.5616   -3.4498   25.7683 F   0  0  0  0  0  0
  -30.0381  -13.3101   20.4537 N   0  0  0  0  0  0
  -26.3031  -12.9351   20.3372 N   0  0  0  0  0  0
  -25.9311  -11.6506   20.5731 N   0  0  0  0  0  0
  -22.0496  -12.8302   22.0367 N   0  0  0  0  0  0
  -25.4355  -15.1882   20.4151 N   0  0  0  0  0  0
  -31.8039  -14.7043   20.0821 O   0  0  0  0  0  0
  -21.6653   -6.8852   21.4225 O   0  0  0  0  0  0
  -22.3563  -14.5581   20.6658 O   0  0  0  0  0  0
  -24.6179  -31.8665   23.2071 C   0  0  0  0  0  0
  -25.9057  -32.4810   23.8384 C   0  0  1  0  0  0
  -27.2432  -27.4099   20.1284 C   0  0  0  0  0  0
  -25.5904  -33.8603   24.2316 N   0  0  0  0  0  0
  -23.4036  -30.4879   21.5479 C   0  0  2  0  0  0
  -24.8551  -28.9382   20.1240 C   0  0  0  0  0  0
  -22.7397  -29.4677   22.4997 C   0  0  0  0  0  0
  -18.0258  -28.1372   22.8505 C   0  0  0  0  0  0
  -24.1481  -36.7318   23.2646 C   0  0  0  0  0  0
  -25.9321  -30.8308   21.3533 C   0  0  0  0  0  0
  -26.0148  -29.4577   20.7120 C   0  0  0  0  0  0
  -27.2133  -28.7057   20.7016 C   0  0  0  0  0  0
  -26.0695  -26.9013   19.5403 C   0  0  0  0  0  0
  -24.8775  -27.6571   19.5367 C   0  0  0  0  0  0
  -23.6131  -29.8048   20.1676 C   0  0  0  0  0  0
  -25.4095  -36.3109   24.0351 C   0  0  1  0  0  0
  -20.5856  -28.3659   23.1307 C   0  0  2  0  0  0
  -20.6772  -26.9382   22.5435 C   0  0  0  0  0  0
  -19.5747  -26.6367   21.5228 C   0  0  0  0  0  0
  -18.1917  -26.7924   22.1618 C   0  0  0  0  0  0
  -19.1517  -28.8819   23.2910 C   0  0  0  0  0  0
  -18.9457  -30.1447   23.8900 C   0  0  0  0  0  0
  -17.6450  -30.6601   24.0541 C   0  0  0  0  0  0
  -25.9021  -34.9468   23.5122 C   0  0  0  0  0  0
  -16.5342  -29.9088   23.6329 C   0  0  0  0  0  0
  -16.7255  -28.6507   23.0351 C   0  0  0  0  0  0
  -26.4498  -31.6589   25.0708 C   0  0  0  0  0  0
  -25.3774  -31.3678   26.1465 C   0  0  0  0  0  0
  -27.0352  -30.3046   24.6076 C   0  0  0  0  0  0
  -27.6110  -32.4289   25.7418 C   0  0  0  0  0  0
  -27.5577  -37.1798   24.8458 C   0  0  0  0  0  0
  -21.4133  -29.3030   22.3713 N   0  0  0  0  0  0
  -26.4277  -37.3801   23.9422 N   0  0  0  0  0  0
  -24.6702  -31.0771   22.0949 N   0  0  0  0  0  0
  -23.4161  -28.8240   23.3057 O   0  0  0  0  0  0
  -28.4190  -26.6811   20.0872 O   0  0  0  0  0  0
  -26.5580  -34.8933   22.4679 O   0  0  0  0  0  0
  -23.5384  -32.1388   23.7497 O   0  0  0  0  0  0
  -29.1409  -20.4174   21.1302 C   0  0  0  0  0  0
  -28.8226  -19.2687   20.4479 C   0  0  0  0  0  0
  -28.3504  -19.7018   19.1649 C   0  0  0  0  0  0
  -28.4094  -21.0782   19.1315 C   0  0  0  0  0  0
  -28.0573  -21.9909   17.9998 C   0  0  0  0  0  0
  -22.9110  -19.8880   14.0550 C   0  0  0  0  0  0
  -27.9836  -25.6984   22.3387 C   0  0  0  0  0  0
  -28.8692  -17.8301   20.9894 C   0  0  0  0  0  0
  -27.8702  -18.8282   18.0180 C   0  0  0  0  0  0
  -24.2809  -19.2901   14.4062 C   0  0  0  0  0  0
  -26.3526  -18.9415   17.7403 C   0  0  0  0  0  0
  -24.5208  -19.1429   15.9201 C   0  0  0  0  0  0
  -25.9836  -18.7810   16.2495 C   0  0  0  0  0  0
  -28.2769  -24.1290   20.2954 C   0  0  0  0  0  0
  -29.1637  -22.9382   20.8128 C   0  0  0  0  0  0
  -30.1471  -16.9761   20.7174 C   0  0  0  0  0  0
  -28.6033  -25.5194   20.9412 C   0  0  1  0  0  0
  -28.8712  -21.5465   20.3608 N   0  0  0  0  0  0
  -29.9209  -15.5359   20.9833 N   0  0  0  0  0  0
  -31.4759  -12.4087   19.1440 H   0  0  0  0  0  0
  -30.3102  -11.3130   19.8326 H   0  0  0  0  0  0
  -29.7474  -11.8072   17.4277 H   0  0  0  0  0  0
  -29.6684  -13.5155   17.7864 H   0  0  0  0  0  0
  -27.8323  -11.3185   18.8118 H   0  0  0  0  0  0
  -27.3810  -12.6569   17.7880 H   0  0  0  0  0  0
  -27.7035  -14.2580   19.5800 H   0  0  0  0  0  0
  -28.6817  -11.9779   21.3725 H   0  0  0  0  0  0
  -28.4681  -13.6231   21.8753 H   0  0  0  0  0  0
  -25.2741   -9.5699   22.4703 H   0  0  0  0  0  0
  -23.9990   -7.4656   22.7465 H   0  0  0  0  0  0
  -21.0778   -8.8817   19.8936 H   0  0  0  0  0  0
  -22.3685  -10.9681   19.6164 H   0  0  0  0  0  0
  -21.2053   -7.6122   23.9685 H   0  0  0  0  0  0
  -21.1480   -6.0469   25.9045 H   0  0  0  0  0  0
  -22.0608   -2.7583   23.2801 H   0  0  0  0  0  0
  -22.4096  -11.9989   22.4831 H   0  0  0  0  0  0
  -21.1138  -13.1411   22.2562 H   0  0  0  0  0  0
  -24.6728  -15.8482   20.5138 H   0  0  0  0  0  0
  -26.2870  -15.6155   20.0731 H   0  0  0  0  0  0
  -26.7123  -32.5541   23.1153 H   0  0  0  0  0  0
  -25.0079  -33.9734   25.0480 H   0  0  0  0  0  0
  -22.6944  -31.3066   21.4034 H   0  0  0  0  0  0
  -23.3745  -35.9647   23.3291 H   0  0  0  0  0  0
  -24.3612  -36.8950   22.2070 H   0  0  0  0  0  0
  -23.7230  -37.6518   23.6668 H   0  0  0  0  0  0
  -26.0249  -31.5879   20.5744 H   0  0  0  0  0  0
  -26.8277  -30.9022   21.9599 H   0  0  0  0  0  0
  -28.1132  -29.1144   21.1417 H   0  0  0  0  0  0
  -26.0784  -25.9186   19.0915 H   0  0  0  0  0  0
  -23.9825  -27.2448   19.0929 H   0  0  0  0  0  0
  -23.7151  -30.5721   19.4009 H   0  0  0  0  0  0
  -22.7367  -29.2200   19.8812 H   0  0  0  0  0  0
  -25.1265  -36.1968   25.0850 H   0  0  0  0  0  0
  -20.9942  -28.3257   24.1424 H   0  0  0  0  0  0
  -20.5656  -26.2273   23.3635 H   0  0  0  0  0  0
  -21.6647  -26.7437   22.1216 H   0  0  0  0  0  0
  -19.6907  -25.6264   21.1269 H   0  0  0  0  0  0
  -19.6711  -27.3164   20.6742 H   0  0  0  0  0  0
  -17.4195  -26.6674   21.4014 H   0  0  0  0  0  0
  -18.0310  -26.0070   22.9006 H   0  0  0  0  0  0
  -19.7924  -30.7269   24.2274 H   0  0  0  0  0  0
  -17.5003  -31.6277   24.5135 H   0  0  0  0  0  0
  -15.5328  -30.2969   23.7699 H   0  0  0  0  0  0
  -15.8653  -28.0833   22.7044 H   0  0  0  0  0  0
  -24.5964  -30.6996   25.7803 H   0  0  0  0  0  0
  -24.8934  -32.2820   26.4915 H   0  0  0  0  0  0
  -25.8159  -30.8858   27.0211 H   0  0  0  0  0  0
  -26.2891  -29.6726   24.1250 H   0  0  0  0  0  0
  -27.4268  -29.7365   25.4528 H   0  0  0  0  0  0
  -27.8643  -30.4374   23.9118 H   0  0  0  0  0  0
  -27.2796  -33.3611   26.1985 H   0  0  0  0  0  0
  -28.3897  -32.6796   25.0200 H   0  0  0  0  0  0
  -28.0778  -31.8396   26.5314 H   0  0  0  0  0  0
  -28.2586  -38.0107   24.7534 H   0  0  0  0  0  0
  -28.1089  -36.2652   24.6227 H   0  0  0  0  0  0
  -27.2316  -37.1350   25.8866 H   0  0  0  0  0  0
  -20.9304  -29.8718   21.6903 H   0  0  0  0  0  0
  -26.0174  -38.2882   24.1451 H   0  0  0  0  0  0
  -29.5334  -20.5310   22.1319 H   0  0  0  0  0  0
  -27.7899  -21.4425   17.0976 H   0  0  0  0  0  0
  -28.9000  -22.6309   17.7385 H   0  0  0  0  0  0
  -27.1965  -22.6093   18.2515 H   0  0  0  0  0  0
  -22.8484  -20.1125   12.9901 H   0  0  0  0  0  0
  -22.7319  -20.8215   14.5867 H   0  0  0  0  0  0
  -22.0983  -19.2046   14.2996 H   0  0  0  0  0  0
  -28.2972  -26.6383   22.7940 H   0  0  0  0  0  0
  -28.2831  -24.8927   23.0075 H   0  0  0  0  0  0
  -26.8944  -25.6978   22.3031 H   0  0  0  0  0  0
  -27.9998  -17.3114   20.5905 H   0  0  0  0  0  0
  -28.7067  -17.8828   22.0670 H   0  0  0  0  0  0
  -28.1375  -17.7886   18.2012 H   0  0  0  0  0  0
  -28.4356  -19.1189   17.1315 H   0  0  0  0  0  0
  -25.0541  -19.9332   13.9862 H   0  0  0  0  0  0
  -24.3900  -18.3234   13.9141 H   0  0  0  0  0  0
  -26.0024  -19.9224   18.0581 H   0  0  0  0  0  0
  -25.8130  -18.2231   18.3568 H   0  0  0  0  0  0
  -23.8380  -18.3996   16.3339 H   0  0  0  0  0  0
  -24.2694  -20.0855   16.4070 H   0  0  0  0  0  0
  -26.2010  -17.7644   15.9181 H   0  0  0  0  0  0
  -26.6355  -19.4309   15.6644 H   0  0  0  0  0  0
  -27.2201  -23.8918   20.4218 H   0  0  0  0  0  0
  -28.4403  -24.2529   19.2278 H   0  0  0  0  0  0
  -29.1313  -22.9353   21.9037 H   0  0  0  0  0  0
  -30.2049  -23.1428   20.5624 H   0  0  0  0  0  0
  -30.9838  -17.3320   21.3227 H   0  0  0  0  0  0
  -30.4450  -17.0868   19.6726 H   0  0  0  0  0  0
  -29.6832  -25.5291   21.0998 H   0  0  0  0  0  0
  -29.0315  -15.2804   21.3782 H   0  0  0  0  0  0
  1 25  1  0  0  0
  1 30  2  0  0  0
  1 89  1  0  0  0
  2  3  1  0  0  0
  2 25  1  0  0  0
  2 90  1  0  0  0
  2 91  1  0  0  0
  3  4  1  0  0  0
  3 92  1  0  0  0
  3 93  1  0  0  0
  4  5  1  0  0  0
  4 94  1  0  0  0
  4 95  1  0  0  0
  5  6  1  0  0  0
  5 26  1  0  0  0
  5 96  1  0  0  0
  6 25  1  0  0  0
  6 97  1  0  0  0
  6 98  1  0  0  0
  7  8  2  0  0  0
  7 26  1  0  0  0
  7 29  1  0  0  0
  8  9  1  0  0  0
  8 22  1  0  0  0
  9 10  1  0  0  0
  9 27  2  0  0  0
 10 11  2  0  0  0
 10 15  1  0  0  0
 11 12  1  0  0  0
 11 99  1  0  0  0
 12 13  2  0  0  0
 12100  1  0  0  0
 13 14  1  0  0  0
 13 31  1  0  0  0
 14 15  2  0  0  0
 14101  1  0  0  0
 15102  1  0  0  0
 16 17  2  0  0  0
 16 21  1  0  0  0
 16 31  1  0  0  0
 17 18  1  0  0  0
 17103  1  0  0  0
 18 19  2  0  0  0
 18104  1  0  0  0
 19 20  1  0  0  0
 19 24  1  0  0  0
 20 21  2  0  0  0
 20105  1  0  0  0
 21 23  1  0  0  0
 22 28  1  0  0  0
 22 32  2  0  0  0
 26 27  1  0  0  0
 28106  1  0  0  0
 28107  1  0  0  0
 29108  1  0  0  0
 29109  1  0  0  0
 33 34  1  0  0  0
 33 66  1  0  0  0
 33 70  2  0  0  0
 34 36  1  0  0  0
 34 59  1  0  0  0
 34110  1  0  0  0
 35 44  2  0  0  0
 35 45  1  0  0  0
 35 68  1  0  0  0
 36 56  1  0  0  0
 36111  1  0  0  0
 37 39  1  0  0  0
 37 47  1  0  0  0
 37 66  1  0  0  0
 37112  1  0  0  0
 38 43  2  0  0  0
 38 46  1  0  0  0
 38 47  1  0  0  0
 39 64  1  0  0  0
 39 67  2  0  0  0
 40 52  1  0  0  0
 40 53  2  0  0  0
 40 58  1  0  0  0
 41113  1  0  0  0
 41114  1  0  0  0
 41115  1  0  0  0
 41 48  1  0  0  0
 42 43  1  0  0  0
 42 66  1  0  0  0
 42116  1  0  0  0
 42117  1  0  0  0
 43 44  1  0  0  0
 44118  1  0  0  0
 45 46  2  0  0  0
 45119  1  0  0  0
 46120  1  0  0  0
 47121  1  0  0  0
 47122  1  0  0  0
 48 56  1  0  0  0
 48 65  1  0  0  0
 48123  1  0  0  0
 49 50  1  0  0  0
 49 53  1  0  0  0
 49 64  1  0  0  0
 49124  1  0  0  0
 50 51  1  0  0  0
 50125  1  0  0  0
 50126  1  0  0  0
 51 52  1  0  0  0
 51127  1  0  0  0
 51128  1  0  0  0
 52129  1  0  0  0
 52130  1  0  0  0
 53 54  1  0  0  0
 54 55  2  0  0  0
 54131  1  0  0  0
 55 57  1  0  0  0
 55132  1  0  0  0
 56 69  2  0  0  0
 57 58  2  0  0  0
 57133  1  0  0  0
 58134  1  0  0  0
 59 60  1  0  0  0
 59 61  1  0  0  0
 59 62  1  0  0  0
 60135  1  0  0  0
 60136  1  0  0  0
 60137  1  0  0  0
 61138  1  0  0  0
 61139  1  0  0  0
 61140  1  0  0  0
 62141  1  0  0  0
 62142  1  0  0  0
 62143  1  0  0  0
 63 65  1  0  0  0
 63144  1  0  0  0
 63145  1  0  0  0
 63146  1  0  0  0
 64147  1  0  0  0
 65148  1  0  0  0
 68 87  1  0  0  0
 71 72  2  0  0  0
 71 88  1  0  0  0
 71149  1  0  0  0
 72 73  1  0  0  0
 72 78  1  0  0  0
 73 74  2  0  0  0
 73 79  1  0  0  0
 74 75  1  0  0  0
 74 88  1  0  0  0
 75150  1  0  0  0
 75151  1  0  0  0
 75152  1  0  0  0
 76 80  1  0  0  0
 76153  1  0  0  0
 76154  1  0  0  0
 76155  1  0  0  0
 77156  1  0  0  0
 77157  1  0  0  0
 77158  1  0  0  0
 77 87  1  0  0  0
 78 86  1  0  0  0
 78159  1  0  0  0
 78160  1  0  0  0
 79 81  1  0  0  0
 79161  1  0  0  0
 79162  1  0  0  0
 80 82  1  0  0  0
 80163  1  0  0  0
 80164  1  0  0  0
 81 83  1  0  0  0
 81165  1  0  0  0
 81166  1  0  0  0
 82 83  1  0  0  0
 82167  1  0  0  0
 82168  1  0  0  0
 83169  1  0  0  0
 83170  1  0  0  0
 84 85  1  0  0  0
 84 87  1  0  0  0
 84171  1  0  0  0
 84172  1  0  0  0
 85 88  1  0  0  0
 85173  1  0  0  0
 85174  1  0  0  0
 86 89  1  0  0  0
 86175  1  0  0  0
 86176  1  0  0  0
 87177  1  0  0  0
 89178  1  0  0  0
M  ISO  4   1 100  68 101  87 101  89 100
M  END
> <chiral flag>
0

> <version>
0

> <s_m_source_file>
/data/baiqing/PycharmProjects/Reinvent-master-3.2/result/LINK_invent/BTK/process_docking_weight1_custom_sum_contain_oxygen_bond_distance_aromatic_linkinvent_7_9_3/rearranged_h_0094.sdf

> <i_m_source_file_index>
18

> <r_mmod_Potential_Energy-OPLS-2005>
-65.0552062988281

> <r_mmod_Stretch_Energy-OPLS-2005>
48.416088104248

> <r_mmod_Bend_Energy-OPLS-2005>
126.765182495117

> <r_mmod_Torsional_Energy-OPLS-2005>
249.656967163086

> <r_mmod_Improper_Torsional_Energy-OPLS-2005>
5.74547910690308

> <r_mmod_Van_der_Waal_Energy-OPLS-2005>
110.887336730957

> <r_mmod_Electrostatic_Energy-OPLS-2005>
-418.681793212891

> <r_mmod_Solvation_Energy-OPLS-2005>
-203.778411865234

> <b_mmod_Minimization_Converged-OPLS-2005>
0

> <r_mmod_RMS_Derivative-OPLS-2005>
4.49243450164795

$$$$
18
                    3D
 Structure written by MMmdl.
167175  0  0  1  0            999 V2000
  -30.6188  -14.6949   20.4820 C   0  0  0  0  0  0
  -30.4345  -12.4227   19.4727 C   0  0  0  0  0  0
  -29.5089  -12.4963   18.2377 C   0  0  0  0  0  0
  -28.0393  -12.3095   18.6595 C   0  0  0  0  0  0
  -27.6484  -13.2148   19.8575 C   0  0  2  0  0  0
  -28.6900  -13.1313   20.9955 C   0  0  0  0  0  0
  -25.2573  -13.8156   20.5665 C   0  0  0  0  0  0
  -24.1831  -13.0430   20.9182 C   0  0  0  0  0  0
  -24.6385  -11.6897   20.8753 C   0  0  0  0  0  0
  -23.9060  -10.4282   21.0427 C   0  0  0  0  0  0
  -24.3616   -9.4206   21.9203 C   0  0  0  0  0  0
  -23.6291   -8.2246   22.0771 C   0  0  0  0  0  0
  -22.4278   -8.0281   21.3560 C   0  0  0  0  0  0
  -21.9903   -9.0257   20.4672 C   0  0  0  0  0  0
  -22.7229  -10.2129   20.3092 C   0  0  0  0  0  0
  -21.6871   -6.0731   22.5275 C   0  0  0  0  0  0
  -21.4012   -6.5641   23.8203 C   0  0  0  0  0  0
  -21.3659   -5.6794   24.9169 C   0  0  0  0  0  0
  -21.6057   -4.3057   24.7224 C   0  0  0  0  0  0
  -21.8822   -3.8144   23.4346 C   0  0  0  0  0  0
  -21.9196   -4.6958   22.3396 C   0  0  0  0  0  0
  -22.7867  -13.5236   21.1852 C   0  0  0  0  0  0
  -22.1665   -4.2150   21.0978 F   0  0  0  0  0  0
  -21.5634   -3.4535   25.7737 F   0  0  0  0  0  0
  -29.9971  -13.4719   20.4210 N   0  0  0  0  0  0
  -26.2978  -12.9322   20.3304 N   0  0  0  0  0  0
  -25.9320  -11.6488   20.5782 N   0  0  0  0  0  0
  -22.0521  -12.8221   22.0409 N   0  0  0  0  0  0
  -25.4286  -15.1866   20.4024 N   0  0  0  0  0  0
  -31.7945  -14.8182   20.1278 O   0  0  0  0  0  0
  -21.6661   -6.8872   21.4237 O   0  0  0  0  0  0
  -22.3555  -14.5550   20.6713 O   0  0  0  0  0  0
  -24.6332  -31.8581   23.2004 C   0  0  0  0  0  0
  -25.9156  -32.4763   23.8316 C   0  0  1  0  0  0
  -27.2162  -27.2740   20.1461 C   0  0  0  0  0  0
  -25.5950  -33.8573   24.2240 N   0  0  0  0  0  0
  -23.4243  -30.4808   21.5454 C   0  0  2  0  0  0
  -24.8681  -28.9149   20.1238 C   0  0  0  0  0  0
  -22.7466  -29.4679   22.4966 C   0  0  0  0  0  0
  -18.0276  -28.1407   22.8493 C   0  0  0  0  0  0
  -24.1484  -36.7302   23.2642 C   0  0  0  0  0  0
  -25.9683  -30.7758   21.3716 C   0  0  0  0  0  0
  -26.0422  -29.3950   20.7240 C   0  0  0  0  0  0
  -27.2225  -28.5888   20.7166 C   0  0  0  0  0  0
  -26.0261  -26.8466   19.5283 C   0  0  0  0  0  0
  -24.8630  -27.6462   19.5177 C   0  0  0  0  0  0
  -23.6416  -29.8089   20.1655 C   0  0  0  0  0  0
  -25.4111  -36.3086   24.0327 C   0  0  1  0  0  0
  -20.5877  -28.3742   23.1282 C   0  0  2  0  0  0
  -20.6798  -26.9467   22.5428 C   0  0  0  0  0  0
  -19.5783  -26.6410   21.5231 C   0  0  0  0  0  0
  -18.1937  -26.7945   22.1628 C   0  0  0  0  0  0
  -19.1521  -28.8895   23.2875 C   0  0  0  0  0  0
  -18.9459  -30.1489   23.8890 C   0  0  0  0  0  0
  -17.6466  -30.6606   24.0586 C   0  0  0  0  0  0
  -25.9063  -34.9456   23.5089 C   0  0  0  0  0  0
  -16.5355  -29.9113   23.6351 C   0  0  0  0  0  0
  -16.7260  -28.6538   23.0357 C   0  0  0  0  0  0
  -26.4522  -31.6587   25.0696 C   0  0  0  0  0  0
  -25.3741  -31.3714   26.1413 C   0  0  0  0  0  0
  -27.0359  -30.2998   24.6190 C   0  0  0  0  0  0
  -27.6082  -32.4344   25.7447 C   0  0  0  0  0  0
  -27.5571  -37.1802   24.8457 C   0  0  0  0  0  0
  -21.4196  -29.3089   22.3664 N   0  0  0  0  0  0
  -26.4285  -37.3790   23.9406 N   0  0  0  0  0  0
  -24.6945  -31.0567   22.0965 N   0  0  0  0  0  0
  -23.4141  -28.8229   23.3081 O   0  0  0  0  0  0
  -28.3313  -26.4196   20.1078 O   0  0  0  0  0  0
  -26.5665  -34.8918   22.4668 O   0  0  0  0  0  0
  -23.5507  -32.1411   23.7345 O   0  0  0  0  0  0
  -29.8180  -22.5154   19.2111 C   0  0  0  0  0  0
  -28.5180  -21.0734   20.6276 C   0  0  0  0  0  0
  -28.7500  -22.4123   20.1160 C   0  0  0  0  0  0
  -30.5469  -21.3696   18.8166 C   0  0  0  0  0  0
  -29.3210  -19.9373   20.2175 C   0  0  0  0  0  0
  -29.9337  -23.4216   15.9554 C   0  0  0  0  0  0
  -32.1159  -24.5269   15.3542 C   0  0  0  0  0  0
  -27.8109  -23.6825   20.3263 C   0  0  0  0  0  0
  -31.6497  -21.4210   17.7587 C   0  0  0  0  0  0
  -29.0315  -18.4102   20.5863 C   0  0  0  0  0  0
  -32.0917  -22.8147   17.2446 C   0  0  0  0  0  0
  -30.1963  -17.2831   20.5475 C   0  0  0  0  0  0
  -28.3369  -25.1210   20.8538 C   0  0  0  0  0  0
  -31.4594  -23.2471   15.8980 C   0  0  0  0  0  0
  -30.2981  -20.1280   19.3031 N   0  0  0  0  0  0
  -29.8406  -15.8081   20.7401 N   0  0  0  0  0  0
  -31.4753  -12.5397   19.1710 H   0  0  0  0  0  0
  -30.3749  -11.4391   19.9424 H   0  0  0  0  0  0
  -29.7884  -11.7316   17.5092 H   0  0  0  0  0  0
  -29.6311  -13.4578   17.7397 H   0  0  0  0  0  0
  -27.9083  -11.2603   18.9329 H   0  0  0  0  0  0
  -27.3752  -12.4852   17.8139 H   0  0  0  0  0  0
  -27.6527  -14.2366   19.4778 H   0  0  0  0  0  0
  -28.7131  -12.1295   21.4317 H   0  0  0  0  0  0
  -28.4288  -13.8044   21.8122 H   0  0  0  0  0  0
  -25.2755   -9.5687   22.4769 H   0  0  0  0  0  0
  -24.0019   -7.4635   22.7467 H   0  0  0  0  0  0
  -21.0857   -8.8776   19.8940 H   0  0  0  0  0  0
  -22.3711  -10.9680   19.6215 H   0  0  0  0  0  0
  -21.2010   -7.6148   23.9705 H   0  0  0  0  0  0
  -21.1479   -6.0526   25.9070 H   0  0  0  0  0  0
  -22.0607   -2.7610   23.2848 H   0  0  0  0  0  0
  -22.4126  -11.9860   22.4763 H   0  0  0  0  0  0
  -21.1163  -13.1254   22.2652 H   0  0  0  0  0  0
  -24.6565  -15.8374   20.4984 H   0  0  0  0  0  0
  -26.2666  -15.6164   20.0326 H   0  0  0  0  0  0
  -26.7195  -32.5411   23.1041 H   0  0  0  0  0  0
  -25.0008  -33.9697   25.0329 H   0  0  0  0  0  0
  -22.7214  -31.3033   21.3962 H   0  0  0  0  0  0
  -23.3755  -35.9626   23.3310 H   0  0  0  0  0  0
  -24.3550  -36.8941   22.2047 H   0  0  0  0  0  0
  -23.7231  -37.6504   23.6666 H   0  0  0  0  0  0
  -26.0948  -31.5281   20.5941 H   0  0  0  0  0  0
  -26.8533  -30.8347   21.9934 H   0  0  0  0  0  0
  -28.1297  -28.9619   21.1708 H   0  0  0  0  0  0
  -25.9897  -25.8786   19.0468 H   0  0  0  0  0  0
  -23.9645  -27.2703   19.0465 H   0  0  0  0  0  0
  -23.7640  -30.5788   19.4021 H   0  0  0  0  0  0
  -22.7573  -29.2429   19.8729 H   0  0  0  0  0  0
  -25.1291  -36.1937   25.0822 H   0  0  0  0  0  0
  -20.9969  -28.3344   24.1413 H   0  0  0  0  0  0
  -20.5747  -26.2372   23.3633 H   0  0  0  0  0  0
  -21.6668  -26.7534   22.1203 H   0  0  0  0  0  0
  -19.6970  -25.6323   21.1279 H   0  0  0  0  0  0
  -19.6717  -27.3221   20.6746 H   0  0  0  0  0  0
  -17.4237  -26.6714   21.3997 H   0  0  0  0  0  0
  -18.0314  -26.0051   22.8984 H   0  0  0  0  0  0
  -19.7918  -30.7317   24.2261 H   0  0  0  0  0  0
  -17.5007  -31.6271   24.5220 H   0  0  0  0  0  0
  -15.5366  -30.3038   23.7680 H   0  0  0  0  0  0
  -15.8631  -28.0873   22.7091 H   0  0  0  0  0  0
  -24.5952  -30.7043   25.7706 H   0  0  0  0  0  0
  -24.8901  -32.2875   26.4799 H   0  0  0  0  0  0
  -25.8077  -30.8889   27.0188 H   0  0  0  0  0  0
  -26.2935  -29.6716   24.1274 H   0  0  0  0  0  0
  -27.4079  -29.7285   25.4705 H   0  0  0  0  0  0
  -27.8770  -30.4218   23.9370 H   0  0  0  0  0  0
  -27.2688  -33.3630   26.2030 H   0  0  0  0  0  0
  -28.3861  -32.6974   25.0266 H   0  0  0  0  0  0
  -28.0782  -31.8488   26.5352 H   0  0  0  0  0  0
  -28.2634  -38.0059   24.7515 H   0  0  0  0  0  0
  -28.1037  -36.2622   24.6288 H   0  0  0  0  0  0
  -27.2290  -37.1442   25.8857 H   0  0  0  0  0  0
  -20.9402  -29.8710   21.6769 H   0  0  0  0  0  0
  -26.0177  -38.2875   24.1414 H   0  0  0  0  0  0
  -30.0251  -23.4803   18.7762 H   0  0  0  0  0  0
  -27.6830  -20.8994   21.2942 H   0  0  0  0  0  0
  -29.5371  -23.6790   14.9715 H   0  0  0  0  0  0
  -29.6397  -24.2115   16.6461 H   0  0  0  0  0  0
  -29.4399  -22.5002   16.2663 H   0  0  0  0  0  0
  -31.7106  -24.7838   14.3747 H   0  0  0  0  0  0
  -33.1933  -24.4012   15.2327 H   0  0  0  0  0  0
  -31.9511  -25.3811   16.0116 H   0  0  0  0  0  0
  -27.0477  -23.3592   21.0348 H   0  0  0  0  0  0
  -27.2607  -23.8331   19.3986 H   0  0  0  0  0  0
  -31.3409  -20.8026   16.9152 H   0  0  0  0  0  0
  -32.5184  -20.9208   18.1917 H   0  0  0  0  0  0
  -28.2243  -18.0872   19.9303 H   0  0  0  0  0  0
  -28.6048  -18.4032   21.5899 H   0  0  0  0  0  0
  -33.1640  -22.7499   17.0662 H   0  0  0  0  0  0
  -32.0095  -23.5794   18.0139 H   0  0  0  0  0  0
  -30.9583  -17.5503   21.2809 H   0  0  0  0  0  0
  -30.6929  -17.3480   19.5796 H   0  0  0  0  0  0
  -27.7953  -25.3233   21.7797 H   0  0  0  0  0  0
  -29.3645  -24.9758   21.1843 H   0  0  0  0  0  0
  -31.6677  -22.4594   15.1725 H   0  0  0  0  0  0
  -28.8900  -15.6057   21.0108 H   0  0  0  0  0  0
  1 25  1  0  0  0
  1 30  2  0  0  0
  1 86  1  0  0  0
  2  3  1  0  0  0
  2 25  1  0  0  0
  2 87  1  0  0  0
  2 88  1  0  0  0
  3  4  1  0  0  0
  3 89  1  0  0  0
  3 90  1  0  0  0
  4  5  1  0  0  0
  4 91  1  0  0  0
  4 92  1  0  0  0
  5  6  1  0  0  0
  5 26  1  0  0  0
  5 93  1  0  0  0
  6 25  1  0  0  0
  6 94  1  0  0  0
  6 95  1  0  0  0
  7  8  2  0  0  0
  7 26  1  0  0  0
  7 29  1  0  0  0
  8  9  1  0  0  0
  8 22  1  0  0  0
  9 10  1  0  0  0
  9 27  2  0  0  0
 10 11  2  0  0  0
 10 15  1  0  0  0
 11 12  1  0  0  0
 11 96  1  0  0  0
 12 13  2  0  0  0
 12 97  1  0  0  0
 13 14  1  0  0  0
 13 31  1  0  0  0
 14 15  2  0  0  0
 14 98  1  0  0  0
 15 99  1  0  0  0
 16 17  2  0  0  0
 16 21  1  0  0  0
 16 31  1  0  0  0
 17 18  1  0  0  0
 17100  1  0  0  0
 18 19  2  0  0  0
 18101  1  0  0  0
 19 20  1  0  0  0
 19 24  1  0  0  0
 20 21  2  0  0  0
 20102  1  0  0  0
 21 23  1  0  0  0
 22 28  1  0  0  0
 22 32  2  0  0  0
 26 27  1  0  0  0
 28103  1  0  0  0
 28104  1  0  0  0
 29105  1  0  0  0
 29106  1  0  0  0
 33 34  1  0  0  0
 33 66  1  0  0  0
 33 70  2  0  0  0
 34 36  1  0  0  0
 34 59  1  0  0  0
 34107  1  0  0  0
 35 44  2  0  0  0
 35 45  1  0  0  0
 35 68  1  0  0  0
 36 56  1  0  0  0
 36108  1  0  0  0
 37 39  1  0  0  0
 37 47  1  0  0  0
 37 66  1  0  0  0
 37109  1  0  0  0
 38 43  2  0  0  0
 38 46  1  0  0  0
 38 47  1  0  0  0
 39 64  1  0  0  0
 39 67  2  0  0  0
 40 52  1  0  0  0
 40 53  2  0  0  0
 40 58  1  0  0  0
 41110  1  0  0  0
 41111  1  0  0  0
 41112  1  0  0  0
 41 48  1  0  0  0
 42 43  1  0  0  0
 42 66  1  0  0  0
 42113  1  0  0  0
 42114  1  0  0  0
 43 44  1  0  0  0
 44115  1  0  0  0
 45 46  2  0  0  0
 45116  1  0  0  0
 46117  1  0  0  0
 47118  1  0  0  0
 47119  1  0  0  0
 48 56  1  0  0  0
 48 65  1  0  0  0
 48120  1  0  0  0
 49 50  1  0  0  0
 49 53  1  0  0  0
 49 64  1  0  0  0
 49121  1  0  0  0
 50 51  1  0  0  0
 50122  1  0  0  0
 50123  1  0  0  0
 51 52  1  0  0  0
 51124  1  0  0  0
 51125  1  0  0  0
 52126  1  0  0  0
 52127  1  0  0  0
 53 54  1  0  0  0
 54 55  2  0  0  0
 54128  1  0  0  0
 55 57  1  0  0  0
 55129  1  0  0  0
 56 69  2  0  0  0
 57 58  2  0  0  0
 57130  1  0  0  0
 58131  1  0  0  0
 59 60  1  0  0  0
 59 61  1  0  0  0
 59 62  1  0  0  0
 60132  1  0  0  0
 60133  1  0  0  0
 60134  1  0  0  0
 61135  1  0  0  0
 61136  1  0  0  0
 61137  1  0  0  0
 62138  1  0  0  0
 62139  1  0  0  0
 62140  1  0  0  0
 63 65  1  0  0  0
 63141  1  0  0  0
 63142  1  0  0  0
 63143  1  0  0  0
 64144  1  0  0  0
 65145  1  0  0  0
 68 83  1  0  0  0
 71 73  2  0  0  0
 71 74  1  0  0  0
 71146  1  0  0  0
 72 73  1  0  0  0
 72 75  2  0  0  0
 72147  1  0  0  0
 73 78  1  0  0  0
 74 79  1  0  0  0
 74 85  2  0  0  0
 75 80  1  0  0  0
 75 85  1  0  0  0
 76148  1  0  0  0
 76149  1  0  0  0
 76150  1  0  0  0
 76 84  1  0  0  0
 77 84  1  0  0  0
 77151  1  0  0  0
 77152  1  0  0  0
 77153  1  0  0  0
 78 83  1  0  0  0
 78154  1  0  0  0
 78155  1  0  0  0
 79 81  1  0  0  0
 79156  1  0  0  0
 79157  1  0  0  0
 80 82  1  0  0  0
 80158  1  0  0  0
 80159  1  0  0  0
 81 84  1  0  0  0
 81160  1  0  0  0
 81161  1  0  0  0
 82 86  1  0  0  0
 82162  1  0  0  0
 82163  1  0  0  0
 83164  1  0  0  0
 83165  1  0  0  0
 84166  1  0  0  0
 86167  1  0  0  0
M  ISO  4   1 100  68 101  83 101  86 100
M  END
> <chiral flag>
0

> <version>
0

> <s_m_source_file>
/data/baiqing/PycharmProjects/Reinvent-master-3.2/result/LINK_invent/BTK/process_docking_weight1_custom_sum_contain_oxygen_bond_distance_aromatic_linkinvent_7_9_3/rearranged_h_0094.sdf

> <i_m_source_file_index>
19

> <r_mmod_Potential_Energy-OPLS-2005>
52.6148262023926

> <r_mmod_Stretch_Energy-OPLS-2005>
114.485992431641

> <r_mmod_Bend_Energy-OPLS-2005>
181.815994262695

> <r_mmod_Torsional_Energy-OPLS-2005>
249.735000610352

> <r_mmod_Improper_Torsional_Energy-OPLS-2005>
6.69405221939087

> <r_mmod_Van_der_Waal_Energy-OPLS-2005>
133.474548339844

> <r_mmod_Electrostatic_Energy-OPLS-2005>
-479.938659667969

> <r_mmod_Solvation_Energy-OPLS-2005>
-220.953689575195

> <b_mmod_Minimization_Converged-OPLS-2005>
0

> <r_mmod_RMS_Derivative-OPLS-2005>
4.13733053207397

$$$$
19
                    3D
 Structure written by MMmdl.
160168  0  0  1  0            999 V2000
  -30.6096  -14.6956   20.4722 C   0  0  0  0  0  0
  -30.4322  -12.4263   19.4521 C   0  0  0  0  0  0
  -29.5003  -12.4963   18.2208 C   0  0  0  0  0  0
  -28.0264  -12.3259   18.6402 C   0  0  0  0  0  0
  -27.6415  -13.2201   19.8492 C   0  0  2  0  0  0
  -28.6897  -13.1237   20.9801 C   0  0  0  0  0  0
  -25.2498  -13.8157   20.5673 C   0  0  0  0  0  0
  -24.1790  -13.0419   20.9205 C   0  0  0  0  0  0
  -24.6368  -11.6893   20.8742 C   0  0  0  0  0  0
  -23.9051  -10.4277   21.0416 C   0  0  0  0  0  0
  -24.3617   -9.4189   21.9185 C   0  0  0  0  0  0
  -23.6293   -8.2225   22.0755 C   0  0  0  0  0  0
  -22.4270   -8.0271   21.3548 C   0  0  0  0  0  0
  -21.9905   -9.0237   20.4642 C   0  0  0  0  0  0
  -22.7225  -10.2119   20.3052 C   0  0  0  0  0  0
  -21.6846   -6.0726   22.5274 C   0  0  0  0  0  0
  -21.4013   -6.5634   23.8207 C   0  0  0  0  0  0
  -21.3665   -5.6785   24.9173 C   0  0  0  0  0  0
  -21.6038   -4.3047   24.7223 C   0  0  0  0  0  0
  -21.8825   -3.8139   23.4349 C   0  0  0  0  0  0
  -21.9196   -4.6955   22.3401 C   0  0  0  0  0  0
  -22.7818  -13.5198   21.1880 C   0  0  0  0  0  0
  -22.1664   -4.2139   21.0981 F   0  0  0  0  0  0
  -21.5643   -3.4535   25.7742 F   0  0  0  0  0  0
  -29.9920  -13.4730   20.3983 N   0  0  0  0  0  0
  -26.2926  -12.9349   20.3265 N   0  0  0  0  0  0
  -25.9294  -11.6504   20.5738 N   0  0  0  0  0  0
  -22.0488  -12.8174   22.0443 N   0  0  0  0  0  0
  -25.4188  -15.1878   20.4092 N   0  0  0  0  0  0
  -31.7966  -14.8236   20.1650 O   0  0  0  0  0  0
  -21.6639   -6.8865   21.4235 O   0  0  0  0  0  0
  -22.3502  -14.5514   20.6742 O   0  0  0  0  0  0
  -24.6263  -31.8590   23.1991 C   0  0  0  0  0  0
  -25.9107  -32.4768   23.8329 C   0  0  1  0  0  0
  -27.2179  -27.3033   20.1273 C   0  0  0  0  0  0
  -25.5930  -33.8574   24.2258 N   0  0  0  0  0  0
  -23.4204  -30.4803   21.5433 C   0  0  2  0  0  0
  -24.8662  -28.9289   20.1140 C   0  0  0  0  0  0
  -22.7465  -29.4622   22.4941 C   0  0  0  0  0  0
  -18.0287  -28.1378   22.8479 C   0  0  0  0  0  0
  -24.1497  -36.7283   23.2636 C   0  0  0  0  0  0
  -25.9621  -30.7860   21.3709 C   0  0  0  0  0  0
  -26.0371  -29.4118   20.7124 C   0  0  0  0  0  0
  -27.2208  -28.6137   20.7004 C   0  0  0  0  0  0
  -26.0257  -26.8697   19.5127 C   0  0  0  0  0  0
  -24.8628  -27.6641   19.5034 C   0  0  0  0  0  0
  -23.6346  -29.8110   20.1603 C   0  0  0  0  0  0
  -25.4127  -36.3076   24.0320 C   0  0  1  0  0  0
  -20.5883  -28.3686   23.1278 C   0  0  2  0  0  0
  -20.6781  -26.9415   22.5408 C   0  0  0  0  0  0
  -19.5763  -26.6382   21.5206 C   0  0  0  0  0  0
  -18.1937  -26.7924   22.1615 C   0  0  0  0  0  0
  -19.1534  -28.8851   23.2873 C   0  0  0  0  0  0
  -18.9461  -30.1451   23.8889 C   0  0  0  0  0  0
  -17.6464  -30.6584   24.0561 C   0  0  0  0  0  0
  -25.9056  -34.9445   23.5091 C   0  0  0  0  0  0
  -16.5357  -29.9078   23.6336 C   0  0  0  0  0  0
  -16.7273  -28.6495   23.0359 C   0  0  0  0  0  0
  -26.4498  -31.6573   25.0699 C   0  0  0  0  0  0
  -25.3733  -31.3720   26.1425 C   0  0  0  0  0  0
  -27.0342  -30.2992   24.6163 C   0  0  0  0  0  0
  -27.6051  -32.4313   25.7477 C   0  0  0  0  0  0
  -27.5584  -37.1794   24.8464 C   0  0  0  0  0  0
  -21.4181  -29.3038   22.3671 N   0  0  0  0  0  0
  -26.4303  -37.3769   23.9402 N   0  0  0  0  0  0
  -24.6883  -31.0582   22.0950 N   0  0  0  0  0  0
  -23.4187  -28.8177   23.3036 O   0  0  0  0  0  0
  -28.3302  -26.4486   20.1292 O   0  0  0  0  0  0
  -26.5634  -34.8914   22.4662 O   0  0  0  0  0  0
  -23.5423  -32.1405   23.7310 O   0  0  0  0  0  0
  -28.8667  -21.1164   20.1398 C   0  0  0  0  0  0
  -29.2436  -22.4675   20.5174 C   0  0  0  0  0  0
  -29.5086  -19.9535   20.7252 C   0  0  0  0  0  0
  -30.2650  -22.4991   21.5063 C   0  0  0  0  0  0
  -30.9159  -23.7844   21.9863 C   0  0  0  0  0  0
  -27.7556  -23.4994   18.6582 C   0  0  0  0  0  0
  -30.2020  -17.2661   20.8470 C   0  0  0  0  0  0
  -28.1712  -25.0583   20.6447 C   0  0  0  0  0  0
  -28.7428  -23.8093   19.7973 C   0  0  1  0  0  0
  -29.1623  -18.4258   20.4089 C   0  0  2  0  0  0
  -30.4279  -20.1484   21.7000 N   0  0  0  0  0  0
  -30.7931  -21.3801   22.0705 N   0  0  0  0  0  0
  -29.8110  -15.7982   20.6970 N   0  0  0  0  0  0
  -28.8523  -18.2604   18.9814 N   0  3  0  0  0  0
  -31.4732  -12.5535   19.1472 H   0  0  0  0  0  0
  -30.3727  -11.4446   19.9232 H   0  0  0  0  0  0
  -29.7714  -11.7294   17.4938 H   0  0  0  0  0  0
  -29.6261  -13.4536   17.7128 H   0  0  0  0  0  0
  -27.8768  -11.2765   18.8968 H   0  0  0  0  0  0
  -27.3657  -12.5262   17.7957 H   0  0  0  0  0  0
  -27.6420  -14.2439   19.4761 H   0  0  0  0  0  0
  -28.7192  -12.1156   21.3958 H   0  0  0  0  0  0
  -28.4305  -13.7845   21.8087 H   0  0  0  0  0  0
  -25.2769   -9.5665   22.4745 H   0  0  0  0  0  0
  -24.0003   -7.4614   22.7467 H   0  0  0  0  0  0
  -21.0836   -8.8748   19.8946 H   0  0  0  0  0  0
  -22.3685  -10.9658   19.6160 H   0  0  0  0  0  0
  -21.2001   -7.6144   23.9703 H   0  0  0  0  0  0
  -21.1485   -6.0524   25.9072 H   0  0  0  0  0  0
  -22.0603   -2.7602   23.2849 H   0  0  0  0  0  0
  -22.4124  -11.9816   22.4783 H   0  0  0  0  0  0
  -21.1109  -13.1186   22.2691 H   0  0  0  0  0  0
  -24.6440  -15.8328   20.5158 H   0  0  0  0  0  0
  -26.2479  -15.6255   20.0348 H   0  0  0  0  0  0
  -26.7177  -32.5431   23.1075 H   0  0  0  0  0  0
  -25.0089  -33.9731   25.0409 H   0  0  0  0  0  0
  -22.7135  -31.3001   21.3981 H   0  0  0  0  0  0
  -23.3762  -35.9611   23.3299 H   0  0  0  0  0  0
  -24.3588  -36.8906   22.2051 H   0  0  0  0  0  0
  -23.7243  -37.6478   23.6664 H   0  0  0  0  0  0
  -26.0969  -31.5512   20.6051 H   0  0  0  0  0  0
  -26.8407  -30.8325   22.0031 H   0  0  0  0  0  0
  -28.1244  -28.9853   21.1626 H   0  0  0  0  0  0
  -25.9852  -25.8980   19.0435 H   0  0  0  0  0  0
  -23.9635  -27.2864   19.0357 H   0  0  0  0  0  0
  -23.7515  -30.5854   19.4009 H   0  0  0  0  0  0
  -22.7541  -29.2382   19.8621 H   0  0  0  0  0  0
  -25.1303  -36.1932   25.0812 H   0  0  0  0  0  0
  -20.9974  -28.3270   24.1396 H   0  0  0  0  0  0
  -20.5689  -26.2298   23.3607 H   0  0  0  0  0  0
  -21.6648  -26.7454   22.1198 H   0  0  0  0  0  0
  -19.6933  -25.6290   21.1240 H   0  0  0  0  0  0
  -19.6699  -27.3186   20.6735 H   0  0  0  0  0  0
  -17.4208  -26.6662   21.4016 H   0  0  0  0  0  0
  -18.0342  -26.0060   22.9010 H   0  0  0  0  0  0
  -19.7936  -30.7267   24.2250 H   0  0  0  0  0  0
  -17.5020  -31.6262   24.5158 H   0  0  0  0  0  0
  -15.5355  -30.2987   23.7655 H   0  0  0  0  0  0
  -15.8670  -28.0814   22.7086 H   0  0  0  0  0  0
  -24.5903  -30.7080   25.7739 H   0  0  0  0  0  0
  -24.8941  -32.2901   26.4841 H   0  0  0  0  0  0
  -25.8060  -30.8892   27.0198 H   0  0  0  0  0  0
  -26.2918  -29.6735   24.1201 H   0  0  0  0  0  0
  -27.4044  -29.7253   25.4665 H   0  0  0  0  0  0
  -27.8781  -30.4253   23.9380 H   0  0  0  0  0  0
  -27.2648  -33.3603   26.2065 H   0  0  0  0  0  0
  -28.3863  -32.6896   25.0312 H   0  0  0  0  0  0
  -28.0727  -31.8442   26.5391 H   0  0  0  0  0  0
  -28.2594  -38.0095   24.7516 H   0  0  0  0  0  0
  -28.1089  -36.2629   24.6296 H   0  0  0  0  0  0
  -27.2303  -37.1439   25.8865 H   0  0  0  0  0  0
  -20.9361  -29.8747   21.6865 H   0  0  0  0  0  0
  -26.0183  -38.2840   24.1411 H   0  0  0  0  0  0
  -28.1070  -20.9657   19.3888 H   0  0  0  0  0  0
  -31.9090  -23.5894   22.3912 H   0  0  0  0  0  0
  -30.3275  -24.2399   22.7816 H   0  0  0  0  0  0
  -31.0377  -24.5027   21.1763 H   0  0  0  0  0  0
  -28.1755  -22.7938   17.9414 H   0  0  0  0  0  0
  -27.5012  -24.4010   18.1020 H   0  0  0  0  0  0
  -26.8272  -23.0786   19.0463 H   0  0  0  0  0  0
  -30.4231  -17.4017   21.9063 H   0  0  0  0  0  0
  -31.1501  -17.4325   20.3339 H   0  0  0  0  0  0
  -28.6667  -25.0907   21.6098 H   0  0  0  0  0  0
  -27.1313  -24.8596   20.9063 H   0  0  0  0  0  0
  -29.6435  -24.1860   19.3128 H   0  0  0  0  0  0
  -28.2351  -18.2321   20.9493 H   0  0  0  0  0  0
  -28.8479  -15.5774   20.8997 H   0  0  0  0  0  0
  -29.6244  -18.5765   18.4230 H   0  0  0  0  0  0
  -28.0346  -18.7846   18.7326 H   0  0  0  0  0  0
  -28.6828  -17.2939   18.7787 H   0  0  0  0  0  0
  1 25  1  0  0  0
  1 30  2  0  0  0
  1 83  1  0  0  0
  2  3  1  0  0  0
  2 25  1  0  0  0
  2 85  1  0  0  0
  2 86  1  0  0  0
  3  4  1  0  0  0
  3 87  1  0  0  0
  3 88  1  0  0  0
  4  5  1  0  0  0
  4 89  1  0  0  0
  4 90  1  0  0  0
  5  6  1  0  0  0
  5 26  1  0  0  0
  5 91  1  0  0  0
  6 25  1  0  0  0
  6 92  1  0  0  0
  6 93  1  0  0  0
  7  8  2  0  0  0
  7 26  1  0  0  0
  7 29  1  0  0  0
  8  9  1  0  0  0
  8 22  1  0  0  0
  9 10  1  0  0  0
  9 27  2  0  0  0
 10 11  2  0  0  0
 10 15  1  0  0  0
 11 12  1  0  0  0
 11 94  1  0  0  0
 12 13  2  0  0  0
 12 95  1  0  0  0
 13 14  1  0  0  0
 13 31  1  0  0  0
 14 15  2  0  0  0
 14 96  1  0  0  0
 15 97  1  0  0  0
 16 17  2  0  0  0
 16 21  1  0  0  0
 16 31  1  0  0  0
 17 18  1  0  0  0
 17 98  1  0  0  0
 18 19  2  0  0  0
 18 99  1  0  0  0
 19 20  1  0  0  0
 19 24  1  0  0  0
 20 21  2  0  0  0
 20100  1  0  0  0
 21 23  1  0  0  0
 22 28  1  0  0  0
 22 32  2  0  0  0
 26 27  1  0  0  0
 28101  1  0  0  0
 28102  1  0  0  0
 29103  1  0  0  0
 29104  1  0  0  0
 33 34  1  0  0  0
 33 66  1  0  0  0
 33 70  2  0  0  0
 34 36  1  0  0  0
 34 59  1  0  0  0
 34105  1  0  0  0
 35 44  2  0  0  0
 35 45  1  0  0  0
 35 68  1  0  0  0
 36 56  1  0  0  0
 36106  1  0  0  0
 37 39  1  0  0  0
 37 47  1  0  0  0
 37 66  1  0  0  0
 37107  1  0  0  0
 38 43  2  0  0  0
 38 46  1  0  0  0
 38 47  1  0  0  0
 39 64  1  0  0  0
 39 67  2  0  0  0
 40 52  1  0  0  0
 40 53  2  0  0  0
 40 58  1  0  0  0
 41108  1  0  0  0
 41109  1  0  0  0
 41110  1  0  0  0
 41 48  1  0  0  0
 42 43  1  0  0  0
 42 66  1  0  0  0
 42111  1  0  0  0
 42112  1  0  0  0
 43 44  1  0  0  0
 44113  1  0  0  0
 45 46  2  0  0  0
 45114  1  0  0  0
 46115  1  0  0  0
 47116  1  0  0  0
 47117  1  0  0  0
 48 56  1  0  0  0
 48 65  1  0  0  0
 48118  1  0  0  0
 49 50  1  0  0  0
 49 53  1  0  0  0
 49 64  1  0  0  0
 49119  1  0  0  0
 50 51  1  0  0  0
 50120  1  0  0  0
 50121  1  0  0  0
 51 52  1  0  0  0
 51122  1  0  0  0
 51123  1  0  0  0
 52124  1  0  0  0
 52125  1  0  0  0
 53 54  1  0  0  0
 54 55  2  0  0  0
 54126  1  0  0  0
 55 57  1  0  0  0
 55127  1  0  0  0
 56 69  2  0  0  0
 57 58  2  0  0  0
 57128  1  0  0  0
 58129  1  0  0  0
 59 60  1  0  0  0
 59 61  1  0  0  0
 59 62  1  0  0  0
 60130  1  0  0  0
 60131  1  0  0  0
 60132  1  0  0  0
 61133  1  0  0  0
 61134  1  0  0  0
 61135  1  0  0  0
 62136  1  0  0  0
 62137  1  0  0  0
 62138  1  0  0  0
 63 65  1  0  0  0
 63139  1  0  0  0
 63140  1  0  0  0
 63141  1  0  0  0
 64142  1  0  0  0
 65143  1  0  0  0
 68 78  1  0  0  0
 71 72  2  0  0  0
 71 73  1  0  0  0
 71144  1  0  0  0
 72 74  1  0  0  0
 72 79  1  0  0  0
 73 80  1  0  0  0
 73 81  2  0  0  0
 74 75  1  0  0  0
 74 82  2  0  0  0
 75145  1  0  0  0
 75146  1  0  0  0
 75147  1  0  0  0
 76148  1  0  0  0
 76149  1  0  0  0
 76150  1  0  0  0
 76 79  1  0  0  0
 77 80  1  0  0  0
 77 83  1  0  0  0
 77151  1  0  0  0
 77152  1  0  0  0
 78 79  1  0  0  0
 78153  1  0  0  0
 78154  1  0  0  0
 79155  1  0  0  0
 80 84  1  0  0  0
 80156  1  0  0  0
 81 82  1  0  0  0
 83157  1  0  0  0
 84158  1  0  0  0
 84159  1  0  0  0
 84160  1  0  0  0
M  CHG  1  84   1
M  ISO  4   1 100  68 101  78 101  83 100
M  END
> <chiral flag>
0

> <version>
0

> <s_m_source_file>
/data/baiqing/PycharmProjects/Reinvent-master-3.2/result/LINK_invent/BTK/process_docking_weight1_custom_sum_contain_oxygen_bond_distance_aromatic_linkinvent_7_9_3/rearranged_h_0094.sdf

> <i_m_source_file_index>
20

> <r_mmod_Potential_Energy-OPLS-2005>
-235.963409423828

> <r_mmod_Stretch_Energy-OPLS-2005>
111.677093505859

> <r_mmod_Bend_Energy-OPLS-2005>
153.773773193359

> <r_mmod_Torsional_Energy-OPLS-2005>
262.991851806641

> <r_mmod_Improper_Torsional_Energy-OPLS-2005>
5.68110752105713

> <r_mmod_Van_der_Waal_Energy-OPLS-2005>
141.821395874023

> <r_mmod_Electrostatic_Energy-OPLS-2005>
-405.154724121094

> <r_mmod_Solvation_Energy-OPLS-2005>
-569.989440917969

> <b_mmod_Minimization_Converged-OPLS-2005>
0

> <r_mmod_RMS_Derivative-OPLS-2005>
1.91023254394531

$$$$
20
                    3D
 Structure written by MMmdl.
153161  0  0  1  0            999 V2000
  -30.7407  -14.5127   20.6078 C   0  0  0  0  0  0
  -30.4574  -12.3655   19.4230 C   0  0  0  0  0  0
  -29.5194  -12.5474   18.2151 C   0  0  0  0  0  0
  -28.0402  -12.4041   18.6283 C   0  0  0  0  0  0
  -27.6825  -13.2312   19.8940 C   0  0  2  0  0  0
  -28.7243  -13.0475   21.0183 C   0  0  0  0  0  0
  -25.2685  -13.8223   20.5682 C   0  0  0  0  0  0
  -24.1942  -13.0490   20.9171 C   0  0  0  0  0  0
  -24.6500  -11.6940   20.8725 C   0  0  0  0  0  0
  -23.9146  -10.4344   21.0425 C   0  0  0  0  0  0
  -24.3696   -9.4239   21.9174 C   0  0  0  0  0  0
  -23.6335   -8.2281   22.0752 C   0  0  0  0  0  0
  -22.4297   -8.0364   21.3558 C   0  0  0  0  0  0
  -21.9984   -9.0334   20.4630 C   0  0  0  0  0  0
  -22.7342  -10.2179   20.3051 C   0  0  0  0  0  0
  -21.6868   -6.0762   22.5275 C   0  0  0  0  0  0
  -21.3995   -6.5649   23.8225 C   0  0  0  0  0  0
  -21.3667   -5.6792   24.9200 C   0  0  0  0  0  0
  -21.6058   -4.3059   24.7220 C   0  0  0  0  0  0
  -21.8822   -3.8153   23.4349 C   0  0  0  0  0  0
  -21.9197   -4.6977   22.3421 C   0  0  0  0  0  0
  -22.7940  -13.5271   21.1825 C   0  0  0  0  0  0
  -22.1678   -4.2190   21.0983 F   0  0  0  0  0  0
  -21.5655   -3.4539   25.7725 F   0  0  0  0  0  0
  -30.0591  -13.3392   20.4592 N   0  0  0  0  0  0
  -26.3202  -12.9439   20.3510 N   0  0  0  0  0  0
  -25.9476  -11.6570   20.5778 N   0  0  0  0  0  0
  -22.0520  -12.8290   22.0347 N   0  0  0  0  0  0
  -25.4355  -15.1930   20.4046 N   0  0  0  0  0  0
  -31.8215  -14.7225   20.0476 O   0  0  0  0  0  0
  -21.6662   -6.8926   21.4250 O   0  0  0  0  0  0
  -22.3637  -14.5593   20.6673 O   0  0  0  0  0  0
  -24.6174  -31.8650   23.2159 C   0  0  0  0  0  0
  -25.9052  -32.4815   23.8486 C   0  0  1  0  0  0
  -27.2191  -27.4137   20.0538 C   0  0  0  0  0  0
  -25.5906  -33.8616   24.2374 N   0  0  0  0  0  0
  -23.4021  -30.5057   21.5484 C   0  0  2  0  0  0
  -24.8444  -28.9722   20.1133 C   0  0  0  0  0  0
  -22.7261  -29.4799   22.4885 C   0  0  0  0  0  0
  -18.0129  -28.1496   22.8666 C   0  0  0  0  0  0
  -24.1494  -36.7303   23.2636 C   0  0  0  0  0  0
  -25.9429  -30.8173   21.3784 C   0  0  0  0  0  0
  -26.0128  -29.4575   20.7144 C   0  0  0  0  0  0
  -27.2036  -28.6858   20.6868 C   0  0  0  0  0  0
  -26.0287  -26.9637   19.4379 C   0  0  0  0  0  0
  -24.8474  -27.7206   19.4761 C   0  0  0  0  0  0
  -23.6204  -29.8527   20.1617 C   0  0  0  0  0  0
  -25.4120  -36.3087   24.0331 C   0  0  1  0  0  0
  -20.5694  -28.3887   23.1220 C   0  0  2  0  0  0
  -20.6528  -26.9568   22.5548 C   0  0  0  0  0  0
  -19.5404  -26.6426   21.5460 C   0  0  0  0  0  0
  -18.1762  -26.7896   22.2165 C   0  0  0  0  0  0
  -19.1361  -28.9066   23.2928 C   0  0  0  0  0  0
  -18.9257  -30.1654   23.9017 C   0  0  0  0  0  0
  -17.6251  -30.6731   24.0687 C   0  0  0  0  0  0
  -25.9039  -34.9461   23.5153 C   0  0  0  0  0  0
  -16.5183  -29.9282   23.6272 C   0  0  0  0  0  0
  -16.7139  -28.6682   23.0385 C   0  0  0  0  0  0
  -26.4482  -31.6581   25.0819 C   0  0  0  0  0  0
  -25.3739  -31.3687   26.1556 C   0  0  0  0  0  0
  -27.0363  -30.3067   24.6176 C   0  0  0  0  0  0
  -27.6077  -32.4295   25.7557 C   0  0  0  0  0  0
  -27.5576  -37.1813   24.8470 C   0  0  0  0  0  0
  -21.4014  -29.3050   22.3412 N   0  0  0  0  0  0
  -26.4314  -37.3768   23.9414 N   0  0  0  0  0  0
  -24.6751  -31.0757   22.1076 N   0  0  0  0  0  0
  -23.3928  -28.8411   23.3039 O   0  0  0  0  0  0
  -28.3778  -26.6482   20.0414 O   0  0  0  0  0  0
  -26.5564  -34.8902   22.4682 O   0  0  0  0  0  0
  -23.5388  -32.1448   23.7529 O   0  0  0  0  0  0
  -29.0406  -18.7520   21.9266 C   0  0  0  0  0  0
  -30.0220  -18.0529   21.1797 C   0  0  0  0  0  0
  -29.1192  -20.4390   20.3658 C   0  0  0  0  0  0
  -30.7473  -16.7878   21.6821 C   0  0  0  0  0  0
  -28.7583  -21.8628   19.8926 C   0  0  0  0  0  0
  -29.1245  -22.9855   20.9070 C   0  0  0  0  0  0
  -29.4253  -24.4192   20.3410 C   0  0  0  0  0  0
  -28.2546  -25.2331   19.7282 C   0  0  0  0  0  0
  -28.5722  -19.9616   21.4969 N   0  0  0  0  0  0
  -30.4842  -18.5914   20.0193 N   0  0  0  0  0  0
  -30.0357  -19.7884   19.6224 N   0  0  0  0  0  0
  -30.1547  -15.4792   21.3476 N   0  0  0  0  0  0
  -31.4816  -12.5209   19.0780 H   0  0  0  0  0  0
  -30.4178  -11.3489   19.8119 H   0  0  0  0  0  0
  -29.7658  -11.8300   17.4294 H   0  0  0  0  0  0
  -29.6990  -13.5384   17.7920 H   0  0  0  0  0  0
  -27.8493  -11.3482   18.7993 H   0  0  0  0  0  0
  -27.4039  -12.7137   17.8029 H   0  0  0  0  0  0
  -27.7211  -14.2854   19.6236 H   0  0  0  0  0  0
  -28.7016  -12.0449   21.4483 H   0  0  0  0  0  0
  -28.4675  -13.7265   21.8352 H   0  0  0  0  0  0
  -25.2853   -9.5712   22.4766 H   0  0  0  0  0  0
  -24.0058   -7.4670   22.7494 H   0  0  0  0  0  0
  -21.0932   -8.8870   19.8933 H   0  0  0  0  0  0
  -22.3830  -10.9742   19.6173 H   0  0  0  0  0  0
  -21.1919   -7.6148   23.9747 H   0  0  0  0  0  0
  -21.1507   -6.0503   25.9097 H   0  0  0  0  0  0
  -22.0565   -2.7631   23.2826 H   0  0  0  0  0  0
  -22.4076  -11.9955   22.4824 H   0  0  0  0  0  0
  -21.1074  -13.1292   22.2394 H   0  0  0  0  0  0
  -24.6573  -15.8400   20.4555 H   0  0  0  0  0  0
  -26.2885  -15.6343   20.0800 H   0  0  0  0  0  0
  -26.7109  -32.5565   23.1234 H   0  0  0  0  0  0
  -25.0203  -33.9816   25.0632 H   0  0  0  0  0  0
  -22.7023  -31.3318   21.4147 H   0  0  0  0  0  0
  -23.3743  -35.9646   23.3331 H   0  0  0  0  0  0
  -24.3573  -36.8917   22.2038 H   0  0  0  0  0  0
  -23.7245  -37.6528   23.6650 H   0  0  0  0  0  0
  -26.0661  -31.5832   20.6130 H   0  0  0  0  0  0
  -26.8301  -30.8639   22.0029 H   0  0  0  0  0  0
  -28.1027  -29.0516   21.1578 H   0  0  0  0  0  0
  -25.9912  -26.0273   18.9020 H   0  0  0  0  0  0
  -23.9518  -27.3510   18.9945 H   0  0  0  0  0  0
  -23.7546  -30.6466   19.4227 H   0  0  0  0  0  0
  -22.7392  -29.2931   19.8381 H   0  0  0  0  0  0
  -25.1276  -36.1977   25.0826 H   0  0  0  0  0  0
  -20.9824  -28.3688   24.1358 H   0  0  0  0  0  0
  -20.5322  -26.2702   23.3958 H   0  0  0  0  0  0
  -21.6430  -26.7528   22.1403 H   0  0  0  0  0  0
  -19.6547  -25.6313   21.1605 H   0  0  0  0  0  0
  -19.5871  -27.3201   20.6920 H   0  0  0  0  0  0
  -17.3750  -26.6214   21.4980 H   0  0  0  0  0  0
  -18.0469  -26.0330   22.9917 H   0  0  0  0  0  0
  -19.7652  -30.7534   24.2542 H   0  0  0  0  0  0
  -17.4717  -31.6354   24.5405 H   0  0  0  0  0  0
  -15.5205  -30.3212   23.7574 H   0  0  0  0  0  0
  -15.8570  -28.0882   22.7237 H   0  0  0  0  0  0
  -24.5884  -30.7058   25.7881 H   0  0  0  0  0  0
  -24.8969  -32.2871   26.5023 H   0  0  0  0  0  0
  -25.8075  -30.8841   27.0308 H   0  0  0  0  0  0
  -26.2967  -29.6782   24.1215 H   0  0  0  0  0  0
  -27.4197  -29.7298   25.4588 H   0  0  0  0  0  0
  -27.8736  -30.4473   23.9334 H   0  0  0  0  0  0
  -27.2723  -33.3583   26.2170 H   0  0  0  0  0  0
  -28.3858  -32.6851   25.0347 H   0  0  0  0  0  0
  -28.0763  -31.8406   26.5446 H   0  0  0  0  0  0
  -28.2593  -38.0101   24.7470 H   0  0  0  0  0  0
  -28.1066  -36.2622   24.6357 H   0  0  0  0  0  0
  -27.2288  -37.1516   25.8874 H   0  0  0  0  0  0
  -20.9330  -29.7918   21.5869 H   0  0  0  0  0  0
  -26.0190  -38.2872   24.1384 H   0  0  0  0  0  0
  -28.6811  -18.3716   22.8711 H   0  0  0  0  0  0
  -31.7601  -16.8388   21.2796 H   0  0  0  0  0  0
  -30.8857  -16.8450   22.7671 H   0  0  0  0  0  0
  -27.7129  -21.9273   19.5839 H   0  0  0  0  0  0
  -29.3372  -22.0455   18.9892 H   0  0  0  0  0  0
  -30.0366  -22.6603   21.4138 H   0  0  0  0  0  0
  -28.3647  -23.0246   21.6939 H   0  0  0  0  0  0
  -30.2461  -24.3847   19.6223 H   0  0  0  0  0  0
  -29.8036  -25.0068   21.1787 H   0  0  0  0  0  0
  -27.3233  -24.8162   20.1247 H   0  0  0  0  0  0
  -28.2427  -25.0861   18.6404 H   0  0  0  0  0  0
  -29.2448  -15.2905   21.7383 H   0  0  0  0  0  0
  1 25  1  0  0  0
  1 30  2  0  0  0
  1 82  1  0  0  0
  2  3  1  0  0  0
  2 25  1  0  0  0
  2 83  1  0  0  0
  2 84  1  0  0  0
  3  4  1  0  0  0
  3 85  1  0  0  0
  3 86  1  0  0  0
  4  5  1  0  0  0
  4 87  1  0  0  0
  4 88  1  0  0  0
  5  6  1  0  0  0
  5 26  1  0  0  0
  5 89  1  0  0  0
  6 25  1  0  0  0
  6 90  1  0  0  0
  6 91  1  0  0  0
  7  8  2  0  0  0
  7 26  1  0  0  0
  7 29  1  0  0  0
  8  9  1  0  0  0
  8 22  1  0  0  0
  9 10  1  0  0  0
  9 27  2  0  0  0
 10 11  2  0  0  0
 10 15  1  0  0  0
 11 12  1  0  0  0
 11 92  1  0  0  0
 12 13  2  0  0  0
 12 93  1  0  0  0
 13 14  1  0  0  0
 13 31  1  0  0  0
 14 15  2  0  0  0
 14 94  1  0  0  0
 15 95  1  0  0  0
 16 17  2  0  0  0
 16 21  1  0  0  0
 16 31  1  0  0  0
 17 18  1  0  0  0
 17 96  1  0  0  0
 18 19  2  0  0  0
 18 97  1  0  0  0
 19 20  1  0  0  0
 19 24  1  0  0  0
 20 21  2  0  0  0
 20 98  1  0  0  0
 21 23  1  0  0  0
 22 28  1  0  0  0
 22 32  2  0  0  0
 26 27  1  0  0  0
 28 99  1  0  0  0
 28100  1  0  0  0
 29101  1  0  0  0
 29102  1  0  0  0
 33 34  1  0  0  0
 33 66  1  0  0  0
 33 70  2  0  0  0
 34 36  1  0  0  0
 34 59  1  0  0  0
 34103  1  0  0  0
 35 44  2  0  0  0
 35 45  1  0  0  0
 35 68  1  0  0  0
 36 56  1  0  0  0
 36104  1  0  0  0
 37 39  1  0  0  0
 37 47  1  0  0  0
 37 66  1  0  0  0
 37105  1  0  0  0
 38 43  2  0  0  0
 38 46  1  0  0  0
 38 47  1  0  0  0
 39 64  1  0  0  0
 39 67  2  0  0  0
 40 52  1  0  0  0
 40 53  2  0  0  0
 40 58  1  0  0  0
 41106  1  0  0  0
 41107  1  0  0  0
 41108  1  0  0  0
 41 48  1  0  0  0
 42 43  1  0  0  0
 42 66  1  0  0  0
 42109  1  0  0  0
 42110  1  0  0  0
 43 44  1  0  0  0
 44111  1  0  0  0
 45 46  2  0  0  0
 45112  1  0  0  0
 46113  1  0  0  0
 47114  1  0  0  0
 47115  1  0  0  0
 48 56  1  0  0  0
 48 65  1  0  0  0
 48116  1  0  0  0
 49 50  1  0  0  0
 49 53  1  0  0  0
 49 64  1  0  0  0
 49117  1  0  0  0
 50 51  1  0  0  0
 50118  1  0  0  0
 50119  1  0  0  0
 51 52  1  0  0  0
 51120  1  0  0  0
 51121  1  0  0  0
 52122  1  0  0  0
 52123  1  0  0  0
 53 54  1  0  0  0
 54 55  2  0  0  0
 54124  1  0  0  0
 55 57  1  0  0  0
 55125  1  0  0  0
 56 69  2  0  0  0
 57 58  2  0  0  0
 57126  1  0  0  0
 58127  1  0  0  0
 59 60  1  0  0  0
 59 61  1  0  0  0
 59 62  1  0  0  0
 60128  1  0  0  0
 60129  1  0  0  0
 60130  1  0  0  0
 61131  1  0  0  0
 61132  1  0  0  0
 61133  1  0  0  0
 62134  1  0  0  0
 62135  1  0  0  0
 62136  1  0  0  0
 63 65  1  0  0  0
 63137  1  0  0  0
 63138  1  0  0  0
 63139  1  0  0  0
 64140  1  0  0  0
 65141  1  0  0  0
 68 78  1  0  0  0
 71 72  2  0  0  0
 71 79  1  0  0  0
 71142  1  0  0  0
 72 74  1  0  0  0
 72 80  1  0  0  0
 73 75  1  0  0  0
 73 79  2  0  0  0
 73 81  1  0  0  0
 74 82  1  0  0  0
 74143  1  0  0  0
 74144  1  0  0  0
 75 76  1  0  0  0
 75145  1  0  0  0
 75146  1  0  0  0
 76 77  1  0  0  0
 76147  1  0  0  0
 76148  1  0  0  0
 77 78  1  0  0  0
 77149  1  0  0  0
 77150  1  0  0  0
 78151  1  0  0  0
 78152  1  0  0  0
 80 81  2  0  0  0
 82153  1  0  0  0
M  ISO  4   1 100  68 101  78 101  82 100
M  END
> <chiral flag>
0

> <version>
0

> <s_m_source_file>
/data/baiqing/PycharmProjects/Reinvent-master-3.2/result/LINK_invent/BTK/process_docking_weight1_custom_sum_contain_oxygen_bond_distance_aromatic_linkinvent_7_9_3/rearranged_h_0094.sdf

> <i_m_source_file_index>
21

> <r_mmod_Potential_Energy-OPLS-2005>
-85.3468780517578

> <r_mmod_Stretch_Energy-OPLS-2005>
49.8137588500977

> <r_mmod_Bend_Energy-OPLS-2005>
111.947906494141

> <r_mmod_Torsional_Energy-OPLS-2005>
197.372482299805

> <r_mmod_Improper_Torsional_Energy-OPLS-2005>
3.11455631256104

> <r_mmod_Van_der_Waal_Energy-OPLS-2005>
166.712173461914

> <r_mmod_Electrostatic_Energy-OPLS-2005>
-387.626129150391

> <r_mmod_Solvation_Energy-OPLS-2005>
-246.778991699219

> <b_mmod_Minimization_Converged-OPLS-2005>
0

> <r_mmod_RMS_Derivative-OPLS-2005>
10.2597646713257

$$$$
21
                    3D
 Structure written by MMmdl.
155162  0  0  1  0            999 V2000
  -30.5683  -14.8706   20.4251 C   0  0  0  0  0  0
  -30.4319  -12.5356   19.4867 C   0  0  0  0  0  0
  -29.5202  -12.5399   18.2416 C   0  0  0  0  0  0
  -28.0472  -12.3430   18.6507 C   0  0  0  0  0  0
  -27.6351  -13.2447   19.8465 C   0  0  2  0  0  0
  -28.6792  -13.2319   20.9827 C   0  0  0  0  0  0
  -25.2507  -13.8219   20.5715 C   0  0  0  0  0  0
  -24.1806  -13.0454   20.9244 C   0  0  0  0  0  0
  -24.6410  -11.6932   20.8770 C   0  0  0  0  0  0
  -23.9083  -10.4296   21.0427 C   0  0  0  0  0  0
  -24.3641   -9.4208   21.9185 C   0  0  0  0  0  0
  -23.6327   -8.2237   22.0746 C   0  0  0  0  0  0
  -22.4303   -8.0277   21.3540 C   0  0  0  0  0  0
  -21.9942   -9.0244   20.4630 C   0  0  0  0  0  0
  -22.7271  -10.2126   20.3060 C   0  0  0  0  0  0
  -21.6850   -6.0757   22.5309 C   0  0  0  0  0  0
  -21.3999   -6.5656   23.8237 C   0  0  0  0  0  0
  -21.3650   -5.6815   24.9208 C   0  0  0  0  0  0
  -21.6042   -4.3075   24.7258 C   0  0  0  0  0  0
  -21.8808   -3.8171   23.4374 C   0  0  0  0  0  0
  -21.9182   -4.6991   22.3427 C   0  0  0  0  0  0
  -22.7827  -13.5228   21.1916 C   0  0  0  0  0  0
  -22.1668   -4.2181   21.1003 F   0  0  0  0  0  0
  -21.5643   -3.4536   25.7763 F   0  0  0  0  0  0
  -29.9613  -13.6229   20.3857 N   0  0  0  0  0  0
  -26.2918  -12.9430   20.3287 N   0  0  0  0  0  0
  -25.9338  -11.6561   20.5746 N   0  0  0  0  0  0
  -22.0464  -12.8183   22.0449 N   0  0  0  0  0  0
  -25.4195  -15.1945   20.4108 N   0  0  0  0  0  0
  -31.7682  -14.9396   20.1434 O   0  0  0  0  0  0
  -21.6658   -6.8883   21.4263 O   0  0  0  0  0  0
  -22.3496  -14.5523   20.6766 O   0  0  0  0  0  0
  -24.6423  -31.8451   23.1915 C   0  0  0  0  0  0
  -25.9203  -32.4691   23.8286 C   0  0  1  0  0  0
  -27.2063  -27.1515   20.1500 C   0  0  0  0  0  0
  -25.5950  -33.8500   24.2193 N   0  0  0  0  0  0
  -23.4422  -30.4696   21.5372 C   0  0  2  0  0  0
  -24.8877  -28.8990   20.1132 C   0  0  0  0  0  0
  -22.7551  -29.4568   22.4878 C   0  0  0  0  0  0
  -18.0286  -28.1372   22.8501 C   0  0  0  0  0  0
  -24.1493  -36.7268   23.2640 C   0  0  0  0  0  0
  -25.9977  -30.7265   21.3858 C   0  0  0  0  0  0
  -26.0660  -29.3380   20.7303 C   0  0  0  0  0  0
  -27.2280  -28.4804   20.7307 C   0  0  0  0  0  0
  -26.0026  -26.8148   19.4901 C   0  0  0  0  0  0
  -24.8687  -27.6518   19.4767 C   0  0  0  0  0  0
  -23.6656  -29.8016   20.1548 C   0  0  0  0  0  0
  -25.4121  -36.3036   24.0320 C   0  0  1  0  0  0
  -20.5901  -28.3708   23.1251 C   0  0  2  0  0  0
  -20.6766  -26.9417   22.5406 C   0  0  0  0  0  0
  -19.5733  -26.6372   21.5218 C   0  0  0  0  0  0
  -18.1919  -26.7914   22.1637 C   0  0  0  0  0  0
  -19.1545  -28.8852   23.2872 C   0  0  0  0  0  0
  -18.9464  -30.1448   23.8887 C   0  0  0  0  0  0
  -17.6467  -30.6582   24.0549 C   0  0  0  0  0  0
  -25.9078  -34.9404   23.5070 C   0  0  0  0  0  0
  -16.5356  -29.9078   23.6329 C   0  0  0  0  0  0
  -16.7275  -28.6487   23.0379 C   0  0  0  0  0  0
  -26.4494  -31.6549   25.0720 C   0  0  0  0  0  0
  -25.3691  -31.3744   26.1429 C   0  0  0  0  0  0
  -27.0321  -30.2934   24.6288 C   0  0  0  0  0  0
  -27.6014  -32.4303   25.7539 C   0  0  0  0  0  0
  -27.5582  -37.1796   24.8455 C   0  0  0  0  0  0
  -21.4241  -29.3053   22.3634 N   0  0  0  0  0  0
  -26.4280  -37.3756   23.9418 N   0  0  0  0  0  0
  -24.7143  -31.0335   22.0936 N   0  0  0  0  0  0
  -23.4204  -28.8098   23.3002 O   0  0  0  0  0  0
  -28.2627  -26.1756   20.1978 O   0  0  0  0  0  0
  -26.5671  -34.8910   22.4649 O   0  0  0  0  0  0
  -23.5545  -32.1312   23.7167 O   0  0  0  0  0  0
  -30.8153  -20.6997   21.1637 C   0  0  0  0  0  0
  -30.1551  -20.5275   18.7490 C   0  0  0  0  0  0
  -29.0243  -23.3792   20.2267 C   0  0  0  0  0  0
  -28.5987  -21.7589   20.3773 C   0  0  0  0  0  0
  -29.1696  -18.8643   20.4513 C   0  0  0  0  0  0
  -30.2133  -17.5540   20.3871 C   0  0  0  0  0  0
  -27.9526  -24.6567   20.2990 C   0  0  0  0  0  0
  -29.6403  -20.4575   20.2011 C   0  0  0  0  0  0
  -29.8037  -16.0496   20.5642 N   0  0  0  0  0  0
  -31.4742  -12.6669   19.1913 H   0  0  0  0  0  0
  -30.3869  -11.5694   19.9907 H   0  0  0  0  0  0
  -29.8247  -11.7635   17.5395 H   0  0  0  0  0  0
  -29.6342  -13.4894   17.7145 H   0  0  0  0  0  0
  -27.9202  -11.2943   18.9178 H   0  0  0  0  0  0
  -27.3927  -12.5241   17.7968 H   0  0  0  0  0  0
  -27.6118  -14.2583   19.4502 H   0  0  0  0  0  0
  -28.7476  -12.2452   21.4444 H   0  0  0  0  0  0
  -28.3972  -13.9243   21.7780 H   0  0  0  0  0  0
  -25.2777   -9.5723   22.4768 H   0  0  0  0  0  0
  -24.0069   -7.4622   22.7446 H   0  0  0  0  0  0
  -21.0889   -8.8761   19.8893 H   0  0  0  0  0  0
  -22.3748  -10.9676   19.6177 H   0  0  0  0  0  0
  -21.1961   -7.6154   23.9765 H   0  0  0  0  0  0
  -21.1499   -6.0538   25.9120 H   0  0  0  0  0  0
  -22.0580   -2.7637   23.2879 H   0  0  0  0  0  0
  -22.4093  -11.9848   22.4840 H   0  0  0  0  0  0
  -21.1057  -13.1160   22.2584 H   0  0  0  0  0  0
  -24.6473  -15.8453   20.5014 H   0  0  0  0  0  0
  -26.2583  -15.6331   20.0494 H   0  0  0  0  0  0
  -26.7277  -32.5287   23.1029 H   0  0  0  0  0  0
  -25.0003  -33.9616   25.0275 H   0  0  0  0  0  0
  -22.7450  -31.2965   21.3883 H   0  0  0  0  0  0
  -23.3758  -35.9591   23.3242 H   0  0  0  0  0  0
  -24.3586  -36.8962   22.2067 H   0  0  0  0  0  0
  -23.7255  -37.6456   23.6702 H   0  0  0  0  0  0
  -26.1489  -31.4793   20.6102 H   0  0  0  0  0  0
  -26.8710  -30.7774   22.0236 H   0  0  0  0  0  0
  -28.1249  -28.8114   21.2353 H   0  0  0  0  0  0
  -25.8956  -25.8733   18.9755 H   0  0  0  0  0  0
  -23.9716  -27.3106   18.9774 H   0  0  0  0  0  0
  -23.8005  -30.5780   19.4011 H   0  0  0  0  0  0
  -22.7779  -29.2471   19.8457 H   0  0  0  0  0  0
  -25.1315  -36.1850   25.0815 H   0  0  0  0  0  0
  -21.0001  -28.3281   24.1374 H   0  0  0  0  0  0
  -20.5647  -26.2328   23.3631 H   0  0  0  0  0  0
  -21.6634  -26.7404   22.1226 H   0  0  0  0  0  0
  -19.6895  -25.6278   21.1261 H   0  0  0  0  0  0
  -19.6662  -27.3168   20.6739 H   0  0  0  0  0  0
  -17.4204  -26.6678   21.4034 H   0  0  0  0  0  0
  -18.0304  -26.0045   22.9015 H   0  0  0  0  0  0
  -19.7938  -30.7261   24.2269 H   0  0  0  0  0  0
  -17.5016  -31.6271   24.5128 H   0  0  0  0  0  0
  -15.5348  -30.2981   23.7632 H   0  0  0  0  0  0
  -15.8684  -28.0784   22.7119 H   0  0  0  0  0  0
  -24.5902  -30.7034   25.7786 H   0  0  0  0  0  0
  -24.8825  -32.2912   26.4764 H   0  0  0  0  0  0
  -25.7994  -30.9017   27.0268 H   0  0  0  0  0  0
  -26.2903  -29.6712   24.1262 H   0  0  0  0  0  0
  -27.3871  -29.7190   25.4856 H   0  0  0  0  0  0
  -27.8849  -30.4137   23.9606 H   0  0  0  0  0  0
  -27.2573  -33.3608   26.2073 H   0  0  0  0  0  0
  -28.3865  -32.6864   25.0414 H   0  0  0  0  0  0
  -28.0620  -31.8455   26.5520 H   0  0  0  0  0  0
  -28.2556  -38.0132   24.7538 H   0  0  0  0  0  0
  -28.1119  -36.2669   24.6211 H   0  0  0  0  0  0
  -27.2305  -37.1366   25.8855 H   0  0  0  0  0  0
  -20.9419  -29.8823   21.6888 H   0  0  0  0  0  0
  -26.0134  -38.2815   24.1421 H   0  0  0  0  0  0
  -31.2482  -21.6930   21.0438 H   0  0  0  0  0  0
  -31.6231  -19.9881   20.9972 H   0  0  0  0  0  0
  -30.4941  -20.6047   22.2017 H   0  0  0  0  0  0
  -30.5663  -21.5088   18.5115 H   0  0  0  0  0  0
  -29.3508  -20.3314   18.0367 H   0  0  0  0  0  0
  -30.9455  -19.7991   18.5636 H   0  0  0  0  0  0
  -29.5451  -23.4800   19.2741 H   0  0  0  0  0  0
  -29.7894  -23.5739   20.9782 H   0  0  0  0  0  0
  -27.7768  -21.5915   19.6786 H   0  0  0  0  0  0
  -28.1313  -21.6531   21.3569 H   0  0  0  0  0  0
  -28.6891  -18.8305   21.4287 H   0  0  0  0  0  0
  -28.3598  -18.6595   19.7495 H   0  0  0  0  0  0
  -30.9982  -17.7284   21.1252 H   0  0  0  0  0  0
  -30.7300  -17.6016   19.4266 H   0  0  0  0  0  0
  -27.4219  -24.5470   21.2466 H   0  0  0  0  0  0
  -27.2169  -24.4075   19.5389 H   0  0  0  0  0  0
  -28.8289  -15.8882   20.7707 H   0  0  0  0  0  0
  1 25  1  0  0  0
  1 30  2  0  0  0
  1 79  1  0  0  0
  2  3  1  0  0  0
  2 25  1  0  0  0
  2 80  1  0  0  0
  2 81  1  0  0  0
  3  4  1  0  0  0
  3 82  1  0  0  0
  3 83  1  0  0  0
  4  5  1  0  0  0
  4 84  1  0  0  0
  4 85  1  0  0  0
  5  6  1  0  0  0
  5 26  1  0  0  0
  5 86  1  0  0  0
  6 25  1  0  0  0
  6 87  1  0  0  0
  6 88  1  0  0  0
  7  8  2  0  0  0
  7 26  1  0  0  0
  7 29  1  0  0  0
  8  9  1  0  0  0
  8 22  1  0  0  0
  9 10  1  0  0  0
  9 27  2  0  0  0
 10 11  2  0  0  0
 10 15  1  0  0  0
 11 12  1  0  0  0
 11 89  1  0  0  0
 12 13  2  0  0  0
 12 90  1  0  0  0
 13 14  1  0  0  0
 13 31  1  0  0  0
 14 15  2  0  0  0
 14 91  1  0  0  0
 15 92  1  0  0  0
 16 17  2  0  0  0
 16 21  1  0  0  0
 16 31  1  0  0  0
 17 18  1  0  0  0
 17 93  1  0  0  0
 18 19  2  0  0  0
 18 94  1  0  0  0
 19 20  1  0  0  0
 19 24  1  0  0  0
 20 21  2  0  0  0
 20 95  1  0  0  0
 21 23  1  0  0  0
 22 28  1  0  0  0
 22 32  2  0  0  0
 26 27  1  0  0  0
 28 96  1  0  0  0
 28 97  1  0  0  0
 29 98  1  0  0  0
 29 99  1  0  0  0
 33 34  1  0  0  0
 33 66  1  0  0  0
 33 70  2  0  0  0
 34 36  1  0  0  0
 34 59  1  0  0  0
 34100  1  0  0  0
 35 44  2  0  0  0
 35 45  1  0  0  0
 35 68  1  0  0  0
 36 56  1  0  0  0
 36101  1  0  0  0
 37 39  1  0  0  0
 37 47  1  0  0  0
 37 66  1  0  0  0
 37102  1  0  0  0
 38 43  2  0  0  0
 38 46  1  0  0  0
 38 47  1  0  0  0
 39 64  1  0  0  0
 39 67  2  0  0  0
 40 52  1  0  0  0
 40 53  2  0  0  0
 40 58  1  0  0  0
 41103  1  0  0  0
 41104  1  0  0  0
 41105  1  0  0  0
 41 48  1  0  0  0
 42 43  1  0  0  0
 42 66  1  0  0  0
 42106  1  0  0  0
 42107  1  0  0  0
 43 44  1  0  0  0
 44108  1  0  0  0
 45 46  2  0  0  0
 45109  1  0  0  0
 46110  1  0  0  0
 47111  1  0  0  0
 47112  1  0  0  0
 48 56  1  0  0  0
 48 65  1  0  0  0
 48113  1  0  0  0
 49 50  1  0  0  0
 49 53  1  0  0  0
 49 64  1  0  0  0
 49114  1  0  0  0
 50 51  1  0  0  0
 50115  1  0  0  0
 50116  1  0  0  0
 51 52  1  0  0  0
 51117  1  0  0  0
 51118  1  0  0  0
 52119  1  0  0  0
 52120  1  0  0  0
 53 54  1  0  0  0
 54 55  2  0  0  0
 54121  1  0  0  0
 55 57  1  0  0  0
 55122  1  0  0  0
 56 69  2  0  0  0
 57 58  2  0  0  0
 57123  1  0  0  0
 58124  1  0  0  0
 59 60  1  0  0  0
 59 61  1  0  0  0
 59 62  1  0  0  0
 60125  1  0  0  0
 60126  1  0  0  0
 60127  1  0  0  0
 61128  1  0  0  0
 61129  1  0  0  0
 61130  1  0  0  0
 62131  1  0  0  0
 62132  1  0  0  0
 62133  1  0  0  0
 63 65  1  0  0  0
 63134  1  0  0  0
 63135  1  0  0  0
 63136  1  0  0  0
 64137  1  0  0  0
 65138  1  0  0  0
 68 77  1  0  0  0
 71139  1  0  0  0
 71140  1  0  0  0
 71141  1  0  0  0
 71 78  1  0  0  0
 72 78  1  0  0  0
 72142  1  0  0  0
 72143  1  0  0  0
 72144  1  0  0  0
 73 74  1  0  0  0
 73 77  1  0  0  0
 73145  1  0  0  0
 73146  1  0  0  0
 74 78  1  0  0  0
 74147  1  0  0  0
 74148  1  0  0  0
 75 76  1  0  0  0
 75 78  1  0  0  0
 75149  1  0  0  0
 75150  1  0  0  0
 76 79  1  0  0  0
 76151  1  0  0  0
 76152  1  0  0  0
 77153  1  0  0  0
 77154  1  0  0  0
 79155  1  0  0  0
M  ISO  4   1 100  68 101  77 101  79 100
M  END
> <chiral flag>
0

> <version>
0

> <s_m_source_file>
/data/baiqing/PycharmProjects/Reinvent-master-3.2/result/LINK_invent/BTK/process_docking_weight1_custom_sum_contain_oxygen_bond_distance_aromatic_linkinvent_7_9_3/rearranged_h_0094.sdf

> <i_m_source_file_index>
22

> <r_mmod_Potential_Energy-OPLS-2005>
404.389282226562

> <r_mmod_Stretch_Energy-OPLS-2005>
239.965286254883

> <r_mmod_Bend_Energy-OPLS-2005>
236.32780456543

> <r_mmod_Torsional_Energy-OPLS-2005>
219.075286865234

> <r_mmod_Improper_Torsional_Energy-OPLS-2005>
4.68228006362915

> <r_mmod_Van_der_Waal_Energy-OPLS-2005>
115.787246704102

> <r_mmod_Electrostatic_Energy-OPLS-2005>
-368.7998046875

> <r_mmod_Solvation_Energy-OPLS-2005>
-199.86328125

> <b_mmod_Minimization_Converged-OPLS-2005>
0

> <r_mmod_RMS_Derivative-OPLS-2005>
3.26800227165222

$$$$
22
                    3D
 Structure written by MMmdl.
160168  0  0  1  0            999 V2000
  -30.7030  -14.4315   20.6166 C   0  0  0  0  0  0
  -30.4279  -12.2940   19.4146 C   0  0  0  0  0  0
  -29.4956  -12.5110   18.2043 C   0  0  0  0  0  0
  -28.0167  -12.3693   18.6160 C   0  0  0  0  0  0
  -27.6672  -13.1960   19.8823 C   0  0  2  0  0  0
  -28.7051  -12.9437   20.9996 C   0  0  0  0  0  0
  -25.2626  -13.8138   20.5682 C   0  0  0  0  0  0
  -24.1860  -13.0429   20.9163 C   0  0  0  0  0  0
  -24.6392  -11.6890   20.8719 C   0  0  0  0  0  0
  -23.9054  -10.4285   21.0400 C   0  0  0  0  0  0
  -24.3609   -9.4205   21.9181 C   0  0  0  0  0  0
  -23.6289   -8.2239   22.0751 C   0  0  0  0  0  0
  -22.4274   -8.0277   21.3537 C   0  0  0  0  0  0
  -21.9903   -9.0248   20.4640 C   0  0  0  0  0  0
  -22.7221  -10.2131   20.3053 C   0  0  0  0  0  0
  -21.6856   -6.0736   22.5279 C   0  0  0  0  0  0
  -21.4013   -6.5644   23.8209 C   0  0  0  0  0  0
  -21.3659   -5.6797   24.9170 C   0  0  0  0  0  0
  -21.6045   -4.3060   24.7225 C   0  0  0  0  0  0
  -21.8818   -3.8149   23.4346 C   0  0  0  0  0  0
  -21.9194   -4.6964   22.3402 C   0  0  0  0  0  0
  -22.7891  -13.5243   21.1837 C   0  0  0  0  0  0
  -22.1665   -4.2152   21.0979 F   0  0  0  0  0  0
  -21.5625   -3.4541   25.7736 F   0  0  0  0  0  0
  -30.0438  -13.2534   20.4601 N   0  0  0  0  0  0
  -26.3050  -12.9285   20.3383 N   0  0  0  0  0  0
  -25.9318  -11.6450   20.5755 N   0  0  0  0  0  0
  -22.0536  -12.8233   22.0398 N   0  0  0  0  0  0
  -25.4385  -15.1851   20.4099 N   0  0  0  0  0  0
  -31.7872  -14.6847   20.0824 O   0  0  0  0  0  0
  -21.6636   -6.8878   21.4241 O   0  0  0  0  0  0
  -22.3578  -14.5552   20.6692 O   0  0  0  0  0  0
  -24.6116  -31.8701   23.2097 C   0  0  0  0  0  0
  -25.9017  -32.4831   23.8394 C   0  0  1  0  0  0
  -27.2441  -27.4588   20.0960 C   0  0  0  0  0  0
  -25.5885  -33.8626   24.2340 N   0  0  0  0  0  0
  -23.4000  -30.4924   21.5490 C   0  0  2  0  0  0
  -24.8503  -28.9550   20.1176 C   0  0  0  0  0  0
  -22.7384  -29.4692   22.4992 C   0  0  0  0  0  0
  -18.0274  -28.1396   22.8512 C   0  0  0  0  0  0
  -24.1490  -36.7325   23.2639 C   0  0  0  0  0  0
  -25.9252  -30.8431   21.3583 C   0  0  0  0  0  0
  -26.0072  -29.4760   20.7116 C   0  0  0  0  0  0
  -27.2089  -28.7339   20.6999 C   0  0  0  0  0  0
  -26.0751  -26.9414   19.5028 C   0  0  0  0  0  0
  -24.8775  -27.6844   19.5124 C   0  0  0  0  0  0
  -23.6085  -29.8180   20.1657 C   0  0  0  0  0  0
  -25.4107  -36.3116   24.0344 C   0  0  1  0  0  0
  -20.5850  -28.3696   23.1338 C   0  0  2  0  0  0
  -20.6760  -26.9428   22.5456 C   0  0  0  0  0  0
  -19.5749  -26.6396   21.5251 C   0  0  0  0  0  0
  -18.1926  -26.7943   22.1648 C   0  0  0  0  0  0
  -19.1514  -28.8862   23.2920 C   0  0  0  0  0  0
  -18.9430  -30.1469   23.8924 C   0  0  0  0  0  0
  -17.6431  -30.6606   24.0564 C   0  0  0  0  0  0
  -25.9029  -34.9479   23.5140 C   0  0  0  0  0  0
  -16.5329  -29.9103   23.6327 C   0  0  0  0  0  0
  -16.7259  -28.6519   23.0353 C   0  0  0  0  0  0
  -26.4458  -31.6590   25.0707 C   0  0  0  0  0  0
  -25.3734  -31.3676   26.1462 C   0  0  0  0  0  0
  -27.0282  -30.3040   24.6048 C   0  0  0  0  0  0
  -27.6051  -32.4290   25.7468 C   0  0  0  0  0  0
  -27.5584  -37.1813   24.8465 C   0  0  0  0  0  0
  -21.4111  -29.3073   22.3741 N   0  0  0  0  0  0
  -26.4301  -37.3794   23.9402 N   0  0  0  0  0  0
  -24.6637  -31.0824   22.0981 N   0  0  0  0  0  0
  -23.4159  -28.8238   23.3030 O   0  0  0  0  0  0
  -28.4050  -26.7247   20.0660 O   0  0  0  0  0  0
  -26.5594  -34.8929   22.4706 O   0  0  0  0  0  0
  -23.5318  -32.1443   23.7508 O   0  0  0  0  0  0
  -29.9322  -19.8604   21.7362 C   0  0  0  0  0  0
  -28.9203  -19.0819   21.1300 C   0  0  0  0  0  0
  -28.7084  -21.8000   21.3374 C   0  0  0  0  0  0
  -27.7129  -21.0225   20.6671 C   0  0  0  0  0  0
  -25.4435  -22.2856   20.9084 C   0  0  0  0  0  0
  -28.9104  -17.5515   21.1126 C   0  0  0  0  0  0
  -28.5689  -23.2838   21.7058 C   0  0  0  0  0  0
  -28.6517  -24.3254   20.5684 C   0  0  0  0  0  0
  -30.2506  -16.8099   21.3362 C   0  0  0  0  0  0
  -28.5151  -25.7605   21.1157 C   0  0  0  0  0  0
  -26.4500  -21.5742   19.9930 C   0  0  1  0  0  0
  -29.8275  -21.2088   21.8357 N   0  0  0  0  0  0
  -27.8301  -19.6709   20.5830 N   0  0  0  0  0  0
  -30.0212  -15.3590   21.3050 N   0  0  0  0  0  0
  -26.7601  -22.3425   18.9494 F   0  0  0  0  0  0
  -31.4724  -12.3996   19.1159 H   0  0  0  0  0  0
  -30.3296  -11.2745   19.7916 H   0  0  0  0  0  0
  -29.7302  -11.7972   17.4137 H   0  0  0  0  0  0
  -29.6652  -13.5024   17.7825 H   0  0  0  0  0  0
  -27.8225  -11.3111   18.7976 H   0  0  0  0  0  0
  -27.3668  -12.6566   17.7894 H   0  0  0  0  0  0
  -27.7241  -14.2482   19.6042 H   0  0  0  0  0  0
  -28.6750  -11.8997   21.3123 H   0  0  0  0  0  0
  -28.4563  -13.5116   21.8968 H   0  0  0  0  0  0
  -25.2759   -9.5690   22.4744 H   0  0  0  0  0  0
  -24.0005   -7.4634   22.7472 H   0  0  0  0  0  0
  -21.0833   -8.8753   19.8949 H   0  0  0  0  0  0
  -22.3670  -10.9667   19.6160 H   0  0  0  0  0  0
  -21.2003   -7.6152   23.9709 H   0  0  0  0  0  0
  -21.1485   -6.0530   25.9072 H   0  0  0  0  0  0
  -22.0601   -2.7616   23.2841 H   0  0  0  0  0  0
  -22.4154  -11.9877   22.4746 H   0  0  0  0  0  0
  -21.1155  -13.1255   22.2623 H   0  0  0  0  0  0
  -24.6709  -15.8413   20.5005 H   0  0  0  0  0  0
  -26.2914  -15.6178   20.0784 H   0  0  0  0  0  0
  -26.7090  -32.5565   23.1164 H   0  0  0  0  0  0
  -25.0026  -33.9787   25.0480 H   0  0  0  0  0  0
  -22.6886  -31.3086   21.4067 H   0  0  0  0  0  0
  -23.3742  -35.9669   23.3311 H   0  0  0  0  0  0
  -24.3587  -36.8927   22.2050 H   0  0  0  0  0  0
  -23.7254  -37.6542   23.6643 H   0  0  0  0  0  0
  -26.0298  -31.6061   20.5854 H   0  0  0  0  0  0
  -26.8160  -30.9029   21.9714 H   0  0  0  0  0  0
  -28.1055  -29.1361   21.1501 H   0  0  0  0  0  0
  -26.0953  -25.9676   19.0333 H   0  0  0  0  0  0
  -23.9880  -27.2758   19.0528 H   0  0  0  0  0  0
  -23.7115  -30.5894   19.4015 H   0  0  0  0  0  0
  -22.7343  -29.2317   19.8755 H   0  0  0  0  0  0
  -25.1279  -36.1993   25.0839 H   0  0  0  0  0  0
  -20.9955  -28.3266   24.1454 H   0  0  0  0  0  0
  -21.6637  -26.7465   22.1260 H   0  0  0  0  0  0
  -20.5649  -26.2311   23.3652 H   0  0  0  0  0  0
  -19.6905  -25.6310   21.1284 H   0  0  0  0  0  0
  -19.6690  -27.3220   20.6790 H   0  0  0  0  0  0
  -17.4198  -26.6698   21.4047 H   0  0  0  0  0  0
  -18.0307  -26.0096   22.9049 H   0  0  0  0  0  0
  -19.7897  -30.7292   24.2299 H   0  0  0  0  0  0
  -17.4982  -31.6295   24.5149 H   0  0  0  0  0  0
  -15.5337  -30.3005   23.7644 H   0  0  0  0  0  0
  -15.8663  -28.0840   22.7057 H   0  0  0  0  0  0
  -24.5907  -30.7025   25.7795 H   0  0  0  0  0  0
  -24.8925  -32.2823   26.4938 H   0  0  0  0  0  0
  -25.8095  -30.8826   27.0205 H   0  0  0  0  0  0
  -26.2813  -29.6804   24.1123 H   0  0  0  0  0  0
  -27.4093  -29.7265   25.4480 H   0  0  0  0  0  0
  -27.8628  -30.4371   23.9158 H   0  0  0  0  0  0
  -27.2686  -33.3570   26.2101 H   0  0  0  0  0  0
  -28.3834  -32.6876   25.0279 H   0  0  0  0  0  0
  -28.0749  -31.8377   26.5336 H   0  0  0  0  0  0
  -28.2610  -38.0102   24.7498 H   0  0  0  0  0  0
  -28.1071  -36.2632   24.6304 H   0  0  0  0  0  0
  -27.2299  -37.1480   25.8868 H   0  0  0  0  0  0
  -20.9274  -29.8775   21.6942 H   0  0  0  0  0  0
  -26.0197  -38.2883   24.1381 H   0  0  0  0  0  0
  -30.8062  -19.4105   22.1852 H   0  0  0  0  0  0
  -25.7976  -23.2553   21.2464 H   0  0  0  0  0  0
  -25.2006  -21.6748   21.7780 H   0  0  0  0  0  0
  -24.5134  -22.4740   20.3710 H   0  0  0  0  0  0
  -28.4904  -17.2322   20.1580 H   0  0  0  0  0  0
  -28.1993  -17.2357   21.8776 H   0  0  0  0  0  0
  -29.3568  -23.5282   22.4204 H   0  0  0  0  0  0
  -27.6531  -23.4127   22.2787 H   0  0  0  0  0  0
  -27.8566  -24.1663   19.8475 H   0  0  0  0  0  0
  -29.5938  -24.2191   20.0304 H   0  0  0  0  0  0
  -30.9723  -17.1085   20.5737 H   0  0  0  0  0  0
  -30.6781  -17.0691   22.3046 H   0  0  0  0  0  0
  -29.3893  -26.0086   21.7187 H   0  0  0  0  0  0
  -27.6605  -25.8090   21.7937 H   0  0  0  0  0  0
  -25.9229  -20.7307   19.5452 H   0  0  0  0  0  0
  -29.1679  -15.0296   21.7318 H   0  0  0  0  0  0
  1 25  1  0  0  0
  1 30  2  0  0  0
  1 84  1  0  0  0
  2  3  1  0  0  0
  2 25  1  0  0  0
  2 86  1  0  0  0
  2 87  1  0  0  0
  3  4  1  0  0  0
  3 88  1  0  0  0
  3 89  1  0  0  0
  4  5  1  0  0  0
  4 90  1  0  0  0
  4 91  1  0  0  0
  5  6  1  0  0  0
  5 26  1  0  0  0
  5 92  1  0  0  0
  6 25  1  0  0  0
  6 93  1  0  0  0
  6 94  1  0  0  0
  7  8  2  0  0  0
  7 26  1  0  0  0
  7 29  1  0  0  0
  8  9  1  0  0  0
  8 22  1  0  0  0
  9 10  1  0  0  0
  9 27  2  0  0  0
 10 11  2  0  0  0
 10 15  1  0  0  0
 11 12  1  0  0  0
 11 95  1  0  0  0
 12 13  2  0  0  0
 12 96  1  0  0  0
 13 14  1  0  0  0
 13 31  1  0  0  0
 14 15  2  0  0  0
 14 97  1  0  0  0
 15 98  1  0  0  0
 16 17  2  0  0  0
 16 21  1  0  0  0
 16 31  1  0  0  0
 17 18  1  0  0  0
 17 99  1  0  0  0
 18 19  2  0  0  0
 18100  1  0  0  0
 19 20  1  0  0  0
 19 24  1  0  0  0
 20 21  2  0  0  0
 20101  1  0  0  0
 21 23  1  0  0  0
 22 28  1  0  0  0
 22 32  2  0  0  0
 26 27  1  0  0  0
 28102  1  0  0  0
 28103  1  0  0  0
 29104  1  0  0  0
 29105  1  0  0  0
 33 34  1  0  0  0
 33 66  1  0  0  0
 33 70  2  0  0  0
 34 36  1  0  0  0
 34 59  1  0  0  0
 34106  1  0  0  0
 35 44  2  0  0  0
 35 45  1  0  0  0
 35 68  1  0  0  0
 36 56  1  0  0  0
 36107  1  0  0  0
 37 39  1  0  0  0
 37 47  1  0  0  0
 37 66  1  0  0  0
 37108  1  0  0  0
 38 43  2  0  0  0
 38 46  1  0  0  0
 38 47  1  0  0  0
 39 64  1  0  0  0
 39 67  2  0  0  0
 40 52  1  0  0  0
 40 53  2  0  0  0
 40 58  1  0  0  0
 41109  1  0  0  0
 41110  1  0  0  0
 41111  1  0  0  0
 41 48  1  0  0  0
 42 43  1  0  0  0
 42 66  1  0  0  0
 42112  1  0  0  0
 42113  1  0  0  0
 43 44  1  0  0  0
 44114  1  0  0  0
 45 46  2  0  0  0
 45115  1  0  0  0
 46116  1  0  0  0
 47117  1  0  0  0
 47118  1  0  0  0
 48 56  1  0  0  0
 48 65  1  0  0  0
 48119  1  0  0  0
 49 50  1  0  0  0
 49 53  1  0  0  0
 49 64  1  0  0  0
 49120  1  0  0  0
 50 51  1  0  0  0
 50121  1  0  0  0
 50122  1  0  0  0
 51 52  1  0  0  0
 51123  1  0  0  0
 51124  1  0  0  0
 52125  1  0  0  0
 52126  1  0  0  0
 53 54  1  0  0  0
 54 55  2  0  0  0
 54127  1  0  0  0
 55 57  1  0  0  0
 55128  1  0  0  0
 56 69  2  0  0  0
 57 58  2  0  0  0
 57129  1  0  0  0
 58130  1  0  0  0
 59 60  1  0  0  0
 59 61  1  0  0  0
 59 62  1  0  0  0
 60131  1  0  0  0
 60132  1  0  0  0
 60133  1  0  0  0
 61134  1  0  0  0
 61135  1  0  0  0
 61136  1  0  0  0
 62137  1  0  0  0
 62138  1  0  0  0
 62139  1  0  0  0
 63 65  1  0  0  0
 63140  1  0  0  0
 63141  1  0  0  0
 63142  1  0  0  0
 64143  1  0  0  0
 65144  1  0  0  0
 68 80  1  0  0  0
 71 72  2  0  0  0
 71 82  1  0  0  0
 71145  1  0  0  0
 72 76  1  0  0  0
 72 83  1  0  0  0
 73 74  1  0  0  0
 73 77  1  0  0  0
 73 82  2  0  0  0
 74 81  1  0  0  0
 74 83  2  0  0  0
 75146  1  0  0  0
 75147  1  0  0  0
 75148  1  0  0  0
 75 81  1  0  0  0
 76 79  1  0  0  0
 76149  1  0  0  0
 76150  1  0  0  0
 77 78  1  0  0  0
 77151  1  0  0  0
 77152  1  0  0  0
 78 80  1  0  0  0
 78153  1  0  0  0
 78154  1  0  0  0
 79 84  1  0  0  0
 79155  1  0  0  0
 79156  1  0  0  0
 80157  1  0  0  0
 80158  1  0  0  0
 81 85  1  0  0  0
 81159  1  0  0  0
 84160  1  0  0  0
M  ISO  4   1 100  68 101  80 101  84 100
M  END
> <chiral flag>
0

> <version>
0

> <s_m_source_file>
/data/baiqing/PycharmProjects/Reinvent-master-3.2/result/LINK_invent/BTK/process_docking_weight1_custom_sum_contain_oxygen_bond_distance_aromatic_linkinvent_7_9_3/rearranged_h_0094.sdf

> <i_m_source_file_index>
23

> <r_mmod_Potential_Energy-OPLS-2005>
-6.62374067306519

> <r_mmod_Stretch_Energy-OPLS-2005>
38.139331817627

> <r_mmod_Bend_Energy-OPLS-2005>
105.205062866211

> <r_mmod_Torsional_Energy-OPLS-2005>
222.598861694336

> <r_mmod_Improper_Torsional_Energy-OPLS-2005>
3.79095554351807

> <r_mmod_Van_der_Waal_Energy-OPLS-2005>
152.444122314453

> <r_mmod_Electrostatic_Energy-OPLS-2005>
-314.339813232422

> <r_mmod_Solvation_Energy-OPLS-2005>
-222.604782104492

> <b_mmod_Minimization_Converged-OPLS-2005>
0

> <r_mmod_RMS_Derivative-OPLS-2005>
1.37374234199524

$$$$
23
                    3D
 Structure written by MMmdl.
166174  0  0  1  0            999 V2000
  -30.6423  -14.5727   20.4928 C   0  0  0  0  0  0
  -30.4288  -12.3467   19.4464 C   0  0  0  0  0  0
  -29.5058  -12.4907   18.2168 C   0  0  0  0  0  0
  -28.0246  -12.3464   18.6223 C   0  0  0  0  0  0
  -27.6519  -13.2116   19.8563 C   0  0  2  0  0  0
  -28.6918  -13.0534   20.9883 C   0  0  0  0  0  0
  -25.2563  -13.8163   20.5657 C   0  0  0  0  0  0
  -24.1823  -13.0436   20.9170 C   0  0  0  0  0  0
  -24.6386  -11.6900   20.8712 C   0  0  0  0  0  0
  -23.9048  -10.4289   21.0389 C   0  0  0  0  0  0
  -24.3611   -9.4207   21.9171 C   0  0  0  0  0  0
  -23.6286   -8.2242   22.0756 C   0  0  0  0  0  0
  -22.4262   -8.0280   21.3547 C   0  0  0  0  0  0
  -21.9892   -9.0244   20.4644 C   0  0  0  0  0  0
  -22.7221  -10.2126   20.3044 C   0  0  0  0  0  0
  -21.6860   -6.0725   22.5273 C   0  0  0  0  0  0
  -21.4021   -6.5632   23.8208 C   0  0  0  0  0  0
  -21.3653   -5.6792   24.9168 C   0  0  0  0  0  0
  -21.6040   -4.3051   24.7224 C   0  0  0  0  0  0
  -21.8821   -3.8138   23.4348 C   0  0  0  0  0  0
  -21.9197   -4.6952   22.3401 C   0  0  0  0  0  0
  -22.7842  -13.5228   21.1827 C   0  0  0  0  0  0
  -22.1663   -4.2134   21.0981 F   0  0  0  0  0  0
  -21.5619   -3.4537   25.7739 F   0  0  0  0  0  0
  -30.0131  -13.3645   20.4265 N   0  0  0  0  0  0
  -26.2976  -12.9334   20.3257 N   0  0  0  0  0  0
  -25.9310  -11.6494   20.5706 N   0  0  0  0  0  0
  -22.0487  -12.8232   22.0397 N   0  0  0  0  0  0
  -25.4270  -15.1885   20.4054 N   0  0  0  0  0  0
  -31.8084  -14.7285   20.1247 O   0  0  0  0  0  0
  -21.6642   -6.8866   21.4239 O   0  0  0  0  0  0
  -22.3522  -14.5524   20.6663 O   0  0  0  0  0  0
  -24.6188  -31.8633   23.2030 C   0  0  0  0  0  0
  -25.9060  -32.4805   23.8346 C   0  0  1  0  0  0
  -27.2327  -27.3799   20.0992 C   0  0  0  0  0  0
  -25.5906  -33.8608   24.2281 N   0  0  0  0  0  0
  -23.4088  -30.4850   21.5436 C   0  0  2  0  0  0
  -24.8543  -28.9422   20.1102 C   0  0  0  0  0  0
  -22.7436  -29.4626   22.4940 C   0  0  0  0  0  0
  -18.0291  -28.1372   22.8506 C   0  0  0  0  0  0
  -24.1499  -36.7289   23.2636 C   0  0  0  0  0  0
  -25.9425  -30.8128   21.3624 C   0  0  0  0  0  0
  -26.0162  -29.4431   20.7079 C   0  0  0  0  0  0
  -27.2041  -28.6688   20.6984 C   0  0  0  0  0  0
  -26.0449  -26.9029   19.5007 C   0  0  0  0  0  0
  -24.8652  -27.6747   19.5031 C   0  0  0  0  0  0
  -23.6201  -29.8164   20.1586 C   0  0  0  0  0  0
  -25.4121  -36.3100   24.0338 C   0  0  1  0  0  0
  -20.5889  -28.3654   23.1308 C   0  0  2  0  0  0
  -20.6782  -26.9388   22.5423 C   0  0  0  0  0  0
  -19.5759  -26.6384   21.5219 C   0  0  0  0  0  0
  -18.1932  -26.7929   22.1624 C   0  0  0  0  0  0
  -19.1547  -28.8833   23.2910 C   0  0  0  0  0  0
  -18.9466  -30.1441   23.8914 C   0  0  0  0  0  0
  -17.6467  -30.6583   24.0565 C   0  0  0  0  0  0
  -25.9050  -34.9473   23.5108 C   0  0  0  0  0  0
  -16.5355  -29.9090   23.6330 C   0  0  0  0  0  0
  -16.7276  -28.6498   23.0359 C   0  0  0  0  0  0
  -26.4481  -31.6605   25.0686 C   0  0  0  0  0  0
  -25.3751  -31.3746   26.1440 C   0  0  0  0  0  0
  -27.0285  -30.3040   24.6066 C   0  0  0  0  0  0
  -27.6046  -32.4329   25.7449 C   0  0  0  0  0  0
  -27.5586  -37.1797   24.8465 C   0  0  0  0  0  0
  -21.4157  -29.3022   22.3700 N   0  0  0  0  0  0
  -26.4298  -37.3793   23.9411 N   0  0  0  0  0  0
  -24.6752  -31.0702   22.0943 N   0  0  0  0  0  0
  -23.4191  -28.8171   23.2996 O   0  0  0  0  0  0
  -28.4065  -26.6355   20.1457 O   0  0  0  0  0  0
  -26.5605  -34.8938   22.4664 O   0  0  0  0  0  0
  -23.5366  -32.1393   23.7403 O   0  0  0  0  0  0
  -29.1987  -21.2694   22.4862 C   0  0  0  0  0  0
  -29.3635  -20.2937   23.4963 C   0  0  0  0  0  0
  -28.9743  -20.6320   21.2985 C   0  0  0  0  0  0
  -29.2443  -19.0566   22.9287 C   0  0  0  0  0  0
  -27.7667  -17.1840   23.7590 C   0  0  0  0  0  0
  -29.8754  -17.7438   25.0104 C   0  0  0  0  0  0
  -28.5739  -21.2995   19.9850 C   0  0  0  0  0  0
  -29.0490  -22.7759   19.6853 C   0  0  0  0  0  0
  -28.3116  -24.0353   20.2835 C   0  0  0  0  0  0
  -28.9916  -18.1033   20.5747 C   0  0  0  0  0  0
  -30.1952  -17.0772   20.5481 C   0  0  0  0  0  0
  -28.5588  -25.3593   19.4652 C   0  0  0  0  0  0
  -29.2039  -17.7159   23.6279 C   0  0  0  0  0  0
  -29.0985  -19.2330   21.5430 N   0  0  0  0  0  0
  -29.8457  -15.6409   20.7590 N   0  0  0  0  0  0
  -31.4728  -12.4571   19.1486 H   0  0  0  0  0  0
  -30.3454  -11.3486   19.8792 H   0  0  0  0  0  0
  -29.7621  -11.7439   17.4642 H   0  0  0  0  0  0
  -29.6657  -13.4630   17.7482 H   0  0  0  0  0  0
  -27.8437  -11.2927   18.8389 H   0  0  0  0  0  0
  -27.3783  -12.5967   17.7791 H   0  0  0  0  0  0
  -27.6751  -14.2476   19.5196 H   0  0  0  0  0  0
  -28.6833  -12.0349   21.3790 H   0  0  0  0  0  0
  -28.4479  -13.7010   21.8324 H   0  0  0  0  0  0
  -25.2761   -9.5686   22.4729 H   0  0  0  0  0  0
  -23.9992   -7.4643   22.7484 H   0  0  0  0  0  0
  -21.0814   -8.8751   19.8960 H   0  0  0  0  0  0
  -22.3667  -10.9652   19.6138 H   0  0  0  0  0  0
  -21.2030   -7.6144   23.9702 H   0  0  0  0  0  0
  -21.1463   -6.0523   25.9069 H   0  0  0  0  0  0
  -22.0609   -2.7598   23.2854 H   0  0  0  0  0  0
  -22.4116  -11.9904   22.4794 H   0  0  0  0  0  0
  -21.1099  -13.1239   22.2574 H   0  0  0  0  0  0
  -24.6550  -15.8374   20.5091 H   0  0  0  0  0  0
  -26.2623  -15.6239   20.0386 H   0  0  0  0  0  0
  -26.7118  -32.5481   23.1081 H   0  0  0  0  0  0
  -25.0135  -33.9783   25.0478 H   0  0  0  0  0  0
  -22.6994  -31.3030   21.3996 H   0  0  0  0  0  0
  -23.3780  -35.9599   23.3304 H   0  0  0  0  0  0
  -24.3606  -36.8900   22.2052 H   0  0  0  0  0  0
  -23.7242  -37.6487   23.6652 H   0  0  0  0  0  0
  -26.0651  -31.5784   20.5949 H   0  0  0  0  0  0
  -26.8274  -30.8626   21.9847 H   0  0  0  0  0  0
  -28.1008  -29.0535   21.1637 H   0  0  0  0  0  0
  -26.0020  -25.9260   19.0451 H   0  0  0  0  0  0
  -23.9671  -27.2827   19.0458 H   0  0  0  0  0  0
  -23.7352  -30.5906   19.3989 H   0  0  0  0  0  0
  -22.7423  -29.2416   19.8589 H   0  0  0  0  0  0
  -25.1309  -36.1945   25.0834 H   0  0  0  0  0  0
  -20.9988  -28.3226   24.1426 H   0  0  0  0  0  0
  -20.5692  -26.2260   23.3609 H   0  0  0  0  0  0
  -21.6649  -26.7433   22.1199 H   0  0  0  0  0  0
  -19.6921  -25.6299   21.1238 H   0  0  0  0  0  0
  -19.6713  -27.3207   20.6762 H   0  0  0  0  0  0
  -17.4218  -26.6707   21.4009 H   0  0  0  0  0  0
  -18.0304  -26.0057   22.9004 H   0  0  0  0  0  0
  -19.7942  -30.7259   24.2274 H   0  0  0  0  0  0
  -17.5027  -31.6265   24.5168 H   0  0  0  0  0  0
  -15.5357  -30.2997   23.7638 H   0  0  0  0  0  0
  -15.8683  -28.0822   22.7052 H   0  0  0  0  0  0
  -24.5928  -30.7070   25.7812 H   0  0  0  0  0  0
  -24.8923  -32.2911   26.4839 H   0  0  0  0  0  0
  -25.8113  -30.8976   27.0221 H   0  0  0  0  0  0
  -26.2797  -29.6828   24.1125 H   0  0  0  0  0  0
  -27.4070  -29.7260   25.4501 H   0  0  0  0  0  0
  -27.8650  -30.4370   23.9200 H   0  0  0  0  0  0
  -27.2654  -33.3631   26.2021 H   0  0  0  0  0  0
  -28.3852  -32.6887   25.0272 H   0  0  0  0  0  0
  -28.0712  -31.8457   26.5366 H   0  0  0  0  0  0
  -28.2603  -38.0099   24.7511 H   0  0  0  0  0  0
  -28.1089  -36.2626   24.6287 H   0  0  0  0  0  0
  -27.2303  -37.1425   25.8871 H   0  0  0  0  0  0
  -20.9308  -29.8749   21.6935 H   0  0  0  0  0  0
  -26.0184  -38.2866   24.1428 H   0  0  0  0  0  0
  -29.1877  -22.3395   22.6347 H   0  0  0  0  0  0
  -29.5024  -20.4869   24.5526 H   0  0  0  0  0  0
  -27.2731  -17.0923   22.7931 H   0  0  0  0  0  0
  -27.1557  -17.8466   24.3726 H   0  0  0  0  0  0
  -27.7493  -16.1967   24.2221 H   0  0  0  0  0  0
  -30.9109  -18.0767   24.9329 H   0  0  0  0  0  0
  -29.8845  -16.7514   25.4628 H   0  0  0  0  0  0
  -29.3596  -18.4130   25.6999 H   0  0  0  0  0  0
  -27.4877  -21.2612   19.8952 H   0  0  0  0  0  0
  -28.9413  -20.6866   19.1627 H   0  0  0  0  0  0
  -28.9512  -22.8835   18.6043 H   0  0  0  0  0  0
  -30.1211  -22.8524   19.8713 H   0  0  0  0  0  0
  -28.6550  -24.1836   21.3081 H   0  0  0  0  0  0
  -27.2389  -23.8551   20.3469 H   0  0  0  0  0  0
  -28.0524  -17.5855   20.7586 H   0  0  0  0  0  0
  -28.8797  -18.5143   19.5728 H   0  0  0  0  0  0
  -30.9696  -17.3708   21.2577 H   0  0  0  0  0  0
  -30.6769  -17.1559   19.5726 H   0  0  0  0  0  0
  -28.0176  -25.3376   18.5184 H   0  0  0  0  0  0
  -29.6064  -25.3506   19.1627 H   0  0  0  0  0  0
  -29.7683  -16.9838   23.0610 H   0  0  0  0  0  0
  -28.8972  -15.4331   21.0306 H   0  0  0  0  0  0
  1 25  1  0  0  0
  1 30  2  0  0  0
  1 85  1  0  0  0
  2  3  1  0  0  0
  2 25  1  0  0  0
  2 86  1  0  0  0
  2 87  1  0  0  0
  3  4  1  0  0  0
  3 88  1  0  0  0
  3 89  1  0  0  0
  4  5  1  0  0  0
  4 90  1  0  0  0
  4 91  1  0  0  0
  5  6  1  0  0  0
  5 26  1  0  0  0
  5 92  1  0  0  0
  6 25  1  0  0  0
  6 93  1  0  0  0
  6 94  1  0  0  0
  7  8  2  0  0  0
  7 26  1  0  0  0
  7 29  1  0  0  0
  8  9  1  0  0  0
  8 22  1  0  0  0
  9 10  1  0  0  0
  9 27  2  0  0  0
 10 11  2  0  0  0
 10 15  1  0  0  0
 11 12  1  0  0  0
 11 95  1  0  0  0
 12 13  2  0  0  0
 12 96  1  0  0  0
 13 14  1  0  0  0
 13 31  1  0  0  0
 14 15  2  0  0  0
 14 97  1  0  0  0
 15 98  1  0  0  0
 16 17  2  0  0  0
 16 21  1  0  0  0
 16 31  1  0  0  0
 17 18  1  0  0  0
 17 99  1  0  0  0
 18 19  2  0  0  0
 18100  1  0  0  0
 19 20  1  0  0  0
 19 24  1  0  0  0
 20 21  2  0  0  0
 20101  1  0  0  0
 21 23  1  0  0  0
 22 28  1  0  0  0
 22 32  2  0  0  0
 26 27  1  0  0  0
 28102  1  0  0  0
 28103  1  0  0  0
 29104  1  0  0  0
 29105  1  0  0  0
 33 34  1  0  0  0
 33 66  1  0  0  0
 33 70  2  0  0  0
 34 36  1  0  0  0
 34 59  1  0  0  0
 34106  1  0  0  0
 35 44  2  0  0  0
 35 45  1  0  0  0
 35 68  1  0  0  0
 36 56  1  0  0  0
 36107  1  0  0  0
 37 39  1  0  0  0
 37 47  1  0  0  0
 37 66  1  0  0  0
 37108  1  0  0  0
 38 43  2  0  0  0
 38 46  1  0  0  0
 38 47  1  0  0  0
 39 64  1  0  0  0
 39 67  2  0  0  0
 40 52  1  0  0  0
 40 53  2  0  0  0
 40 58  1  0  0  0
 41109  1  0  0  0
 41110  1  0  0  0
 41111  1  0  0  0
 41 48  1  0  0  0
 42 43  1  0  0  0
 42 66  1  0  0  0
 42112  1  0  0  0
 42113  1  0  0  0
 43 44  1  0  0  0
 44114  1  0  0  0
 45 46  2  0  0  0
 45115  1  0  0  0
 46116  1  0  0  0
 47117  1  0  0  0
 47118  1  0  0  0
 48 56  1  0  0  0
 48 65  1  0  0  0
 48119  1  0  0  0
 49 50  1  0  0  0
 49 53  1  0  0  0
 49 64  1  0  0  0
 49120  1  0  0  0
 50 51  1  0  0  0
 50121  1  0  0  0
 50122  1  0  0  0
 51 52  1  0  0  0
 51123  1  0  0  0
 51124  1  0  0  0
 52125  1  0  0  0
 52126  1  0  0  0
 53 54  1  0  0  0
 54 55  2  0  0  0
 54127  1  0  0  0
 55 57  1  0  0  0
 55128  1  0  0  0
 56 69  2  0  0  0
 57 58  2  0  0  0
 57129  1  0  0  0
 58130  1  0  0  0
 59 60  1  0  0  0
 59 61  1  0  0  0
 59 62  1  0  0  0
 60131  1  0  0  0
 60132  1  0  0  0
 60133  1  0  0  0
 61134  1  0  0  0
 61135  1  0  0  0
 61136  1  0  0  0
 62137  1  0  0  0
 62138  1  0  0  0
 62139  1  0  0  0
 63 65  1  0  0  0
 63140  1  0  0  0
 63141  1  0  0  0
 63142  1  0  0  0
 64143  1  0  0  0
 65144  1  0  0  0
 68 82  1  0  0  0
 71 72  1  0  0  0
 71 73  2  0  0  0
 71145  1  0  0  0
 72 74  2  0  0  0
 72146  1  0  0  0
 73 77  1  0  0  0
 73 84  1  0  0  0
 74 83  1  0  0  0
 74 84  1  0  0  0
 75147  1  0  0  0
 75148  1  0  0  0
 75149  1  0  0  0
 75 83  1  0  0  0
 76 83  1  0  0  0
 76150  1  0  0  0
 76151  1  0  0  0
 76152  1  0  0  0
 77 78  1  0  0  0
 77153  1  0  0  0
 77154  1  0  0  0
 78 79  1  0  0  0
 78155  1  0  0  0
 78156  1  0  0  0
 79 82  1  0  0  0
 79157  1  0  0  0
 79158  1  0  0  0
 80 81  1  0  0  0
 80 84  1  0  0  0
 80159  1  0  0  0
 80160  1  0  0  0
 81 85  1  0  0  0
 81161  1  0  0  0
 81162  1  0  0  0
 82163  1  0  0  0
 82164  1  0  0  0
 83165  1  0  0  0
 85166  1  0  0  0
M  ISO  4   1 100  68 101  82 101  85 100
M  END
> <chiral flag>
0

> <version>
0

> <s_m_source_file>
/data/baiqing/PycharmProjects/Reinvent-master-3.2/result/LINK_invent/BTK/process_docking_weight1_custom_sum_contain_oxygen_bond_distance_aromatic_linkinvent_7_9_3/rearranged_h_0094.sdf

> <i_m_source_file_index>
24

> <r_mmod_Potential_Energy-OPLS-2005>
-27.9397144317627

> <r_mmod_Stretch_Energy-OPLS-2005>
60.6560020446777

> <r_mmod_Bend_Energy-OPLS-2005>
138.778137207031

> <r_mmod_Torsional_Energy-OPLS-2005>
235.362884521484

> <r_mmod_Improper_Torsional_Energy-OPLS-2005>
6.21720743179321

> <r_mmod_Van_der_Waal_Energy-OPLS-2005>
119.936874389648

> <r_mmod_Electrostatic_Energy-OPLS-2005>
-408.459381103516

> <r_mmod_Solvation_Energy-OPLS-2005>
-209.040222167969

> <b_mmod_Minimization_Converged-OPLS-2005>
0

> <r_mmod_RMS_Derivative-OPLS-2005>
2.21588683128357

$$$$
24
                    3D
 Structure written by MMmdl.
164172  0  0  1  0            999 V2000
  -30.6994  -14.4723   20.5613 C   0  0  0  0  0  0
  -30.4145  -12.2973   19.4307 C   0  0  0  0  0  0
  -29.4953  -12.5198   18.2121 C   0  0  0  0  0  0
  -28.0157  -12.3786   18.6236 C   0  0  0  0  0  0
  -27.6635  -13.2112   19.8868 C   0  0  2  0  0  0
  -28.7060  -12.9886   21.0081 C   0  0  0  0  0  0
  -25.2577  -13.8086   20.5703 C   0  0  0  0  0  0
  -24.1841  -13.0384   20.9151 C   0  0  0  0  0  0
  -24.6404  -11.6852   20.8712 C   0  0  0  0  0  0
  -23.9058  -10.4251   21.0377 C   0  0  0  0  0  0
  -24.3623   -9.4158   21.9147 C   0  0  0  0  0  0
  -23.6305   -8.2200   22.0725 C   0  0  0  0  0  0
  -22.4282   -8.0250   21.3519 C   0  0  0  0  0  0
  -21.9918   -9.0206   20.4613 C   0  0  0  0  0  0
  -22.7232  -10.2083   20.3018 C   0  0  0  0  0  0
  -21.6847   -6.0729   22.5268 C   0  0  0  0  0  0
  -21.4011   -6.5626   23.8198 C   0  0  0  0  0  0
  -21.3681   -5.6777   24.9163 C   0  0  0  0  0  0
  -21.6055   -4.3034   24.7218 C   0  0  0  0  0  0
  -21.8826   -3.8130   23.4332 C   0  0  0  0  0  0
  -21.9186   -4.6956   22.3390 C   0  0  0  0  0  0
  -22.7867  -13.5175   21.1816 C   0  0  0  0  0  0
  -22.1655   -4.2130   21.0978 F   0  0  0  0  0  0
  -21.5640   -3.4526   25.7742 F   0  0  0  0  0  0
  -30.0407  -13.2839   20.4573 N   0  0  0  0  0  0
  -26.3046  -12.9304   20.3444 N   0  0  0  0  0  0
  -25.9346  -11.6435   20.5808 N   0  0  0  0  0  0
  -22.0574  -12.8147   22.0389 N   0  0  0  0  0  0
  -25.4279  -15.1799   20.4148 N   0  0  0  0  0  0
  -31.8040  -14.6737   20.0532 O   0  0  0  0  0  0
  -21.6621   -6.8865   21.4234 O   0  0  0  0  0  0
  -22.3542  -14.5498   20.6696 O   0  0  0  0  0  0
  -24.6148  -31.8671   23.2076 C   0  0  0  0  0  0
  -25.9037  -32.4814   23.8363 C   0  0  1  0  0  0
  -27.2067  -27.4230   20.1100 C   0  0  0  0  0  0
  -25.5914  -33.8615   24.2316 N   0  0  0  0  0  0
  -23.4000  -30.4949   21.5450 C   0  0  2  0  0  0
  -24.8413  -28.9650   20.1066 C   0  0  0  0  0  0
  -22.7395  -29.4671   22.4913 C   0  0  0  0  0  0
  -18.0270  -28.1382   22.8471 C   0  0  0  0  0  0
  -24.1501  -36.7312   23.2634 C   0  0  0  0  0  0
  -25.9284  -30.8351   21.3581 C   0  0  0  0  0  0
  -26.0036  -29.4703   20.7046 C   0  0  0  0  0  0
  -27.1940  -28.7064   20.7022 C   0  0  0  0  0  0
  -26.0363  -26.9385   19.4932 C   0  0  0  0  0  0
  -24.8527  -27.7008   19.4935 C   0  0  0  0  0  0
  -23.6068  -29.8341   20.1561 C   0  0  0  0  0  0
  -25.4126  -36.3106   24.0329 C   0  0  1  0  0  0
  -20.5866  -28.3680   23.1300 C   0  0  2  0  0  0
  -20.6771  -26.9416   22.5401 C   0  0  0  0  0  0
  -19.5754  -26.6384   21.5195 C   0  0  0  0  0  0
  -18.1928  -26.7927   22.1603 C   0  0  0  0  0  0
  -19.1525  -28.8833   23.2883 C   0  0  0  0  0  0
  -18.9462  -30.1435   23.8898 C   0  0  0  0  0  0
  -17.6470  -30.6576   24.0575 C   0  0  0  0  0  0
  -25.9045  -34.9469   23.5114 C   0  0  0  0  0  0
  -16.5356  -29.9086   23.6328 C   0  0  0  0  0  0
  -16.7264  -28.6512   23.0328 C   0  0  0  0  0  0
  -26.4489  -31.6591   25.0686 C   0  0  0  0  0  0
  -25.3787  -31.3685   26.1455 C   0  0  0  0  0  0
  -27.0311  -30.3036   24.6024 C   0  0  0  0  0  0
  -27.6058  -32.4306   25.7459 C   0  0  0  0  0  0
  -27.5586  -37.1811   24.8460 C   0  0  0  0  0  0
  -21.4117  -29.3044   22.3686 N   0  0  0  0  0  0
  -26.4310  -37.3789   23.9393 N   0  0  0  0  0  0
  -24.6652  -31.0804   22.0958 N   0  0  0  0  0  0
  -23.4178  -28.8204   23.2939 O   0  0  0  0  0  0
  -28.3257  -26.6251   20.1637 O   0  0  0  0  0  0
  -26.5590  -34.8931   22.4662 O   0  0  0  0  0  0
  -23.5336  -32.1407   23.7489 O   0  0  0  0  0  0
  -28.8351  -20.2574   20.7846 C   0  0  0  0  0  0
  -28.7062  -21.4628   18.7018 C   0  0  0  0  0  0
  -28.6986  -21.4988   20.1096 C   0  0  0  0  0  0
  -28.9145  -19.0506   20.0476 C   0  0  0  0  0  0
  -28.8975  -19.1399   18.6333 C   0  0  0  0  0  0
  -26.3419  -17.7136   17.8786 C   0  0  0  0  0  0
  -28.5474  -22.8229   20.8922 C   0  0  0  0  0  0
  -28.8762  -17.6901   20.7612 C   0  0  0  0  0  0
  -28.9575  -17.9021   17.7330 C   0  0  0  0  0  0
  -27.6253  -17.4981   17.0553 C   0  0  0  0  0  0
  -28.2413  -24.1151   20.0684 C   0  0  0  0  0  0
  -30.2192  -16.9180   20.8709 C   0  0  0  0  0  0
  -28.1466  -25.4062   20.9213 C   0  0  0  0  0  0
  -28.8144  -20.3238   17.9876 N   0  0  0  0  0  0
  -29.9878  -15.4789   21.1063 N   0  0  0  0  0  0
  -31.4624  -12.3699   19.1403 H   0  0  0  0  0  0
  -30.2817  -11.2840   19.8200 H   0  0  0  0  0  0
  -29.7350  -11.8112   17.4199 H   0  0  0  0  0  0
  -29.6680  -13.5118   17.7930 H   0  0  0  0  0  0
  -27.8178  -11.3222   18.8069 H   0  0  0  0  0  0
  -27.3648  -12.6614   17.7972 H   0  0  0  0  0  0
  -27.7056  -14.2629   19.5978 H   0  0  0  0  0  0
  -28.6747  -11.9547   21.3489 H   0  0  0  0  0  0
  -28.4741  -13.5895   21.8898 H   0  0  0  0  0  0
  -25.2779   -9.5628   22.4693 H   0  0  0  0  0  0
  -24.0025   -7.4575   22.7425 H   0  0  0  0  0  0
  -21.0855   -8.8691   19.8913 H   0  0  0  0  0  0
  -22.3678  -10.9613   19.6108 H   0  0  0  0  0  0
  -21.2002   -7.6132   23.9694 H   0  0  0  0  0  0
  -21.1519   -6.0512   25.9060 H   0  0  0  0  0  0
  -22.0604   -2.7596   23.2826 H   0  0  0  0  0  0
  -22.4290  -11.9865   22.4798 H   0  0  0  0  0  0
  -21.1167  -13.1053   22.2628 H   0  0  0  0  0  0
  -24.6498  -15.8251   20.5006 H   0  0  0  0  0  0
  -26.2716  -15.6097   20.0634 H   0  0  0  0  0  0
  -26.7103  -32.5519   23.1117 H   0  0  0  0  0  0
  -25.0123  -33.9782   25.0501 H   0  0  0  0  0  0
  -22.6876  -31.3121   21.4086 H   0  0  0  0  0  0
  -23.3753  -35.9652   23.3305 H   0  0  0  0  0  0
  -24.3591  -36.8908   22.2043 H   0  0  0  0  0  0
  -23.7278  -37.6531   23.6647 H   0  0  0  0  0  0
  -26.0413  -31.6004   20.5910 H   0  0  0  0  0  0
  -26.8176  -30.8863   21.9743 H   0  0  0  0  0  0
  -28.0861  -29.0797   21.1820 H   0  0  0  0  0  0
  -26.0293  -25.9657   19.0241 H   0  0  0  0  0  0
  -23.9601  -27.3091   19.0268 H   0  0  0  0  0  0
  -23.7166  -30.6118   19.3979 H   0  0  0  0  0  0
  -22.7313  -29.2566   19.8555 H   0  0  0  0  0  0
  -25.1305  -36.1957   25.0823 H   0  0  0  0  0  0
  -20.9980  -28.3252   24.1422 H   0  0  0  0  0  0
  -20.5691  -26.2283   23.3584 H   0  0  0  0  0  0
  -21.6646  -26.7453   22.1207 H   0  0  0  0  0  0
  -19.6934  -25.6301   21.1208 H   0  0  0  0  0  0
  -19.6714  -27.3204   20.6743 H   0  0  0  0  0  0
  -17.4212  -26.6659   21.3994 H   0  0  0  0  0  0
  -18.0347  -26.0065   22.9003 H   0  0  0  0  0  0
  -19.7936  -30.7235   24.2284 H   0  0  0  0  0  0
  -17.5029  -31.6265   24.5160 H   0  0  0  0  0  0
  -15.5360  -30.2998   23.7644 H   0  0  0  0  0  0
  -15.8667  -28.0842   22.7034 H   0  0  0  0  0  0
  -24.5952  -30.7029   25.7797 H   0  0  0  0  0  0
  -24.9013  -32.2851   26.4919 H   0  0  0  0  0  0
  -25.8184  -30.8845   27.0181 H   0  0  0  0  0  0
  -26.2820  -29.6781   24.1157 H   0  0  0  0  0  0
  -27.4180  -29.7269   25.4428 H   0  0  0  0  0  0
  -27.8610  -30.4334   23.9082 H   0  0  0  0  0  0
  -27.2657  -33.3570   26.2076 H   0  0  0  0  0  0
  -28.3868  -32.6909   25.0311 H   0  0  0  0  0  0
  -28.0735  -31.8416   26.5343 H   0  0  0  0  0  0
  -28.2614  -38.0104   24.7502 H   0  0  0  0  0  0
  -28.1082  -36.2631   24.6304 H   0  0  0  0  0  0
  -27.2293  -37.1473   25.8864 H   0  0  0  0  0  0
  -20.9261  -29.8806   21.6965 H   0  0  0  0  0  0
  -26.0186  -38.2858   24.1402 H   0  0  0  0  0  0
  -28.8398  -20.2182   21.8652 H   0  0  0  0  0  0
  -28.6183  -22.3669   18.1184 H   0  0  0  0  0  0
  -25.4736  -17.3541   17.3250 H   0  0  0  0  0  0
  -26.1776  -18.7728   18.0796 H   0  0  0  0  0  0
  -26.3627  -17.1871   18.8320 H   0  0  0  0  0  0
  -29.4722  -22.9775   21.4467 H   0  0  0  0  0  0
  -27.7804  -22.6938   21.6567 H   0  0  0  0  0  0
  -28.1549  -17.0722   20.2308 H   0  0  0  0  0  0
  -28.4399  -17.8260   21.7521 H   0  0  0  0  0  0
  -29.3302  -17.0470   18.2906 H   0  0  0  0  0  0
  -29.7183  -18.0691   16.9694 H   0  0  0  0  0  0
  -27.5223  -18.0533   16.1222 H   0  0  0  0  0  0
  -27.6903  -16.4502   16.7626 H   0  0  0  0  0  0
  -27.3058  -23.9983   19.5163 H   0  0  0  0  0  0
  -29.0333  -24.2633   19.3343 H   0  0  0  0  0  0
  -30.8340  -17.3490   21.6585 H   0  0  0  0  0  0
  -30.7961  -17.0284   19.9520 H   0  0  0  0  0  0
  -28.9258  -25.3938   21.6851 H   0  0  0  0  0  0
  -27.2008  -25.3986   21.4695 H   0  0  0  0  0  0
  -29.1262  -15.2134   21.5580 H   0  0  0  0  0  0
  1 25  1  0  0  0
  1 30  2  0  0  0
  1 85  1  0  0  0
  2  3  1  0  0  0
  2 25  1  0  0  0
  2 86  1  0  0  0
  2 87  1  0  0  0
  3  4  1  0  0  0
  3 88  1  0  0  0
  3 89  1  0  0  0
  4  5  1  0  0  0
  4 90  1  0  0  0
  4 91  1  0  0  0
  5  6  1  0  0  0
  5 26  1  0  0  0
  5 92  1  0  0  0
  6 25  1  0  0  0
  6 93  1  0  0  0
  6 94  1  0  0  0
  7  8  2  0  0  0
  7 26  1  0  0  0
  7 29  1  0  0  0
  8  9  1  0  0  0
  8 22  1  0  0  0
  9 10  1  0  0  0
  9 27  2  0  0  0
 10 11  2  0  0  0
 10 15  1  0  0  0
 11 12  1  0  0  0
 11 95  1  0  0  0
 12 13  2  0  0  0
 12 96  1  0  0  0
 13 14  1  0  0  0
 13 31  1  0  0  0
 14 15  2  0  0  0
 14 97  1  0  0  0
 15 98  1  0  0  0
 16 17  2  0  0  0
 16 21  1  0  0  0
 16 31  1  0  0  0
 17 18  1  0  0  0
 17 99  1  0  0  0
 18 19  2  0  0  0
 18100  1  0  0  0
 19 20  1  0  0  0
 19 24  1  0  0  0
 20 21  2  0  0  0
 20101  1  0  0  0
 21 23  1  0  0  0
 22 28  1  0  0  0
 22 32  2  0  0  0
 26 27  1  0  0  0
 28102  1  0  0  0
 28103  1  0  0  0
 29104  1  0  0  0
 29105  1  0  0  0
 33 34  1  0  0  0
 33 66  1  0  0  0
 33 70  2  0  0  0
 34 36  1  0  0  0
 34 59  1  0  0  0
 34106  1  0  0  0
 35 44  2  0  0  0
 35 45  1  0  0  0
 35 68  1  0  0  0
 36 56  1  0  0  0
 36107  1  0  0  0
 37 39  1  0  0  0
 37 47  1  0  0  0
 37 66  1  0  0  0
 37108  1  0  0  0
 38 43  2  0  0  0
 38 46  1  0  0  0
 38 47  1  0  0  0
 39 64  1  0  0  0
 39 67  2  0  0  0
 40 52  1  0  0  0
 40 53  2  0  0  0
 40 58  1  0  0  0
 41109  1  0  0  0
 41110  1  0  0  0
 41111  1  0  0  0
 41 48  1  0  0  0
 42 43  1  0  0  0
 42 66  1  0  0  0
 42112  1  0  0  0
 42113  1  0  0  0
 43 44  1  0  0  0
 44114  1  0  0  0
 45 46  2  0  0  0
 45115  1  0  0  0
 46116  1  0  0  0
 47117  1  0  0  0
 47118  1  0  0  0
 48 56  1  0  0  0
 48 65  1  0  0  0
 48119  1  0  0  0
 49 50  1  0  0  0
 49 53  1  0  0  0
 49 64  1  0  0  0
 49120  1  0  0  0
 50 51  1  0  0  0
 50121  1  0  0  0
 50122  1  0  0  0
 51 52  1  0  0  0
 51123  1  0  0  0
 51124  1  0  0  0
 52125  1  0  0  0
 52126  1  0  0  0
 53 54  1  0  0  0
 54 55  2  0  0  0
 54127  1  0  0  0
 55 57  1  0  0  0
 55128  1  0  0  0
 56 69  2  0  0  0
 57 58  2  0  0  0
 57129  1  0  0  0
 58130  1  0  0  0
 59 60  1  0  0  0
 59 61  1  0  0  0
 59 62  1  0  0  0
 60131  1  0  0  0
 60132  1  0  0  0
 60133  1  0  0  0
 61134  1  0  0  0
 61135  1  0  0  0
 61136  1  0  0  0
 62137  1  0  0  0
 62138  1  0  0  0
 62139  1  0  0  0
 63 65  1  0  0  0
 63140  1  0  0  0
 63141  1  0  0  0
 63142  1  0  0  0
 64143  1  0  0  0
 65144  1  0  0  0
 68 83  1  0  0  0
 71 73  2  0  0  0
 71 74  1  0  0  0
 71145  1  0  0  0
 72 73  1  0  0  0
 72 84  2  0  0  0
 72146  1  0  0  0
 73 77  1  0  0  0
 74 75  2  0  0  0
 74 78  1  0  0  0
 75 79  1  0  0  0
 75 84  1  0  0  0
 76 80  1  0  0  0
 76147  1  0  0  0
 76148  1  0  0  0
 76149  1  0  0  0
 77 81  1  0  0  0
 77150  1  0  0  0
 77151  1  0  0  0
 78 82  1  0  0  0
 78152  1  0  0  0
 78153  1  0  0  0
 79 80  1  0  0  0
 79154  1  0  0  0
 79155  1  0  0  0
 80156  1  0  0  0
 80157  1  0  0  0
 81 83  1  0  0  0
 81158  1  0  0  0
 81159  1  0  0  0
 82 85  1  0  0  0
 82160  1  0  0  0
 82161  1  0  0  0
 83162  1  0  0  0
 83163  1  0  0  0
 85164  1  0  0  0
M  ISO  4   1 100  68 101  83 101  85 100
M  END
> <chiral flag>
0

> <version>
0

> <s_m_source_file>
/data/baiqing/PycharmProjects/Reinvent-master-3.2/result/LINK_invent/BTK/process_docking_weight1_custom_sum_contain_oxygen_bond_distance_aromatic_linkinvent_7_9_3/rearranged_h_0094.sdf

> <i_m_source_file_index>
25

> <r_mmod_Potential_Energy-OPLS-2005>
-213.222427368164

> <r_mmod_Stretch_Energy-OPLS-2005>
41.5021095275879

> <r_mmod_Bend_Energy-OPLS-2005>
95.9977340698242

> <r_mmod_Torsional_Energy-OPLS-2005>
224.236404418945

> <r_mmod_Improper_Torsional_Energy-OPLS-2005>
4.98633527755737

> <r_mmod_Van_der_Waal_Energy-OPLS-2005>
146.082046508789

> <r_mmod_Electrostatic_Energy-OPLS-2005>
-519.77490234375

> <r_mmod_Solvation_Energy-OPLS-2005>
-222.076217651367

> <b_mmod_Minimization_Converged-OPLS-2005>
0

> <r_mmod_RMS_Derivative-OPLS-2005>
4.91486310958862

$$$$
25
                    3D
 Structure written by MMmdl.
181189  0  0  1  0            999 V2000
  -30.7658  -14.3628   20.6765 C   0  0  0  0  0  0
  -30.4197  -12.2920   19.3783 C   0  0  0  0  0  0
  -29.4785  -12.5321   18.1836 C   0  0  0  0  0  0
  -28.0037  -12.3879   18.6074 C   0  0  0  0  0  0
  -27.6697  -13.1978   19.8881 C   0  0  2  0  0  0
  -28.7142  -12.9089   20.9894 C   0  0  0  0  0  0
  -25.2621  -13.8146   20.5694 C   0  0  0  0  0  0
  -24.1851  -13.0438   20.9169 C   0  0  0  0  0  0
  -24.6391  -11.6900   20.8739 C   0  0  0  0  0  0
  -23.9048  -10.4292   21.0413 C   0  0  0  0  0  0
  -24.3601   -9.4208   21.9192 C   0  0  0  0  0  0
  -23.6281   -8.2242   22.0751 C   0  0  0  0  0  0
  -22.4266   -8.0280   21.3537 C   0  0  0  0  0  0
  -21.9897   -9.0253   20.4642 C   0  0  0  0  0  0
  -22.7219  -10.2135   20.3064 C   0  0  0  0  0  0
  -21.6850   -6.0738   22.5278 C   0  0  0  0  0  0
  -21.4009   -6.5640   23.8213 C   0  0  0  0  0  0
  -21.3659   -5.6791   24.9176 C   0  0  0  0  0  0
  -21.6046   -4.3054   24.7228 C   0  0  0  0  0  0
  -21.8817   -3.8147   23.4347 C   0  0  0  0  0  0
  -21.9186   -4.6965   22.3404 C   0  0  0  0  0  0
  -22.7874  -13.5252   21.1835 C   0  0  0  0  0  0
  -22.1657   -4.2148   21.0985 F   0  0  0  0  0  0
  -21.5634   -3.4540   25.7742 F   0  0  0  0  0  0
  -30.0495  -13.2275   20.4501 N   0  0  0  0  0  0
  -26.3070  -12.9302   20.3451 N   0  0  0  0  0  0
  -25.9322  -11.6464   20.5801 N   0  0  0  0  0  0
  -22.0506  -12.8240   22.0385 N   0  0  0  0  0  0
  -25.4359  -15.1850   20.4072 N   0  0  0  0  0  0
  -31.7999  -14.6418   20.0583 O   0  0  0  0  0  0
  -21.6633   -6.8876   21.4236 O   0  0  0  0  0  0
  -22.3562  -14.5560   20.6688 O   0  0  0  0  0  0
  -24.6117  -31.8708   23.2126 C   0  0  0  0  0  0
  -25.9023  -32.4832   23.8414 C   0  0  1  0  0  0
  -27.2264  -27.4551   20.0852 C   0  0  0  0  0  0
  -25.5891  -33.8634   24.2341 N   0  0  0  0  0  0
  -23.3980  -30.4960   21.5528 C   0  0  2  0  0  0
  -24.8424  -28.9720   20.1112 C   0  0  0  0  0  0
  -22.7397  -29.4667   22.4992 C   0  0  0  0  0  0
  -18.0282  -28.1364   22.8503 C   0  0  0  0  0  0
  -24.1490  -36.7321   23.2637 C   0  0  0  0  0  0
  -25.9266  -30.8427   21.3642 C   0  0  0  0  0  0
  -26.0027  -29.4811   20.7074 C   0  0  0  0  0  0
  -27.1987  -28.7299   20.6920 C   0  0  0  0  0  0
  -26.0529  -26.9699   19.4646 C   0  0  0  0  0  0
  -24.8615  -27.7143   19.4878 C   0  0  0  0  0  0
  -23.6034  -29.8343   20.1652 C   0  0  0  0  0  0
  -25.4107  -36.3119   24.0341 C   0  0  1  0  0  0
  -20.5868  -28.3658   23.1327 C   0  0  2  0  0  0
  -20.6784  -26.9401   22.5412 C   0  0  0  0  0  0
  -19.5757  -26.6379   21.5220 C   0  0  0  0  0  0
  -18.1933  -26.7915   22.1633 C   0  0  0  0  0  0
  -19.1527  -28.8830   23.2920 C   0  0  0  0  0  0
  -18.9452  -30.1442   23.8918 C   0  0  0  0  0  0
  -17.6451  -30.6583   24.0552 C   0  0  0  0  0  0
  -25.9028  -34.9483   23.5137 C   0  0  0  0  0  0
  -16.5345  -29.9077   23.6319 C   0  0  0  0  0  0
  -16.7272  -28.6495   23.0341 C   0  0  0  0  0  0
  -26.4462  -31.6595   25.0725 C   0  0  0  0  0  0
  -25.3739  -31.3696   26.1477 C   0  0  0  0  0  0
  -27.0273  -30.3033   24.6078 C   0  0  0  0  0  0
  -27.6049  -32.4303   25.7484 C   0  0  0  0  0  0
  -27.5581  -37.1813   24.8466 C   0  0  0  0  0  0
  -21.4125  -29.3038   22.3738 N   0  0  0  0  0  0
  -26.4297  -37.3799   23.9410 N   0  0  0  0  0  0
  -24.6633  -31.0833   22.1015 N   0  0  0  0  0  0
  -23.4184  -28.8205   23.3019 O   0  0  0  0  0  0
  -28.3869  -26.7120   20.1289 O   0  0  0  0  0  0
  -26.5596  -34.8935   22.4699 O   0  0  0  0  0  0
  -23.5316  -32.1446   23.7535 O   0  0  0  0  0  0
  -26.8905  -17.7182   22.5799 C   0  0  0  0  0  0
  -28.1108  -19.5172   22.0640 C   0  0  0  0  0  0
  -26.0250  -18.7649   22.4471 C   0  0  0  0  0  0
  -26.8030  -19.9232   22.1336 C   0  0  0  0  0  0
  -20.7825  -17.9311   26.0233 C   0  0  0  0  0  0
  -25.3804  -24.0892   21.0722 C   0  0  0  0  0  0
  -31.3868  -15.3481   22.7868 C   0  0  0  0  0  0
  -24.5301  -18.6790   22.6318 C   0  0  0  0  0  0
  -26.2402  -21.3159   21.9515 C   0  0  0  0  0  0
  -22.2589  -18.2895   25.8153 C   0  0  0  0  0  0
  -24.1364  -18.6507   24.1166 C   0  0  0  0  0  0
  -27.2634  -22.4403   21.6787 C   0  0  0  0  0  0
  -22.6433  -18.3586   24.3296 C   0  0  0  0  0  0
  -27.6764  -25.0040   21.7774 C   0  0  0  0  0  0
  -29.3751  -17.3532   22.4455 C   0  0  0  0  0  0
  -29.3003  -16.0850   21.5622 C   0  0  0  0  0  0
  -28.2396  -25.3014   20.3623 C   0  0  0  0  0  0
  -26.6560  -23.8449   21.9018 C   0  0  1  0  0  0
  -28.1729  -18.1645   22.3418 N   0  0  0  0  0  0
  -30.3861  -15.0955   21.7433 N   0  0  0  0  0  0
  -31.4600  -12.4022   19.0661 H   0  0  0  0  0  0
  -30.3284  -11.2647   19.7355 H   0  0  0  0  0  0
  -29.7067  -11.8342   17.3770 H   0  0  0  0  0  0
  -29.6460  -13.5314   17.7783 H   0  0  0  0  0  0
  -27.8073  -11.3280   18.7765 H   0  0  0  0  0  0
  -27.3478  -12.6920   17.7914 H   0  0  0  0  0  0
  -27.7333  -14.2551   19.6301 H   0  0  0  0  0  0
  -28.6819  -11.8523   21.2594 H   0  0  0  0  0  0
  -28.4768  -13.4299   21.9153 H   0  0  0  0  0  0
  -25.2754   -9.5682   22.4756 H   0  0  0  0  0  0
  -23.9989   -7.4629   22.7462 H   0  0  0  0  0  0
  -21.0832   -8.8764   19.8946 H   0  0  0  0  0  0
  -22.3680  -10.9671   19.6171 H   0  0  0  0  0  0
  -21.2003   -7.6147   23.9722 H   0  0  0  0  0  0
  -21.1486   -6.0522   25.9079 H   0  0  0  0  0  0
  -22.0600   -2.7608   23.2849 H   0  0  0  0  0  0
  -22.4106  -11.9901   22.4783 H   0  0  0  0  0  0
  -21.1136  -13.1285   22.2606 H   0  0  0  0  0  0
  -24.6742  -15.8424   20.5249 H   0  0  0  0  0  0
  -26.2986  -15.6275   20.1180 H   0  0  0  0  0  0
  -26.7089  -32.5550   23.1177 H   0  0  0  0  0  0
  -25.0038  -33.9809   25.0482 H   0  0  0  0  0  0
  -22.6852  -31.3121   21.4177 H   0  0  0  0  0  0
  -23.3746  -35.9656   23.3309 H   0  0  0  0  0  0
  -24.3587  -36.8923   22.2048 H   0  0  0  0  0  0
  -23.7245  -37.6535   23.6638 H   0  0  0  0  0  0
  -26.0413  -31.6120   20.5994 H   0  0  0  0  0  0
  -26.8141  -30.8916   21.9833 H   0  0  0  0  0  0
  -28.0923  -29.1136   21.1646 H   0  0  0  0  0  0
  -26.0362  -26.0183   18.9569 H   0  0  0  0  0  0
  -23.9721  -27.3195   19.0172 H   0  0  0  0  0  0
  -23.7089  -30.6118   19.4076 H   0  0  0  0  0  0
  -22.7277  -29.2546   19.8687 H   0  0  0  0  0  0
  -25.1280  -36.1985   25.0832 H   0  0  0  0  0  0
  -20.9960  -28.3216   24.1446 H   0  0  0  0  0  0
  -20.5722  -26.2262   23.3595 H   0  0  0  0  0  0
  -21.6651  -26.7464   22.1185 H   0  0  0  0  0  0
  -19.6939  -25.6294   21.1245 H   0  0  0  0  0  0
  -19.6684  -27.3193   20.6750 H   0  0  0  0  0  0
  -17.4203  -26.6662   21.4032 H   0  0  0  0  0  0
  -18.0342  -26.0052   22.9022 H   0  0  0  0  0  0
  -19.7924  -30.7261   24.2291 H   0  0  0  0  0  0
  -17.5003  -31.6275   24.5128 H   0  0  0  0  0  0
  -15.5345  -30.2980   23.7637 H   0  0  0  0  0  0
  -15.8681  -28.0816   22.7030 H   0  0  0  0  0  0
  -24.5923  -30.7024   25.7825 H   0  0  0  0  0  0
  -24.8917  -32.2851   26.4914 H   0  0  0  0  0  0
  -25.8107  -30.8882   27.0234 H   0  0  0  0  0  0
  -26.2803  -29.6820   24.1117 H   0  0  0  0  0  0
  -27.4029  -29.7237   25.4522 H   0  0  0  0  0  0
  -27.8653  -30.4354   23.9230 H   0  0  0  0  0  0
  -27.2670  -33.3591   26.2093 H   0  0  0  0  0  0
  -28.3840  -32.6874   25.0296 H   0  0  0  0  0  0
  -28.0729  -31.8400   26.5371 H   0  0  0  0  0  0
  -28.2605  -38.0107   24.7510 H   0  0  0  0  0  0
  -28.1073  -36.2639   24.6288 H   0  0  0  0  0  0
  -27.2306  -37.1463   25.8873 H   0  0  0  0  0  0
  -20.9267  -29.8774   21.6986 H   0  0  0  0  0  0
  -26.0187  -38.2878   24.1401 H   0  0  0  0  0  0
  -26.6968  -16.6838   22.8344 H   0  0  0  0  0  0
  -29.0150  -20.0779   21.8608 H   0  0  0  0  0  0
  -20.5372  -17.8887   27.0854 H   0  0  0  0  0  0
  -20.5467  -16.9574   25.5914 H   0  0  0  0  0  0
  -20.1264  -18.6702   25.5613 H   0  0  0  0  0  0
  -24.5783  -23.4102   21.3599 H   0  0  0  0  0  0
  -25.5536  -23.9531   20.0049 H   0  0  0  0  0  0
  -24.9968  -25.0969   21.2299 H   0  0  0  0  0  0
  -31.9232  -16.2803   22.6052 H   0  0  0  0  0  0
  -32.1309  -14.5499   22.8326 H   0  0  0  0  0  0
  -30.9219  -15.3894   23.7716 H   0  0  0  0  0  0
  -24.1804  -17.7727   22.1352 H   0  0  0  0  0  0
  -24.0444  -19.5134   22.1250 H   0  0  0  0  0  0
  -25.6776  -21.5485   22.8571 H   0  0  0  0  0  0
  -25.5123  -21.2777   21.1405 H   0  0  0  0  0  0
  -22.8801  -17.5501   26.3238 H   0  0  0  0  0  0
  -22.4690  -19.2470   26.2945 H   0  0  0  0  0  0
  -24.4043  -19.6005   24.5815 H   0  0  0  0  0  0
  -24.7198  -17.8831   24.6268 H   0  0  0  0  0  0
  -27.6675  -22.3434   20.6704 H   0  0  0  0  0  0
  -28.1078  -22.3281   22.3601 H   0  0  0  0  0  0
  -22.0475  -19.1252   23.8324 H   0  0  0  0  0  0
  -22.3914  -17.4123   23.8483 H   0  0  0  0  0  0
  -27.1902  -25.8959   22.1726 H   0  0  0  0  0  0
  -28.5112  -24.8312   22.4578 H   0  0  0  0  0  0
  -30.2394  -17.9599   22.1732 H   0  0  0  0  0  0
  -29.4816  -17.0942   23.4986 H   0  0  0  0  0  0
  -29.2550  -16.4026   20.5177 H   0  0  0  0  0  0
  -28.3562  -15.5809   21.7544 H   0  0  0  0  0  0
  -29.2293  -24.8510   20.2798 H   0  0  0  0  0  0
  -27.6614  -24.8203   19.5754 H   0  0  0  0  0  0
  -26.3342  -23.8672   22.9445 H   0  0  0  0  0  0
  1 25  1  0  0  0
  1 30  2  0  0  0
  1 90  1  0  0  0
  2  3  1  0  0  0
  2 25  1  0  0  0
  2 91  1  0  0  0
  2 92  1  0  0  0
  3  4  1  0  0  0
  3 93  1  0  0  0
  3 94  1  0  0  0
  4  5  1  0  0  0
  4 95  1  0  0  0
  4 96  1  0  0  0
  5  6  1  0  0  0
  5 26  1  0  0  0
  5 97  1  0  0  0
  6 25  1  0  0  0
  6 98  1  0  0  0
  6 99  1  0  0  0
  7  8  2  0  0  0
  7 26  1  0  0  0
  7 29  1  0  0  0
  8  9  1  0  0  0
  8 22  1  0  0  0
  9 10  1  0  0  0
  9 27  2  0  0  0
 10 11  2  0  0  0
 10 15  1  0  0  0
 11 12  1  0  0  0
 11100  1  0  0  0
 12 13  2  0  0  0
 12101  1  0  0  0
 13 14  1  0  0  0
 13 31  1  0  0  0
 14 15  2  0  0  0
 14102  1  0  0  0
 15103  1  0  0  0
 16 17  2  0  0  0
 16 21  1  0  0  0
 16 31  1  0  0  0
 17 18  1  0  0  0
 17104  1  0  0  0
 18 19  2  0  0  0
 18105  1  0  0  0
 19 20  1  0  0  0
 19 24  1  0  0  0
 20 21  2  0  0  0
 20106  1  0  0  0
 21 23  1  0  0  0
 22 28  1  0  0  0
 22 32  2  0  0  0
 26 27  1  0  0  0
 28107  1  0  0  0
 28108  1  0  0  0
 29109  1  0  0  0
 29110  1  0  0  0
 33 34  1  0  0  0
 33 66  1  0  0  0
 33 70  2  0  0  0
 34 36  1  0  0  0
 34 59  1  0  0  0
 34111  1  0  0  0
 35 44  2  0  0  0
 35 45  1  0  0  0
 35 68  1  0  0  0
 36 56  1  0  0  0
 36112  1  0  0  0
 37 39  1  0  0  0
 37 47  1  0  0  0
 37 66  1  0  0  0
 37113  1  0  0  0
 38 43  2  0  0  0
 38 46  1  0  0  0
 38 47  1  0  0  0
 39 64  1  0  0  0
 39 67  2  0  0  0
 40 52  1  0  0  0
 40 53  2  0  0  0
 40 58  1  0  0  0
 41114  1  0  0  0
 41115  1  0  0  0
 41116  1  0  0  0
 41 48  1  0  0  0
 42 43  1  0  0  0
 42 66  1  0  0  0
 42117  1  0  0  0
 42118  1  0  0  0
 43 44  1  0  0  0
 44119  1  0  0  0
 45 46  2  0  0  0
 45120  1  0  0  0
 46121  1  0  0  0
 47122  1  0  0  0
 47123  1  0  0  0
 48 56  1  0  0  0
 48 65  1  0  0  0
 48124  1  0  0  0
 49 50  1  0  0  0
 49 53  1  0  0  0
 49 64  1  0  0  0
 49125  1  0  0  0
 50 51  1  0  0  0
 50126  1  0  0  0
 50127  1  0  0  0
 51 52  1  0  0  0
 51128  1  0  0  0
 51129  1  0  0  0
 52130  1  0  0  0
 52131  1  0  0  0
 53 54  1  0  0  0
 54 55  2  0  0  0
 54132  1  0  0  0
 55 57  1  0  0  0
 55133  1  0  0  0
 56 69  2  0  0  0
 57 58  2  0  0  0
 57134  1  0  0  0
 58135  1  0  0  0
 59 60  1  0  0  0
 59 61  1  0  0  0
 59 62  1  0  0  0
 60136  1  0  0  0
 60137  1  0  0  0
 60138  1  0  0  0
 61139  1  0  0  0
 61140  1  0  0  0
 61141  1  0  0  0
 62142  1  0  0  0
 62143  1  0  0  0
 62144  1  0  0  0
 63 65  1  0  0  0
 63145  1  0  0  0
 63146  1  0  0  0
 63147  1  0  0  0
 64148  1  0  0  0
 65149  1  0  0  0
 68 87  1  0  0  0
 71 73  2  0  0  0
 71 89  1  0  0  0
 71150  1  0  0  0
 72 74  2  0  0  0
 72 89  1  0  0  0
 72151  1  0  0  0
 73 74  1  0  0  0
 73 78  1  0  0  0
 74 79  1  0  0  0
 75 80  1  0  0  0
 75152  1  0  0  0
 75153  1  0  0  0
 75154  1  0  0  0
 76155  1  0  0  0
 76156  1  0  0  0
 76157  1  0  0  0
 76 88  1  0  0  0
 77 90  1  0  0  0
 77158  1  0  0  0
 77159  1  0  0  0
 77160  1  0  0  0
 78 81  1  0  0  0
 78161  1  0  0  0
 78162  1  0  0  0
 79 82  1  0  0  0
 79163  1  0  0  0
 79164  1  0  0  0
 80 83  1  0  0  0
 80165  1  0  0  0
 80166  1  0  0  0
 81 83  1  0  0  0
 81167  1  0  0  0
 81168  1  0  0  0
 82 88  1  0  0  0
 82169  1  0  0  0
 82170  1  0  0  0
 83171  1  0  0  0
 83172  1  0  0  0
 84 87  1  0  0  0
 84 88  1  0  0  0
 84173  1  0  0  0
 84174  1  0  0  0
 85 86  1  0  0  0
 85 89  1  0  0  0
 85175  1  0  0  0
 85176  1  0  0  0
 86 90  1  0  0  0
 86177  1  0  0  0
 86178  1  0  0  0
 87179  1  0  0  0
 87180  1  0  0  0
 88181  1  0  0  0
M  ISO  4   1 100  68 101  87 101  90 100
M  END
> <chiral flag>
0

> <version>
0

> <s_m_source_file>
/data/baiqing/PycharmProjects/Reinvent-master-3.2/result/LINK_invent/BTK/process_docking_weight1_custom_sum_contain_oxygen_bond_distance_aromatic_linkinvent_7_9_3/rearranged_h_0094.sdf

> <i_m_source_file_index>
26

> <r_mmod_Potential_Energy-OPLS-2005>
108.722694396973

> <r_mmod_Stretch_Energy-OPLS-2005>
35.359375

> <r_mmod_Bend_Energy-OPLS-2005>
107.654243469238

> <r_mmod_Torsional_Energy-OPLS-2005>
315.176177978516

> <r_mmod_Improper_Torsional_Energy-OPLS-2005>
5.35810613632202

> <r_mmod_Van_der_Waal_Energy-OPLS-2005>
127.274627685547

> <r_mmod_Electrostatic_Energy-OPLS-2005>
-309.846008300781

> <r_mmod_Solvation_Energy-OPLS-2005>
-181.167846679688

> <b_mmod_Minimization_Converged-OPLS-2005>
0

> <r_mmod_RMS_Derivative-OPLS-2005>
1.10314071178436

$$$$
26
                    3D
 Structure written by MMmdl.
167174  0  0  1  0            999 V2000
  -30.7188  -14.4376   20.7024 C   0  0  0  0  0  0
  -30.4444  -12.3457   19.4059 C   0  0  0  0  0  0
  -29.4966  -12.5368   18.2043 C   0  0  0  0  0  0
  -28.0197  -12.3848   18.6166 C   0  0  0  0  0  0
  -27.6686  -13.2048   19.8841 C   0  0  2  0  0  0
  -28.7050  -12.9452   20.9977 C   0  0  0  0  0  0
  -25.2618  -13.8170   20.5680 C   0  0  0  0  0  0
  -24.1847  -13.0430   20.9163 C   0  0  0  0  0  0
  -24.6400  -11.6906   20.8716 C   0  0  0  0  0  0
  -23.9063  -10.4290   21.0395 C   0  0  0  0  0  0
  -24.3615   -9.4211   21.9172 C   0  0  0  0  0  0
  -23.6292   -8.2248   22.0744 C   0  0  0  0  0  0
  -22.4278   -8.0283   21.3537 C   0  0  0  0  0  0
  -21.9915   -9.0257   20.4639 C   0  0  0  0  0  0
  -22.7240  -10.2140   20.3046 C   0  0  0  0  0  0
  -21.6848   -6.0741   22.5283 C   0  0  0  0  0  0
  -21.4011   -6.5645   23.8218 C   0  0  0  0  0  0
  -21.3653   -5.6797   24.9179 C   0  0  0  0  0  0
  -21.6040   -4.3056   24.7222 C   0  0  0  0  0  0
  -21.8823   -3.8145   23.4343 C   0  0  0  0  0  0
  -21.9196   -4.6962   22.3403 C   0  0  0  0  0  0
  -22.7875  -13.5232   21.1823 C   0  0  0  0  0  0
  -22.1666   -4.2147   21.0979 F   0  0  0  0  0  0
  -21.5624   -3.4541   25.7738 F   0  0  0  0  0  0
  -30.0415  -13.2813   20.4663 N   0  0  0  0  0  0
  -26.3047  -12.9320   20.3376 N   0  0  0  0  0  0
  -25.9325  -11.6481   20.5753 N   0  0  0  0  0  0
  -22.0517  -12.8223   22.0391 N   0  0  0  0  0  0
  -25.4362  -15.1891   20.4123 N   0  0  0  0  0  0
  -31.7843  -14.7229   20.1447 O   0  0  0  0  0  0
  -21.6632   -6.8883   21.4240 O   0  0  0  0  0  0
  -22.3558  -14.5526   20.6663 O   0  0  0  0  0  0
  -24.6156  -31.8701   23.2082 C   0  0  0  0  0  0
  -25.9065  -32.4826   23.8390 C   0  0  1  0  0  0
  -27.2540  -27.4349   20.0913 C   0  0  0  0  0  0
  -25.5945  -33.8622   24.2354 N   0  0  0  0  0  0
  -23.4064  -30.4892   21.5497 C   0  0  2  0  0  0
  -24.8543  -28.9500   20.1147 C   0  0  0  0  0  0
  -22.7417  -29.4672   22.4999 C   0  0  0  0  0  0
  -18.0283  -28.1357   22.8505 C   0  0  0  0  0  0
  -24.1494  -36.7311   23.2630 C   0  0  0  0  0  0
  -25.9330  -30.8295   21.3612 C   0  0  0  0  0  0
  -26.0120  -29.4624   20.7109 C   0  0  0  0  0  0
  -27.2097  -28.7112   20.6999 C   0  0  0  0  0  0
  -26.0730  -26.9330   19.4943 C   0  0  0  0  0  0
  -24.8786  -27.6820   19.5059 C   0  0  0  0  0  0
  -23.6140  -29.8168   20.1655 C   0  0  0  0  0  0
  -25.4110  -36.3117   24.0348 C   0  0  1  0  0  0
  -20.5868  -28.3683   23.1320 C   0  0  2  0  0  0
  -20.6776  -26.9421   22.5423 C   0  0  0  0  0  0
  -19.5762  -26.6378   21.5223 C   0  0  0  0  0  0
  -18.1925  -26.7913   22.1616 C   0  0  0  0  0  0
  -19.1527  -28.8836   23.2906 C   0  0  0  0  0  0
  -18.9461  -30.1432   23.8930 C   0  0  0  0  0  0
  -17.6466  -30.6581   24.0564 C   0  0  0  0  0  0
  -25.9053  -34.9479   23.5144 C   0  0  0  0  0  0
  -16.5356  -29.9091   23.6294 C   0  0  0  0  0  0
  -16.7275  -28.6485   23.0356 C   0  0  0  0  0  0
  -26.4489  -31.6573   25.0689 C   0  0  0  0  0  0
  -25.3786  -31.3681   26.1462 C   0  0  0  0  0  0
  -27.0294  -30.3012   24.6040 C   0  0  0  0  0  0
  -27.6097  -32.4267   25.7439 C   0  0  0  0  0  0
  -27.5615  -37.1774   24.8447 C   0  0  0  0  0  0
  -21.4148  -29.3034   22.3698 N   0  0  0  0  0  0
  -26.4287  -37.3811   23.9444 N   0  0  0  0  0  0
  -24.6704  -31.0761   22.0998 N   0  0  0  0  0  0
  -23.4167  -28.8237   23.3076 O   0  0  0  0  0  0
  -28.4497  -26.7372   20.1105 O   0  0  0  0  0  0
  -26.5574  -34.8926   22.4684 O   0  0  0  0  0  0
  -23.5342  -32.1471   23.7455 O   0  0  0  0  0  0
  -27.9595  -20.1214   19.3503 C   0  0  0  0  0  0
  -32.2874  -20.5147   20.4233 C   0  0  0  0  0  0
  -28.9871  -21.1785   18.9199 C   0  0  0  0  0  0
  -29.8648  -24.7555   20.0720 C   0  0  0  0  0  0
  -30.1829  -23.3691   19.4561 C   0  0  0  0  0  0
  -30.6627  -17.7118   21.1622 C   0  0  0  0  0  0
  -30.5893  -16.5329   22.1625 C   0  0  0  0  0  0
  -30.8521  -19.0951   21.8494 C   0  0  0  0  0  0
  -30.1382  -21.4476   21.2438 C   0  0  0  0  0  0
  -28.4761  -25.3547   19.7294 C   0  0  0  0  0  0
  -29.4172  -22.1512   20.0455 C   0  0  2  0  0  0
  -30.1270  -15.2590   21.5891 N   0  0  0  0  0  0
  -30.9031  -20.2184   20.8624 N   0  3  1  0  0  0
  -31.4764  -12.5078   19.0883 H   0  0  0  0  0  0
  -30.4050  -11.3201   19.7763 H   0  0  0  0  0  0
  -29.7377  -11.8229   17.4159 H   0  0  0  0  0  0
  -29.6520  -13.5285   17.7752 H   0  0  0  0  0  0
  -27.8270  -11.3275   18.7951 H   0  0  0  0  0  0
  -27.3688  -12.6815   17.7930 H   0  0  0  0  0  0
  -27.7241  -14.2596   19.6107 H   0  0  0  0  0  0
  -28.6889  -11.8955   21.2940 H   0  0  0  0  0  0
  -28.4337  -13.4944   21.9002 H   0  0  0  0  0  0
  -25.2761   -9.5690   22.4751 H   0  0  0  0  0  0
  -23.9995   -7.4646   22.7470 H   0  0  0  0  0  0
  -21.0838   -8.8781   19.8946 H   0  0  0  0  0  0
  -22.3689  -10.9685   19.6157 H   0  0  0  0  0  0
  -21.2003   -7.6149   23.9719 H   0  0  0  0  0  0
  -21.1468   -6.0525   25.9088 H   0  0  0  0  0  0
  -22.0607   -2.7606   23.2851 H   0  0  0  0  0  0
  -22.4133  -11.9884   22.4776 H   0  0  0  0  0  0
  -21.1128  -13.1253   22.2576 H   0  0  0  0  0  0
  -24.6743  -15.8505   20.5190 H   0  0  0  0  0  0
  -26.2976  -15.6248   20.1071 H   0  0  0  0  0  0
  -26.7158  -32.5546   23.1178 H   0  0  0  0  0  0
  -25.0111  -33.9766   25.0518 H   0  0  0  0  0  0
  -22.7001  -31.3081   21.4079 H   0  0  0  0  0  0
  -23.3798  -35.9591   23.3198 H   0  0  0  0  0  0
  -24.3604  -36.9027   22.2065 H   0  0  0  0  0  0
  -23.7167  -37.6454   23.6707 H   0  0  0  0  0  0
  -26.0379  -31.5905   20.5864 H   0  0  0  0  0  0
  -26.8232  -30.8897   21.9750 H   0  0  0  0  0  0
  -28.1021  -29.1028   21.1682 H   0  0  0  0  0  0
  -26.0603  -25.9657   19.0148 H   0  0  0  0  0  0
  -23.9889  -27.2782   19.0419 H   0  0  0  0  0  0
  -23.7174  -30.5929   19.4067 H   0  0  0  0  0  0
  -22.7390  -29.2358   19.8692 H   0  0  0  0  0  0
  -25.1244  -36.1978   25.0832 H   0  0  0  0  0  0
  -20.9949  -28.3261   24.1452 H   0  0  0  0  0  0
  -20.5709  -26.2293   23.3603 H   0  0  0  0  0  0
  -21.6649  -26.7465   22.1221 H   0  0  0  0  0  0
  -19.6925  -25.6302   21.1214 H   0  0  0  0  0  0
  -19.6680  -27.3202   20.6769 H   0  0  0  0  0  0
  -17.4209  -26.6700   21.3984 H   0  0  0  0  0  0
  -18.0305  -26.0020   22.8983 H   0  0  0  0  0  0
  -19.7952  -30.7221   24.2318 H   0  0  0  0  0  0
  -17.5036  -31.6251   24.5181 H   0  0  0  0  0  0
  -15.5353  -30.3014   23.7594 H   0  0  0  0  0  0
  -15.8679  -28.0787   22.7096 H   0  0  0  0  0  0
  -24.5941  -30.7049   25.7812 H   0  0  0  0  0  0
  -24.9005  -32.2843   26.4937 H   0  0  0  0  0  0
  -25.8153  -30.8824   27.0202 H   0  0  0  0  0  0
  -26.2799  -29.6753   24.1177 H   0  0  0  0  0  0
  -27.4175  -29.7241   25.4445 H   0  0  0  0  0  0
  -27.8603  -30.4325   23.9098 H   0  0  0  0  0  0
  -27.2778  -33.3614   26.1971 H   0  0  0  0  0  0
  -28.3921  -32.6735   25.0253 H   0  0  0  0  0  0
  -28.0749  -31.8402   26.5370 H   0  0  0  0  0  0
  -28.2538  -38.0172   24.7653 H   0  0  0  0  0  0
  -28.1196  -36.2699   24.6067 H   0  0  0  0  0  0
  -27.2337  -37.1194   25.8843 H   0  0  0  0  0  0
  -20.9316  -29.8749   21.6910 H   0  0  0  0  0  0
  -26.0173  -38.2866   24.1544 H   0  0  0  0  0  0
  -27.6685  -19.4981   18.5022 H   0  0  0  0  0  0
  -27.0557  -20.5926   19.7367 H   0  0  0  0  0  0
  -28.3383  -19.4589   20.1256 H   0  0  0  0  0  0
  -32.8211  -19.6017   20.1597 H   0  0  0  0  0  0
  -32.8498  -21.0133   21.2137 H   0  0  0  0  0  0
  -32.2956  -21.1581   19.5428 H   0  0  0  0  0  0
  -28.5357  -21.7530   18.1102 H   0  0  0  0  0  0
  -29.8571  -20.6969   18.4712 H   0  0  0  0  0  0
  -30.6188  -25.4456   19.6924 H   0  0  0  0  0  0
  -30.0100  -24.7260   21.1509 H   0  0  0  0  0  0
  -31.2546  -23.1894   19.5367 H   0  0  0  0  0  0
  -30.0064  -23.4503   18.3809 H   0  0  0  0  0  0
  -29.7520  -17.7236   20.5628 H   0  0  0  0  0  0
  -31.4870  -17.5295   20.4711 H   0  0  0  0  0  0
  -29.8748  -16.7865   22.9484 H   0  0  0  0  0  0
  -31.5495  -16.3854   22.6593 H   0  0  0  0  0  0
  -31.7579  -19.0871   22.4603 H   0  0  0  0  0  0
  -30.0367  -19.2403   22.5609 H   0  0  0  0  0  0
  -29.3560  -21.1781   21.9530 H   0  0  0  0  0  0
  -30.7768  -22.1463   21.7875 H   0  0  0  0  0  0
  -27.6947  -24.7974   20.2483 H   0  0  0  0  0  0
  -28.2883  -25.2740   18.6571 H   0  0  0  0  0  0
  -28.4927  -22.5584   20.4580 H   0  0  0  0  0  0
  -29.2664  -14.8972   21.9767 H   0  0  0  0  0  0
  -30.4091  -19.8740   20.0520 H   0  0  0  0  0  0
  1 25  1  0  0  0
  1 30  2  0  0  0
  1 82  1  0  0  0
  2  3  1  0  0  0
  2 25  1  0  0  0
  2 84  1  0  0  0
  2 85  1  0  0  0
  3  4  1  0  0  0
  3 86  1  0  0  0
  3 87  1  0  0  0
  4  5  1  0  0  0
  4 88  1  0  0  0
  4 89  1  0  0  0
  5  6  1  0  0  0
  5 26  1  0  0  0
  5 90  1  0  0  0
  6 25  1  0  0  0
  6 91  1  0  0  0
  6 92  1  0  0  0
  7  8  2  0  0  0
  7 26  1  0  0  0
  7 29  1  0  0  0
  8  9  1  0  0  0
  8 22  1  0  0  0
  9 10  1  0  0  0
  9 27  2  0  0  0
 10 11  2  0  0  0
 10 15  1  0  0  0
 11 12  1  0  0  0
 11 93  1  0  0  0
 12 13  2  0  0  0
 12 94  1  0  0  0
 13 14  1  0  0  0
 13 31  1  0  0  0
 14 15  2  0  0  0
 14 95  1  0  0  0
 15 96  1  0  0  0
 16 17  2  0  0  0
 16 21  1  0  0  0
 16 31  1  0  0  0
 17 18  1  0  0  0
 17 97  1  0  0  0
 18 19  2  0  0  0
 18 98  1  0  0  0
 19 20  1  0  0  0
 19 24  1  0  0  0
 20 21  2  0  0  0
 20 99  1  0  0  0
 21 23  1  0  0  0
 22 28  1  0  0  0
 22 32  2  0  0  0
 26 27  1  0  0  0
 28100  1  0  0  0
 28101  1  0  0  0
 29102  1  0  0  0
 29103  1  0  0  0
 33 34  1  0  0  0
 33 66  1  0  0  0
 33 70  2  0  0  0
 34 36  1  0  0  0
 34 59  1  0  0  0
 34104  1  0  0  0
 35 44  2  0  0  0
 35 45  1  0  0  0
 35 68  1  0  0  0
 36 56  1  0  0  0
 36105  1  0  0  0
 37 39  1  0  0  0
 37 47  1  0  0  0
 37 66  1  0  0  0
 37106  1  0  0  0
 38 43  2  0  0  0
 38 46  1  0  0  0
 38 47  1  0  0  0
 39 64  1  0  0  0
 39 67  2  0  0  0
 40 52  1  0  0  0
 40 53  2  0  0  0
 40 58  1  0  0  0
 41107  1  0  0  0
 41108  1  0  0  0
 41109  1  0  0  0
 41 48  1  0  0  0
 42 43  1  0  0  0
 42 66  1  0  0  0
 42110  1  0  0  0
 42111  1  0  0  0
 43 44  1  0  0  0
 44112  1  0  0  0
 45 46  2  0  0  0
 45113  1  0  0  0
 46114  1  0  0  0
 47115  1  0  0  0
 47116  1  0  0  0
 48 56  1  0  0  0
 48 65  1  0  0  0
 48117  1  0  0  0
 49 50  1  0  0  0
 49 53  1  0  0  0
 49 64  1  0  0  0
 49118  1  0  0  0
 50 51  1  0  0  0
 50119  1  0  0  0
 50120  1  0  0  0
 51 52  1  0  0  0
 51121  1  0  0  0
 51122  1  0  0  0
 52123  1  0  0  0
 52124  1  0  0  0
 53 54  1  0  0  0
 54 55  2  0  0  0
 54125  1  0  0  0
 55 57  1  0  0  0
 55126  1  0  0  0
 56 69  2  0  0  0
 57 58  2  0  0  0
 57127  1  0  0  0
 58128  1  0  0  0
 59 60  1  0  0  0
 59 61  1  0  0  0
 59 62  1  0  0  0
 60129  1  0  0  0
 60130  1  0  0  0
 60131  1  0  0  0
 61132  1  0  0  0
 61133  1  0  0  0
 61134  1  0  0  0
 62135  1  0  0  0
 62136  1  0  0  0
 62137  1  0  0  0
 63 65  1  0  0  0
 63138  1  0  0  0
 63139  1  0  0  0
 63140  1  0  0  0
 64141  1  0  0  0
 65142  1  0  0  0
 68 80  1  0  0  0
 71 73  1  0  0  0
 71143  1  0  0  0
 71144  1  0  0  0
 71145  1  0  0  0
 72146  1  0  0  0
 72147  1  0  0  0
 72148  1  0  0  0
 72 83  1  0  0  0
 73149  1  0  0  0
 73150  1  0  0  0
 73 81  1  0  0  0
 74 75  1  0  0  0
 74 80  1  0  0  0
 74151  1  0  0  0
 74152  1  0  0  0
 75 81  1  0  0  0
 75153  1  0  0  0
 75154  1  0  0  0
 76 77  1  0  0  0
 76 78  1  0  0  0
 76155  1  0  0  0
 76156  1  0  0  0
 77 82  1  0  0  0
 77157  1  0  0  0
 77158  1  0  0  0
 78 83  1  0  0  0
 78159  1  0  0  0
 78160  1  0  0  0
 79 81  1  0  0  0
 79 83  1  0  0  0
 79161  1  0  0  0
 79162  1  0  0  0
 80163  1  0  0  0
 80164  1  0  0  0
 81165  1  0  0  0
 82166  1  0  0  0
 83167  1  0  0  0
M  CHG  1  83   1
M  ISO  4   1 100  68 101  80 101  82 100
M  END
> <chiral flag>
0

> <version>
0

> <s_m_source_file>
/data/baiqing/PycharmProjects/Reinvent-master-3.2/result/LINK_invent/BTK/process_docking_weight1_custom_sum_contain_oxygen_bond_distance_aromatic_linkinvent_7_9_3/rearranged_h_0094.sdf

> <i_m_source_file_index>
27

> <r_mmod_Potential_Energy-OPLS-2005>
-123.32559967041

> <r_mmod_Stretch_Energy-OPLS-2005>
39.6484527587891

> <r_mmod_Bend_Energy-OPLS-2005>
111.821388244629

> <r_mmod_Torsional_Energy-OPLS-2005>
235.572738647461

> <r_mmod_Improper_Torsional_Energy-OPLS-2005>
1.70462965965271

> <r_mmod_Van_der_Waal_Energy-OPLS-2005>
133.169784545898

> <r_mmod_Electrostatic_Energy-OPLS-2005>
-227.946929931641

> <r_mmod_Solvation_Energy-OPLS-2005>
-429.270446777344

> <b_mmod_Minimization_Converged-OPLS-2005>
0

> <r_mmod_RMS_Derivative-OPLS-2005>
3.57241535186768

$$$$
27
                    3D
 Structure written by MMmdl.
179187  0  0  1  0            999 V2000
  -30.3012  -15.7424   20.3203 C   0  0  0  0  0  0
  -30.4208  -13.1548   19.5505 C   0  0  0  0  0  0
  -29.5544  -12.6774   18.3445 C   0  0  0  0  0  0
  -28.1397  -12.2976   18.7989 C   0  0  0  0  0  0
  -27.5998  -13.3171   19.8235 C   0  0  2  0  0  0
  -28.6111  -13.7007   20.9350 C   0  0  0  0  0  0
  -25.2349  -13.8309   20.5829 C   0  0  0  0  0  0
  -24.1742  -13.0440   20.9275 C   0  0  0  0  0  0
  -24.6448  -11.6947   20.8783 C   0  0  0  0  0  0
  -23.9166  -10.4294   21.0440 C   0  0  0  0  0  0
  -24.3700   -9.4212   21.9221 C   0  0  0  0  0  0
  -23.6343   -8.2255   22.0775 C   0  0  0  0  0  0
  -22.4309   -8.0341   21.3568 C   0  0  0  0  0  0
  -21.9991   -9.0319   20.4637 C   0  0  0  0  0  0
  -22.7347  -10.2171   20.3066 C   0  0  0  0  0  0
  -21.6858   -6.0784   22.5288 C   0  0  0  0  0  0
  -21.4020   -6.5677   23.8226 C   0  0  0  0  0  0
  -21.3650   -5.6818   24.9187 C   0  0  0  0  0  0
  -21.6016   -4.3077   24.7221 C   0  0  0  0  0  0
  -21.8828   -3.8186   23.4338 C   0  0  0  0  0  0
  -21.9198   -4.7011   22.3406 C   0  0  0  0  0  0
  -22.7761  -13.5172   21.1901 C   0  0  0  0  0  0
  -22.1671   -4.2219   21.0974 F   0  0  0  0  0  0
  -21.5630   -3.4549   25.7719 F   0  0  0  0  0  0
  -29.7747  -14.3571   20.2782 N   0  0  0  0  0  0
  -26.2812  -12.9648   20.3316 N   0  0  0  0  0  0
  -25.9393  -11.6698   20.5708 N   0  0  0  0  0  0
  -22.0413  -12.8153   22.0456 N   0  0  0  0  0  0
  -25.3920  -15.2062   20.4270 N   0  0  0  0  0  0
  -31.5294  -15.6442   20.1270 O   0  0  0  0  0  0
  -21.6647   -6.8952   21.4260 O   0  0  0  0  0  0
  -22.3423  -14.5465   20.6715 O   0  0  0  0  0  0
  -24.6963  -31.7841   23.1485 C   0  0  0  0  0  0
  -25.9502  -32.4388   23.8043 C   0  0  1  0  0  0
  -27.2172  -26.5622   20.2130 C   0  0  0  0  0  0
  -25.6017  -33.8216   24.1893 N   0  0  0  0  0  0
  -23.5322  -30.3921   21.4901 C   0  0  2  0  0  0
  -25.0237  -28.7428   20.0823 C   0  0  0  0  0  0
  -22.7651  -29.4384   22.4512 C   0  0  0  0  0  0
  -18.0301  -28.1547   22.8399 C   0  0  0  0  0  0
  -24.1501  -36.7119   23.2665 C   0  0  0  0  0  0
  -26.1230  -30.4572   21.4656 C   0  0  0  0  0  0
  -26.1865  -29.0151   20.8114 C   0  0  0  0  0  0
  -27.2492  -27.9440   20.8826 C   0  0  0  0  0  0
  -26.1311  -26.6446   19.2978 C   0  0  0  0  0  0
  -25.0636  -27.5993   19.2745 C   0  0  0  0  0  0
  -23.8061  -29.6929   20.1244 C   0  0  0  0  0  0
  -25.4153  -36.2841   24.0279 C   0  0  1  0  0  0
  -20.5857  -28.4058   23.1206 C   0  0  2  0  0  0
  -20.6610  -26.9608   22.6046 C   0  0  0  0  0  0
  -19.5949  -26.6358   21.5489 C   0  0  0  0  0  0
  -18.1979  -26.8091   22.1521 C   0  0  0  0  0  0
  -19.1506  -28.9121   23.2751 C   0  0  0  0  0  0
  -18.9393  -30.1681   23.8821 C   0  0  0  0  0  0
  -17.6372  -30.6703   24.0590 C   0  0  0  0  0  0
  -25.9139  -34.9237   23.4940 C   0  0  0  0  0  0
  -16.5304  -29.9133   23.6372 C   0  0  0  0  0  0
  -16.7265  -28.6583   23.0332 C   0  0  0  0  0  0
  -26.4640  -31.6498   25.0718 C   0  0  0  0  0  0
  -25.3640  -31.3809   26.1270 C   0  0  0  0  0  0
  -27.0649  -30.2848   24.6757 C   0  0  0  0  0  0
  -27.6029  -32.4409   25.7548 C   0  0  0  0  0  0
  -27.5548  -37.1720   24.8476 C   0  0  0  0  0  0
  -21.4291  -29.3049   22.3169 N   0  0  0  0  0  0
  -26.4271  -37.3612   23.9399 N   0  0  0  0  0  0
  -24.8060  -30.9160   22.0841 N   0  0  0  0  0  0
  -23.3878  -28.8223   23.3135 O   0  0  0  0  0  0
  -27.8388  -25.0353   20.4287 O   0  0  0  0  0  0
  -26.5773  -34.8833   22.4552 O   0  0  0  0  0  0
  -23.5953  -32.1041   23.6304 O   0  0  0  0  0  0
  -29.1860  -23.7000   21.5826 C   0  0  0  0  0  0
  -28.1035  -24.7724   22.5330 C   0  0  0  0  0  0
  -26.3758  -24.9730   22.0274 C   0  0  0  0  0  0
  -28.5929  -22.6065   20.3815 C   0  0  0  0  0  0
  -25.9336  -23.9803   20.5943 C   0  0  0  0  0  0
  -25.1803  -26.9111   25.1388 C   0  0  0  0  0  0
  -22.8095  -25.5561   20.3998 C   0  0  0  0  0  0
  -23.7472  -22.7908   21.3324 C   0  0  0  0  0  0
  -24.5809  -22.4345   19.0418 C   0  0  0  0  0  0
  -28.1987  -24.3584   23.9549 C   0  0  0  0  0  0
  -25.3677  -25.5381   23.0185 C   0  0  0  0  0  0
  -28.8104  -20.6857   20.5819 C   0  0  0  0  0  0
  -25.8410  -26.8013   23.7620 C   0  0  0  0  0  0
  -23.5505  -24.5676   19.5085 C   0  0  0  0  0  0
  -27.7394  -22.9252   23.6941 C   0  0  0  0  0  0
  -29.7134  -18.9642   20.1312 C   0  0  0  0  0  0
  -27.1383  -22.8619   22.2206 C   0  0  0  0  0  0
  -24.4811  -23.5110   20.1731 C   0  0  0  0  0  0
  -27.0816  -22.9822   19.8833 N   0  0  0  0  0  0
  -29.5753  -17.1554   20.3930 N   0  0  0  0  0  0
  -31.4040  -13.4235   19.1641 H   0  0  0  0  0  0
  -30.6135  -12.3346   20.2434 H   0  0  0  0  0  0
  -30.0237  -11.8273   17.8467 H   0  0  0  0  0  0
  -29.4954  -13.4804   17.6075 H   0  0  0  0  0  0
  -28.1915  -11.3127   19.2655 H   0  0  0  0  0  0
  -27.4653  -12.2040   17.9468 H   0  0  0  0  0  0
  -27.4519  -14.2246   19.2365 H   0  0  0  0  0  0
  -28.8930  -12.8347   21.5369 H   0  0  0  0  0  0
  -28.1489  -14.4123   21.6252 H   0  0  0  0  0  0
  -25.2851   -9.5681   22.4802 H   0  0  0  0  0  0
  -24.0056   -7.4643   22.7488 H   0  0  0  0  0  0
  -21.0940   -8.8848   19.8922 H   0  0  0  0  0  0
  -22.3845  -10.9739   19.6177 H   0  0  0  0  0  0
  -21.1998   -7.6178   23.9772 H   0  0  0  0  0  0
  -21.1458   -6.0520   25.9094 H   0  0  0  0  0  0
  -22.0599   -2.7656   23.2801 H   0  0  0  0  0  0
  -22.4023  -11.9809   22.4825 H   0  0  0  0  0  0
  -21.1011  -13.1172   22.2616 H   0  0  0  0  0  0
  -24.6210  -15.8515   20.5522 H   0  0  0  0  0  0
  -26.2242  -15.6566   20.0707 H   0  0  0  0  0  0
  -26.7603  -32.4817   23.0757 H   0  0  0  0  0  0
  -25.0057  -33.9238   24.9972 H   0  0  0  0  0  0
  -22.8739  -31.2400   21.2877 H   0  0  0  0  0  0
  -23.3770  -35.9446   23.3291 H   0  0  0  0  0  0
  -24.3577  -36.8813   22.2091 H   0  0  0  0  0  0
  -23.7263  -37.6292   23.6761 H   0  0  0  0  0  0
  -26.3531  -31.1649   20.6684 H   0  0  0  0  0  0
  -26.9684  -30.5300   22.1346 H   0  0  0  0  0  0
  -28.0534  -28.1225   21.5817 H   0  0  0  0  0  0
  -26.0307  -25.8012   18.6293 H   0  0  0  0  0  0
  -24.2414  -27.4260   18.5937 H   0  0  0  0  0  0
  -23.9704  -30.4588   19.3671 H   0  0  0  0  0  0
  -22.9189  -29.1478   19.7985 H   0  0  0  0  0  0
  -25.1372  -36.1603   25.0769 H   0  0  0  0  0  0
  -20.9962  -28.4000   24.1317 H   0  0  0  0  0  0
  -20.5132  -26.2782   23.4436 H   0  0  0  0  0  0
  -21.6731  -26.7784   22.2702 H   0  0  0  0  0  0
  -19.7206  -25.6186   21.1778 H   0  0  0  0  0  0
  -19.7148  -27.2932   20.6867 H   0  0  0  0  0  0
  -17.4421  -26.6957   21.3729 H   0  0  0  0  0  0
  -18.0106  -26.0271   22.8886 H   0  0  0  0  0  0
  -19.7863  -30.7545   24.2112 H   0  0  0  0  0  0
  -17.4872  -31.6370   24.5218 H   0  0  0  0  0  0
  -15.5291  -30.2973   23.7755 H   0  0  0  0  0  0
  -15.8671  -28.0906   22.7003 H   0  0  0  0  0  0
  -24.5921  -30.7064   25.7548 H   0  0  0  0  0  0
  -24.8728  -32.3021   26.4414 H   0  0  0  0  0  0
  -25.7806  -30.9168   27.0221 H   0  0  0  0  0  0
  -26.3427  -29.6504   24.1678 H   0  0  0  0  0  0
  -27.3923  -29.7293   25.5553 H   0  0  0  0  0  0
  -27.9462  -30.3944   24.0440 H   0  0  0  0  0  0
  -27.2529  -33.3802   26.1851 H   0  0  0  0  0  0
  -28.3993  -32.6836   25.0490 H   0  0  0  0  0  0
  -28.0526  -31.8710   26.5695 H   0  0  0  0  0  0
  -28.2559  -38.0012   24.7465 H   0  0  0  0  0  0
  -28.1041  -36.2535   24.6380 H   0  0  0  0  0  0
  -27.2248  -37.1440   25.8871 H   0  0  0  0  0  0
  -20.9647  -29.8299   21.5907 H   0  0  0  0  0  0
  -26.0094  -38.2676   24.1334 H   0  0  0  0  0  0
  -30.0649  -23.3554   22.1142 H   0  0  0  0  0  0
  -25.4536  -27.8413   25.6354 H   0  0  0  0  0  0
  -25.4820  -26.0823   25.7765 H   0  0  0  0  0  0
  -24.0929  -26.8824   25.0438 H   0  0  0  0  0  0
  -22.0823  -26.1175   19.8118 H   0  0  0  0  0  0
  -23.4686  -26.2916   20.8449 H   0  0  0  0  0  0
  -22.2684  -25.0386   21.1893 H   0  0  0  0  0  0
  -24.2716  -21.8926   21.6595 H   0  0  0  0  0  0
  -22.7536  -22.4639   21.0234 H   0  0  0  0  0  0
  -23.6196  -23.4288   22.2051 H   0  0  0  0  0  0
  -25.1492  -21.5523   19.3367 H   0  0  0  0  0  0
  -25.0391  -22.8362   18.1347 H   0  0  0  0  0  0
  -23.6072  -22.0474   18.7449 H   0  0  0  0  0  0
  -27.5096  -24.8743   24.6178 H   0  0  0  0  0  0
  -29.2127  -24.4235   24.3499 H   0  0  0  0  0  0
  -25.1789  -24.7450   23.7433 H   0  0  0  0  0  0
  -24.4094  -25.7417   22.5622 H   0  0  0  0  0  0
  -27.7775  -20.3927   20.3923 H   0  0  0  0  0  0
  -28.9294  -20.6408   21.6641 H   0  0  0  0  0  0
  -26.9197  -26.8252   23.9035 H   0  0  0  0  0  0
  -25.6256  -27.6817   23.1599 H   0  0  0  0  0  0
  -24.0506  -25.0727   18.6896 H   0  0  0  0  0  0
  -22.7368  -24.0385   19.0112 H   0  0  0  0  0  0
  -27.0147  -22.5922   24.4388 H   0  0  0  0  0  0
  -28.5903  -22.2497   23.7830 H   0  0  0  0  0  0
  -29.7307  -19.0102   19.0424 H   0  0  0  0  0  0
  -30.7516  -19.1396   20.4109 H   0  0  0  0  0  0
  -26.0930  -22.7620   22.5475 H   0  0  0  0  0  0
  -27.1213  -21.8033   21.9555 H   0  0  0  0  0  0
  -28.6092  -16.9552   20.6209 H   0  0  0  0  0  0
  1 25  1  0  0  0
  1 30  2  0  0  0
  1 90  1  0  0  0
  2  3  1  0  0  0
  2 25  1  0  0  0
  2 91  1  0  0  0
  2 92  1  0  0  0
  3  4  1  0  0  0
  3 93  1  0  0  0
  3 94  1  0  0  0
  4  5  1  0  0  0
  4 95  1  0  0  0
  4 96  1  0  0  0
  5  6  1  0  0  0
  5 26  1  0  0  0
  5 97  1  0  0  0
  6 25  1  0  0  0
  6 98  1  0  0  0
  6 99  1  0  0  0
  7  8  2  0  0  0
  7 26  1  0  0  0
  7 29  1  0  0  0
  8  9  1  0  0  0
  8 22  1  0  0  0
  9 10  1  0  0  0
  9 27  2  0  0  0
 10 11  2  0  0  0
 10 15  1  0  0  0
 11 12  1  0  0  0
 11100  1  0  0  0
 12 13  2  0  0  0
 12101  1  0  0  0
 13 14  1  0  0  0
 13 31  1  0  0  0
 14 15  2  0  0  0
 14102  1  0  0  0
 15103  1  0  0  0
 16 17  2  0  0  0
 16 21  1  0  0  0
 16 31  1  0  0  0
 17 18  1  0  0  0
 17104  1  0  0  0
 18 19  2  0  0  0
 18105  1  0  0  0
 19 20  1  0  0  0
 19 24  1  0  0  0
 20 21  2  0  0  0
 20106  1  0  0  0
 21 23  1  0  0  0
 22 28  1  0  0  0
 22 32  2  0  0  0
 26 27  1  0  0  0
 28107  1  0  0  0
 28108  1  0  0  0
 29109  1  0  0  0
 29110  1  0  0  0
 33 34  1  0  0  0
 33 66  1  0  0  0
 33 70  2  0  0  0
 34 36  1  0  0  0
 34 59  1  0  0  0
 34111  1  0  0  0
 35 44  2  0  0  0
 35 45  1  0  0  0
 35 68  1  0  0  0
 36 56  1  0  0  0
 36112  1  0  0  0
 37 39  1  0  0  0
 37 47  1  0  0  0
 37 66  1  0  0  0
 37113  1  0  0  0
 38 43  2  0  0  0
 38 46  1  0  0  0
 38 47  1  0  0  0
 39 64  1  0  0  0
 39 67  2  0  0  0
 40 52  1  0  0  0
 40 53  2  0  0  0
 40 58  1  0  0  0
 41114  1  0  0  0
 41115  1  0  0  0
 41116  1  0  0  0
 41 48  1  0  0  0
 42 43  1  0  0  0
 42 66  1  0  0  0
 42117  1  0  0  0
 42118  1  0  0  0
 43 44  1  0  0  0
 44119  1  0  0  0
 45 46  2  0  0  0
 45120  1  0  0  0
 46121  1  0  0  0
 47122  1  0  0  0
 47123  1  0  0  0
 48 56  1  0  0  0
 48 65  1  0  0  0
 48124  1  0  0  0
 49 50  1  0  0  0
 49 53  1  0  0  0
 49 64  1  0  0  0
 49125  1  0  0  0
 50 51  1  0  0  0
 50126  1  0  0  0
 50127  1  0  0  0
 51 52  1  0  0  0
 51128  1  0  0  0
 51129  1  0  0  0
 52130  1  0  0  0
 52131  1  0  0  0
 53 54  1  0  0  0
 54 55  2  0  0  0
 54132  1  0  0  0
 55 57  1  0  0  0
 55133  1  0  0  0
 56 69  2  0  0  0
 57 58  2  0  0  0
 57134  1  0  0  0
 58135  1  0  0  0
 59 60  1  0  0  0
 59 61  1  0  0  0
 59 62  1  0  0  0
 60136  1  0  0  0
 60137  1  0  0  0
 60138  1  0  0  0
 61139  1  0  0  0
 61140  1  0  0  0
 61141  1  0  0  0
 62142  1  0  0  0
 62143  1  0  0  0
 62144  1  0  0  0
 63 65  1  0  0  0
 63145  1  0  0  0
 63146  1  0  0  0
 63147  1  0  0  0
 64148  1  0  0  0
 65149  1  0  0  0
 68 87  1  0  0  0
 71 72  2  0  0  0
 71 74  1  0  0  0
 71150  1  0  0  0
 72 73  1  0  0  0
 72 80  1  0  0  0
 73 75  2  0  0  0
 73 81  1  0  0  0
 74 82  1  0  0  0
 74 89  2  0  0  0
 75 88  1  0  0  0
 75 89  1  0  0  0
 76 83  1  0  0  0
 76151  1  0  0  0
 76152  1  0  0  0
 76153  1  0  0  0
 77 84  1  0  0  0
 77154  1  0  0  0
 77155  1  0  0  0
 77156  1  0  0  0
 78157  1  0  0  0
 78158  1  0  0  0
 78159  1  0  0  0
 78 88  1  0  0  0
 79 88  1  0  0  0
 79160  1  0  0  0
 79161  1  0  0  0
 79162  1  0  0  0
 80 85  1  0  0  0
 80163  1  0  0  0
 80164  1  0  0  0
 81 83  1  0  0  0
 81165  1  0  0  0
 81166  1  0  0  0
 82 86  1  0  0  0
 82167  1  0  0  0
 82168  1  0  0  0
 83169  1  0  0  0
 83170  1  0  0  0
 84 88  1  0  0  0
 84171  1  0  0  0
 84172  1  0  0  0
 85 87  1  0  0  0
 85173  1  0  0  0
 85174  1  0  0  0
 86 90  1  0  0  0
 86175  1  0  0  0
 86176  1  0  0  0
 87177  1  0  0  0
 87178  1  0  0  0
 90179  1  0  0  0
M  ISO  4   1 100  68 101  87 101  90 100
M  END
> <chiral flag>
0

> <version>
0

> <s_m_source_file>
/data/baiqing/PycharmProjects/Reinvent-master-3.2/result/LINK_invent/BTK/process_docking_weight1_custom_sum_contain_oxygen_bond_distance_aromatic_linkinvent_7_9_3/rearranged_h_0094.sdf

> <i_m_source_file_index>
28

> <r_mmod_Potential_Energy-OPLS-2005>
9565.853515625

> <r_mmod_Stretch_Energy-OPLS-2005>
5746.82958984375

> <r_mmod_Bend_Energy-OPLS-2005>
811.305603027344

> <r_mmod_Torsional_Energy-OPLS-2005>
445.673583984375

> <r_mmod_Improper_Torsional_Energy-OPLS-2005>
49.1323890686035

> <r_mmod_Van_der_Waal_Energy-OPLS-2005>
2002.31921386719

> <r_mmod_Electrostatic_Energy-OPLS-2005>
-485.600860595703

> <r_mmod_Solvation_Energy-OPLS-2005>
-240.364212036133

> <b_mmod_Minimization_Converged-OPLS-2005>
0

> <r_mmod_RMS_Derivative-OPLS-2005>
7.61852121353149

$$$$
28
                    3D
 Structure written by MMmdl.
164172  0  0  1  0            999 V2000
  -30.6941  -14.4954   20.5300 C   0  0  0  0  0  0
  -30.4185  -12.3090   19.4320 C   0  0  0  0  0  0
  -29.4949  -12.5054   18.2115 C   0  0  0  0  0  0
  -28.0163  -12.3662   18.6224 C   0  0  0  0  0  0
  -27.6596  -13.2125   19.8742 C   0  0  2  0  0  0
  -28.7033  -13.0172   20.9987 C   0  0  0  0  0  0
  -25.2565  -13.8173   20.5670 C   0  0  0  0  0  0
  -24.1825  -13.0437   20.9184 C   0  0  0  0  0  0
  -24.6401  -11.6912   20.8747 C   0  0  0  0  0  0
  -23.9071  -10.4295   21.0418 C   0  0  0  0  0  0
  -24.3627   -9.4203   21.9188 C   0  0  0  0  0  0
  -23.6299   -8.2238   22.0752 C   0  0  0  0  0  0
  -22.4280   -8.0285   21.3546 C   0  0  0  0  0  0
  -21.9917   -9.0262   20.4651 C   0  0  0  0  0  0
  -22.7247  -10.2139   20.3067 C   0  0  0  0  0  0
  -21.6846   -6.0737   22.5283 C   0  0  0  0  0  0
  -21.4010   -6.5641   23.8218 C   0  0  0  0  0  0
  -21.3660   -5.6793   24.9179 C   0  0  0  0  0  0
  -21.6043   -4.3056   24.7225 C   0  0  0  0  0  0
  -21.8818   -3.8149   23.4345 C   0  0  0  0  0  0
  -21.9190   -4.6966   22.3402 C   0  0  0  0  0  0
  -22.7846  -13.5224   21.1852 C   0  0  0  0  0  0
  -22.1656   -4.2153   21.0976 F   0  0  0  0  0  0
  -21.5637   -3.4537   25.7735 F   0  0  0  0  0  0
  -30.0323  -13.3099   20.4393 N   0  0  0  0  0  0
  -26.3016  -12.9360   20.3374 N   0  0  0  0  0  0
  -25.9333  -11.6516   20.5782 N   0  0  0  0  0  0
  -22.0501  -12.8210   22.0421 N   0  0  0  0  0  0
  -25.4262  -15.1886   20.4033 N   0  0  0  0  0  0
  -31.8421  -14.6532   20.1078 O   0  0  0  0  0  0
  -21.6637   -6.8886   21.4248 O   0  0  0  0  0  0
  -22.3523  -14.5533   20.6717 O   0  0  0  0  0  0
  -24.6148  -31.8669   23.2082 C   0  0  0  0  0  0
  -25.9036  -32.4818   23.8386 C   0  0  1  0  0  0
  -27.2385  -27.4266   20.1094 C   0  0  0  0  0  0
  -25.5896  -33.8617   24.2321 N   0  0  0  0  0  0
  -23.4045  -30.4879   21.5483 C   0  0  2  0  0  0
  -24.8537  -28.9496   20.1159 C   0  0  0  0  0  0
  -22.7416  -29.4639   22.4982 C   0  0  0  0  0  0
  -18.0275  -28.1359   22.8490 C   0  0  0  0  0  0
  -24.1490  -36.7314   23.2637 C   0  0  0  0  0  0
  -25.9323  -30.8316   21.3606 C   0  0  0  0  0  0
  -26.0128  -29.4641   20.7110 C   0  0  0  0  0  0
  -27.2110  -28.7120   20.6990 C   0  0  0  0  0  0
  -26.0643  -26.9248   19.5103 C   0  0  0  0  0  0
  -24.8744  -27.6800   19.5101 C   0  0  0  0  0  0
  -23.6147  -29.8166   20.1639 C   0  0  0  0  0  0
  -25.4108  -36.3108   24.0336 C   0  0  1  0  0  0
  -20.5867  -28.3648   23.1316 C   0  0  2  0  0  0
  -20.6763  -26.9383   22.5417 C   0  0  0  0  0  0
  -19.5747  -26.6372   21.5204 C   0  0  0  0  0  0
  -18.1926  -26.7910   22.1612 C   0  0  0  0  0  0
  -19.1525  -28.8817   23.2901 C   0  0  0  0  0  0
  -18.9452  -30.1429   23.8903 C   0  0  0  0  0  0
  -17.6456  -30.6568   24.0561 C   0  0  0  0  0  0
  -25.9036  -34.9474   23.5125 C   0  0  0  0  0  0
  -16.5345  -29.9074   23.6318 C   0  0  0  0  0  0
  -16.7266  -28.6489   23.0339 C   0  0  0  0  0  0
  -26.4469  -31.6600   25.0714 C   0  0  0  0  0  0
  -25.3742  -31.3718   26.1474 C   0  0  0  0  0  0
  -27.0289  -30.3042   24.6075 C   0  0  0  0  0  0
  -27.6052  -32.4318   25.7460 C   0  0  0  0  0  0
  -27.5584  -37.1807   24.8463 C   0  0  0  0  0  0
  -21.4140  -29.3021   22.3724 N   0  0  0  0  0  0
  -26.4294  -37.3792   23.9409 N   0  0  0  0  0  0
  -24.6687  -31.0769   22.0978 N   0  0  0  0  0  0
  -23.4185  -28.8189   23.3030 O   0  0  0  0  0  0
  -28.3983  -26.6790   20.0983 O   0  0  0  0  0  0
  -26.5599  -34.8927   22.4686 O   0  0  0  0  0  0
  -23.5338  -32.1417   23.7474 O   0  0  0  0  0  0
  -29.7825  -21.7189   18.5606 C   0  0  0  0  0  0
  -29.8232  -19.3078   18.4608 C   0  0  0  0  0  0
  -30.0396  -20.5442   17.8265 C   0  0  0  0  0  0
  -29.2918  -21.6215   19.8786 C   0  0  0  0  0  0
  -29.3658  -19.2742   19.7908 C   0  0  0  0  0  0
  -32.0679  -20.5930   16.3313 C   0  0  0  0  0  0
  -29.9401  -21.7408   15.5635 C   0  0  0  0  0  0
  -28.9217  -22.8720   20.6952 C   0  0  0  0  0  0
  -29.0743  -17.9154   20.4558 C   0  0  0  0  0  0
  -28.8221  -24.2206   19.9160 C   0  0  0  0  0  0
  -30.3044  -16.9721   20.6145 C   0  0  0  0  0  0
  -28.3369  -25.4110   20.7813 C   0  0  0  0  0  0
  -30.5353  -20.5822   16.3833 C   0  0  0  0  0  0
  -29.1065  -20.4156   20.4856 N   0  0  0  0  0  0
  -29.9480  -15.5587   20.8933 N   0  0  0  0  0  0
  -31.4657  -12.3907   19.1361 H   0  0  0  0  0  0
  -30.3029  -11.3035   19.8400 H   0  0  0  0  0  0
  -29.7369  -11.7828   17.4308 H   0  0  0  0  0  0
  -29.6625  -13.4909   17.7752 H   0  0  0  0  0  0
  -27.8264  -11.3108   18.8211 H   0  0  0  0  0  0
  -27.3670  -12.6383   17.7895 H   0  0  0  0  0  0
  -27.6949  -14.2572   19.5647 H   0  0  0  0  0  0
  -28.6794  -11.9907   21.3681 H   0  0  0  0  0  0
  -28.4751  -13.6456   21.8608 H   0  0  0  0  0  0
  -25.2782   -9.5655   22.4751 H   0  0  0  0  0  0
  -24.0008   -7.4615   22.7451 H   0  0  0  0  0  0
  -21.0855   -8.8788   19.8946 H   0  0  0  0  0  0
  -22.3725  -10.9681   19.6174 H   0  0  0  0  0  0
  -21.2006   -7.6150   23.9719 H   0  0  0  0  0  0
  -21.1484   -6.0525   25.9080 H   0  0  0  0  0  0
  -22.0601   -2.7611   23.2842 H   0  0  0  0  0  0
  -22.4126  -11.9882   22.4816 H   0  0  0  0  0  0
  -21.1124  -13.1233   22.2654 H   0  0  0  0  0  0
  -24.6553  -15.8408   20.5007 H   0  0  0  0  0  0
  -26.2716  -15.6242   20.0588 H   0  0  0  0  0  0
  -26.7107  -32.5536   23.1153 H   0  0  0  0  0  0
  -25.0069  -33.9787   25.0479 H   0  0  0  0  0  0
  -22.6926  -31.3036   21.4067 H   0  0  0  0  0  0
  -23.3746  -35.9656   23.3308 H   0  0  0  0  0  0
  -24.3587  -36.8920   22.2050 H   0  0  0  0  0  0
  -23.7251  -37.6526   23.6643 H   0  0  0  0  0  0
  -26.0439  -31.5966   20.5912 H   0  0  0  0  0  0
  -26.8195  -30.8870   21.9793 H   0  0  0  0  0  0
  -28.1078  -29.1073   21.1557 H   0  0  0  0  0  0
  -26.0723  -25.9499   19.0429 H   0  0  0  0  0  0
  -23.9854  -27.2793   19.0432 H   0  0  0  0  0  0
  -23.7221  -30.5901   19.4020 H   0  0  0  0  0  0
  -22.7388  -29.2352   19.8694 H   0  0  0  0  0  0
  -25.1285  -36.1970   25.0829 H   0  0  0  0  0  0
  -20.9962  -28.3207   24.1434 H   0  0  0  0  0  0
  -20.5647  -26.2257   23.3602 H   0  0  0  0  0  0
  -21.6639  -26.7414   22.1222 H   0  0  0  0  0  0
  -19.6917  -25.6287   21.1224 H   0  0  0  0  0  0
  -19.6694  -27.3186   20.6737 H   0  0  0  0  0  0
  -17.4202  -26.6656   21.4008 H   0  0  0  0  0  0
  -18.0326  -26.0035   22.8988 H   0  0  0  0  0  0
  -19.7930  -30.7236   24.2280 H   0  0  0  0  0  0
  -17.5014  -31.6253   24.5152 H   0  0  0  0  0  0
  -15.5349  -30.2978   23.7635 H   0  0  0  0  0  0
  -15.8667  -28.0820   22.7037 H   0  0  0  0  0  0
  -24.5901  -30.7072   25.7828 H   0  0  0  0  0  0
  -24.8947  -32.2881   26.4926 H   0  0  0  0  0  0
  -25.8103  -30.8892   27.0228 H   0  0  0  0  0  0
  -26.2820  -29.6807   24.1142 H   0  0  0  0  0  0
  -27.4084  -29.7271   25.4517 H   0  0  0  0  0  0
  -27.8646  -30.4367   23.9200 H   0  0  0  0  0  0
  -27.2673  -33.3599   26.2079 H   0  0  0  0  0  0
  -28.3824  -32.6911   25.0261 H   0  0  0  0  0  0
  -28.0758  -31.8422   26.5335 H   0  0  0  0  0  0
  -28.2609  -38.0101   24.7508 H   0  0  0  0  0  0
  -28.1075  -36.2631   24.6283 H   0  0  0  0  0  0
  -27.2309  -37.1456   25.8872 H   0  0  0  0  0  0
  -20.9293  -29.8768   21.6972 H   0  0  0  0  0  0
  -26.0183  -38.2873   24.1410 H   0  0  0  0  0  0
  -29.9454  -22.6835   18.1047 H   0  0  0  0  0  0
  -29.9956  -18.3847   17.9240 H   0  0  0  0  0  0
  -32.4808  -19.7183   16.8338 H   0  0  0  0  0  0
  -32.4749  -21.4808   16.8159 H   0  0  0  0  0  0
  -32.4261  -20.5795   15.3015 H   0  0  0  0  0  0
  -28.8510  -21.7428   15.6162 H   0  0  0  0  0  0
  -30.2167  -21.6546   14.5126 H   0  0  0  0  0  0
  -30.2967  -22.7107   15.9085 H   0  0  0  0  0  0
  -29.6529  -22.9760   21.4966 H   0  0  0  0  0  0
  -27.9650  -22.6781   21.1824 H   0  0  0  0  0  0
  -28.3217  -17.4235   19.8391 H   0  0  0  0  0  0
  -28.6060  -18.0752   21.4279 H   0  0  0  0  0  0
  -28.1429  -24.1012   19.0715 H   0  0  0  0  0  0
  -29.7990  -24.4688   19.5018 H   0  0  0  0  0  0
  -30.9706  -17.3504   21.3907 H   0  0  0  0  0  0
  -30.8774  -17.0038   19.6862 H   0  0  0  0  0  0
  -28.9762  -25.4932   21.6611 H   0  0  0  0  0  0
  -27.3383  -25.1988   21.1676 H   0  0  0  0  0  0
  -30.1985  -19.6592   15.9084 H   0  0  0  0  0  0
  -29.0155  -15.3634   21.2262 H   0  0  0  0  0  0
  1 25  1  0  0  0
  1 30  2  0  0  0
  1 85  1  0  0  0
  2  3  1  0  0  0
  2 25  1  0  0  0
  2 86  1  0  0  0
  2 87  1  0  0  0
  3  4  1  0  0  0
  3 88  1  0  0  0
  3 89  1  0  0  0
  4  5  1  0  0  0
  4 90  1  0  0  0
  4 91  1  0  0  0
  5  6  1  0  0  0
  5 26  1  0  0  0
  5 92  1  0  0  0
  6 25  1  0  0  0
  6 93  1  0  0  0
  6 94  1  0  0  0
  7  8  2  0  0  0
  7 26  1  0  0  0
  7 29  1  0  0  0
  8  9  1  0  0  0
  8 22  1  0  0  0
  9 10  1  0  0  0
  9 27  2  0  0  0
 10 11  2  0  0  0
 10 15  1  0  0  0
 11 12  1  0  0  0
 11 95  1  0  0  0
 12 13  2  0  0  0
 12 96  1  0  0  0
 13 14  1  0  0  0
 13 31  1  0  0  0
 14 15  2  0  0  0
 14 97  1  0  0  0
 15 98  1  0  0  0
 16 17  2  0  0  0
 16 21  1  0  0  0
 16 31  1  0  0  0
 17 18  1  0  0  0
 17 99  1  0  0  0
 18 19  2  0  0  0
 18100  1  0  0  0
 19 20  1  0  0  0
 19 24  1  0  0  0
 20 21  2  0  0  0
 20101  1  0  0  0
 21 23  1  0  0  0
 22 28  1  0  0  0
 22 32  2  0  0  0
 26 27  1  0  0  0
 28102  1  0  0  0
 28103  1  0  0  0
 29104  1  0  0  0
 29105  1  0  0  0
 33 34  1  0  0  0
 33 66  1  0  0  0
 33 70  2  0  0  0
 34 36  1  0  0  0
 34 59  1  0  0  0
 34106  1  0  0  0
 35 44  2  0  0  0
 35 45  1  0  0  0
 35 68  1  0  0  0
 36 56  1  0  0  0
 36107  1  0  0  0
 37 39  1  0  0  0
 37 47  1  0  0  0
 37 66  1  0  0  0
 37108  1  0  0  0
 38 43  2  0  0  0
 38 46  1  0  0  0
 38 47  1  0  0  0
 39 64  1  0  0  0
 39 67  2  0  0  0
 40 52  1  0  0  0
 40 53  2  0  0  0
 40 58  1  0  0  0
 41109  1  0  0  0
 41110  1  0  0  0
 41111  1  0  0  0
 41 48  1  0  0  0
 42 43  1  0  0  0
 42 66  1  0  0  0
 42112  1  0  0  0
 42113  1  0  0  0
 43 44  1  0  0  0
 44114  1  0  0  0
 45 46  2  0  0  0
 45115  1  0  0  0
 46116  1  0  0  0
 47117  1  0  0  0
 47118  1  0  0  0
 48 56  1  0  0  0
 48 65  1  0  0  0
 48119  1  0  0  0
 49 50  1  0  0  0
 49 53  1  0  0  0
 49 64  1  0  0  0
 49120  1  0  0  0
 50 51  1  0  0  0
 50121  1  0  0  0
 50122  1  0  0  0
 51 52  1  0  0  0
 51123  1  0  0  0
 51124  1  0  0  0
 52125  1  0  0  0
 52126  1  0  0  0
 53 54  1  0  0  0
 54 55  2  0  0  0
 54127  1  0  0  0
 55 57  1  0  0  0
 55128  1  0  0  0
 56 69  2  0  0  0
 57 58  2  0  0  0
 57129  1  0  0  0
 58130  1  0  0  0
 59 60  1  0  0  0
 59 61  1  0  0  0
 59 62  1  0  0  0
 60131  1  0  0  0
 60132  1  0  0  0
 60133  1  0  0  0
 61134  1  0  0  0
 61135  1  0  0  0
 61136  1  0  0  0
 62137  1  0  0  0
 62138  1  0  0  0
 62139  1  0  0  0
 63 65  1  0  0  0
 63140  1  0  0  0
 63141  1  0  0  0
 63142  1  0  0  0
 64143  1  0  0  0
 65144  1  0  0  0
 68 82  1  0  0  0
 71 73  2  0  0  0
 71 74  1  0  0  0
 71145  1  0  0  0
 72 73  1  0  0  0
 72 75  2  0  0  0
 72146  1  0  0  0
 73 83  1  0  0  0
 74 78  1  0  0  0
 74 84  2  0  0  0
 75 79  1  0  0  0
 75 84  1  0  0  0
 76147  1  0  0  0
 76148  1  0  0  0
 76149  1  0  0  0
 76 83  1  0  0  0
 77 83  1  0  0  0
 77150  1  0  0  0
 77151  1  0  0  0
 77152  1  0  0  0
 78 80  1  0  0  0
 78153  1  0  0  0
 78154  1  0  0  0
 79 81  1  0  0  0
 79155  1  0  0  0
 79156  1  0  0  0
 80 82  1  0  0  0
 80157  1  0  0  0
 80158  1  0  0  0
 81 85  1  0  0  0
 81159  1  0  0  0
 81160  1  0  0  0
 82161  1  0  0  0
 82162  1  0  0  0
 83163  1  0  0  0
 85164  1  0  0  0
M  ISO  4   1 100  68 101  82 101  85 100
M  END
> <chiral flag>
0

> <version>
0

> <s_m_source_file>
/data/baiqing/PycharmProjects/Reinvent-master-3.2/result/LINK_invent/BTK/process_docking_weight1_custom_sum_contain_oxygen_bond_distance_aromatic_linkinvent_7_9_3/rearranged_h_0094.sdf

> <i_m_source_file_index>
29

> <r_mmod_Potential_Energy-OPLS-2005>
-250.198791503906

> <r_mmod_Stretch_Energy-OPLS-2005>
41.3353843688965

> <r_mmod_Bend_Energy-OPLS-2005>
94.2393417358398

> <r_mmod_Torsional_Energy-OPLS-2005>
220.630615234375

> <r_mmod_Improper_Torsional_Energy-OPLS-2005>
5.7499041557312

> <r_mmod_Van_der_Waal_Energy-OPLS-2005>
150.42741394043

> <r_mmod_Electrostatic_Energy-OPLS-2005>
-559.833557128906

> <r_mmod_Solvation_Energy-OPLS-2005>
-218.07893371582

> <b_mmod_Minimization_Converged-OPLS-2005>
0

> <r_mmod_RMS_Derivative-OPLS-2005>
1.23448157310486

$$$$
29
                    3D
 Structure written by MMmdl.
177185  0  0  1  0            999 V2000
  -30.6870  -14.4905   20.5441 C   0  0  0  0  0  0
  -30.4270  -12.3148   19.4237 C   0  0  0  0  0  0
  -29.4990  -12.5060   18.2062 C   0  0  0  0  0  0
  -28.0178  -12.3652   18.6162 C   0  0  0  0  0  0
  -27.6591  -13.2072   19.8697 C   0  0  2  0  0  0
  -28.7040  -13.0075   20.9927 C   0  0  0  0  0  0
  -25.2608  -13.8160   20.5688 C   0  0  0  0  0  0
  -24.1872  -13.0449   20.9205 C   0  0  0  0  0  0
  -24.6408  -11.6920   20.8754 C   0  0  0  0  0  0
  -23.9074  -10.4303   21.0410 C   0  0  0  0  0  0
  -24.3632   -9.4221   21.9180 C   0  0  0  0  0  0
  -23.6329   -8.2242   22.0727 C   0  0  0  0  0  0
  -22.4311   -8.0273   21.3522 C   0  0  0  0  0  0
  -21.9942   -9.0245   20.4629 C   0  0  0  0  0  0
  -22.7254  -10.2150   20.3047 C   0  0  0  0  0  0
  -21.6861   -6.0756   22.5283 C   0  0  0  0  0  0
  -21.4013   -6.5652   23.8227 C   0  0  0  0  0  0
  -21.3667   -5.6787   24.9181 C   0  0  0  0  0  0
  -21.6053   -4.3049   24.7219 C   0  0  0  0  0  0
  -21.8833   -3.8158   23.4326 C   0  0  0  0  0  0
  -21.9202   -4.6983   22.3395 C   0  0  0  0  0  0
  -22.7890  -13.5244   21.1872 C   0  0  0  0  0  0
  -22.1662   -4.2170   21.0966 F   0  0  0  0  0  0
  -21.5632   -3.4524   25.7723 F   0  0  0  0  0  0
  -30.0318  -13.3053   20.4323 N   0  0  0  0  0  0
  -26.3029  -12.9313   20.3348 N   0  0  0  0  0  0
  -25.9327  -11.6494   20.5773 N   0  0  0  0  0  0
  -22.0518  -12.8217   22.0423 N   0  0  0  0  0  0
  -25.4361  -15.1880   20.4084 N   0  0  0  0  0  0
  -31.8538  -14.6485   20.1802 O   0  0  0  0  0  0
  -21.6652   -6.8890   21.4237 O   0  0  0  0  0  0
  -22.3586  -14.5548   20.6726 O   0  0  0  0  0  0
  -24.6129  -31.8700   23.2106 C   0  0  0  0  0  0
  -25.9026  -32.4842   23.8401 C   0  0  1  0  0  0
  -27.2239  -27.4687   20.0770 C   0  0  0  0  0  0
  -25.5870  -33.8639   24.2335 N   0  0  0  0  0  0
  -23.3999  -30.4957   21.5492 C   0  0  2  0  0  0
  -24.8467  -28.9727   20.1020 C   0  0  0  0  0  0
  -22.7413  -29.4673   22.4960 C   0  0  0  0  0  0
  -18.0277  -28.1387   22.8490 C   0  0  0  0  0  0
  -24.1485  -36.7330   23.2639 C   0  0  0  0  0  0
  -25.9254  -30.8505   21.3531 C   0  0  0  0  0  0
  -26.0059  -29.4894   20.6940 C   0  0  0  0  0  0
  -27.2041  -28.7438   20.6812 C   0  0  0  0  0  0
  -26.0576  -26.9622   19.4709 C   0  0  0  0  0  0
  -24.8638  -27.7083   19.4873 C   0  0  0  0  0  0
  -23.6048  -29.8323   20.1609 C   0  0  0  0  0  0
  -25.4102  -36.3130   24.0345 C   0  0  1  0  0  0
  -20.5869  -28.3671   23.1303 C   0  0  2  0  0  0
  -20.6755  -26.9405   22.5408 C   0  0  0  0  0  0
  -19.5739  -26.6386   21.5197 C   0  0  0  0  0  0
  -18.1920  -26.7939   22.1614 C   0  0  0  0  0  0
  -19.1527  -28.8844   23.2908 C   0  0  0  0  0  0
  -18.9463  -30.1439   23.8933 C   0  0  0  0  0  0
  -17.6465  -30.6587   24.0563 C   0  0  0  0  0  0
  -25.9026  -34.9489   23.5137 C   0  0  0  0  0  0
  -16.5350  -29.9104   23.6314 C   0  0  0  0  0  0
  -16.7265  -28.6515   23.0347 C   0  0  0  0  0  0
  -26.4454  -31.6610   25.0714 C   0  0  0  0  0  0
  -25.3720  -31.3704   26.1462 C   0  0  0  0  0  0
  -27.0255  -30.3062   24.6020 C   0  0  0  0  0  0
  -27.6052  -32.4309   25.7465 C   0  0  0  0  0  0
  -27.5590  -37.1824   24.8470 C   0  0  0  0  0  0
  -21.4141  -29.3048   22.3715 N   0  0  0  0  0  0
  -26.4299  -37.3806   23.9415 N   0  0  0  0  0  0
  -24.6648  -31.0841   22.0976 N   0  0  0  0  0  0
  -23.4192  -28.8201   23.2989 O   0  0  0  0  0  0
  -28.3218  -26.6552   20.1759 O   0  0  0  0  0  0
  -26.5607  -34.8938   22.4711 O   0  0  0  0  0  0
  -23.5332  -32.1425   23.7528 O   0  0  0  0  0  0
  -28.6670  -19.8692   20.0125 C   0  0  0  0  0  0
  -31.1283  -19.8958   20.4430 C   0  0  0  0  0  0
  -28.6627  -21.4165   19.8947 C   0  0  0  0  0  0
  -31.1267  -21.4337   20.3231 C   0  0  0  0  0  0
  -30.0214  -19.2541   19.5739 C   0  0  1  0  0  0
  -29.7780  -22.0710   20.7493 C   0  0  1  0  0  0
  -31.4214  -25.3345   22.1053 C   0  0  0  0  0  0
  -31.3119  -17.3202   18.5972 C   0  0  0  0  0  0
  -28.8436  -17.1413   18.7251 C   0  0  0  0  0  0
  -30.5119  -24.2222   19.5399 C   0  0  0  0  0  0
  -30.5737  -24.0463   22.1143 C   0  0  0  0  0  0
  -28.3602  -24.2271   20.8608 C   0  0  0  0  0  0
  -30.2065  -16.9742   20.8737 C   0  0  0  0  0  0
  -28.1472  -25.7125   21.2476 C   0  0  0  0  0  0
  -30.0863  -17.6768   19.4734 C   0  0  0  0  0  0
  -29.8131  -23.6563   20.8000 C   0  0  2  0  0  0
  -29.9045  -15.5282   20.8920 N   0  0  0  0  0  0
  -31.4693  -12.4262   19.1204 H   0  0  0  0  0  0
  -30.3319  -11.3057   19.8255 H   0  0  0  0  0  0
  -29.7438  -11.7779   17.4315 H   0  0  0  0  0  0
  -29.6709  -13.4921   17.7700 H   0  0  0  0  0  0
  -27.8285  -11.3084   18.8102 H   0  0  0  0  0  0
  -27.3684  -12.6380   17.7821 H   0  0  0  0  0  0
  -27.6929  -14.2536   19.5691 H   0  0  0  0  0  0
  -28.6825  -11.9797   21.3574 H   0  0  0  0  0  0
  -28.4713  -13.6338   21.8566 H   0  0  0  0  0  0
  -25.2776   -9.5716   22.4765 H   0  0  0  0  0  0
  -24.0065   -7.4631   22.7439 H   0  0  0  0  0  0
  -21.0864   -8.8779   19.8928 H   0  0  0  0  0  0
  -22.3710  -10.9694   19.6165 H   0  0  0  0  0  0
  -21.1987   -7.6159   23.9745 H   0  0  0  0  0  0
  -21.1476   -6.0498   25.9096 H   0  0  0  0  0  0
  -22.0602   -2.7610   23.2821 H   0  0  0  0  0  0
  -22.4111  -11.9856   22.4786 H   0  0  0  0  0  0
  -21.1139  -13.1238   22.2618 H   0  0  0  0  0  0
  -24.6748  -15.8490   20.5170 H   0  0  0  0  0  0
  -26.2890  -15.6206   20.0764 H   0  0  0  0  0  0
  -26.7107  -32.5568   23.1183 H   0  0  0  0  0  0
  -24.9978  -33.9794   25.0448 H   0  0  0  0  0  0
  -22.6871  -31.3123   21.4136 H   0  0  0  0  0  0
  -23.3753  -35.9658   23.3300 H   0  0  0  0  0  0
  -24.3594  -36.8940   22.2056 H   0  0  0  0  0  0
  -23.7229  -37.6529   23.6652 H   0  0  0  0  0  0
  -26.0232  -31.6202   20.5861 H   0  0  0  0  0  0
  -26.8181  -30.9098   21.9630 H   0  0  0  0  0  0
  -28.0992  -29.1262   21.1527 H   0  0  0  0  0  0
  -26.0668  -25.9808   19.0175 H   0  0  0  0  0  0
  -23.9696  -27.3009   19.0383 H   0  0  0  0  0  0
  -23.7074  -30.6086   19.4019 H   0  0  0  0  0  0
  -22.7294  -29.2490   19.8702 H   0  0  0  0  0  0
  -25.1281  -36.1996   25.0841 H   0  0  0  0  0  0
  -20.9982  -28.3240   24.1416 H   0  0  0  0  0  0
  -20.5605  -26.2296   23.3604 H   0  0  0  0  0  0
  -21.6629  -26.7407   22.1228 H   0  0  0  0  0  0
  -19.6883  -25.6295   21.1230 H   0  0  0  0  0  0
  -19.6679  -27.3186   20.6722 H   0  0  0  0  0  0
  -17.4186  -26.6693   21.4023 H   0  0  0  0  0  0
  -18.0322  -26.0067   22.8995 H   0  0  0  0  0  0
  -19.7943  -30.7234   24.2333 H   0  0  0  0  0  0
  -17.5028  -31.6274   24.5161 H   0  0  0  0  0  0
  -15.5352  -30.3024   23.7607 H   0  0  0  0  0  0
  -15.8670  -28.0832   22.7057 H   0  0  0  0  0  0
  -24.5896  -30.7049   25.7792 H   0  0  0  0  0  0
  -24.8898  -32.2853   26.4921 H   0  0  0  0  0  0
  -25.8065  -30.8863   27.0213 H   0  0  0  0  0  0
  -26.2759  -29.6860   24.1087 H   0  0  0  0  0  0
  -27.4075  -29.7258   25.4427 H   0  0  0  0  0  0
  -27.8575  -30.4411   23.9102 H   0  0  0  0  0  0
  -27.2699  -33.3610   26.2062 H   0  0  0  0  0  0
  -28.3845  -32.6862   25.0273 H   0  0  0  0  0  0
  -28.0730  -31.8410   26.5353 H   0  0  0  0  0  0
  -28.2614  -38.0114   24.7517 H   0  0  0  0  0  0
  -28.1079  -36.2654   24.6291 H   0  0  0  0  0  0
  -27.2321  -37.1466   25.8875 H   0  0  0  0  0  0
  -20.9292  -29.8818   21.6987 H   0  0  0  0  0  0
  -26.0198  -38.2884   24.1417 H   0  0  0  0  0  0
  -27.8494  -19.4885   19.4039 H   0  0  0  0  0  0
  -28.4433  -19.5800   21.0403 H   0  0  0  0  0  0
  -30.9950  -19.6222   21.4904 H   0  0  0  0  0  0
  -32.1102  -19.5290   20.1504 H   0  0  0  0  0  0
  -27.6772  -21.7673   20.2014 H   0  0  0  0  0  0
  -28.7801  -21.7074   18.8484 H   0  0  0  0  0  0
  -31.3404  -21.6902   19.2846 H   0  0  0  0  0  0
  -31.9539  -21.8388   20.9039 H   0  0  0  0  0  0
  -30.1707  -19.6238   18.5574 H   0  0  0  0  0  0
  -29.5756  -21.7419   21.7712 H   0  0  0  0  0  0
  -31.8291  -25.5153   23.1010 H   0  0  0  0  0  0
  -30.8591  -26.2211   21.8187 H   0  0  0  0  0  0
  -32.2675  -25.2532   21.4242 H   0  0  0  0  0  0
  -31.3179  -17.8816   17.6633 H   0  0  0  0  0  0
  -31.3308  -16.2676   18.3177 H   0  0  0  0  0  0
  -32.2526  -17.5308   19.1057 H   0  0  0  0  0  0
  -28.6745  -17.6814   17.7936 H   0  0  0  0  0  0
  -27.9425  -17.2243   19.3315 H   0  0  0  0  0  0
  -28.9527  -16.0897   18.4590 H   0  0  0  0  0  0
  -31.5630  -23.9387   19.4910 H   0  0  0  0  0  0
  -30.4856  -25.3123   19.5153 H   0  0  0  0  0  0
  -30.0298  -23.8729   18.6264 H   0  0  0  0  0  0
  -29.8580  -24.1027   22.9375 H   0  0  0  0  0  0
  -31.2465  -23.2466   22.4200 H   0  0  0  0  0  0
  -27.8372  -24.0471   19.9203 H   0  0  0  0  0  0
  -27.8203  -23.6485   21.6102 H   0  0  0  0  0  0
  -29.4961  -17.4355   21.5603 H   0  0  0  0  0  0
  -31.1913  -17.1436   21.3137 H   0  0  0  0  0  0
  -28.7526  -26.0121   22.0979 H   0  0  0  0  0  0
  -27.1322  -25.7658   21.6530 H   0  0  0  0  0  0
  -28.9592  -15.2797   21.1423 H   0  0  0  0  0  0
  1 25  1  0  0  0
  1 30  2  0  0  0
  1 87  1  0  0  0
  2  3  1  0  0  0
  2 25  1  0  0  0
  2 88  1  0  0  0
  2 89  1  0  0  0
  3  4  1  0  0  0
  3 90  1  0  0  0
  3 91  1  0  0  0
  4  5  1  0  0  0
  4 92  1  0  0  0
  4 93  1  0  0  0
  5  6  1  0  0  0
  5 26  1  0  0  0
  5 94  1  0  0  0
  6 25  1  0  0  0
  6 95  1  0  0  0
  6 96  1  0  0  0
  7  8  2  0  0  0
  7 26  1  0  0  0
  7 29  1  0  0  0
  8  9  1  0  0  0
  8 22  1  0  0  0
  9 10  1  0  0  0
  9 27  2  0  0  0
 10 11  2  0  0  0
 10 15  1  0  0  0
 11 12  1  0  0  0
 11 97  1  0  0  0
 12 13  2  0  0  0
 12 98  1  0  0  0
 13 14  1  0  0  0
 13 31  1  0  0  0
 14 15  2  0  0  0
 14 99  1  0  0  0
 15100  1  0  0  0
 16 17  2  0  0  0
 16 21  1  0  0  0
 16 31  1  0  0  0
 17 18  1  0  0  0
 17101  1  0  0  0
 18 19  2  0  0  0
 18102  1  0  0  0
 19 20  1  0  0  0
 19 24  1  0  0  0
 20 21  2  0  0  0
 20103  1  0  0  0
 21 23  1  0  0  0
 22 28  1  0  0  0
 22 32  2  0  0  0
 26 27  1  0  0  0
 28104  1  0  0  0
 28105  1  0  0  0
 29106  1  0  0  0
 29107  1  0  0  0
 33 34  1  0  0  0
 33 66  1  0  0  0
 33 70  2  0  0  0
 34 36  1  0  0  0
 34 59  1  0  0  0
 34108  1  0  0  0
 35 44  2  0  0  0
 35 45  1  0  0  0
 35 68  1  0  0  0
 36 56  1  0  0  0
 36109  1  0  0  0
 37 39  1  0  0  0
 37 47  1  0  0  0
 37 66  1  0  0  0
 37110  1  0  0  0
 38 43  2  0  0  0
 38 46  1  0  0  0
 38 47  1  0  0  0
 39 64  1  0  0  0
 39 67  2  0  0  0
 40 52  1  0  0  0
 40 53  2  0  0  0
 40 58  1  0  0  0
 41111  1  0  0  0
 41112  1  0  0  0
 41113  1  0  0  0
 41 48  1  0  0  0
 42 43  1  0  0  0
 42 66  1  0  0  0
 42114  1  0  0  0
 42115  1  0  0  0
 43 44  1  0  0  0
 44116  1  0  0  0
 45 46  2  0  0  0
 45117  1  0  0  0
 46118  1  0  0  0
 47119  1  0  0  0
 47120  1  0  0  0
 48 56  1  0  0  0
 48 65  1  0  0  0
 48121  1  0  0  0
 49 50  1  0  0  0
 49 53  1  0  0  0
 49 64  1  0  0  0
 49122  1  0  0  0
 50 51  1  0  0  0
 50123  1  0  0  0
 50124  1  0  0  0
 51 52  1  0  0  0
 51125  1  0  0  0
 51126  1  0  0  0
 52127  1  0  0  0
 52128  1  0  0  0
 53 54  1  0  0  0
 54 55  2  0  0  0
 54129  1  0  0  0
 55 57  1  0  0  0
 55130  1  0  0  0
 56 69  2  0  0  0
 57 58  2  0  0  0
 57131  1  0  0  0
 58132  1  0  0  0
 59 60  1  0  0  0
 59 61  1  0  0  0
 59 62  1  0  0  0
 60133  1  0  0  0
 60134  1  0  0  0
 60135  1  0  0  0
 61136  1  0  0  0
 61137  1  0  0  0
 61138  1  0  0  0
 62139  1  0  0  0
 62140  1  0  0  0
 62141  1  0  0  0
 63 65  1  0  0  0
 63142  1  0  0  0
 63143  1  0  0  0
 63144  1  0  0  0
 64145  1  0  0  0
 65146  1  0  0  0
 68 84  1  0  0  0
 71 73  1  0  0  0
 71147  1  0  0  0
 71148  1  0  0  0
 71 75  1  0  0  0
 72 74  1  0  0  0
 72 75  1  0  0  0
 72149  1  0  0  0
 72150  1  0  0  0
 73151  1  0  0  0
 73152  1  0  0  0
 73 76  1  0  0  0
 74 76  1  0  0  0
 74153  1  0  0  0
 74154  1  0  0  0
 75 85  1  0  0  0
 75155  1  0  0  0
 76 86  1  0  0  0
 76156  1  0  0  0
 77 81  1  0  0  0
 77157  1  0  0  0
 77158  1  0  0  0
 77159  1  0  0  0
 78160  1  0  0  0
 78161  1  0  0  0
 78162  1  0  0  0
 78 85  1  0  0  0
 79 85  1  0  0  0
 79163  1  0  0  0
 79164  1  0  0  0
 79165  1  0  0  0
 80166  1  0  0  0
 80167  1  0  0  0
 80168  1  0  0  0
 80 86  1  0  0  0
 81 86  1  0  0  0
 81169  1  0  0  0
 81170  1  0  0  0
 82 84  1  0  0  0
 82 86  1  0  0  0
 82171  1  0  0  0
 82172  1  0  0  0
 83 85  1  0  0  0
 83 87  1  0  0  0
 83173  1  0  0  0
 83174  1  0  0  0
 84175  1  0  0  0
 84176  1  0  0  0
 87177  1  0  0  0
M  ISO  4   1 100  68 101  84 101  87 100
M  END
> <chiral flag>
0

> <version>
0

> <s_m_source_file>
/data/baiqing/PycharmProjects/Reinvent-master-3.2/result/LINK_invent/BTK/process_docking_weight1_custom_sum_contain_oxygen_bond_distance_aromatic_linkinvent_7_9_3/rearranged_h_0094.sdf

> <i_m_source_file_index>
30

> <r_mmod_Potential_Energy-OPLS-2005>
44.0489349365234

> <r_mmod_Stretch_Energy-OPLS-2005>
47.1139106750488

> <r_mmod_Bend_Energy-OPLS-2005>
128.415878295898

> <r_mmod_Torsional_Energy-OPLS-2005>
310.529266357422

> <r_mmod_Improper_Torsional_Energy-OPLS-2005>
4.82073831558228

> <r_mmod_Van_der_Waal_Energy-OPLS-2005>
153.98030090332

> <r_mmod_Electrostatic_Energy-OPLS-2005>
-438.731170654297

> <r_mmod_Solvation_Energy-OPLS-2005>
-180.647232055664

> <b_mmod_Minimization_Converged-OPLS-2005>
0

> <r_mmod_RMS_Derivative-OPLS-2005>
3.41218566894531

$$$$
30
                    3D
 Structure written by MMmdl.
156164  0  0  1  0            999 V2000
  -30.6660  -14.5350   20.5571 C   0  0  0  0  0  0
  -30.4318  -12.3424   19.4323 C   0  0  0  0  0  0
  -29.4999  -12.5065   18.2122 C   0  0  0  0  0  0
  -28.0214  -12.3578   18.6244 C   0  0  0  0  0  0
  -27.6583  -13.2098   19.8700 C   0  0  2  0  0  0
  -28.7004  -13.0129   20.9936 C   0  0  0  0  0  0
  -25.2586  -13.8166   20.5684 C   0  0  0  0  0  0
  -24.1841  -13.0442   20.9193 C   0  0  0  0  0  0
  -24.6401  -11.6909   20.8747 C   0  0  0  0  0  0
  -23.9067  -10.4297   21.0411 C   0  0  0  0  0  0
  -24.3622   -9.4214   21.9190 C   0  0  0  0  0  0
  -23.6301   -8.2244   22.0750 C   0  0  0  0  0  0
  -22.4280   -8.0283   21.3537 C   0  0  0  0  0  0
  -21.9919   -9.0259   20.4635 C   0  0  0  0  0  0
  -22.7247  -10.2143   20.3053 C   0  0  0  0  0  0
  -21.6854   -6.0754   22.5287 C   0  0  0  0  0  0
  -21.4014   -6.5656   23.8220 C   0  0  0  0  0  0
  -21.3662   -5.6802   24.9179 C   0  0  0  0  0  0
  -21.6045   -4.3064   24.7224 C   0  0  0  0  0  0
  -21.8820   -3.8165   23.4345 C   0  0  0  0  0  0
  -21.9197   -4.6987   22.3409 C   0  0  0  0  0  0
  -22.7864  -13.5241   21.1850 C   0  0  0  0  0  0
  -22.1664   -4.2186   21.0984 F   0  0  0  0  0  0
  -21.5635   -3.4538   25.7730 F   0  0  0  0  0  0
  -30.0244  -13.3369   20.4389 N   0  0  0  0  0  0
  -26.3009  -12.9337   20.3339 N   0  0  0  0  0  0
  -25.9322  -11.6498   20.5757 N   0  0  0  0  0  0
  -22.0501  -12.8233   22.0406 N   0  0  0  0  0  0
  -25.4301  -15.1882   20.4092 N   0  0  0  0  0  0
  -31.8073  -14.7221   20.1269 O   0  0  0  0  0  0
  -21.6629   -6.8890   21.4246 O   0  0  0  0  0  0
  -22.3541  -14.5551   20.6711 O   0  0  0  0  0  0
  -24.6180  -31.8646   23.2060 C   0  0  0  0  0  0
  -25.9058  -32.4801   23.8376 C   0  0  1  0  0  0
  -27.2373  -27.3973   20.1175 C   0  0  0  0  0  0
  -25.5909  -33.8602   24.2310 N   0  0  0  0  0  0
  -23.4081  -30.4858   21.5470 C   0  0  2  0  0  0
  -24.8577  -28.9386   20.1220 C   0  0  0  0  0  0
  -22.7418  -29.4645   22.4973 C   0  0  0  0  0  0
  -18.0273  -28.1377   22.8485 C   0  0  0  0  0  0
  -24.1484  -36.7303   23.2640 C   0  0  0  0  0  0
  -25.9393  -30.8193   21.3640 C   0  0  0  0  0  0
  -26.0183  -29.4464   20.7210 C   0  0  0  0  0  0
  -27.2134  -28.6839   20.7134 C   0  0  0  0  0  0
  -26.0629  -26.9100   19.5124 C   0  0  0  0  0  0
  -24.8756  -27.6699   19.5149 C   0  0  0  0  0  0
  -23.6213  -29.8109   20.1647 C   0  0  0  0  0  0
  -25.4108  -36.3103   24.0337 C   0  0  1  0  0  0
  -20.5868  -28.3672   23.1300 C   0  0  2  0  0  0
  -20.6764  -26.9402   22.5414 C   0  0  0  0  0  0
  -19.5747  -26.6383   21.5203 C   0  0  0  0  0  0
  -18.1924  -26.7920   22.1616 C   0  0  0  0  0  0
  -19.1525  -28.8840   23.2893 C   0  0  0  0  0  0
  -18.9456  -30.1442   23.8906 C   0  0  0  0  0  0
  -17.6462  -30.6586   24.0561 C   0  0  0  0  0  0
  -25.9040  -34.9465   23.5123 C   0  0  0  0  0  0
  -16.5348  -29.9089   23.6324 C   0  0  0  0  0  0
  -16.7263  -28.6503   23.0346 C   0  0  0  0  0  0
  -26.4480  -31.6592   25.0713 C   0  0  0  0  0  0
  -25.3737  -31.3709   26.1457 C   0  0  0  0  0  0
  -27.0314  -30.3028   24.6108 C   0  0  0  0  0  0
  -27.6046  -32.4312   25.7487 C   0  0  0  0  0  0
  -27.5577  -37.1804   24.8470 C   0  0  0  0  0  0
  -21.4143  -29.3037   22.3705 N   0  0  0  0  0  0
  -26.4289  -37.3790   23.9415 N   0  0  0  0  0  0
  -24.6733  -31.0721   22.0974 N   0  0  0  0  0  0
  -23.4169  -28.8187   23.3032 O   0  0  0  0  0  0
  -28.3974  -26.6495   20.0349 O   0  0  0  0  0  0
  -26.5603  -34.8922   22.4682 O   0  0  0  0  0  0
  -23.5361  -32.1407   23.7441 O   0  0  0  0  0  0
  -29.5536  -20.6055   20.2280 C   0  0  0  0  0  0
  -29.0209  -21.1748   22.2474 C   0  0  0  0  0  0
  -29.2969  -19.4517   20.9611 C   0  0  0  0  0  0
  -27.0461  -23.5519   21.0220 C   0  0  0  0  0  0
  -29.2268  -17.9773   20.5411 C   0  0  0  0  0  0
  -29.6097  -23.1576   20.8069 C   0  0  0  0  0  0
  -30.2678  -16.9939   21.1775 C   0  0  0  0  0  0
  -28.5946  -25.5896   20.9986 C   0  0  0  0  0  0
  -28.3841  -24.1068   20.5026 C   0  0  2  0  0  0
  -28.9466  -19.8431   22.2547 N   0  0  0  0  0  0
  -29.3726  -21.7160   21.0713 N   0  0  0  0  0  0
  -29.9126  -15.5552   21.0322 N   0  0  0  0  0  0
  -31.4736  -12.4614   19.1295 H   0  0  0  0  0  0
  -30.3532  -11.3356   19.8448 H   0  0  0  0  0  0
  -29.7502  -11.7714   17.4461 H   0  0  0  0  0  0
  -29.6560  -13.4866   17.7585 H   0  0  0  0  0  0
  -27.8411  -11.3028   18.8338 H   0  0  0  0  0  0
  -27.3713  -12.6159   17.7874 H   0  0  0  0  0  0
  -27.6939  -14.2539   19.5572 H   0  0  0  0  0  0
  -28.6921  -11.9794   21.3431 H   0  0  0  0  0  0
  -28.4548  -13.6193   21.8666 H   0  0  0  0  0  0
  -25.2768   -9.5696   22.4766 H   0  0  0  0  0  0
  -24.0021   -7.4637   22.7463 H   0  0  0  0  0  0
  -21.0856   -8.8785   19.8927 H   0  0  0  0  0  0
  -22.3717  -10.9691   19.6161 H   0  0  0  0  0  0
  -21.1994   -7.6159   23.9739 H   0  0  0  0  0  0
  -21.1484   -6.0522   25.9085 H   0  0  0  0  0  0
  -22.0597   -2.7629   23.2836 H   0  0  0  0  0  0
  -22.4119  -11.9902   22.4809 H   0  0  0  0  0  0
  -21.1112  -13.1261   22.2584 H   0  0  0  0  0  0
  -24.6616  -15.8414   20.5143 H   0  0  0  0  0  0
  -26.2764  -15.6253   20.0686 H   0  0  0  0  0  0
  -26.7133  -32.5513   23.1140 H   0  0  0  0  0  0
  -25.0077  -33.9755   25.0467 H   0  0  0  0  0  0
  -22.6993  -31.3040   21.4021 H   0  0  0  0  0  0
  -23.3743  -35.9641   23.3314 H   0  0  0  0  0  0
  -24.3570  -36.8903   22.2053 H   0  0  0  0  0  0
  -23.7239  -37.6510   23.6645 H   0  0  0  0  0  0
  -26.0542  -31.5790   20.5896 H   0  0  0  0  0  0
  -26.8269  -30.8789   21.9830 H   0  0  0  0  0  0
  -28.1161  -29.0788   21.1597 H   0  0  0  0  0  0
  -26.0724  -25.9424   19.0308 H   0  0  0  0  0  0
  -23.9851  -27.2722   19.0471 H   0  0  0  0  0  0
  -23.7350  -30.5808   19.4004 H   0  0  0  0  0  0
  -22.7450  -29.2315   19.8689 H   0  0  0  0  0  0
  -25.1291  -36.1959   25.0832 H   0  0  0  0  0  0
  -20.9970  -28.3239   24.1416 H   0  0  0  0  0  0
  -20.5655  -26.2279   23.3602 H   0  0  0  0  0  0
  -21.6636  -26.7432   22.1214 H   0  0  0  0  0  0
  -19.6910  -25.6297   21.1228 H   0  0  0  0  0  0
  -19.6687  -27.3193   20.6736 H   0  0  0  0  0  0
  -17.4193  -26.6659   21.4015 H   0  0  0  0  0  0
  -18.0326  -26.0060   22.9011 H   0  0  0  0  0  0
  -19.7940  -30.7252   24.2272 H   0  0  0  0  0  0
  -17.5024  -31.6268   24.5164 H   0  0  0  0  0  0
  -15.5350  -30.3004   23.7655 H   0  0  0  0  0  0
  -15.8652  -28.0837   22.7059 H   0  0  0  0  0  0
  -24.5907  -30.7058   25.7796 H   0  0  0  0  0  0
  -24.8936  -32.2871   26.4902 H   0  0  0  0  0  0
  -25.8086  -30.8878   27.0214 H   0  0  0  0  0  0
  -26.2864  -29.6784   24.1158 H   0  0  0  0  0  0
  -27.4071  -29.7274   25.4578 H   0  0  0  0  0  0
  -27.8709  -30.4351   23.9279 H   0  0  0  0  0  0
  -27.2662  -33.3596   26.2094 H   0  0  0  0  0  0
  -28.3851  -32.6884   25.0319 H   0  0  0  0  0  0
  -28.0718  -31.8414   26.5382 H   0  0  0  0  0  0
  -28.2612  -38.0087   24.7514 H   0  0  0  0  0  0
  -28.1054  -36.2614   24.6303 H   0  0  0  0  0  0
  -27.2290  -37.1476   25.8873 H   0  0  0  0  0  0
  -20.9304  -29.8753   21.6923 H   0  0  0  0  0  0
  -26.0172  -38.2868   24.1405 H   0  0  0  0  0  0
  -29.8412  -20.7243   19.1914 H   0  0  0  0  0  0
  -28.8266  -21.7752   23.1255 H   0  0  0  0  0  0
  -26.8163  -22.5828   20.5793 H   0  0  0  0  0  0
  -26.2200  -24.2216   20.7813 H   0  0  0  0  0  0
  -27.0620  -23.4308   22.1050 H   0  0  0  0  0  0
  -29.3068  -17.9041   19.4558 H   0  0  0  0  0  0
  -28.2261  -17.6106   20.7726 H   0  0  0  0  0  0
  -30.3330  -23.2381   19.9945 H   0  0  0  0  0  0
  -30.1343  -23.5355   21.6861 H   0  0  0  0  0  0
  -30.3312  -17.1933   22.2471 H   0  0  0  0  0  0
  -31.2609  -17.1989   20.7755 H   0  0  0  0  0  0
  -29.6286  -25.7081   21.3227 H   0  0  0  0  0  0
  -28.0058  -25.7802   21.8983 H   0  0  0  0  0  0
  -28.2981  -24.1433   19.4155 H   0  0  0  0  0  0
  -28.9863  -15.2934   21.3352 H   0  0  0  0  0  0
  1 25  1  0  0  0
  1 30  2  0  0  0
  1 82  1  0  0  0
  2  3  1  0  0  0
  2 25  1  0  0  0
  2 83  1  0  0  0
  2 84  1  0  0  0
  3  4  1  0  0  0
  3 85  1  0  0  0
  3 86  1  0  0  0
  4  5  1  0  0  0
  4 87  1  0  0  0
  4 88  1  0  0  0
  5  6  1  0  0  0
  5 26  1  0  0  0
  5 89  1  0  0  0
  6 25  1  0  0  0
  6 90  1  0  0  0
  6 91  1  0  0  0
  7  8  2  0  0  0
  7 26  1  0  0  0
  7 29  1  0  0  0
  8  9  1  0  0  0
  8 22  1  0  0  0
  9 10  1  0  0  0
  9 27  2  0  0  0
 10 11  2  0  0  0
 10 15  1  0  0  0
 11 12  1  0  0  0
 11 92  1  0  0  0
 12 13  2  0  0  0
 12 93  1  0  0  0
 13 14  1  0  0  0
 13 31  1  0  0  0
 14 15  2  0  0  0
 14 94  1  0  0  0
 15 95  1  0  0  0
 16 17  2  0  0  0
 16 21  1  0  0  0
 16 31  1  0  0  0
 17 18  1  0  0  0
 17 96  1  0  0  0
 18 19  2  0  0  0
 18 97  1  0  0  0
 19 20  1  0  0  0
 19 24  1  0  0  0
 20 21  2  0  0  0
 20 98  1  0  0  0
 21 23  1  0  0  0
 22 28  1  0  0  0
 22 32  2  0  0  0
 26 27  1  0  0  0
 28 99  1  0  0  0
 28100  1  0  0  0
 29101  1  0  0  0
 29102  1  0  0  0
 33 34  1  0  0  0
 33 66  1  0  0  0
 33 70  2  0  0  0
 34 36  1  0  0  0
 34 59  1  0  0  0
 34103  1  0  0  0
 35 44  2  0  0  0
 35 45  1  0  0  0
 35 68  1  0  0  0
 36 56  1  0  0  0
 36104  1  0  0  0
 37 39  1  0  0  0
 37 47  1  0  0  0
 37 66  1  0  0  0
 37105  1  0  0  0
 38 43  2  0  0  0
 38 46  1  0  0  0
 38 47  1  0  0  0
 39 64  1  0  0  0
 39 67  2  0  0  0
 40 52  1  0  0  0
 40 53  2  0  0  0
 40 58  1  0  0  0
 41106  1  0  0  0
 41107  1  0  0  0
 41108  1  0  0  0
 41 48  1  0  0  0
 42 43  1  0  0  0
 42 66  1  0  0  0
 42109  1  0  0  0
 42110  1  0  0  0
 43 44  1  0  0  0
 44111  1  0  0  0
 45 46  2  0  0  0
 45112  1  0  0  0
 46113  1  0  0  0
 47114  1  0  0  0
 47115  1  0  0  0
 48 56  1  0  0  0
 48 65  1  0  0  0
 48116  1  0  0  0
 49 50  1  0  0  0
 49 53  1  0  0  0
 49 64  1  0  0  0
 49117  1  0  0  0
 50 51  1  0  0  0
 50118  1  0  0  0
 50119  1  0  0  0
 51 52  1  0  0  0
 51120  1  0  0  0
 51121  1  0  0  0
 52122  1  0  0  0
 52123  1  0  0  0
 53 54  1  0  0  0
 54 55  2  0  0  0
 54124  1  0  0  0
 55 57  1  0  0  0
 55125  1  0  0  0
 56 69  2  0  0  0
 57 58  2  0  0  0
 57126  1  0  0  0
 58127  1  0  0  0
 59 60  1  0  0  0
 59 61  1  0  0  0
 59 62  1  0  0  0
 60128  1  0  0  0
 60129  1  0  0  0
 60130  1  0  0  0
 61131  1  0  0  0
 61132  1  0  0  0
 61133  1  0  0  0
 62134  1  0  0  0
 62135  1  0  0  0
 62136  1  0  0  0
 63 65  1  0  0  0
 63137  1  0  0  0
 63138  1  0  0  0
 63139  1  0  0  0
 64140  1  0  0  0
 65141  1  0  0  0
 68 78  1  0  0  0
 71 73  2  0  0  0
 71 81  1  0  0  0
 71142  1  0  0  0
 72 80  2  0  0  0
 72 81  1  0  0  0
 72143  1  0  0  0
 73 75  1  0  0  0
 73 80  1  0  0  0
 74144  1  0  0  0
 74145  1  0  0  0
 74146  1  0  0  0
 74 79  1  0  0  0
 75 77  1  0  0  0
 75147  1  0  0  0
 75148  1  0  0  0
 76 79  1  0  0  0
 76 81  1  0  0  0
 76149  1  0  0  0
 76150  1  0  0  0
 77 82  1  0  0  0
 77151  1  0  0  0
 77152  1  0  0  0
 78 79  1  0  0  0
 78153  1  0  0  0
 78154  1  0  0  0
 79155  1  0  0  0
 82156  1  0  0  0
M  ISO  4   1 100  68 101  78 101  82 100
M  END
> <chiral flag>
0

> <version>
0

> <s_m_source_file>
/data/baiqing/PycharmProjects/Reinvent-master-3.2/result/LINK_invent/BTK/process_docking_weight1_custom_sum_contain_oxygen_bond_distance_aromatic_linkinvent_7_9_3/rearranged_h_0094.sdf

> <i_m_source_file_index>
31

> <r_mmod_Potential_Energy-OPLS-2005>
-41.8645401000977

> <r_mmod_Stretch_Energy-OPLS-2005>
49.6022033691406

> <r_mmod_Bend_Energy-OPLS-2005>
119.616851806641

> <r_mmod_Torsional_Energy-OPLS-2005>
239.567932128906

> <r_mmod_Improper_Torsional_Energy-OPLS-2005>
4.28601551055908

> <r_mmod_Van_der_Waal_Energy-OPLS-2005>
117.223251342773

> <r_mmod_Electrostatic_Energy-OPLS-2005>
-366.047790527344

> <r_mmod_Solvation_Energy-OPLS-2005>
-225.160232543945

> <b_mmod_Minimization_Converged-OPLS-2005>
0

> <r_mmod_RMS_Derivative-OPLS-2005>
1.39725482463837

$$$$
31
                    3D
 Structure written by MMmdl.
170178  0  0  1  0            999 V2000
  -30.7520  -14.4101   20.5364 C   0  0  0  0  0  0
  -30.4093  -12.2476   19.4482 C   0  0  0  0  0  0
  -29.5057  -12.4834   18.2200 C   0  0  0  0  0  0
  -28.0210  -12.3850   18.6184 C   0  0  0  0  0  0
  -27.6672  -13.2178   19.8806 C   0  0  2  0  0  0
  -28.7118  -13.0073   21.0105 C   0  0  0  0  0  0
  -25.2648  -13.8204   20.5766 C   0  0  0  0  0  0
  -24.1858  -13.0440   20.9187 C   0  0  0  0  0  0
  -24.6435  -11.6931   20.8711 C   0  0  0  0  0  0
  -23.9112  -10.4313   21.0382 C   0  0  0  0  0  0
  -24.3640   -9.4239   21.9179 C   0  0  0  0  0  0
  -23.6302   -8.2267   22.0781 C   0  0  0  0  0  0
  -22.4297   -8.0280   21.3553 C   0  0  0  0  0  0
  -21.9919   -9.0268   20.4664 C   0  0  0  0  0  0
  -22.7267  -10.2141   20.3066 C   0  0  0  0  0  0
  -21.6854   -6.0737   22.5291 C   0  0  0  0  0  0
  -21.4008   -6.5641   23.8211 C   0  0  0  0  0  0
  -21.3672   -5.6801   24.9181 C   0  0  0  0  0  0
  -21.6054   -4.3066   24.7237 C   0  0  0  0  0  0
  -21.8813   -3.8150   23.4352 C   0  0  0  0  0  0
  -21.9182   -4.6964   22.3406 C   0  0  0  0  0  0
  -22.7891  -13.5229   21.1804 C   0  0  0  0  0  0
  -22.1653   -4.2152   21.0981 F   0  0  0  0  0  0
  -21.5640   -3.4555   25.7753 F   0  0  0  0  0  0
  -30.0551  -13.2466   20.4576 N   0  0  0  0  0  0
  -26.3055  -12.9382   20.3403 N   0  0  0  0  0  0
  -25.9360  -11.6542   20.5782 N   0  0  0  0  0  0
  -22.0505  -12.8243   22.0390 N   0  0  0  0  0  0
  -25.4349  -15.1901   20.4230 N   0  0  0  0  0  0
  -31.8795  -14.5788   20.0668 O   0  0  0  0  0  0
  -21.6626   -6.8891   21.4255 O   0  0  0  0  0  0
  -22.3573  -14.5528   20.6658 O   0  0  0  0  0  0
  -24.6123  -31.8719   23.2160 C   0  0  0  0  0  0
  -25.9049  -32.4856   23.8434 C   0  0  1  0  0  0
  -27.2213  -27.4578   20.1223 C   0  0  0  0  0  0
  -25.5943  -33.8649   24.2369 N   0  0  0  0  0  0
  -23.3984  -30.4955   21.5522 C   0  0  2  0  0  0
  -24.8434  -28.9638   20.1112 C   0  0  0  0  0  0
  -22.7396  -29.4690   22.5010 C   0  0  0  0  0  0
  -18.0295  -28.1372   22.8437 C   0  0  0  0  0  0
  -24.1486  -36.7323   23.2635 C   0  0  0  0  0  0
  -25.9217  -30.8450   21.3601 C   0  0  0  0  0  0
  -25.9992  -29.4780   20.7158 C   0  0  0  0  0  0
  -27.1929  -28.7306   20.7233 C   0  0  0  0  0  0
  -26.0680  -26.9520   19.4940 C   0  0  0  0  0  0
  -24.8739  -27.6988   19.4904 C   0  0  0  0  0  0
  -23.6055  -29.8287   20.1648 C   0  0  0  0  0  0
  -25.4114  -36.3128   24.0342 C   0  0  1  0  0  0
  -20.5891  -28.3681   23.1317 C   0  0  2  0  0  0
  -20.6820  -26.9444   22.5355 C   0  0  0  0  0  0
  -19.5786  -26.6410   21.5163 C   0  0  0  0  0  0
  -18.1954  -26.7925   22.1549 C   0  0  0  0  0  0
  -19.1547  -28.8842   23.2885 C   0  0  0  0  0  0
  -18.9441  -30.1417   23.8972 C   0  0  0  0  0  0
  -17.6427  -30.6522   24.0630 C   0  0  0  0  0  0
  -25.9015  -34.9493   23.5120 C   0  0  0  0  0  0
  -16.5350  -29.9017   23.6349 C   0  0  0  0  0  0
  -16.7267  -28.6466   23.0315 C   0  0  0  0  0  0
  -26.4479  -31.6592   25.0734 C   0  0  0  0  0  0
  -25.3762  -31.3710   26.1501 C   0  0  0  0  0  0
  -27.0310  -30.3039   24.6070 C   0  0  0  0  0  0
  -27.6050  -32.4314   25.7485 C   0  0  0  0  0  0
  -27.5578  -37.1823   24.8472 C   0  0  0  0  0  0
  -21.4142  -29.3136   22.3781 N   0  0  0  0  0  0
  -26.4303  -37.3810   23.9418 N   0  0  0  0  0  0
  -24.6628  -31.0867   22.1029 N   0  0  0  0  0  0
  -23.4170  -28.8223   23.3023 O   0  0  0  0  0  0
  -28.3620  -26.7010   20.1514 O   0  0  0  0  0  0
  -26.5574  -34.8928   22.4674 O   0  0  0  0  0  0
  -23.5335  -32.1472   23.7572 O   0  0  0  0  0  0
  -28.7690  -21.3364   21.2113 C   0  0  0  0  0  0
  -26.5721  -21.7605   22.1330 C   0  0  0  0  0  0
  -27.8961  -22.1939   21.9051 C   0  0  0  0  0  0
  -28.2814  -20.0994   20.7638 C   0  0  0  0  0  0
  -26.1710  -20.5111   21.6290 C   0  0  0  0  0  0
  -28.0447  -23.8794   23.8068 C   0  0  0  0  0  0
  -24.8043  -18.8309   22.9162 C   0  0  0  0  0  0
  -24.0974  -19.5219   20.5635 C   0  0  0  0  0  0
  -29.1727  -19.1006   20.0638 C   0  0  0  0  0  0
  -29.3284  -17.8404   20.9235 C   0  0  0  0  0  0
  -27.8303  -24.6270   21.3428 C   0  0  0  0  0  0
  -30.1836  -16.7548   20.2692 C   0  0  0  0  0  0
  -28.5401  -25.9912   21.3833 C   0  0  0  0  0  0
  -28.3716  -23.5752   22.3343 C   0  0  2  0  0  0
  -24.7739  -19.9603   21.8743 C   0  0  0  0  0  0
  -27.0089  -19.7040   20.9499 N   0  0  0  0  0  0
  -30.0261  -15.4579   20.9288 N   0  0  0  0  0  0
  -31.4649  -12.2741   19.1705 H   0  0  0  0  0  0
  -30.2452  -11.2480   19.8595 H   0  0  0  0  0  0
  -29.7336  -11.7510   17.4479 H   0  0  0  0  0  0
  -29.7176  -13.4615   17.7866 H   0  0  0  0  0  0
  -27.7922  -11.3352   18.7936 H   0  0  0  0  0  0
  -27.3957  -12.6985   17.7852 H   0  0  0  0  0  0
  -27.7142  -14.2649   19.5814 H   0  0  0  0  0  0
  -28.6638  -11.9847   21.4036 H   0  0  0  0  0  0
  -28.4954  -13.6600   21.8627 H   0  0  0  0  0  0
  -25.2762   -9.5675   22.4773 H   0  0  0  0  0  0
  -24.0020   -7.4632   22.7479 H   0  0  0  0  0  0
  -21.0863   -8.8739   19.8938 H   0  0  0  0  0  0
  -22.3706  -10.9663   19.6174 H   0  0  0  0  0  0
  -21.2003   -7.6148   23.9717 H   0  0  0  0  0  0
  -21.1514   -6.0533   25.9084 H   0  0  0  0  0  0
  -22.0588   -2.7614   23.2836 H   0  0  0  0  0  0
  -22.4100  -11.9901   22.4781 H   0  0  0  0  0  0
  -21.1112  -13.1264   22.2560 H   0  0  0  0  0  0
  -24.6793  -15.8525   20.5616 H   0  0  0  0  0  0
  -26.3077  -15.6337   20.1652 H   0  0  0  0  0  0
  -26.7107  -32.5552   23.1183 H   0  0  0  0  0  0
  -25.0170  -33.9793   25.0565 H   0  0  0  0  0  0
  -22.6889  -31.3129   21.4123 H   0  0  0  0  0  0
  -23.3727  -35.9657   23.3333 H   0  0  0  0  0  0
  -24.3587  -36.8921   22.2038 H   0  0  0  0  0  0
  -23.7240  -37.6550   23.6615 H   0  0  0  0  0  0
  -26.0231  -31.6040   20.5833 H   0  0  0  0  0  0
  -26.8144  -30.9083   21.9704 H   0  0  0  0  0  0
  -28.0842  -29.1206   21.1944 H   0  0  0  0  0  0
  -26.0893  -25.9777   19.0224 H   0  0  0  0  0  0
  -23.9918  -27.2975   19.0139 H   0  0  0  0  0  0
  -23.7132  -30.6021   19.4044 H   0  0  0  0  0  0
  -22.7302  -29.2491   19.8728 H   0  0  0  0  0  0
  -25.1271  -36.2010   25.0835 H   0  0  0  0  0  0
  -20.9947  -28.3256   24.1449 H   0  0  0  0  0  0
  -20.5807  -26.2291   23.3518 H   0  0  0  0  0  0
  -21.6710  -26.7550   22.1143 H   0  0  0  0  0  0
  -19.6753  -27.3156   20.6660 H   0  0  0  0  0  0
  -19.6980  -25.6290   21.1340 H   0  0  0  0  0  0
  -17.4232  -26.6620   21.3959 H   0  0  0  0  0  0
  -18.0365  -26.0053   22.8935 H   0  0  0  0  0  0
  -19.7889  -30.7203   24.2464 H   0  0  0  0  0  0
  -17.4931  -31.6140   24.5334 H   0  0  0  0  0  0
  -15.5334  -30.2853   23.7728 H   0  0  0  0  0  0
  -15.8630  -28.0823   22.7034 H   0  0  0  0  0  0
  -24.5883  -30.7117   25.7874 H   0  0  0  0  0  0
  -24.9003  -32.2867   26.5003 H   0  0  0  0  0  0
  -25.8125  -30.8849   27.0225 H   0  0  0  0  0  0
  -26.2844  -29.6787   24.1161 H   0  0  0  0  0  0
  -27.4160  -29.7297   25.4510 H   0  0  0  0  0  0
  -27.8631  -30.4417   23.9162 H   0  0  0  0  0  0
  -27.2664  -33.3593   26.2093 H   0  0  0  0  0  0
  -28.3804  -32.6926   25.0281 H   0  0  0  0  0  0
  -28.0740  -31.8427   26.5369 H   0  0  0  0  0  0
  -28.2610  -38.0097   24.7484 H   0  0  0  0  0  0
  -28.1043  -36.2640   24.6309 H   0  0  0  0  0  0
  -27.2296  -37.1487   25.8869 H   0  0  0  0  0  0
  -20.9247  -29.8915   21.7090 H   0  0  0  0  0  0
  -26.0195  -38.2894   24.1393 H   0  0  0  0  0  0
  -29.7930  -21.6312   21.0297 H   0  0  0  0  0  0
  -25.8735  -22.3809   22.6754 H   0  0  0  0  0  0
  -28.4724  -23.1193   24.4605 H   0  0  0  0  0  0
  -26.9763  -23.9246   24.0018 H   0  0  0  0  0  0
  -28.4556  -24.8357   24.1202 H   0  0  0  0  0  0
  -25.1766  -19.2011   23.8727 H   0  0  0  0  0  0
  -25.4580  -18.0189   22.5946 H   0  0  0  0  0  0
  -23.8094  -18.4197   23.0841 H   0  0  0  0  0  0
  -24.0499  -20.3508   19.8557 H   0  0  0  0  0  0
  -23.0822  -19.1661   20.7398 H   0  0  0  0  0  0
  -24.6546  -18.7181   20.0823 H   0  0  0  0  0  0
  -30.1504  -19.5414   19.8486 H   0  0  0  0  0  0
  -28.7339  -18.8450   19.0989 H   0  0  0  0  0  0
  -28.3437  -17.4222   21.1269 H   0  0  0  0  0  0
  -29.7455  -18.1111   21.8946 H   0  0  0  0  0  0
  -27.9700  -24.2288   20.3408 H   0  0  0  0  0  0
  -26.7555  -24.7487   21.4614 H   0  0  0  0  0  0
  -31.2308  -17.0697   20.1989 H   0  0  0  0  0  0
  -29.8565  -16.5964   19.2406 H   0  0  0  0  0  0
  -28.2048  -26.5708   22.2466 H   0  0  0  0  0  0
  -29.6067  -25.8366   21.5200 H   0  0  0  0  0  0
  -29.4580  -23.5764   22.2525 H   0  0  0  0  0  0
  -24.1660  -20.7671   22.2867 H   0  0  0  0  0  0
  -29.1314  -15.2415   21.3541 H   0  0  0  0  0  0
  1 25  1  0  0  0
  1 30  2  0  0  0
  1 87  1  0  0  0
  2  3  1  0  0  0
  2 25  1  0  0  0
  2 88  1  0  0  0
  2 89  1  0  0  0
  3  4  1  0  0  0
  3 90  1  0  0  0
  3 91  1  0  0  0
  4  5  1  0  0  0
  4 92  1  0  0  0
  4 93  1  0  0  0
  5  6  1  0  0  0
  5 26  1  0  0  0
  5 94  1  0  0  0
  6 25  1  0  0  0
  6 95  1  0  0  0
  6 96  1  0  0  0
  7  8  2  0  0  0
  7 26  1  0  0  0
  7 29  1  0  0  0
  8  9  1  0  0  0
  8 22  1  0  0  0
  9 10  1  0  0  0
  9 27  2  0  0  0
 10 11  2  0  0  0
 10 15  1  0  0  0
 11 12  1  0  0  0
 11 97  1  0  0  0
 12 13  2  0  0  0
 12 98  1  0  0  0
 13 14  1  0  0  0
 13 31  1  0  0  0
 14 15  2  0  0  0
 14 99  1  0  0  0
 15100  1  0  0  0
 16 17  2  0  0  0
 16 21  1  0  0  0
 16 31  1  0  0  0
 17 18  1  0  0  0
 17101  1  0  0  0
 18 19  2  0  0  0
 18102  1  0  0  0
 19 20  1  0  0  0
 19 24  1  0  0  0
 20 21  2  0  0  0
 20103  1  0  0  0
 21 23  1  0  0  0
 22 28  1  0  0  0
 22 32  2  0  0  0
 26 27  1  0  0  0
 28104  1  0  0  0
 28105  1  0  0  0
 29106  1  0  0  0
 29107  1  0  0  0
 33 34  1  0  0  0
 33 66  1  0  0  0
 33 70  2  0  0  0
 34 36  1  0  0  0
 34 59  1  0  0  0
 34108  1  0  0  0
 35 44  2  0  0  0
 35 45  1  0  0  0
 35 68  1  0  0  0
 36 56  1  0  0  0
 36109  1  0  0  0
 37 39  1  0  0  0
 37 47  1  0  0  0
 37 66  1  0  0  0
 37110  1  0  0  0
 38 43  2  0  0  0
 38 46  1  0  0  0
 38 47  1  0  0  0
 39 64  1  0  0  0
 39 67  2  0  0  0
 40 52  1  0  0  0
 40 53  2  0  0  0
 40 58  1  0  0  0
 41111  1  0  0  0
 41112  1  0  0  0
 41113  1  0  0  0
 41 48  1  0  0  0
 42 43  1  0  0  0
 42 66  1  0  0  0
 42114  1  0  0  0
 42115  1  0  0  0
 43 44  1  0  0  0
 44116  1  0  0  0
 45 46  2  0  0  0
 45117  1  0  0  0
 46118  1  0  0  0
 47119  1  0  0  0
 47120  1  0  0  0
 48 56  1  0  0  0
 48 65  1  0  0  0
 48121  1  0  0  0
 49 50  1  0  0  0
 49 53  1  0  0  0
 49 64  1  0  0  0
 49122  1  0  0  0
 50 51  1  0  0  0
 50123  1  0  0  0
 50124  1  0  0  0
 51 52  1  0  0  0
 51125  1  0  0  0
 51126  1  0  0  0
 52127  1  0  0  0
 52128  1  0  0  0
 53 54  1  0  0  0
 54 55  2  0  0  0
 54129  1  0  0  0
 55 57  1  0  0  0
 55130  1  0  0  0
 56 69  2  0  0  0
 57 58  2  0  0  0
 57131  1  0  0  0
 58132  1  0  0  0
 59 60  1  0  0  0
 59 61  1  0  0  0
 59 62  1  0  0  0
 60133  1  0  0  0
 60134  1  0  0  0
 60135  1  0  0  0
 61136  1  0  0  0
 61137  1  0  0  0
 61138  1  0  0  0
 62139  1  0  0  0
 62140  1  0  0  0
 62141  1  0  0  0
 63 65  1  0  0  0
 63142  1  0  0  0
 63143  1  0  0  0
 63144  1  0  0  0
 64145  1  0  0  0
 65146  1  0  0  0
 68 83  1  0  0  0
 71 73  2  0  0  0
 71 74  1  0  0  0
 71147  1  0  0  0
 72 73  1  0  0  0
 72 75  2  0  0  0
 72148  1  0  0  0
 73 84  1  0  0  0
 74 79  1  0  0  0
 74 86  2  0  0  0
 75 85  1  0  0  0
 75 86  1  0  0  0
 76149  1  0  0  0
 76150  1  0  0  0
 76151  1  0  0  0
 76 84  1  0  0  0
 77152  1  0  0  0
 77153  1  0  0  0
 77154  1  0  0  0
 77 85  1  0  0  0
 78 85  1  0  0  0
 78155  1  0  0  0
 78156  1  0  0  0
 78157  1  0  0  0
 79 80  1  0  0  0
 79158  1  0  0  0
 79159  1  0  0  0
 80 82  1  0  0  0
 80160  1  0  0  0
 80161  1  0  0  0
 81 83  1  0  0  0
 81 84  1  0  0  0
 81162  1  0  0  0
 81163  1  0  0  0
 82 87  1  0  0  0
 82164  1  0  0  0
 82165  1  0  0  0
 83166  1  0  0  0
 83167  1  0  0  0
 84168  1  0  0  0
 85169  1  0  0  0
 87170  1  0  0  0
M  ISO  4   1 100  68 101  83 101  87 100
M  END
> <chiral flag>
0

> <version>
0

> <s_m_source_file>
/data/baiqing/PycharmProjects/Reinvent-master-3.2/result/LINK_invent/BTK/process_docking_weight1_custom_sum_contain_oxygen_bond_distance_aromatic_linkinvent_7_9_3/rearranged_h_0094.sdf

> <i_m_source_file_index>
32

> <r_mmod_Potential_Energy-OPLS-2005>
-290.593627929688

> <r_mmod_Stretch_Energy-OPLS-2005>
31.6110363006592

> <r_mmod_Bend_Energy-OPLS-2005>
89.5891418457031

> <r_mmod_Torsional_Energy-OPLS-2005>
223.932083129883

> <r_mmod_Improper_Torsional_Energy-OPLS-2005>
7.85937595367432

> <r_mmod_Van_der_Waal_Energy-OPLS-2005>
149.021575927734

> <r_mmod_Electrostatic_Energy-OPLS-2005>
-604.471740722656

> <r_mmod_Solvation_Energy-OPLS-2005>
-201.395950317383

> <b_mmod_Minimization_Converged-OPLS-2005>
0

> <r_mmod_RMS_Derivative-OPLS-2005>
9.48938846588135

$$$$
32
                    3D
 Structure written by MMmdl.
178186  0  0  1  0            999 V2000
  -30.7063  -14.4534   20.6308 C   0  0  0  0  0  0
  -30.4252  -12.3182   19.4106 C   0  0  0  0  0  0
  -29.4909  -12.5223   18.2011 C   0  0  0  0  0  0
  -28.0142  -12.3694   18.6153 C   0  0  0  0  0  0
  -27.6614  -13.2016   19.8762 C   0  0  2  0  0  0
  -28.6999  -12.9653   20.9936 C   0  0  0  0  0  0
  -25.2592  -13.8146   20.5681 C   0  0  0  0  0  0
  -24.1832  -13.0433   20.9160 C   0  0  0  0  0  0
  -24.6378  -11.6897   20.8721 C   0  0  0  0  0  0
  -23.9042  -10.4289   21.0403 C   0  0  0  0  0  0
  -24.3599   -9.4208   21.9180 C   0  0  0  0  0  0
  -23.6281   -8.2242   22.0752 C   0  0  0  0  0  0
  -22.4265   -8.0275   21.3544 C   0  0  0  0  0  0
  -21.9894   -9.0245   20.4644 C   0  0  0  0  0  0
  -22.7216  -10.2127   20.3053 C   0  0  0  0  0  0
  -21.6849   -6.0730   22.5280 C   0  0  0  0  0  0
  -21.4012   -6.5637   23.8214 C   0  0  0  0  0  0
  -21.3660   -5.6791   24.9174 C   0  0  0  0  0  0
  -21.6045   -4.3053   24.7226 C   0  0  0  0  0  0
  -21.8819   -3.8144   23.4348 C   0  0  0  0  0  0
  -21.9192   -4.6960   22.3402 C   0  0  0  0  0  0
  -22.7858  -13.5243   21.1844 C   0  0  0  0  0  0
  -22.1661   -4.2144   21.0980 F   0  0  0  0  0  0
  -21.5630   -3.4537   25.7740 F   0  0  0  0  0  0
  -30.0346  -13.2807   20.4526 N   0  0  0  0  0  0
  -26.3016  -12.9305   20.3364 N   0  0  0  0  0  0
  -25.9300  -11.6469   20.5747 N   0  0  0  0  0  0
  -22.0497  -12.8230   22.0396 N   0  0  0  0  0  0
  -25.4336  -15.1863   20.4120 N   0  0  0  0  0  0
  -31.7705  -14.7146   20.0599 O   0  0  0  0  0  0
  -21.6633   -6.8871   21.4240 O   0  0  0  0  0  0
  -22.3542  -14.5553   20.6704 O   0  0  0  0  0  0
  -24.6152  -31.8679   23.2079 C   0  0  0  0  0  0
  -25.9050  -32.4819   23.8378 C   0  0  1  0  0  0
  -27.2414  -27.4305   20.0845 C   0  0  0  0  0  0
  -25.5926  -33.8621   24.2321 N   0  0  0  0  0  0
  -23.4011  -30.4914   21.5473 C   0  0  2  0  0  0
  -24.8482  -28.9544   20.1117 C   0  0  0  0  0  0
  -22.7406  -29.4665   22.4965 C   0  0  0  0  0  0
  -18.0288  -28.1347   22.8490 C   0  0  0  0  0  0
  -24.1501  -36.7308   23.2627 C   0  0  0  0  0  0
  -25.9297  -30.8269   21.3643 C   0  0  0  0  0  0
  -26.0055  -29.4596   20.7151 C   0  0  0  0  0  0
  -27.1961  -28.6981   20.7115 C   0  0  0  0  0  0
  -26.0588  -26.9369   19.4854 C   0  0  0  0  0  0
  -24.8691  -27.6895   19.4991 C   0  0  0  0  0  0
  -23.6102  -29.8213   20.1627 C   0  0  0  0  0  0
  -25.4111  -36.3101   24.0329 C   0  0  1  0  0  0
  -20.5879  -28.3649   23.1299 C   0  0  2  0  0  0
  -20.6772  -26.9388   22.5392 C   0  0  0  0  0  0
  -19.5749  -26.6365   21.5197 C   0  0  0  0  0  0
  -18.1932  -26.7892   22.1620 C   0  0  0  0  0  0
  -19.1535  -28.8814   23.2897 C   0  0  0  0  0  0
  -18.9464  -30.1426   23.8905 C   0  0  0  0  0  0
  -17.6468  -30.6567   24.0554 C   0  0  0  0  0  0
  -25.9041  -34.9477   23.5110 C   0  0  0  0  0  0
  -16.5356  -29.9059   23.6330 C   0  0  0  0  0  0
  -16.7276  -28.6467   23.0359 C   0  0  0  0  0  0
  -26.4483  -31.6592   25.0704 C   0  0  0  0  0  0
  -25.3754  -31.3690   26.1454 C   0  0  0  0  0  0
  -27.0293  -30.3033   24.6060 C   0  0  0  0  0  0
  -27.6065  -32.4305   25.7465 C   0  0  0  0  0  0
  -27.5583  -37.1806   24.8456 C   0  0  0  0  0  0
  -21.4132  -29.3030   22.3709 N   0  0  0  0  0  0
  -26.4289  -37.3798   23.9414 N   0  0  0  0  0  0
  -24.6663  -31.0771   22.0984 N   0  0  0  0  0  0
  -23.4183  -28.8227   23.3018 O   0  0  0  0  0  0
  -28.4206  -26.7097   20.1210 O   0  0  0  0  0  0
  -26.5582  -34.8929   22.4660 O   0  0  0  0  0  0
  -23.5352  -32.1446   23.7469 O   0  0  0  0  0  0
  -28.5435  -20.8794   21.4384 C   0  0  0  0  0  0
  -29.1993  -19.8193   19.5969 C   0  0  0  0  0  0
  -28.5166  -20.9374   20.0157 C   0  0  0  0  0  0
  -29.1985  -19.7448   21.8399 C   0  0  0  0  0  0
  -24.8825  -19.8793   17.5236 C   0  0  0  0  0  0
  -28.1712  -18.8803   23.9666 C   0  0  0  0  0  0
  -30.2598  -20.2968   24.0422 C   0  0  0  0  0  0
  -30.4692  -15.3848   22.8595 C   0  0  0  0  0  0
  -26.3131  -20.2023   17.9706 C   0  0  0  0  0  0
  -29.0008  -24.3148   19.5662 C   0  0  0  0  0  0
  -26.3899  -21.5169   18.7672 C   0  0  0  0  0  0
  -27.7445  -23.4248   19.7385 C   0  0  0  0  0  0
  -30.3123  -17.7759   20.6314 C   0  0  0  0  0  0
  -29.4023  -16.5572   20.9476 C   0  0  0  0  0  0
  -28.7351  -25.7688   19.0815 C   0  0  0  0  0  0
  -27.8195  -21.9824   19.1380 C   0  0  1  0  0  0
  -29.4683  -19.2573   23.2375 C   0  0  0  0  0  0
  -29.5927  -19.0596   20.6933 N   0  0  0  0  0  0
  -30.1067  -15.3549   21.4418 N   0  0  0  0  0  0
  -31.4678  -12.4317   19.1082 H   0  0  0  0  0  0
  -30.3382  -11.3007   19.7949 H   0  0  0  0  0  0
  -29.7333  -11.8096   17.4116 H   0  0  0  0  0  0
  -29.6503  -13.5144   17.7768 H   0  0  0  0  0  0
  -27.8296  -11.3116   18.8065 H   0  0  0  0  0  0
  -27.3603  -12.6456   17.7876 H   0  0  0  0  0  0
  -27.7082  -14.2511   19.5879 H   0  0  0  0  0  0
  -28.6770  -11.9245   21.3195 H   0  0  0  0  0  0
  -28.4433  -13.5478   21.8790 H   0  0  0  0  0  0
  -25.2746   -9.5685   22.4751 H   0  0  0  0  0  0
  -23.9992   -7.4632   22.7469 H   0  0  0  0  0  0
  -21.0825   -8.8759   19.8948 H   0  0  0  0  0  0
  -22.3675  -10.9663   19.6158 H   0  0  0  0  0  0
  -21.2005   -7.6145   23.9713 H   0  0  0  0  0  0
  -21.1485   -6.0522   25.9077 H   0  0  0  0  0  0
  -22.0599   -2.7605   23.2850 H   0  0  0  0  0  0
  -22.4100  -11.9871   22.4761 H   0  0  0  0  0  0
  -21.1125  -13.1267   22.2625 H   0  0  0  0  0  0
  -24.6730  -15.8466   20.5306 H   0  0  0  0  0  0
  -26.2989  -15.6263   20.1280 H   0  0  0  0  0  0
  -26.7107  -32.5535   23.1135 H   0  0  0  0  0  0
  -25.0145  -33.9802   25.0506 H   0  0  0  0  0  0
  -22.6901  -31.3086   21.4042 H   0  0  0  0  0  0
  -23.3771  -35.9640   23.3285 H   0  0  0  0  0  0
  -24.3582  -36.8931   22.2043 H   0  0  0  0  0  0
  -23.7253  -37.6504   23.6649 H   0  0  0  0  0  0
  -26.0409  -31.5901   20.5919 H   0  0  0  0  0  0
  -26.8169  -30.8815   21.9830 H   0  0  0  0  0  0
  -28.0856  -29.0828   21.1913 H   0  0  0  0  0  0
  -26.0316  -25.9650   19.0197 H   0  0  0  0  0  0
  -23.9768  -27.2902   19.0355 H   0  0  0  0  0  0
  -23.7147  -30.5949   19.4004 H   0  0  0  0  0  0
  -22.7359  -29.2384   19.8710 H   0  0  0  0  0  0
  -25.1293  -36.1934   25.0823 H   0  0  0  0  0  0
  -20.9987  -28.3208   24.1409 H   0  0  0  0  0  0
  -20.5660  -26.2272   23.3582 H   0  0  0  0  0  0
  -21.6645  -26.7409   22.1203 H   0  0  0  0  0  0
  -19.6916  -25.6281   21.1219 H   0  0  0  0  0  0
  -19.6683  -27.3190   20.6744 H   0  0  0  0  0  0
  -17.4207  -26.6678   21.4012 H   0  0  0  0  0  0
  -18.0320  -25.9983   22.8974 H   0  0  0  0  0  0
  -19.7943  -30.7242   24.2260 H   0  0  0  0  0  0
  -17.5024  -31.6248   24.5156 H   0  0  0  0  0  0
  -15.5357  -30.2971   23.7618 H   0  0  0  0  0  0
  -15.8680  -28.0783   22.7066 H   0  0  0  0  0  0
  -24.5943  -30.7017   25.7797 H   0  0  0  0  0  0
  -24.8928  -32.2848   26.4890 H   0  0  0  0  0  0
  -25.8115  -30.8873   27.0221 H   0  0  0  0  0  0
  -26.2809  -29.6814   24.1137 H   0  0  0  0  0  0
  -27.4081  -29.7257   25.4502 H   0  0  0  0  0  0
  -27.8663  -30.4324   23.9184 H   0  0  0  0  0  0
  -27.2676  -33.3604   26.2047 H   0  0  0  0  0  0
  -28.3877  -32.6864   25.0292 H   0  0  0  0  0  0
  -28.0740  -31.8423   26.5374 H   0  0  0  0  0  0
  -28.2590  -38.0121   24.7529 H   0  0  0  0  0  0
  -28.1094  -36.2648   24.6248 H   0  0  0  0  0  0
  -27.2296  -37.1408   25.8859 H   0  0  0  0  0  0
  -20.9273  -29.8757   21.6952 H   0  0  0  0  0  0
  -26.0174  -38.2876   24.1432 H   0  0  0  0  0  0
  -28.1022  -21.5958   22.1173 H   0  0  0  0  0  0
  -29.4095  -19.4707   18.5939 H   0  0  0  0  0  0
  -24.8531  -18.9570   16.9436 H   0  0  0  0  0  0
  -24.4711  -20.6739   16.9001 H   0  0  0  0  0  0
  -24.2235  -19.7538   18.3841 H   0  0  0  0  0  0
  -27.6196  -18.1144   23.4207 H   0  0  0  0  0  0
  -27.5133  -19.7428   24.0793 H   0  0  0  0  0  0
  -28.3777  -18.4870   24.9623 H   0  0  0  0  0  0
  -31.1976  -20.5436   23.5430 H   0  0  0  0  0  0
  -30.5060  -19.9234   25.0361 H   0  0  0  0  0  0
  -29.6970  -21.2231   24.1654 H   0  0  0  0  0  0
  -29.6691  -15.8087   23.4664 H   0  0  0  0  0  0
  -31.3674  -15.9847   23.0097 H   0  0  0  0  0  0
  -30.6684  -14.3821   23.2421 H   0  0  0  0  0  0
  -26.9581  -20.2707   17.0940 H   0  0  0  0  0  0
  -26.6870  -19.3735   18.5716 H   0  0  0  0  0  0
  -29.6469  -23.8486   18.8204 H   0  0  0  0  0  0
  -29.5861  -24.3212   20.4865 H   0  0  0  0  0  0
  -25.7890  -21.4269   19.6739 H   0  0  0  0  0  0
  -25.9129  -22.2915   18.1655 H   0  0  0  0  0  0
  -26.9379  -23.9431   19.2223 H   0  0  0  0  0  0
  -27.4239  -23.4058   20.7798 H   0  0  0  0  0  0
  -30.7521  -17.6622   19.6401 H   0  0  0  0  0  0
  -31.1554  -17.8267   21.3205 H   0  0  0  0  0  0
  -28.8324  -16.3043   20.0529 H   0  0  0  0  0  0
  -28.6503  -16.8345   21.6860 H   0  0  0  0  0  0
  -28.0436  -25.7828   18.2396 H   0  0  0  0  0  0
  -29.6702  -26.1384   18.6600 H   0  0  0  0  0  0
  -28.3837  -22.0388   18.2056 H   0  0  0  0  0  0
  -30.0806  -18.3576   23.2065 H   0  0  0  0  0  0
  1 25  1  0  0  0
  1 30  2  0  0  0
  1 89  1  0  0  0
  2  3  1  0  0  0
  2 25  1  0  0  0
  2 90  1  0  0  0
  2 91  1  0  0  0
  3  4  1  0  0  0
  3 92  1  0  0  0
  3 93  1  0  0  0
  4  5  1  0  0  0
  4 94  1  0  0  0
  4 95  1  0  0  0
  5  6  1  0  0  0
  5 26  1  0  0  0
  5 96  1  0  0  0
  6 25  1  0  0  0
  6 97  1  0  0  0
  6 98  1  0  0  0
  7  8  2  0  0  0
  7 26  1  0  0  0
  7 29  1  0  0  0
  8  9  1  0  0  0
  8 22  1  0  0  0
  9 10  1  0  0  0
  9 27  2  0  0  0
 10 11  2  0  0  0
 10 15  1  0  0  0
 11 12  1  0  0  0
 11 99  1  0  0  0
 12 13  2  0  0  0
 12100  1  0  0  0
 13 14  1  0  0  0
 13 31  1  0  0  0
 14 15  2  0  0  0
 14101  1  0  0  0
 15102  1  0  0  0
 16 17  2  0  0  0
 16 21  1  0  0  0
 16 31  1  0  0  0
 17 18  1  0  0  0
 17103  1  0  0  0
 18 19  2  0  0  0
 18104  1  0  0  0
 19 20  1  0  0  0
 19 24  1  0  0  0
 20 21  2  0  0  0
 20105  1  0  0  0
 21 23  1  0  0  0
 22 28  1  0  0  0
 22 32  2  0  0  0
 26 27  1  0  0  0
 28106  1  0  0  0
 28107  1  0  0  0
 29108  1  0  0  0
 29109  1  0  0  0
 33 34  1  0  0  0
 33 66  1  0  0  0
 33 70  2  0  0  0
 34 36  1  0  0  0
 34 59  1  0  0  0
 34110  1  0  0  0
 35 44  2  0  0  0
 35 45  1  0  0  0
 35 68  1  0  0  0
 36 56  1  0  0  0
 36111  1  0  0  0
 37 39  1  0  0  0
 37 47  1  0  0  0
 37 66  1  0  0  0
 37112  1  0  0  0
 38 43  2  0  0  0
 38 46  1  0  0  0
 38 47  1  0  0  0
 39 64  1  0  0  0
 39 67  2  0  0  0
 40 52  1  0  0  0
 40 53  2  0  0  0
 40 58  1  0  0  0
 41113  1  0  0  0
 41114  1  0  0  0
 41115  1  0  0  0
 41 48  1  0  0  0
 42 43  1  0  0  0
 42 66  1  0  0  0
 42116  1  0  0  0
 42117  1  0  0  0
 43 44  1  0  0  0
 44118  1  0  0  0
 45 46  2  0  0  0
 45119  1  0  0  0
 46120  1  0  0  0
 47121  1  0  0  0
 47122  1  0  0  0
 48 56  1  0  0  0
 48 65  1  0  0  0
 48123  1  0  0  0
 49 50  1  0  0  0
 49 53  1  0  0  0
 49 64  1  0  0  0
 49124  1  0  0  0
 50 51  1  0  0  0
 50125  1  0  0  0
 50126  1  0  0  0
 51 52  1  0  0  0
 51127  1  0  0  0
 51128  1  0  0  0
 52129  1  0  0  0
 52130  1  0  0  0
 53 54  1  0  0  0
 54 55  2  0  0  0
 54131  1  0  0  0
 55 57  1  0  0  0
 55132  1  0  0  0
 56 69  2  0  0  0
 57 58  2  0  0  0
 57133  1  0  0  0
 58134  1  0  0  0
 59 60  1  0  0  0
 59 61  1  0  0  0
 59 62  1  0  0  0
 60135  1  0  0  0
 60136  1  0  0  0
 60137  1  0  0  0
 61138  1  0  0  0
 61139  1  0  0  0
 61140  1  0  0  0
 62141  1  0  0  0
 62142  1  0  0  0
 62143  1  0  0  0
 63 65  1  0  0  0
 63144  1  0  0  0
 63145  1  0  0  0
 63146  1  0  0  0
 64147  1  0  0  0
 65148  1  0  0  0
 68 85  1  0  0  0
 71 73  1  0  0  0
 71 74  2  0  0  0
 71149  1  0  0  0
 72 73  2  0  0  0
 72 88  1  0  0  0
 72150  1  0  0  0
 73 86  1  0  0  0
 74 87  1  0  0  0
 74 88  1  0  0  0
 75 79  1  0  0  0
 75151  1  0  0  0
 75152  1  0  0  0
 75153  1  0  0  0
 76154  1  0  0  0
 76155  1  0  0  0
 76156  1  0  0  0
 76 87  1  0  0  0
 77 87  1  0  0  0
 77157  1  0  0  0
 77158  1  0  0  0
 77159  1  0  0  0
 78 89  1  0  0  0
 78160  1  0  0  0
 78161  1  0  0  0
 78162  1  0  0  0
 79 81  1  0  0  0
 79163  1  0  0  0
 79164  1  0  0  0
 80 82  1  0  0  0
 80 85  1  0  0  0
 80165  1  0  0  0
 80166  1  0  0  0
 81167  1  0  0  0
 81168  1  0  0  0
 81 86  1  0  0  0
 82 86  1  0  0  0
 82169  1  0  0  0
 82170  1  0  0  0
 83 84  1  0  0  0
 83 88  1  0  0  0
 83171  1  0  0  0
 83172  1  0  0  0
 84 89  1  0  0  0
 84173  1  0  0  0
 84174  1  0  0  0
 85175  1  0  0  0
 85176  1  0  0  0
 86177  1  0  0  0
 87178  1  0  0  0
M  ISO  4   1 100  68 101  85 101  89 100
M  END
> <chiral flag>
0

> <version>
0

> <s_m_source_file>
/data/baiqing/PycharmProjects/Reinvent-master-3.2/result/LINK_invent/BTK/process_docking_weight1_custom_sum_contain_oxygen_bond_distance_aromatic_linkinvent_7_9_3/rearranged_h_0094.sdf

> <i_m_source_file_index>
33

> <r_mmod_Potential_Energy-OPLS-2005>
99.4784774780273

> <r_mmod_Stretch_Energy-OPLS-2005>
40.5152893066406

> <r_mmod_Bend_Energy-OPLS-2005>
115.734344482422

> <r_mmod_Torsional_Energy-OPLS-2005>
333.333557128906

> <r_mmod_Improper_Torsional_Energy-OPLS-2005>
2.84838199615479

> <r_mmod_Van_der_Waal_Energy-OPLS-2005>
115.11100769043

> <r_mmod_Electrostatic_Energy-OPLS-2005>
-340.324584960938

> <r_mmod_Solvation_Energy-OPLS-2005>
-179.198989868164

> <b_mmod_Minimization_Converged-OPLS-2005>
0

> <r_mmod_RMS_Derivative-OPLS-2005>
1.86979246139526

$$$$
33
                    3D
 Structure written by MMmdl.
158165  0  0  1  0            999 V2000
  -30.6508  -14.5250   20.5649 C   0  0  0  0  0  0
  -30.4378  -12.3456   19.4117 C   0  0  0  0  0  0
  -29.4936  -12.5161   18.2014 C   0  0  0  0  0  0
  -28.0180  -12.3568   18.6199 C   0  0  0  0  0  0
  -27.6593  -13.2007   19.8719 C   0  0  2  0  0  0
  -28.7049  -12.9830   20.9887 C   0  0  0  0  0  0
  -25.2593  -13.8139   20.5682 C   0  0  0  0  0  0
  -24.1838  -13.0427   20.9179 C   0  0  0  0  0  0
  -24.6383  -11.6891   20.8739 C   0  0  0  0  0  0
  -23.9051  -10.4286   21.0413 C   0  0  0  0  0  0
  -24.3608   -9.4199   21.9190 C   0  0  0  0  0  0
  -23.6289   -8.2233   22.0755 C   0  0  0  0  0  0
  -22.4276   -8.0275   21.3540 C   0  0  0  0  0  0
  -21.9914   -9.0249   20.4643 C   0  0  0  0  0  0
  -22.7232  -10.2129   20.3056 C   0  0  0  0  0  0
  -21.6849   -6.0733   22.5279 C   0  0  0  0  0  0
  -21.4007   -6.5636   23.8212 C   0  0  0  0  0  0
  -21.3660   -5.6790   24.9178 C   0  0  0  0  0  0
  -21.6049   -4.3052   24.7231 C   0  0  0  0  0  0
  -21.8814   -3.8146   23.4352 C   0  0  0  0  0  0
  -21.9192   -4.6962   22.3409 C   0  0  0  0  0  0
  -22.7865  -13.5239   21.1852 C   0  0  0  0  0  0
  -22.1659   -4.2144   21.0985 F   0  0  0  0  0  0
  -21.5636   -3.4536   25.7743 F   0  0  0  0  0  0
  -30.0278  -13.3203   20.4348 N   0  0  0  0  0  0
  -26.3013  -12.9287   20.3358 N   0  0  0  0  0  0
  -25.9302  -11.6452   20.5757 N   0  0  0  0  0  0
  -22.0507  -12.8230   22.0402 N   0  0  0  0  0  0
  -25.4351  -15.1860   20.4093 N   0  0  0  0  0  0
  -31.7892  -14.7419   20.1399 O   0  0  0  0  0  0
  -21.6635   -6.8877   21.4240 O   0  0  0  0  0  0
  -22.3560  -14.5563   20.6722 O   0  0  0  0  0  0
  -24.6177  -31.8663   23.2073 C   0  0  0  0  0  0
  -25.9058  -32.4810   23.8390 C   0  0  1  0  0  0
  -27.2331  -27.4002   20.1123 C   0  0  0  0  0  0
  -25.5935  -33.8611   24.2335 N   0  0  0  0  0  0
  -23.4062  -30.4883   21.5485 C   0  0  2  0  0  0
  -24.8531  -28.9426   20.1202 C   0  0  0  0  0  0
  -22.7425  -29.4647   22.4982 C   0  0  0  0  0  0
  -18.0277  -28.1372   22.8495 C   0  0  0  0  0  0
  -24.1490  -36.7294   23.2637 C   0  0  0  0  0  0
  -25.9371  -30.8212   21.3635 C   0  0  0  0  0  0
  -26.0145  -29.4499   20.7170 C   0  0  0  0  0  0
  -27.2088  -28.6884   20.7042 C   0  0  0  0  0  0
  -26.0550  -26.9111   19.5116 C   0  0  0  0  0  0
  -24.8705  -27.6744   19.5129 C   0  0  0  0  0  0
  -23.6175  -29.8161   20.1647 C   0  0  0  0  0  0
  -25.4114  -36.3100   24.0336 C   0  0  1  0  0  0
  -20.5869  -28.3667   23.1324 C   0  0  2  0  0  0
  -20.6772  -26.9403   22.5418 C   0  0  0  0  0  0
  -19.5749  -26.6383   21.5216 C   0  0  0  0  0  0
  -18.1928  -26.7921   22.1623 C   0  0  0  0  0  0
  -19.1527  -28.8832   23.2908 C   0  0  0  0  0  0
  -18.9453  -30.1439   23.8923 C   0  0  0  0  0  0
  -17.6452  -30.6583   24.0567 C   0  0  0  0  0  0
  -25.9040  -34.9466   23.5122 C   0  0  0  0  0  0
  -16.5346  -29.9082   23.6325 C   0  0  0  0  0  0
  -16.7268  -28.6498   23.0355 C   0  0  0  0  0  0
  -26.4476  -31.6589   25.0725 C   0  0  0  0  0  0
  -25.3737  -31.3672   26.1467 C   0  0  0  0  0  0
  -27.0301  -30.3042   24.6081 C   0  0  0  0  0  0
  -27.6065  -32.4290   25.7491 C   0  0  0  0  0  0
  -27.5574  -37.1803   24.8471 C   0  0  0  0  0  0
  -21.4146  -29.3037   22.3731 N   0  0  0  0  0  0
  -26.4293  -37.3788   23.9405 N   0  0  0  0  0  0
  -24.6721  -31.0743   22.0984 N   0  0  0  0  0  0
  -23.4185  -28.8191   23.3032 O   0  0  0  0  0  0
  -28.4028  -26.6646   20.0666 O   0  0  0  0  0  0
  -26.5579  -34.8915   22.4669 O   0  0  0  0  0  0
  -23.5367  -32.1421   23.7467 O   0  0  0  0  0  0
  -28.4794  -19.6214   18.0855 C   0  0  0  0  0  0
  -28.7680  -22.7627   20.2576 C   0  0  0  0  0  0
  -28.1482  -24.1301   19.7908 C   0  0  0  0  0  0
  -29.6156  -17.8800   20.0868 C   0  0  0  0  0  0
  -30.1230  -16.9588   21.2440 C   0  0  0  0  0  0
  -28.1021  -21.5079   19.6026 C   0  0  0  0  0  0
  -29.2435  -19.3716   20.4606 C   0  0  0  0  0  0
  -28.4278  -25.3638   20.7031 C   0  0  0  0  0  0
  -29.8613  -15.5129   21.0464 N   0  0  0  0  0  0
  -28.9767  -20.3124   19.3068 N   0  3  1  0  0  0
  -31.4760  -12.4827   19.1015 H   0  0  0  0  0  0
  -30.3751  -11.3318   19.8092 H   0  0  0  0  0  0
  -29.7407  -11.7920   17.4243 H   0  0  0  0  0  0
  -29.6404  -13.5021   17.7577 H   0  0  0  0  0  0
  -27.8449  -11.3002   18.8267 H   0  0  0  0  0  0
  -27.3594  -12.6129   17.7886 H   0  0  0  0  0  0
  -27.6997  -14.2470   19.5680 H   0  0  0  0  0  0
  -28.6997  -11.9412   21.3130 H   0  0  0  0  0  0
  -28.4608  -13.5631   21.8799 H   0  0  0  0  0  0
  -25.2750   -9.5668   22.4768 H   0  0  0  0  0  0
  -23.9991   -7.4622   22.7474 H   0  0  0  0  0  0
  -21.0846   -8.8768   19.8950 H   0  0  0  0  0  0
  -22.3699  -10.9670   19.6163 H   0  0  0  0  0  0
  -21.1986   -7.6138   23.9719 H   0  0  0  0  0  0
  -21.1490   -6.0518   25.9081 H   0  0  0  0  0  0
  -22.0593   -2.7606   23.2857 H   0  0  0  0  0  0
  -22.4114  -11.9868   22.4755 H   0  0  0  0  0  0
  -21.1127  -13.1252   22.2617 H   0  0  0  0  0  0
  -24.6720  -15.8462   20.5150 H   0  0  0  0  0  0
  -26.2866  -15.6181   20.0746 H   0  0  0  0  0  0
  -26.7134  -32.5509   23.1157 H   0  0  0  0  0  0
  -25.0179  -33.9787   25.0547 H   0  0  0  0  0  0
  -22.6956  -31.3052   21.4064 H   0  0  0  0  0  0
  -23.3758  -35.9621   23.3312 H   0  0  0  0  0  0
  -24.3577  -36.8889   22.2046 H   0  0  0  0  0  0
  -23.7237  -37.6499   23.6643 H   0  0  0  0  0  0
  -26.0481  -31.5809   20.5888 H   0  0  0  0  0  0
  -26.8269  -30.8813   21.9779 H   0  0  0  0  0  0
  -28.1082  -29.0795   21.1589 H   0  0  0  0  0  0
  -26.0529  -25.9469   19.0253 H   0  0  0  0  0  0
  -23.9797  -27.2803   19.0432 H   0  0  0  0  0  0
  -23.7301  -30.5896   19.4045 H   0  0  0  0  0  0
  -22.7407  -29.2385   19.8673 H   0  0  0  0  0  0
  -25.1285  -36.1964   25.0827 H   0  0  0  0  0  0
  -20.9965  -28.3223   24.1442 H   0  0  0  0  0  0
  -20.5688  -26.2265   23.3599 H   0  0  0  0  0  0
  -21.6642  -26.7452   22.1196 H   0  0  0  0  0  0
  -19.6916  -25.6296   21.1233 H   0  0  0  0  0  0
  -19.6695  -27.3207   20.6757 H   0  0  0  0  0  0
  -17.4200  -26.6690   21.4017 H   0  0  0  0  0  0
  -18.0320  -26.0050   22.9006 H   0  0  0  0  0  0
  -19.7928  -30.7249   24.2305 H   0  0  0  0  0  0
  -17.5011  -31.6270   24.5157 H   0  0  0  0  0  0
  -15.5351  -30.2998   23.7629 H   0  0  0  0  0  0
  -15.8665  -28.0823   22.7060 H   0  0  0  0  0  0
  -24.5941  -30.6987   25.7788 H   0  0  0  0  0  0
  -24.8890  -32.2807   26.4923 H   0  0  0  0  0  0
  -25.8093  -30.8838   27.0221 H   0  0  0  0  0  0
  -26.2824  -29.6810   24.1159 H   0  0  0  0  0  0
  -27.4108  -29.7269   25.4516 H   0  0  0  0  0  0
  -27.8644  -30.4372   23.9189 H   0  0  0  0  0  0
  -27.2713  -33.3594   26.2086 H   0  0  0  0  0  0
  -28.3870  -32.6835   25.0310 H   0  0  0  0  0  0
  -28.0734  -31.8392   26.5390 H   0  0  0  0  0  0
  -28.2604  -38.0092   24.7510 H   0  0  0  0  0  0
  -28.1058  -36.2618   24.6313 H   0  0  0  0  0  0
  -27.2280  -37.1458   25.8873 H   0  0  0  0  0  0
  -20.9308  -29.8778   21.6971 H   0  0  0  0  0  0
  -26.0180  -38.2857   24.1428 H   0  0  0  0  0  0
  -28.3256  -20.3180   17.2609 H   0  0  0  0  0  0
  -27.5286  -19.1214   18.2768 H   0  0  0  0  0  0
  -29.1873  -18.8865   17.7068 H   0  0  0  0  0  0
  -28.6820  -22.6703   21.3414 H   0  0  0  0  0  0
  -29.8365  -22.7794   20.0423 H   0  0  0  0  0  0
  -27.0683  -24.0205   19.6897 H   0  0  0  0  0  0
  -28.5199  -24.3461   18.7885 H   0  0  0  0  0  0
  -28.7364  -17.4107   19.6437 H   0  0  0  0  0  0
  -30.3873  -17.8746   19.3166 H   0  0  0  0  0  0
  -29.6141  -17.2382   22.1676 H   0  0  0  0  0  0
  -31.1852  -17.1286   21.4285 H   0  0  0  0  0  0
  -27.6927  -21.8630   18.6557 H   0  0  0  0  0  0
  -27.2259  -21.2000   20.1756 H   0  0  0  0  0  0
  -30.0353  -19.8083   21.0703 H   0  0  0  0  0  0
  -28.3624  -19.3439   21.1030 H   0  0  0  0  0  0
  -29.4333  -25.2606   21.1119 H   0  0  0  0  0  0
  -27.7613  -25.3472   21.5677 H   0  0  0  0  0  0
  -28.9467  -15.1974   21.3341 H   0  0  0  0  0  0
  -29.8748  -20.6817   19.0311 H   0  0  0  0  0  0
  1 25  1  0  0  0
  1 30  2  0  0  0
  1 79  1  0  0  0
  2  3  1  0  0  0
  2 25  1  0  0  0
  2 81  1  0  0  0
  2 82  1  0  0  0
  3  4  1  0  0  0
  3 83  1  0  0  0
  3 84  1  0  0  0
  4  5  1  0  0  0
  4 85  1  0  0  0
  4 86  1  0  0  0
  5  6  1  0  0  0
  5 26  1  0  0  0
  5 87  1  0  0  0
  6 25  1  0  0  0
  6 88  1  0  0  0
  6 89  1  0  0  0
  7  8  2  0  0  0
  7 26  1  0  0  0
  7 29  1  0  0  0
  8  9  1  0  0  0
  8 22  1  0  0  0
  9 10  1  0  0  0
  9 27  2  0  0  0
 10 11  2  0  0  0
 10 15  1  0  0  0
 11 12  1  0  0  0
 11 90  1  0  0  0
 12 13  2  0  0  0
 12 91  1  0  0  0
 13 14  1  0  0  0
 13 31  1  0  0  0
 14 15  2  0  0  0
 14 92  1  0  0  0
 15 93  1  0  0  0
 16 17  2  0  0  0
 16 21  1  0  0  0
 16 31  1  0  0  0
 17 18  1  0  0  0
 17 94  1  0  0  0
 18 19  2  0  0  0
 18 95  1  0  0  0
 19 20  1  0  0  0
 19 24  1  0  0  0
 20 21  2  0  0  0
 20 96  1  0  0  0
 21 23  1  0  0  0
 22 28  1  0  0  0
 22 32  2  0  0  0
 26 27  1  0  0  0
 28 97  1  0  0  0
 28 98  1  0  0  0
 29 99  1  0  0  0
 29100  1  0  0  0
 33 34  1  0  0  0
 33 66  1  0  0  0
 33 70  2  0  0  0
 34 36  1  0  0  0
 34 59  1  0  0  0
 34101  1  0  0  0
 35 44  2  0  0  0
 35 45  1  0  0  0
 35 68  1  0  0  0
 36 56  1  0  0  0
 36102  1  0  0  0
 37 39  1  0  0  0
 37 47  1  0  0  0
 37 66  1  0  0  0
 37103  1  0  0  0
 38 43  2  0  0  0
 38 46  1  0  0  0
 38 47  1  0  0  0
 39 64  1  0  0  0
 39 67  2  0  0  0
 40 52  1  0  0  0
 40 53  2  0  0  0
 40 58  1  0  0  0
 41104  1  0  0  0
 41105  1  0  0  0
 41106  1  0  0  0
 41 48  1  0  0  0
 42 43  1  0  0  0
 42 66  1  0  0  0
 42107  1  0  0  0
 42108  1  0  0  0
 43 44  1  0  0  0
 44109  1  0  0  0
 45 46  2  0  0  0
 45110  1  0  0  0
 46111  1  0  0  0
 47112  1  0  0  0
 47113  1  0  0  0
 48 56  1  0  0  0
 48 65  1  0  0  0
 48114  1  0  0  0
 49 50  1  0  0  0
 49 53  1  0  0  0
 49 64  1  0  0  0
 49115  1  0  0  0
 50 51  1  0  0  0
 50116  1  0  0  0
 50117  1  0  0  0
 51 52  1  0  0  0
 51118  1  0  0  0
 51119  1  0  0  0
 52120  1  0  0  0
 52121  1  0  0  0
 53 54  1  0  0  0
 54 55  2  0  0  0
 54122  1  0  0  0
 55 57  1  0  0  0
 55123  1  0  0  0
 56 69  2  0  0  0
 57 58  2  0  0  0
 57124  1  0  0  0
 58125  1  0  0  0
 59 60  1  0  0  0
 59 61  1  0  0  0
 59 62  1  0  0  0
 60126  1  0  0  0
 60127  1  0  0  0
 60128  1  0  0  0
 61129  1  0  0  0
 61130  1  0  0  0
 61131  1  0  0  0
 62132  1  0  0  0
 62133  1  0  0  0
 62134  1  0  0  0
 63 65  1  0  0  0
 63135  1  0  0  0
 63136  1  0  0  0
 63137  1  0  0  0
 64138  1  0  0  0
 65139  1  0  0  0
 68 78  1  0  0  0
 71140  1  0  0  0
 71141  1  0  0  0
 71142  1  0  0  0
 71 80  1  0  0  0
 72 73  1  0  0  0
 72 76  1  0  0  0
 72143  1  0  0  0
 72144  1  0  0  0
 73 78  1  0  0  0
 73145  1  0  0  0
 73146  1  0  0  0
 74 75  1  0  0  0
 74 77  1  0  0  0
 74147  1  0  0  0
 74148  1  0  0  0
 75 79  1  0  0  0
 75149  1  0  0  0
 75150  1  0  0  0
 76 80  1  0  0  0
 76151  1  0  0  0
 76152  1  0  0  0
 77 80  1  0  0  0
 77153  1  0  0  0
 77154  1  0  0  0
 78155  1  0  0  0
 78156  1  0  0  0
 79157  1  0  0  0
 80158  1  0  0  0
M  CHG  1  80   1
M  ISO  4   1 100  68 101  78 101  79 100
M  END
> <chiral flag>
0

> <version>
0

> <s_m_source_file>
/data/baiqing/PycharmProjects/Reinvent-master-3.2/result/LINK_invent/BTK/process_docking_weight1_custom_sum_contain_oxygen_bond_distance_aromatic_linkinvent_7_9_3/rearranged_h_0094.sdf

> <i_m_source_file_index>
34

> <r_mmod_Potential_Energy-OPLS-2005>
-117.081047058105

> <r_mmod_Stretch_Energy-OPLS-2005>
49.6467971801758

> <r_mmod_Bend_Energy-OPLS-2005>
117.403350830078

> <r_mmod_Torsional_Energy-OPLS-2005>
241.43440246582

> <r_mmod_Improper_Torsional_Energy-OPLS-2005>
3.69282793998718

> <r_mmod_Van_der_Waal_Energy-OPLS-2005>
130.755767822266

> <r_mmod_Electrostatic_Energy-OPLS-2005>
-220.329528808594

> <r_mmod_Solvation_Energy-OPLS-2005>
-457.979461669922

> <b_mmod_Minimization_Converged-OPLS-2005>
0

> <r_mmod_RMS_Derivative-OPLS-2005>
1.37276816368103

$$$$
34
                    3D
 Structure written by MMmdl.
162170  0  0  1  0            999 V2000
  -30.6815  -14.4691   20.5484 C   0  0  0  0  0  0
  -30.4190  -12.2784   19.4318 C   0  0  0  0  0  0
  -29.5030  -12.4939   18.2083 C   0  0  0  0  0  0
  -28.0260  -12.3449   18.6297 C   0  0  0  0  0  0
  -27.6700  -13.1933   19.8807 C   0  0  2  0  0  0
  -28.7117  -12.9695   21.0018 C   0  0  0  0  0  0
  -25.2638  -13.8076   20.5634 C   0  0  0  0  0  0
  -24.1889  -13.0355   20.9128 C   0  0  0  0  0  0
  -24.6432  -11.6817   20.8730 C   0  0  0  0  0  0
  -23.9079  -10.4225   21.0393 C   0  0  0  0  0  0
  -24.3619   -9.4153   21.9180 C   0  0  0  0  0  0
  -23.6273   -8.2205   22.0756 C   0  0  0  0  0  0
  -22.4262   -8.0250   21.3520 C   0  0  0  0  0  0
  -21.9904   -9.0243   20.4641 C   0  0  0  0  0  0
  -22.7252  -10.2100   20.3039 C   0  0  0  0  0  0
  -21.6852   -6.0713   22.5259 C   0  0  0  0  0  0
  -21.4028   -6.5621   23.8201 C   0  0  0  0  0  0
  -21.3670   -5.6774   24.9155 C   0  0  0  0  0  0
  -21.6039   -4.3039   24.7210 C   0  0  0  0  0  0
  -21.8832   -3.8126   23.4335 C   0  0  0  0  0  0
  -21.9205   -4.6942   22.3383 C   0  0  0  0  0  0
  -22.7927  -13.5186   21.1818 C   0  0  0  0  0  0
  -22.1660   -4.2120   21.0974 F   0  0  0  0  0  0
  -21.5636   -3.4530   25.7732 F   0  0  0  0  0  0
  -30.0380  -13.2773   20.4421 N   0  0  0  0  0  0
  -26.3091  -12.9239   20.3369 N   0  0  0  0  0  0
  -25.9364  -11.6395   20.5763 N   0  0  0  0  0  0
  -22.0564  -12.8200   22.0387 N   0  0  0  0  0  0
  -25.4319  -15.1802   20.4047 N   0  0  0  0  0  0
  -31.8196  -14.6514   20.0905 O   0  0  0  0  0  0
  -21.6639   -6.8838   21.4200 O   0  0  0  0  0  0
  -22.3636  -14.5525   20.6714 O   0  0  0  0  0  0
  -24.6105  -31.8683   23.2144 C   0  0  0  0  0  0
  -25.9037  -32.4812   23.8396 C   0  0  1  0  0  0
  -27.2076  -27.4303   20.1445 C   0  0  0  0  0  0
  -25.5883  -33.8596   24.2308 N   0  0  0  0  0  0
  -23.3942  -30.5014   21.5440 C   0  0  2  0  0  0
  -24.8482  -28.9782   20.0962 C   0  0  0  0  0  0
  -22.7357  -29.4732   22.4927 C   0  0  0  0  0  0
  -18.0264  -28.1363   22.8456 C   0  0  0  0  0  0
  -24.1493  -36.7308   23.2629 C   0  0  0  0  0  0
  -25.9257  -30.8467   21.3689 C   0  0  0  0  0  0
  -26.0038  -29.4853   20.7093 C   0  0  0  0  0  0
  -27.1906  -28.7185   20.7282 C   0  0  0  0  0  0
  -26.0500  -26.9458   19.5027 C   0  0  0  0  0  0
  -24.8719  -27.7148   19.4761 C   0  0  0  0  0  0
  -23.6043  -29.8382   20.1527 C   0  0  0  0  0  0
  -25.4121  -36.3083   24.0306 C   0  0  1  0  0  0
  -20.5844  -28.3679   23.1254 C   0  0  2  0  0  0
  -20.6791  -26.9438   22.5331 C   0  0  0  0  0  0
  -19.5725  -26.6437   21.5143 C   0  0  0  0  0  0
  -18.1945  -26.7915   22.1602 C   0  0  0  0  0  0
  -19.1501  -28.8848   23.2874 C   0  0  0  0  0  0
  -18.9429  -30.1435   23.8869 C   0  0  0  0  0  0
  -17.6443  -30.6560   24.0563 C   0  0  0  0  0  0
  -25.9031  -34.9460   23.5095 C   0  0  0  0  0  0
  -16.5333  -29.9100   23.6312 C   0  0  0  0  0  0
  -16.7240  -28.6511   23.0334 C   0  0  0  0  0  0
  -26.4485  -31.6559   25.0678 C   0  0  0  0  0  0
  -25.3766  -31.3687   26.1426 C   0  0  0  0  0  0
  -27.0299  -30.2984   24.6069 C   0  0  0  0  0  0
  -27.6022  -32.4287   25.7469 C   0  0  0  0  0  0
  -27.5577  -37.1819   24.8472 C   0  0  0  0  0  0
  -21.4086  -29.3085   22.3683 N   0  0  0  0  0  0
  -26.4304  -37.3780   23.9372 N   0  0  0  0  0  0
  -24.6611  -31.0837   22.1021 N   0  0  0  0  0  0
  -23.4181  -28.8270   23.2955 O   0  0  0  0  0  0
  -28.3068  -26.6121   20.2661 O   0  0  0  0  0  0
  -26.5613  -34.8905   22.4670 O   0  0  0  0  0  0
  -23.5322  -32.1383   23.7609 O   0  0  0  0  0  0
  -28.2941  -17.7089   20.0042 C   0  0  0  0  0  0
  -27.3943  -18.7274   19.6622 C   0  0  0  0  0  0
  -29.5627  -19.3246   21.2995 C   0  0  0  0  0  0
  -29.3785  -17.9864   20.8527 C   0  0  0  0  0  0
  -27.5671  -20.0545   20.1086 C   0  0  0  0  0  0
  -28.6940  -20.3922   20.9206 C   0  0  0  0  0  0
  -25.1135  -20.7002   20.2537 C   0  0  0  0  0  0
  -26.4862  -21.0171   19.6336 C   0  0  0  0  0  0
  -29.1261  -21.8280   21.3448 C   0  0  0  0  0  0
  -30.4062  -16.8887   21.1914 C   0  0  0  0  0  0
  -28.1074  -22.9695   21.6934 C   0  0  0  0  0  0
  -28.0123  -24.1560   20.6597 C   0  0  0  0  0  0
  -28.1387  -25.5758   21.2702 C   0  0  0  0  0  0
  -29.9618  -15.4840   21.0640 N   0  0  0  0  0  0
  -31.4731  -12.3206   19.1633 H   0  0  0  0  0  0
  -30.2690  -11.2661   19.8148 H   0  0  0  0  0  0
  -29.7444  -11.7767   17.4226 H   0  0  0  0  0  0
  -29.6794  -13.4799   17.7749 H   0  0  0  0  0  0
  -27.8645  -11.2892   18.8502 H   0  0  0  0  0  0
  -27.3665  -12.5726   17.7974 H   0  0  0  0  0  0
  -27.7272  -14.2405   19.5882 H   0  0  0  0  0  0
  -28.6835  -11.9295   21.3408 H   0  0  0  0  0  0
  -28.4843  -13.5698   21.8834 H   0  0  0  0  0  0
  -25.2736   -9.5649   22.4755 H   0  0  0  0  0  0
  -23.9985   -7.4605   22.7496 H   0  0  0  0  0  0
  -21.0813   -8.8762   19.8951 H   0  0  0  0  0  0
  -22.3697  -10.9650   19.6160 H   0  0  0  0  0  0
  -21.2020   -7.6124   23.9692 H   0  0  0  0  0  0
  -21.1489   -6.0500   25.9065 H   0  0  0  0  0  0
  -22.0613   -2.7579   23.2848 H   0  0  0  0  0  0
  -22.4200  -11.9838   22.4717 H   0  0  0  0  0  0
  -21.1199  -13.1256   22.2612 H   0  0  0  0  0  0
  -24.6551  -15.8204   20.5216 H   0  0  0  0  0  0
  -26.2826  -15.6369   20.1019 H   0  0  0  0  0  0
  -26.7116  -32.5606   23.1185 H   0  0  0  0  0  0
  -25.0005  -33.9760   25.0442 H   0  0  0  0  0  0
  -22.6771  -31.3174   21.4122 H   0  0  0  0  0  0
  -23.3724  -35.9670   23.3343 H   0  0  0  0  0  0
  -24.3606  -36.8897   22.2033 H   0  0  0  0  0  0
  -23.7292  -37.6534   23.6656 H   0  0  0  0  0  0
  -26.0475  -31.6236   20.6131 H   0  0  0  0  0  0
  -26.8083  -30.8841   21.9969 H   0  0  0  0  0  0
  -28.0809  -29.0838   21.2298 H   0  0  0  0  0  0
  -26.0488  -25.9660   19.0496 H   0  0  0  0  0  0
  -23.9891  -27.3320   18.9833 H   0  0  0  0  0  0
  -23.7122  -30.6164   19.3976 H   0  0  0  0  0  0
  -22.7281  -29.2530   19.8639 H   0  0  0  0  0  0
  -25.1330  -36.1922   25.0801 H   0  0  0  0  0  0
  -21.0010  -28.3281   24.1368 H   0  0  0  0  0  0
  -20.5795  -26.2266   23.3495 H   0  0  0  0  0  0
  -21.6672  -26.7563   22.1134 H   0  0  0  0  0  0
  -19.6851  -25.6399   21.1076 H   0  0  0  0  0  0
  -19.6571  -27.3310   20.6719 H   0  0  0  0  0  0
  -17.4190  -26.6651   21.4033 H   0  0  0  0  0  0
  -18.0385  -26.0076   22.9027 H   0  0  0  0  0  0
  -19.7848  -30.7281   24.2257 H   0  0  0  0  0  0
  -17.5010  -31.6207   24.5230 H   0  0  0  0  0  0
  -15.5350  -30.3027   23.7637 H   0  0  0  0  0  0
  -15.8650  -28.0796   22.7053 H   0  0  0  0  0  0
  -24.5925  -30.7053   25.7803 H   0  0  0  0  0  0
  -24.8973  -32.2839   26.4867 H   0  0  0  0  0  0
  -25.8090  -30.8858   27.0185 H   0  0  0  0  0  0
  -26.2842  -29.6743   24.1115 H   0  0  0  0  0  0
  -27.4047  -29.7227   25.4547 H   0  0  0  0  0  0
  -27.8702  -30.4266   23.9236 H   0  0  0  0  0  0
  -27.2581  -33.3561   26.2067 H   0  0  0  0  0  0
  -28.3822  -32.6879   25.0307 H   0  0  0  0  0  0
  -28.0687  -31.8392   26.5377 H   0  0  0  0  0  0
  -28.2629  -38.0084   24.7458 H   0  0  0  0  0  0
  -28.1023  -36.2599   24.6380 H   0  0  0  0  0  0
  -27.2267  -37.1584   25.8873 H   0  0  0  0  0  0
  -20.9229  -29.8774   21.6887 H   0  0  0  0  0  0
  -26.0170  -38.2854   24.1352 H   0  0  0  0  0  0
  -28.1381  -16.7216   19.5971 H   0  0  0  0  0  0
  -26.5522  -18.5087   19.0214 H   0  0  0  0  0  0
  -30.4261  -19.5471   21.9143 H   0  0  0  0  0  0
  -25.1594  -20.7057   21.3398 H   0  0  0  0  0  0
  -24.7093  -19.7359   19.9369 H   0  0  0  0  0  0
  -24.3921  -21.4654   19.9736 H   0  0  0  0  0  0
  -26.4303  -21.0112   18.5431 H   0  0  0  0  0  0
  -26.7385  -22.0291   19.8734 H   0  0  0  0  0  0
  -29.8355  -22.2155   20.6176 H   0  0  0  0  0  0
  -29.7452  -21.6847   22.2386 H   0  0  0  0  0  0
  -30.7930  -17.0292   22.2006 H   0  0  0  0  0  0
  -31.2515  -17.0766   20.5301 H   0  0  0  0  0  0
  -28.4809  -23.4056   22.6213 H   0  0  0  0  0  0
  -27.1304  -22.5939   22.0030 H   0  0  0  0  0  0
  -28.7621  -24.0610   19.8744 H   0  0  0  0  0  0
  -27.0641  -24.1178   20.1264 H   0  0  0  0  0  0
  -28.9793  -25.6043   21.9717 H   0  0  0  0  0  0
  -27.2552  -25.7497   21.8871 H   0  0  0  0  0  0
  -29.0405  -15.2652   21.4167 H   0  0  0  0  0  0
  1 25  1  0  0  0
  1 30  2  0  0  0
  1 84  1  0  0  0
  2  3  1  0  0  0
  2 25  1  0  0  0
  2 85  1  0  0  0
  2 86  1  0  0  0
  3  4  1  0  0  0
  3 87  1  0  0  0
  3 88  1  0  0  0
  4  5  1  0  0  0
  4 89  1  0  0  0
  4 90  1  0  0  0
  5  6  1  0  0  0
  5 26  1  0  0  0
  5 91  1  0  0  0
  6 25  1  0  0  0
  6 92  1  0  0  0
  6 93  1  0  0  0
  7  8  2  0  0  0
  7 26  1  0  0  0
  7 29  1  0  0  0
  8  9  1  0  0  0
  8 22  1  0  0  0
  9 10  1  0  0  0
  9 27  2  0  0  0
 10 11  2  0  0  0
 10 15  1  0  0  0
 11 12  1  0  0  0
 11 94  1  0  0  0
 12 13  2  0  0  0
 12 95  1  0  0  0
 13 14  1  0  0  0
 13 31  1  0  0  0
 14 15  2  0  0  0
 14 96  1  0  0  0
 15 97  1  0  0  0
 16 17  2  0  0  0
 16 21  1  0  0  0
 16 31  1  0  0  0
 17 18  1  0  0  0
 17 98  1  0  0  0
 18 19  2  0  0  0
 18 99  1  0  0  0
 19 20  1  0  0  0
 19 24  1  0  0  0
 20 21  2  0  0  0
 20100  1  0  0  0
 21 23  1  0  0  0
 22 28  1  0  0  0
 22 32  2  0  0  0
 26 27  1  0  0  0
 28101  1  0  0  0
 28102  1  0  0  0
 29103  1  0  0  0
 29104  1  0  0  0
 33 34  1  0  0  0
 33 66  1  0  0  0
 33 70  2  0  0  0
 34 36  1  0  0  0
 34 59  1  0  0  0
 34105  1  0  0  0
 35 44  2  0  0  0
 35 45  1  0  0  0
 35 68  1  0  0  0
 36 56  1  0  0  0
 36106  1  0  0  0
 37 39  1  0  0  0
 37 47  1  0  0  0
 37 66  1  0  0  0
 37107  1  0  0  0
 38 43  2  0  0  0
 38 46  1  0  0  0
 38 47  1  0  0  0
 39 64  1  0  0  0
 39 67  2  0  0  0
 40 52  1  0  0  0
 40 53  2  0  0  0
 40 58  1  0  0  0
 41108  1  0  0  0
 41109  1  0  0  0
 41110  1  0  0  0
 41 48  1  0  0  0
 42 43  1  0  0  0
 42 66  1  0  0  0
 42111  1  0  0  0
 42112  1  0  0  0
 43 44  1  0  0  0
 44113  1  0  0  0
 45 46  2  0  0  0
 45114  1  0  0  0
 46115  1  0  0  0
 47116  1  0  0  0
 47117  1  0  0  0
 48 56  1  0  0  0
 48 65  1  0  0  0
 48118  1  0  0  0
 49 50  1  0  0  0
 49 53  1  0  0  0
 49 64  1  0  0  0
 49119  1  0  0  0
 50 51  1  0  0  0
 50120  1  0  0  0
 50121  1  0  0  0
 51 52  1  0  0  0
 51122  1  0  0  0
 51123  1  0  0  0
 52124  1  0  0  0
 52125  1  0  0  0
 53 54  1  0  0  0
 54 55  2  0  0  0
 54126  1  0  0  0
 55 57  1  0  0  0
 55127  1  0  0  0
 56 69  2  0  0  0
 57 58  2  0  0  0
 57128  1  0  0  0
 58129  1  0  0  0
 59 60  1  0  0  0
 59 61  1  0  0  0
 59 62  1  0  0  0
 60130  1  0  0  0
 60131  1  0  0  0
 60132  1  0  0  0
 61133  1  0  0  0
 61134  1  0  0  0
 61135  1  0  0  0
 62136  1  0  0  0
 62137  1  0  0  0
 62138  1  0  0  0
 63 65  1  0  0  0
 63139  1  0  0  0
 63140  1  0  0  0
 63141  1  0  0  0
 64142  1  0  0  0
 65143  1  0  0  0
 68 83  1  0  0  0
 71 72  2  0  0  0
 71 74  1  0  0  0
 71144  1  0  0  0
 72 75  1  0  0  0
 72145  1  0  0  0
 73 74  2  0  0  0
 73 76  1  0  0  0
 73146  1  0  0  0
 74 80  1  0  0  0
 75 76  2  0  0  0
 75 78  1  0  0  0
 76 79  1  0  0  0
 77 78  1  0  0  0
 77147  1  0  0  0
 77148  1  0  0  0
 77149  1  0  0  0
 78150  1  0  0  0
 78151  1  0  0  0
 79 81  1  0  0  0
 79152  1  0  0  0
 79153  1  0  0  0
 80 84  1  0  0  0
 80154  1  0  0  0
 80155  1  0  0  0
 81 82  1  0  0  0
 81156  1  0  0  0
 81157  1  0  0  0
 82 83  1  0  0  0
 82158  1  0  0  0
 82159  1  0  0  0
 83160  1  0  0  0
 83161  1  0  0  0
 84162  1  0  0  0
M  ISO  4   1 100  68 101  83 101  84 100
M  END
> <chiral flag>
0

> <version>
0

> <s_m_source_file>
/data/baiqing/PycharmProjects/Reinvent-master-3.2/result/LINK_invent/BTK/process_docking_weight1_custom_sum_contain_oxygen_bond_distance_aromatic_linkinvent_7_9_3/rearranged_h_0094.sdf

> <i_m_source_file_index>
35

> <r_mmod_Potential_Energy-OPLS-2005>
-29.4756126403809

> <r_mmod_Stretch_Energy-OPLS-2005>
48.4977989196777

> <r_mmod_Bend_Energy-OPLS-2005>
122.245475769043

> <r_mmod_Torsional_Energy-OPLS-2005>
240.93376159668

> <r_mmod_Improper_Torsional_Energy-OPLS-2005>
3.75188803672791

> <r_mmod_Van_der_Waal_Energy-OPLS-2005>
153.741180419922

> <r_mmod_Electrostatic_Energy-OPLS-2005>
-421.682495117188

> <r_mmod_Solvation_Energy-OPLS-2005>
-197.929275512695

> <b_mmod_Minimization_Converged-OPLS-2005>
0

> <r_mmod_RMS_Derivative-OPLS-2005>
8.90667819976807

$$$$
35
                    3D
 Structure written by MMmdl.
164172  0  0  1  0            999 V2000
  -30.6245  -14.7359   20.4727 C   0  0  0  0  0  0
  -30.4321  -12.4521   19.4717 C   0  0  0  0  0  0
  -29.5065  -12.5094   18.2371 C   0  0  0  0  0  0
  -28.0323  -12.3360   18.6513 C   0  0  0  0  0  0
  -27.6427  -13.2326   19.8563 C   0  0  2  0  0  0
  -28.6899  -13.1671   20.9902 C   0  0  0  0  0  0
  -25.2502  -13.8204   20.5672 C   0  0  0  0  0  0
  -24.1791  -13.0440   20.9178 C   0  0  0  0  0  0
  -24.6385  -11.6920   20.8743 C   0  0  0  0  0  0
  -23.9071  -10.4285   21.0385 C   0  0  0  0  0  0
  -24.3627   -9.4208   21.9169 C   0  0  0  0  0  0
  -23.6298   -8.2241   22.0754 C   0  0  0  0  0  0
  -22.4274   -8.0266   21.3538 C   0  0  0  0  0  0
  -21.9908   -9.0239   20.4647 C   0  0  0  0  0  0
  -22.7233  -10.2118   20.3053 C   0  0  0  0  0  0
  -21.6859   -6.0721   22.5261 C   0  0  0  0  0  0
  -21.4020   -6.5630   23.8192 C   0  0  0  0  0  0
  -21.3667   -5.6790   24.9164 C   0  0  0  0  0  0
  -21.6047   -4.3057   24.7221 C   0  0  0  0  0  0
  -21.8827   -3.8138   23.4347 C   0  0  0  0  0  0
  -21.9192   -4.6948   22.3398 C   0  0  0  0  0  0
  -22.7801  -13.5203   21.1841 C   0  0  0  0  0  0
  -22.1653   -4.2122   21.0973 F   0  0  0  0  0  0
  -21.5645   -3.4535   25.7746 F   0  0  0  0  0  0
  -29.9898  -13.5162   20.4030 N   0  0  0  0  0  0
  -26.2940  -12.9411   20.3323 N   0  0  0  0  0  0
  -25.9328  -11.6544   20.5792 N   0  0  0  0  0  0
  -22.0495  -12.8179   22.0423 N   0  0  0  0  0  0
  -25.4206  -15.1919   20.4031 N   0  0  0  0  0  0
  -31.8147  -14.8236   20.1609 O   0  0  0  0  0  0
  -21.6656   -6.8857   21.4218 O   0  0  0  0  0  0
  -22.3440  -14.5480   20.6669 O   0  0  0  0  0  0
  -24.6346  -31.8540   23.1997 C   0  0  0  0  0  0
  -25.9154  -32.4754   23.8354 C   0  0  1  0  0  0
  -27.2143  -27.2430   20.1259 C   0  0  0  0  0  0
  -25.5935  -33.8555   24.2270 N   0  0  0  0  0  0
  -23.4315  -30.4777   21.5462 C   0  0  2  0  0  0
  -24.8758  -28.9247   20.1128 C   0  0  0  0  0  0
  -22.7527  -29.4578   22.4927 C   0  0  0  0  0  0
  -18.0295  -28.1382   22.8488 C   0  0  0  0  0  0
  -24.1478  -36.7281   23.2644 C   0  0  0  0  0  0
  -25.9805  -30.7595   21.3823 C   0  0  0  0  0  0
  -26.0503  -29.3815   20.7231 C   0  0  0  0  0  0
  -27.2236  -28.5559   20.7147 C   0  0  0  0  0  0
  -26.0132  -26.8609   19.4862 C   0  0  0  0  0  0
  -24.8644  -27.6736   19.4807 C   0  0  0  0  0  0
  -23.6498  -29.8170   20.1609 C   0  0  0  0  0  0
  -25.4109  -36.3075   24.0334 C   0  0  1  0  0  0
  -20.5902  -28.3684   23.1276 C   0  0  2  0  0  0
  -20.6773  -26.9398   22.5418 C   0  0  0  0  0  0
  -19.5747  -26.6372   21.5225 C   0  0  0  0  0  0
  -18.1926  -26.7923   22.1627 C   0  0  0  0  0  0
  -19.1549  -28.8854   23.2873 C   0  0  0  0  0  0
  -18.9463  -30.1456   23.8892 C   0  0  0  0  0  0
  -17.6458  -30.6575   24.0561 C   0  0  0  0  0  0
  -25.9057  -34.9442   23.5111 C   0  0  0  0  0  0
  -16.5356  -29.9067   23.6326 C   0  0  0  0  0  0
  -16.7283  -28.6487   23.0355 C   0  0  0  0  0  0
  -26.4504  -31.6579   25.0752 C   0  0  0  0  0  0
  -25.3721  -31.3732   26.1473 C   0  0  0  0  0  0
  -27.0343  -30.2988   24.6242 C   0  0  0  0  0  0
  -27.6060  -32.4326   25.7517 C   0  0  0  0  0  0
  -27.5580  -37.1800   24.8468 C   0  0  0  0  0  0
  -21.4231  -29.3030   22.3672 N   0  0  0  0  0  0
  -26.4283  -37.3776   23.9422 N   0  0  0  0  0  0
  -24.7022  -31.0491   22.0983 N   0  0  0  0  0  0
  -23.4221  -28.8122   23.3035 O   0  0  0  0  0  0
  -28.3103  -26.3425   20.1586 O   0  0  0  0  0  0
  -26.5629  -34.8918   22.4681 O   0  0  0  0  0  0
  -23.5489  -32.1368   23.7278 O   0  0  0  0  0  0
  -29.4031  -21.8792   22.8778 C   0  0  0  0  0  0
  -29.2270  -21.1255   24.0680 C   0  0  0  0  0  0
  -29.3052  -21.2396   21.5923 C   0  0  0  0  0  0
  -29.0776  -19.7344   23.9658 C   0  0  0  0  0  0
  -29.3185  -19.7591   21.6327 C   0  0  0  0  0  0
  -29.7373  -23.3588   23.0341 C   0  0  0  0  0  0
  -29.1878  -21.7928   25.4456 C   0  0  0  0  0  0
  -28.8275  -18.8250   25.1584 C   0  0  0  0  0  0
  -29.0991  -22.1326   20.2767 C   0  0  0  0  0  0
  -29.3735  -18.6295   20.5191 C   0  0  0  0  0  0
  -29.2588  -23.7694   20.1226 C   0  0  0  0  0  0
  -30.3597  -17.3402   20.7667 C   0  0  0  0  0  0
  -28.0568  -24.8519   20.2427 C   0  0  0  0  0  0
  -29.1601  -19.1012   22.7964 N   0  0  0  0  0  0
  -29.8756  -15.8824   20.6972 N   0  0  0  0  0  0
  -31.4722  -12.5729   19.1646 H   0  0  0  0  0  0
  -30.3794  -11.4751   19.9545 H   0  0  0  0  0  0
  -29.7851  -11.7402   17.5160 H   0  0  0  0  0  0
  -29.6289  -13.4688   17.7298 H   0  0  0  0  0  0
  -27.8785  -11.2854   18.9034 H   0  0  0  0  0  0
  -27.3771  -12.5427   17.8049 H   0  0  0  0  0  0
  -27.6401  -14.2545   19.4753 H   0  0  0  0  0  0
  -28.7267  -12.1715   21.4342 H   0  0  0  0  0  0
  -28.4282  -13.8494   21.8026 H   0  0  0  0  0  0
  -25.2774   -9.5675   22.4728 H   0  0  0  0  0  0
  -24.0017   -7.4632   22.7464 H   0  0  0  0  0  0
  -21.0845   -8.8731   19.8940 H   0  0  0  0  0  0
  -22.3671  -10.9650   19.6161 H   0  0  0  0  0  0
  -21.2007   -7.6136   23.9680 H   0  0  0  0  0  0
  -21.1489   -6.0533   25.9066 H   0  0  0  0  0  0
  -22.0605   -2.7597   23.2856 H   0  0  0  0  0  0
  -22.4177  -11.9870   22.4797 H   0  0  0  0  0  0
  -21.1096  -13.1144   22.2672 H   0  0  0  0  0  0
  -24.6530  -15.8487   20.4989 H   0  0  0  0  0  0
  -26.2632  -15.6214   20.0433 H   0  0  0  0  0  0
  -26.7222  -32.5390   23.1099 H   0  0  0  0  0  0
  -25.0083  -33.9692   25.0416 H   0  0  0  0  0  0
  -22.7279  -31.3005   21.4041 H   0  0  0  0  0  0
  -23.3753  -35.9605   23.3304 H   0  0  0  0  0  0
  -24.3570  -36.8907   22.2061 H   0  0  0  0  0  0
  -23.7215  -37.6475   23.6668 H   0  0  0  0  0  0
  -26.1225  -31.5163   20.6105 H   0  0  0  0  0  0
  -26.8570  -30.8083   22.0162 H   0  0  0  0  0  0
  -28.1241  -28.9040   21.2005 H   0  0  0  0  0  0
  -25.9229  -25.9168   18.9739 H   0  0  0  0  0  0
  -23.9704  -27.3205   18.9858 H   0  0  0  0  0  0
  -23.7804  -30.5977   19.4102 H   0  0  0  0  0  0
  -22.7649  -29.2577   19.8515 H   0  0  0  0  0  0
  -25.1286  -36.1935   25.0826 H   0  0  0  0  0  0
  -20.9989  -28.3260   24.1402 H   0  0  0  0  0  0
  -20.5666  -26.2303   23.3630 H   0  0  0  0  0  0
  -21.6639  -26.7412   22.1223 H   0  0  0  0  0  0
  -19.6901  -25.6281   21.1253 H   0  0  0  0  0  0
  -19.6683  -27.3186   20.6757 H   0  0  0  0  0  0
  -17.4204  -26.6697   21.4017 H   0  0  0  0  0  0
  -18.0301  -26.0064   22.9014 H   0  0  0  0  0  0
  -19.7938  -30.7280   24.2264 H   0  0  0  0  0  0
  -17.5006  -31.6262   24.5155 H   0  0  0  0  0  0
  -15.5353  -30.2968   23.7646 H   0  0  0  0  0  0
  -15.8685  -28.0805   22.7068 H   0  0  0  0  0  0
  -24.5926  -30.7037   25.7820 H   0  0  0  0  0  0
  -24.8873  -32.2890   26.4865 H   0  0  0  0  0  0
  -25.8044  -30.8960   27.0278 H   0  0  0  0  0  0
  -26.2923  -29.6757   24.1235 H   0  0  0  0  0  0
  -27.3980  -29.7239   25.4770 H   0  0  0  0  0  0
  -27.8829  -30.4268   23.9519 H   0  0  0  0  0  0
  -27.2671  -33.3633   26.2087 H   0  0  0  0  0  0
  -28.3867  -32.6879   25.0337 H   0  0  0  0  0  0
  -28.0737  -31.8461   26.5441 H   0  0  0  0  0  0
  -28.2599  -38.0093   24.7514 H   0  0  0  0  0  0
  -28.1068  -36.2628   24.6281 H   0  0  0  0  0  0
  -27.2309  -37.1443   25.8872 H   0  0  0  0  0  0
  -20.9426  -29.8782   21.6895 H   0  0  0  0  0  0
  -26.0165  -38.2855   24.1425 H   0  0  0  0  0  0
  -29.9945  -23.6603   24.0449 H   0  0  0  0  0  0
  -28.9097  -23.9924   22.7310 H   0  0  0  0  0  0
  -30.6491  -23.5899   22.4893 H   0  0  0  0  0  0
  -28.5978  -22.7095   25.4230 H   0  0  0  0  0  0
  -30.1982  -22.0384   25.7768 H   0  0  0  0  0  0
  -28.7242  -21.1732   26.2102 H   0  0  0  0  0  0
  -29.4897  -19.0524   25.9941 H   0  0  0  0  0  0
  -28.9893  -17.7771   24.9015 H   0  0  0  0  0  0
  -27.7947  -18.9254   25.4936 H   0  0  0  0  0  0
  -28.1231  -21.8590   19.8754 H   0  0  0  0  0  0
  -29.8038  -21.6990   19.5660 H   0  0  0  0  0  0
  -29.6362  -19.1044   19.5735 H   0  0  0  0  0  0
  -28.3551  -18.2676   20.3791 H   0  0  0  0  0  0
  -29.5425  -23.8797   19.0750 H   0  0  0  0  0  0
  -30.1566  -24.1466   20.5989 H   0  0  0  0  0  0
  -30.8457  -17.4467   21.7377 H   0  0  0  0  0  0
  -31.1870  -17.4347   20.0624 H   0  0  0  0  0  0
  -27.5113  -24.6728   21.1691 H   0  0  0  0  0  0
  -27.3669  -24.5558   19.4565 H   0  0  0  0  0  0
  -28.8974  -15.7312   20.8950 H   0  0  0  0  0  0
  1 25  1  0  0  0
  1 30  2  0  0  0
  1 85  1  0  0  0
  2  3  1  0  0  0
  2 25  1  0  0  0
  2 86  1  0  0  0
  2 87  1  0  0  0
  3  4  1  0  0  0
  3 88  1  0  0  0
  3 89  1  0  0  0
  4  5  1  0  0  0
  4 90  1  0  0  0
  4 91  1  0  0  0
  5  6  1  0  0  0
  5 26  1  0  0  0
  5 92  1  0  0  0
  6 25  1  0  0  0
  6 93  1  0  0  0
  6 94  1  0  0  0
  7  8  2  0  0  0
  7 26  1  0  0  0
  7 29  1  0  0  0
  8  9  1  0  0  0
  8 22  1  0  0  0
  9 10  1  0  0  0
  9 27  2  0  0  0
 10 11  2  0  0  0
 10 15  1  0  0  0
 11 12  1  0  0  0
 11 95  1  0  0  0
 12 13  2  0  0  0
 12 96  1  0  0  0
 13 14  1  0  0  0
 13 31  1  0  0  0
 14 15  2  0  0  0
 14 97  1  0  0  0
 15 98  1  0  0  0
 16 17  2  0  0  0
 16 21  1  0  0  0
 16 31  1  0  0  0
 17 18  1  0  0  0
 17 99  1  0  0  0
 18 19  2  0  0  0
 18100  1  0  0  0
 19 20  1  0  0  0
 19 24  1  0  0  0
 20 21  2  0  0  0
 20101  1  0  0  0
 21 23  1  0  0  0
 22 28  1  0  0  0
 22 32  2  0  0  0
 26 27  1  0  0  0
 28102  1  0  0  0
 28103  1  0  0  0
 29104  1  0  0  0
 29105  1  0  0  0
 33 34  1  0  0  0
 33 66  1  0  0  0
 33 70  2  0  0  0
 34 36  1  0  0  0
 34 59  1  0  0  0
 34106  1  0  0  0
 35 44  2  0  0  0
 35 45  1  0  0  0
 35 68  1  0  0  0
 36 56  1  0  0  0
 36107  1  0  0  0
 37 39  1  0  0  0
 37 47  1  0  0  0
 37 66  1  0  0  0
 37108  1  0  0  0
 38 43  2  0  0  0
 38 46  1  0  0  0
 38 47  1  0  0  0
 39 64  1  0  0  0
 39 67  2  0  0  0
 40 52  1  0  0  0
 40 53  2  0  0  0
 40 58  1  0  0  0
 41109  1  0  0  0
 41110  1  0  0  0
 41111  1  0  0  0
 41 48  1  0  0  0
 42 43  1  0  0  0
 42 66  1  0  0  0
 42112  1  0  0  0
 42113  1  0  0  0
 43 44  1  0  0  0
 44114  1  0  0  0
 45 46  2  0  0  0
 45115  1  0  0  0
 46116  1  0  0  0
 47117  1  0  0  0
 47118  1  0  0  0
 48 56  1  0  0  0
 48 65  1  0  0  0
 48119  1  0  0  0
 49 50  1  0  0  0
 49 53  1  0  0  0
 49 64  1  0  0  0
 49120  1  0  0  0
 50 51  1  0  0  0
 50121  1  0  0  0
 50122  1  0  0  0
 51 52  1  0  0  0
 51123  1  0  0  0
 51124  1  0  0  0
 52125  1  0  0  0
 52126  1  0  0  0
 53 54  1  0  0  0
 54 55  2  0  0  0
 54127  1  0  0  0
 55 57  1  0  0  0
 55128  1  0  0  0
 56 69  2  0  0  0
 57 58  2  0  0  0
 57129  1  0  0  0
 58130  1  0  0  0
 59 60  1  0  0  0
 59 61  1  0  0  0
 59 62  1  0  0  0
 60131  1  0  0  0
 60132  1  0  0  0
 60133  1  0  0  0
 61134  1  0  0  0
 61135  1  0  0  0
 61136  1  0  0  0
 62137  1  0  0  0
 62138  1  0  0  0
 62139  1  0  0  0
 63 65  1  0  0  0
 63140  1  0  0  0
 63141  1  0  0  0
 63142  1  0  0  0
 64143  1  0  0  0
 65144  1  0  0  0
 68 83  1  0  0  0
 71 72  2  0  0  0
 71 73  1  0  0  0
 71 76  1  0  0  0
 72 74  1  0  0  0
 72 77  1  0  0  0
 73 75  2  0  0  0
 73 79  1  0  0  0
 74 78  1  0  0  0
 74 84  2  0  0  0
 75 80  1  0  0  0
 75 84  1  0  0  0
 76145  1  0  0  0
 76146  1  0  0  0
 76147  1  0  0  0
 77148  1  0  0  0
 77149  1  0  0  0
 77150  1  0  0  0
 78151  1  0  0  0
 78152  1  0  0  0
 78153  1  0  0  0
 79 81  1  0  0  0
 79154  1  0  0  0
 79155  1  0  0  0
 80 82  1  0  0  0
 80156  1  0  0  0
 80157  1  0  0  0
 81 83  1  0  0  0
 81158  1  0  0  0
 81159  1  0  0  0
 82 85  1  0  0  0
 82160  1  0  0  0
 82161  1  0  0  0
 83162  1  0  0  0
 83163  1  0  0  0
 85164  1  0  0  0
M  ISO  4   1 100  68 101  83 101  85 100
M  END
> <chiral flag>
0

> <version>
0

> <s_m_source_file>
/data/baiqing/PycharmProjects/Reinvent-master-3.2/result/LINK_invent/BTK/process_docking_weight1_custom_sum_contain_oxygen_bond_distance_aromatic_linkinvent_7_9_3/rearranged_h_0094.sdf

> <i_m_source_file_index>
36

> <r_mmod_Potential_Energy-OPLS-2005>
130.849548339844

> <r_mmod_Stretch_Energy-OPLS-2005>
154.252502441406

> <r_mmod_Bend_Energy-OPLS-2005>
229.361083984375

> <r_mmod_Torsional_Energy-OPLS-2005>
242.091857910156

> <r_mmod_Improper_Torsional_Energy-OPLS-2005>
4.66692018508911

> <r_mmod_Van_der_Waal_Energy-OPLS-2005>
165.034820556641

> <r_mmod_Electrostatic_Energy-OPLS-2005>
-525.57470703125

> <r_mmod_Solvation_Energy-OPLS-2005>
-226.183242797852

> <b_mmod_Minimization_Converged-OPLS-2005>
0

> <r_mmod_RMS_Derivative-OPLS-2005>
2.35812902450562

$$$$
36
                    3D
 Structure written by MMmdl.
177185  0  0  1  0            999 V2000
  -30.8092  -14.3465   20.7152 C   0  0  0  0  0  0
  -30.4150  -12.2980   19.3948 C   0  0  0  0  0  0
  -29.4816  -12.5157   18.1923 C   0  0  0  0  0  0
  -28.0107  -12.3646   18.6169 C   0  0  0  0  0  0
  -27.6653  -13.2052   19.8733 C   0  0  2  0  0  0
  -28.7030  -12.9778   20.9937 C   0  0  0  0  0  0
  -25.2609  -13.8159   20.5663 C   0  0  0  0  0  0
  -24.1855  -13.0441   20.9153 C   0  0  0  0  0  0
  -24.6408  -11.6904   20.8713 C   0  0  0  0  0  0
  -23.9067  -10.4294   21.0399 C   0  0  0  0  0  0
  -24.3616   -9.4210   21.9182 C   0  0  0  0  0  0
  -23.6293   -8.2245   22.0757 C   0  0  0  0  0  0
  -22.4275   -8.0283   21.3543 C   0  0  0  0  0  0
  -21.9906   -9.0255   20.4645 C   0  0  0  0  0  0
  -22.7238  -10.2137   20.3053 C   0  0  0  0  0  0
  -21.6853   -6.0734   22.5285 C   0  0  0  0  0  0
  -21.4011   -6.5636   23.8218 C   0  0  0  0  0  0
  -21.3654   -5.6790   24.9174 C   0  0  0  0  0  0
  -21.6041   -4.3051   24.7227 C   0  0  0  0  0  0
  -21.8822   -3.8145   23.4348 C   0  0  0  0  0  0
  -21.9194   -4.6965   22.3402 C   0  0  0  0  0  0
  -22.7878  -13.5250   21.1827 C   0  0  0  0  0  0
  -22.1664   -4.2150   21.0981 F   0  0  0  0  0  0
  -21.5627   -3.4534   25.7737 F   0  0  0  0  0  0
  -30.0486  -13.2518   20.4548 N   0  0  0  0  0  0
  -26.3050  -12.9330   20.3359 N   0  0  0  0  0  0
  -25.9333  -11.6488   20.5742 N   0  0  0  0  0  0
  -22.0513  -12.8244   22.0380 N   0  0  0  0  0  0
  -25.4341  -15.1876   20.4089 N   0  0  0  0  0  0
  -31.8130  -14.6374   20.0602 O   0  0  0  0  0  0
  -21.6640   -6.8880   21.4246 O   0  0  0  0  0  0
  -22.3560  -14.5555   20.6676 O   0  0  0  0  0  0
  -24.6138  -31.8708   23.2116 C   0  0  0  0  0  0
  -25.9047  -32.4835   23.8393 C   0  0  1  0  0  0
  -27.2206  -27.4469   20.0665 C   0  0  0  0  0  0
  -25.5956  -33.8633   24.2362 N   0  0  0  0  0  0
  -23.3949  -30.4980   21.5571 C   0  0  2  0  0  0
  -24.8327  -28.9668   20.1156 C   0  0  0  0  0  0
  -22.7391  -29.4687   22.5047 C   0  0  0  0  0  0
  -18.0275  -28.1360   22.8490 C   0  0  0  0  0  0
  -24.1474  -36.7293   23.2647 C   0  0  0  0  0  0
  -25.9229  -30.8437   21.3525 C   0  0  0  0  0  0
  -25.9952  -29.4781   20.7016 C   0  0  0  0  0  0
  -27.1916  -28.7238   20.6740 C   0  0  0  0  0  0
  -26.0232  -26.9376   19.5099 C   0  0  0  0  0  0
  -24.8404  -27.6953   19.5204 C   0  0  0  0  0  0
  -23.5975  -29.8351   20.1692 C   0  0  0  0  0  0
  -25.4094  -36.3107   24.0351 C   0  0  1  0  0  0
  -20.5845  -28.3652   23.1331 C   0  0  2  0  0  0
  -20.6759  -26.9419   22.5368 C   0  0  0  0  0  0
  -19.5729  -26.6378   21.5188 C   0  0  0  0  0  0
  -18.1920  -26.7906   22.1609 C   0  0  0  0  0  0
  -19.1512  -28.8823   23.2903 C   0  0  0  0  0  0
  -18.9435  -30.1426   23.8918 C   0  0  0  0  0  0
  -17.6443  -30.6571   24.0550 C   0  0  0  0  0  0
  -25.9028  -34.9479   23.5133 C   0  0  0  0  0  0
  -16.5340  -29.9043   23.6337 C   0  0  0  0  0  0
  -16.7264  -28.6453   23.0365 C   0  0  0  0  0  0
  -26.4499  -31.6584   25.0687 C   0  0  0  0  0  0
  -25.3829  -31.3599   26.1468 C   0  0  0  0  0  0
  -27.0278  -30.3055   24.5927 C   0  0  0  0  0  0
  -27.6075  -32.4305   25.7459 C   0  0  0  0  0  0
  -27.5570  -37.1807   24.8490 C   0  0  0  0  0  0
  -21.4123  -29.3041   22.3780 N   0  0  0  0  0  0
  -26.4287  -37.3789   23.9431 N   0  0  0  0  0  0
  -24.6647  -31.0828   22.1010 N   0  0  0  0  0  0
  -23.4183  -28.8215   23.3064 O   0  0  0  0  0  0
  -28.4201  -26.7601   20.0390 O   0  0  0  0  0  0
  -26.5519  -34.8934   22.4647 O   0  0  0  0  0  0
  -23.5339  -32.1416   23.7548 O   0  0  0  0  0  0
  -31.2129  -19.1035   23.3087 C   0  0  0  0  0  0
  -29.8505  -20.1908   22.0541 C   0  0  0  0  0  0
  -30.1679  -19.0146   21.4000 C   0  0  0  0  0  0
  -30.2905  -19.1161   16.3255 C   0  0  0  0  0  0
  -30.2594  -16.8187   17.3677 C   0  0  0  0  0  0
  -27.4173  -23.2394   19.3950 C   0  0  0  0  0  0
  -28.9431  -21.3042   21.5959 C   0  0  0  0  0  0
  -29.6496  -18.4556   20.1062 C   0  0  0  0  0  0
  -29.4248  -22.7337   21.9620 C   0  0  0  0  0  0
  -30.4179  -18.9052   18.8530 C   0  0  0  0  0  0
  -29.5111  -23.7540   20.8040 C   0  0  0  0  0  0
  -31.8829  -17.1646   21.8929 C   0  0  0  0  0  0
  -31.3849  -15.8816   22.6024 C   0  0  0  0  0  0
  -28.5111  -25.5320   19.3071 C   0  0  0  0  0  0
  -29.8590  -18.2941   17.5488 C   0  0  0  0  0  0
  -28.1936  -24.3020   20.1967 C   0  0  1  0  0  0
  -30.4653  -20.2015   23.3057 N   0  0  0  0  0  0
  -31.1134  -18.3633   22.1959 N   0  0  0  0  0  0
  -30.4800  -15.0244   21.8255 N   0  0  0  0  0  0
  -31.4575  -12.3968   19.0841 H   0  0  0  0  0  0
  -30.3193  -11.2777   19.7708 H   0  0  0  0  0  0
  -29.7151  -11.7978   17.4041 H   0  0  0  0  0  0
  -29.6502  -13.5064   17.7673 H   0  0  0  0  0  0
  -27.8324  -11.3077   18.8200 H   0  0  0  0  0  0
  -27.3511  -12.6305   17.7899 H   0  0  0  0  0  0
  -27.7170  -14.2544   19.5814 H   0  0  0  0  0  0
  -28.6607  -11.9460   21.3464 H   0  0  0  0  0  0
  -28.4459  -13.5913   21.8571 H   0  0  0  0  0  0
  -25.2767   -9.5688   22.4746 H   0  0  0  0  0  0
  -24.0003   -7.4640   22.7485 H   0  0  0  0  0  0
  -21.0830   -8.8769   19.8956 H   0  0  0  0  0  0
  -22.3693  -10.9667   19.6153 H   0  0  0  0  0  0
  -21.1997   -7.6143   23.9721 H   0  0  0  0  0  0
  -21.1467   -6.0513   25.9079 H   0  0  0  0  0  0
  -22.0601   -2.7608   23.2844 H   0  0  0  0  0  0
  -22.4115  -11.9898   22.4768 H   0  0  0  0  0  0
  -21.1136  -13.1283   22.2587 H   0  0  0  0  0  0
  -24.6728  -15.8474   20.5297 H   0  0  0  0  0  0
  -26.2966  -15.6266   20.1117 H   0  0  0  0  0  0
  -26.7123  -32.5553   23.1161 H   0  0  0  0  0  0
  -25.0394  -33.9826   25.0701 H   0  0  0  0  0  0
  -22.6830  -31.3170   21.4259 H   0  0  0  0  0  0
  -23.3744  -35.9623   23.3321 H   0  0  0  0  0  0
  -24.3600  -36.8838   22.2061 H   0  0  0  0  0  0
  -23.7178  -37.6492   23.6627 H   0  0  0  0  0  0
  -26.0164  -31.6088   20.5804 H   0  0  0  0  0  0
  -26.8210  -30.9089   21.9546 H   0  0  0  0  0  0
  -28.0947  -29.1245   21.1093 H   0  0  0  0  0  0
  -25.9652  -25.9570   19.0619 H   0  0  0  0  0  0
  -23.9415  -27.2908   19.0751 H   0  0  0  0  0  0
  -23.7042  -30.6113   19.4113 H   0  0  0  0  0  0
  -22.7192  -29.2579   19.8714 H   0  0  0  0  0  0
  -25.1249  -36.1981   25.0838 H   0  0  0  0  0  0
  -20.9937  -28.3162   24.1449 H   0  0  0  0  0  0
  -20.5674  -26.2267   23.3528 H   0  0  0  0  0  0
  -21.6627  -26.7484   22.1148 H   0  0  0  0  0  0
  -19.6891  -25.6291   21.1203 H   0  0  0  0  0  0
  -19.6627  -27.3197   20.6728 H   0  0  0  0  0  0
  -17.4180  -26.6686   21.4023 H   0  0  0  0  0  0
  -18.0341  -26.0034   22.8991 H   0  0  0  0  0  0
  -19.7920  -30.7222   24.2298 H   0  0  0  0  0  0
  -17.5006  -31.6277   24.5099 H   0  0  0  0  0  0
  -15.5331  -30.2933   23.7657 H   0  0  0  0  0  0
  -15.8678  -28.0750   22.7083 H   0  0  0  0  0  0
  -24.6164  -30.6737   25.7860 H   0  0  0  0  0  0
  -24.8872  -32.2686   26.4905 H   0  0  0  0  0  0
  -25.8323  -30.8886   27.0223 H   0  0  0  0  0  0
  -26.2707  -29.6870   24.1093 H   0  0  0  0  0  0
  -27.4218  -29.7225   25.4261 H   0  0  0  0  0  0
  -27.8482  -30.4422   23.8875 H   0  0  0  0  0  0
  -27.2725  -33.3676   26.1935 H   0  0  0  0  0  0
  -28.3946  -32.6743   25.0313 H   0  0  0  0  0  0
  -28.0665  -31.8483   26.5457 H   0  0  0  0  0  0
  -28.2592  -38.0111   24.7531 H   0  0  0  0  0  0
  -28.1035  -36.2623   24.6293 H   0  0  0  0  0  0
  -27.2302  -37.1416   25.8903 H   0  0  0  0  0  0
  -20.9297  -29.8799   21.7026 H   0  0  0  0  0  0
  -26.0153  -38.2854   24.1440 H   0  0  0  0  0  0
  -31.8618  -18.8393   24.1338 H   0  0  0  0  0  0
  -29.8907  -18.6897   15.4039 H   0  0  0  0  0  0
  -31.3767  -19.1535   16.2334 H   0  0  0  0  0  0
  -29.9258  -20.1430   16.3923 H   0  0  0  0  0  0
  -29.8786  -16.4200   16.4267 H   0  0  0  0  0  0
  -29.8673  -16.1859   18.1647 H   0  0  0  0  0  0
  -31.3434  -16.6998   17.3575 H   0  0  0  0  0  0
  -27.0746  -22.4254   20.0312 H   0  0  0  0  0  0
  -28.0260  -22.8107   18.5971 H   0  0  0  0  0  0
  -26.5211  -23.6575   18.9371 H   0  0  0  0  0  0
  -27.9338  -21.1481   21.9764 H   0  0  0  0  0  0
  -28.8621  -21.2282   20.5129 H   0  0  0  0  0  0
  -28.6056  -18.7490   19.9988 H   0  0  0  0  0  0
  -29.6336  -17.3672   20.1650 H   0  0  0  0  0  0
  -30.4345  -22.6739   22.3728 H   0  0  0  0  0  0
  -28.8222  -23.1310   22.7807 H   0  0  0  0  0  0
  -31.4786  -18.6724   18.9488 H   0  0  0  0  0  0
  -30.3569  -19.9923   18.7964 H   0  0  0  0  0  0
  -30.1428  -23.3444   20.0145 H   0  0  0  0  0  0
  -30.0668  -24.6107   21.1899 H   0  0  0  0  0  0
  -31.9672  -17.0516   20.8138 H   0  0  0  0  0  0
  -32.9042  -17.3603   22.2285 H   0  0  0  0  0  0
  -30.9138  -16.1264   23.5549 H   0  0  0  0  0  0
  -32.2532  -15.2728   22.8608 H   0  0  0  0  0  0
  -27.9138  -25.5482   18.3946 H   0  0  0  0  0  0
  -29.5334  -25.4573   18.9327 H   0  0  0  0  0  0
  -28.7693  -18.3395   17.5905 H   0  0  0  0  0  0
  -27.5408  -24.6309   21.0051 H   0  0  0  0  0  0
  -29.6392  -14.7176   22.2938 H   0  0  0  0  0  0
  1 25  1  0  0  0
  1 30  2  0  0  0
  1 89  1  0  0  0
  2  3  1  0  0  0
  2 25  1  0  0  0
  2 90  1  0  0  0
  2 91  1  0  0  0
  3  4  1  0  0  0
  3 92  1  0  0  0
  3 93  1  0  0  0
  4  5  1  0  0  0
  4 94  1  0  0  0
  4 95  1  0  0  0
  5  6  1  0  0  0
  5 26  1  0  0  0
  5 96  1  0  0  0
  6 25  1  0  0  0
  6 97  1  0  0  0
  6 98  1  0  0  0
  7  8  2  0  0  0
  7 26  1  0  0  0
  7 29  1  0  0  0
  8  9  1  0  0  0
  8 22  1  0  0  0
  9 10  1  0  0  0
  9 27  2  0  0  0
 10 11  2  0  0  0
 10 15  1  0  0  0
 11 12  1  0  0  0
 11 99  1  0  0  0
 12 13  2  0  0  0
 12100  1  0  0  0
 13 14  1  0  0  0
 13 31  1  0  0  0
 14 15  2  0  0  0
 14101  1  0  0  0
 15102  1  0  0  0
 16 17  2  0  0  0
 16 21  1  0  0  0
 16 31  1  0  0  0
 17 18  1  0  0  0
 17103  1  0  0  0
 18 19  2  0  0  0
 18104  1  0  0  0
 19 20  1  0  0  0
 19 24  1  0  0  0
 20 21  2  0  0  0
 20105  1  0  0  0
 21 23  1  0  0  0
 22 28  1  0  0  0
 22 32  2  0  0  0
 26 27  1  0  0  0
 28106  1  0  0  0
 28107  1  0  0  0
 29108  1  0  0  0
 29109  1  0  0  0
 33 34  1  0  0  0
 33 66  1  0  0  0
 33 70  2  0  0  0
 34 36  1  0  0  0
 34 59  1  0  0  0
 34110  1  0  0  0
 35 44  2  0  0  0
 35 45  1  0  0  0
 35 68  1  0  0  0
 36 56  1  0  0  0
 36111  1  0  0  0
 37 39  1  0  0  0
 37 47  1  0  0  0
 37 66  1  0  0  0
 37112  1  0  0  0
 38 43  2  0  0  0
 38 46  1  0  0  0
 38 47  1  0  0  0
 39 64  1  0  0  0
 39 67  2  0  0  0
 40 52  1  0  0  0
 40 53  2  0  0  0
 40 58  1  0  0  0
 41113  1  0  0  0
 41114  1  0  0  0
 41115  1  0  0  0
 41 48  1  0  0  0
 42 43  1  0  0  0
 42 66  1  0  0  0
 42116  1  0  0  0
 42117  1  0  0  0
 43 44  1  0  0  0
 44118  1  0  0  0
 45 46  2  0  0  0
 45119  1  0  0  0
 46120  1  0  0  0
 47121  1  0  0  0
 47122  1  0  0  0
 48 56  1  0  0  0
 48 65  1  0  0  0
 48123  1  0  0  0
 49 50  1  0  0  0
 49 53  1  0  0  0
 49 64  1  0  0  0
 49124  1  0  0  0
 50 51  1  0  0  0
 50125  1  0  0  0
 50126  1  0  0  0
 51 52  1  0  0  0
 51127  1  0  0  0
 51128  1  0  0  0
 52129  1  0  0  0
 52130  1  0  0  0
 53 54  1  0  0  0
 54 55  2  0  0  0
 54131  1  0  0  0
 55 57  1  0  0  0
 55132  1  0  0  0
 56 69  2  0  0  0
 57 58  2  0  0  0
 57133  1  0  0  0
 58134  1  0  0  0
 59 60  1  0  0  0
 59 61  1  0  0  0
 59 62  1  0  0  0
 60135  1  0  0  0
 60136  1  0  0  0
 60137  1  0  0  0
 61138  1  0  0  0
 61139  1  0  0  0
 61140  1  0  0  0
 62141  1  0  0  0
 62142  1  0  0  0
 62143  1  0  0  0
 63 65  1  0  0  0
 63144  1  0  0  0
 63145  1  0  0  0
 63146  1  0  0  0
 64147  1  0  0  0
 65148  1  0  0  0
 68 84  1  0  0  0
 71 87  2  0  0  0
 71 88  1  0  0  0
 71149  1  0  0  0
 72 73  2  0  0  0
 72 77  1  0  0  0
 72 87  1  0  0  0
 73 78  1  0  0  0
 73 88  1  0  0  0
 74150  1  0  0  0
 74151  1  0  0  0
 74152  1  0  0  0
 74 85  1  0  0  0
 75 85  1  0  0  0
 75153  1  0  0  0
 75154  1  0  0  0
 75155  1  0  0  0
 76156  1  0  0  0
 76157  1  0  0  0
 76158  1  0  0  0
 76 86  1  0  0  0
 77 79  1  0  0  0
 77159  1  0  0  0
 77160  1  0  0  0
 78 80  1  0  0  0
 78161  1  0  0  0
 78162  1  0  0  0
 79 81  1  0  0  0
 79163  1  0  0  0
 79164  1  0  0  0
 80 85  1  0  0  0
 80165  1  0  0  0
 80166  1  0  0  0
 81 86  1  0  0  0
 81167  1  0  0  0
 81168  1  0  0  0
 82 83  1  0  0  0
 82 88  1  0  0  0
 82169  1  0  0  0
 82170  1  0  0  0
 83 89  1  0  0  0
 83171  1  0  0  0
 83172  1  0  0  0
 84 86  1  0  0  0
 84173  1  0  0  0
 84174  1  0  0  0
 85175  1  0  0  0
 86176  1  0  0  0
 89177  1  0  0  0
M  ISO  4   1 100  68 101  84 101  89 100
M  END
> <chiral flag>
0

> <version>
0

> <s_m_source_file>
/data/baiqing/PycharmProjects/Reinvent-master-3.2/result/LINK_invent/BTK/process_docking_weight1_custom_sum_contain_oxygen_bond_distance_aromatic_linkinvent_7_9_3/rearranged_h_0094.sdf

> <i_m_source_file_index>
37

> <r_mmod_Potential_Energy-OPLS-2005>
-66.2646865844727

> <r_mmod_Stretch_Energy-OPLS-2005>
35.5145606994629

> <r_mmod_Bend_Energy-OPLS-2005>
119.396965026855

> <r_mmod_Torsional_Energy-OPLS-2005>
241.501098632812

> <r_mmod_Improper_Torsional_Energy-OPLS-2005>
3.39960479736328

> <r_mmod_Van_der_Waal_Energy-OPLS-2005>
121.066864013672

> <r_mmod_Electrostatic_Energy-OPLS-2005>
-384.256469726562

> <r_mmod_Solvation_Energy-OPLS-2005>
-211.78337097168

> <b_mmod_Minimization_Converged-OPLS-2005>
0

> <r_mmod_RMS_Derivative-OPLS-2005>
3.16684770584106

$$$$
37
                    3D
 Structure written by MMmdl.
175183  0  0  1  0            999 V2000
  -30.7049  -14.5286   20.5072 C   0  0  0  0  0  0
  -30.4145  -12.3223   19.4526 C   0  0  0  0  0  0
  -29.5011  -12.4835   18.2199 C   0  0  0  0  0  0
  -28.0213  -12.3455   18.6322 C   0  0  0  0  0  0
  -27.6527  -13.2171   19.8657 C   0  0  2  0  0  0
  -28.6954  -13.0734   20.9972 C   0  0  0  0  0  0
  -25.2515  -13.8205   20.5690 C   0  0  0  0  0  0
  -24.1789  -13.0473   20.9181 C   0  0  0  0  0  0
  -24.6356  -11.6931   20.8731 C   0  0  0  0  0  0
  -23.9031  -10.4299   21.0399 C   0  0  0  0  0  0
  -24.3571   -9.4225   21.9189 C   0  0  0  0  0  0
  -23.6256   -8.2259   22.0774 C   0  0  0  0  0  0
  -22.4243   -8.0277   21.3558 C   0  0  0  0  0  0
  -21.9871   -9.0255   20.4665 C   0  0  0  0  0  0
  -22.7189  -10.2139   20.3070 C   0  0  0  0  0  0
  -21.6863   -6.0696   22.5267 C   0  0  0  0  0  0
  -21.4005   -6.5603   23.8195 C   0  0  0  0  0  0
  -21.3675   -5.6773   24.9168 C   0  0  0  0  0  0
  -21.6048   -4.3035   24.7227 C   0  0  0  0  0  0
  -21.8823   -3.8110   23.4355 C   0  0  0  0  0  0
  -21.9185   -4.6918   22.3398 C   0  0  0  0  0  0
  -22.7783  -13.5234   21.1841 C   0  0  0  0  0  0
  -22.1641   -4.2083   21.0987 F   0  0  0  0  0  0
  -21.5652   -3.4543   25.7764 F   0  0  0  0  0  0
  -30.0197  -13.3546   20.4257 N   0  0  0  0  0  0
  -26.2976  -12.9399   20.3354 N   0  0  0  0  0  0
  -25.9293  -11.6550   20.5765 N   0  0  0  0  0  0
  -22.0426  -12.8248   22.0413 N   0  0  0  0  0  0
  -25.4215  -15.1936   20.4054 N   0  0  0  0  0  0
  -31.8783  -14.6234   20.1404 O   0  0  0  0  0  0
  -21.6652   -6.8840   21.4228 O   0  0  0  0  0  0
  -22.3467  -14.5554   20.6702 O   0  0  0  0  0  0
  -24.6169  -31.8621   23.2111 C   0  0  0  0  0  0
  -25.9060  -32.4787   23.8397 C   0  0  1  0  0  0
  -27.2207  -27.3731   20.1161 C   0  0  0  0  0  0
  -25.5923  -33.8583   24.2327 N   0  0  0  0  0  0
  -23.4082  -30.4906   21.5439 C   0  0  2  0  0  0
  -24.8566  -28.9515   20.1139 C   0  0  0  0  0  0
  -22.7390  -29.4649   22.4905 C   0  0  0  0  0  0
  -18.0273  -28.1429   22.8512 C   0  0  0  0  0  0
  -24.1471  -36.7265   23.2636 C   0  0  0  0  0  0
  -25.9389  -30.8096   21.3741 C   0  0  0  0  0  0
  -26.0169  -29.4402   20.7246 C   0  0  0  0  0  0
  -27.2009  -28.6569   20.7251 C   0  0  0  0  0  0
  -26.0469  -26.9329   19.4630 C   0  0  0  0  0  0
  -24.8707  -27.7028   19.4782 C   0  0  0  0  0  0
  -23.6209  -29.8236   20.1577 C   0  0  0  0  0  0
  -25.4103  -36.3089   24.0334 C   0  0  1  0  0  0
  -20.5866  -28.3683   23.1303 C   0  0  2  0  0  0
  -20.6743  -26.9417   22.5406 C   0  0  0  0  0  0
  -19.5713  -26.6424   21.5198 C   0  0  0  0  0  0
  -18.1909  -26.7983   22.1637 C   0  0  0  0  0  0
  -19.1539  -28.8871   23.2923 C   0  0  0  0  0  0
  -18.9482  -30.1481   23.8941 C   0  0  0  0  0  0
  -17.6490  -30.6639   24.0593 C   0  0  0  0  0  0
  -25.9038  -34.9445   23.5123 C   0  0  0  0  0  0
  -16.5359  -29.9154   23.6348 C   0  0  0  0  0  0
  -16.7269  -28.6568   23.0361 C   0  0  0  0  0  0
  -26.4497  -31.6567   25.0706 C   0  0  0  0  0  0
  -25.3799  -31.3661   26.1464 C   0  0  0  0  0  0
  -27.0268  -30.3001   24.6072 C   0  0  0  0  0  0
  -27.6096  -32.4214   25.7499 C   0  0  0  0  0  0
  -27.5575  -37.1800   24.8469 C   0  0  0  0  0  0
  -21.4098  -29.3051   22.3660 N   0  0  0  0  0  0
  -26.4273  -37.3802   23.9433 N   0  0  0  0  0  0
  -24.6721  -31.0689   22.1031 N   0  0  0  0  0  0
  -23.4125  -28.8175   23.2952 O   0  0  0  0  0  0
  -28.3651  -26.5845   20.1751 O   0  0  0  0  0  0
  -26.5573  -34.8900   22.4665 O   0  0  0  0  0  0
  -23.5334  -32.1373   23.7496 O   0  0  0  0  0  0
  -29.4934  -19.3588   20.0949 C   0  0  0  0  0  0
  -29.7792  -18.2738   20.8867 C   0  0  0  0  0  0
  -29.4061  -18.6424   22.2271 C   0  0  0  0  0  0
  -28.9312  -19.9455   22.1777 C   0  0  0  0  0  0
  -28.4309  -20.8825   23.2416 C   0  0  0  0  0  0
  -31.0770  -17.6710   23.8789 C   0  0  0  0  0  0
  -27.1763  -18.6784   26.3239 C   0  0  0  0  0  0
  -29.5820  -19.1380   26.2962 C   0  0  0  0  0  0
  -30.4927  -16.9979   20.3903 C   0  0  0  0  0  0
  -29.6041  -22.8536   20.4602 C   0  0  0  0  0  0
  -29.1639  -24.3011   20.8803 C   0  0  0  0  0  0
  -28.5376  -21.7219   20.3526 C   0  0  0  0  0  0
  -28.5306  -17.6595   24.5532 C   0  0  0  0  0  0
  -28.2809  -25.1476   19.9141 C   0  0  0  0  0  0
  -29.6072  -17.7127   23.4291 C   0  0  1  0  0  0
  -28.9779  -20.3951   20.8602 N   0  0  0  0  0  0
  -29.9875  -15.6520   20.7581 N   0  0  0  0  0  0
  -28.3850  -18.8217   25.4732 N   0  3  0  0  0  0
  -31.4633  -12.3951   19.1639 H   0  0  0  0  0  0
  -30.2958  -11.3317   19.8942 H   0  0  0  0  0  0
  -29.7488  -11.7257   17.4753 H   0  0  0  0  0  0
  -29.6662  -13.4549   17.7489 H   0  0  0  0  0  0
  -27.8463  -11.2928   18.8585 H   0  0  0  0  0  0
  -27.3701  -12.5869   17.7901 H   0  0  0  0  0  0
  -27.6767  -14.2525   19.5290 H   0  0  0  0  0  0
  -28.6815  -12.0663   21.4156 H   0  0  0  0  0  0
  -28.4678  -13.7459   21.8269 H   0  0  0  0  0  0
  -25.2713   -9.5715   22.4751 H   0  0  0  0  0  0
  -23.9964   -7.4657   22.7520 H   0  0  0  0  0  0
  -21.0791   -8.8758   19.8969 H   0  0  0  0  0  0
  -22.3633  -10.9664   19.6166 H   0  0  0  0  0  0
  -21.1997   -7.6113   23.9667 H   0  0  0  0  0  0
  -21.1498   -6.0521   25.9067 H   0  0  0  0  0  0
  -22.0591   -2.7565   23.2898 H   0  0  0  0  0  0
  -22.3994  -11.9897   22.4805 H   0  0  0  0  0  0
  -21.1063  -13.1310   22.2662 H   0  0  0  0  0  0
  -24.6537  -15.8465   20.5253 H   0  0  0  0  0  0
  -26.2737  -15.6365   20.0859 H   0  0  0  0  0  0
  -26.7078  -32.5462   23.1106 H   0  0  0  0  0  0
  -25.0087  -33.9740   25.0484 H   0  0  0  0  0  0
  -22.7023  -31.3117   21.4087 H   0  0  0  0  0  0
  -23.3736  -35.9600   23.3314 H   0  0  0  0  0  0
  -24.3555  -36.8839   22.2049 H   0  0  0  0  0  0
  -23.7200  -37.6464   23.6617 H   0  0  0  0  0  0
  -26.0496  -31.5707   20.6017 H   0  0  0  0  0  0
  -26.8272  -30.8620   21.9935 H   0  0  0  0  0  0
  -28.0923  -29.0205   21.2164 H   0  0  0  0  0  0
  -26.0071  -25.9951   18.9301 H   0  0  0  0  0  0
  -23.9848  -27.3269   18.9854 H   0  0  0  0  0  0
  -23.7419  -30.5948   19.3950 H   0  0  0  0  0  0
  -22.7484  -29.2420   19.8550 H   0  0  0  0  0  0
  -25.1284  -36.1965   25.0827 H   0  0  0  0  0  0
  -21.0035  -28.3272   24.1391 H   0  0  0  0  0  0
  -20.5616  -26.2299   23.3597 H   0  0  0  0  0  0
  -21.6614  -26.7415   22.1233 H   0  0  0  0  0  0
  -19.6847  -25.6340   21.1226 H   0  0  0  0  0  0
  -19.6688  -27.3240   20.6745 H   0  0  0  0  0  0
  -17.4164  -26.6744   21.4045 H   0  0  0  0  0  0
  -18.0338  -26.0107   22.9025 H   0  0  0  0  0  0
  -19.7950  -30.7310   24.2316 H   0  0  0  0  0  0
  -17.5036  -31.6335   24.5192 H   0  0  0  0  0  0
  -15.5372  -30.3093   23.7665 H   0  0  0  0  0  0
  -15.8651  -28.0932   22.7057 H   0  0  0  0  0  0
  -24.5977  -30.7002   25.7789 H   0  0  0  0  0  0
  -24.9049  -32.2815   26.5005 H   0  0  0  0  0  0
  -25.8203  -30.8768   27.0168 H   0  0  0  0  0  0
  -26.2807  -29.6813   24.1066 H   0  0  0  0  0  0
  -27.3903  -29.7194   25.4557 H   0  0  0  0  0  0
  -27.8712  -30.4256   23.9291 H   0  0  0  0  0  0
  -27.2786  -33.3487   26.2190 H   0  0  0  0  0  0
  -28.3970  -32.6770   25.0391 H   0  0  0  0  0  0
  -28.0693  -31.8217   26.5378 H   0  0  0  0  0  0
  -28.2632  -38.0065   24.7542 H   0  0  0  0  0  0
  -28.1035  -36.2605   24.6318 H   0  0  0  0  0  0
  -27.2266  -37.1475   25.8856 H   0  0  0  0  0  0
  -20.9212  -29.8774   21.6919 H   0  0  0  0  0  0
  -26.0129  -38.2837   24.1540 H   0  0  0  0  0  0
  -29.6417  -19.4996   19.0314 H   0  0  0  0  0  0
  -27.3819  -20.6843   23.4690 H   0  0  0  0  0  0
  -28.5073  -21.9292   22.9496 H   0  0  0  0  0  0
  -29.0390  -20.8217   24.1372 H   0  0  0  0  0  0
  -31.1936  -17.2002   24.8559 H   0  0  0  0  0  0
  -31.5196  -18.6662   23.9238 H   0  0  0  0  0  0
  -31.6733  -17.0957   23.1704 H   0  0  0  0  0  0
  -26.9938  -19.5693   26.9229 H   0  0  0  0  0  0
  -27.2866  -17.8350   27.0067 H   0  0  0  0  0  0
  -26.2815  -18.4982   25.7275 H   0  0  0  0  0  0
  -29.3703  -19.9739   26.9703 H   0  0  0  0  0  0
  -30.4196  -19.4667   25.6850 H   0  0  0  0  0  0
  -29.9049  -18.2918   26.9062 H   0  0  0  0  0  0
  -31.5214  -17.0920   20.7410 H   0  0  0  0  0  0
  -30.5601  -17.0369   19.3015 H   0  0  0  0  0  0
  -30.3291  -22.5303   21.2068 H   0  0  0  0  0  0
  -30.1682  -22.9024   19.5279 H   0  0  0  0  0  0
  -28.6702  -24.2567   21.8528 H   0  0  0  0  0  0
  -30.0823  -24.8601   21.0537 H   0  0  0  0  0  0
  -28.2452  -21.6052   19.3087 H   0  0  0  0  0  0
  -27.6213  -22.0085   20.8722 H   0  0  0  0  0  0
  -27.5725  -17.4874   24.0615 H   0  0  0  0  0  0
  -28.6978  -16.7703   25.1637 H   0  0  0  0  0  0
  -27.2751  -24.7426   20.0197 H   0  0  0  0  0  0
  -28.5789  -24.9809   18.8792 H   0  0  0  0  0  0
  -29.4580  -16.7281   22.9978 H   0  0  0  0  0  0
  -29.0102  -15.5489   20.9741 H   0  0  0  0  0  0
  -28.2206  -19.6240   24.8823 H   0  0  0  0  0  0
  1 25  1  0  0  0
  1 30  2  0  0  0
  1 87  1  0  0  0
  2  3  1  0  0  0
  2 25  1  0  0  0
  2 89  1  0  0  0
  2 90  1  0  0  0
  3  4  1  0  0  0
  3 91  1  0  0  0
  3 92  1  0  0  0
  4  5  1  0  0  0
  4 93  1  0  0  0
  4 94  1  0  0  0
  5  6  1  0  0  0
  5 26  1  0  0  0
  5 95  1  0  0  0
  6 25  1  0  0  0
  6 96  1  0  0  0
  6 97  1  0  0  0
  7  8  2  0  0  0
  7 26  1  0  0  0
  7 29  1  0  0  0
  8  9  1  0  0  0
  8 22  1  0  0  0
  9 10  1  0  0  0
  9 27  2  0  0  0
 10 11  2  0  0  0
 10 15  1  0  0  0
 11 12  1  0  0  0
 11 98  1  0  0  0
 12 13  2  0  0  0
 12 99  1  0  0  0
 13 14  1  0  0  0
 13 31  1  0  0  0
 14 15  2  0  0  0
 14100  1  0  0  0
 15101  1  0  0  0
 16 17  2  0  0  0
 16 21  1  0  0  0
 16 31  1  0  0  0
 17 18  1  0  0  0
 17102  1  0  0  0
 18 19  2  0  0  0
 18103  1  0  0  0
 19 20  1  0  0  0
 19 24  1  0  0  0
 20 21  2  0  0  0
 20104  1  0  0  0
 21 23  1  0  0  0
 22 28  1  0  0  0
 22 32  2  0  0  0
 26 27  1  0  0  0
 28105  1  0  0  0
 28106  1  0  0  0
 29107  1  0  0  0
 29108  1  0  0  0
 33 34  1  0  0  0
 33 66  1  0  0  0
 33 70  2  0  0  0
 34 36  1  0  0  0
 34 59  1  0  0  0
 34109  1  0  0  0
 35 44  2  0  0  0
 35 45  1  0  0  0
 35 68  1  0  0  0
 36 56  1  0  0  0
 36110  1  0  0  0
 37 39  1  0  0  0
 37 47  1  0  0  0
 37 66  1  0  0  0
 37111  1  0  0  0
 38 43  2  0  0  0
 38 46  1  0  0  0
 38 47  1  0  0  0
 39 64  1  0  0  0
 39 67  2  0  0  0
 40 52  1  0  0  0
 40 53  2  0  0  0
 40 58  1  0  0  0
 41112  1  0  0  0
 41113  1  0  0  0
 41114  1  0  0  0
 41 48  1  0  0  0
 42 43  1  0  0  0
 42 66  1  0  0  0
 42115  1  0  0  0
 42116  1  0  0  0
 43 44  1  0  0  0
 44117  1  0  0  0
 45 46  2  0  0  0
 45118  1  0  0  0
 46119  1  0  0  0
 47120  1  0  0  0
 47121  1  0  0  0
 48 56  1  0  0  0
 48 65  1  0  0  0
 48122  1  0  0  0
 49 50  1  0  0  0
 49 53  1  0  0  0
 49 64  1  0  0  0
 49123  1  0  0  0
 50 51  1  0  0  0
 50124  1  0  0  0
 50125  1  0  0  0
 51 52  1  0  0  0
 51126  1  0  0  0
 51127  1  0  0  0
 52128  1  0  0  0
 52129  1  0  0  0
 53 54  1  0  0  0
 54 55  2  0  0  0
 54130  1  0  0  0
 55 57  1  0  0  0
 55131  1  0  0  0
 56 69  2  0  0  0
 57 58  2  0  0  0
 57132  1  0  0  0
 58133  1  0  0  0
 59 60  1  0  0  0
 59 61  1  0  0  0
 59 62  1  0  0  0
 60134  1  0  0  0
 60135  1  0  0  0
 60136  1  0  0  0
 61137  1  0  0  0
 61138  1  0  0  0
 61139  1  0  0  0
 62140  1  0  0  0
 62141  1  0  0  0
 62142  1  0  0  0
 63 65  1  0  0  0
 63143  1  0  0  0
 63144  1  0  0  0
 63145  1  0  0  0
 64146  1  0  0  0
 65147  1  0  0  0
 68 84  1  0  0  0
 71 72  2  0  0  0
 71 86  1  0  0  0
 71148  1  0  0  0
 72 73  1  0  0  0
 72 79  1  0  0  0
 73 74  2  0  0  0
 73 85  1  0  0  0
 74 75  1  0  0  0
 74 86  1  0  0  0
 75149  1  0  0  0
 75150  1  0  0  0
 75151  1  0  0  0
 76152  1  0  0  0
 76153  1  0  0  0
 76154  1  0  0  0
 76 85  1  0  0  0
 77155  1  0  0  0
 77156  1  0  0  0
 77157  1  0  0  0
 77 88  1  0  0  0
 78 88  1  0  0  0
 78158  1  0  0  0
 78159  1  0  0  0
 78160  1  0  0  0
 79 87  1  0  0  0
 79161  1  0  0  0
 79162  1  0  0  0
 80 81  1  0  0  0
 80 82  1  0  0  0
 80163  1  0  0  0
 80164  1  0  0  0
 81 84  1  0  0  0
 81165  1  0  0  0
 81166  1  0  0  0
 82 86  1  0  0  0
 82167  1  0  0  0
 82168  1  0  0  0
 83 85  1  0  0  0
 83 88  1  0  0  0
 83169  1  0  0  0
 83170  1  0  0  0
 84171  1  0  0  0
 84172  1  0  0  0
 85173  1  0  0  0
 87174  1  0  0  0
 88175  1  0  0  0
M  CHG  1  88   1
M  ISO  4   1 100  68 101  84 101  87 100
M  END
> <chiral flag>
0

> <version>
0

> <s_m_source_file>
/data/baiqing/PycharmProjects/Reinvent-master-3.2/result/LINK_invent/BTK/process_docking_weight1_custom_sum_contain_oxygen_bond_distance_aromatic_linkinvent_7_9_3/rearranged_h_0094.sdf

> <i_m_source_file_index>
38

> <r_mmod_Potential_Energy-OPLS-2005>
-148.555374145508

> <r_mmod_Stretch_Energy-OPLS-2005>
52.6623992919922

> <r_mmod_Bend_Energy-OPLS-2005>
156.160858154297

> <r_mmod_Torsional_Energy-OPLS-2005>
257.828521728516

> <r_mmod_Improper_Torsional_Energy-OPLS-2005>
7.07087087631226

> <r_mmod_Van_der_Waal_Energy-OPLS-2005>
130.799453735352

> <r_mmod_Electrostatic_Energy-OPLS-2005>
-339.796661376953

> <r_mmod_Solvation_Energy-OPLS-2005>
-442.035705566406

> <b_mmod_Minimization_Converged-OPLS-2005>
0

> <r_mmod_RMS_Derivative-OPLS-2005>
5.84039735794067

$$$$
38
                    3D
 Structure written by MMmdl.
166174  0  0  1  0            999 V2000
  -30.5632  -14.7815   20.4888 C   0  0  0  0  0  0
  -30.4600  -12.5057   19.4705 C   0  0  0  0  0  0
  -29.5355  -12.5484   18.2397 C   0  0  0  0  0  0
  -28.0421  -12.4001   18.6207 C   0  0  0  0  0  0
  -27.6275  -13.2588   19.8472 C   0  0  2  0  0  0
  -28.6768  -13.1817   20.9740 C   0  0  0  0  0  0
  -25.2360  -13.8250   20.5812 C   0  0  0  0  0  0
  -24.1712  -13.0468   20.9257 C   0  0  0  0  0  0
  -24.6324  -11.6941   20.8726 C   0  0  0  0  0  0
  -23.8980  -10.4341   21.0369 C   0  0  0  0  0  0
  -24.3534   -9.4262   21.9170 C   0  0  0  0  0  0
  -23.6267   -8.2274   22.0729 C   0  0  0  0  0  0
  -22.4256   -8.0252   21.3537 C   0  0  0  0  0  0
  -21.9873   -9.0215   20.4654 C   0  0  0  0  0  0
  -22.7130  -10.2140   20.3058 C   0  0  0  0  0  0
  -21.6844   -6.0682   22.5261 C   0  0  0  0  0  0
  -21.4027   -6.5607   23.8180 C   0  0  0  0  0  0
  -21.3673   -5.6785   24.9157 C   0  0  0  0  0  0
  -21.6028   -4.3042   24.7243 C   0  0  0  0  0  0
  -21.8808   -3.8106   23.4384 C   0  0  0  0  0  0
  -21.9205   -4.6907   22.3419 C   0  0  0  0  0  0
  -22.7717  -13.5180   21.1999 C   0  0  0  0  0  0
  -22.1646   -4.2083   21.0995 F   0  0  0  0  0  0
  -21.5649   -3.4531   25.7771 F   0  0  0  0  0  0
  -29.9694  -13.5504   20.3842 N   0  0  0  0  0  0
  -26.2795  -12.9519   20.3184 N   0  0  0  0  0  0
  -25.9232  -11.6643   20.5625 N   0  0  0  0  0  0
  -22.0315  -12.8245   22.0550 N   0  0  0  0  0  0
  -25.4093  -15.2089   20.4310 N   0  0  0  0  0  0
  -31.7924  -14.8841   20.4301 O   0  0  0  0  0  0
  -21.6642   -6.8833   21.4227 O   0  0  0  0  0  0
  -22.3401  -14.5503   20.6798 O   0  0  0  0  0  0
  -24.6353  -31.8579   23.1756 C   0  0  0  0  0  0
  -25.9184  -32.4714   23.8252 C   0  0  1  0  0  0
  -27.2463  -27.2894   20.1008 C   0  0  0  0  0  0
  -25.5943  -33.8500   24.2213 N   0  0  0  0  0  0
  -23.4345  -30.4889   21.5185 C   0  0  2  0  0  0
  -24.8875  -28.9151   20.1138 C   0  0  0  0  0  0
  -22.7467  -29.4861   22.4680 C   0  0  0  0  0  0
  -18.0364  -28.1536   22.8468 C   0  0  0  0  0  0
  -24.1513  -36.7239   23.2638 C   0  0  0  0  0  0
  -25.9797  -30.7732   21.3766 C   0  0  0  0  0  0
  -26.0493  -29.3936   20.7348 C   0  0  0  0  0  0
  -27.2279  -28.5808   20.7271 C   0  0  0  0  0  0
  -26.0501  -26.8802   19.4631 C   0  0  0  0  0  0
  -24.8831  -27.6538   19.4980 C   0  0  0  0  0  0
  -23.6572  -29.7876   20.1533 C   0  0  0  0  0  0
  -25.4127  -36.3018   24.0339 C   0  0  1  0  0  0
  -20.5905  -28.4284   23.1313 C   0  0  2  0  0  0
  -20.6886  -26.9821   22.6023 C   0  0  0  0  0  0
  -19.5834  -26.6479   21.5775 C   0  0  0  0  0  0
  -18.2161  -26.7778   22.2319 C   0  0  0  0  0  0
  -19.1549  -28.9179   23.2808 C   0  0  0  0  0  0
  -18.9190  -30.1666   23.8875 C   0  0  0  0  0  0
  -17.6054  -30.6416   24.0898 C   0  0  0  0  0  0
  -25.9059  -34.9405   23.5111 C   0  0  0  0  0  0
  -16.5195  -29.9039   23.6418 C   0  0  0  0  0  0
  -16.7280  -28.6606   23.0157 C   0  0  0  0  0  0
  -26.4529  -31.6544   25.0695 C   0  0  0  0  0  0
  -25.3763  -31.3684   26.1407 C   0  0  0  0  0  0
  -27.0403  -30.2965   24.6243 C   0  0  0  0  0  0
  -27.6054  -32.4296   25.7463 C   0  0  0  0  0  0
  -27.5579  -37.1775   24.8466 C   0  0  0  0  0  0
  -21.4122  -29.3444   22.3355 N   0  0  0  0  0  0
  -26.4275  -37.3743   23.9423 N   0  0  0  0  0  0
  -24.6980  -31.0650   22.0758 N   0  0  0  0  0  0
  -23.4053  -28.8464   23.2956 O   0  0  0  0  0  0
  -28.3489  -26.4057   20.0947 O   0  0  0  0  0  0
  -26.5631  -34.8806   22.4686 O   0  0  0  0  0  0
  -23.5536  -32.1323   23.7097 O   0  0  0  0  0  0
  -27.2919  -19.6829   19.4191 C   0  0  0  0  0  0
  -26.5547  -18.8266   20.1842 C   0  0  0  0  0  0
  -28.7388  -18.2942   20.3589 C   0  0  0  0  0  0
  -24.3013  -20.0597   20.0069 C   0  0  0  0  0  0
  -25.3579  -19.4806   22.2015 C   0  0  0  0  0  0
  -28.7639  -23.7880   18.1475 C   0  0  0  0  0  0
  -29.9341  -17.3796   20.7531 C   0  0  0  0  0  0
  -28.6268  -22.2612   20.2021 C   0  0  0  0  0  0
  -29.4275  -20.8654   19.8358 C   0  0  0  0  0  0
  -28.1027  -24.9412   20.3396 C   0  0  0  0  0  0
  -25.1577  -19.0017   20.7481 C   0  0  0  0  0  0
  -28.9817  -23.7486   19.6752 C   0  0  2  0  0  0
  -28.5695  -19.5997   19.8948 N   0  0  0  0  0  0
  -27.4748  -17.8848   20.5732 N   0  3  0  0  0  0
  -29.7066  -15.8790   20.4659 N   0  0  0  0  0  0
  -31.4923  -12.6888   19.1577 H   0  0  0  0  0  0
  -30.4642  -11.5339   19.9565 H   0  0  0  0  0  0
  -29.8293  -11.7835   17.5210 H   0  0  0  0  0  0
  -29.6959  -13.5102   17.7498 H   0  0  0  0  0  0
  -27.8370  -11.3417   18.8175 H   0  0  0  0  0  0
  -27.4316  -12.6811   17.7611 H   0  0  0  0  0  0
  -27.6184  -14.2927   19.4942 H   0  0  0  0  0  0
  -28.7079  -12.1808   21.4053 H   0  0  0  0  0  0
  -28.3985  -13.8631   21.7818 H   0  0  0  0  0  0
  -25.2628   -9.5772   22.4779 H   0  0  0  0  0  0
  -23.9958   -7.4656   22.7474 H   0  0  0  0  0  0
  -21.0763   -8.8678   19.8993 H   0  0  0  0  0  0
  -22.3474  -10.9657   19.6195 H   0  0  0  0  0  0
  -21.1990   -7.6108   23.9676 H   0  0  0  0  0  0
  -21.1509   -6.0507   25.9057 H   0  0  0  0  0  0
  -22.0593   -2.7564   23.2897 H   0  0  0  0  0  0
  -22.3835  -11.9834   22.4957 H   0  0  0  0  0  0
  -21.0896  -13.1299   22.2696 H   0  0  0  0  0  0
  -24.5818  -15.7910   20.3975 H   0  0  0  0  0  0
  -26.1540  -15.5685   19.8584 H   0  0  0  0  0  0
  -26.7299  -32.5400   23.1016 H   0  0  0  0  0  0
  -25.0086  -33.9663   25.0354 H   0  0  0  0  0  0
  -22.7373  -31.3060   21.3358 H   0  0  0  0  0  0
  -23.3763  -35.9591   23.3306 H   0  0  0  0  0  0
  -24.3568  -36.8877   22.2045 H   0  0  0  0  0  0
  -23.7273  -37.6436   23.6678 H   0  0  0  0  0  0
  -26.1445  -31.5256   20.6014 H   0  0  0  0  0  0
  -26.8479  -30.8125   22.0230 H   0  0  0  0  0  0
  -28.1188  -28.9320   21.2320 H   0  0  0  0  0  0
  -25.9828  -25.9513   18.9245 H   0  0  0  0  0  0
  -23.9822  -27.2893   19.0286 H   0  0  0  0  0  0
  -23.7509  -30.5161   19.3512 H   0  0  0  0  0  0
  -22.7900  -29.1880   19.8732 H   0  0  0  0  0  0
  -25.1325  -36.1827   25.0840 H   0  0  0  0  0  0
  -21.0130  -28.4670   24.1442 H   0  0  0  0  0  0
  -20.5178  -26.3255   23.4588 H   0  0  0  0  0  0
  -21.7021  -26.7430   22.2484 H   0  0  0  0  0  0
  -19.6892  -25.6494   21.1795 H   0  0  0  0  0  0
  -19.6785  -27.3380   20.7508 H   0  0  0  0  0  0
  -17.4273  -26.5591   21.5068 H   0  0  0  0  0  0
  -18.1059  -26.0421   23.0322 H   0  0  0  0  0  0
  -19.7364  -30.7895   24.2111 H   0  0  0  0  0  0
  -17.4388  -31.5829   24.5844 H   0  0  0  0  0  0
  -15.5198  -30.2932   23.7741 H   0  0  0  0  0  0
  -15.8585  -28.1249   22.6680 H   0  0  0  0  0  0
  -24.5919  -30.7040   25.7772 H   0  0  0  0  0  0
  -24.8920  -32.2819   26.4852 H   0  0  0  0  0  0
  -25.8050  -30.8856   27.0192 H   0  0  0  0  0  0
  -26.3030  -29.6640   24.1238 H   0  0  0  0  0  0
  -27.4093  -29.7276   25.4802 H   0  0  0  0  0  0
  -27.8909  -30.4242   23.9516 H   0  0  0  0  0  0
  -27.2660  -33.3598   26.1972 H   0  0  0  0  0  0
  -28.3827  -32.6825   25.0274 H   0  0  0  0  0  0
  -28.0719  -31.8460   26.5382 H   0  0  0  0  0  0
  -28.2599  -38.0064   24.7506 H   0  0  0  0  0  0
  -28.1080  -36.2605   24.6325 H   0  0  0  0  0  0
  -27.2288  -37.1445   25.8859 H   0  0  0  0  0  0
  -20.9416  -29.9285   21.6571 H   0  0  0  0  0  0
  -26.0150  -38.2834   24.1377 H   0  0  0  0  0  0
  -26.9709  -20.5592   18.8857 H   0  0  0  0  0  0
  -24.2395  -19.9444   18.9265 H   0  0  0  0  0  0
  -24.6825  -21.0631   20.2086 H   0  0  0  0  0  0
  -23.2566  -20.0183   20.3457 H   0  0  0  0  0  0
  -25.8319  -18.6845   22.8013 H   0  0  0  0  0  0
  -24.4172  -19.8231   22.6495 H   0  0  0  0  0  0
  -26.0515  -20.3257   22.2256 H   0  0  0  0  0  0
  -29.1787  -22.9110   17.6329 H   0  0  0  0  0  0
  -29.2182  -24.6784   17.7073 H   0  0  0  0  0  0
  -27.6962  -23.8209   17.8956 H   0  0  0  0  0  0
  -30.0722  -17.5695   21.8352 H   0  0  0  0  0  0
  -30.8119  -17.8300   20.2495 H   0  0  0  0  0  0
  -28.5529  -22.3019   21.2853 H   0  0  0  0  0  0
  -27.5786  -22.1732   19.9055 H   0  0  0  0  0  0
  -30.2659  -20.7378   20.5215 H   0  0  0  0  0  0
  -29.8311  -20.8698   18.8266 H   0  0  0  0  0  0
  -28.1253  -24.8282   21.4226 H   0  0  0  0  0  0
  -27.0773  -24.6593   20.1223 H   0  0  0  0  0  0
  -24.6444  -18.0365   20.7848 H   0  0  0  0  0  0
  -30.0312  -23.9512   19.9044 H   0  0  0  0  0  0
  -27.2393  -17.0419   21.1036 H   0  0  0  0  0  0
  -28.7598  -15.5923   20.1812 H   0  0  0  0  0  0
  1 25  1  0  0  0
  1 30  2  0  0  0
  1 85  1  0  0  0
  2  3  1  0  0  0
  2 25  1  0  0  0
  2 86  1  0  0  0
  2 87  1  0  0  0
  3  4  1  0  0  0
  3 88  1  0  0  0
  3 89  1  0  0  0
  4  5  1  0  0  0
  4 90  1  0  0  0
  4 91  1  0  0  0
  5  6  1  0  0  0
  5 26  1  0  0  0
  5 92  1  0  0  0
  6 25  1  0  0  0
  6 93  1  0  0  0
  6 94  1  0  0  0
  7  8  2  0  0  0
  7 26  1  0  0  0
  7 29  1  0  0  0
  8  9  1  0  0  0
  8 22  1  0  0  0
  9 10  1  0  0  0
  9 27  2  0  0  0
 10 11  2  0  0  0
 10 15  1  0  0  0
 11 12  1  0  0  0
 11 95  1  0  0  0
 12 13  2  0  0  0
 12 96  1  0  0  0
 13 14  1  0  0  0
 13 31  1  0  0  0
 14 15  2  0  0  0
 14 97  1  0  0  0
 15 98  1  0  0  0
 16 17  2  0  0  0
 16 21  1  0  0  0
 16 31  1  0  0  0
 17 18  1  0  0  0
 17 99  1  0  0  0
 18 19  2  0  0  0
 18100  1  0  0  0
 19 20  1  0  0  0
 19 24  1  0  0  0
 20 21  2  0  0  0
 20101  1  0  0  0
 21 23  1  0  0  0
 22 28  1  0  0  0
 22 32  2  0  0  0
 26 27  1  0  0  0
 28102  1  0  0  0
 28103  1  0  0  0
 29104  1  0  0  0
 29105  1  0  0  0
 33 34  1  0  0  0
 33 66  1  0  0  0
 33 70  2  0  0  0
 34 36  1  0  0  0
 34 59  1  0  0  0
 34106  1  0  0  0
 35 44  2  0  0  0
 35 45  1  0  0  0
 35 68  1  0  0  0
 36 56  1  0  0  0
 36107  1  0  0  0
 37 39  1  0  0  0
 37 47  1  0  0  0
 37 66  1  0  0  0
 37108  1  0  0  0
 38 43  2  0  0  0
 38 46  1  0  0  0
 38 47  1  0  0  0
 39 64  1  0  0  0
 39 67  2  0  0  0
 40 52  1  0  0  0
 40 53  2  0  0  0
 40 58  1  0  0  0
 41109  1  0  0  0
 41110  1  0  0  0
 41111  1  0  0  0
 41 48  1  0  0  0
 42 43  1  0  0  0
 42 66  1  0  0  0
 42112  1  0  0  0
 42113  1  0  0  0
 43 44  1  0  0  0
 44114  1  0  0  0
 45 46  2  0  0  0
 45115  1  0  0  0
 46116  1  0  0  0
 47117  1  0  0  0
 47118  1  0  0  0
 48 56  1  0  0  0
 48 65  1  0  0  0
 48119  1  0  0  0
 49 50  1  0  0  0
 49 53  1  0  0  0
 49 64  1  0  0  0
 49120  1  0  0  0
 50 51  1  0  0  0
 50121  1  0  0  0
 50122  1  0  0  0
 51 52  1  0  0  0
 51123  1  0  0  0
 51124  1  0  0  0
 52125  1  0  0  0
 52126  1  0  0  0
 53 54  1  0  0  0
 54 55  2  0  0  0
 54127  1  0  0  0
 55 57  1  0  0  0
 55128  1  0  0  0
 56 69  2  0  0  0
 57 58  2  0  0  0
 57129  1  0  0  0
 58130  1  0  0  0
 59 60  1  0  0  0
 59 61  1  0  0  0
 59 62  1  0  0  0
 60131  1  0  0  0
 60132  1  0  0  0
 60133  1  0  0  0
 61134  1  0  0  0
 61135  1  0  0  0
 61136  1  0  0  0
 62137  1  0  0  0
 62138  1  0  0  0
 62139  1  0  0  0
 63 65  1  0  0  0
 63140  1  0  0  0
 63141  1  0  0  0
 63142  1  0  0  0
 64143  1  0  0  0
 65144  1  0  0  0
 68 80  1  0  0  0
 71 72  2  0  0  0
 71 83  1  0  0  0
 71145  1  0  0  0
 72 81  1  0  0  0
 72 84  1  0  0  0
 73 77  1  0  0  0
 73 83  1  0  0  0
 73 84  2  0  0  0
 74146  1  0  0  0
 74147  1  0  0  0
 74148  1  0  0  0
 74 81  1  0  0  0
 75 81  1  0  0  0
 75149  1  0  0  0
 75150  1  0  0  0
 75151  1  0  0  0
 76152  1  0  0  0
 76153  1  0  0  0
 76154  1  0  0  0
 76 82  1  0  0  0
 77 85  1  0  0  0
 77155  1  0  0  0
 77156  1  0  0  0
 78 79  1  0  0  0
 78 82  1  0  0  0
 78157  1  0  0  0
 78158  1  0  0  0
 79 83  1  0  0  0
 79159  1  0  0  0
 79160  1  0  0  0
 80 82  1  0  0  0
 80161  1  0  0  0
 80162  1  0  0  0
 81163  1  0  0  0
 82164  1  0  0  0
 84165  1  0  0  0
 85166  1  0  0  0
M  CHG  1  84   1
M  ISO  4   1 100  68 101  80 101  85 100
M  END
> <chiral flag>
0

> <version>
0

> <s_m_source_file>
/data/baiqing/PycharmProjects/Reinvent-master-3.2/result/LINK_invent/BTK/process_docking_weight1_custom_sum_contain_oxygen_bond_distance_aromatic_linkinvent_7_9_3/rearranged_h_0094.sdf

> <i_m_source_file_index>
39

> <r_mmod_Potential_Energy-OPLS-2005>
197.38883972168

> <r_mmod_Stretch_Energy-OPLS-2005>
132.368179321289

> <r_mmod_Bend_Energy-OPLS-2005>
207.629409790039

> <r_mmod_Torsional_Energy-OPLS-2005>
325.547698974609

> <r_mmod_Improper_Torsional_Energy-OPLS-2005>
10.5906381607056

> <r_mmod_Van_der_Waal_Energy-OPLS-2005>
116.920631408691

> <r_mmod_Electrostatic_Energy-OPLS-2005>
-274.320037841797

> <r_mmod_Solvation_Energy-OPLS-2005>
-428.218475341797

> <b_mmod_Minimization_Converged-OPLS-2005>
0

> <r_mmod_RMS_Derivative-OPLS-2005>
26.7557182312012

$$$$
39
                    3D
 Structure written by MMmdl.
193201  0  0  1  0            999 V2000
  -30.7711  -14.4074   20.6598 C   0  0  0  0  0  0
  -30.4093  -12.3056   19.4134 C   0  0  0  0  0  0
  -29.4842  -12.5247   18.2025 C   0  0  0  0  0  0
  -28.0103  -12.3742   18.6188 C   0  0  0  0  0  0
  -27.6619  -13.2109   19.8776 C   0  0  2  0  0  0
  -28.7007  -12.9924   21.0001 C   0  0  0  0  0  0
  -25.2580  -13.8174   20.5680 C   0  0  0  0  0  0
  -24.1837  -13.0448   20.9170 C   0  0  0  0  0  0
  -24.6389  -11.6912   20.8738 C   0  0  0  0  0  0
  -23.9062  -10.4297   21.0407 C   0  0  0  0  0  0
  -24.3611   -9.4214   21.9188 C   0  0  0  0  0  0
  -23.6290   -8.2252   22.0759 C   0  0  0  0  0  0
  -22.4279   -8.0285   21.3548 C   0  0  0  0  0  0
  -21.9909   -9.0256   20.4653 C   0  0  0  0  0  0
  -22.7235  -10.2136   20.3055 C   0  0  0  0  0  0
  -21.6854   -6.0738   22.5283 C   0  0  0  0  0  0
  -21.4012   -6.5637   23.8215 C   0  0  0  0  0  0
  -21.3660   -5.6798   24.9180 C   0  0  0  0  0  0
  -21.6043   -4.3057   24.7233 C   0  0  0  0  0  0
  -21.8818   -3.8144   23.4351 C   0  0  0  0  0  0
  -21.9191   -4.6967   22.3406 C   0  0  0  0  0  0
  -22.7858  -13.5243   21.1834 C   0  0  0  0  0  0
  -22.1660   -4.2150   21.0987 F   0  0  0  0  0  0
  -21.5630   -3.4538   25.7740 F   0  0  0  0  0  0
  -30.0391  -13.2780   20.4549 N   0  0  0  0  0  0
  -26.3021  -12.9351   20.3378 N   0  0  0  0  0  0
  -25.9323  -11.6509   20.5775 N   0  0  0  0  0  0
  -22.0487  -12.8236   22.0378 N   0  0  0  0  0  0
  -25.4303  -15.1889   20.4082 N   0  0  0  0  0  0
  -31.8177  -14.6357   20.0498 O   0  0  0  0  0  0
  -21.6643   -6.8879   21.4241 O   0  0  0  0  0  0
  -22.3545  -14.5554   20.6688 O   0  0  0  0  0  0
  -24.6190  -31.8673   23.2091 C   0  0  0  0  0  0
  -25.9094  -32.4819   23.8383 C   0  0  1  0  0  0
  -27.2237  -27.4216   20.0737 C   0  0  0  0  0  0
  -25.5978  -33.8617   24.2333 N   0  0  0  0  0  0
  -23.4048  -30.4903   21.5536 C   0  0  2  0  0  0
  -24.8437  -28.9609   20.1155 C   0  0  0  0  0  0
  -22.7417  -29.4633   22.4999 C   0  0  0  0  0  0
  -18.0276  -28.1352   22.8495 C   0  0  0  0  0  0
  -24.1501  -36.7274   23.2625 C   0  0  0  0  0  0
  -25.9381  -30.8256   21.3649 C   0  0  0  0  0  0
  -26.0092  -29.4628   20.7074 C   0  0  0  0  0  0
  -27.2019  -28.7000   20.6860 C   0  0  0  0  0  0
  -26.0292  -26.9418   19.4834 C   0  0  0  0  0  0
  -24.8477  -27.6987   19.5053 C   0  0  0  0  0  0
  -23.6091  -29.8294   20.1659 C   0  0  0  0  0  0
  -25.4123  -36.3108   24.0332 C   0  0  1  0  0  0
  -20.5860  -28.3627   23.1312 C   0  0  2  0  0  0
  -20.6766  -26.9352   22.5408 C   0  0  0  0  0  0
  -19.5751  -26.6369   21.5204 C   0  0  0  0  0  0
  -18.1922  -26.7910   22.1612 C   0  0  0  0  0  0
  -19.1526  -28.8811   23.2898 C   0  0  0  0  0  0
  -18.9459  -30.1431   23.8871 C   0  0  0  0  0  0
  -17.6457  -30.6557   24.0563 C   0  0  0  0  0  0
  -25.9057  -34.9473   23.5112 C   0  0  0  0  0  0
  -16.5339  -29.9059   23.6343 C   0  0  0  0  0  0
  -16.7265  -28.6484   23.0343 C   0  0  0  0  0  0
  -26.4516  -31.6607   25.0732 C   0  0  0  0  0  0
  -25.3788  -31.3690   26.1496 C   0  0  0  0  0  0
  -27.0321  -30.3058   24.6096 C   0  0  0  0  0  0
  -27.6102  -32.4293   25.7495 C   0  0  0  0  0  0
  -27.5576  -37.1798   24.8453 C   0  0  0  0  0  0
  -21.4151  -29.2994   22.3728 N   0  0  0  0  0  0
  -26.4303  -37.3793   23.9399 N   0  0  0  0  0  0
  -24.6718  -31.0773   22.0986 N   0  0  0  0  0  0
  -23.4187  -28.8178   23.3047 O   0  0  0  0  0  0
  -28.3970  -26.6848   20.0732 O   0  0  0  0  0  0
  -26.5557  -34.8917   22.4642 O   0  0  0  0  0  0
  -23.5401  -32.1404   23.7505 O   0  0  0  0  0  0
  -29.3996  -19.1747   20.6684 C   0  0  0  0  0  0
  -29.7458  -19.9338   19.5846 C   0  0  0  0  0  0
  -31.1494  -19.7426   19.3868 C   0  0  0  0  0  0
  -31.6289  -19.0426   20.4736 C   0  0  0  0  0  0
  -33.2006  -21.2642   21.7313 C   0  0  0  0  0  0
  -27.4742  -20.0486   18.5127 C   0  0  0  0  0  0
  -33.7919  -17.7938   19.9906 C   0  0  0  0  0  0
  -33.5027  -19.3930   13.4321 C   0  0  0  0  0  0
  -31.1928  -18.5828   14.0121 C   0  0  0  0  0  0
  -31.9456  -20.2654   18.2053 C   0  0  0  0  0  0
  -33.9169  -20.0624   21.0918 C   0  0  0  0  0  0
  -31.8838  -19.3051   17.0048 C   0  0  0  0  0  0
  -29.7321  -23.2011   19.0806 C   0  0  0  0  0  0
  -29.6391  -24.5676   19.8049 C   0  0  0  0  0  0
  -28.5809  -22.2006   19.3505 C   0  0  0  0  0  0
  -32.5796  -19.8619   15.7503 C   0  0  0  0  0  0
  -30.4865  -17.6959   22.3758 C   0  0  0  0  0  0
  -31.1442  -16.2945   22.2418 C   0  0  0  0  0  0
  -28.3372  -25.3460   19.5536 C   0  0  0  0  0  0
  -28.8043  -20.7858   18.7441 C   0  0  1  0  0  0
  -33.0582  -18.7846   20.9083 C   0  0  1  0  0  0
  -32.5987  -18.8762   14.5617 C   0  0  0  0  0  0
  -30.5246  -18.5634   21.1877 N   0  0  0  0  0  0
  -30.3277  -15.2444   21.6133 N   0  0  0  0  0  0
  -31.4552  -12.3887   19.1122 H   0  0  0  0  0  0
  -30.2968  -11.2901   19.7986 H   0  0  0  0  0  0
  -29.7240  -11.8148   17.4100 H   0  0  0  0  0  0
  -29.6519  -13.5201   17.7869 H   0  0  0  0  0  0
  -27.8294  -11.3167   18.8143 H   0  0  0  0  0  0
  -27.3541  -12.6458   17.7917 H   0  0  0  0  0  0
  -27.7093  -14.2607   19.5856 H   0  0  0  0  0  0
  -28.6670  -11.9595   21.3518 H   0  0  0  0  0  0
  -28.4491  -13.6023   21.8680 H   0  0  0  0  0  0
  -25.2756   -9.5696   22.4768 H   0  0  0  0  0  0
  -23.9998   -7.4645   22.7484 H   0  0  0  0  0  0
  -21.0840   -8.8772   19.8965 H   0  0  0  0  0  0
  -22.3691  -10.9674   19.6163 H   0  0  0  0  0  0
  -21.1999   -7.6149   23.9718 H   0  0  0  0  0  0
  -21.1484   -6.0530   25.9086 H   0  0  0  0  0  0
  -22.0593   -2.7610   23.2852 H   0  0  0  0  0  0
  -22.4084  -11.9879   22.4755 H   0  0  0  0  0  0
  -21.1117  -13.1290   22.2594 H   0  0  0  0  0  0
  -24.6658  -15.8469   20.5125 H   0  0  0  0  0  0
  -26.2891  -15.6255   20.0956 H   0  0  0  0  0  0
  -26.7166  -32.5509   23.1136 H   0  0  0  0  0  0
  -25.0326  -33.9801   25.0618 H   0  0  0  0  0  0
  -22.6937  -31.3069   21.4157 H   0  0  0  0  0  0
  -23.3769  -35.9598   23.3322 H   0  0  0  0  0  0
  -24.3581  -36.8862   22.2026 H   0  0  0  0  0  0
  -23.7260  -37.6486   23.6628 H   0  0  0  0  0  0
  -26.0622  -31.5932   20.5994 H   0  0  0  0  0  0
  -26.8190  -30.8648   21.9913 H   0  0  0  0  0  0
  -28.1046  -29.0875   21.1395 H   0  0  0  0  0  0
  -25.9703  -25.9809   18.9918 H   0  0  0  0  0  0
  -23.9478  -27.3024   19.0524 H   0  0  0  0  0  0
  -23.7159  -30.6066   19.4077 H   0  0  0  0  0  0
  -22.7301  -29.2548   19.8691 H   0  0  0  0  0  0
  -25.1309  -36.1974   25.0830 H   0  0  0  0  0  0
  -20.9962  -28.3162   24.1425 H   0  0  0  0  0  0
  -20.5669  -26.2194   23.3570 H   0  0  0  0  0  0
  -21.6637  -26.7384   22.1183 H   0  0  0  0  0  0
  -19.6906  -25.6297   21.1184 H   0  0  0  0  0  0
  -19.6748  -27.3218   20.6768 H   0  0  0  0  0  0
  -17.4217  -26.6694   21.3984 H   0  0  0  0  0  0
  -18.0292  -26.0037   22.8983 H   0  0  0  0  0  0
  -19.7930  -30.7273   24.2197 H   0  0  0  0  0  0
  -17.5008  -31.6229   24.5177 H   0  0  0  0  0  0
  -15.5327  -30.2947   23.7691 H   0  0  0  0  0  0
  -15.8676  -28.0800   22.7037 H   0  0  0  0  0  0
  -24.6038  -30.6949   25.7852 H   0  0  0  0  0  0
  -24.8867  -32.2807   26.4895 H   0  0  0  0  0  0
  -25.8174  -30.8952   27.0300 H   0  0  0  0  0  0
  -26.2832  -29.6855   24.1168 H   0  0  0  0  0  0
  -27.4104  -29.7310   25.4559 H   0  0  0  0  0  0
  -27.8695  -30.4342   23.9223 H   0  0  0  0  0  0
  -27.2760  -33.3633   26.2016 H   0  0  0  0  0  0
  -28.3956  -32.6767   25.0335 H   0  0  0  0  0  0
  -28.0730  -31.8439   26.5460 H   0  0  0  0  0  0
  -28.2602  -38.0084   24.7524 H   0  0  0  0  0  0
  -28.1082  -36.2632   24.6293 H   0  0  0  0  0  0
  -27.2281  -37.1443   25.8849 H   0  0  0  0  0  0
  -20.9313  -29.8749   21.6965 H   0  0  0  0  0  0
  -26.0194  -38.2865   24.1454 H   0  0  0  0  0  0
  -28.4316  -19.0202   21.1287 H   0  0  0  0  0  0
  -33.8980  -22.0885   21.8895 H   0  0  0  0  0  0
  -32.7687  -21.0013   22.6963 H   0  0  0  0  0  0
  -32.3950  -21.6406   21.0993 H   0  0  0  0  0  0
  -27.6430  -19.0440   18.1220 H   0  0  0  0  0  0
  -26.8530  -20.5798   17.7906 H   0  0  0  0  0  0
  -26.8987  -19.9539   19.4337 H   0  0  0  0  0  0
  -33.2542  -16.8530   19.8985 H   0  0  0  0  0  0
  -34.7846  -17.5643   20.3781 H   0  0  0  0  0  0
  -33.9195  -18.1936   18.9863 H   0  0  0  0  0  0
  -33.5238  -18.6920   12.5973 H   0  0  0  0  0  0
  -34.5300  -19.5235   13.7740 H   0  0  0  0  0  0
  -33.1531  -20.3532   13.0482 H   0  0  0  0  0  0
  -31.2439  -17.9383   13.1338 H   0  0  0  0  0  0
  -30.6810  -19.4998   13.7175 H   0  0  0  0  0  0
  -30.5697  -18.0697   14.7447 H   0  0  0  0  0  0
  -32.9823  -20.4354   18.4781 H   0  0  0  0  0  0
  -31.5593  -21.2386   17.9110 H   0  0  0  0  0  0
  -34.7934  -19.8080   21.6892 H   0  0  0  0  0  0
  -34.3216  -20.3866   20.1348 H   0  0  0  0  0  0
  -30.8392  -19.0949   16.7792 H   0  0  0  0  0  0
  -32.3354  -18.3504   17.2772 H   0  0  0  0  0  0
  -30.6721  -22.7399   19.3802 H   0  0  0  0  0  0
  -29.8105  -23.3731   18.0060 H   0  0  0  0  0  0
  -30.4844  -25.1808   19.4878 H   0  0  0  0  0  0
  -29.7644  -24.4175   20.8766 H   0  0  0  0  0  0
  -27.6746  -22.6250   18.9166 H   0  0  0  0  0  0
  -28.3847  -22.1169   20.4211 H   0  0  0  0  0  0
  -33.6057  -20.1217   16.0132 H   0  0  0  0  0  0
  -32.1028  -20.7955   15.4497 H   0  0  0  0  0  0
  -30.9853  -18.2410   23.1769 H   0  0  0  0  0  0
  -29.4524  -17.5844   22.7066 H   0  0  0  0  0  0
  -31.3571  -15.9341   23.2492 H   0  0  0  0  0  0
  -32.1220  -16.3689   21.7763 H   0  0  0  0  0  0
  -27.5265  -24.7926   20.0312 H   0  0  0  0  0  0
  -28.1377  -25.3861   18.4814 H   0  0  0  0  0  0
  -29.2593  -20.9104   17.7604 H   0  0  0  0  0  0
  -33.0362  -18.3428   21.9022 H   0  0  0  0  0  0
  -33.0240  -17.9340   14.9117 H   0  0  0  0  0  0
  -29.4521  -15.0080   22.0576 H   0  0  0  0  0  0
  1 25  1  0  0  0
  1 30  2  0  0  0
  1 94  1  0  0  0
  2  3  1  0  0  0
  2 25  1  0  0  0
  2 95  1  0  0  0
  2 96  1  0  0  0
  3  4  1  0  0  0
  3 97  1  0  0  0
  3 98  1  0  0  0
  4  5  1  0  0  0
  4 99  1  0  0  0
  4100  1  0  0  0
  5  6  1  0  0  0
  5 26  1  0  0  0
  5101  1  0  0  0
  6 25  1  0  0  0
  6102  1  0  0  0
  6103  1  0  0  0
  7  8  2  0  0  0
  7 26  1  0  0  0
  7 29  1  0  0  0
  8  9  1  0  0  0
  8 22  1  0  0  0
  9 10  1  0  0  0
  9 27  2  0  0  0
 10 11  2  0  0  0
 10 15  1  0  0  0
 11 12  1  0  0  0
 11104  1  0  0  0
 12 13  2  0  0  0
 12105  1  0  0  0
 13 14  1  0  0  0
 13 31  1  0  0  0
 14 15  2  0  0  0
 14106  1  0  0  0
 15107  1  0  0  0
 16 17  2  0  0  0
 16 21  1  0  0  0
 16 31  1  0  0  0
 17 18  1  0  0  0
 17108  1  0  0  0
 18 19  2  0  0  0
 18109  1  0  0  0
 19 20  1  0  0  0
 19 24  1  0  0  0
 20 21  2  0  0  0
 20110  1  0  0  0
 21 23  1  0  0  0
 22 28  1  0  0  0
 22 32  2  0  0  0
 26 27  1  0  0  0
 28111  1  0  0  0
 28112  1  0  0  0
 29113  1  0  0  0
 29114  1  0  0  0
 33 34  1  0  0  0
 33 66  1  0  0  0
 33 70  2  0  0  0
 34 36  1  0  0  0
 34 59  1  0  0  0
 34115  1  0  0  0
 35 44  2  0  0  0
 35 45  1  0  0  0
 35 68  1  0  0  0
 36 56  1  0  0  0
 36116  1  0  0  0
 37 39  1  0  0  0
 37 47  1  0  0  0
 37 66  1  0  0  0
 37117  1  0  0  0
 38 43  2  0  0  0
 38 46  1  0  0  0
 38 47  1  0  0  0
 39 64  1  0  0  0
 39 67  2  0  0  0
 40 52  1  0  0  0
 40 53  2  0  0  0
 40 58  1  0  0  0
 41118  1  0  0  0
 41119  1  0  0  0
 41120  1  0  0  0
 41 48  1  0  0  0
 42 43  1  0  0  0
 42 66  1  0  0  0
 42121  1  0  0  0
 42122  1  0  0  0
 43 44  1  0  0  0
 44123  1  0  0  0
 45 46  2  0  0  0
 45124  1  0  0  0
 46125  1  0  0  0
 47126  1  0  0  0
 47127  1  0  0  0
 48 56  1  0  0  0
 48 65  1  0  0  0
 48128  1  0  0  0
 49 50  1  0  0  0
 49 53  1  0  0  0
 49 64  1  0  0  0
 49129  1  0  0  0
 50 51  1  0  0  0
 50130  1  0  0  0
 50131  1  0  0  0
 51 52  1  0  0  0
 51132  1  0  0  0
 51133  1  0  0  0
 52134  1  0  0  0
 52135  1  0  0  0
 53 54  1  0  0  0
 54 55  2  0  0  0
 54136  1  0  0  0
 55 57  1  0  0  0
 55137  1  0  0  0
 56 69  2  0  0  0
 57 58  2  0  0  0
 57138  1  0  0  0
 58139  1  0  0  0
 59 60  1  0  0  0
 59 61  1  0  0  0
 59 62  1  0  0  0
 60140  1  0  0  0
 60141  1  0  0  0
 60142  1  0  0  0
 61143  1  0  0  0
 61144  1  0  0  0
 61145  1  0  0  0
 62146  1  0  0  0
 62147  1  0  0  0
 62148  1  0  0  0
 63 65  1  0  0  0
 63149  1  0  0  0
 63150  1  0  0  0
 63151  1  0  0  0
 64152  1  0  0  0
 65153  1  0  0  0
 68 89  1  0  0  0
 71 72  2  0  0  0
 71 93  1  0  0  0
 71154  1  0  0  0
 72 73  1  0  0  0
 72 90  1  0  0  0
 73 74  2  0  0  0
 73 80  1  0  0  0
 74 91  1  0  0  0
 74 93  1  0  0  0
 75 81  1  0  0  0
 75155  1  0  0  0
 75156  1  0  0  0
 75157  1  0  0  0
 76158  1  0  0  0
 76159  1  0  0  0
 76160  1  0  0  0
 76 90  1  0  0  0
 77161  1  0  0  0
 77162  1  0  0  0
 77163  1  0  0  0
 77 91  1  0  0  0
 78164  1  0  0  0
 78165  1  0  0  0
 78166  1  0  0  0
 78 92  1  0  0  0
 79 92  1  0  0  0
 79167  1  0  0  0
 79168  1  0  0  0
 79169  1  0  0  0
 80 82  1  0  0  0
 80170  1  0  0  0
 80171  1  0  0  0
 81 91  1  0  0  0
 81172  1  0  0  0
 81173  1  0  0  0
 82 86  1  0  0  0
 82174  1  0  0  0
 82175  1  0  0  0
 83 84  1  0  0  0
 83 85  1  0  0  0
 83176  1  0  0  0
 83177  1  0  0  0
 84 89  1  0  0  0
 84178  1  0  0  0
 84179  1  0  0  0
 85 90  1  0  0  0
 85180  1  0  0  0
 85181  1  0  0  0
 86 92  1  0  0  0
 86182  1  0  0  0
 86183  1  0  0  0
 87 88  1  0  0  0
 87 93  1  0  0  0
 87184  1  0  0  0
 87185  1  0  0  0
 88 94  1  0  0  0
 88186  1  0  0  0
 88187  1  0  0  0
 89188  1  0  0  0
 89189  1  0  0  0
 90190  1  0  0  0
 91191  1  0  0  0
 92192  1  0  0  0
 94193  1  0  0  0
M  ISO  4   1 100  68 101  89 101  94 100
M  END
> <chiral flag>
0

> <version>
0

> <s_m_source_file>
/data/baiqing/PycharmProjects/Reinvent-master-3.2/result/LINK_invent/BTK/process_docking_weight1_custom_sum_contain_oxygen_bond_distance_aromatic_linkinvent_7_9_3/rearranged_h_0094.sdf

> <i_m_source_file_index>
40

> <r_mmod_Potential_Energy-OPLS-2005>
-92.347053527832

> <r_mmod_Stretch_Energy-OPLS-2005>
40.2634239196777

> <r_mmod_Bend_Energy-OPLS-2005>
117.782737731934

> <r_mmod_Torsional_Energy-OPLS-2005>
237.617889404297

> <r_mmod_Improper_Torsional_Energy-OPLS-2005>
2.83281397819519

> <r_mmod_Van_der_Waal_Energy-OPLS-2005>
121.048698425293

> <r_mmod_Electrostatic_Energy-OPLS-2005>
-429.099914550781

> <r_mmod_Solvation_Energy-OPLS-2005>
-193.425628662109

> <b_mmod_Minimization_Converged-OPLS-2005>
0

> <r_mmod_RMS_Derivative-OPLS-2005>
3.40219235420227

$$$$
40
                    3D
 Structure written by MMmdl.
177185  0  0  1  0            999 V2000
  -30.7438  -14.3983   20.5819 C   0  0  0  0  0  0
  -30.4090  -12.2637   19.4114 C   0  0  0  0  0  0
  -29.4887  -12.4998   18.1991 C   0  0  0  0  0  0
  -28.0057  -12.3851   18.6114 C   0  0  0  0  0  0
  -27.6654  -13.2081   19.8837 C   0  0  2  0  0  0
  -28.7089  -12.9704   20.9975 C   0  0  0  0  0  0
  -25.2620  -13.8181   20.5673 C   0  0  0  0  0  0
  -24.1856  -13.0477   20.9196 C   0  0  0  0  0  0
  -24.6397  -11.6933   20.8762 C   0  0  0  0  0  0
  -23.9034  -10.4326   21.0405 C   0  0  0  0  0  0
  -24.3595   -9.4245   21.9184 C   0  0  0  0  0  0
  -23.6281   -8.2279   22.0756 C   0  0  0  0  0  0
  -22.4265   -8.0296   21.3558 C   0  0  0  0  0  0
  -21.9887   -9.0260   20.4647 C   0  0  0  0  0  0
  -22.7199  -10.2149   20.3054 C   0  0  0  0  0  0
  -21.6878   -6.0760   22.5300 C   0  0  0  0  0  0
  -21.4005   -6.5660   23.8231 C   0  0  0  0  0  0
  -21.3658   -5.6808   24.9191 C   0  0  0  0  0  0
  -21.6038   -4.3058   24.7249 C   0  0  0  0  0  0
  -21.8805   -3.8170   23.4362 C   0  0  0  0  0  0
  -21.9189   -4.6985   22.3420 C   0  0  0  0  0  0
  -22.7884  -13.5264   21.1844 C   0  0  0  0  0  0
  -22.1636   -4.2182   21.0992 F   0  0  0  0  0  0
  -21.5660   -3.4511   25.7742 F   0  0  0  0  0  0
  -30.0373  -13.2520   20.4347 N   0  0  0  0  0  0
  -26.3060  -12.9337   20.3426 N   0  0  0  0  0  0
  -25.9332  -11.6507   20.5828 N   0  0  0  0  0  0
  -22.0492  -12.8274   22.0379 N   0  0  0  0  0  0
  -25.4416  -15.1880   20.3982 N   0  0  0  0  0  0
  -31.8848  -14.5409   20.1368 O   0  0  0  0  0  0
  -21.6660   -6.8879   21.4248 O   0  0  0  0  0  0
  -22.3560  -14.5572   20.6665 O   0  0  0  0  0  0
  -24.6081  -31.8715   23.2142 C   0  0  0  0  0  0
  -25.9006  -32.4846   23.8396 C   0  0  1  0  0  0
  -27.2373  -27.4668   20.0748 C   0  0  0  0  0  0
  -25.5900  -33.8645   24.2338 N   0  0  0  0  0  0
  -23.3915  -30.4921   21.5607 C   0  0  2  0  0  0
  -24.8346  -28.9586   20.1241 C   0  0  0  0  0  0
  -22.7371  -29.4655   22.5091 C   0  0  0  0  0  0
  -18.0251  -28.1354   22.8481 C   0  0  0  0  0  0
  -24.1495  -36.7300   23.2628 C   0  0  0  0  0  0
  -25.9197  -30.8400   21.3654 C   0  0  0  0  0  0
  -25.9946  -29.4784   20.7098 C   0  0  0  0  0  0
  -27.1968  -28.7425   20.6770 C   0  0  0  0  0  0
  -26.0563  -26.9503   19.4946 C   0  0  0  0  0  0
  -24.8581  -27.6895   19.5200 C   0  0  0  0  0  0
  -23.5926  -29.8193   20.1768 C   0  0  0  0  0  0
  -25.4124  -36.3126   24.0333 C   0  0  1  0  0  0
  -20.5826  -28.3612   23.1370 C   0  0  2  0  0  0
  -20.6762  -26.9361   22.5441 C   0  0  0  0  0  0
  -19.5753  -26.6352   21.5227 C   0  0  0  0  0  0
  -18.1910  -26.7906   22.1597 C   0  0  0  0  0  0
  -19.1494  -28.8805   23.2910 C   0  0  0  0  0  0
  -18.9434  -30.1426   23.8890 C   0  0  0  0  0  0
  -17.6441  -30.6578   24.0539 C   0  0  0  0  0  0
  -25.9043  -34.9490   23.5121 C   0  0  0  0  0  0
  -16.5327  -29.9069   23.6338 C   0  0  0  0  0  0
  -16.7241  -28.6486   23.0353 C   0  0  0  0  0  0
  -26.4439  -31.6621   25.0711 C   0  0  0  0  0  0
  -25.3710  -31.3727   26.1460 C   0  0  0  0  0  0
  -27.0277  -30.3082   24.6054 C   0  0  0  0  0  0
  -27.6019  -32.4333   25.7463 C   0  0  0  0  0  0
  -27.5614  -37.1775   24.8435 C   0  0  0  0  0  0
  -21.4105  -29.2996   22.3821 N   0  0  0  0  0  0
  -26.4310  -37.3822   23.9407 N   0  0  0  0  0  0
  -24.6587  -31.0809   22.1046 N   0  0  0  0  0  0
  -23.4177  -28.8222   23.3127 O   0  0  0  0  0  0
  -28.4453  -26.8075   20.0214 O   0  0  0  0  0  0
  -26.5603  -34.8931   22.4682 O   0  0  0  0  0  0
  -23.5299  -32.1457   23.7569 O   0  0  0  0  0  0
  -32.9348  -21.3826   20.7563 C   0  0  0  0  0  0
  -32.6284  -18.9863   21.0220 C   0  0  0  0  0  0
  -30.9505  -20.2884   19.8506 C   0  0  0  0  0  0
  -33.3950  -20.1466   21.2475 C   0  0  0  0  0  0
  -31.7259  -21.4538   20.0346 C   0  0  0  0  0  0
  -31.3771  -19.0359   20.3600 C   0  0  0  0  0  0
  -34.4637  -17.0840   24.5857 C   0  0  0  0  0  0
  -31.1636  -17.1372   18.8073 C   0  0  0  0  0  0
  -29.0741  -18.0025   19.8761 C   0  0  0  0  0  0
  -34.7106  -20.0587   22.0124 C   0  0  0  0  0  0
  -31.2893  -22.7770   19.4229 C   0  0  0  0  0  0
  -35.0421  -17.8858   23.4053 C   0  0  0  0  0  0
  -34.5635  -19.3526   23.3806 C   0  0  0  0  0  0
  -30.0236  -23.3634   20.0668 C   0  0  0  0  0  0
  -29.8318  -24.8567   19.7418 C   0  0  0  0  0  0
  -30.6690  -16.7575   21.3349 C   0  0  0  0  0  0
  -28.4501  -25.3893   20.1528 C   0  0  0  0  0  0
  -30.5804  -17.7351   20.1046 C   0  0  0  0  0  0
  -30.0856  -15.4272   21.1281 N   0  0  0  0  0  0
  -31.4562  -12.3384   19.1126 H   0  0  0  0  0  0
  -30.2882  -11.2531   19.8049 H   0  0  0  0  0  0
  -29.7127  -11.7845   17.4068 H   0  0  0  0  0  0
  -29.6844  -13.4885   17.7843 H   0  0  0  0  0  0
  -27.7886  -11.3289   18.7814 H   0  0  0  0  0  0
  -27.3629  -12.6954   17.7877 H   0  0  0  0  0  0
  -27.7151  -14.2598   19.6012 H   0  0  0  0  0  0
  -28.6811  -11.9335   21.3378 H   0  0  0  0  0  0
  -28.4940  -13.5755   21.8800 H   0  0  0  0  0  0
  -25.2734   -9.5742   22.4753 H   0  0  0  0  0  0
  -24.0032   -7.4671   22.7438 H   0  0  0  0  0  0
  -21.0854   -8.8729   19.8929 H   0  0  0  0  0  0
  -22.3644  -10.9677   19.6151 H   0  0  0  0  0  0
  -21.1976   -7.6170   23.9732 H   0  0  0  0  0  0
  -21.1481   -6.0549   25.9092 H   0  0  0  0  0  0
  -22.0577   -2.7639   23.2863 H   0  0  0  0  0  0
  -22.4039  -11.9896   22.4757 H   0  0  0  0  0  0
  -21.1099  -13.1301   22.2527 H   0  0  0  0  0  0
  -24.6839  -15.8570   20.4774 H   0  0  0  0  0  0
  -26.3014  -15.6025   20.0570 H   0  0  0  0  0  0
  -26.7057  -32.5547   23.1140 H   0  0  0  0  0  0
  -25.0104  -33.9830   25.0514 H   0  0  0  0  0  0
  -22.6754  -31.3066   21.4275 H   0  0  0  0  0  0
  -23.3813  -35.9573   23.3237 H   0  0  0  0  0  0
  -24.3604  -36.8973   22.2053 H   0  0  0  0  0  0
  -23.7176  -37.6451   23.6685 H   0  0  0  0  0  0
  -26.0352  -31.6119   20.6044 H   0  0  0  0  0  0
  -26.8075  -30.8850   21.9848 H   0  0  0  0  0  0
  -28.0983  -29.1550   21.1075 H   0  0  0  0  0  0
  -26.0419  -25.9998   18.9856 H   0  0  0  0  0  0
  -23.9666  -27.2809   19.0654 H   0  0  0  0  0  0
  -23.6810  -30.5924   19.4138 H   0  0  0  0  0  0
  -22.7188  -29.2272   19.8949 H   0  0  0  0  0  0
  -25.1306  -36.1986   25.0832 H   0  0  0  0  0  0
  -20.9864  -28.3151   24.1507 H   0  0  0  0  0  0
  -20.5701  -26.2198   23.3600 H   0  0  0  0  0  0
  -21.6630  -26.7460   22.1195 H   0  0  0  0  0  0
  -19.6921  -25.6268   21.1247 H   0  0  0  0  0  0
  -19.6730  -27.3167   20.6768 H   0  0  0  0  0  0
  -17.4201  -26.6663   21.3973 H   0  0  0  0  0  0
  -18.0282  -26.0048   22.8983 H   0  0  0  0  0  0
  -19.7923  -30.7255   24.2221 H   0  0  0  0  0  0
  -17.5003  -31.6271   24.5111 H   0  0  0  0  0  0
  -15.5331  -30.2971   23.7693 H   0  0  0  0  0  0
  -15.8622  -28.0826   22.7064 H   0  0  0  0  0  0
  -24.5859  -30.7109   25.7775 H   0  0  0  0  0  0
  -24.8925  -32.2895   26.4916 H   0  0  0  0  0  0
  -25.8041  -30.8857   27.0208 H   0  0  0  0  0  0
  -26.2817  -29.6851   24.1111 H   0  0  0  0  0  0
  -27.4095  -29.7296   25.4477 H   0  0  0  0  0  0
  -27.8621  -30.4441   23.9175 H   0  0  0  0  0  0
  -27.2645  -33.3640   26.2036 H   0  0  0  0  0  0
  -28.3819  -32.6885   25.0274 H   0  0  0  0  0  0
  -28.0688  -31.8457   26.5375 H   0  0  0  0  0  0
  -28.2544  -38.0167   24.7658 H   0  0  0  0  0  0
  -28.1220  -36.2712   24.6070 H   0  0  0  0  0  0
  -27.2340  -37.1155   25.8833 H   0  0  0  0  0  0
  -20.9257  -29.8695   21.7022 H   0  0  0  0  0  0
  -26.0205  -38.2885   24.1507 H   0  0  0  0  0  0
  -33.5223  -22.2773   20.9121 H   0  0  0  0  0  0
  -33.0395  -18.0515   21.3589 H   0  0  0  0  0  0
  -30.0407  -20.3732   19.2784 H   0  0  0  0  0  0
  -34.8001  -16.0463   24.5700 H   0  0  0  0  0  0
  -33.3719  -17.0633   24.5625 H   0  0  0  0  0  0
  -34.7706  -17.5125   25.5413 H   0  0  0  0  0  0
  -31.1315  -17.8549   17.9862 H   0  0  0  0  0  0
  -30.6213  -16.2540   18.4696 H   0  0  0  0  0  0
  -32.2096  -16.8599   18.9414 H   0  0  0  0  0  0
  -28.8824  -18.6039   18.9871 H   0  0  0  0  0  0
  -28.6257  -18.5096   20.7315 H   0  0  0  0  0  0
  -28.5230  -17.0726   19.7308 H   0  0  0  0  0  0
  -35.0808  -21.0734   22.1775 H   0  0  0  0  0  0
  -35.4603  -19.5698   21.3887 H   0  0  0  0  0  0
  -31.1237  -22.6340   18.3529 H   0  0  0  0  0  0
  -32.1078  -23.4929   19.5044 H   0  0  0  0  0  0
  -34.7892  -17.3774   22.4753 H   0  0  0  0  0  0
  -36.1314  -17.8682   23.4602 H   0  0  0  0  0  0
  -33.5266  -19.4282   23.7148 H   0  0  0  0  0  0
  -35.1426  -19.9018   24.1263 H   0  0  0  0  0  0
  -30.0834  -23.2546   21.1523 H   0  0  0  0  0  0
  -29.1570  -22.7845   19.7472 H   0  0  0  0  0  0
  -29.9692  -25.0203   18.6730 H   0  0  0  0  0  0
  -30.6128  -25.4357   20.2375 H   0  0  0  0  0  0
  -30.1682  -17.2110   22.1916 H   0  0  0  0  0  0
  -31.6868  -16.5900   21.6751 H   0  0  0  0  0  0
  -28.2327  -25.1450   21.1928 H   0  0  0  0  0  0
  -27.7042  -24.8927   19.5368 H   0  0  0  0  0  0
  -29.1429  -15.2688   21.4444 H   0  0  0  0  0  0
  1 25  1  0  0  0
  1 30  2  0  0  0
  1 89  1  0  0  0
  2  3  1  0  0  0
  2 25  1  0  0  0
  2 90  1  0  0  0
  2 91  1  0  0  0
  3  4  1  0  0  0
  3 92  1  0  0  0
  3 93  1  0  0  0
  4  5  1  0  0  0
  4 94  1  0  0  0
  4 95  1  0  0  0
  5  6  1  0  0  0
  5 26  1  0  0  0
  5 96  1  0  0  0
  6 25  1  0  0  0
  6 97  1  0  0  0
  6 98  1  0  0  0
  7  8  2  0  0  0
  7 26  1  0  0  0
  7 29  1  0  0  0
  8  9  1  0  0  0
  8 22  1  0  0  0
  9 10  1  0  0  0
  9 27  2  0  0  0
 10 11  2  0  0  0
 10 15  1  0  0  0
 11 12  1  0  0  0
 11 99  1  0  0  0
 12 13  2  0  0  0
 12100  1  0  0  0
 13 14  1  0  0  0
 13 31  1  0  0  0
 14 15  2  0  0  0
 14101  1  0  0  0
 15102  1  0  0  0
 16 17  2  0  0  0
 16 21  1  0  0  0
 16 31  1  0  0  0
 17 18  1  0  0  0
 17103  1  0  0  0
 18 19  2  0  0  0
 18104  1  0  0  0
 19 20  1  0  0  0
 19 24  1  0  0  0
 20 21  2  0  0  0
 20105  1  0  0  0
 21 23  1  0  0  0
 22 28  1  0  0  0
 22 32  2  0  0  0
 26 27  1  0  0  0
 28106  1  0  0  0
 28107  1  0  0  0
 29108  1  0  0  0
 29109  1  0  0  0
 33 34  1  0  0  0
 33 66  1  0  0  0
 33 70  2  0  0  0
 34 36  1  0  0  0
 34 59  1  0  0  0
 34110  1  0  0  0
 35 44  2  0  0  0
 35 45  1  0  0  0
 35 68  1  0  0  0
 36 56  1  0  0  0
 36111  1  0  0  0
 37 39  1  0  0  0
 37 47  1  0  0  0
 37 66  1  0  0  0
 37112  1  0  0  0
 38 43  2  0  0  0
 38 46  1  0  0  0
 38 47  1  0  0  0
 39 64  1  0  0  0
 39 67  2  0  0  0
 40 52  1  0  0  0
 40 53  2  0  0  0
 40 58  1  0  0  0
 41113  1  0  0  0
 41114  1  0  0  0
 41115  1  0  0  0
 41 48  1  0  0  0
 42 43  1  0  0  0
 42 66  1  0  0  0
 42116  1  0  0  0
 42117  1  0  0  0
 43 44  1  0  0  0
 44118  1  0  0  0
 45 46  2  0  0  0
 45119  1  0  0  0
 46120  1  0  0  0
 47121  1  0  0  0
 47122  1  0  0  0
 48 56  1  0  0  0
 48 65  1  0  0  0
 48123  1  0  0  0
 49 50  1  0  0  0
 49 53  1  0  0  0
 49 64  1  0  0  0
 49124  1  0  0  0
 50 51  1  0  0  0
 50125  1  0  0  0
 50126  1  0  0  0
 51 52  1  0  0  0
 51127  1  0  0  0
 51128  1  0  0  0
 52129  1  0  0  0
 52130  1  0  0  0
 53 54  1  0  0  0
 54 55  2  0  0  0
 54131  1  0  0  0
 55 57  1  0  0  0
 55132  1  0  0  0
 56 69  2  0  0  0
 57 58  2  0  0  0
 57133  1  0  0  0
 58134  1  0  0  0
 59 60  1  0  0  0
 59 61  1  0  0  0
 59 62  1  0  0  0
 60135  1  0  0  0
 60136  1  0  0  0
 60137  1  0  0  0
 61138  1  0  0  0
 61139  1  0  0  0
 61140  1  0  0  0
 62141  1  0  0  0
 62142  1  0  0  0
 62143  1  0  0  0
 63 65  1  0  0  0
 63144  1  0  0  0
 63145  1  0  0  0
 63146  1  0  0  0
 64147  1  0  0  0
 65148  1  0  0  0
 68 87  1  0  0  0
 71 74  2  0  0  0
 71 75  1  0  0  0
 71149  1  0  0  0
 72 74  1  0  0  0
 72 76  2  0  0  0
 72150  1  0  0  0
 73 75  2  0  0  0
 73 76  1  0  0  0
 73151  1  0  0  0
 74 80  1  0  0  0
 75 81  1  0  0  0
 76 88  1  0  0  0
 77 82  1  0  0  0
 77152  1  0  0  0
 77153  1  0  0  0
 77154  1  0  0  0
 78155  1  0  0  0
 78156  1  0  0  0
 78157  1  0  0  0
 78 88  1  0  0  0
 79 88  1  0  0  0
 79158  1  0  0  0
 79159  1  0  0  0
 79160  1  0  0  0
 80 83  1  0  0  0
 80161  1  0  0  0
 80162  1  0  0  0
 81 84  1  0  0  0
 81163  1  0  0  0
 81164  1  0  0  0
 82 83  1  0  0  0
 82165  1  0  0  0
 82166  1  0  0  0
 83167  1  0  0  0
 83168  1  0  0  0
 84 85  1  0  0  0
 84169  1  0  0  0
 84170  1  0  0  0
 85 87  1  0  0  0
 85171  1  0  0  0
 85172  1  0  0  0
 86 88  1  0  0  0
 86 89  1  0  0  0
 86173  1  0  0  0
 86174  1  0  0  0
 87175  1  0  0  0
 87176  1  0  0  0
 89177  1  0  0  0
M  ISO  4   1 100  68 101  87 101  89 100
M  END
> <chiral flag>
0

> <version>
0

> <s_m_source_file>
/data/baiqing/PycharmProjects/Reinvent-master-3.2/result/LINK_invent/BTK/process_docking_weight1_custom_sum_contain_oxygen_bond_distance_aromatic_linkinvent_7_9_3/rearranged_h_0094.sdf

> <i_m_source_file_index>
41

> <r_mmod_Potential_Energy-OPLS-2005>
-81.8341064453125

> <r_mmod_Stretch_Energy-OPLS-2005>
36.8553657531738

> <r_mmod_Bend_Energy-OPLS-2005>
103.85871887207

> <r_mmod_Torsional_Energy-OPLS-2005>
227.964508056641

> <r_mmod_Improper_Torsional_Energy-OPLS-2005>
3.37396621704102

> <r_mmod_Van_der_Waal_Energy-OPLS-2005>
166.900939941406

> <r_mmod_Electrostatic_Energy-OPLS-2005>
-441.197998046875

> <r_mmod_Solvation_Energy-OPLS-2005>
-191.619430541992

> <b_mmod_Minimization_Converged-OPLS-2005>
0

> <r_mmod_RMS_Derivative-OPLS-2005>
3.99956941604614

$$$$
41
                    3D
 Structure written by MMmdl.
183191  0  0  1  0            999 V2000
  -30.7417  -14.3875   20.6636 C   0  0  0  0  0  0
  -30.4178  -12.2923   19.3957 C   0  0  0  0  0  0
  -29.4850  -12.5182   18.1912 C   0  0  0  0  0  0
  -28.0077  -12.3756   18.6071 C   0  0  0  0  0  0
  -27.6628  -13.2003   19.8740 C   0  0  2  0  0  0
  -28.6990  -12.9438   20.9890 C   0  0  0  0  0  0
  -25.2588  -13.8146   20.5660 C   0  0  0  0  0  0
  -24.1827  -13.0441   20.9143 C   0  0  0  0  0  0
  -24.6358  -11.6897   20.8675 C   0  0  0  0  0  0
  -23.9014  -10.4291   21.0356 C   0  0  0  0  0  0
  -24.3575   -9.4220   21.9153 C   0  0  0  0  0  0
  -23.6259   -8.2257   22.0744 C   0  0  0  0  0  0
  -22.4237   -8.0280   21.3542 C   0  0  0  0  0  0
  -21.9856   -9.0238   20.4639 C   0  0  0  0  0  0
  -22.7167  -10.2131   20.3020 C   0  0  0  0  0  0
  -21.6865   -6.0718   22.5258 C   0  0  0  0  0  0
  -21.4033   -6.5624   23.8196 C   0  0  0  0  0  0
  -21.3654   -5.6763   24.9153 C   0  0  0  0  0  0
  -21.6033   -4.3023   24.7196 C   0  0  0  0  0  0
  -21.8822   -3.8128   23.4315 C   0  0  0  0  0  0
  -21.9204   -4.6950   22.3373 C   0  0  0  0  0  0
  -22.7850  -13.5257   21.1807 C   0  0  0  0  0  0
  -22.1670   -4.2146   21.0954 F   0  0  0  0  0  0
  -21.5622   -3.4493   25.7705 F   0  0  0  0  0  0
  -30.0375  -13.2464   20.4493 N   0  0  0  0  0  0
  -26.3014  -12.9307   20.3319 N   0  0  0  0  0  0
  -25.9284  -11.6469   20.5702 N   0  0  0  0  0  0
  -22.0483  -12.8273   22.0378 N   0  0  0  0  0  0
  -25.4346  -15.1864   20.4121 N   0  0  0  0  0  0
  -31.8039  -14.6501   20.0896 O   0  0  0  0  0  0
  -21.6633   -6.8856   21.4223 O   0  0  0  0  0  0
  -22.3538  -14.5554   20.6644 O   0  0  0  0  0  0
  -24.6077  -31.8719   23.2138 C   0  0  0  0  0  0
  -25.8985  -32.4848   23.8423 C   0  0  1  0  0  0
  -27.2613  -27.4790   20.0906 C   0  0  0  0  0  0
  -25.5863  -33.8643   24.2356 N   0  0  0  0  0  0
  -23.3939  -30.4917   21.5522 C   0  0  2  0  0  0
  -24.8457  -28.9590   20.1189 C   0  0  0  0  0  0
  -22.7367  -29.4666   22.5019 C   0  0  0  0  0  0
  -18.0260  -28.1364   22.8500 C   0  0  0  0  0  0
  -24.1481  -36.7327   23.2639 C   0  0  0  0  0  0
  -25.9147  -30.8489   21.3622 C   0  0  0  0  0  0
  -25.9955  -29.4810   20.7214 C   0  0  0  0  0  0
  -27.1956  -28.7442   20.7261 C   0  0  0  0  0  0
  -26.0900  -26.9612   19.5006 C   0  0  0  0  0  0
  -24.8836  -27.6914   19.5120 C   0  0  0  0  0  0
  -23.6026  -29.8182   20.1674 C   0  0  0  0  0  0
  -25.4102  -36.3132   24.0348 C   0  0  1  0  0  0
  -20.5845  -28.3644   23.1341 C   0  0  2  0  0  0
  -20.6746  -26.9384   22.5428 C   0  0  0  0  0  0
  -19.5733  -26.6379   21.5214 C   0  0  0  0  0  0
  -18.1909  -26.7914   22.1624 C   0  0  0  0  0  0
  -19.1510  -28.8819   23.2919 C   0  0  0  0  0  0
  -18.9439  -30.1427   23.8928 C   0  0  0  0  0  0
  -17.6446  -30.6579   24.0564 C   0  0  0  0  0  0
  -25.9022  -34.9493   23.5152 C   0  0  0  0  0  0
  -16.5335  -29.9085   23.6319 C   0  0  0  0  0  0
  -16.7254  -28.6494   23.0352 C   0  0  0  0  0  0
  -26.4446  -31.6608   25.0721 C   0  0  0  0  0  0
  -25.3732  -31.3693   26.1484 C   0  0  0  0  0  0
  -27.0280  -30.3069   24.6047 C   0  0  0  0  0  0
  -27.6043  -32.4314   25.7460 C   0  0  0  0  0  0
  -27.5583  -37.1814   24.8466 C   0  0  0  0  0  0
  -21.4104  -29.3019   22.3758 N   0  0  0  0  0  0
  -26.4299  -37.3807   23.9408 N   0  0  0  0  0  0
  -24.6560  -31.0847   22.1023 N   0  0  0  0  0  0
  -23.4160  -28.8212   23.3057 O   0  0  0  0  0  0
  -28.4052  -26.7097   19.9915 O   0  0  0  0  0  0
  -26.5587  -34.8930   22.4714 O   0  0  0  0  0  0
  -23.5279  -32.1449   23.7558 O   0  0  0  0  0  0
  -31.1611  -25.2557   19.7983 C   0  0  0  0  0  0
  -31.1278  -24.1833   18.8569 C   0  0  0  0  0  0
  -31.7233  -24.6952   20.9154 C   0  0  0  0  0  0
  -32.0988  -25.3111   22.2258 C   0  0  0  0  0  0
  -33.9577  -25.8128   15.7734 C   0  0  0  0  0  0
  -31.4657  -24.1626   14.9773 C   0  0  0  0  0  0
  -32.6954  -19.8265   19.9543 C   0  0  0  0  0  0
  -30.8180  -26.7089   19.5459 C   0  0  0  0  0  0
  -30.7209  -24.2159   17.4031 C   0  0  0  0  0  0
  -32.6800  -25.6963   16.6166 C   0  0  0  0  0  0
  -30.7911  -17.6673   21.2035 C   0  0  0  0  0  0
  -32.8526  -22.4339   21.3541 C   0  0  0  0  0  0
  -30.8515  -16.4186   22.1155 C   0  0  0  0  0  0
  -31.4925  -18.8665   21.8918 C   0  0  0  0  0  0
  -32.1112  -21.2202   21.9651 C   0  0  0  0  0  0
  -29.6535  -27.2936   20.3613 C   0  0  0  0  0  0
  -31.9232  -24.3587   16.4351 C   0  0  2  0  0  0
  -31.6188  -23.0588   19.3617 N   0  0  0  0  0  0
  -32.0322  -23.3800   20.6038 N   0  0  0  0  0  0
  -30.2058  -15.2291   21.5578 N   0  0  0  0  0  0
  -31.7364  -20.0852   21.0610 N   0  3  1  0  0  0
  -31.4611  -12.3961   19.0937 H   0  0  0  0  0  0
  -30.3215  -11.2683   19.7638 H   0  0  0  0  0  0
  -29.7158  -11.8083   17.3942 H   0  0  0  0  0  0
  -29.6565  -13.5117   17.7739 H   0  0  0  0  0  0
  -27.8173  -11.3167   18.7898 H   0  0  0  0  0  0
  -27.3555  -12.6661   17.7836 H   0  0  0  0  0  0
  -27.7197  -14.2530   19.5951 H   0  0  0  0  0  0
  -28.6639  -11.8982   21.2995 H   0  0  0  0  0  0
  -28.4432  -13.5131   21.8847 H   0  0  0  0  0  0
  -25.2727   -9.5696   22.4717 H   0  0  0  0  0  0
  -23.9971   -7.4636   22.7449 H   0  0  0  0  0  0
  -21.0796   -8.8704   19.8945 H   0  0  0  0  0  0
  -22.3590  -10.9640   19.6111 H   0  0  0  0  0  0
  -21.2052   -7.6133   23.9689 H   0  0  0  0  0  0
  -21.1472   -6.0500   25.9054 H   0  0  0  0  0  0
  -22.0623   -2.7593   23.2788 H   0  0  0  0  0  0
  -22.4091  -11.9970   22.4816 H   0  0  0  0  0  0
  -21.1101  -13.1319   22.2554 H   0  0  0  0  0  0
  -24.6750  -15.8486   20.5246 H   0  0  0  0  0  0
  -26.2996  -15.6195   20.1114 H   0  0  0  0  0  0
  -26.7063  -32.5596   23.1207 H   0  0  0  0  0  0
  -25.0012  -33.9821   25.0498 H   0  0  0  0  0  0
  -22.6811  -31.3069   21.4124 H   0  0  0  0  0  0
  -23.3742  -35.9663   23.3325 H   0  0  0  0  0  0
  -24.3575  -36.8912   22.2049 H   0  0  0  0  0  0
  -23.7235  -37.6542   23.6631 H   0  0  0  0  0  0
  -26.0138  -31.6101   20.5868 H   0  0  0  0  0  0
  -26.8064  -30.9149   21.9725 H   0  0  0  0  0  0
  -28.0531  -29.1725   21.2232 H   0  0  0  0  0  0
  -26.1158  -25.9942   19.0177 H   0  0  0  0  0  0
  -23.9996  -27.2794   19.0457 H   0  0  0  0  0  0
  -23.7010  -30.5887   19.4025 H   0  0  0  0  0  0
  -22.7301  -29.2288   19.8792 H   0  0  0  0  0  0
  -25.1273  -36.2016   25.0843 H   0  0  0  0  0  0
  -20.9940  -28.3201   24.1458 H   0  0  0  0  0  0
  -20.5640  -26.2248   23.3605 H   0  0  0  0  0  0
  -21.6621  -26.7428   22.1226 H   0  0  0  0  0  0
  -19.6892  -25.6297   21.1222 H   0  0  0  0  0  0
  -19.6672  -27.3205   20.6756 H   0  0  0  0  0  0
  -17.4181  -26.6671   21.4023 H   0  0  0  0  0  0
  -18.0309  -26.0044   22.9007 H   0  0  0  0  0  0
  -19.7919  -30.7226   24.2316 H   0  0  0  0  0  0
  -17.5006  -31.6263   24.5154 H   0  0  0  0  0  0
  -15.5340  -30.3000   23.7617 H   0  0  0  0  0  0
  -15.8650  -28.0816   22.7066 H   0  0  0  0  0  0
  -24.5894  -30.7053   25.7820 H   0  0  0  0  0  0
  -24.8932  -32.2841   26.4971 H   0  0  0  0  0  0
  -25.8093  -30.8830   27.0220 H   0  0  0  0  0  0
  -26.2809  -29.6830   24.1127 H   0  0  0  0  0  0
  -27.4116  -29.7295   25.4470 H   0  0  0  0  0  0
  -27.8608  -30.4424   23.9142 H   0  0  0  0  0  0
  -27.2686  -33.3603   26.2085 H   0  0  0  0  0  0
  -28.3812  -32.6896   25.0249 H   0  0  0  0  0  0
  -28.0760  -31.8411   26.5327 H   0  0  0  0  0  0
  -28.2619  -38.0097   24.7512 H   0  0  0  0  0  0
  -28.1061  -36.2631   24.6293 H   0  0  0  0  0  0
  -27.2300  -37.1471   25.8870 H   0  0  0  0  0  0
  -20.9254  -29.8744   21.6986 H   0  0  0  0  0  0
  -26.0200  -38.2891   24.1404 H   0  0  0  0  0  0
  -31.7330  -26.3315   22.3120 H   0  0  0  0  0  0
  -33.1820  -25.3451   22.3397 H   0  0  0  0  0  0
  -31.6861  -24.7376   23.0568 H   0  0  0  0  0  0
  -34.5166  -26.7118   16.0384 H   0  0  0  0  0  0
  -33.7361  -25.8753   14.7077 H   0  0  0  0  0  0
  -34.6146  -24.9571   15.9337 H   0  0  0  0  0  0
  -30.9167  -23.2295   14.8563 H   0  0  0  0  0  0
  -32.3109  -24.1189   14.2908 H   0  0  0  0  0  0
  -30.8157  -24.9760   14.6527 H   0  0  0  0  0  0
  -32.3586  -19.0225   19.3045 H   0  0  0  0  0  0
  -33.6801  -19.5575   20.3369 H   0  0  0  0  0  0
  -32.8111  -20.6866   19.2968 H   0  0  0  0  0  0
  -30.6068  -26.8820   18.4916 H   0  0  0  0  0  0
  -31.6971  -27.3211   19.7511 H   0  0  0  0  0  0
  -30.0096  -25.0232   17.2292 H   0  0  0  0  0  0
  -30.1774  -23.3002   17.1684 H   0  0  0  0  0  0
  -32.0179  -26.5351   16.3948 H   0  0  0  0  0  0
  -32.9687  -25.8104   17.6616 H   0  0  0  0  0  0
  -29.7555  -17.9214   20.9742 H   0  0  0  0  0  0
  -31.2669  -17.4204   20.2566 H   0  0  0  0  0  0
  -33.7026  -22.1346   20.7427 H   0  0  0  0  0  0
  -33.3105  -22.9779   22.1792 H   0  0  0  0  0  0
  -30.3857  -16.6419   23.0763 H   0  0  0  0  0  0
  -31.8931  -16.1759   22.3362 H   0  0  0  0  0  0
  -32.4531  -18.5393   22.2965 H   0  0  0  0  0  0
  -30.8908  -19.1483   22.7578 H   0  0  0  0  0  0
  -31.2214  -21.5638   22.4945 H   0  0  0  0  0  0
  -32.7748  -20.8235   22.7362 H   0  0  0  0  0  0
  -29.6708  -28.3605   20.1420 H   0  0  0  0  0  0
  -29.8093  -27.1797   21.4332 H   0  0  0  0  0  0
  -32.6185  -23.5482   16.6644 H   0  0  0  0  0  0
  -29.3295  -14.9410   21.9709 H   0  0  0  0  0  0
  -30.8674  -20.3608   20.6245 H   0  0  0  0  0  0
  1 25  1  0  0  0
  1 30  2  0  0  0
  1 90  1  0  0  0
  2  3  1  0  0  0
  2 25  1  0  0  0
  2 92  1  0  0  0
  2 93  1  0  0  0
  3  4  1  0  0  0
  3 94  1  0  0  0
  3 95  1  0  0  0
  4  5  1  0  0  0
  4 96  1  0  0  0
  4 97  1  0  0  0
  5  6  1  0  0  0
  5 26  1  0  0  0
  5 98  1  0  0  0
  6 25  1  0  0  0
  6 99  1  0  0  0
  6100  1  0  0  0
  7  8  2  0  0  0
  7 26  1  0  0  0
  7 29  1  0  0  0
  8  9  1  0  0  0
  8 22  1  0  0  0
  9 10  1  0  0  0
  9 27  2  0  0  0
 10 11  2  0  0  0
 10 15  1  0  0  0
 11 12  1  0  0  0
 11101  1  0  0  0
 12 13  2  0  0  0
 12102  1  0  0  0
 13 14  1  0  0  0
 13 31  1  0  0  0
 14 15  2  0  0  0
 14103  1  0  0  0
 15104  1  0  0  0
 16 17  2  0  0  0
 16 21  1  0  0  0
 16 31  1  0  0  0
 17 18  1  0  0  0
 17105  1  0  0  0
 18 19  2  0  0  0
 18106  1  0  0  0
 19 20  1  0  0  0
 19 24  1  0  0  0
 20 21  2  0  0  0
 20107  1  0  0  0
 21 23  1  0  0  0
 22 28  1  0  0  0
 22 32  2  0  0  0
 26 27  1  0  0  0
 28108  1  0  0  0
 28109  1  0  0  0
 29110  1  0  0  0
 29111  1  0  0  0
 33 34  1  0  0  0
 33 66  1  0  0  0
 33 70  2  0  0  0
 34 36  1  0  0  0
 34 59  1  0  0  0
 34112  1  0  0  0
 35 44  2  0  0  0
 35 45  1  0  0  0
 35 68  1  0  0  0
 36 56  1  0  0  0
 36113  1  0  0  0
 37 39  1  0  0  0
 37 47  1  0  0  0
 37 66  1  0  0  0
 37114  1  0  0  0
 38 43  2  0  0  0
 38 46  1  0  0  0
 38 47  1  0  0  0
 39 64  1  0  0  0
 39 67  2  0  0  0
 40 52  1  0  0  0
 40 53  2  0  0  0
 40 58  1  0  0  0
 41115  1  0  0  0
 41116  1  0  0  0
 41117  1  0  0  0
 41 48  1  0  0  0
 42 43  1  0  0  0
 42 66  1  0  0  0
 42118  1  0  0  0
 42119  1  0  0  0
 43 44  1  0  0  0
 44120  1  0  0  0
 45 46  2  0  0  0
 45121  1  0  0  0
 46122  1  0  0  0
 47123  1  0  0  0
 47124  1  0  0  0
 48 56  1  0  0  0
 48 65  1  0  0  0
 48125  1  0  0  0
 49 50  1  0  0  0
 49 53  1  0  0  0
 49 64  1  0  0  0
 49126  1  0  0  0
 50 51  1  0  0  0
 50127  1  0  0  0
 50128  1  0  0  0
 51 52  1  0  0  0
 51129  1  0  0  0
 51130  1  0  0  0
 52131  1  0  0  0
 52132  1  0  0  0
 53 54  1  0  0  0
 54 55  2  0  0  0
 54133  1  0  0  0
 55 57  1  0  0  0
 55134  1  0  0  0
 56 69  2  0  0  0
 57 58  2  0  0  0
 57135  1  0  0  0
 58136  1  0  0  0
 59 60  1  0  0  0
 59 61  1  0  0  0
 59 62  1  0  0  0
 60137  1  0  0  0
 60138  1  0  0  0
 60139  1  0  0  0
 61140  1  0  0  0
 61141  1  0  0  0
 61142  1  0  0  0
 62143  1  0  0  0
 62144  1  0  0  0
 62145  1  0  0  0
 63 65  1  0  0  0
 63146  1  0  0  0
 63147  1  0  0  0
 63148  1  0  0  0
 64149  1  0  0  0
 65150  1  0  0  0
 68 86  1  0  0  0
 71 72  1  0  0  0
 71 73  2  0  0  0
 71 78  1  0  0  0
 72 79  1  0  0  0
 72 88  2  0  0  0
 73 74  1  0  0  0
 73 89  1  0  0  0
 74151  1  0  0  0
 74152  1  0  0  0
 74153  1  0  0  0
 75 80  1  0  0  0
 75154  1  0  0  0
 75155  1  0  0  0
 75156  1  0  0  0
 76157  1  0  0  0
 76158  1  0  0  0
 76159  1  0  0  0
 76 87  1  0  0  0
 77160  1  0  0  0
 77161  1  0  0  0
 77162  1  0  0  0
 77 91  1  0  0  0
 78 86  1  0  0  0
 78163  1  0  0  0
 78164  1  0  0  0
 79 87  1  0  0  0
 79165  1  0  0  0
 79166  1  0  0  0
 80 87  1  0  0  0
 80167  1  0  0  0
 80168  1  0  0  0
 81 83  1  0  0  0
 81 84  1  0  0  0
 81169  1  0  0  0
 81170  1  0  0  0
 82 85  1  0  0  0
 82 89  1  0  0  0
 82171  1  0  0  0
 82172  1  0  0  0
 83 90  1  0  0  0
 83173  1  0  0  0
 83174  1  0  0  0
 84 91  1  0  0  0
 84175  1  0  0  0
 84176  1  0  0  0
 85 91  1  0  0  0
 85177  1  0  0  0
 85178  1  0  0  0
 86179  1  0  0  0
 86180  1  0  0  0
 87181  1  0  0  0
 88 89  1  0  0  0
 90182  1  0  0  0
 91183  1  0  0  0
M  CHG  1  91   1
M  ISO  4   1 100  68 101  86 101  90 100
M  END
> <chiral flag>
0

> <version>
0

> <s_m_source_file>
/data/baiqing/PycharmProjects/Reinvent-master-3.2/result/LINK_invent/BTK/process_docking_weight1_custom_sum_contain_oxygen_bond_distance_aromatic_linkinvent_7_9_3/rearranged_h_0094.sdf

> <i_m_source_file_index>
42

> <r_mmod_Potential_Energy-OPLS-2005>
-236.194412231445

> <r_mmod_Stretch_Energy-OPLS-2005>
35.821102142334

> <r_mmod_Bend_Energy-OPLS-2005>
119.986274719238

> <r_mmod_Torsional_Energy-OPLS-2005>
208.506164550781

> <r_mmod_Improper_Torsional_Energy-OPLS-2005>
3.63147807121277

> <r_mmod_Van_der_Waal_Energy-OPLS-2005>
135.379898071289

> <r_mmod_Electrostatic_Energy-OPLS-2005>
-327.015228271484

> <r_mmod_Solvation_Energy-OPLS-2005>
-418.645141601562

> <b_mmod_Minimization_Converged-OPLS-2005>
0

> <r_mmod_RMS_Derivative-OPLS-2005>
2.51814126968384

$$$$
42
                    3D
 Structure written by MMmdl.
179187  0  0  1  0            999 V2000
  -30.7184  -14.5756   20.5166 C   0  0  0  0  0  0
  -30.4082  -12.3656   19.4594 C   0  0  0  0  0  0
  -29.4932  -12.4935   18.2260 C   0  0  0  0  0  0
  -28.0154  -12.3444   18.6358 C   0  0  0  0  0  0
  -27.6413  -13.2234   19.8586 C   0  0  2  0  0  0
  -28.6877  -13.1282   20.9909 C   0  0  0  0  0  0
  -25.2528  -13.8139   20.5900 C   0  0  0  0  0  0
  -24.1774  -13.0391   20.9275 C   0  0  0  0  0  0
  -24.6339  -11.6892   20.8733 C   0  0  0  0  0  0
  -23.9020  -10.4288   21.0399 C   0  0  0  0  0  0
  -24.3576   -9.4224   21.9192 C   0  0  0  0  0  0
  -23.6275   -8.2255   22.0756 C   0  0  0  0  0  0
  -22.4266   -8.0281   21.3549 C   0  0  0  0  0  0
  -21.9886   -9.0239   20.4648 C   0  0  0  0  0  0
  -22.7188  -10.2123   20.3061 C   0  0  0  0  0  0
  -21.6858   -6.0739   22.5285 C   0  0  0  0  0  0
  -21.4005   -6.5641   23.8223 C   0  0  0  0  0  0
  -21.3659   -5.6784   24.9177 C   0  0  0  0  0  0
  -21.6054   -4.3047   24.7214 C   0  0  0  0  0  0
  -21.8822   -3.8148   23.4336 C   0  0  0  0  0  0
  -21.9195   -4.6968   22.3403 C   0  0  0  0  0  0
  -22.7815  -13.5227   21.1908 C   0  0  0  0  0  0
  -22.1651   -4.2172   21.0977 F   0  0  0  0  0  0
  -21.5629   -3.4519   25.7718 F   0  0  0  0  0  0
  -30.0088  -13.4142   20.4134 N   0  0  0  0  0  0
  -26.2924  -12.9362   20.3360 N   0  0  0  0  0  0
  -25.9271  -11.6499   20.5716 N   0  0  0  0  0  0
  -22.0402  -12.8285   22.0486 N   0  0  0  0  0  0
  -25.4169  -15.1845   20.4611 N   0  0  0  0  0  0
  -31.8758  -14.6703   20.1112 O   0  0  0  0  0  0
  -21.6641   -6.8871   21.4251 O   0  0  0  0  0  0
  -22.3566  -14.5518   20.6681 O   0  0  0  0  0  0
  -24.6189  -31.8651   23.2038 C   0  0  0  0  0  0
  -25.9083  -32.4803   23.8350 C   0  0  1  0  0  0
  -27.2267  -27.3816   20.1105 C   0  0  0  0  0  0
  -25.5924  -33.8597   24.2283 N   0  0  0  0  0  0
  -23.4095  -30.4832   21.5473 C   0  0  2  0  0  0
  -24.8560  -28.9400   20.1132 C   0  0  0  0  0  0
  -22.7453  -29.4619   22.4969 C   0  0  0  0  0  0
  -18.0304  -28.1376   22.8483 C   0  0  0  0  0  0
  -24.1490  -36.7298   23.2634 C   0  0  0  0  0  0
  -25.9423  -30.8130   21.3640 C   0  0  0  0  0  0
  -26.0198  -29.4434   20.7096 C   0  0  0  0  0  0
  -27.2130  -28.6746   20.6978 C   0  0  0  0  0  0
  -26.0474  -26.9058   19.5038 C   0  0  0  0  0  0
  -24.8689  -27.6755   19.5020 C   0  0  0  0  0  0
  -23.6205  -29.8120   20.1634 C   0  0  0  0  0  0
  -25.4122  -36.3103   24.0321 C   0  0  1  0  0  0
  -20.5893  -28.3667   23.1290 C   0  0  2  0  0  0
  -20.6814  -26.9417   22.5339 C   0  0  0  0  0  0
  -19.5740  -26.6342   21.5222 C   0  0  0  0  0  0
  -18.1949  -26.7896   22.1680 C   0  0  0  0  0  0
  -19.1558  -28.8834   23.2886 C   0  0  0  0  0  0
  -18.9485  -30.1411   23.8937 C   0  0  0  0  0  0
  -17.6496  -30.6569   24.0616 C   0  0  0  0  0  0
  -25.9047  -34.9467   23.5096 C   0  0  0  0  0  0
  -16.5369  -29.9112   23.6345 C   0  0  0  0  0  0
  -16.7290  -28.6530   23.0347 C   0  0  0  0  0  0
  -26.4490  -31.6605   25.0698 C   0  0  0  0  0  0
  -25.3742  -31.3735   26.1442 C   0  0  0  0  0  0
  -27.0320  -30.3039   24.6093 C   0  0  0  0  0  0
  -27.6058  -32.4337   25.7487 C   0  0  0  0  0  0
  -27.5584  -37.1802   24.8461 C   0  0  0  0  0  0
  -21.4169  -29.3061   22.3742 N   0  0  0  0  0  0
  -26.4295  -37.3793   23.9404 N   0  0  0  0  0  0
  -24.6753  -31.0684   22.0980 N   0  0  0  0  0  0
  -23.4213  -28.8147   23.3006 O   0  0  0  0  0  0
  -28.3610  -26.5856   20.0942 O   0  0  0  0  0  0
  -26.5596  -34.8929   22.4658 O   0  0  0  0  0  0
  -23.5375  -32.1399   23.7410 O   0  0  0  0  0  0
  -26.5537  -20.8540   19.9128 C   0  0  0  0  0  0
  -27.8537  -20.3393   20.1271 C   0  0  0  0  0  0
  -25.4890  -20.0075   19.5451 C   0  0  0  0  0  0
  -28.0211  -18.9132   19.9948 C   0  0  0  0  0  0
  -25.8112  -18.6711   19.2451 C   0  0  0  0  0  0
  -24.8004  -17.7041   18.6545 C   0  0  0  0  0  0
  -21.9063  -20.0911   21.0509 C   0  0  0  0  0  0
  -24.3376  -22.4651   17.9643 C   0  0  0  0  0  0
  -27.7735  -22.6263   22.3330 C   0  0  0  0  0  0
  -29.0033  -21.3355   20.4321 C   0  0  0  0  0  0
  -29.2682  -18.0802   20.4230 C   0  0  0  0  0  0
  -23.4373  -20.0479   20.9593 C   0  0  0  0  0  0
  -23.7999  -21.9820   19.3197 C   0  0  0  0  0  0
  -28.3784  -23.9803   20.1860 C   0  0  0  0  0  0
  -29.0756  -16.5003   20.4058 C   0  0  0  0  0  0
  -28.3188  -25.3790   20.9104 C   0  0  0  0  0  0
  -24.0256  -20.4750   19.5939 C   0  0  0  0  0  0
  -28.7096  -22.7413   21.1151 C   0  0  1  0  0  0
  -27.0303  -18.1509   19.4822 N   0  0  0  0  0  0
  -30.1341  -15.6753   21.0493 N   0  0  0  0  0  0
  -31.4555  -12.4468   19.1612 H   0  0  0  0  0  0
  -30.3044  -11.3851   19.9241 H   0  0  0  0  0  0
  -29.7534  -11.7327   17.4880 H   0  0  0  0  0  0
  -29.6525  -13.4605   17.7465 H   0  0  0  0  0  0
  -27.8442  -11.2937   18.8669 H   0  0  0  0  0  0
  -27.3624  -12.5738   17.7937 H   0  0  0  0  0  0
  -27.6438  -14.2502   19.4989 H   0  0  0  0  0  0
  -28.6843  -12.1418   21.4557 H   0  0  0  0  0  0
  -28.4390  -13.8351   21.7821 H   0  0  0  0  0  0
  -25.2699   -9.5728   22.4803 H   0  0  0  0  0  0
  -23.9988   -7.4641   22.7457 H   0  0  0  0  0  0
  -21.0830   -8.8727   19.8948 H   0  0  0  0  0  0
  -22.3616  -10.9669   19.6188 H   0  0  0  0  0  0
  -21.1978   -7.6151   23.9732 H   0  0  0  0  0  0
  -21.1482   -6.0499   25.9084 H   0  0  0  0  0  0
  -22.0596   -2.7623   23.2820 H   0  0  0  0  0  0
  -22.4032  -12.0112   22.5161 H   0  0  0  0  0  0
  -21.1006  -13.1354   22.2595 H   0  0  0  0  0  0
  -24.6312  -15.8092   20.5986 H   0  0  0  0  0  0
  -26.2555  -15.6668   20.1611 H   0  0  0  0  0  0
  -26.7144  -32.5508   23.1114 H   0  0  0  0  0  0
  -25.0141  -33.9780   25.0473 H   0  0  0  0  0  0
  -22.6998  -31.3011   21.4050 H   0  0  0  0  0  0
  -23.3760  -35.9619   23.3305 H   0  0  0  0  0  0
  -24.3567  -36.8910   22.2042 H   0  0  0  0  0  0
  -23.7227  -37.6499   23.6644 H   0  0  0  0  0  0
  -26.0568  -31.5788   20.5956 H   0  0  0  0  0  0
  -26.8315  -30.8713   21.9808 H   0  0  0  0  0  0
  -28.1146  -29.0585   21.1551 H   0  0  0  0  0  0
  -26.0424  -25.9342   19.0324 H   0  0  0  0  0  0
  -23.9761  -27.2849   19.0341 H   0  0  0  0  0  0
  -23.7296  -30.5847   19.4021 H   0  0  0  0  0  0
  -22.7445  -29.2318   19.8694 H   0  0  0  0  0  0
  -25.1308  -36.1958   25.0806 H   0  0  0  0  0  0
  -20.9994  -28.3221   24.1421 H   0  0  0  0  0  0
  -20.5815  -26.2257   23.3520 H   0  0  0  0  0  0
  -21.6667  -26.7522   22.1031 H   0  0  0  0  0  0
  -19.6897  -25.6231   21.1310 H   0  0  0  0  0  0
  -19.6645  -27.3129   20.6716 H   0  0  0  0  0  0
  -17.4149  -26.6534   21.4163 H   0  0  0  0  0  0
  -18.0431  -26.0098   22.9169 H   0  0  0  0  0  0
  -19.7965  -30.7190   24.2365 H   0  0  0  0  0  0
  -17.5064  -31.6220   24.5282 H   0  0  0  0  0  0
  -15.5379  -30.3019   23.7669 H   0  0  0  0  0  0
  -15.8685  -28.0862   22.7067 H   0  0  0  0  0  0
  -24.5901  -30.7111   25.7764 H   0  0  0  0  0  0
  -24.8960  -32.2901   26.4883 H   0  0  0  0  0  0
  -25.8081  -30.8885   27.0191 H   0  0  0  0  0  0
  -26.2852  -29.6813   24.1139 H   0  0  0  0  0  0
  -27.4078  -29.7274   25.4560 H   0  0  0  0  0  0
  -27.8703  -30.4359   23.9250 H   0  0  0  0  0  0
  -27.2658  -33.3616   26.2088 H   0  0  0  0  0  0
  -28.3861  -32.6920   25.0327 H   0  0  0  0  0  0
  -28.0729  -31.8444   26.5381 H   0  0  0  0  0  0
  -28.2607  -38.0098   24.7534 H   0  0  0  0  0  0
  -28.1076  -36.2629   24.6274 H   0  0  0  0  0  0
  -27.2293  -37.1456   25.8861 H   0  0  0  0  0  0
  -20.9318  -29.8857   21.7033 H   0  0  0  0  0  0
  -26.0183  -38.2862   24.1423 H   0  0  0  0  0  0
  -26.3600  -21.9022   20.0498 H   0  0  0  0  0  0
  -24.2892  -18.1420   17.7976 H   0  0  0  0  0  0
  -24.0534  -17.4177   19.3936 H   0  0  0  0  0  0
  -25.2938  -16.7999   18.2967 H   0  0  0  0  0  0
  -21.5207  -21.1058   20.9739 H   0  0  0  0  0  0
  -21.5732  -19.6856   22.0066 H   0  0  0  0  0  0
  -21.4469  -19.4943   20.2630 H   0  0  0  0  0  0
  -24.0436  -23.5003   17.7866 H   0  0  0  0  0  0
  -23.9357  -21.8657   17.1448 H   0  0  0  0  0  0
  -25.4258  -22.4230   17.9181 H   0  0  0  0  0  0
  -28.0374  -21.7597   22.9389 H   0  0  0  0  0  0
  -26.7251  -22.5352   22.0604 H   0  0  0  0  0  0
  -27.8580  -23.5002   22.9803 H   0  0  0  0  0  0
  -29.5601  -21.4980   19.5087 H   0  0  0  0  0  0
  -29.6967  -20.8055   21.0862 H   0  0  0  0  0  0
  -29.5286  -18.3940   21.4358 H   0  0  0  0  0  0
  -30.1122  -18.3651   19.7942 H   0  0  0  0  0  0
  -23.7267  -19.0166   21.1695 H   0  0  0  0  0  0
  -23.8816  -20.6385   21.7623 H   0  0  0  0  0  0
  -22.7275  -22.1853   19.3329 H   0  0  0  0  0  0
  -24.2180  -22.5847   20.1270 H   0  0  0  0  0  0
  -29.1421  -24.0351   19.4100 H   0  0  0  0  0  0
  -27.4387  -23.8161   19.6589 H   0  0  0  0  0  0
  -28.9483  -16.1812   19.3707 H   0  0  0  0  0  0
  -28.1489  -16.2521   20.9267 H   0  0  0  0  0  0
  -29.1775  -25.4559   21.5768 H   0  0  0  0  0  0
  -27.4481  -25.4018   21.5658 H   0  0  0  0  0  0
  -23.4718  -19.9447   18.8193 H   0  0  0  0  0  0
  -29.6798  -23.0100   21.5398 H   0  0  0  0  0  0
  -30.8393  -16.2699   21.4605 H   0  0  0  0  0  0
  1 25  1  0  0  0
  1 30  2  0  0  0
  1 90  1  0  0  0
  2  3  1  0  0  0
  2 25  1  0  0  0
  2 91  1  0  0  0
  2 92  1  0  0  0
  3  4  1  0  0  0
  3 93  1  0  0  0
  3 94  1  0  0  0
  4  5  1  0  0  0
  4 95  1  0  0  0
  4 96  1  0  0  0
  5  6  1  0  0  0
  5 26  1  0  0  0
  5 97  1  0  0  0
  6 25  1  0  0  0
  6 98  1  0  0  0
  6 99  1  0  0  0
  7  8  2  0  0  0
  7 26  1  0  0  0
  7 29  1  0  0  0
  8  9  1  0  0  0
  8 22  1  0  0  0
  9 10  1  0  0  0
  9 27  2  0  0  0
 10 11  2  0  0  0
 10 15  1  0  0  0
 11 12  1  0  0  0
 11100  1  0  0  0
 12 13  2  0  0  0
 12101  1  0  0  0
 13 14  1  0  0  0
 13 31  1  0  0  0
 14 15  2  0  0  0
 14102  1  0  0  0
 15103  1  0  0  0
 16 17  2  0  0  0
 16 21  1  0  0  0
 16 31  1  0  0  0
 17 18  1  0  0  0
 17104  1  0  0  0
 18 19  2  0  0  0
 18105  1  0  0  0
 19 20  1  0  0  0
 19 24  1  0  0  0
 20 21  2  0  0  0
 20106  1  0  0  0
 21 23  1  0  0  0
 22 28  1  0  0  0
 22 32  2  0  0  0
 26 27  1  0  0  0
 28107  1  0  0  0
 28108  1  0  0  0
 29109  1  0  0  0
 29110  1  0  0  0
 33 34  1  0  0  0
 33 66  1  0  0  0
 33 70  2  0  0  0
 34 36  1  0  0  0
 34 59  1  0  0  0
 34111  1  0  0  0
 35 44  2  0  0  0
 35 45  1  0  0  0
 35 68  1  0  0  0
 36 56  1  0  0  0
 36112  1  0  0  0
 37 39  1  0  0  0
 37 47  1  0  0  0
 37 66  1  0  0  0
 37113  1  0  0  0
 38 43  2  0  0  0
 38 46  1  0  0  0
 38 47  1  0  0  0
 39 64  1  0  0  0
 39 67  2  0  0  0
 40 52  1  0  0  0
 40 53  2  0  0  0
 40 58  1  0  0  0
 41114  1  0  0  0
 41115  1  0  0  0
 41116  1  0  0  0
 41 48  1  0  0  0
 42 43  1  0  0  0
 42 66  1  0  0  0
 42117  1  0  0  0
 42118  1  0  0  0
 43 44  1  0  0  0
 44119  1  0  0  0
 45 46  2  0  0  0
 45120  1  0  0  0
 46121  1  0  0  0
 47122  1  0  0  0
 47123  1  0  0  0
 48 56  1  0  0  0
 48 65  1  0  0  0
 48124  1  0  0  0
 49 50  1  0  0  0
 49 53  1  0  0  0
 49 64  1  0  0  0
 49125  1  0  0  0
 50 51  1  0  0  0
 50126  1  0  0  0
 50127  1  0  0  0
 51 52  1  0  0  0
 51128  1  0  0  0
 51129  1  0  0  0
 52130  1  0  0  0
 52131  1  0  0  0
 53 54  1  0  0  0
 54 55  2  0  0  0
 54132  1  0  0  0
 55 57  1  0  0  0
 55133  1  0  0  0
 56 69  2  0  0  0
 57 58  2  0  0  0
 57134  1  0  0  0
 58135  1  0  0  0
 59 60  1  0  0  0
 59 61  1  0  0  0
 59 62  1  0  0  0
 60136  1  0  0  0
 60137  1  0  0  0
 60138  1  0  0  0
 61139  1  0  0  0
 61140  1  0  0  0
 61141  1  0  0  0
 62142  1  0  0  0
 62143  1  0  0  0
 62144  1  0  0  0
 63 65  1  0  0  0
 63145  1  0  0  0
 63146  1  0  0  0
 63147  1  0  0  0
 64148  1  0  0  0
 65149  1  0  0  0
 68 86  1  0  0  0
 71 72  2  0  0  0
 71 73  1  0  0  0
 71150  1  0  0  0
 72 74  1  0  0  0
 72 80  1  0  0  0
 73 75  2  0  0  0
 73 87  1  0  0  0
 74 81  1  0  0  0
 74 89  2  0  0  0
 75 76  1  0  0  0
 75 89  1  0  0  0
 76151  1  0  0  0
 76152  1  0  0  0
 76153  1  0  0  0
 77 82  1  0  0  0
 77154  1  0  0  0
 77155  1  0  0  0
 77156  1  0  0  0
 78 83  1  0  0  0
 78157  1  0  0  0
 78158  1  0  0  0
 78159  1  0  0  0
 79160  1  0  0  0
 79161  1  0  0  0
 79162  1  0  0  0
 79 88  1  0  0  0
 80 88  1  0  0  0
 80163  1  0  0  0
 80164  1  0  0  0
 81 85  1  0  0  0
 81165  1  0  0  0
 81166  1  0  0  0
 82167  1  0  0  0
 82168  1  0  0  0
 82 87  1  0  0  0
 83 87  1  0  0  0
 83169  1  0  0  0
 83170  1  0  0  0
 84 86  1  0  0  0
 84 88  1  0  0  0
 84171  1  0  0  0
 84172  1  0  0  0
 85 90  1  0  0  0
 85173  1  0  0  0
 85174  1  0  0  0
 86175  1  0  0  0
 86176  1  0  0  0
 87177  1  0  0  0
 88178  1  0  0  0
 90179  1  0  0  0
M  ISO  4   1 100  68 101  86 101  90 100
M  END
> <chiral flag>
0

> <version>
0

> <s_m_source_file>
/data/baiqing/PycharmProjects/Reinvent-master-3.2/result/LINK_invent/BTK/process_docking_weight1_custom_sum_contain_oxygen_bond_distance_aromatic_linkinvent_7_9_3/rearranged_h_0094.sdf

> <i_m_source_file_index>
43

> <r_mmod_Potential_Energy-OPLS-2005>
-39.6959533691406

> <r_mmod_Stretch_Energy-OPLS-2005>
63.7301025390625

> <r_mmod_Bend_Energy-OPLS-2005>
152.051193237305

> <r_mmod_Torsional_Energy-OPLS-2005>
317.434997558594

> <r_mmod_Improper_Torsional_Energy-OPLS-2005>
6.07134294509888

> <r_mmod_Van_der_Waal_Energy-OPLS-2005>
137.680572509766

> <r_mmod_Electrostatic_Energy-OPLS-2005>
-554.829956054688

> <r_mmod_Solvation_Energy-OPLS-2005>
-193.798110961914

> <b_mmod_Minimization_Converged-OPLS-2005>
0

> <r_mmod_RMS_Derivative-OPLS-2005>
3.92575216293335

$$$$
43
                    3D
 Structure written by MMmdl.
166174  0  0  1  0            999 V2000
  -30.7800  -14.4735   20.6030 C   0  0  0  0  0  0
  -30.4049  -12.3362   19.4165 C   0  0  0  0  0  0
  -29.4846  -12.5452   18.2018 C   0  0  0  0  0  0
  -28.0112  -12.3969   18.6185 C   0  0  0  0  0  0
  -27.6618  -13.2306   19.8821 C   0  0  2  0  0  0
  -28.7125  -13.0514   21.0032 C   0  0  0  0  0  0
  -25.2575  -13.8218   20.5710 C   0  0  0  0  0  0
  -24.1850  -13.0450   20.9181 C   0  0  0  0  0  0
  -24.6432  -11.6928   20.8734 C   0  0  0  0  0  0
  -23.9099  -10.4309   21.0396 C   0  0  0  0  0  0
  -24.3648   -9.4224   21.9179 C   0  0  0  0  0  0
  -23.6316   -8.2261   22.0747 C   0  0  0  0  0  0
  -22.4297   -8.0308   21.3544 C   0  0  0  0  0  0
  -21.9942   -9.0271   20.4643 C   0  0  0  0  0  0
  -22.7264  -10.2145   20.3041 C   0  0  0  0  0  0
  -21.6868   -6.0746   22.5271 C   0  0  0  0  0  0
  -21.4015   -6.5631   23.8208 C   0  0  0  0  0  0
  -21.3665   -5.6783   24.9174 C   0  0  0  0  0  0
  -21.6059   -4.3051   24.7223 C   0  0  0  0  0  0
  -21.8821   -3.8137   23.4346 C   0  0  0  0  0  0
  -21.9200   -4.6965   22.3404 C   0  0  0  0  0  0
  -22.7872  -13.5221   21.1848 C   0  0  0  0  0  0
  -22.1672   -4.2143   21.0986 F   0  0  0  0  0  0
  -21.5639   -3.4537   25.7743 F   0  0  0  0  0  0
  -30.0429  -13.3355   20.4404 N   0  0  0  0  0  0
  -26.3061  -12.9437   20.3446 N   0  0  0  0  0  0
  -25.9378  -11.6572   20.5790 N   0  0  0  0  0  0
  -22.0528  -12.8195   22.0404 N   0  0  0  0  0  0
  -25.4226  -15.1942   20.4149 N   0  0  0  0  0  0
  -31.8549  -14.6425   20.0310 O   0  0  0  0  0  0
  -21.6658   -6.8900   21.4241 O   0  0  0  0  0  0
  -22.3568  -14.5534   20.6726 O   0  0  0  0  0  0
  -24.6158  -31.8643   23.2046 C   0  0  0  0  0  0
  -25.9049  -32.4795   23.8354 C   0  0  1  0  0  0
  -27.2376  -27.3990   20.1277 C   0  0  0  0  0  0
  -25.5900  -33.8594   24.2295 N   0  0  0  0  0  0
  -23.4078  -30.4865   21.5403 C   0  0  2  0  0  0
  -24.8620  -28.9457   20.1145 C   0  0  0  0  0  0
  -22.7434  -29.4635   22.4903 C   0  0  0  0  0  0
  -18.0279  -28.1405   22.8459 C   0  0  0  0  0  0
  -24.1502  -36.7320   23.2638 C   0  0  0  0  0  0
  -25.9384  -30.8275   21.3589 C   0  0  0  0  0  0
  -26.0216  -29.4552   20.7133 C   0  0  0  0  0  0
  -27.2166  -28.6921   20.7109 C   0  0  0  0  0  0
  -26.0650  -26.9130   19.5168 C   0  0  0  0  0  0
  -24.8809  -27.6765   19.5087 C   0  0  0  0  0  0
  -23.6263  -29.8171   20.1555 C   0  0  0  0  0  0
  -25.4119  -36.3093   24.0331 C   0  0  1  0  0  0
  -20.5868  -28.3692   23.1285 C   0  0  2  0  0  0
  -20.6771  -26.9417   22.5409 C   0  0  0  0  0  0
  -19.5760  -26.6397   21.5203 C   0  0  0  0  0  0
  -18.1933  -26.7946   22.1605 C   0  0  0  0  0  0
  -19.1530  -28.8863   23.2865 C   0  0  0  0  0  0
  -18.9469  -30.1457   23.8893 C   0  0  0  0  0  0
  -17.6477  -30.6598   24.0568 C   0  0  0  0  0  0
  -25.9051  -34.9462   23.5115 C   0  0  0  0  0  0
  -16.5358  -29.9108   23.6326 C   0  0  0  0  0  0
  -16.7267  -28.6532   23.0317 C   0  0  0  0  0  0
  -26.4489  -31.6557   25.0671 C   0  0  0  0  0  0
  -25.3753  -31.3634   26.1408 C   0  0  0  0  0  0
  -27.0314  -30.3003   24.6013 C   0  0  0  0  0  0
  -27.6072  -32.4241   25.7454 C   0  0  0  0  0  0
  -27.5581  -37.1802   24.8462 C   0  0  0  0  0  0
  -21.4156  -29.3052   22.3684 N   0  0  0  0  0  0
  -26.4294  -37.3778   23.9415 N   0  0  0  0  0  0
  -24.6724  -31.0740   22.0944 N   0  0  0  0  0  0
  -23.4201  -28.8183   23.2961 O   0  0  0  0  0  0
  -28.3753  -26.6112   20.1266 O   0  0  0  0  0  0
  -26.5598  -34.8916   22.4672 O   0  0  0  0  0  0
  -23.5337  -32.1399   23.7426 O   0  0  0  0  0  0
  -29.8506  -20.4847   21.0532 C   0  0  0  0  0  0
  -28.9277  -21.5575   21.1379 C   0  0  0  0  0  0
  -29.3290  -19.1701   20.8896 C   0  0  0  0  0  0
  -27.2145  -20.0497   20.9570 C   0  0  0  0  0  0
  -26.1340  -20.0968   23.7782 C   0  0  0  0  0  0
  -30.7085  -17.7862   19.2878 C   0  0  0  0  0  0
  -29.2829  -23.0258   21.4497 C   0  0  0  0  0  0
  -25.7442  -19.7843   21.2093 C   0  0  0  0  0  0
  -25.4460  -19.3030   22.6493 C   0  0  0  0  0  0
  -28.8375  -24.1072   20.4011 C   0  0  0  0  0  0
  -29.5094  -16.5656   21.2252 C   0  0  0  0  0  0
  -28.3449  -25.4627   21.0135 C   0  0  0  0  0  0
  -30.2153  -17.8947   20.7398 C   0  0  2  0  0  0
  -27.6131  -21.3046   21.1065 N   0  0  0  0  0  0
  -27.9967  -18.9904   20.7932 N   0  0  0  0  0  0
  -30.3810  -15.3922   21.4975 N   0  0  0  0  0  0
  -31.2952  -18.0550   21.5127 F   0  0  0  0  0  0
  -31.4495  -12.4020   19.1096 H   0  0  0  0  0  0
  -30.2799  -11.3276   19.8165 H   0  0  0  0  0  0
  -29.7247  -11.8365   17.4072 H   0  0  0  0  0  0
  -29.6516  -13.5389   17.7824 H   0  0  0  0  0  0
  -27.8176  -11.3387   18.7951 H   0  0  0  0  0  0
  -27.3580  -12.6894   17.7926 H   0  0  0  0  0  0
  -27.6935  -14.2771   19.5839 H   0  0  0  0  0  0
  -28.6880  -12.0311   21.3874 H   0  0  0  0  0  0
  -28.4795  -13.6971   21.8517 H   0  0  0  0  0  0
  -25.2801   -9.5691   22.4745 H   0  0  0  0  0  0
  -24.0035   -7.4642   22.7447 H   0  0  0  0  0  0
  -21.0883   -8.8779   19.8942 H   0  0  0  0  0  0
  -22.3730  -10.9681   19.6144 H   0  0  0  0  0  0
  -21.1988   -7.6129   23.9711 H   0  0  0  0  0  0
  -21.1494   -6.0509   25.9073 H   0  0  0  0  0  0
  -22.0596   -2.7600   23.2841 H   0  0  0  0  0  0
  -22.4174  -11.9841   22.4746 H   0  0  0  0  0  0
  -21.1139  -13.1175   22.2610 H   0  0  0  0  0  0
  -24.6480  -15.8395   20.5196 H   0  0  0  0  0  0
  -26.2840  -15.6492   20.1401 H   0  0  0  0  0  0
  -26.7106  -32.5528   23.1106 H   0  0  0  0  0  0
  -25.0025  -33.9758   25.0416 H   0  0  0  0  0  0
  -22.6941  -31.2994   21.3914 H   0  0  0  0  0  0
  -23.3746  -35.9663   23.3292 H   0  0  0  0  0  0
  -24.3595  -36.8950   22.2052 H   0  0  0  0  0  0
  -23.7269  -37.6529   23.6662 H   0  0  0  0  0  0
  -26.0407  -31.5869   20.5835 H   0  0  0  0  0  0
  -26.8312  -30.8937   21.9688 H   0  0  0  0  0  0
  -28.1123  -29.0816   21.1746 H   0  0  0  0  0  0
  -26.0659  -25.9334   19.0563 H   0  0  0  0  0  0
  -23.9910  -27.2798   19.0403 H   0  0  0  0  0  0
  -23.7464  -30.5913   19.3968 H   0  0  0  0  0  0
  -22.7518  -29.2391   19.8492 H   0  0  0  0  0  0
  -25.1285  -36.1941   25.0810 H   0  0  0  0  0  0
  -20.9948  -28.3283   24.1416 H   0  0  0  0  0  0
  -20.5677  -26.2306   23.3604 H   0  0  0  0  0  0
  -21.6647  -26.7464   22.1203 H   0  0  0  0  0  0
  -19.6943  -25.6309   21.1233 H   0  0  0  0  0  0
  -19.6723  -27.3202   20.6729 H   0  0  0  0  0  0
  -17.4199  -26.6648   21.4018 H   0  0  0  0  0  0
  -18.0364  -26.0100   22.9026 H   0  0  0  0  0  0
  -19.7946  -30.7262   24.2263 H   0  0  0  0  0  0
  -17.5038  -31.6283   24.5179 H   0  0  0  0  0  0
  -15.5362  -30.3016   23.7679 H   0  0  0  0  0  0
  -15.8656  -28.0887   22.7001 H   0  0  0  0  0  0
  -24.5975  -30.6926   25.7745 H   0  0  0  0  0  0
  -24.8890  -32.2772   26.4834 H   0  0  0  0  0  0
  -25.8129  -30.8834   27.0174 H   0  0  0  0  0  0
  -26.2846  -29.6748   24.1120 H   0  0  0  0  0  0
  -27.4164  -29.7238   25.4439 H   0  0  0  0  0  0
  -27.8642  -30.4329   23.9100 H   0  0  0  0  0  0
  -27.2721  -33.3554   26.2029 H   0  0  0  0  0  0
  -28.3916  -32.6760   25.0304 H   0  0  0  0  0  0
  -28.0688  -31.8334   26.5368 H   0  0  0  0  0  0
  -28.2573  -38.0121   24.7508 H   0  0  0  0  0  0
  -28.1088  -36.2646   24.6275 H   0  0  0  0  0  0
  -27.2291  -37.1438   25.8859 H   0  0  0  0  0  0
  -20.9322  -29.8788   21.6917 H   0  0  0  0  0  0
  -26.0176  -38.2850   24.1413 H   0  0  0  0  0  0
  -30.9174  -20.6499   21.1296 H   0  0  0  0  0  0
  -25.7561  -19.7991   24.7565 H   0  0  0  0  0  0
  -25.9759  -21.1694   23.6727 H   0  0  0  0  0  0
  -27.2116  -19.9187   23.7892 H   0  0  0  0  0  0
  -29.8681  -17.6536   18.6081 H   0  0  0  0  0  0
  -31.3981  -16.9589   19.1419 H   0  0  0  0  0  0
  -31.2285  -18.6945   18.9836 H   0  0  0  0  0  0
  -30.3534  -23.1110   21.6473 H   0  0  0  0  0  0
  -28.8026  -23.2511   22.4044 H   0  0  0  0  0  0
  -25.3838  -19.0550   20.4837 H   0  0  0  0  0  0
  -25.1914  -20.7034   21.0129 H   0  0  0  0  0  0
  -24.3669  -19.3082   22.8018 H   0  0  0  0  0  0
  -25.7580  -18.2628   22.7358 H   0  0  0  0  0  0
  -28.0210  -23.7050   19.8019 H   0  0  0  0  0  0
  -29.6530  -24.2817   19.7002 H   0  0  0  0  0  0
  -28.7235  -16.2938   20.5217 H   0  0  0  0  0  0
  -29.0059  -16.7765   22.1698 H   0  0  0  0  0  0
  -28.9665  -25.7157   21.8715 H   0  0  0  0  0  0
  -27.3434  -25.3101   21.4217 H   0  0  0  0  0  0
  -31.2000  -15.7420   21.9751 H   0  0  0  0  0  0
  1 25  1  0  0  0
  1 30  2  0  0  0
  1 86  1  0  0  0
  2  3  1  0  0  0
  2 25  1  0  0  0
  2 88  1  0  0  0
  2 89  1  0  0  0
  3  4  1  0  0  0
  3 90  1  0  0  0
  3 91  1  0  0  0
  4  5  1  0  0  0
  4 92  1  0  0  0
  4 93  1  0  0  0
  5  6  1  0  0  0
  5 26  1  0  0  0
  5 94  1  0  0  0
  6 25  1  0  0  0
  6 95  1  0  0  0
  6 96  1  0  0  0
  7  8  2  0  0  0
  7 26  1  0  0  0
  7 29  1  0  0  0
  8  9  1  0  0  0
  8 22  1  0  0  0
  9 10  1  0  0  0
  9 27  2  0  0  0
 10 11  2  0  0  0
 10 15  1  0  0  0
 11 12  1  0  0  0
 11 97  1  0  0  0
 12 13  2  0  0  0
 12 98  1  0  0  0
 13 14  1  0  0  0
 13 31  1  0  0  0
 14 15  2  0  0  0
 14 99  1  0  0  0
 15100  1  0  0  0
 16 17  2  0  0  0
 16 21  1  0  0  0
 16 31  1  0  0  0
 17 18  1  0  0  0
 17101  1  0  0  0
 18 19  2  0  0  0
 18102  1  0  0  0
 19 20  1  0  0  0
 19 24  1  0  0  0
 20 21  2  0  0  0
 20103  1  0  0  0
 21 23  1  0  0  0
 22 28  1  0  0  0
 22 32  2  0  0  0
 26 27  1  0  0  0
 28104  1  0  0  0
 28105  1  0  0  0
 29106  1  0  0  0
 29107  1  0  0  0
 33 34  1  0  0  0
 33 66  1  0  0  0
 33 70  2  0  0  0
 34 36  1  0  0  0
 34 59  1  0  0  0
 34108  1  0  0  0
 35 44  2  0  0  0
 35 45  1  0  0  0
 35 68  1  0  0  0
 36 56  1  0  0  0
 36109  1  0  0  0
 37 39  1  0  0  0
 37 47  1  0  0  0
 37 66  1  0  0  0
 37110  1  0  0  0
 38 43  2  0  0  0
 38 46  1  0  0  0
 38 47  1  0  0  0
 39 64  1  0  0  0
 39 67  2  0  0  0
 40 52  1  0  0  0
 40 53  2  0  0  0
 40 58  1  0  0  0
 41111  1  0  0  0
 41112  1  0  0  0
 41113  1  0  0  0
 41 48  1  0  0  0
 42 43  1  0  0  0
 42 66  1  0  0  0
 42114  1  0  0  0
 42115  1  0  0  0
 43 44  1  0  0  0
 44116  1  0  0  0
 45 46  2  0  0  0
 45117  1  0  0  0
 46118  1  0  0  0
 47119  1  0  0  0
 47120  1  0  0  0
 48 56  1  0  0  0
 48 65  1  0  0  0
 48121  1  0  0  0
 49 50  1  0  0  0
 49 53  1  0  0  0
 49 64  1  0  0  0
 49122  1  0  0  0
 50 51  1  0  0  0
 50123  1  0  0  0
 50124  1  0  0  0
 51 52  1  0  0  0
 51125  1  0  0  0
 51126  1  0  0  0
 52127  1  0  0  0
 52128  1  0  0  0
 53 54  1  0  0  0
 54 55  2  0  0  0
 54129  1  0  0  0
 55 57  1  0  0  0
 55130  1  0  0  0
 56 69  2  0  0  0
 57 58  2  0  0  0
 57131  1  0  0  0
 58132  1  0  0  0
 59 60  1  0  0  0
 59 61  1  0  0  0
 59 62  1  0  0  0
 60133  1  0  0  0
 60134  1  0  0  0
 60135  1  0  0  0
 61136  1  0  0  0
 61137  1  0  0  0
 61138  1  0  0  0
 62139  1  0  0  0
 62140  1  0  0  0
 62141  1  0  0  0
 63 65  1  0  0  0
 63142  1  0  0  0
 63143  1  0  0  0
 63144  1  0  0  0
 64145  1  0  0  0
 65146  1  0  0  0
 68 82  1  0  0  0
 71 72  2  0  0  0
 71 73  1  0  0  0
 71147  1  0  0  0
 72 77  1  0  0  0
 72 84  1  0  0  0
 73 83  1  0  0  0
 73 85  2  0  0  0
 74 78  1  0  0  0
 74 84  2  0  0  0
 74 85  1  0  0  0
 75 79  1  0  0  0
 75148  1  0  0  0
 75149  1  0  0  0
 75150  1  0  0  0
 76151  1  0  0  0
 76152  1  0  0  0
 76153  1  0  0  0
 76 83  1  0  0  0
 77 80  1  0  0  0
 77154  1  0  0  0
 77155  1  0  0  0
 78 79  1  0  0  0
 78156  1  0  0  0
 78157  1  0  0  0
 79158  1  0  0  0
 79159  1  0  0  0
 80 82  1  0  0  0
 80160  1  0  0  0
 80161  1  0  0  0
 81 83  1  0  0  0
 81 86  1  0  0  0
 81162  1  0  0  0
 81163  1  0  0  0
 82164  1  0  0  0
 82165  1  0  0  0
 83 87  1  0  0  0
 86166  1  0  0  0
M  ISO  4   1 100  68 101  82 101  86 100
M  END
> <chiral flag>
0

> <version>
0

> <s_m_source_file>
/data/baiqing/PycharmProjects/Reinvent-master-3.2/result/LINK_invent/BTK/process_docking_weight1_custom_sum_contain_oxygen_bond_distance_aromatic_linkinvent_7_9_3/rearranged_h_0094.sdf

> <i_m_source_file_index>
44

> <r_mmod_Potential_Energy-OPLS-2005>
-407.173248291016

> <r_mmod_Stretch_Energy-OPLS-2005>
50.3009757995605

> <r_mmod_Bend_Energy-OPLS-2005>
127.840599060059

> <r_mmod_Torsional_Energy-OPLS-2005>
283.729095458984

> <r_mmod_Improper_Torsional_Energy-OPLS-2005>
9.21059608459473

> <r_mmod_Van_der_Waal_Energy-OPLS-2005>
141.720336914062

> <r_mmod_Electrostatic_Energy-OPLS-2005>
-833.42236328125

> <r_mmod_Solvation_Energy-OPLS-2005>
-203.661193847656

> <b_mmod_Minimization_Converged-OPLS-2005>
0

> <r_mmod_RMS_Derivative-OPLS-2005>
3.36763548851013

$$$$
44
                    3D
 Structure written by MMmdl.
175183  0  0  1  0            999 V2000
  -29.7282  -16.6010   20.4295 C   0  0  0  0  0  0
  -30.2620  -13.8459   19.6136 C   0  0  0  0  0  0
  -29.5608  -12.9825   18.4764 C   0  0  0  0  0  0
  -28.2320  -12.3795   18.9358 C   0  0  0  0  0  0
  -27.5527  -13.4047   19.8528 C   0  0  2  0  0  0
  -28.4580  -14.0672   20.9447 C   0  0  0  0  0  0
  -25.2013  -13.8393   20.5939 C   0  0  0  0  0  0
  -24.1532  -13.0455   20.9329 C   0  0  0  0  0  0
  -24.6367  -11.6986   20.8768 C   0  0  0  0  0  0
  -23.9130  -10.4308   21.0354 C   0  0  0  0  0  0
  -24.3655   -9.4236   21.9163 C   0  0  0  0  0  0
  -23.6320   -8.2273   22.0753 C   0  0  0  0  0  0
  -22.4297   -8.0289   21.3552 C   0  0  0  0  0  0
  -21.9943   -9.0257   20.4644 C   0  0  0  0  0  0
  -22.7277  -10.2129   20.3044 C   0  0  0  0  0  0
  -21.6868   -6.0743   22.5287 C   0  0  0  0  0  0
  -21.4012   -6.5649   23.8216 C   0  0  0  0  0  0
  -21.3648   -5.6798   24.9174 C   0  0  0  0  0  0
  -21.6057   -4.3067   24.7223 C   0  0  0  0  0  0
  -21.8818   -3.8160   23.4344 C   0  0  0  0  0  0
  -21.9201   -4.6974   22.3402 C   0  0  0  0  0  0
  -22.7535  -13.5114   21.1928 C   0  0  0  0  0  0
  -22.1676   -4.2171   21.0975 F   0  0  0  0  0  0
  -21.5616   -3.4541   25.7725 F   0  0  0  0  0  0
  -29.4137  -15.0453   20.2784 N   0  0  0  0  0  0
  -26.2571  -12.9907   20.3499 N   0  0  0  0  0  0
  -25.9357  -11.6867   20.5734 N   0  0  0  0  0  0
  -22.0234  -12.8108   22.0477 N   0  0  0  0  0  0
  -25.3483  -15.2158   20.4301 N   0  0  0  0  0  0
  -30.9932  -16.4399   20.3238 O   0  0  0  0  0  0
  -21.6664   -6.8887   21.4252 O   0  0  0  0  0  0
  -22.3207  -14.5419   20.6744 O   0  0  0  0  0  0
  -24.6950  -31.6868   23.1184 C   0  0  0  0  0  0
  -25.9433  -32.3801   23.7795 C   0  0  1  0  0  0
  -27.8697  -26.7289   19.5917 C   0  0  0  0  0  0
  -25.5787  -33.7797   24.1356 N   0  0  0  0  0  0
  -23.5470  -30.1373   21.5423 C   0  0  2  0  0  0
  -24.8836  -27.9350   20.5038 C   0  0  0  0  0  0
  -22.7473  -29.3529   22.5756 C   0  0  0  0  0  0
  -18.0135  -28.1397   22.8452 C   0  0  0  0  0  0
  -24.1511  -36.6881   23.2665 C   0  0  0  0  0  0
  -26.0797  -30.0082   21.7144 C   0  0  0  0  0  0
  -26.1225  -28.4493   21.2081 C   0  0  0  0  0  0
  -27.5005  -27.7143   20.9064 C   0  0  0  0  0  0
  -26.4015  -26.1556   18.6774 C   0  0  0  0  0  0
  -24.9739  -26.7375   19.4324 C   0  0  0  0  0  0
  -23.7849  -29.1014   20.3717 C   0  0  0  0  0  0
  -25.4192  -36.2554   24.0191 C   0  0  1  0  0  0
  -20.5634  -28.3502   23.1489 C   0  0  2  0  0  0
  -20.6523  -26.9241   22.5598 C   0  0  0  0  0  0
  -19.5607  -26.6338   21.5264 C   0  0  0  0  0  0
  -18.1754  -26.7948   22.1597 C   0  0  0  0  0  0
  -19.1384  -28.8835   23.2879 C   0  0  0  0  0  0
  -18.9347  -30.1442   23.8888 C   0  0  0  0  0  0
  -17.6364  -30.6603   24.0541 C   0  0  0  0  0  0
  -25.9192  -34.8950   23.4716 C   0  0  0  0  0  0
  -16.5251  -29.9120   23.6319 C   0  0  0  0  0  0
  -16.7128  -28.6548   23.0314 C   0  0  0  0  0  0
  -26.4615  -31.6600   25.0971 C   0  0  0  0  0  0
  -25.3465  -31.4280   26.1416 C   0  0  0  0  0  0
  -27.1007  -30.2848   24.8316 C   0  0  0  0  0  0
  -27.5844  -32.4981   25.7563 C   0  0  0  0  0  0
  -27.5543  -37.1558   24.8441 C   0  0  0  0  0  0
  -21.4217  -29.2646   22.4043 N   0  0  0  0  0  0
  -26.4240  -37.3407   23.9391 N   0  0  0  0  0  0
  -24.7972  -30.6977   22.1397 N   0  0  0  0  0  0
  -23.3508  -28.7504   23.4612 O   0  0  0  0  0  0
  -29.1104  -26.2481   19.5551 O   0  0  0  0  0  0
  -26.6070  -34.8632   22.4514 O   0  0  0  0  0  0
  -23.5931  -32.0751   23.5347 O   0  0  0  0  0  0
  -27.5844  -23.9534   21.0861 C   0  0  0  0  0  0
  -25.9057  -24.1176   20.3329 C   0  0  0  0  0  0
  -26.5332  -25.3628   20.7536 C   0  0  0  0  0  0
  -27.6685  -22.3201   20.7369 C   0  0  0  0  0  0
  -26.0023  -28.7205   16.1551 C   0  0  0  0  0  0
  -28.9337  -29.8368   19.4272 C   0  0  0  0  0  0
  -26.7850  -31.1013   18.7105 C   0  0  0  0  0  0
  -30.6126  -26.1003   17.7589 C   0  0  0  0  0  0
  -28.7150  -20.2965   20.6484 C   0  0  0  0  0  0
  -25.4878  -28.6793   17.6202 C   0  0  0  0  0  0
  -28.2220  -22.9971   17.8539 C   0  0  0  0  0  0
  -28.6871  -24.4706   17.5585 C   0  0  0  0  0  0
  -26.8075  -22.6369   18.4289 C   0  0  0  0  0  0
  -26.5613  -28.3523   18.8362 C   0  0  1  0  0  0
  -27.5011  -29.7161   18.8334 C   0  0  0  0  0  0
  -29.5789  -25.3015   18.5619 C   0  0  2  0  0  0
  -26.7391  -22.9612   19.8417 N   0  0  0  0  0  0
  -28.8796  -18.1809   20.5419 N   0  0  0  0  0  0
  -31.1445  -14.2851   19.1521 H   0  0  0  0  0  0
  -30.6863  -13.1882   20.3762 H   0  0  0  0  0  0
  -30.2276  -12.2025   18.1099 H   0  0  0  0  0  0
  -29.3657  -13.6348   17.6247 H   0  0  0  0  0  0
  -28.4300  -11.4646   19.4985 H   0  0  0  0  0  0
  -27.5970  -12.1104   18.0895 H   0  0  0  0  0  0
  -27.3213  -14.2164   19.1617 H   0  0  0  0  0  0
  -28.9358  -13.3205   21.5826 H   0  0  0  0  0  0
  -27.8436  -14.6399   21.6379 H   0  0  0  0  0  0
  -25.2774   -9.5739   22.4766 H   0  0  0  0  0  0
  -24.0024   -7.4686   22.7489 H   0  0  0  0  0  0
  -21.0880   -8.8783   19.8956 H   0  0  0  0  0  0
  -22.3711  -10.9670   19.6180 H   0  0  0  0  0  0
  -21.2009   -7.6160   23.9726 H   0  0  0  0  0  0
  -21.1459   -6.0524   25.9077 H   0  0  0  0  0  0
  -22.0605   -2.7627   23.2836 H   0  0  0  0  0  0
  -22.3863  -11.9788   22.4897 H   0  0  0  0  0  0
  -21.0852  -13.1118   22.2697 H   0  0  0  0  0  0
  -24.5766  -15.8615   20.5426 H   0  0  0  0  0  0
  -26.1819  -15.6530   20.0645 H   0  0  0  0  0  0
  -26.7481  -32.3927   23.0446 H   0  0  0  0  0  0
  -24.9523  -33.8799   24.9188 H   0  0  0  0  0  0
  -22.9292  -30.9611   21.1785 H   0  0  0  0  0  0
  -23.3850  -35.9127   23.3142 H   0  0  0  0  0  0
  -24.3527  -36.8794   22.2115 H   0  0  0  0  0  0
  -23.7190  -37.5925   23.6953 H   0  0  0  0  0  0
  -26.6177  -30.6816   21.0732 H   0  0  0  0  0  0
  -26.7992  -30.0047   22.4970 H   0  0  0  0  0  0
  -28.3430  -28.0386   21.4949 H   0  0  0  0  0  0
  -26.3183  -25.4162   17.9040 H   0  0  0  0  0  0
  -24.0440  -26.4220   18.9886 H   0  0  0  0  0  0
  -23.9980  -29.7179   19.5092 H   0  0  0  0  0  0
  -22.8443  -28.6168   20.1070 H   0  0  0  0  0  0
  -25.1460  -36.1186   25.0673 H   0  0  0  0  0  0
  -20.9439  -28.2961   24.1706 H   0  0  0  0  0  0
  -20.5239  -26.2120   23.3764 H   0  0  0  0  0  0
  -21.6419  -26.7153   22.1525 H   0  0  0  0  0  0
  -19.6741  -25.6257   21.1258 H   0  0  0  0  0  0
  -19.6649  -27.3185   20.6836 H   0  0  0  0  0  0
  -17.4075  -26.6716   21.3941 H   0  0  0  0  0  0
  -18.0044  -26.0089   22.8979 H   0  0  0  0  0  0
  -19.7833  -30.7219   24.2276 H   0  0  0  0  0  0
  -17.4920  -31.6289   24.5144 H   0  0  0  0  0  0
  -15.5240  -30.3036   23.7636 H   0  0  0  0  0  0
  -15.8517  -28.0893   22.7007 H   0  0  0  0  0  0
  -24.5768  -30.7456   25.7811 H   0  0  0  0  0  0
  -24.8508  -32.3588   26.4151 H   0  0  0  0  0  0
  -25.7407  -30.9985   27.0620 H   0  0  0  0  0  0
  -26.3835  -29.5509   24.4641 H   0  0  0  0  0  0
  -27.4813  -29.8560   25.7602 H   0  0  0  0  0  0
  -27.9696  -30.3595   24.1761 H   0  0  0  0  0  0
  -27.2257  -33.4594   26.1244 H   0  0  0  0  0  0
  -28.3920  -32.7029   25.0529 H   0  0  0  0  0  0
  -28.0249  -31.9869   26.6131 H   0  0  0  0  0  0
  -28.2444  -37.9967   24.7565 H   0  0  0  0  0  0
  -28.1170  -36.2472   24.6214 H   0  0  0  0  0  0
  -27.2240  -37.1069   25.8835 H   0  0  0  0  0  0
  -20.9959  -29.7885   21.6556 H   0  0  0  0  0  0
  -25.9999  -38.2415   24.1440 H   0  0  0  0  0  0
  -28.4829  -24.2497   21.6123 H   0  0  0  0  0  0
  -25.0088  -24.1803   19.7367 H   0  0  0  0  0  0
  -25.4907  -29.5150   15.6087 H   0  0  0  0  0  0
  -25.7914  -27.7827   15.6421 H   0  0  0  0  0  0
  -27.0700  -28.9046   16.0419 H   0  0  0  0  0  0
  -29.0111  -30.6631   20.1327 H   0  0  0  0  0  0
  -29.6489  -30.0652   18.6342 H   0  0  0  0  0  0
  -29.3564  -28.9495   19.8819 H   0  0  0  0  0  0
  -27.4328  -31.9221   19.0134 H   0  0  0  0  0  0
  -25.8511  -31.1819   19.2629 H   0  0  0  0  0  0
  -26.5052  -31.3192   17.6769 H   0  0  0  0  0  0
  -31.2831  -25.4367   17.2184 H   0  0  0  0  0  0
  -31.2318  -26.7242   18.4005 H   0  0  0  0  0  0
  -30.1234  -26.7501   17.0356 H   0  0  0  0  0  0
  -29.3380  -20.3860   21.5447 H   0  0  0  0  0  0
  -29.4241  -20.4849   19.8367 H   0  0  0  0  0  0
  -24.5884  -28.0700   17.5639 H   0  0  0  0  0  0
  -25.0428  -29.6512   17.7703 H   0  0  0  0  0  0
  -28.9963  -22.5282   18.4577 H   0  0  0  0  0  0
  -28.2729  -22.4661   16.9036 H   0  0  0  0  0  0
  -27.9959  -25.0682   16.9825 H   0  0  0  0  0  0
  -29.3926  -24.2598   16.7556 H   0  0  0  0  0  0
  -26.6485  -21.5628   18.3231 H   0  0  0  0  0  0
  -26.0024  -23.1384   17.8855 H   0  0  0  0  0  0
  -27.2288  -28.0891   17.9957 H   0  0  0  0  0  0
  -27.8657  -29.7845   17.8070 H   0  0  0  0  0  0
  -30.1442  -24.5719   19.1394 H   0  0  0  0  0  0
  -27.9132  -17.8862   20.6087 H   0  0  0  0  0  0
  1 25  1  0  0  0
  1 30  2  0  0  0
  1 88  1  0  0  0
  2  3  1  0  0  0
  2 25  1  0  0  0
  2 89  1  0  0  0
  2 90  1  0  0  0
  3  4  1  0  0  0
  3 91  1  0  0  0
  3 92  1  0  0  0
  4  5  1  0  0  0
  4 93  1  0  0  0
  4 94  1  0  0  0
  5  6  1  0  0  0
  5 26  1  0  0  0
  5 95  1  0  0  0
  6 25  1  0  0  0
  6 96  1  0  0  0
  6 97  1  0  0  0
  7  8  2  0  0  0
  7 26  1  0  0  0
  7 29  1  0  0  0
  8  9  1  0  0  0
  8 22  1  0  0  0
  9 10  1  0  0  0
  9 27  2  0  0  0
 10 11  2  0  0  0
 10 15  1  0  0  0
 11 12  1  0  0  0
 11 98  1  0  0  0
 12 13  2  0  0  0
 12 99  1  0  0  0
 13 14  1  0  0  0
 13 31  1  0  0  0
 14 15  2  0  0  0
 14100  1  0  0  0
 15101  1  0  0  0
 16 17  2  0  0  0
 16 21  1  0  0  0
 16 31  1  0  0  0
 17 18  1  0  0  0
 17102  1  0  0  0
 18 19  2  0  0  0
 18103  1  0  0  0
 19 20  1  0  0  0
 19 24  1  0  0  0
 20 21  2  0  0  0
 20104  1  0  0  0
 21 23  1  0  0  0
 22 28  1  0  0  0
 22 32  2  0  0  0
 26 27  1  0  0  0
 28105  1  0  0  0
 28106  1  0  0  0
 29107  1  0  0  0
 29108  1  0  0  0
 33 34  1  0  0  0
 33 66  1  0  0  0
 33 70  2  0  0  0
 34 36  1  0  0  0
 34 59  1  0  0  0
 34109  1  0  0  0
 35 44  2  0  0  0
 35 45  1  0  0  0
 35 68  1  0  0  0
 36 56  1  0  0  0
 36110  1  0  0  0
 37 39  1  0  0  0
 37 47  1  0  0  0
 37 66  1  0  0  0
 37111  1  0  0  0
 38 43  2  0  0  0
 38 46  1  0  0  0
 38 47  1  0  0  0
 39 64  1  0  0  0
 39 67  2  0  0  0
 40 52  1  0  0  0
 40 53  2  0  0  0
 40 58  1  0  0  0
 41112  1  0  0  0
 41113  1  0  0  0
 41114  1  0  0  0
 41 48  1  0  0  0
 42 43  1  0  0  0
 42 66  1  0  0  0
 42115  1  0  0  0
 42116  1  0  0  0
 43 44  1  0  0  0
 44117  1  0  0  0
 45 46  2  0  0  0
 45118  1  0  0  0
 46119  1  0  0  0
 47120  1  0  0  0
 47121  1  0  0  0
 48 56  1  0  0  0
 48 65  1  0  0  0
 48122  1  0  0  0
 49 50  1  0  0  0
 49 53  1  0  0  0
 49 64  1  0  0  0
 49123  1  0  0  0
 50 51  1  0  0  0
 50124  1  0  0  0
 50125  1  0  0  0
 51 52  1  0  0  0
 51126  1  0  0  0
 51127  1  0  0  0
 52128  1  0  0  0
 52129  1  0  0  0
 53 54  1  0  0  0
 54 55  2  0  0  0
 54130  1  0  0  0
 55 57  1  0  0  0
 55131  1  0  0  0
 56 69  2  0  0  0
 57 58  2  0  0  0
 57132  1  0  0  0
 58133  1  0  0  0
 59 60  1  0  0  0
 59 61  1  0  0  0
 59 62  1  0  0  0
 60134  1  0  0  0
 60135  1  0  0  0
 60136  1  0  0  0
 61137  1  0  0  0
 61138  1  0  0  0
 61139  1  0  0  0
 62140  1  0  0  0
 62141  1  0  0  0
 62142  1  0  0  0
 63 65  1  0  0  0
 63143  1  0  0  0
 63144  1  0  0  0
 63145  1  0  0  0
 64146  1  0  0  0
 65147  1  0  0  0
 68 86  1  0  0  0
 71 73  1  0  0  0
 71 74  2  0  0  0
 71148  1  0  0  0
 72 73  2  0  0  0
 72 87  1  0  0  0
 72149  1  0  0  0
 73 84  1  0  0  0
 74 79  1  0  0  0
 74 87  1  0  0  0
 75 80  1  0  0  0
 75150  1  0  0  0
 75151  1  0  0  0
 75152  1  0  0  0
 76153  1  0  0  0
 76154  1  0  0  0
 76155  1  0  0  0
 76 85  1  0  0  0
 77 85  1  0  0  0
 77156  1  0  0  0
 77157  1  0  0  0
 77158  1  0  0  0
 78159  1  0  0  0
 78160  1  0  0  0
 78161  1  0  0  0
 78 86  1  0  0  0
 79 88  1  0  0  0
 79162  1  0  0  0
 79163  1  0  0  0
 80164  1  0  0  0
 80165  1  0  0  0
 80 84  1  0  0  0
 81 82  1  0  0  0
 81 83  1  0  0  0
 81166  1  0  0  0
 81167  1  0  0  0
 82 86  1  0  0  0
 82168  1  0  0  0
 82169  1  0  0  0
 83 87  1  0  0  0
 83170  1  0  0  0
 83171  1  0  0  0
 84 85  1  0  0  0
 84172  1  0  0  0
 85173  1  0  0  0
 86174  1  0  0  0
 88175  1  0  0  0
M  ISO  4   1 100  68 101  86 101  88 100
M  END
> <chiral flag>
0

> <version>
0

> <s_m_source_file>
/data/baiqing/PycharmProjects/Reinvent-master-3.2/result/LINK_invent/BTK/process_docking_weight1_custom_sum_contain_oxygen_bond_distance_aromatic_linkinvent_7_9_3/rearranged_h_0094.sdf

> <i_m_source_file_index>
45

> <r_mmod_Potential_Energy-OPLS-2005>
15091.0126953125

> <r_mmod_Stretch_Energy-OPLS-2005>
8601.1337890625

> <r_mmod_Bend_Energy-OPLS-2005>
1515.50817871094

> <r_mmod_Torsional_Energy-OPLS-2005>
559.240356445312

> <r_mmod_Improper_Torsional_Energy-OPLS-2005>
63.0149612426758

> <r_mmod_Van_der_Waal_Energy-OPLS-2005>
2071.71484375

> <r_mmod_Electrostatic_Energy-OPLS-2005>
-379.665679931641

> <r_mmod_Solvation_Energy-OPLS-2005>
-223.674896240234

> <b_mmod_Minimization_Converged-OPLS-2005>
0

> <r_mmod_RMS_Derivative-OPLS-2005>
11.825873374939

$$$$
45
                    3D
 Structure written by MMmdl.
178186  0  0  1  0            999 V2000
  -30.7412  -14.3936   20.6162 C   0  0  0  0  0  0
  -30.4209  -12.2705   19.4162 C   0  0  0  0  0  0
  -29.4984  -12.5135   18.2046 C   0  0  0  0  0  0
  -28.0171  -12.3829   18.6103 C   0  0  0  0  0  0
  -27.6718  -13.2029   19.8825 C   0  0  2  0  0  0
  -28.7082  -12.9488   21.0027 C   0  0  0  0  0  0
  -25.2633  -13.8160   20.5663 C   0  0  0  0  0  0
  -24.1863  -13.0451   20.9146 C   0  0  0  0  0  0
  -24.6395  -11.6910   20.8702 C   0  0  0  0  0  0
  -23.9052  -10.4296   21.0388 C   0  0  0  0  0  0
  -24.3607   -9.4218   21.9170 C   0  0  0  0  0  0
  -23.6288   -8.2251   22.0748 C   0  0  0  0  0  0
  -22.4267   -8.0279   21.3544 C   0  0  0  0  0  0
  -21.9899   -9.0250   20.4646 C   0  0  0  0  0  0
  -22.7225  -10.2130   20.3046 C   0  0  0  0  0  0
  -21.6852   -6.0731   22.5278 C   0  0  0  0  0  0
  -21.4015   -6.5636   23.8213 C   0  0  0  0  0  0
  -21.3662   -5.6790   24.9177 C   0  0  0  0  0  0
  -21.6043   -4.3052   24.7224 C   0  0  0  0  0  0
  -21.8825   -3.8141   23.4345 C   0  0  0  0  0  0
  -21.9194   -4.6959   22.3402 C   0  0  0  0  0  0
  -22.7886  -13.5261   21.1814 C   0  0  0  0  0  0
  -22.1666   -4.2146   21.0981 F   0  0  0  0  0  0
  -21.5628   -3.4540   25.7738 F   0  0  0  0  0  0
  -30.0544  -13.2320   20.4680 N   0  0  0  0  0  0
  -26.3078  -12.9322   20.3378 N   0  0  0  0  0  0
  -25.9324  -11.6482   20.5725 N   0  0  0  0  0  0
  -22.0512  -12.8260   22.0368 N   0  0  0  0  0  0
  -25.4374  -15.1875   20.4074 N   0  0  0  0  0  0
  -31.7910  -14.6374   20.0162 O   0  0  0  0  0  0
  -21.6637   -6.8870   21.4238 O   0  0  0  0  0  0
  -22.3571  -14.5563   20.6651 O   0  0  0  0  0  0
  -24.6131  -31.8698   23.2108 C   0  0  0  0  0  0
  -25.9027  -32.4829   23.8405 C   0  0  1  0  0  0
  -27.2460  -27.4529   20.0949 C   0  0  0  0  0  0
  -25.5899  -33.8629   24.2343 N   0  0  0  0  0  0
  -23.3998  -30.4925   21.5518 C   0  0  2  0  0  0
  -24.8466  -28.9539   20.1223 C   0  0  0  0  0  0
  -22.7393  -29.4666   22.5009 C   0  0  0  0  0  0
  -18.0273  -28.1374   22.8506 C   0  0  0  0  0  0
  -24.1485  -36.7314   23.2637 C   0  0  0  0  0  0
  -25.9259  -30.8412   21.3602 C   0  0  0  0  0  0
  -26.0038  -29.4739   20.7129 C   0  0  0  0  0  0
  -27.2039  -28.7322   20.6923 C   0  0  0  0  0  0
  -26.0666  -26.9374   19.5069 C   0  0  0  0  0  0
  -24.8711  -27.6842   19.5187 C   0  0  0  0  0  0
  -23.6077  -29.8200   20.1675 C   0  0  0  0  0  0
  -25.4103  -36.3115   24.0346 C   0  0  1  0  0  0
  -20.5858  -28.3659   23.1332 C   0  0  2  0  0  0
  -20.6753  -26.9400   22.5422 C   0  0  0  0  0  0
  -19.5732  -26.6393   21.5215 C   0  0  0  0  0  0
  -18.1912  -26.7923   22.1629 C   0  0  0  0  0  0
  -19.1518  -28.8836   23.2917 C   0  0  0  0  0  0
  -18.9441  -30.1445   23.8928 C   0  0  0  0  0  0
  -17.6439  -30.6581   24.0577 C   0  0  0  0  0  0
  -25.9033  -34.9479   23.5137 C   0  0  0  0  0  0
  -16.5332  -29.9089   23.6331 C   0  0  0  0  0  0
  -16.7261  -28.6504   23.0359 C   0  0  0  0  0  0
  -26.4472  -31.6600   25.0723 C   0  0  0  0  0  0
  -25.3752  -31.3695   26.1482 C   0  0  0  0  0  0
  -27.0303  -30.3049   24.6078 C   0  0  0  0  0  0
  -27.6055  -32.4316   25.7474 C   0  0  0  0  0  0
  -27.5583  -37.1809   24.8463 C   0  0  0  0  0  0
  -21.4124  -29.3033   22.3739 N   0  0  0  0  0  0
  -26.4287  -37.3802   23.9415 N   0  0  0  0  0  0
  -24.6643  -31.0813   22.1000 N   0  0  0  0  0  0
  -23.4171  -28.8214   23.3042 O   0  0  0  0  0  0
  -28.4592  -26.7959   20.0591 O   0  0  0  0  0  0
  -26.5580  -34.8917   22.4692 O   0  0  0  0  0  0
  -23.5326  -32.1428   23.7524 O   0  0  0  0  0  0
  -29.9889  -19.6794   22.8513 C   0  0  0  0  0  0
  -29.4908  -20.6441   23.7637 C   0  0  0  0  0  0
  -31.0066  -18.9836   23.4429 C   0  0  0  0  0  0
  -30.2885  -20.5785   24.8766 C   0  0  0  0  0  0
  -30.2082  -21.4395   26.1029 C   0  0  0  0  0  0
  -30.7079  -17.1225   26.4811 C   0  0  0  0  0  0
  -33.2108  -20.1666   26.0982 C   0  0  0  0  0  0
  -28.2694  -21.5158   23.5539 C   0  0  0  0  0  0
  -31.8128  -17.8187   22.9249 C   0  0  0  0  0  0
  -31.6308  -18.2873   26.8744 C   0  0  0  0  0  0
  -28.5396  -23.0156   23.3227 C   0  0  0  0  0  0
  -31.5702  -17.4424   21.4550 C   0  0  0  0  0  0
  -28.6696  -23.4223   21.8414 C   0  0  0  0  0  0
  -28.5141  -24.9431   21.6370 C   0  0  0  0  0  0
  -30.2144  -16.7659   21.1405 C   0  0  0  0  0  0
  -28.5094  -25.3701   20.1581 C   0  0  0  0  0  0
  -32.2257  -19.0649   25.6768 C   0  0  1  0  0  0
  -31.2133  -19.5379   24.7073 N   0  0  0  0  0  0
  -30.1402  -15.3210   21.3737 N   0  0  0  0  0  0
  -31.4687  -12.3526   19.1197 H   0  0  0  0  0  0
  -30.3010  -11.2523   19.7894 H   0  0  0  0  0  0
  -29.7305  -11.8057   17.4070 H   0  0  0  0  0  0
  -29.6845  -13.5071   17.7936 H   0  0  0  0  0  0
  -27.8127  -11.3255   18.7818 H   0  0  0  0  0  0
  -27.3740  -12.6852   17.7819 H   0  0  0  0  0  0
  -27.7301  -14.2572   19.6083 H   0  0  0  0  0  0
  -28.6646  -11.9083   21.3301 H   0  0  0  0  0  0
  -28.4637  -13.5365   21.8881 H   0  0  0  0  0  0
  -25.2763   -9.5703   22.4727 H   0  0  0  0  0  0
  -24.0014   -7.4646   22.7459 H   0  0  0  0  0  0
  -21.0837   -8.8756   19.8951 H   0  0  0  0  0  0
  -22.3687  -10.9653   19.6138 H   0  0  0  0  0  0
  -21.2008   -7.6144   23.9716 H   0  0  0  0  0  0
  -21.1479   -6.0518   25.9079 H   0  0  0  0  0  0
  -22.0598   -2.7602   23.2845 H   0  0  0  0  0  0
  -22.4120  -11.9950   22.4814 H   0  0  0  0  0  0
  -21.1113  -13.1267   22.2517 H   0  0  0  0  0  0
  -24.6783  -15.8499   20.5193 H   0  0  0  0  0  0
  -26.3013  -15.6233   20.1093 H   0  0  0  0  0  0
  -26.7103  -32.5566   23.1180 H   0  0  0  0  0  0
  -25.0078  -33.9788   25.0506 H   0  0  0  0  0  0
  -22.6872  -31.3088   21.4121 H   0  0  0  0  0  0
  -23.3738  -35.9656   23.3303 H   0  0  0  0  0  0
  -24.3580  -36.8917   22.2048 H   0  0  0  0  0  0
  -23.7232  -37.6517   23.6644 H   0  0  0  0  0  0
  -26.0321  -31.6041   20.5875 H   0  0  0  0  0  0
  -26.8156  -30.8973   21.9753 H   0  0  0  0  0  0
  -28.1016  -29.1399   21.1351 H   0  0  0  0  0  0
  -26.0540  -25.9806   19.0083 H   0  0  0  0  0  0
  -23.9824  -27.2811   19.0539 H   0  0  0  0  0  0
  -23.7145  -30.5919   19.4046 H   0  0  0  0  0  0
  -22.7343  -29.2350   19.8744 H   0  0  0  0  0  0
  -25.1273  -36.1980   25.0840 H   0  0  0  0  0  0
  -20.9965  -28.3214   24.1446 H   0  0  0  0  0  0
  -20.5656  -26.2255   23.3597 H   0  0  0  0  0  0
  -21.6624  -26.7440   22.1216 H   0  0  0  0  0  0
  -19.6870  -25.6311   21.1228 H   0  0  0  0  0  0
  -19.6670  -27.3218   20.6755 H   0  0  0  0  0  0
  -17.4183  -26.6701   21.4024 H   0  0  0  0  0  0
  -18.0304  -26.0046   22.9008 H   0  0  0  0  0  0
  -19.7912  -30.7270   24.2298 H   0  0  0  0  0  0
  -17.4991  -31.6270   24.5171 H   0  0  0  0  0  0
  -15.5332  -30.3008   23.7631 H   0  0  0  0  0  0
  -15.8653  -28.0840   22.7057 H   0  0  0  0  0  0
  -24.5911  -30.7063   25.7813 H   0  0  0  0  0  0
  -24.8964  -32.2850   26.4969 H   0  0  0  0  0  0
  -25.8117  -30.8829   27.0215 H   0  0  0  0  0  0
  -26.2838  -29.6797   24.1165 H   0  0  0  0  0  0
  -27.4109  -29.7296   25.4526 H   0  0  0  0  0  0
  -27.8660  -30.4365   23.9196 H   0  0  0  0  0  0
  -27.2682  -33.3598   26.2093 H   0  0  0  0  0  0
  -28.3838  -32.6904   25.0285 H   0  0  0  0  0  0
  -28.0754  -31.8418   26.5349 H   0  0  0  0  0  0
  -28.2601  -38.0112   24.7536 H   0  0  0  0  0  0
  -28.1081  -36.2643   24.6257 H   0  0  0  0  0  0
  -27.2313  -37.1429   25.8872 H   0  0  0  0  0  0
  -20.9260  -29.8759   21.6984 H   0  0  0  0  0  0
  -26.0171  -38.2877   24.1434 H   0  0  0  0  0  0
  -29.5942  -19.4857   21.8644 H   0  0  0  0  0  0
  -29.2108  -21.8613   26.2189 H   0  0  0  0  0  0
  -30.9050  -22.2754   26.0334 H   0  0  0  0  0  0
  -30.4193  -20.8967   27.0186 H   0  0  0  0  0  0
  -30.3151  -16.6220   27.3669 H   0  0  0  0  0  0
  -31.2448  -16.3766   25.8941 H   0  0  0  0  0  0
  -29.8584  -17.4687   25.8915 H   0  0  0  0  0  0
  -34.0274  -19.7438   26.6829 H   0  0  0  0  0  0
  -32.7488  -20.9378   26.7093 H   0  0  0  0  0  0
  -33.6518  -20.6455   25.2240 H   0  0  0  0  0  0
  -27.6534  -21.4088   24.4472 H   0  0  0  0  0  0
  -27.6658  -21.1065   22.7441 H   0  0  0  0  0  0
  -31.6490  -16.9426   23.5521 H   0  0  0  0  0  0
  -32.8730  -18.0634   23.0101 H   0  0  0  0  0  0
  -32.4508  -17.8897   27.4740 H   0  0  0  0  0  0
  -31.0905  -18.9527   27.5433 H   0  0  0  0  0  0
  -29.3921  -23.3598   23.9083 H   0  0  0  0  0  0
  -27.6775  -23.5496   23.7263 H   0  0  0  0  0  0
  -32.3926  -16.8098   21.1256 H   0  0  0  0  0  0
  -31.6610  -18.3474   20.8528 H   0  0  0  0  0  0
  -27.9029  -22.9137   21.2554 H   0  0  0  0  0  0
  -29.6299  -23.0832   21.4504 H   0  0  0  0  0  0
  -29.3198  -25.4599   22.1603 H   0  0  0  0  0  0
  -27.5831  -25.2751   22.0974 H   0  0  0  0  0  0
  -29.9753  -16.9404   20.0899 H   0  0  0  0  0  0
  -29.4079  -17.2337   21.7030 H   0  0  0  0  0  0
  -27.7205  -24.8621   19.6073 H   0  0  0  0  0  0
  -29.4423  -25.0474   19.6938 H   0  0  0  0  0  0
  -32.8568  -18.3381   25.1719 H   0  0  0  0  0  0
  -29.3361  -14.9990   21.8910 H   0  0  0  0  0  0
  1 25  1  0  0  0
  1 30  2  0  0  0
  1 89  1  0  0  0
  2  3  1  0  0  0
  2 25  1  0  0  0
  2 90  1  0  0  0
  2 91  1  0  0  0
  3  4  1  0  0  0
  3 92  1  0  0  0
  3 93  1  0  0  0
  4  5  1  0  0  0
  4 94  1  0  0  0
  4 95  1  0  0  0
  5  6  1  0  0  0
  5 26  1  0  0  0
  5 96  1  0  0  0
  6 25  1  0  0  0
  6 97  1  0  0  0
  6 98  1  0  0  0
  7  8  2  0  0  0
  7 26  1  0  0  0
  7 29  1  0  0  0
  8  9  1  0  0  0
  8 22  1  0  0  0
  9 10  1  0  0  0
  9 27  2  0  0  0
 10 11  2  0  0  0
 10 15  1  0  0  0
 11 12  1  0  0  0
 11 99  1  0  0  0
 12 13  2  0  0  0
 12100  1  0  0  0
 13 14  1  0  0  0
 13 31  1  0  0  0
 14 15  2  0  0  0
 14101  1  0  0  0
 15102  1  0  0  0
 16 17  2  0  0  0
 16 21  1  0  0  0
 16 31  1  0  0  0
 17 18  1  0  0  0
 17103  1  0  0  0
 18 19  2  0  0  0
 18104  1  0  0  0
 19 20  1  0  0  0
 19 24  1  0  0  0
 20 21  2  0  0  0
 20105  1  0  0  0
 21 23  1  0  0  0
 22 28  1  0  0  0
 22 32  2  0  0  0
 26 27  1  0  0  0
 28106  1  0  0  0
 28107  1  0  0  0
 29108  1  0  0  0
 29109  1  0  0  0
 33 34  1  0  0  0
 33 66  1  0  0  0
 33 70  2  0  0  0
 34 36  1  0  0  0
 34 59  1  0  0  0
 34110  1  0  0  0
 35 44  2  0  0  0
 35 45  1  0  0  0
 35 68  1  0  0  0
 36 56  1  0  0  0
 36111  1  0  0  0
 37 39  1  0  0  0
 37 47  1  0  0  0
 37 66  1  0  0  0
 37112  1  0  0  0
 38 43  2  0  0  0
 38 46  1  0  0  0
 38 47  1  0  0  0
 39 64  1  0  0  0
 39 67  2  0  0  0
 40 52  1  0  0  0
 40 53  2  0  0  0
 40 58  1  0  0  0
 41113  1  0  0  0
 41114  1  0  0  0
 41115  1  0  0  0
 41 48  1  0  0  0
 42 43  1  0  0  0
 42 66  1  0  0  0
 42116  1  0  0  0
 42117  1  0  0  0
 43 44  1  0  0  0
 44118  1  0  0  0
 45 46  2  0  0  0
 45119  1  0  0  0
 46120  1  0  0  0
 47121  1  0  0  0
 47122  1  0  0  0
 48 56  1  0  0  0
 48 65  1  0  0  0
 48123  1  0  0  0
 49 50  1  0  0  0
 49 53  1  0  0  0
 49 64  1  0  0  0
 49124  1  0  0  0
 50 51  1  0  0  0
 50125  1  0  0  0
 50126  1  0  0  0
 51 52  1  0  0  0
 51127  1  0  0  0
 51128  1  0  0  0
 52129  1  0  0  0
 52130  1  0  0  0
 53 54  1  0  0  0
 54 55  2  0  0  0
 54131  1  0  0  0
 55 57  1  0  0  0
 55132  1  0  0  0
 56 69  2  0  0  0
 57 58  2  0  0  0
 57133  1  0  0  0
 58134  1  0  0  0
 59 60  1  0  0  0
 59 61  1  0  0  0
 59 62  1  0  0  0
 60135  1  0  0  0
 60136  1  0  0  0
 60137  1  0  0  0
 61138  1  0  0  0
 61139  1  0  0  0
 61140  1  0  0  0
 62141  1  0  0  0
 62142  1  0  0  0
 62143  1  0  0  0
 63 65  1  0  0  0
 63144  1  0  0  0
 63145  1  0  0  0
 63146  1  0  0  0
 64147  1  0  0  0
 65148  1  0  0  0
 68 86  1  0  0  0
 71 72  1  0  0  0
 71 73  2  0  0  0
 71149  1  0  0  0
 72 74  2  0  0  0
 72 78  1  0  0  0
 73 79  1  0  0  0
 73 88  1  0  0  0
 74 75  1  0  0  0
 74 88  1  0  0  0
 75150  1  0  0  0
 75151  1  0  0  0
 75152  1  0  0  0
 76 80  1  0  0  0
 76153  1  0  0  0
 76154  1  0  0  0
 76155  1  0  0  0
 77156  1  0  0  0
 77157  1  0  0  0
 77158  1  0  0  0
 77 87  1  0  0  0
 78 81  1  0  0  0
 78159  1  0  0  0
 78160  1  0  0  0
 79 82  1  0  0  0
 79161  1  0  0  0
 79162  1  0  0  0
 80 87  1  0  0  0
 80163  1  0  0  0
 80164  1  0  0  0
 81 83  1  0  0  0
 81165  1  0  0  0
 81166  1  0  0  0
 82 85  1  0  0  0
 82167  1  0  0  0
 82168  1  0  0  0
 83 84  1  0  0  0
 83169  1  0  0  0
 83170  1  0  0  0
 84 86  1  0  0  0
 84171  1  0  0  0
 84172  1  0  0  0
 85 89  1  0  0  0
 85173  1  0  0  0
 85174  1  0  0  0
 86175  1  0  0  0
 86176  1  0  0  0
 87 88  1  0  0  0
 87177  1  0  0  0
 89178  1  0  0  0
M  ISO  4   1 100  68 101  86 101  89 100
M  END
> <chiral flag>
0

> <version>
0

> <s_m_source_file>
/data/baiqing/PycharmProjects/Reinvent-master-3.2/result/LINK_invent/BTK/process_docking_weight1_custom_sum_contain_oxygen_bond_distance_aromatic_linkinvent_7_9_3/rearranged_h_0094.sdf

> <i_m_source_file_index>
46

> <r_mmod_Potential_Energy-OPLS-2005>
-58.6509666442871

> <r_mmod_Stretch_Energy-OPLS-2005>
36.3104667663574

> <r_mmod_Bend_Energy-OPLS-2005>
116.194961547852

> <r_mmod_Torsional_Energy-OPLS-2005>
248.032089233398

> <r_mmod_Improper_Torsional_Energy-OPLS-2005>
4.4423828125

> <r_mmod_Van_der_Waal_Energy-OPLS-2005>
130.456604003906

> <r_mmod_Electrostatic_Energy-OPLS-2005>
-404.007781982422

> <r_mmod_Solvation_Energy-OPLS-2005>
-198.305206298828

> <b_mmod_Minimization_Converged-OPLS-2005>
0

> <r_mmod_RMS_Derivative-OPLS-2005>
2.02889943122864

$$$$
46
                    3D
 Structure written by MMmdl.
161168  0  0  1  0            999 V2000
  -30.5555  -14.9128   20.4211 C   0  0  0  0  0  0
  -30.4362  -12.5602   19.5059 C   0  0  0  0  0  0
  -29.5215  -12.5295   18.2598 C   0  0  0  0  0  0
  -28.0520  -12.3242   18.6718 C   0  0  0  0  0  0
  -27.6329  -13.2482   19.8453 C   0  0  2  0  0  0
  -28.6735  -13.2593   20.9864 C   0  0  0  0  0  0
  -25.2468  -13.8222   20.5718 C   0  0  0  0  0  0
  -24.1779  -13.0441   20.9224 C   0  0  0  0  0  0
  -24.6392  -11.6927   20.8752 C   0  0  0  0  0  0
  -23.9079  -10.4296   21.0406 C   0  0  0  0  0  0
  -24.3627   -9.4210   21.9183 C   0  0  0  0  0  0
  -23.6300   -8.2245   22.0754 C   0  0  0  0  0  0
  -22.4284   -8.0283   21.3544 C   0  0  0  0  0  0
  -21.9920   -9.0257   20.4647 C   0  0  0  0  0  0
  -22.7249  -10.2135   20.3057 C   0  0  0  0  0  0
  -21.6855   -6.0739   22.5281 C   0  0  0  0  0  0
  -21.4014   -6.5643   23.8213 C   0  0  0  0  0  0
  -21.3661   -5.6794   24.9177 C   0  0  0  0  0  0
  -21.6045   -4.3057   24.7224 C   0  0  0  0  0  0
  -21.8817   -3.8149   23.4344 C   0  0  0  0  0  0
  -21.9194   -4.6966   22.3403 C   0  0  0  0  0  0
  -22.7798  -13.5209   21.1885 C   0  0  0  0  0  0
  -22.1661   -4.2150   21.0978 F   0  0  0  0  0  0
  -21.5633   -3.4542   25.7737 F   0  0  0  0  0  0
  -29.9588  -13.6555   20.3974 N   0  0  0  0  0  0
  -26.2895  -12.9454   20.3272 N   0  0  0  0  0  0
  -25.9326  -11.6580   20.5743 N   0  0  0  0  0  0
  -22.0451  -12.8192   22.0440 N   0  0  0  0  0  0
  -25.4136  -15.1949   20.4135 N   0  0  0  0  0  0
  -31.7456  -14.9851   20.0980 O   0  0  0  0  0  0
  -21.6645   -6.8881   21.4243 O   0  0  0  0  0  0
  -22.3479  -14.5511   20.6728 O   0  0  0  0  0  0
  -24.6418  -31.8454   23.1892 C   0  0  0  0  0  0
  -25.9194  -32.4702   23.8283 C   0  0  1  0  0  0
  -27.2178  -27.1475   20.1631 C   0  0  0  0  0  0
  -25.5949  -33.8509   24.2202 N   0  0  0  0  0  0
  -23.4456  -30.4629   21.5342 C   0  0  2  0  0  0
  -24.8975  -28.8901   20.1106 C   0  0  0  0  0  0
  -22.7565  -29.4541   22.4870 C   0  0  0  0  0  0
  -18.0307  -28.1395   22.8475 C   0  0  0  0  0  0
  -24.1494  -36.7256   23.2642 C   0  0  0  0  0  0
  -25.9996  -30.7221   21.3877 C   0  0  0  0  0  0
  -26.0720  -29.3329   20.7334 C   0  0  0  0  0  0
  -27.2344  -28.4766   20.7444 C   0  0  0  0  0  0
  -26.0303  -26.8129   19.4789 C   0  0  0  0  0  0
  -24.8881  -27.6422   19.4683 C   0  0  0  0  0  0
  -23.6727  -29.7904   20.1538 C   0  0  0  0  0  0
  -25.4123  -36.3038   24.0320 C   0  0  1  0  0  0
  -20.5919  -28.3716   23.1242 C   0  0  2  0  0  0
  -20.6801  -26.9424   22.5410 C   0  0  0  0  0  0
  -19.5781  -26.6380   21.5212 C   0  0  0  0  0  0
  -18.1954  -26.7934   22.1616 C   0  0  0  0  0  0
  -19.1563  -28.8873   23.2850 C   0  0  0  0  0  0
  -18.9479  -30.1468   23.8877 C   0  0  0  0  0  0
  -17.6478  -30.6593   24.0555 C   0  0  0  0  0  0
  -25.9074  -34.9412   23.5072 C   0  0  0  0  0  0
  -16.5367  -29.9085   23.6336 C   0  0  0  0  0  0
  -16.7291  -28.6503   23.0359 C   0  0  0  0  0  0
  -26.4522  -31.6565   25.0718 C   0  0  0  0  0  0
  -25.3709  -31.3750   26.1413 C   0  0  0  0  0  0
  -27.0387  -30.2963   24.6293 C   0  0  0  0  0  0
  -27.6055  -32.4327   25.7500 C   0  0  0  0  0  0
  -27.5577  -37.1784   24.8465 C   0  0  0  0  0  0
  -21.4260  -29.3040   22.3616 N   0  0  0  0  0  0
  -26.4286  -37.3749   23.9411 N   0  0  0  0  0  0
  -24.7149  -31.0313   22.0923 N   0  0  0  0  0  0
  -23.4211  -28.8091   23.3018 O   0  0  0  0  0  0
  -28.2684  -26.1597   20.2115 O   0  0  0  0  0  0
  -26.5660  -34.8904   22.4650 O   0  0  0  0  0  0
  -23.5540  -32.1327   23.7118 O   0  0  0  0  0  0
  -26.4603  -21.4063   21.6869 C   0  0  0  0  0  0
  -28.3245  -22.2409   23.3636 C   0  0  0  0  0  0
  -26.8079  -24.7496   21.6537 C   0  0  0  0  0  0
  -29.3296  -18.9578   20.8056 C   0  0  0  0  0  0
  -30.0186  -17.5837   20.1209 C   0  0  0  0  0  0
  -29.2502  -20.5170   20.1254 C   0  0  0  0  0  0
  -28.4761  -23.2172   20.1549 C   0  0  0  0  0  0
  -27.9524  -21.4908   22.0675 C   0  0  0  0  0  0
  -28.1417  -24.7379   20.8658 C   0  0  1  0  0  0
  -29.7816  -16.0907   20.5837 N   0  0  0  0  0  0
  -28.8400  -21.8418   20.9190 N   0  3  1  0  0  0
  -31.4747  -12.6998   19.2025 H   0  0  0  0  0  0
  -30.4088  -11.6025   20.0279 H   0  0  0  0  0  0
  -29.8344  -11.7376   17.5776 H   0  0  0  0  0  0
  -29.6217  -13.4666   17.7098 H   0  0  0  0  0  0
  -27.9368  -11.2806   18.9660 H   0  0  0  0  0  0
  -27.3925  -12.4726   17.8157 H   0  0  0  0  0  0
  -27.6032  -14.2552   19.4281 H   0  0  0  0  0  0
  -28.7454  -12.2794   21.4606 H   0  0  0  0  0  0
  -28.3787  -13.9600   21.7688 H   0  0  0  0  0  0
  -25.2767   -9.5687   22.4764 H   0  0  0  0  0  0
  -24.0012   -7.4634   22.7468 H   0  0  0  0  0  0
  -21.0854   -8.8767   19.8949 H   0  0  0  0  0  0
  -22.3697  -10.9673   19.6171 H   0  0  0  0  0  0
  -21.2002   -7.6150   23.9714 H   0  0  0  0  0  0
  -21.1490   -6.0527   25.9079 H   0  0  0  0  0  0
  -22.0595   -2.7611   23.2843 H   0  0  0  0  0  0
  -22.4074  -11.9858   22.4832 H   0  0  0  0  0  0
  -21.1063  -13.1200   22.2645 H   0  0  0  0  0  0
  -24.6413  -15.8438   20.5185 H   0  0  0  0  0  0
  -26.2545  -15.6348   20.0631 H   0  0  0  0  0  0
  -26.7260  -32.5321   23.1015 H   0  0  0  0  0  0
  -25.0075  -33.9630   25.0334 H   0  0  0  0  0  0
  -22.7471  -31.2877   21.3792 H   0  0  0  0  0  0
  -23.3766  -35.9578   23.3290 H   0  0  0  0  0  0
  -24.3577  -36.8903   22.2059 H   0  0  0  0  0  0
  -23.7241  -37.6447   23.6683 H   0  0  0  0  0  0
  -26.1538  -31.4751   20.6133 H   0  0  0  0  0  0
  -26.8703  -30.7744   22.0296 H   0  0  0  0  0  0
  -28.1281  -28.8080   21.2540 H   0  0  0  0  0  0
  -25.9670  -25.8562   18.9794 H   0  0  0  0  0  0
  -23.9946  -27.3003   18.9641 H   0  0  0  0  0  0
  -23.8065  -30.5643   19.3970 H   0  0  0  0  0  0
  -22.7882  -29.2306   19.8446 H   0  0  0  0  0  0
  -25.1310  -36.1870   25.0813 H   0  0  0  0  0  0
  -21.0005  -28.3306   24.1365 H   0  0  0  0  0  0
  -20.5695  -26.2329   23.3627 H   0  0  0  0  0  0
  -21.6670  -26.7439   22.1209 H   0  0  0  0  0  0
  -19.6947  -25.6283   21.1262 H   0  0  0  0  0  0
  -19.6723  -27.3174   20.6728 H   0  0  0  0  0  0
  -17.4229  -26.6672   21.4016 H   0  0  0  0  0  0
  -18.0351  -26.0080   22.9018 H   0  0  0  0  0  0
  -19.7955  -30.7285   24.2242 H   0  0  0  0  0  0
  -17.5033  -31.6270   24.5162 H   0  0  0  0  0  0
  -15.5369  -30.2984   23.7675 H   0  0  0  0  0  0
  -15.8686  -28.0813   22.7097 H   0  0  0  0  0  0
  -24.5897  -30.7087   25.7736 H   0  0  0  0  0  0
  -24.8883  -32.2930   26.4779 H   0  0  0  0  0  0
  -25.7991  -30.8967   27.0233 H   0  0  0  0  0  0
  -26.3006  -29.6684   24.1289 H   0  0  0  0  0  0
  -27.3994  -29.7258   25.4864 H   0  0  0  0  0  0
  -27.8916  -30.4202   23.9614 H   0  0  0  0  0  0
  -27.2653  -33.3648   26.2022 H   0  0  0  0  0  0
  -28.3892  -32.6857   25.0346 H   0  0  0  0  0  0
  -28.0693  -31.8491   26.5464 H   0  0  0  0  0  0
  -28.2587  -38.0090   24.7519 H   0  0  0  0  0  0
  -28.1084  -36.2621   24.6282 H   0  0  0  0  0  0
  -27.2295  -37.1418   25.8867 H   0  0  0  0  0  0
  -20.9470  -29.8740   21.6786 H   0  0  0  0  0  0
  -26.0160  -38.2821   24.1411 H   0  0  0  0  0  0
  -25.8414  -21.2304   22.5668 H   0  0  0  0  0  0
  -26.2932  -20.5676   21.0107 H   0  0  0  0  0  0
  -26.0745  -22.2832   21.1771 H   0  0  0  0  0  0
  -27.5375  -22.1482   24.1127 H   0  0  0  0  0  0
  -28.5462  -23.2957   23.2346 H   0  0  0  0  0  0
  -29.2241  -21.8064   23.8023 H   0  0  0  0  0  0
  -26.7229  -23.9788   22.4050 H   0  0  0  0  0  0
  -25.9508  -24.6277   20.9938 H   0  0  0  0  0  0
  -26.6817  -25.6775   22.2109 H   0  0  0  0  0  0
  -29.8235  -19.0645   21.7718 H   0  0  0  0  0  0
  -28.3027  -18.6790   21.0417 H   0  0  0  0  0  0
  -31.0988  -17.7369   20.1029 H   0  0  0  0  0  0
  -29.7291  -17.5904   19.0696 H   0  0  0  0  0  0
  -28.5675  -20.4509   19.2781 H   0  0  0  0  0  0
  -30.2223  -20.7297   19.6802 H   0  0  0  0  0  0
  -27.6510  -22.9922   19.4798 H   0  0  0  0  0  0
  -29.3250  -23.3889   19.4930 H   0  0  0  0  0  0
  -28.1702  -20.4759   22.3821 H   0  0  0  0  0  0
  -28.9240  -24.8181   21.6196 H   0  0  0  0  0  0
  -28.8348  -15.8979   20.8770 H   0  0  0  0  0  0
  -29.7092  -22.0662   21.3837 H   0  0  0  0  0  0
  1 25  1  0  0  0
  1 30  2  0  0  0
  1 80  1  0  0  0
  2  3  1  0  0  0
  2 25  1  0  0  0
  2 82  1  0  0  0
  2 83  1  0  0  0
  3  4  1  0  0  0
  3 84  1  0  0  0
  3 85  1  0  0  0
  4  5  1  0  0  0
  4 86  1  0  0  0
  4 87  1  0  0  0
  5  6  1  0  0  0
  5 26  1  0  0  0
  5 88  1  0  0  0
  6 25  1  0  0  0
  6 89  1  0  0  0
  6 90  1  0  0  0
  7  8  2  0  0  0
  7 26  1  0  0  0
  7 29  1  0  0  0
  8  9  1  0  0  0
  8 22  1  0  0  0
  9 10  1  0  0  0
  9 27  2  0  0  0
 10 11  2  0  0  0
 10 15  1  0  0  0
 11 12  1  0  0  0
 11 91  1  0  0  0
 12 13  2  0  0  0
 12 92  1  0  0  0
 13 14  1  0  0  0
 13 31  1  0  0  0
 14 15  2  0  0  0
 14 93  1  0  0  0
 15 94  1  0  0  0
 16 17  2  0  0  0
 16 21  1  0  0  0
 16 31  1  0  0  0
 17 18  1  0  0  0
 17 95  1  0  0  0
 18 19  2  0  0  0
 18 96  1  0  0  0
 19 20  1  0  0  0
 19 24  1  0  0  0
 20 21  2  0  0  0
 20 97  1  0  0  0
 21 23  1  0  0  0
 22 28  1  0  0  0
 22 32  2  0  0  0
 26 27  1  0  0  0
 28 98  1  0  0  0
 28 99  1  0  0  0
 29100  1  0  0  0
 29101  1  0  0  0
 33 34  1  0  0  0
 33 66  1  0  0  0
 33 70  2  0  0  0
 34 36  1  0  0  0
 34 59  1  0  0  0
 34102  1  0  0  0
 35 44  2  0  0  0
 35 45  1  0  0  0
 35 68  1  0  0  0
 36 56  1  0  0  0
 36103  1  0  0  0
 37 39  1  0  0  0
 37 47  1  0  0  0
 37 66  1  0  0  0
 37104  1  0  0  0
 38 43  2  0  0  0
 38 46  1  0  0  0
 38 47  1  0  0  0
 39 64  1  0  0  0
 39 67  2  0  0  0
 40 52  1  0  0  0
 40 53  2  0  0  0
 40 58  1  0  0  0
 41105  1  0  0  0
 41106  1  0  0  0
 41107  1  0  0  0
 41 48  1  0  0  0
 42 43  1  0  0  0
 42 66  1  0  0  0
 42108  1  0  0  0
 42109  1  0  0  0
 43 44  1  0  0  0
 44110  1  0  0  0
 45 46  2  0  0  0
 45111  1  0  0  0
 46112  1  0  0  0
 47113  1  0  0  0
 47114  1  0  0  0
 48 56  1  0  0  0
 48 65  1  0  0  0
 48115  1  0  0  0
 49 50  1  0  0  0
 49 53  1  0  0  0
 49 64  1  0  0  0
 49116  1  0  0  0
 50 51  1  0  0  0
 50117  1  0  0  0
 50118  1  0  0  0
 51 52  1  0  0  0
 51119  1  0  0  0
 51120  1  0  0  0
 52121  1  0  0  0
 52122  1  0  0  0
 53 54  1  0  0  0
 54 55  2  0  0  0
 54123  1  0  0  0
 55 57  1  0  0  0
 55124  1  0  0  0
 56 69  2  0  0  0
 57 58  2  0  0  0
 57125  1  0  0  0
 58126  1  0  0  0
 59 60  1  0  0  0
 59 61  1  0  0  0
 59 62  1  0  0  0
 60127  1  0  0  0
 60128  1  0  0  0
 60129  1  0  0  0
 61130  1  0  0  0
 61131  1  0  0  0
 61132  1  0  0  0
 62133  1  0  0  0
 62134  1  0  0  0
 62135  1  0  0  0
 63 65  1  0  0  0
 63136  1  0  0  0
 63137  1  0  0  0
 63138  1  0  0  0
 64139  1  0  0  0
 65140  1  0  0  0
 68 79  1  0  0  0
 71141  1  0  0  0
 71142  1  0  0  0
 71143  1  0  0  0
 71 78  1  0  0  0
 72 78  1  0  0  0
 72144  1  0  0  0
 72145  1  0  0  0
 72146  1  0  0  0
 73147  1  0  0  0
 73148  1  0  0  0
 73149  1  0  0  0
 73 79  1  0  0  0
 74 75  1  0  0  0
 74 76  1  0  0  0
 74150  1  0  0  0
 74151  1  0  0  0
 75 80  1  0  0  0
 75152  1  0  0  0
 75153  1  0  0  0
 76154  1  0  0  0
 76155  1  0  0  0
 76 81  1  0  0  0
 77 79  1  0  0  0
 77 81  1  0  0  0
 77156  1  0  0  0
 77157  1  0  0  0
 78 81  1  0  0  0
 78158  1  0  0  0
 79159  1  0  0  0
 80160  1  0  0  0
 81161  1  0  0  0
M  CHG  1  81   1
M  ISO  4   1 100  68 101  79 101  80 100
M  END
> <chiral flag>
0

> <version>
0

> <s_m_source_file>
/data/baiqing/PycharmProjects/Reinvent-master-3.2/result/LINK_invent/BTK/process_docking_weight1_custom_sum_contain_oxygen_bond_distance_aromatic_linkinvent_7_9_3/rearranged_h_0094.sdf

> <i_m_source_file_index>
47

> <r_mmod_Potential_Energy-OPLS-2005>
486.812377929688

> <r_mmod_Stretch_Energy-OPLS-2005>
289.1728515625

> <r_mmod_Bend_Energy-OPLS-2005>
293.457855224609

> <r_mmod_Torsional_Energy-OPLS-2005>
262.354644775391

> <r_mmod_Improper_Torsional_Energy-OPLS-2005>
5.40704345703125

> <r_mmod_Van_der_Waal_Energy-OPLS-2005>
130.00212097168

> <r_mmod_Electrostatic_Energy-OPLS-2005>
-236.615753173828

> <r_mmod_Solvation_Energy-OPLS-2005>
-432.213989257812

> <b_mmod_Minimization_Converged-OPLS-2005>
0

> <r_mmod_RMS_Derivative-OPLS-2005>
0.880683124065399

$$$$
47
                    3D
 Structure written by MMmdl.
169177  0  0  1  0            999 V2000
  -30.6732  -14.4957   20.5787 C   0  0  0  0  0  0
  -30.4344  -12.3204   19.4353 C   0  0  0  0  0  0
  -29.5029  -12.5141   18.2182 C   0  0  0  0  0  0
  -28.0235  -12.3703   18.6247 C   0  0  0  0  0  0
  -27.6664  -13.2022   19.8855 C   0  0  2  0  0  0
  -28.7049  -12.9744   21.0094 C   0  0  0  0  0  0
  -25.2606  -13.8150   20.5668 C   0  0  0  0  0  0
  -24.1837  -13.0441   20.9141 C   0  0  0  0  0  0
  -24.6383  -11.6899   20.8726 C   0  0  0  0  0  0
  -23.9055  -10.4291   21.0400 C   0  0  0  0  0  0
  -24.3606   -9.4213   21.9178 C   0  0  0  0  0  0
  -23.6280   -8.2249   22.0772 C   0  0  0  0  0  0
  -22.4265   -8.0287   21.3553 C   0  0  0  0  0  0
  -21.9898   -9.0252   20.4654 C   0  0  0  0  0  0
  -22.7231  -10.2132   20.3053 C   0  0  0  0  0  0
  -21.6853   -6.0729   22.5263 C   0  0  0  0  0  0
  -21.4011   -6.5638   23.8199 C   0  0  0  0  0  0
  -21.3659   -5.6797   24.9164 C   0  0  0  0  0  0
  -21.6041   -4.3053   24.7217 C   0  0  0  0  0  0
  -21.8823   -3.8144   23.4344 C   0  0  0  0  0  0
  -21.9193   -4.6959   22.3389 C   0  0  0  0  0  0
  -22.7869  -13.5245   21.1809 C   0  0  0  0  0  0
  -22.1660   -4.2143   21.0970 F   0  0  0  0  0  0
  -21.5632   -3.4535   25.7738 F   0  0  0  0  0  0
  -30.0400  -13.2946   20.4684 N   0  0  0  0  0  0
  -26.3041  -12.9302   20.3397 N   0  0  0  0  0  0
  -25.9317  -11.6468   20.5779 N   0  0  0  0  0  0
  -22.0507  -12.8242   22.0367 N   0  0  0  0  0  0
  -25.4367  -15.1872   20.4085 N   0  0  0  0  0  0
  -31.7779  -14.7223   20.0747 O   0  0  0  0  0  0
  -21.6641   -6.8877   21.4232 O   0  0  0  0  0  0
  -22.3558  -14.5557   20.6671 O   0  0  0  0  0  0
  -24.6219  -31.8624   23.2115 C   0  0  0  0  0  0
  -25.9103  -32.4770   23.8423 C   0  0  1  0  0  0
  -27.2418  -27.3923   20.0971 C   0  0  0  0  0  0
  -25.5955  -33.8575   24.2354 N   0  0  0  0  0  0
  -23.4126  -30.4875   21.5538 C   0  0  2  0  0  0
  -24.8610  -28.9565   20.1138 C   0  0  0  0  0  0
  -22.7450  -29.4623   22.4997 C   0  0  0  0  0  0
  -18.0281  -28.1354   22.8489 C   0  0  0  0  0  0
  -24.1490  -36.7300   23.2635 C   0  0  0  0  0  0
  -25.9487  -30.8126   21.3747 C   0  0  0  0  0  0
  -26.0244  -29.4473   20.7180 C   0  0  0  0  0  0
  -27.2143  -28.6725   20.7095 C   0  0  0  0  0  0
  -26.0612  -26.9480   19.4540 C   0  0  0  0  0  0
  -24.8770  -27.7064   19.4779 C   0  0  0  0  0  0
  -23.6211  -29.8234   20.1692 C   0  0  0  0  0  0
  -25.4112  -36.3076   24.0327 C   0  0  1  0  0  0
  -20.5877  -28.3648   23.1293 C   0  0  2  0  0  0
  -20.6780  -26.9369   22.5401 C   0  0  0  0  0  0
  -19.5752  -26.6352   21.5200 C   0  0  0  0  0  0
  -18.1924  -26.7918   22.1596 C   0  0  0  0  0  0
  -19.1533  -28.8835   23.2886 C   0  0  0  0  0  0
  -18.9439  -30.1445   23.8870 C   0  0  0  0  0  0
  -17.6434  -30.6560   24.0545 C   0  0  0  0  0  0
  -25.9036  -34.9432   23.5132 C   0  0  0  0  0  0
  -16.5336  -29.9042   23.6335 C   0  0  0  0  0  0
  -16.7273  -28.6466   23.0348 C   0  0  0  0  0  0
  -26.4524  -31.6567   25.0761 C   0  0  0  0  0  0
  -25.3764  -31.3645   26.1497 C   0  0  0  0  0  0
  -27.0425  -30.3019   24.6195 C   0  0  0  0  0  0
  -27.6121  -32.4300   25.7486 C   0  0  0  0  0  0
  -27.5582  -37.1797   24.8456 C   0  0  0  0  0  0
  -21.4170  -29.3010   22.3709 N   0  0  0  0  0  0
  -26.4298  -37.3747   23.9396 N   0  0  0  0  0  0
  -24.6801  -31.0692   22.1048 N   0  0  0  0  0  0
  -23.4193  -28.8141   23.3037 O   0  0  0  0  0  0
  -28.3985  -26.6153   20.1571 O   0  0  0  0  0  0
  -26.5550  -34.8862   22.4664 O   0  0  0  0  0  0
  -23.5401  -32.1422   23.7460 O   0  0  0  0  0  0
  -28.1077  -19.3232   22.2654 C   0  0  0  0  0  0
  -27.2872  -20.4528   22.1389 C   0  0  0  0  0  0
  -29.3800  -19.2701   21.6631 C   0  0  0  0  0  0
  -29.8458  -20.4233   20.9498 C   0  0  0  0  0  0
  -28.9975  -21.5776   20.7942 C   0  0  0  0  0  0
  -27.7006  -21.5637   21.3701 C   0  0  0  0  0  0
  -31.2340  -20.4148   20.3169 C   0  0  0  0  0  0
  -25.0030  -23.0040   22.6031 C   0  0  0  0  0  0
  -24.8577  -23.3497   20.1036 C   0  0  0  0  0  0
  -30.1481  -17.9352   21.8402 C   0  0  0  0  0  0
  -29.3684  -22.7899   19.8893 C   0  0  0  0  0  0
  -29.3255  -24.2421   20.4972 C   0  0  0  0  0  0
  -29.9116  -16.9057   20.6974 C   0  0  0  0  0  0
  -28.3177  -25.2094   19.7939 C   0  0  0  0  0  0
  -25.4667  -22.5068   21.2287 C   0  0  0  0  0  0
  -29.9236  -15.4837   21.1094 N   0  0  0  0  0  0
  -26.8820  -22.6469   21.1294 O   0  0  0  0  0  0
  -31.4768  -12.4375   19.1330 H   0  0  0  0  0  0
  -30.3520  -11.3037   19.8249 H   0  0  0  0  0  0
  -29.7504  -11.7941   17.4377 H   0  0  0  0  0  0
  -29.6650  -13.5020   17.7852 H   0  0  0  0  0  0
  -27.8315  -11.3129   18.8129 H   0  0  0  0  0  0
  -27.3770  -12.6550   17.7938 H   0  0  0  0  0  0
  -27.7145  -14.2520   19.5959 H   0  0  0  0  0  0
  -28.6833  -11.9352   21.3401 H   0  0  0  0  0  0
  -28.4588  -13.5628   21.8938 H   0  0  0  0  0  0
  -25.2748   -9.5676   22.4753 H   0  0  0  0  0  0
  -23.9984   -7.4645   22.7498 H   0  0  0  0  0  0
  -21.0832   -8.8760   19.8954 H   0  0  0  0  0  0
  -22.3686  -10.9663   19.6162 H   0  0  0  0  0  0
  -21.2008   -7.6147   23.9695 H   0  0  0  0  0  0
  -21.1476   -6.0530   25.9066 H   0  0  0  0  0  0
  -22.0608   -2.7610   23.2842 H   0  0  0  0  0  0
  -22.4119  -11.9888   22.4731 H   0  0  0  0  0  0
  -21.1134  -13.1278   22.2591 H   0  0  0  0  0  0
  -24.6776  -15.8497   20.5227 H   0  0  0  0  0  0
  -26.2992  -15.6212   20.1059 H   0  0  0  0  0  0
  -26.7171  -32.5465   23.1176 H   0  0  0  0  0  0
  -25.0200  -33.9726   25.0572 H   0  0  0  0  0  0
  -22.7062  -31.3087   21.4156 H   0  0  0  0  0  0
  -23.3732  -35.9642   23.3286 H   0  0  0  0  0  0
  -24.3606  -36.8969   22.2059 H   0  0  0  0  0  0
  -23.7262  -37.6507   23.6682 H   0  0  0  0  0  0
  -26.0765  -31.5765   20.6073 H   0  0  0  0  0  0
  -26.8322  -30.8612   22.0003 H   0  0  0  0  0  0
  -28.1123  -29.0477   21.1809 H   0  0  0  0  0  0
  -26.0238  -26.0123   18.9189 H   0  0  0  0  0  0
  -23.9865  -27.3315   18.9914 H   0  0  0  0  0  0
  -23.7191  -30.6016   19.4114 H   0  0  0  0  0  0
  -22.7438  -29.2419   19.8785 H   0  0  0  0  0  0
  -25.1279  -36.1949   25.0808 H   0  0  0  0  0  0
  -20.9965  -28.3213   24.1413 H   0  0  0  0  0  0
  -20.5691  -26.2220   23.3582 H   0  0  0  0  0  0
  -21.6645  -26.7396   22.1170 H   0  0  0  0  0  0
  -19.6904  -25.6262   21.1229 H   0  0  0  0  0  0
  -19.6713  -27.3159   20.6730 H   0  0  0  0  0  0
  -17.4196  -26.6684   21.3981 H   0  0  0  0  0  0
  -18.0302  -26.0038   22.8961 H   0  0  0  0  0  0
  -19.7906  -30.7289   24.2206 H   0  0  0  0  0  0
  -17.4967  -31.6233   24.5154 H   0  0  0  0  0  0
  -15.5325  -30.2897   23.7711 H   0  0  0  0  0  0
  -15.8678  -28.0783   22.7054 H   0  0  0  0  0  0
  -24.5944  -30.6983   25.7832 H   0  0  0  0  0  0
  -24.8883  -32.2750   26.4968 H   0  0  0  0  0  0
  -25.8090  -30.8794   27.0253 H   0  0  0  0  0  0
  -26.3015  -29.6658   24.1322 H   0  0  0  0  0  0
  -27.4330  -29.7369   25.4679 H   0  0  0  0  0  0
  -27.8768  -30.4388   23.9306 H   0  0  0  0  0  0
  -27.2843  -33.3673   26.1986 H   0  0  0  0  0  0
  -28.3941  -32.6752   25.0280 H   0  0  0  0  0  0
  -28.0753  -31.8441   26.5441 H   0  0  0  0  0  0
  -28.2577  -38.0108   24.7541 H   0  0  0  0  0  0
  -28.1123  -36.2661   24.6274 H   0  0  0  0  0  0
  -27.2300  -37.1443   25.8851 H   0  0  0  0  0  0
  -20.9354  -29.8737   21.6927 H   0  0  0  0  0  0
  -26.0199  -38.2824   24.1391 H   0  0  0  0  0  0
  -27.7392  -18.4776   22.8294 H   0  0  0  0  0  0
  -26.3241  -20.4323   22.6261 H   0  0  0  0  0  0
  -31.8869  -19.6365   20.7042 H   0  0  0  0  0  0
  -31.7504  -21.3555   20.5113 H   0  0  0  0  0  0
  -31.1516  -20.2766   19.2377 H   0  0  0  0  0  0
  -23.9175  -22.9513   22.6901 H   0  0  0  0  0  0
  -25.2961  -24.0421   22.7611 H   0  0  0  0  0  0
  -25.4286  -22.4127   23.4129 H   0  0  0  0  0  0
  -23.7760  -23.2296   20.0595 H   0  0  0  0  0  0
  -25.2657  -23.0672   19.1317 H   0  0  0  0  0  0
  -25.0577  -24.4070   20.2615 H   0  0  0  0  0  0
  -29.8150  -17.4948   22.7816 H   0  0  0  0  0  0
  -31.2141  -18.0953   21.9945 H   0  0  0  0  0  0
  -28.6735  -22.7500   19.0500 H   0  0  0  0  0  0
  -30.3361  -22.6497   19.4148 H   0  0  0  0  0  0
  -30.3245  -24.6737   20.4247 H   0  0  0  0  0  0
  -29.1031  -24.1997   21.5636 H   0  0  0  0  0  0
  -30.5987  -17.0953   19.8719 H   0  0  0  0  0  0
  -28.9139  -17.0705   20.2884 H   0  0  0  0  0  0
  -27.3377  -24.8132   20.0358 H   0  0  0  0  0  0
  -28.4314  -25.1388   18.7116 H   0  0  0  0  0  0
  -25.1516  -21.4758   21.0657 H   0  0  0  0  0  0
  -29.0850  -15.1598   21.5707 H   0  0  0  0  0  0
  1 25  1  0  0  0
  1 30  2  0  0  0
  1 86  1  0  0  0
  2  3  1  0  0  0
  2 25  1  0  0  0
  2 88  1  0  0  0
  2 89  1  0  0  0
  3  4  1  0  0  0
  3 90  1  0  0  0
  3 91  1  0  0  0
  4  5  1  0  0  0
  4 92  1  0  0  0
  4 93  1  0  0  0
  5  6  1  0  0  0
  5 26  1  0  0  0
  5 94  1  0  0  0
  6 25  1  0  0  0
  6 95  1  0  0  0
  6 96  1  0  0  0
  7  8  2  0  0  0
  7 26  1  0  0  0
  7 29  1  0  0  0
  8  9  1  0  0  0
  8 22  1  0  0  0
  9 10  1  0  0  0
  9 27  2  0  0  0
 10 11  2  0  0  0
 10 15  1  0  0  0
 11 12  1  0  0  0
 11 97  1  0  0  0
 12 13  2  0  0  0
 12 98  1  0  0  0
 13 14  1  0  0  0
 13 31  1  0  0  0
 14 15  2  0  0  0
 14 99  1  0  0  0
 15100  1  0  0  0
 16 17  2  0  0  0
 16 21  1  0  0  0
 16 31  1  0  0  0
 17 18  1  0  0  0
 17101  1  0  0  0
 18 19  2  0  0  0
 18102  1  0  0  0
 19 20  1  0  0  0
 19 24  1  0  0  0
 20 21  2  0  0  0
 20103  1  0  0  0
 21 23  1  0  0  0
 22 28  1  0  0  0
 22 32  2  0  0  0
 26 27  1  0  0  0
 28104  1  0  0  0
 28105  1  0  0  0
 29106  1  0  0  0
 29107  1  0  0  0
 33 34  1  0  0  0
 33 66  1  0  0  0
 33 70  2  0  0  0
 34 36  1  0  0  0
 34 59  1  0  0  0
 34108  1  0  0  0
 35 44  2  0  0  0
 35 45  1  0  0  0
 35 68  1  0  0  0
 36 56  1  0  0  0
 36109  1  0  0  0
 37 39  1  0  0  0
 37 47  1  0  0  0
 37 66  1  0  0  0
 37110  1  0  0  0
 38 43  2  0  0  0
 38 46  1  0  0  0
 38 47  1  0  0  0
 39 64  1  0  0  0
 39 67  2  0  0  0
 40 52  1  0  0  0
 40 53  2  0  0  0
 40 58  1  0  0  0
 41111  1  0  0  0
 41112  1  0  0  0
 41113  1  0  0  0
 41 48  1  0  0  0
 42 43  1  0  0  0
 42 66  1  0  0  0
 42114  1  0  0  0
 42115  1  0  0  0
 43 44  1  0  0  0
 44116  1  0  0  0
 45 46  2  0  0  0
 45117  1  0  0  0
 46118  1  0  0  0
 47119  1  0  0  0
 47120  1  0  0  0
 48 56  1  0  0  0
 48 65  1  0  0  0
 48121  1  0  0  0
 49 50  1  0  0  0
 49 53  1  0  0  0
 49 64  1  0  0  0
 49122  1  0  0  0
 50 51  1  0  0  0
 50123  1  0  0  0
 50124  1  0  0  0
 51 52  1  0  0  0
 51125  1  0  0  0
 51126  1  0  0  0
 52127  1  0  0  0
 52128  1  0  0  0
 53 54  1  0  0  0
 54 55  2  0  0  0
 54129  1  0  0  0
 55 57  1  0  0  0
 55130  1  0  0  0
 56 69  2  0  0  0
 57 58  2  0  0  0
 57131  1  0  0  0
 58132  1  0  0  0
 59 60  1  0  0  0
 59 61  1  0  0  0
 59 62  1  0  0  0
 60133  1  0  0  0
 60134  1  0  0  0
 60135  1  0  0  0
 61136  1  0  0  0
 61137  1  0  0  0
 61138  1  0  0  0
 62139  1  0  0  0
 62140  1  0  0  0
 62141  1  0  0  0
 63 65  1  0  0  0
 63142  1  0  0  0
 63143  1  0  0  0
 63144  1  0  0  0
 64145  1  0  0  0
 65146  1  0  0  0
 68 84  1  0  0  0
 71 72  2  0  0  0
 71 73  1  0  0  0
 71147  1  0  0  0
 72 76  1  0  0  0
 72148  1  0  0  0
 73 74  2  0  0  0
 73 80  1  0  0  0
 74 75  1  0  0  0
 74 77  1  0  0  0
 75 76  2  0  0  0
 75 81  1  0  0  0
 76 87  1  0  0  0
 77149  1  0  0  0
 77150  1  0  0  0
 77151  1  0  0  0
 78152  1  0  0  0
 78153  1  0  0  0
 78154  1  0  0  0
 78 85  1  0  0  0
 79 85  1  0  0  0
 79155  1  0  0  0
 79156  1  0  0  0
 79157  1  0  0  0
 80 83  1  0  0  0
 80158  1  0  0  0
 80159  1  0  0  0
 81 82  1  0  0  0
 81160  1  0  0  0
 81161  1  0  0  0
 82 84  1  0  0  0
 82162  1  0  0  0
 82163  1  0  0  0
 83 86  1  0  0  0
 83164  1  0  0  0
 83165  1  0  0  0
 84166  1  0  0  0
 84167  1  0  0  0
 85 87  1  0  0  0
 85168  1  0  0  0
 86169  1  0  0  0
M  ISO  4   1 100  68 101  84 101  86 100
M  END
> <chiral flag>
0

> <version>
0

> <s_m_source_file>
/data/baiqing/PycharmProjects/Reinvent-master-3.2/result/LINK_invent/BTK/process_docking_weight1_custom_sum_contain_oxygen_bond_distance_aromatic_linkinvent_7_9_3/rearranged_h_0094.sdf

> <i_m_source_file_index>
48

> <r_mmod_Potential_Energy-OPLS-2005>
-42.2358322143555

> <r_mmod_Stretch_Energy-OPLS-2005>
54.8894538879395

> <r_mmod_Bend_Energy-OPLS-2005>
123.980041503906

> <r_mmod_Torsional_Energy-OPLS-2005>
230.001037597656

> <r_mmod_Improper_Torsional_Energy-OPLS-2005>
6.16573858261108

> <r_mmod_Van_der_Waal_Energy-OPLS-2005>
156.626281738281

> <r_mmod_Electrostatic_Energy-OPLS-2005>
-422.434539794922

> <r_mmod_Solvation_Energy-OPLS-2005>
-210.216232299805

> <b_mmod_Minimization_Converged-OPLS-2005>
0

> <r_mmod_RMS_Derivative-OPLS-2005>
3.06402444839478

$$$$
48
                    3D
 Structure written by MMmdl.
172180  0  0  1  0            999 V2000
  -30.7090  -14.4937   20.6234 C   0  0  0  0  0  0
  -30.4504  -12.3392   19.4677 C   0  0  0  0  0  0
  -29.5365  -12.5217   18.2420 C   0  0  0  0  0  0
  -28.0536  -12.3689   18.6468 C   0  0  0  0  0  0
  -27.6756  -13.2156   19.8955 C   0  0  2  0  0  0
  -28.7107  -13.0057   21.0284 C   0  0  0  0  0  0
  -25.2650  -13.8033   20.5839 C   0  0  0  0  0  0
  -24.1863  -13.0261   20.9166 C   0  0  0  0  0  0
  -24.6456  -11.6782   20.8664 C   0  0  0  0  0  0
  -23.9064  -10.4180   21.0336 C   0  0  0  0  0  0
  -24.3592   -9.4157   21.9182 C   0  0  0  0  0  0
  -23.6230   -8.2242   22.0787 C   0  0  0  0  0  0
  -22.4244   -8.0274   21.3544 C   0  0  0  0  0  0
  -21.9854   -9.0238   20.4680 C   0  0  0  0  0  0
  -22.7191  -10.2094   20.3045 C   0  0  0  0  0  0
  -21.6863   -6.0687   22.5261 C   0  0  0  0  0  0
  -21.4046   -6.5615   23.8196 C   0  0  0  0  0  0
  -21.3631   -5.6757   24.9143 C   0  0  0  0  0  0
  -21.6037   -4.3030   24.7198 C   0  0  0  0  0  0
  -21.8831   -3.8126   23.4335 C   0  0  0  0  0  0
  -21.9191   -4.6914   22.3385 C   0  0  0  0  0  0
  -22.7924  -13.5201   21.1702 C   0  0  0  0  0  0
  -22.1661   -4.2112   21.0960 F   0  0  0  0  0  0
  -21.5591   -3.4525   25.7715 F   0  0  0  0  0  0
  -30.0546  -13.3070   20.4955 N   0  0  0  0  0  0
  -26.3091  -12.9253   20.3468 N   0  0  0  0  0  0
  -25.9419  -11.6389   20.5837 N   0  0  0  0  0  0
  -22.0488  -12.8281   22.0292 N   0  0  0  0  0  0
  -25.4214  -15.1658   20.4427 N   0  0  0  0  0  0
  -31.7626  -14.7335   20.0323 O   0  0  0  0  0  0
  -21.6614   -6.8848   21.4232 O   0  0  0  0  0  0
  -22.3606  -14.5393   20.6394 O   0  0  0  0  0  0
  -24.6178  -31.8684   23.2055 C   0  0  0  0  0  0
  -25.9086  -32.4805   23.8347 C   0  0  1  0  0  0
  -27.2553  -27.4189   20.1342 C   0  0  0  0  0  0
  -25.5940  -33.8582   24.2301 N   0  0  0  0  0  0
  -23.4030  -30.4961   21.5410 C   0  0  2  0  0  0
  -24.8579  -28.9478   20.1253 C   0  0  0  0  0  0
  -22.7375  -29.4789   22.4984 C   0  0  0  0  0  0
  -18.0297  -28.1420   22.8650 C   0  0  0  0  0  0
  -24.1513  -36.7316   23.2661 C   0  0  0  0  0  0
  -25.9368  -30.8339   21.3559 C   0  0  0  0  0  0
  -26.0207  -29.4633   20.7125 C   0  0  0  0  0  0
  -27.2268  -28.7164   20.7042 C   0  0  0  0  0  0
  -26.0815  -26.9287   19.5218 C   0  0  0  0  0  0
  -24.8914  -27.6790   19.5226 C   0  0  0  0  0  0
  -23.6222  -29.8261   20.1610 C   0  0  0  0  0  0
  -25.4119  -36.3067   24.0369 C   0  0  1  0  0  0
  -20.5889  -28.3712   23.1376 C   0  0  2  0  0  0
  -20.6710  -26.9553   22.5080 C   0  0  0  0  0  0
  -19.5611  -26.6952   21.4767 C   0  0  0  0  0  0
  -18.1939  -26.8130   22.1660 C   0  0  0  0  0  0
  -19.1631  -28.8873   23.3061 C   0  0  0  0  0  0
  -18.9609  -30.1460   23.9192 C   0  0  0  0  0  0
  -17.6578  -30.6622   24.0644 C   0  0  0  0  0  0
  -25.8980  -34.9454   23.5062 C   0  0  0  0  0  0
  -16.5502  -29.9170   23.6499 C   0  0  0  0  0  0
  -16.7283  -28.6438   23.0697 C   0  0  0  0  0  0
  -26.4479  -31.6546   25.0680 C   0  0  0  0  0  0
  -25.3766  -31.3692   26.1464 C   0  0  0  0  0  0
  -27.0318  -30.2991   24.6062 C   0  0  0  0  0  0
  -27.6005  -32.4282   25.7487 C   0  0  0  0  0  0
  -27.5573  -37.1831   24.8479 C   0  0  0  0  0  0
  -21.4039  -29.3223   22.3780 N   0  0  0  0  0  0
  -26.4280  -37.3801   23.9397 N   0  0  0  0  0  0
  -24.6694  -31.0831   22.0902 N   0  0  0  0  0  0
  -23.4160  -28.8211   23.2950 O   0  0  0  0  0  0
  -28.3936  -26.6241   20.2041 O   0  0  0  0  0  0
  -26.5609  -34.8948   22.4629 O   0  0  0  0  0  0
  -23.5385  -32.1438   23.7441 O   0  0  0  0  0  0
  -28.7485  -19.9589   21.5873 C   0  0  0  0  0  0
  -28.4357  -18.9635   20.6998 C   0  0  0  0  0  0
  -27.5859  -19.5626   19.6930 C   0  0  0  0  0  0
  -27.1664  -20.7748   20.2369 C   0  0  0  0  0  0
  -25.9627  -21.6553   19.9299 C   0  0  0  0  0  0
  -26.2847  -19.7181   17.3814 C   0  0  0  0  0  0
  -26.5663  -17.4775   18.4155 C   0  0  0  0  0  0
  -30.4183  -25.6272   22.0332 C   0  0  0  0  0  0
  -28.7584  -17.4602   20.8310 C   0  0  0  0  0  0
  -29.4219  -23.2487   22.0344 C   0  0  0  0  0  0
  -28.1023  -22.3842   22.0458 C   0  0  0  0  0  0
  -30.1725  -16.9185   21.2096 C   0  0  0  0  0  0
  -28.2063  -25.3291   20.8338 C   0  0  0  0  0  0
  -27.1673  -18.9000   18.3351 C   0  0  0  0  0  0
  -29.5311  -24.6267   21.2465 C   0  0  2  0  0  0
  -28.0521  -21.1110   21.2674 N   0  0  0  0  0  0
  -30.0895  -15.4418   21.3520 N   0  0  0  0  0  0
  -31.4970  -12.4507   19.1747 H   0  0  0  0  0  0
  -30.3692  -11.3227   19.8620 H   0  0  0  0  0  0
  -29.8069  -11.7943   17.4783 H   0  0  0  0  0  0
  -29.7267  -13.5109   17.8077 H   0  0  0  0  0  0
  -27.8830  -11.3117   18.8658 H   0  0  0  0  0  0
  -27.4112  -12.6223   17.8075 H   0  0  0  0  0  0
  -27.7220  -14.2660   19.6051 H   0  0  0  0  0  0
  -28.6979  -11.9670   21.3733 H   0  0  0  0  0  0
  -28.4551  -13.6044   21.8981 H   0  0  0  0  0  0
  -25.2745   -9.5591   22.4737 H   0  0  0  0  0  0
  -23.9873   -7.4641   22.7562 H   0  0  0  0  0  0
  -21.0765   -8.8789   19.9018 H   0  0  0  0  0  0
  -22.3694  -10.9618   19.6151 H   0  0  0  0  0  0
  -21.2124   -7.6154   23.9678 H   0  0  0  0  0  0
  -21.1409   -6.0512   25.9030 H   0  0  0  0  0  0
  -22.0646   -2.7596   23.2852 H   0  0  0  0  0  0
  -22.4094  -12.0047   22.4822 H   0  0  0  0  0  0
  -21.1145  -13.1462   22.2437 H   0  0  0  0  0  0
  -24.6176  -15.7837   20.4400 H   0  0  0  0  0  0
  -26.2521  -15.5882   20.0578 H   0  0  0  0  0  0
  -26.7215  -32.5581   23.1138 H   0  0  0  0  0  0
  -25.0117  -33.9730   25.0477 H   0  0  0  0  0  0
  -22.6961  -31.3238   21.4054 H   0  0  0  0  0  0
  -23.3720  -35.9684   23.3269 H   0  0  0  0  0  0
  -24.3643  -36.8964   22.2079 H   0  0  0  0  0  0
  -23.7304  -37.6533   23.6669 H   0  0  0  0  0  0
  -26.0592  -31.5856   20.5741 H   0  0  0  0  0  0
  -26.8193  -30.8881   21.9844 H   0  0  0  0  0  0
  -28.1208  -29.1215   21.1615 H   0  0  0  0  0  0
  -26.0982  -25.9511   19.0652 H   0  0  0  0  0  0
  -24.0122  -27.2607   19.0548 H   0  0  0  0  0  0
  -23.7504  -30.6022   19.4032 H   0  0  0  0  0  0
  -22.7344  -29.2733   19.8496 H   0  0  0  0  0  0
  -25.1287  -36.1890   25.0890 H   0  0  0  0  0  0
  -20.9944  -28.3070   24.1440 H   0  0  0  0  0  0
  -20.5330  -26.2370   23.3202 H   0  0  0  0  0  0
  -21.6778  -26.7502   22.1319 H   0  0  0  0  0  0
  -19.6646  -25.7275   20.9769 H   0  0  0  0  0  0
  -19.6105  -27.4442   20.6855 H   0  0  0  0  0  0
  -17.3760  -26.6820   21.4486 H   0  0  0  0  0  0
  -18.0943  -26.0405   22.9227 H   0  0  0  0  0  0
  -19.7974  -30.7368   24.2679 H   0  0  0  0  0  0
  -17.5051  -31.6230   24.5188 H   0  0  0  0  0  0
  -15.5563  -30.3314   23.7656 H   0  0  0  0  0  0
  -15.8499  -28.0820   22.7837 H   0  0  0  0  0  0
  -24.5903  -30.7041   25.7871 H   0  0  0  0  0  0
  -24.8995  -32.2873   26.4922 H   0  0  0  0  0  0
  -25.8159  -30.8900   27.0224 H   0  0  0  0  0  0
  -26.2866  -29.6757   24.1111 H   0  0  0  0  0  0
  -27.4095  -29.7245   25.4514 H   0  0  0  0  0  0
  -27.8685  -30.4325   23.9200 H   0  0  0  0  0  0
  -27.2555  -33.3572   26.2077 H   0  0  0  0  0  0
  -28.3834  -32.6894   25.0336 H   0  0  0  0  0  0
  -28.0640  -31.8412   26.5445 H   0  0  0  0  0  0
  -28.2620  -38.0119   24.7496 H   0  0  0  0  0  0
  -28.1048  -36.2629   24.6265 H   0  0  0  0  0  0
  -27.2329  -37.1493   25.8921 H   0  0  0  0  0  0
  -20.9007  -29.8773   21.6925 H   0  0  0  0  0  0
  -26.0112  -38.2883   24.1305 H   0  0  0  0  0  0
  -29.3473  -19.9448   22.4968 H   0  0  0  0  0  0
  -25.0716  -21.1015   19.6387 H   0  0  0  0  0  0
  -26.1768  -22.3998   19.1664 H   0  0  0  0  0  0
  -25.5640  -22.1530   20.8197 H   0  0  0  0  0  0
  -26.6898  -20.7084   17.1869 H   0  0  0  0  0  0
  -25.2572  -19.8081   17.7331 H   0  0  0  0  0  0
  -26.2185  -19.1970   16.4229 H   0  0  0  0  0  0
  -27.3012  -16.7011   18.2084 H   0  0  0  0  0  0
  -25.7835  -17.2687   17.6807 H   0  0  0  0  0  0
  -26.1191  -17.2979   19.3815 H   0  0  0  0  0  0
  -29.9946  -25.8758   23.0145 H   0  0  0  0  0  0
  -31.4284  -25.2399   22.1753 H   0  0  0  0  0  0
  -30.5301  -26.5708   21.4882 H   0  0  0  0  0  0
  -28.4744  -16.9118   19.9339 H   0  0  0  0  0  0
  -28.0613  -17.1290   21.6057 H   0  0  0  0  0  0
  -30.2858  -22.6336   21.7747 H   0  0  0  0  0  0
  -29.5825  -23.4744   23.0862 H   0  0  0  0  0  0
  -27.2489  -23.0248   21.8411 H   0  0  0  0  0  0
  -27.9730  -22.0658   23.0876 H   0  0  0  0  0  0
  -30.4794  -17.3337   22.1667 H   0  0  0  0  0  0
  -30.9329  -17.1869   20.4753 H   0  0  0  0  0  0
  -27.6668  -24.6599   20.1495 H   0  0  0  0  0  0
  -27.5920  -25.4607   21.7266 H   0  0  0  0  0  0
  -28.1106  -18.7941   17.7970 H   0  0  0  0  0  0
  -30.0640  -24.4058   20.3218 H   0  0  0  0  0  0
  -29.3500  -15.1254   21.9559 H   0  0  0  0  0  0
  1 25  1  0  0  0
  1 30  2  0  0  0
  1 87  1  0  0  0
  2  3  1  0  0  0
  2 25  1  0  0  0
  2 88  1  0  0  0
  2 89  1  0  0  0
  3  4  1  0  0  0
  3 90  1  0  0  0
  3 91  1  0  0  0
  4  5  1  0  0  0
  4 92  1  0  0  0
  4 93  1  0  0  0
  5  6  1  0  0  0
  5 26  1  0  0  0
  5 94  1  0  0  0
  6 25  1  0  0  0
  6 95  1  0  0  0
  6 96  1  0  0  0
  7  8  2  0  0  0
  7 26  1  0  0  0
  7 29  1  0  0  0
  8  9  1  0  0  0
  8 22  1  0  0  0
  9 10  1  0  0  0
  9 27  2  0  0  0
 10 11  2  0  0  0
 10 15  1  0  0  0
 11 12  1  0  0  0
 11 97  1  0  0  0
 12 13  2  0  0  0
 12 98  1  0  0  0
 13 14  1  0  0  0
 13 31  1  0  0  0
 14 15  2  0  0  0
 14 99  1  0  0  0
 15100  1  0  0  0
 16 17  2  0  0  0
 16 21  1  0  0  0
 16 31  1  0  0  0
 17 18  1  0  0  0
 17101  1  0  0  0
 18 19  2  0  0  0
 18102  1  0  0  0
 19 20  1  0  0  0
 19 24  1  0  0  0
 20 21  2  0  0  0
 20103  1  0  0  0
 21 23  1  0  0  0
 22 28  1  0  0  0
 22 32  2  0  0  0
 26 27  1  0  0  0
 28104  1  0  0  0
 28105  1  0  0  0
 29106  1  0  0  0
 29107  1  0  0  0
 33 34  1  0  0  0
 33 66  1  0  0  0
 33 70  2  0  0  0
 34 36  1  0  0  0
 34 59  1  0  0  0
 34108  1  0  0  0
 35 44  2  0  0  0
 35 45  1  0  0  0
 35 68  1  0  0  0
 36 56  1  0  0  0
 36109  1  0  0  0
 37 39  1  0  0  0
 37 47  1  0  0  0
 37 66  1  0  0  0
 37110  1  0  0  0
 38 43  2  0  0  0
 38 46  1  0  0  0
 38 47  1  0  0  0
 39 64  1  0  0  0
 39 67  2  0  0  0
 40 52  1  0  0  0
 40 53  2  0  0  0
 40 58  1  0  0  0
 41111  1  0  0  0
 41112  1  0  0  0
 41113  1  0  0  0
 41 48  1  0  0  0
 42 43  1  0  0  0
 42 66  1  0  0  0
 42114  1  0  0  0
 42115  1  0  0  0
 43 44  1  0  0  0
 44116  1  0  0  0
 45 46  2  0  0  0
 45117  1  0  0  0
 46118  1  0  0  0
 47119  1  0  0  0
 47120  1  0  0  0
 48 56  1  0  0  0
 48 65  1  0  0  0
 48121  1  0  0  0
 49 50  1  0  0  0
 49 53  1  0  0  0
 49 64  1  0  0  0
 49122  1  0  0  0
 50 51  1  0  0  0
 50123  1  0  0  0
 50124  1  0  0  0
 51 52  1  0  0  0
 51125  1  0  0  0
 51126  1  0  0  0
 52127  1  0  0  0
 52128  1  0  0  0
 53 54  1  0  0  0
 54 55  2  0  0  0
 54129  1  0  0  0
 55 57  1  0  0  0
 55130  1  0  0  0
 56 69  2  0  0  0
 57 58  2  0  0  0
 57131  1  0  0  0
 58132  1  0  0  0
 59 60  1  0  0  0
 59 61  1  0  0  0
 59 62  1  0  0  0
 60133  1  0  0  0
 60134  1  0  0  0
 60135  1  0  0  0
 61136  1  0  0  0
 61137  1  0  0  0
 61138  1  0  0  0
 62139  1  0  0  0
 62140  1  0  0  0
 62141  1  0  0  0
 63 65  1  0  0  0
 63142  1  0  0  0
 63143  1  0  0  0
 63144  1  0  0  0
 64145  1  0  0  0
 65146  1  0  0  0
 68 83  1  0  0  0
 71 72  2  0  0  0
 71 86  1  0  0  0
 71147  1  0  0  0
 72 73  1  0  0  0
 72 79  1  0  0  0
 73 74  2  0  0  0
 73 84  1  0  0  0
 74 75  1  0  0  0
 74 86  1  0  0  0
 75148  1  0  0  0
 75149  1  0  0  0
 75150  1  0  0  0
 76151  1  0  0  0
 76152  1  0  0  0
 76153  1  0  0  0
 76 84  1  0  0  0
 77 84  1  0  0  0
 77154  1  0  0  0
 77155  1  0  0  0
 77156  1  0  0  0
 78157  1  0  0  0
 78158  1  0  0  0
 78159  1  0  0  0
 78 85  1  0  0  0
 79 82  1  0  0  0
 79160  1  0  0  0
 79161  1  0  0  0
 80 81  1  0  0  0
 80 85  1  0  0  0
 80162  1  0  0  0
 80163  1  0  0  0
 81 86  1  0  0  0
 81164  1  0  0  0
 81165  1  0  0  0
 82 87  1  0  0  0
 82166  1  0  0  0
 82167  1  0  0  0
 83 85  1  0  0  0
 83168  1  0  0  0
 83169  1  0  0  0
 84170  1  0  0  0
 85171  1  0  0  0
 87172  1  0  0  0
M  ISO  4   1 100  68 101  83 101  87 100
M  END
> <chiral flag>
0

> <version>
0

> <s_m_source_file>
/data/baiqing/PycharmProjects/Reinvent-master-3.2/result/LINK_invent/BTK/process_docking_weight1_custom_sum_contain_oxygen_bond_distance_aromatic_linkinvent_7_9_3/rearranged_h_0094.sdf

> <i_m_source_file_index>
49

> <r_mmod_Potential_Energy-OPLS-2005>
48.6445121765137

> <r_mmod_Stretch_Energy-OPLS-2005>
64.4074783325195

> <r_mmod_Bend_Energy-OPLS-2005>
155.762390136719

> <r_mmod_Torsional_Energy-OPLS-2005>
304.491790771484

> <r_mmod_Improper_Torsional_Energy-OPLS-2005>
6.49942111968994

> <r_mmod_Van_der_Waal_Energy-OPLS-2005>
126.474967956543

> <r_mmod_Electrostatic_Energy-OPLS-2005>
-425.186187744141

> <r_mmod_Solvation_Energy-OPLS-2005>
-204.153854370117

> <b_mmod_Minimization_Converged-OPLS-2005>
0

> <r_mmod_RMS_Derivative-OPLS-2005>
18.0789833068848

$$$$
49
                    3D
 Structure written by MMmdl.
174181  0  0  1  0            999 V2000
  -29.5898  -15.4364   20.8106 C   0  0  0  0  0  0
  -30.3409  -13.0771   19.6870 C   0  0  0  0  0  0
  -29.5375  -12.7083   18.3902 C   0  0  0  0  0  0
  -28.0792  -12.3114   18.7026 C   0  0  0  0  0  0
  -27.5332  -13.2042   19.8340 C   0  0  2  0  0  0
  -28.4483  -13.1733   21.0475 C   0  0  0  0  0  0
  -25.1929  -13.8021   20.5378 C   0  0  0  0  0  0
  -24.1365  -13.0304   20.9152 C   0  0  0  0  0  0
  -24.5993  -11.6783   20.8726 C   0  0  0  0  0  0
  -23.8817  -10.4183   21.0480 C   0  0  0  0  0  0
  -24.3486   -9.4125   21.9225 C   0  0  0  0  0  0
  -23.6216   -8.2138   22.0772 C   0  0  0  0  0  0
  -22.4196   -8.0178   21.3560 C   0  0  0  0  0  0
  -21.9778   -9.0122   20.4660 C   0  0  0  0  0  0
  -22.7044  -10.2017   20.3089 C   0  0  0  0  0  0
  -21.6806   -6.0671   22.5301 C   0  0  0  0  0  0
  -21.3965   -6.5599   23.8224 C   0  0  0  0  0  0
  -21.3667   -5.6769   24.9199 C   0  0  0  0  0  0
  -21.6056   -4.3033   24.7254 C   0  0  0  0  0  0
  -21.8814   -3.8107   23.4382 C   0  0  0  0  0  0
  -21.9174   -4.6908   22.3428 C   0  0  0  0  0  0
  -22.7486  -13.5156   21.1960 C   0  0  0  0  0  0
  -22.1642   -4.2102   21.1000 F   0  0  0  0  0  0
  -21.5663   -3.4527   25.7772 F   0  0  0  0  0  0
  -29.5321  -14.0058   20.6155 N   0  0  0  0  0  0
  -26.2067  -12.9070   20.2676 N   0  0  0  0  0  0
  -25.8774  -11.6287   20.5429 N   0  0  0  0  0  0
  -22.0224  -12.8160   22.0580 N   0  0  0  0  0  0
  -25.3699  -15.1737   20.3762 N   0  0  0  0  0  0
  -30.7432  -15.7587   20.3966 O   0  0  0  0  0  0
  -21.6584   -6.8779   21.4251 O   0  0  0  0  0  0
  -22.3187  -14.5484   20.6841 O   0  0  0  0  0  0
  -24.6519  -31.9263   23.2493 C   0  0  0  0  0  0
  -25.9432  -32.5068   23.8762 C   0  0  1  0  0  0
  -26.6622  -27.3411   20.1042 C   0  0  0  0  0  0
  -25.6280  -33.8834   24.2631 N   0  0  0  0  0  0
  -23.4604  -30.5952   21.5992 C   0  0  2  0  0  0
  -24.8875  -29.3392   19.8433 C   0  0  0  0  0  0
  -23.0315  -29.4659   22.5792 C   0  0  0  0  0  0
  -18.4293  -27.6489   22.5979 C   0  0  0  0  0  0
  -24.1516  -36.7371   23.2594 C   0  0  0  0  0  0
  -25.9980  -30.8457   21.4595 C   0  0  0  0  0  0
  -25.9807  -29.5542   20.6815 C   0  0  0  0  0  0
  -26.9695  -28.5539   20.7752 C   0  0  0  0  0  0
  -26.0677  -27.4378   18.8721 C   0  0  0  0  0  0
  -24.9976  -28.3567   18.8333 C   0  0  0  0  0  0
  -23.6729  -30.2127   20.0973 C   0  0  0  0  0  0
  -25.4127  -36.3219   24.0335 C   0  0  1  0  0  0
  -21.2682  -28.0353   23.4945 C   0  0  2  0  0  0
  -22.1352  -26.3831   22.6402 C   0  0  0  0  0  0
  -20.5318  -25.2641   21.2603 C   0  0  0  0  0  0
  -18.6680  -26.1465   21.5666 C   0  0  0  0  0  0
  -19.5261  -28.4175   23.3832 C   0  0  0  0  0  0
  -19.1461  -29.6978   23.9563 C   0  0  0  0  0  0
  -17.8399  -30.2451   23.9624 C   0  0  0  0  0  0
  -25.9113  -34.9593   23.5196 C   0  0  0  0  0  0
  -16.8078  -29.4944   23.3867 C   0  0  0  0  0  0
  -17.1068  -28.2561   22.7320 C   0  0  0  0  0  0
  -26.4604  -31.6694   25.1065 C   0  0  0  0  0  0
  -25.3737  -31.3850   26.1691 C   0  0  0  0  0  0
  -27.0371  -30.3056   24.6580 C   0  0  0  0  0  0
  -27.6188  -32.4331   25.7861 C   0  0  0  0  0  0
  -27.5599  -37.1889   24.8461 C   0  0  0  0  0  0
  -21.7680  -29.2912   22.8763 N   0  0  0  0  0  0
  -26.4315  -37.3892   23.9406 N   0  0  0  0  0  0
  -24.7175  -31.1682   22.1300 N   0  0  0  0  0  0
  -23.8491  -28.7851   23.1852 O   0  0  0  0  0  0
  -25.7410  -26.5385   20.7628 O   0  0  0  0  0  0
  -26.5507  -34.8957   22.4654 O   0  0  0  0  0  0
  -23.5672  -32.1956   23.7873 O   0  0  0  0  0  0
  -25.3510  -18.0529   23.0656 C   0  0  0  0  0  0
  -20.9327  -24.2802   25.0730 C   0  0  0  0  0  0
  -25.4674  -21.4559   20.9567 C   0  0  0  0  0  0
  -25.9774  -21.2027   23.3777 C   0  0  0  0  0  0
  -28.0024  -15.9036   22.6810 C   0  0  0  0  0  0
  -22.5240  -23.3159   22.9108 C   0  0  0  0  0  0
  -23.3785  -21.5437   22.7022 C   0  0  0  0  0  0
  -22.3617  -27.2320   20.3219 C   0  0  0  0  0  0
  -27.5989  -18.0021   21.3848 C   0  0  0  0  0  0
  -24.0534  -26.4652   20.5484 C   0  0  0  0  0  0
  -20.7038  -27.4833   21.2744 C   0  0  0  0  0  0
  -25.8961  -18.8925   21.9074 C   0  0  2  0  0  0
  -20.9168  -24.3323   23.5386 C   0  0  2  0  0  0
  -25.0958  -20.6827   22.2289 C   0  0  0  0  0  0
  -28.3903  -16.3659   21.3427 N   0  0  0  0  0  0
  -20.1582  -26.0499   23.1920 O   0  0  0  0  0  0
  -31.2809  -13.5526   19.4034 H   0  0  0  0  0  0
  -30.6382  -12.1738   20.2218 H   0  0  0  0  0  0
  -30.0419  -11.9193   17.8297 H   0  0  0  0  0  0
  -29.5231  -13.5829   17.7391 H   0  0  0  0  0  0
  -28.0540  -11.2673   19.0159 H   0  0  0  0  0  0
  -27.4582  -12.3873   17.8098 H   0  0  0  0  0  0
  -27.4860  -14.2066   19.4059 H   0  0  0  0  0  0
  -28.7486  -12.1554   21.3034 H   0  0  0  0  0  0
  -27.9516  -13.5377   21.9377 H   0  0  0  0  0  0
  -25.2646   -9.5617   22.4775 H   0  0  0  0  0  0
  -23.9961   -7.4506   22.7446 H   0  0  0  0  0  0
  -21.0733   -8.8593   19.8947 H   0  0  0  0  0  0
  -22.3515  -10.9557   19.6198 H   0  0  0  0  0  0
  -21.1911   -7.6104   23.9706 H   0  0  0  0  0  0
  -21.1527   -6.0515   25.9106 H   0  0  0  0  0  0
  -22.0591   -2.7568   23.2906 H   0  0  0  0  0  0
  -22.3878  -11.9800   22.4892 H   0  0  0  0  0  0
  -21.0883  -13.1203   22.2907 H   0  0  0  0  0  0
  -24.6044  -15.8265   20.4948 H   0  0  0  0  0  0
  -26.2103  -15.6130   20.0250 H   0  0  0  0  0  0
  -26.7535  -32.5629   23.1530 H   0  0  0  0  0  0
  -25.0570  -34.0044   25.0864 H   0  0  0  0  0  0
  -22.6811  -31.3597   21.6077 H   0  0  0  0  0  0
  -23.3786  -35.9699   23.3269 H   0  0  0  0  0  0
  -24.3639  -36.8951   22.2011 H   0  0  0  0  0  0
  -23.7245  -37.6585   23.6556 H   0  0  0  0  0  0
  -26.2445  -31.6578   20.7725 H   0  0  0  0  0  0
  -26.8414  -30.7572   22.1309 H   0  0  0  0  0  0
  -27.7259  -28.6015   21.5467 H   0  0  0  0  0  0
  -26.0256  -26.5874   18.2051 H   0  0  0  0  0  0
  -24.2365  -28.2636   18.0708 H   0  0  0  0  0  0
  -23.9150  -31.1443   19.5869 H   0  0  0  0  0  0
  -22.7499  -29.9644   19.5883 H   0  0  0  0  0  0
  -25.1271  -36.2133   25.0825 H   0  0  0  0  0  0
  -21.5385  -28.0510   24.5509 H   0  0  0  0  0  0
  -22.4180  -25.9465   23.5937 H   0  0  0  0  0  0
  -23.1922  -26.3660   22.5427 H   0  0  0  0  0  0
  -20.4677  -24.1756   21.2773 H   0  0  0  0  0  0
  -20.7317  -25.2816   20.1925 H   0  0  0  0  0  0
  -18.1839  -26.3165   20.6039 H   0  0  0  0  0  0
  -18.0360  -25.3837   22.0261 H   0  0  0  0  0  0
  -19.9122  -30.2744   24.4560 H   0  0  0  0  0  0
  -17.6382  -31.1958   24.4377 H   0  0  0  0  0  0
  -15.7936  -29.8697   23.4014 H   0  0  0  0  0  0
  -16.2830  -27.7494   22.2486 H   0  0  0  0  0  0
  -24.5981  -30.7135   25.7984 H   0  0  0  0  0  0
  -24.8854  -32.3016   26.5017 H   0  0  0  0  0  0
  -25.7998  -30.9111   27.0543 H   0  0  0  0  0  0
  -26.2977  -29.6903   24.1445 H   0  0  0  0  0  0
  -27.3772  -29.7245   25.5161 H   0  0  0  0  0  0
  -27.9035  -30.4233   24.0067 H   0  0  0  0  0  0
  -27.2864  -33.3662   26.2420 H   0  0  0  0  0  0
  -28.4059  -32.6818   25.0727 H   0  0  0  0  0  0
  -28.0764  -31.8428   26.5810 H   0  0  0  0  0  0
  -28.2621  -38.0185   24.7529 H   0  0  0  0  0  0
  -28.1096  -36.2724   24.6265 H   0  0  0  0  0  0
  -27.2320  -37.1517   25.8865 H   0  0  0  0  0  0
  -21.0777  -29.9284   22.5043 H   0  0  0  0  0  0
  -26.0215  -38.2977   24.1393 H   0  0  0  0  0  0
  -25.3796  -16.9908   22.8317 H   0  0  0  0  0  0
  -24.3112  -18.3066   23.2711 H   0  0  0  0  0  0
  -25.9232  -18.2177   23.9785 H   0  0  0  0  0  0
  -21.1375  -23.2687   25.4246 H   0  0  0  0  0  0
  -19.9725  -24.5880   25.4863 H   0  0  0  0  0  0
  -21.6969  -24.9339   25.4915 H   0  0  0  0  0  0
  -25.3254  -22.5304   21.0889 H   0  0  0  0  0  0
  -24.8438  -21.1478   20.1169 H   0  0  0  0  0  0
  -26.5092  -21.2980   20.6741 H   0  0  0  0  0  0
  -25.8251  -22.2673   23.5543 H   0  0  0  0  0  0
  -27.0380  -21.0477   23.1777 H   0  0  0  0  0  0
  -25.7396  -20.6865   24.3078 H   0  0  0  0  0  0
  -27.9098  -16.7251   23.3928 H   0  0  0  0  0  0
  -28.7284  -15.2275   23.1382 H   0  0  0  0  0  0
  -27.0386  -15.3997   22.6444 H   0  0  0  0  0  0
  -22.6247  -23.6760   21.8875 H   0  0  0  0  0  0
  -23.3206  -23.8455   23.4315 H   0  0  0  0  0  0
  -22.6890  -21.0542   22.0135 H   0  0  0  0  0  0
  -23.1460  -21.0698   23.6556 H   0  0  0  0  0  0
  -22.0453  -26.5853   19.5100 H   0  0  0  0  0  0
  -22.4505  -28.0668   19.6665 H   0  0  0  0  0  0
  -28.3346  -18.5659   21.9619 H   0  0  0  0  0  0
  -27.7720  -18.3603   20.3712 H   0  0  0  0  0  0
  -24.1983  -27.4282   21.0006 H   0  0  0  0  0  0
  -24.1057  -26.1756   19.5031 H   0  0  0  0  0  0
  -20.0990  -27.3867   20.3652 H   0  0  0  0  0  0
  -20.4071  -28.5314   21.2136 H   0  0  0  0  0  0
  -25.2823  -18.5860   21.0591 H   0  0  0  0  0  0
  -20.0905  -23.6625   23.2933 H   0  0  0  0  0  0
  1 25  1  0  0  0
  1 30  2  0  0  0
  1 85  1  0  0  0
  2  3  1  0  0  0
  2 25  1  0  0  0
  2 87  1  0  0  0
  2 88  1  0  0  0
  3  4  1  0  0  0
  3 89  1  0  0  0
  3 90  1  0  0  0
  4  5  1  0  0  0
  4 91  1  0  0  0
  4 92  1  0  0  0
  5  6  1  0  0  0
  5 26  1  0  0  0
  5 93  1  0  0  0
  6 25  1  0  0  0
  6 94  1  0  0  0
  6 95  1  0  0  0
  7  8  2  0  0  0
  7 26  1  0  0  0
  7 29  1  0  0  0
  8  9  1  0  0  0
  8 22  1  0  0  0
  9 10  1  0  0  0
  9 27  2  0  0  0
 10 11  2  0  0  0
 10 15  1  0  0  0
 11 12  1  0  0  0
 11 96  1  0  0  0
 12 13  2  0  0  0
 12 97  1  0  0  0
 13 14  1  0  0  0
 13 31  1  0  0  0
 14 15  2  0  0  0
 14 98  1  0  0  0
 15 99  1  0  0  0
 16 17  2  0  0  0
 16 21  1  0  0  0
 16 31  1  0  0  0
 17 18  1  0  0  0
 17100  1  0  0  0
 18 19  2  0  0  0
 18101  1  0  0  0
 19 20  1  0  0  0
 19 24  1  0  0  0
 20 21  2  0  0  0
 20102  1  0  0  0
 21 23  1  0  0  0
 22 28  1  0  0  0
 22 32  2  0  0  0
 26 27  1  0  0  0
 28103  1  0  0  0
 28104  1  0  0  0
 29105  1  0  0  0
 29106  1  0  0  0
 33 34  1  0  0  0
 33 66  1  0  0  0
 33 70  2  0  0  0
 34 36  1  0  0  0
 34 59  1  0  0  0
 34107  1  0  0  0
 35 44  2  0  0  0
 35 45  1  0  0  0
 35 68  1  0  0  0
 36 56  1  0  0  0
 36108  1  0  0  0
 37 39  1  0  0  0
 37 47  1  0  0  0
 37 66  1  0  0  0
 37109  1  0  0  0
 38 43  2  0  0  0
 38 46  1  0  0  0
 38 47  1  0  0  0
 39 64  1  0  0  0
 39 67  2  0  0  0
 40 52  1  0  0  0
 40 53  2  0  0  0
 40 58  1  0  0  0
 41110  1  0  0  0
 41111  1  0  0  0
 41112  1  0  0  0
 41 48  1  0  0  0
 42 43  1  0  0  0
 42 66  1  0  0  0
 42113  1  0  0  0
 42114  1  0  0  0
 43 44  1  0  0  0
 44115  1  0  0  0
 45 46  2  0  0  0
 45116  1  0  0  0
 46117  1  0  0  0
 47118  1  0  0  0
 47119  1  0  0  0
 48 56  1  0  0  0
 48 65  1  0  0  0
 48120  1  0  0  0
 49 50  1  0  0  0
 49 53  1  0  0  0
 49 64  1  0  0  0
 49121  1  0  0  0
 50 51  1  0  0  0
 50122  1  0  0  0
 50123  1  0  0  0
 51 52  1  0  0  0
 51124  1  0  0  0
 51125  1  0  0  0
 52126  1  0  0  0
 52127  1  0  0  0
 53 54  1  0  0  0
 54 55  2  0  0  0
 54128  1  0  0  0
 55 57  1  0  0  0
 55129  1  0  0  0
 56 69  2  0  0  0
 57 58  2  0  0  0
 57130  1  0  0  0
 58131  1  0  0  0
 59 60  1  0  0  0
 59 61  1  0  0  0
 59 62  1  0  0  0
 60132  1  0  0  0
 60133  1  0  0  0
 60134  1  0  0  0
 61135  1  0  0  0
 61136  1  0  0  0
 61137  1  0  0  0
 62138  1  0  0  0
 62139  1  0  0  0
 62140  1  0  0  0
 63 65  1  0  0  0
 63141  1  0  0  0
 63142  1  0  0  0
 63143  1  0  0  0
 64144  1  0  0  0
 65145  1  0  0  0
 68 80  1  0  0  0
 71146  1  0  0  0
 71147  1  0  0  0
 71148  1  0  0  0
 71 82  1  0  0  0
 72149  1  0  0  0
 72150  1  0  0  0
 72151  1  0  0  0
 72 83  1  0  0  0
 73152  1  0  0  0
 73153  1  0  0  0
 73154  1  0  0  0
 73 84  1  0  0  0
 74 84  1  0  0  0
 74155  1  0  0  0
 74156  1  0  0  0
 74157  1  0  0  0
 75 85  1  0  0  0
 75158  1  0  0  0
 75159  1  0  0  0
 75160  1  0  0  0
 76 77  1  0  0  0
 76 83  1  0  0  0
 76161  1  0  0  0
 76162  1  0  0  0
 77 84  1  0  0  0
 77163  1  0  0  0
 77164  1  0  0  0
 78 80  1  0  0  0
 78 81  1  0  0  0
 78165  1  0  0  0
 78166  1  0  0  0
 79 82  1  0  0  0
 79 85  1  0  0  0
 79167  1  0  0  0
 79168  1  0  0  0
 80169  1  0  0  0
 80170  1  0  0  0
 81 86  1  0  0  0
 81171  1  0  0  0
 81172  1  0  0  0
 82 84  1  0  0  0
 82173  1  0  0  0
 83 86  1  0  0  0
 83174  1  0  0  0
M  ISO  4   1 100  68 101  80 101  85 100
M  END
> <chiral flag>
0

> <version>
0

> <s_m_source_file>
/data/baiqing/PycharmProjects/Reinvent-master-3.2/result/LINK_invent/BTK/process_docking_weight1_custom_sum_contain_oxygen_bond_distance_aromatic_linkinvent_7_9_3/rearranged_h_0094.sdf

> <i_m_source_file_index>
50

> <r_mmod_Potential_Energy-OPLS-2005>
11750.3876953125

> <r_mmod_Stretch_Energy-OPLS-2005>
5613.3203125

> <r_mmod_Bend_Energy-OPLS-2005>
1456.03601074219

> <r_mmod_Torsional_Energy-OPLS-2005>
553.783630371094

> <r_mmod_Improper_Torsional_Energy-OPLS-2005>
32.6753425598145

> <r_mmod_Van_der_Waal_Energy-OPLS-2005>
1928.04528808594

> <r_mmod_Electrostatic_Energy-OPLS-2005>
-340.013824462891

> <r_mmod_Solvation_Energy-OPLS-2005>
-189.164291381836

> <b_mmod_Minimization_Converged-OPLS-2005>
0

> <r_mmod_RMS_Derivative-OPLS-2005>
4.26112747192383

$$$$
50
                    3D
 Structure written by MMmdl.
166174  0  0  1  0            999 V2000
  -29.7778  -15.6065   20.4252 C   0  0  0  0  0  0
  -30.3762  -13.1572   19.5040 C   0  0  0  0  0  0
  -29.4878  -12.5243   18.3513 C   0  0  0  0  0  0
  -28.1548  -12.0265   18.8770 C   0  0  0  0  0  0
  -27.5539  -13.1154   19.7815 C   0  0  2  0  0  0
  -28.4963  -13.4073   20.9542 C   0  0  0  0  0  0
  -25.2187  -13.7767   20.5570 C   0  0  0  0  0  0
  -24.1449  -13.0172   20.9160 C   0  0  0  0  0  0
  -24.5990  -11.6623   20.8689 C   0  0  0  0  0  0
  -23.8697  -10.4062   21.0526 C   0  0  0  0  0  0
  -24.3352   -9.4004   21.9303 C   0  0  0  0  0  0
  -23.6071   -8.2039   22.0793 C   0  0  0  0  0  0
  -22.4143   -8.0082   21.3507 C   0  0  0  0  0  0
  -21.9680   -8.9990   20.4671 C   0  0  0  0  0  0
  -22.6911  -10.1888   20.3092 C   0  0  0  0  0  0
  -21.6800   -6.0646   22.5299 C   0  0  0  0  0  0
  -21.3956   -6.5591   23.8213 C   0  0  0  0  0  0
  -21.3663   -5.6776   24.9210 C   0  0  0  0  0  0
  -21.6027   -4.3023   24.7259 C   0  0  0  0  0  0
  -21.8829   -3.8094   23.4388 C   0  0  0  0  0  0
  -21.9145   -4.6885   22.3436 C   0  0  0  0  0  0
  -22.7601  -13.5035   21.1983 C   0  0  0  0  0  0
  -22.1667   -4.2087   21.1005 F   0  0  0  0  0  0
  -21.5639   -3.4527   25.7780 F   0  0  0  0  0  0
  -29.5851  -14.1686   20.3649 N   0  0  0  0  0  0
  -26.2254  -12.8600   20.2740 N   0  0  0  0  0  0
  -25.8753  -11.5910   20.5345 N   0  0  0  0  0  0
  -22.0180  -12.8117   22.0581 N   0  0  0  0  0  0
  -25.4006  -15.1420   20.3996 N   0  0  0  0  0  0
  -30.9886  -15.7745   20.2159 O   0  0  0  0  0  0
  -21.6527   -6.8737   21.4243 O   0  0  0  0  0  0
  -22.3387  -14.5363   20.6898 O   0  0  0  0  0  0
  -24.5454  -31.8717   23.2434 C   0  0  0  0  0  0
  -25.8567  -32.4566   23.8538 C   0  0  1  0  0  0
  -26.9940  -27.5906   20.1687 C   0  0  0  0  0  0
  -25.6009  -33.8735   24.2401 N   0  0  0  0  0  0
  -23.2881  -30.5157   21.6337 C   0  0  2  0  0  0
  -24.6457  -29.0735   19.9607 C   0  0  0  0  0  0
  -22.7088  -29.4263   22.5370 C   0  0  0  0  0  0
  -18.0240  -28.1382   22.8516 C   0  0  0  0  0  0
  -24.1254  -36.7630   23.2655 C   0  0  0  0  0  0
  -25.7098  -30.9061   21.2668 C   0  0  0  0  0  0
  -25.7747  -29.5760   20.5700 C   0  0  0  0  0  0
  -26.9377  -28.9021   20.6768 C   0  0  0  0  0  0
  -25.8734  -27.0673   19.4536 C   0  0  0  0  0  0
  -24.7084  -27.8744   19.2201 C   0  0  0  0  0  0
  -23.4007  -29.9433   20.1494 C   0  0  0  0  0  0
  -25.3969  -36.3691   24.0372 C   0  0  1  0  0  0
  -20.5497  -28.3357   23.1535 C   0  0  2  0  0  0
  -20.6794  -26.9361   22.5335 C   0  0  0  0  0  0
  -19.5810  -26.6394   21.5224 C   0  0  0  0  0  0
  -18.2033  -26.7946   22.1596 C   0  0  0  0  0  0
  -19.1316  -28.8880   23.2992 C   0  0  0  0  0  0
  -18.9412  -30.1603   23.8997 C   0  0  0  0  0  0
  -17.6363  -30.6616   24.0608 C   0  0  0  0  0  0
  -25.9100  -34.9875   23.5256 C   0  0  0  0  0  0
  -16.5330  -29.9123   23.6253 C   0  0  0  0  0  0
  -16.7312  -28.6525   23.0407 C   0  0  0  0  0  0
  -26.4428  -31.6858   25.1135 C   0  0  0  0  0  0
  -25.3799  -31.3634   26.1810 C   0  0  0  0  0  0
  -27.0045  -30.3611   24.5725 C   0  0  0  0  0  0
  -27.6179  -32.4368   25.7949 C   0  0  0  0  0  0
  -27.5599  -37.2056   24.8500 C   0  0  0  0  0  0
  -21.4044  -29.2828   22.4080 N   0  0  0  0  0  0
  -26.4250  -37.4304   23.9604 N   0  0  0  0  0  0
  -24.5487  -31.0746   22.1396 N   0  0  0  0  0  0
  -23.3608  -28.7513   23.3334 O   0  0  0  0  0  0
  -28.0372  -26.7228   20.4651 O   0  0  0  0  0  0
  -26.5669  -34.9292   22.4744 O   0  0  0  0  0  0
  -23.5093  -32.1663   23.8475 O   0  0  0  0  0  0
  -25.5480  -20.2834   19.9665 C   0  0  0  0  0  0
  -26.6392  -20.8130   21.6493 C   0  0  0  0  0  0
  -26.8034  -19.7461   20.7009 C   0  0  0  0  0  0
  -24.9317  -21.5025   20.2533 C   0  0  0  0  0  0
  -22.1523  -22.3380   20.0902 C   0  0  0  0  0  0
  -23.7570  -23.8877   18.9993 C   0  0  0  0  0  0
  -28.1952  -18.4238   20.4222 C   0  0  0  0  0  0
  -26.4469  -25.6821   23.1503 C   0  0  0  0  0  0
  -25.9620  -24.1607   23.2853 C   0  0  0  0  0  0
  -27.9481  -25.7859   22.9137 C   0  0  0  0  0  0
  -25.6178  -23.3830   21.9163 C   0  0  0  0  0  0
  -28.4500  -26.8240   21.8234 C   0  0  0  0  0  0
  -23.6867  -22.6047   19.8942 C   0  0  0  0  0  0
  -25.7750  -21.9675   21.3687 N   0  0  0  0  0  0
  -28.6605  -16.6875   20.5685 N   0  0  0  0  0  0
  -31.1389  -13.7256   18.9642 H   0  0  0  0  0  0
  -31.0192  -12.4147   20.0347 H   0  0  0  0  0  0
  -30.0219  -11.7324   17.8248 H   0  0  0  0  0  0
  -29.2674  -13.3062   17.6201 H   0  0  0  0  0  0
  -28.3461  -11.1314   19.4787 H   0  0  0  0  0  0
  -27.5046  -11.7052   18.0787 H   0  0  0  0  0  0
  -27.4864  -14.0182   19.1680 H   0  0  0  0  0  0
  -28.7239  -12.4303   21.4571 H   0  0  0  0  0  0
  -27.9824  -13.9990   21.7243 H   0  0  0  0  0  0
  -25.2475   -9.5608   22.4910 H   0  0  0  0  0  0
  -23.9857   -7.4429   22.7464 H   0  0  0  0  0  0
  -21.0673   -8.8414   19.8931 H   0  0  0  0  0  0
  -22.3325  -10.9454   19.6193 H   0  0  0  0  0  0
  -21.1969   -7.6101   23.9698 H   0  0  0  0  0  0
  -21.1506   -6.0523   25.9091 H   0  0  0  0  0  0
  -22.0606   -2.7558   23.2891 H   0  0  0  0  0  0
  -22.3546  -11.9667   22.5033 H   0  0  0  0  0  0
  -21.0730  -13.1189   22.2750 H   0  0  0  0  0  0
  -24.5970  -15.7270   20.5302 H   0  0  0  0  0  0
  -26.1582  -15.5802   19.9159 H   0  0  0  0  0  0
  -26.6500  -32.5345   23.0968 H   0  0  0  0  0  0
  -25.0470  -33.9635   25.0844 H   0  0  0  0  0  0
  -22.5216  -31.2957   21.6511 H   0  0  0  0  0  0
  -23.3847  -35.9683   23.3166 H   0  0  0  0  0  0
  -24.3482  -36.9434   22.2213 H   0  0  0  0  0  0
  -23.6522  -37.6525   23.6641 H   0  0  0  0  0  0
  -25.5002  -31.5787   20.4509 H   0  0  0  0  0  0
  -26.6861  -31.1575   21.6477 H   0  0  0  0  0  0
  -27.8177  -29.3806   21.1454 H   0  0  0  0  0  0
  -25.7677  -26.0604   19.2579 H   0  0  0  0  0  0
  -23.8162  -27.6304   18.6055 H   0  0  0  0  0  0
  -23.2654  -30.7560   19.4258 H   0  0  0  0  0  0
  -22.4260  -29.4067   19.9982 H   0  0  0  0  0  0
  -25.0951  -36.2840   25.0905 H   0  0  0  0  0  0
  -21.0113  -28.3308   24.1456 H   0  0  0  0  0  0
  -20.6124  -26.2526   23.3713 H   0  0  0  0  0  0
  -21.6711  -26.7888   22.0946 H   0  0  0  0  0  0
  -19.6889  -25.6349   21.1370 H   0  0  0  0  0  0
  -19.6649  -27.3023   20.6659 H   0  0  0  0  0  0
  -17.4302  -26.6844   21.4018 H   0  0  0  0  0  0
  -18.0405  -26.0198   22.9053 H   0  0  0  0  0  0
  -19.7985  -30.7439   24.2366 H   0  0  0  0  0  0
  -17.4934  -31.6247   24.5193 H   0  0  0  0  0  0
  -15.5360  -30.2960   23.7564 H   0  0  0  0  0  0
  -15.8778  -28.0839   22.7059 H   0  0  0  0  0  0
  -24.5980  -30.6675   25.8211 H   0  0  0  0  0  0
  -24.8606  -32.2519   26.5546 H   0  0  0  0  0  0
  -25.8283  -30.8791   27.0483 H   0  0  0  0  0  0
  -26.2323  -29.7695   24.0391 H   0  0  0  0  0  0
  -27.4044  -29.7160   25.3634 H   0  0  0  0  0  0
  -27.7996  -30.5380   23.8375 H   0  0  0  0  0  0
  -27.2963  -33.3574   26.2707 H   0  0  0  0  0  0
  -28.4167  -32.6873   25.0977 H   0  0  0  0  0  0
  -28.0560  -31.8253   26.5773 H   0  0  0  0  0  0
  -28.2699  -38.0267   24.7795 H   0  0  0  0  0  0
  -28.0904  -36.2924   24.5934 H   0  0  0  0  0  0
  -27.2342  -37.1430   25.8847 H   0  0  0  0  0  0
  -20.9026  -29.8749   21.7466 H   0  0  0  0  0  0
  -26.0305  -38.3360   24.1796 H   0  0  0  0  0  0
  -25.1067  -19.7885   19.0615 H   0  0  0  0  0  0
  -27.0255  -20.7598   22.6558 H   0  0  0  0  0  0
  -21.8608  -21.9780   21.0518 H   0  0  0  0  0  0
  -21.6104  -21.8711   19.2991 H   0  0  0  0  0  0
  -21.5747  -23.2643   20.1268 H   0  0  0  0  0  0
  -24.5447  -24.5737   19.1991 H   0  0  0  0  0  0
  -22.8592  -24.5063   19.0901 H   0  0  0  0  0  0
  -23.6169  -23.7427   17.9486 H   0  0  0  0  0  0
  -29.0251  -19.0021   20.8512 H   0  0  0  0  0  0
  -28.3837  -18.5944   19.3771 H   0  0  0  0  0  0
  -26.1518  -26.2839   24.0131 H   0  0  0  0  0  0
  -25.8397  -26.2143   22.4343 H   0  0  0  0  0  0
  -25.0043  -24.3411   23.8206 H   0  0  0  0  0  0
  -26.4203  -23.6468   24.1522 H   0  0  0  0  0  0
  -28.3455  -24.8122   22.8332 H   0  0  0  0  0  0
  -28.3621  -26.2848   23.7858 H   0  0  0  0  0  0
  -25.8529  -23.9757   21.0395 H   0  0  0  0  0  0
  -24.5729  -23.3548   22.3319 H   0  0  0  0  0  0
  -29.5233  -26.7561   21.7830 H   0  0  0  0  0  0
  -28.2290  -27.7886   22.2634 H   0  0  0  0  0  0
  -23.6023  -23.3072   20.6726 H   0  0  0  0  0  0
  -27.7960  -16.2339   20.7835 H   0  0  0  0  0  0
  1 25  1  0  0  0
  1 30  2  0  0  0
  1 85  1  0  0  0
  2  3  1  0  0  0
  2 25  1  0  0  0
  2 86  1  0  0  0
  2 87  1  0  0  0
  3  4  1  0  0  0
  3 88  1  0  0  0
  3 89  1  0  0  0
  4  5  1  0  0  0
  4 90  1  0  0  0
  4 91  1  0  0  0
  5  6  1  0  0  0
  5 26  1  0  0  0
  5 92  1  0  0  0
  6 25  1  0  0  0
  6 93  1  0  0  0
  6 94  1  0  0  0
  7  8  2  0  0  0
  7 26  1  0  0  0
  7 29  1  0  0  0
  8  9  1  0  0  0
  8 22  1  0  0  0
  9 10  1  0  0  0
  9 27  2  0  0  0
 10 11  2  0  0  0
 10 15  1  0  0  0
 11 12  1  0  0  0
 11 95  1  0  0  0
 12 13  2  0  0  0
 12 96  1  0  0  0
 13 14  1  0  0  0
 13 31  1  0  0  0
 14 15  2  0  0  0
 14 97  1  0  0  0
 15 98  1  0  0  0
 16 17  2  0  0  0
 16 21  1  0  0  0
 16 31  1  0  0  0
 17 18  1  0  0  0
 17 99  1  0  0  0
 18 19  2  0  0  0
 18100  1  0  0  0
 19 20  1  0  0  0
 19 24  1  0  0  0
 20 21  2  0  0  0
 20101  1  0  0  0
 21 23  1  0  0  0
 22 28  1  0  0  0
 22 32  2  0  0  0
 26 27  1  0  0  0
 28102  1  0  0  0
 28103  1  0  0  0
 29104  1  0  0  0
 29105  1  0  0  0
 33 34  1  0  0  0
 33 66  1  0  0  0
 33 70  2  0  0  0
 34 36  1  0  0  0
 34 59  1  0  0  0
 34106  1  0  0  0
 35 44  2  0  0  0
 35 45  1  0  0  0
 35 68  1  0  0  0
 36 56  1  0  0  0
 36107  1  0  0  0
 37 39  1  0  0  0
 37 47  1  0  0  0
 37 66  1  0  0  0
 37108  1  0  0  0
 38 43  2  0  0  0
 38 46  1  0  0  0
 38 47  1  0  0  0
 39 64  1  0  0  0
 39 67  2  0  0  0
 40 52  1  0  0  0
 40 53  2  0  0  0
 40 58  1  0  0  0
 41109  1  0  0  0
 41110  1  0  0  0
 41111  1  0  0  0
 41 48  1  0  0  0
 42 43  1  0  0  0
 42 66  1  0  0  0
 42112  1  0  0  0
 42113  1  0  0  0
 43 44  1  0  0  0
 44114  1  0  0  0
 45 46  2  0  0  0
 45115  1  0  0  0
 46116  1  0  0  0
 47117  1  0  0  0
 47118  1  0  0  0
 48 56  1  0  0  0
 48 65  1  0  0  0
 48119  1  0  0  0
 49 50  1  0  0  0
 49 53  1  0  0  0
 49 64  1  0  0  0
 49120  1  0  0  0
 50 51  1  0  0  0
 50121  1  0  0  0
 50122  1  0  0  0
 51 52  1  0  0  0
 51123  1  0  0  0
 51124  1  0  0  0
 52125  1  0  0  0
 52126  1  0  0  0
 53 54  1  0  0  0
 54 55  2  0  0  0
 54127  1  0  0  0
 55 57  1  0  0  0
 55128  1  0  0  0
 56 69  2  0  0  0
 57 58  2  0  0  0
 57129  1  0  0  0
 58130  1  0  0  0
 59 60  1  0  0  0
 59 61  1  0  0  0
 59 62  1  0  0  0
 60131  1  0  0  0
 60132  1  0  0  0
 60133  1  0  0  0
 61134  1  0  0  0
 61135  1  0  0  0
 61136  1  0  0  0
 62137  1  0  0  0
 62138  1  0  0  0
 62139  1  0  0  0
 63 65  1  0  0  0
 63140  1  0  0  0
 63141  1  0  0  0
 63142  1  0  0  0
 64143  1  0  0  0
 65144  1  0  0  0
 68 82  1  0  0  0
 71 73  1  0  0  0
 71 74  2  0  0  0
 71145  1  0  0  0
 72 73  2  0  0  0
 72 84  1  0  0  0
 72146  1  0  0  0
 73 77  1  0  0  0
 74 83  1  0  0  0
 74 84  1  0  0  0
 75147  1  0  0  0
 75148  1  0  0  0
 75149  1  0  0  0
 75 83  1  0  0  0
 76 83  1  0  0  0
 76150  1  0  0  0
 76151  1  0  0  0
 76152  1  0  0  0
 77 85  1  0  0  0
 77153  1  0  0  0
 77154  1  0  0  0
 78 79  1  0  0  0
 78 80  1  0  0  0
 78155  1  0  0  0
 78156  1  0  0  0
 79 81  1  0  0  0
 79157  1  0  0  0
 79158  1  0  0  0
 80 82  1  0  0  0
 80159  1  0  0  0
 80160  1  0  0  0
 81 84  1  0  0  0
 81161  1  0  0  0
 81162  1  0  0  0
 82163  1  0  0  0
 82164  1  0  0  0
 83165  1  0  0  0
 85166  1  0  0  0
M  ISO  4   1 100  68 101  82 101  85 100
M  END
> <chiral flag>
0

> <version>
0

> <s_m_source_file>
/data/baiqing/PycharmProjects/Reinvent-master-3.2/result/LINK_invent/BTK/process_docking_weight1_custom_sum_contain_oxygen_bond_distance_aromatic_linkinvent_7_9_3/rearranged_h_0094.sdf

> <i_m_source_file_index>
51

> <r_mmod_Potential_Energy-OPLS-2005>
2355.70458984375

> <r_mmod_Stretch_Energy-OPLS-2005>
783.123229980469

> <r_mmod_Bend_Energy-OPLS-2005>
837.992248535156

> <r_mmod_Torsional_Energy-OPLS-2005>
360.048095703125

> <r_mmod_Improper_Torsional_Energy-OPLS-2005>
7.18378734588623

> <r_mmod_Van_der_Waal_Energy-OPLS-2005>
171.421798706055

> <r_mmod_Electrostatic_Energy-OPLS-2005>
-408.159088134766

> <r_mmod_Solvation_Energy-OPLS-2005>
-211.371383666992

> <b_mmod_Minimization_Converged-OPLS-2005>
0

> <r_mmod_RMS_Derivative-OPLS-2005>
88.4375991821289

$$$$
51
                    3D
 Structure written by MMmdl.
158166  0  0  1  0            999 V2000
  -30.5203  -14.9785   20.3987 C   0  0  0  0  0  0
  -30.4333  -12.6063   19.4907 C   0  0  0  0  0  0
  -29.5130  -12.5310   18.2519 C   0  0  0  0  0  0
  -28.0479  -12.3166   18.6750 C   0  0  0  0  0  0
  -27.6234  -13.2486   19.8393 C   0  0  2  0  0  0
  -28.6704  -13.2905   20.9704 C   0  0  0  0  0  0
  -25.2453  -13.8203   20.5762 C   0  0  0  0  0  0
  -24.1765  -13.0416   20.9257 C   0  0  0  0  0  0
  -24.6380  -11.6906   20.8769 C   0  0  0  0  0  0
  -23.9054  -10.4290   21.0413 C   0  0  0  0  0  0
  -24.3613   -9.4203   21.9192 C   0  0  0  0  0  0
  -23.6304   -8.2232   22.0741 C   0  0  0  0  0  0
  -22.4291   -8.0276   21.3539 C   0  0  0  0  0  0
  -21.9915   -9.0242   20.4631 C   0  0  0  0  0  0
  -22.7225  -10.2129   20.3060 C   0  0  0  0  0  0
  -21.6875   -6.0723   22.5291 C   0  0  0  0  0  0
  -21.4001   -6.5630   23.8200 C   0  0  0  0  0  0
  -21.3672   -5.6794   24.9181 C   0  0  0  0  0  0
  -21.6069   -4.3064   24.7252 C   0  0  0  0  0  0
  -21.8817   -3.8142   23.4382 C   0  0  0  0  0  0
  -21.9194   -4.6957   22.3425 C   0  0  0  0  0  0
  -22.7799  -13.5206   21.1939 C   0  0  0  0  0  0
  -22.1674   -4.2135   21.1006 F   0  0  0  0  0  0
  -21.5638   -3.4550   25.7767 F   0  0  0  0  0  0
  -29.9334  -13.7120   20.3571 N   0  0  0  0  0  0
  -26.2869  -12.9421   20.3289 N   0  0  0  0  0  0
  -25.9301  -11.6544   20.5732 N   0  0  0  0  0  0
  -22.0467  -12.8155   22.0475 N   0  0  0  0  0  0
  -25.4121  -15.1948   20.4185 N   0  0  0  0  0  0
  -31.7318  -15.0358   20.1690 O   0  0  0  0  0  0
  -21.6665   -6.8874   21.4243 O   0  0  0  0  0  0
  -22.3483  -14.5520   20.6799 O   0  0  0  0  0  0
  -24.6483  -31.8386   23.1829 C   0  0  0  0  0  0
  -25.9253  -32.4658   23.8228 C   0  0  1  0  0  0
  -27.2154  -27.0779   20.1565 C   0  0  0  0  0  0
  -25.6001  -33.8469   24.2180 N   0  0  0  0  0  0
  -23.4519  -30.4556   21.5289 C   0  0  2  0  0  0
  -24.9055  -28.8621   20.1174 C   0  0  0  0  0  0
  -22.7557  -29.4547   22.4839 C   0  0  0  0  0  0
  -18.0298  -28.1391   22.8466 C   0  0  0  0  0  0
  -24.1512  -36.7213   23.2641 C   0  0  0  0  0  0
  -26.0132  -30.6910   21.3895 C   0  0  0  0  0  0
  -26.0863  -29.2933   20.7357 C   0  0  0  0  0  0
  -27.2436  -28.4174   20.7374 C   0  0  0  0  0  0
  -26.0077  -26.7546   19.5060 C   0  0  0  0  0  0
  -24.8792  -27.6059   19.4908 C   0  0  0  0  0  0
  -23.6847  -29.7728   20.1547 C   0  0  0  0  0  0
  -25.4138  -36.2974   24.0295 C   0  0  1  0  0  0
  -20.5907  -28.3731   23.1217 C   0  0  2  0  0  0
  -20.6778  -26.9432   22.5391 C   0  0  0  0  0  0
  -19.5779  -26.6390   21.5169 C   0  0  0  0  0  0
  -18.1953  -26.7942   22.1582 C   0  0  0  0  0  0
  -19.1558  -28.8871   23.2838 C   0  0  0  0  0  0
  -18.9483  -30.1457   23.8886 C   0  0  0  0  0  0
  -17.6484  -30.6604   24.0526 C   0  0  0  0  0  0
  -25.9087  -34.9359   23.5023 C   0  0  0  0  0  0
  -16.5369  -29.9084   23.6336 C   0  0  0  0  0  0
  -16.7273  -28.6486   23.0378 C   0  0  0  0  0  0
  -26.4561  -31.6545   25.0684 C   0  0  0  0  0  0
  -25.3720  -31.3732   26.1356 C   0  0  0  0  0  0
  -27.0413  -30.2937   24.6278 C   0  0  0  0  0  0
  -27.6094  -32.4281   25.7471 C   0  0  0  0  0  0
  -27.5562  -37.1755   24.8447 C   0  0  0  0  0  0
  -21.4248  -29.3062   22.3582 N   0  0  0  0  0  0
  -26.4279  -37.3698   23.9382 N   0  0  0  0  0  0
  -24.7242  -31.0172   22.0900 N   0  0  0  0  0  0
  -23.4183  -28.8122   23.3017 O   0  0  0  0  0  0
  -28.2650  -26.0767   20.1214 O   0  0  0  0  0  0
  -26.5661  -34.8849   22.4597 O   0  0  0  0  0  0
  -23.5590  -32.1344   23.6993 O   0  0  0  0  0  0
  -30.4796  -22.8684   19.3284 C   0  0  0  0  0  0
  -31.5432  -22.4028   18.5570 C   0  0  0  0  0  0
  -29.4467  -22.0132   19.7623 C   0  0  0  0  0  0
  -29.7004  -20.5077   19.5348 C   0  0  0  0  0  0
  -30.6729  -20.2580   18.5076 C   0  0  0  0  0  0
  -29.7615  -19.2041   16.3625 C   0  0  0  0  0  0
  -28.1698  -22.9641   20.1830 C   0  0  0  0  0  0
  -29.0972  -19.0635   20.0997 C   0  0  0  0  0  0
  -30.6658  -19.0129   17.5946 C   0  0  0  0  0  0
  -30.0905  -17.7197   20.5203 C   0  0  0  0  0  0
  -28.1113  -24.6175   20.6990 C   0  0  0  0  0  0
  -31.5806  -21.1535   18.0825 N   0  0  0  0  0  0
  -29.7295  -16.1678   20.4951 N   0  0  0  0  0  0
  -31.4663  -12.7710   19.1792 H   0  0  0  0  0  0
  -30.4244  -11.6602   20.0337 H   0  0  0  0  0  0
  -29.8227  -11.7241   17.5857 H   0  0  0  0  0  0
  -29.6029  -13.4582   17.6813 H   0  0  0  0  0  0
  -27.9463  -11.2735   18.9782 H   0  0  0  0  0  0
  -27.3839  -12.4540   17.8235 H   0  0  0  0  0  0
  -27.5754  -14.2504   19.4091 H   0  0  0  0  0  0
  -28.7733  -12.3135   21.4440 H   0  0  0  0  0  0
  -28.3666  -13.9907   21.7519 H   0  0  0  0  0  0
  -25.2758   -9.5709   22.4768 H   0  0  0  0  0  0
  -24.0037   -7.4629   22.7453 H   0  0  0  0  0  0
  -21.0854   -8.8743   19.8925 H   0  0  0  0  0  0
  -22.3671  -10.9673   19.6177 H   0  0  0  0  0  0
  -21.1937   -7.6127   23.9697 H   0  0  0  0  0  0
  -21.1515   -6.0535   25.9080 H   0  0  0  0  0  0
  -22.0573   -2.7600   23.2903 H   0  0  0  0  0  0
  -22.4137  -11.9817   22.4840 H   0  0  0  0  0  0
  -21.1052  -13.1108   22.2655 H   0  0  0  0  0  0
  -24.6386  -15.8448   20.5112 H   0  0  0  0  0  0
  -26.2460  -15.6347   20.0553 H   0  0  0  0  0  0
  -26.7318  -32.5233   23.0930 H   0  0  0  0  0  0
  -25.0097  -33.9618   25.0290 H   0  0  0  0  0  0
  -22.7546  -31.2804   21.3599 H   0  0  0  0  0  0
  -23.3766  -35.9547   23.3248 H   0  0  0  0  0  0
  -24.3649  -36.8913   22.2075 H   0  0  0  0  0  0
  -23.7269  -37.6376   23.6746 H   0  0  0  0  0  0
  -26.1697  -31.4425   20.6147 H   0  0  0  0  0  0
  -26.8818  -30.7509   22.0330 H   0  0  0  0  0  0
  -28.1434  -28.7479   21.2358 H   0  0  0  0  0  0
  -25.9242  -25.7977   19.0097 H   0  0  0  0  0  0
  -23.9736  -27.2722   19.0051 H   0  0  0  0  0  0
  -23.8306  -30.5420   19.3957 H   0  0  0  0  0  0
  -22.7955  -29.2227   19.8391 H   0  0  0  0  0  0
  -25.1338  -36.1750   25.0785 H   0  0  0  0  0  0
  -20.9990  -28.3320   24.1339 H   0  0  0  0  0  0
  -20.5624  -26.2346   23.3612 H   0  0  0  0  0  0
  -21.6647  -26.7414   22.1204 H   0  0  0  0  0  0
  -19.6952  -25.6279   21.1250 H   0  0  0  0  0  0
  -19.6744  -27.3144   20.6656 H   0  0  0  0  0  0
  -17.4207  -26.6649   21.3992 H   0  0  0  0  0  0
  -18.0386  -26.0081   22.8995 H   0  0  0  0  0  0
  -19.7950  -30.7244   24.2287 H   0  0  0  0  0  0
  -17.5038  -31.6289   24.5096 H   0  0  0  0  0  0
  -15.5380  -30.2969   23.7686 H   0  0  0  0  0  0
  -15.8667  -28.0767   22.7189 H   0  0  0  0  0  0
  -24.5949  -30.7044   25.7649 H   0  0  0  0  0  0
  -24.8852  -32.2900   26.4689 H   0  0  0  0  0  0
  -25.8009  -30.8964   27.0184 H   0  0  0  0  0  0
  -26.3047  -29.6642   24.1293 H   0  0  0  0  0  0
  -27.4018  -29.7258   25.4863 H   0  0  0  0  0  0
  -27.8950  -30.4141   23.9607 H   0  0  0  0  0  0
  -27.2761  -33.3630   26.1975 H   0  0  0  0  0  0
  -28.3980  -32.6769   25.0356 H   0  0  0  0  0  0
  -28.0681  -31.8425   26.5445 H   0  0  0  0  0  0
  -28.2510  -38.0110   24.7500 H   0  0  0  0  0  0
  -28.1131  -36.2630   24.6260 H   0  0  0  0  0  0
  -27.2285  -37.1327   25.8852 H   0  0  0  0  0  0
  -20.9480  -29.8780   21.6752 H   0  0  0  0  0  0
  -26.0105  -38.2730   24.1448 H   0  0  0  0  0  0
  -30.4329  -23.9335   19.5182 H   0  0  0  0  0  0
  -32.3035  -23.0800   18.1972 H   0  0  0  0  0  0
  -29.7435  -18.3056   15.7430 H   0  0  0  0  0  0
  -30.1010  -20.0320   15.7402 H   0  0  0  0  0  0
  -28.7351  -19.4134   16.6667 H   0  0  0  0  0  0
  -27.6953  -22.3991   20.9845 H   0  0  0  0  0  0
  -27.4707  -22.8789   19.3486 H   0  0  0  0  0  0
  -28.4014  -18.7202   19.3285 H   0  0  0  0  0  0
  -28.4539  -19.2858   20.9508 H   0  0  0  0  0  0
  -30.3477  -18.0897   18.0628 H   0  0  0  0  0  0
  -31.6870  -18.8161   17.2570 H   0  0  0  0  0  0
  -30.3857  -17.9004   21.5543 H   0  0  0  0  0  0
  -31.0435  -17.7904   20.0018 H   0  0  0  0  0  0
  -28.7662  -24.6335   21.5699 H   0  0  0  0  0  0
  -27.1111  -24.6782   21.1364 H   0  0  0  0  0  0
  -28.7460  -15.9835   20.6244 H   0  0  0  0  0  0
  1 25  1  0  0  0
  1 30  2  0  0  0
  1 83  1  0  0  0
  2  3  1  0  0  0
  2 25  1  0  0  0
  2 84  1  0  0  0
  2 85  1  0  0  0
  3  4  1  0  0  0
  3 86  1  0  0  0
  3 87  1  0  0  0
  4  5  1  0  0  0
  4 88  1  0  0  0
  4 89  1  0  0  0
  5  6  1  0  0  0
  5 26  1  0  0  0
  5 90  1  0  0  0
  6 25  1  0  0  0
  6 91  1  0  0  0
  6 92  1  0  0  0
  7  8  2  0  0  0
  7 26  1  0  0  0
  7 29  1  0  0  0
  8  9  1  0  0  0
  8 22  1  0  0  0
  9 10  1  0  0  0
  9 27  2  0  0  0
 10 11  2  0  0  0
 10 15  1  0  0  0
 11 12  1  0  0  0
 11 93  1  0  0  0
 12 13  2  0  0  0
 12 94  1  0  0  0
 13 14  1  0  0  0
 13 31  1  0  0  0
 14 15  2  0  0  0
 14 95  1  0  0  0
 15 96  1  0  0  0
 16 17  2  0  0  0
 16 21  1  0  0  0
 16 31  1  0  0  0
 17 18  1  0  0  0
 17 97  1  0  0  0
 18 19  2  0  0  0
 18 98  1  0  0  0
 19 20  1  0  0  0
 19 24  1  0  0  0
 20 21  2  0  0  0
 20 99  1  0  0  0
 21 23  1  0  0  0
 22 28  1  0  0  0
 22 32  2  0  0  0
 26 27  1  0  0  0
 28100  1  0  0  0
 28101  1  0  0  0
 29102  1  0  0  0
 29103  1  0  0  0
 33 34  1  0  0  0
 33 66  1  0  0  0
 33 70  2  0  0  0
 34 36  1  0  0  0
 34 59  1  0  0  0
 34104  1  0  0  0
 35 44  2  0  0  0
 35 45  1  0  0  0
 35 68  1  0  0  0
 36 56  1  0  0  0
 36105  1  0  0  0
 37 39  1  0  0  0
 37 47  1  0  0  0
 37 66  1  0  0  0
 37106  1  0  0  0
 38 43  2  0  0  0
 38 46  1  0  0  0
 38 47  1  0  0  0
 39 64  1  0  0  0
 39 67  2  0  0  0
 40 52  1  0  0  0
 40 53  2  0  0  0
 40 58  1  0  0  0
 41107  1  0  0  0
 41108  1  0  0  0
 41109  1  0  0  0
 41 48  1  0  0  0
 42 43  1  0  0  0
 42 66  1  0  0  0
 42110  1  0  0  0
 42111  1  0  0  0
 43 44  1  0  0  0
 44112  1  0  0  0
 45 46  2  0  0  0
 45113  1  0  0  0
 46114  1  0  0  0
 47115  1  0  0  0
 47116  1  0  0  0
 48 56  1  0  0  0
 48 65  1  0  0  0
 48117  1  0  0  0
 49 50  1  0  0  0
 49 53  1  0  0  0
 49 64  1  0  0  0
 49118  1  0  0  0
 50 51  1  0  0  0
 50119  1  0  0  0
 50120  1  0  0  0
 51 52  1  0  0  0
 51121  1  0  0  0
 51122  1  0  0  0
 52123  1  0  0  0
 52124  1  0  0  0
 53 54  1  0  0  0
 54 55  2  0  0  0
 54125  1  0  0  0
 55 57  1  0  0  0
 55126  1  0  0  0
 56 69  2  0  0  0
 57 58  2  0  0  0
 57127  1  0  0  0
 58128  1  0  0  0
 59 60  1  0  0  0
 59 61  1  0  0  0
 59 62  1  0  0  0
 60129  1  0  0  0
 60130  1  0  0  0
 60131  1  0  0  0
 61132  1  0  0  0
 61133  1  0  0  0
 61134  1  0  0  0
 62135  1  0  0  0
 62136  1  0  0  0
 62137  1  0  0  0
 63 65  1  0  0  0
 63138  1  0  0  0
 63139  1  0  0  0
 63140  1  0  0  0
 64141  1  0  0  0
 65142  1  0  0  0
 68 81  1  0  0  0
 71 72  2  0  0  0
 71 73  1  0  0  0
 71143  1  0  0  0
 72 82  1  0  0  0
 72144  1  0  0  0
 73 74  2  0  0  0
 73 77  1  0  0  0
 74 75  1  0  0  0
 74 78  1  0  0  0
 75 79  1  0  0  0
 75 82  2  0  0  0
 76 79  1  0  0  0
 76145  1  0  0  0
 76146  1  0  0  0
 76147  1  0  0  0
 77 81  1  0  0  0
 77148  1  0  0  0
 77149  1  0  0  0
 78 80  1  0  0  0
 78150  1  0  0  0
 78151  1  0  0  0
 79152  1  0  0  0
 79153  1  0  0  0
 80 83  1  0  0  0
 80154  1  0  0  0
 80155  1  0  0  0
 81156  1  0  0  0
 81157  1  0  0  0
 83158  1  0  0  0
M  ISO  4   1 100  68 101  81 101  83 100
M  END
> <chiral flag>
0

> <version>
0

> <s_m_source_file>
/data/baiqing/PycharmProjects/Reinvent-master-3.2/result/LINK_invent/BTK/process_docking_weight1_custom_sum_contain_oxygen_bond_distance_aromatic_linkinvent_7_9_3/rearranged_h_0094.sdf

> <i_m_source_file_index>
52

> <r_mmod_Potential_Energy-OPLS-2005>
610.968200683594

> <r_mmod_Stretch_Energy-OPLS-2005>
344.458953857422

> <r_mmod_Bend_Energy-OPLS-2005>
386.837951660156

> <r_mmod_Torsional_Energy-OPLS-2005>
274.858428955078

> <r_mmod_Improper_Torsional_Energy-OPLS-2005>
6.85789775848389

> <r_mmod_Van_der_Waal_Energy-OPLS-2005>
138.316253662109

> <r_mmod_Electrostatic_Energy-OPLS-2005>
-534.431640625

> <r_mmod_Solvation_Energy-OPLS-2005>
-232.25749206543

> <b_mmod_Minimization_Converged-OPLS-2005>
0

> <r_mmod_RMS_Derivative-OPLS-2005>
5.25232839584351

$$$$
52
                    3D
 Structure written by MMmdl.
157165  0  0  1  0            999 V2000
  -30.6932  -14.5319   20.5163 C   0  0  0  0  0  0
  -30.4141  -12.3267   19.4331 C   0  0  0  0  0  0
  -29.4949  -12.4941   18.2066 C   0  0  0  0  0  0
  -28.0185  -12.3375   18.6217 C   0  0  0  0  0  0
  -27.6507  -13.2136   19.8505 C   0  0  2  0  0  0
  -28.6930  -13.0734   20.9809 C   0  0  0  0  0  0
  -25.2557  -13.8193   20.5624 C   0  0  0  0  0  0
  -24.1821  -13.0449   20.9180 C   0  0  0  0  0  0
  -24.6393  -11.6937   20.8743 C   0  0  0  0  0  0
  -23.9073  -10.4319   21.0417 C   0  0  0  0  0  0
  -24.3626   -9.4224   21.9180 C   0  0  0  0  0  0
  -23.6286   -8.2258   22.0755 C   0  0  0  0  0  0
  -22.4248   -8.0309   21.3569 C   0  0  0  0  0  0
  -21.9913   -9.0282   20.4644 C   0  0  0  0  0  0
  -22.7262  -10.2156   20.3047 C   0  0  0  0  0  0
  -21.6859   -6.0743   22.5290 C   0  0  0  0  0  0
  -21.4019   -6.5642   23.8221 C   0  0  0  0  0  0
  -21.3653   -5.6794   24.9183 C   0  0  0  0  0  0
  -21.6035   -4.3057   24.7231 C   0  0  0  0  0  0
  -21.8819   -3.8155   23.4351 C   0  0  0  0  0  0
  -21.9188   -4.6971   22.3407 C   0  0  0  0  0  0
  -22.7849  -13.5260   21.1851 C   0  0  0  0  0  0
  -22.1657   -4.2156   21.0986 F   0  0  0  0  0  0
  -21.5629   -3.4535   25.7745 F   0  0  0  0  0  0
  -30.0140  -13.3560   20.4106 N   0  0  0  0  0  0
  -26.2973  -12.9355   20.3246 N   0  0  0  0  0  0
  -25.9308  -11.6538   20.5749 N   0  0  0  0  0  0
  -22.0447  -12.8255   22.0398 N   0  0  0  0  0  0
  -25.4267  -15.1906   20.4078 N   0  0  0  0  0  0
  -31.8665  -14.6335   20.1560 O   0  0  0  0  0  0
  -21.6623   -6.8886   21.4246 O   0  0  0  0  0  0
  -22.3545  -14.5546   20.6675 O   0  0  0  0  0  0
  -24.6200  -31.8648   23.2055 C   0  0  0  0  0  0
  -25.9079  -32.4797   23.8372 C   0  0  1  0  0  0
  -27.2132  -27.3670   20.1272 C   0  0  0  0  0  0
  -25.5922  -33.8603   24.2302 N   0  0  0  0  0  0
  -23.4123  -30.4912   21.5479 C   0  0  2  0  0  0
  -24.8609  -28.9520   20.1095 C   0  0  0  0  0  0
  -22.7418  -29.4687   22.4963 C   0  0  0  0  0  0
  -18.0222  -28.1513   22.8410 C   0  0  0  0  0  0
  -24.1488  -36.7301   23.2636 C   0  0  0  0  0  0
  -25.9493  -30.8111   21.3721 C   0  0  0  0  0  0
  -26.0235  -29.4423   20.7163 C   0  0  0  0  0  0
  -27.2070  -28.6579   20.7191 C   0  0  0  0  0  0
  -26.0387  -26.9140   19.4950 C   0  0  0  0  0  0
  -24.8642  -27.6895   19.4904 C   0  0  0  0  0  0
  -23.6281  -29.8284   20.1607 C   0  0  0  0  0  0
  -25.4105  -36.3090   24.0331 C   0  0  1  0  0  0
  -20.5846  -28.3735   23.1289 C   0  0  2  0  0  0
  -20.6710  -26.9563   22.5137 C   0  0  0  0  0  0
  -19.5718  -26.6814   21.4828 C   0  0  0  0  0  0
  -18.1860  -26.8237   22.1186 C   0  0  0  0  0  0
  -19.1481  -28.8874   23.2958 C   0  0  0  0  0  0
  -18.9436  -30.1373   23.9195 C   0  0  0  0  0  0
  -17.6445  -30.6489   24.0975 C   0  0  0  0  0  0
  -25.9037  -34.9444   23.5110 C   0  0  0  0  0  0
  -16.5322  -29.9155   23.6507 C   0  0  0  0  0  0
  -16.7206  -28.6678   23.0297 C   0  0  0  0  0  0
  -26.4496  -31.6609   25.0727 C   0  0  0  0  0  0
  -25.3756  -31.3750   26.1475 C   0  0  0  0  0  0
  -27.0340  -30.3034   24.6168 C   0  0  0  0  0  0
  -27.6052  -32.4346   25.7515 C   0  0  0  0  0  0
  -27.5571  -37.1810   24.8459 C   0  0  0  0  0  0
  -21.4107  -29.3208   22.3821 N   0  0  0  0  0  0
  -26.4284  -37.3777   23.9406 N   0  0  0  0  0  0
  -24.6805  -31.0709   22.0990 N   0  0  0  0  0  0
  -23.4157  -28.8083   23.2906 O   0  0  0  0  0  0
  -28.3144  -26.5232   20.1687 O   0  0  0  0  0  0
  -26.5592  -34.8915   22.4674 O   0  0  0  0  0  0
  -23.5382  -32.1392   23.7418 O   0  0  0  0  0  0
  -29.7260  -19.1585   19.8762 C   0  0  0  0  0  0
  -29.7561  -18.2275   20.8905 C   0  0  0  0  0  0
  -28.5384  -20.0122   21.5288 C   0  0  0  0  0  0
  -27.7358  -20.8837   22.4366 C   0  0  0  0  0  0
  -30.5921  -16.9610   21.0673 C   0  0  0  0  0  0
  -28.0098  -22.7622   19.8987 C   0  0  0  0  0  0
  -28.8668  -23.9854   20.3732 C   0  0  0  0  0  0
  -28.8081  -21.4893   19.4241 C   0  0  0  0  0  0
  -28.0809  -25.2552   20.8617 C   0  0  0  0  0  0
  -28.9958  -20.2632   20.2822 N   0  0  0  0  0  0
  -28.9692  -18.7834   21.8710 N   0  3  0  0  0  0
  -29.9783  -15.6286   20.8735 N   0  0  0  0  0  0
  -31.4648  -12.3923   19.1511 H   0  0  0  0  0  0
  -30.2986  -11.3308   19.8618 H   0  0  0  0  0  0
  -29.7460  -11.7661   17.4345 H   0  0  0  0  0  0
  -29.6486  -13.4782   17.7591 H   0  0  0  0  0  0
  -27.8561  -11.2846   18.8535 H   0  0  0  0  0  0
  -27.3594  -12.5612   17.7805 H   0  0  0  0  0  0
  -27.6719  -14.2455   19.5022 H   0  0  0  0  0  0
  -28.6790  -12.0675   21.3987 H   0  0  0  0  0  0
  -28.4566  -13.7436   21.8093 H   0  0  0  0  0  0
  -25.2771   -9.5675   22.4758 H   0  0  0  0  0  0
  -23.9995   -7.4636   22.7475 H   0  0  0  0  0  0
  -21.0851   -8.8799   19.8941 H   0  0  0  0  0  0
  -22.3729  -10.9686   19.6146 H   0  0  0  0  0  0
  -21.2013   -7.6148   23.9735 H   0  0  0  0  0  0
  -21.1468   -6.0516   25.9088 H   0  0  0  0  0  0
  -22.0593   -2.7610   23.2849 H   0  0  0  0  0  0
  -22.4054  -11.9935   22.4839 H   0  0  0  0  0  0
  -21.1038  -13.1275   22.2517 H   0  0  0  0  0  0
  -24.6552  -15.8409   20.5157 H   0  0  0  0  0  0
  -26.2817  -15.6367   20.0996 H   0  0  0  0  0  0
  -26.7149  -32.5482   23.1133 H   0  0  0  0  0  0
  -25.0118  -33.9770   25.0476 H   0  0  0  0  0  0
  -22.7061  -31.3104   21.4043 H   0  0  0  0  0  0
  -23.3743  -35.9643   23.3302 H   0  0  0  0  0  0
  -24.3577  -36.8908   22.2048 H   0  0  0  0  0  0
  -23.7243  -37.6508   23.6650 H   0  0  0  0  0  0
  -26.0763  -31.5759   20.6053 H   0  0  0  0  0  0
  -26.8301  -30.8568   22.0012 H   0  0  0  0  0  0
  -28.0973  -29.0138   21.2184 H   0  0  0  0  0  0
  -26.0197  -25.9419   19.0238 H   0  0  0  0  0  0
  -23.9727  -27.3048   19.0140 H   0  0  0  0  0  0
  -23.7491  -30.6069   19.4057 H   0  0  0  0  0  0
  -22.7510  -29.2571   19.8518 H   0  0  0  0  0  0
  -25.1287  -36.1958   25.0826 H   0  0  0  0  0  0
  -20.9997  -28.3150   24.1354 H   0  0  0  0  0  0
  -20.5503  -26.2197   23.3072 H   0  0  0  0  0  0
  -21.6578  -26.7771   22.0896 H   0  0  0  0  0  0
  -19.6855  -25.6892   21.0454 H   0  0  0  0  0  0
  -19.6681  -27.3899   20.6585 H   0  0  0  0  0  0
  -17.4223  -26.7421   21.3393 H   0  0  0  0  0  0
  -18.0139  -26.0104   22.8250 H   0  0  0  0  0  0
  -19.7904  -30.7079   24.2760 H   0  0  0  0  0  0
  -17.5009  -31.5998   24.5936 H   0  0  0  0  0  0
  -15.5347  -30.3126   23.7840 H   0  0  0  0  0  0
  -15.8578  -28.1199   22.6754 H   0  0  0  0  0  0
  -24.5943  -30.7067   25.7845 H   0  0  0  0  0  0
  -24.8937  -32.2926   26.4868 H   0  0  0  0  0  0
  -25.8104  -30.8980   27.0276 H   0  0  0  0  0  0
  -26.2915  -29.6781   24.1193 H   0  0  0  0  0  0
  -27.4055  -29.7280   25.4661 H   0  0  0  0  0  0
  -27.8773  -30.4320   23.9371 H   0  0  0  0  0  0
  -27.2653  -33.3644   26.2092 H   0  0  0  0  0  0
  -28.3877  -32.6917   25.0369 H   0  0  0  0  0  0
  -28.0709  -31.8484   26.5445 H   0  0  0  0  0  0
  -28.2592  -38.0103   24.7502 H   0  0  0  0  0  0
  -28.1067  -36.2635   24.6297 H   0  0  0  0  0  0
  -27.2297  -37.1472   25.8864 H   0  0  0  0  0  0
  -20.9234  -29.9136   21.7240 H   0  0  0  0  0  0
  -26.0165  -38.2867   24.1388 H   0  0  0  0  0  0
  -30.2309  -19.1367   18.9208 H   0  0  0  0  0  0
  -26.7233  -20.9358   22.0406 H   0  0  0  0  0  0
  -28.1996  -21.8688   22.4812 H   0  0  0  0  0  0
  -27.7108  -20.4438   23.4351 H   0  0  0  0  0  0
  -31.4542  -17.0688   20.4065 H   0  0  0  0  0  0
  -31.0140  -16.9580   22.0734 H   0  0  0  0  0  0
  -27.4613  -23.1173   19.0285 H   0  0  0  0  0  0
  -27.2081  -22.5265   20.5898 H   0  0  0  0  0  0
  -29.4992  -23.6407   21.1911 H   0  0  0  0  0  0
  -29.5567  -24.2655   19.5744 H   0  0  0  0  0  0
  -29.7964  -21.8004   19.0896 H   0  0  0  0  0  0
  -28.3295  -21.1267   18.5152 H   0  0  0  0  0  0
  -28.3765  -25.4409   21.8959 H   0  0  0  0  0  0
  -27.0200  -25.0078   20.9398 H   0  0  0  0  0  0
  -28.7809  -18.3653   22.7755 H   0  0  0  0  0  0
  -29.0006  -15.5255   21.0872 H   0  0  0  0  0  0
  1 25  1  0  0  0
  1 30  2  0  0  0
  1 82  1  0  0  0
  2  3  1  0  0  0
  2 25  1  0  0  0
  2 83  1  0  0  0
  2 84  1  0  0  0
  3  4  1  0  0  0
  3 85  1  0  0  0
  3 86  1  0  0  0
  4  5  1  0  0  0
  4 87  1  0  0  0
  4 88  1  0  0  0
  5  6  1  0  0  0
  5 26  1  0  0  0
  5 89  1  0  0  0
  6 25  1  0  0  0
  6 90  1  0  0  0
  6 91  1  0  0  0
  7  8  2  0  0  0
  7 26  1  0  0  0
  7 29  1  0  0  0
  8  9  1  0  0  0
  8 22  1  0  0  0
  9 10  1  0  0  0
  9 27  2  0  0  0
 10 11  2  0  0  0
 10 15  1  0  0  0
 11 12  1  0  0  0
 11 92  1  0  0  0
 12 13  2  0  0  0
 12 93  1  0  0  0
 13 14  1  0  0  0
 13 31  1  0  0  0
 14 15  2  0  0  0
 14 94  1  0  0  0
 15 95  1  0  0  0
 16 17  2  0  0  0
 16 21  1  0  0  0
 16 31  1  0  0  0
 17 18  1  0  0  0
 17 96  1  0  0  0
 18 19  2  0  0  0
 18 97  1  0  0  0
 19 20  1  0  0  0
 19 24  1  0  0  0
 20 21  2  0  0  0
 20 98  1  0  0  0
 21 23  1  0  0  0
 22 28  1  0  0  0
 22 32  2  0  0  0
 26 27  1  0  0  0
 28 99  1  0  0  0
 28100  1  0  0  0
 29101  1  0  0  0
 29102  1  0  0  0
 33 34  1  0  0  0
 33 66  1  0  0  0
 33 70  2  0  0  0
 34 36  1  0  0  0
 34 59  1  0  0  0
 34103  1  0  0  0
 35 44  2  0  0  0
 35 45  1  0  0  0
 35 68  1  0  0  0
 36 56  1  0  0  0
 36104  1  0  0  0
 37 39  1  0  0  0
 37 47  1  0  0  0
 37 66  1  0  0  0
 37105  1  0  0  0
 38 43  2  0  0  0
 38 46  1  0  0  0
 38 47  1  0  0  0
 39 64  1  0  0  0
 39 67  2  0  0  0
 40 52  1  0  0  0
 40 53  2  0  0  0
 40 58  1  0  0  0
 41106  1  0  0  0
 41107  1  0  0  0
 41108  1  0  0  0
 41 48  1  0  0  0
 42 43  1  0  0  0
 42 66  1  0  0  0
 42109  1  0  0  0
 42110  1  0  0  0
 43 44  1  0  0  0
 44111  1  0  0  0
 45 46  2  0  0  0
 45112  1  0  0  0
 46113  1  0  0  0
 47114  1  0  0  0
 47115  1  0  0  0
 48 56  1  0  0  0
 48 65  1  0  0  0
 48116  1  0  0  0
 49 50  1  0  0  0
 49 53  1  0  0  0
 49 64  1  0  0  0
 49117  1  0  0  0
 50 51  1  0  0  0
 50118  1  0  0  0
 50119  1  0  0  0
 51 52  1  0  0  0
 51120  1  0  0  0
 51121  1  0  0  0
 52122  1  0  0  0
 52123  1  0  0  0
 53 54  1  0  0  0
 54 55  2  0  0  0
 54124  1  0  0  0
 55 57  1  0  0  0
 55125  1  0  0  0
 56 69  2  0  0  0
 57 58  2  0  0  0
 57126  1  0  0  0
 58127  1  0  0  0
 59 60  1  0  0  0
 59 61  1  0  0  0
 59 62  1  0  0  0
 60128  1  0  0  0
 60129  1  0  0  0
 60130  1  0  0  0
 61131  1  0  0  0
 61132  1  0  0  0
 61133  1  0  0  0
 62134  1  0  0  0
 62135  1  0  0  0
 62136  1  0  0  0
 63 65  1  0  0  0
 63137  1  0  0  0
 63138  1  0  0  0
 63139  1  0  0  0
 64140  1  0  0  0
 65141  1  0  0  0
 68 79  1  0  0  0
 71 72  2  0  0  0
 71 80  1  0  0  0
 71142  1  0  0  0
 72 75  1  0  0  0
 72 81  1  0  0  0
 73 74  1  0  0  0
 73 80  1  0  0  0
 73 81  2  0  0  0
 74143  1  0  0  0
 74144  1  0  0  0
 74145  1  0  0  0
 75 82  1  0  0  0
 75146  1  0  0  0
 75147  1  0  0  0
 76 77  1  0  0  0
 76 78  1  0  0  0
 76148  1  0  0  0
 76149  1  0  0  0
 77 79  1  0  0  0
 77150  1  0  0  0
 77151  1  0  0  0
 78 80  1  0  0  0
 78152  1  0  0  0
 78153  1  0  0  0
 79154  1  0  0  0
 79155  1  0  0  0
 81156  1  0  0  0
 82157  1  0  0  0
M  CHG  1  81   1
M  ISO  4   1 100  68 101  79 101  82 100
M  END
> <chiral flag>
0

> <version>
0

> <s_m_source_file>
/data/baiqing/PycharmProjects/Reinvent-master-3.2/result/LINK_invent/BTK/process_docking_weight1_custom_sum_contain_oxygen_bond_distance_aromatic_linkinvent_7_9_3/rearranged_h_0094.sdf

> <i_m_source_file_index>
53

> <r_mmod_Potential_Energy-OPLS-2005>
-110.055786132812

> <r_mmod_Stretch_Energy-OPLS-2005>
50.6042327880859

> <r_mmod_Bend_Energy-OPLS-2005>
132.860687255859

> <r_mmod_Torsional_Energy-OPLS-2005>
257.145629882812

> <r_mmod_Improper_Torsional_Energy-OPLS-2005>
4.35797357559204

> <r_mmod_Van_der_Waal_Energy-OPLS-2005>
129.744873046875

> <r_mmod_Electrostatic_Energy-OPLS-2005>
-286.307952880859

> <r_mmod_Solvation_Energy-OPLS-2005>
-431.437133789062

> <b_mmod_Minimization_Converged-OPLS-2005>
0

> <r_mmod_RMS_Derivative-OPLS-2005>
6.46575164794922

$$$$
53
                    3D
 Structure written by MMmdl.
180188  0  0  1  0            999 V2000
  -30.7567  -14.3993   20.6720 C   0  0  0  0  0  0
  -30.4205  -12.3094   19.3963 C   0  0  0  0  0  0
  -29.4848  -12.5272   18.1929 C   0  0  0  0  0  0
  -28.0100  -12.3768   18.6114 C   0  0  0  0  0  0
  -27.6639  -13.2059   19.8757 C   0  0  2  0  0  0
  -28.7033  -12.9630   20.9909 C   0  0  0  0  0  0
  -25.2595  -13.8162   20.5676 C   0  0  0  0  0  0
  -24.1846  -13.0441   20.9164 C   0  0  0  0  0  0
  -24.6400  -11.6905   20.8725 C   0  0  0  0  0  0
  -23.9070  -10.4295   21.0402 C   0  0  0  0  0  0
  -24.3621   -9.4210   21.9182 C   0  0  0  0  0  0
  -23.6295   -8.2246   22.0756 C   0  0  0  0  0  0
  -22.4277   -8.0282   21.3545 C   0  0  0  0  0  0
  -21.9911   -9.0258   20.4650 C   0  0  0  0  0  0
  -22.7242  -10.2134   20.3055 C   0  0  0  0  0  0
  -21.6853   -6.0738   22.5287 C   0  0  0  0  0  0
  -21.4014   -6.5642   23.8219 C   0  0  0  0  0  0
  -21.3658   -5.6792   24.9181 C   0  0  0  0  0  0
  -21.6043   -4.3056   24.7229 C   0  0  0  0  0  0
  -21.8820   -3.8149   23.4351 C   0  0  0  0  0  0
  -21.9193   -4.6966   22.3407 C   0  0  0  0  0  0
  -22.7868  -13.5234   21.1833 C   0  0  0  0  0  0
  -22.1661   -4.2151   21.0984 F   0  0  0  0  0  0
  -21.5628   -3.4541   25.7743 F   0  0  0  0  0  0
  -30.0416  -13.2647   20.4486 N   0  0  0  0  0  0
  -26.3037  -12.9335   20.3368 N   0  0  0  0  0  0
  -25.9325  -11.6493   20.5752 N   0  0  0  0  0  0
  -22.0514  -12.8229   22.0393 N   0  0  0  0  0  0
  -25.4332  -15.1882   20.4100 N   0  0  0  0  0  0
  -31.8078  -14.6643   20.0835 O   0  0  0  0  0  0
  -21.6639   -6.8882   21.4246 O   0  0  0  0  0  0
  -22.3553  -14.5549   20.6695 O   0  0  0  0  0  0
  -24.6141  -31.8671   23.2123 C   0  0  0  0  0  0
  -25.9038  -32.4819   23.8403 C   0  0  1  0  0  0
  -27.2294  -27.4342   20.0957 C   0  0  0  0  0  0
  -25.5892  -33.8619   24.2322 N   0  0  0  0  0  0
  -23.4018  -30.4920   21.5527 C   0  0  2  0  0  0
  -24.8463  -28.9615   20.1104 C   0  0  0  0  0  0
  -22.7409  -29.4646   22.4997 C   0  0  0  0  0  0
  -18.0266  -28.1377   22.8465 C   0  0  0  0  0  0
  -24.1496  -36.7321   23.2638 C   0  0  0  0  0  0
  -25.9302  -30.8328   21.3652 C   0  0  0  0  0  0
  -26.0070  -29.4705   20.7063 C   0  0  0  0  0  0
  -27.2020  -28.7161   20.6906 C   0  0  0  0  0  0
  -26.0524  -26.9462   19.4815 C   0  0  0  0  0  0
  -24.8646  -27.7001   19.4934 C   0  0  0  0  0  0
  -23.6090  -29.8280   20.1651 C   0  0  0  0  0  0
  -25.4116  -36.3106   24.0326 C   0  0  1  0  0  0
  -20.5849  -28.3657   23.1308 C   0  0  2  0  0  0
  -20.6758  -26.9397   22.5409 C   0  0  0  0  0  0
  -19.5746  -26.6378   21.5197 C   0  0  0  0  0  0
  -18.1918  -26.7923   22.1599 C   0  0  0  0  0  0
  -19.1512  -28.8833   23.2880 C   0  0  0  0  0  0
  -18.9449  -30.1439   23.8895 C   0  0  0  0  0  0
  -17.6456  -30.6586   24.0554 C   0  0  0  0  0  0
  -25.9028  -34.9467   23.5114 C   0  0  0  0  0  0
  -16.5345  -29.9081   23.6323 C   0  0  0  0  0  0
  -16.7253  -28.6503   23.0322 C   0  0  0  0  0  0
  -26.4473  -31.6600   25.0731 C   0  0  0  0  0  0
  -25.3733  -31.3713   26.1474 C   0  0  0  0  0  0
  -27.0303  -30.3038   24.6112 C   0  0  0  0  0  0
  -27.6047  -32.4319   25.7492 C   0  0  0  0  0  0
  -27.5586  -37.1811   24.8456 C   0  0  0  0  0  0
  -21.4137  -29.3029   22.3733 N   0  0  0  0  0  0
  -26.4302  -37.3783   23.9395 N   0  0  0  0  0  0
  -24.6672  -31.0776   22.1020 N   0  0  0  0  0  0
  -23.4173  -28.8171   23.3026 O   0  0  0  0  0  0
  -28.3941  -26.6934   20.1319 O   0  0  0  0  0  0
  -26.5597  -34.8919   22.4683 O   0  0  0  0  0  0
  -23.5333  -32.1417   23.7524 O   0  0  0  0  0  0
  -30.1353  -22.3540   19.4075 C   0  0  0  0  0  0
  -29.5231  -20.7592   21.1296 C   0  0  0  0  0  0
  -29.5945  -22.0960   20.6808 C   0  0  0  0  0  0
  -30.6229  -21.3035   18.6040 C   0  0  0  0  0  0
  -29.9904  -19.6821   20.3396 C   0  0  0  0  0  0
  -30.5664  -19.9579   19.0650 C   0  0  0  0  0  0
  -31.1954  -21.6666   17.2406 C   0  0  0  0  0  0
  -35.6284  -18.7158   18.0622 C   0  0  0  0  0  0
  -34.8340  -16.8549   19.6100 C   0  0  0  0  0  0
  -29.0911  -23.2119   21.5992 C   0  0  0  0  0  0
  -29.8201  -18.2580   20.8932 C   0  0  0  0  0  0
  -31.1610  -18.8413   18.2051 C   0  0  0  0  0  0
  -29.3322  -24.6823   21.1638 C   0  0  0  0  0  0
  -31.1238  -17.6081   21.4037 C   0  0  0  0  0  0
  -30.9412  -16.3349   22.2617 C   0  0  0  0  0  0
  -33.3004  -17.6683   17.7202 C   0  0  0  0  0  0
  -28.2508  -25.2664   20.2327 C   0  0  0  0  0  0
  -34.7555  -17.4544   18.1947 C   0  0  0  0  0  0
  -30.2513  -15.2214   21.6032 N   0  0  0  0  0  0
  -32.6017  -18.7127   18.4958 N   0  3  0  0  0  0
  -31.4621  -12.4189   19.0885 H   0  0  0  0  0  0
  -30.3299  -11.2891   19.7729 H   0  0  0  0  0  0
  -29.7216  -11.8202   17.3970 H   0  0  0  0  0  0
  -29.6488  -13.5223   17.7774 H   0  0  0  0  0  0
  -27.8230  -11.3191   18.7990 H   0  0  0  0  0  0
  -27.3552  -12.6590   17.7858 H   0  0  0  0  0  0
  -27.7160  -14.2580   19.5935 H   0  0  0  0  0  0
  -28.6749  -11.9216   21.3153 H   0  0  0  0  0  0
  -28.4469  -13.5442   21.8768 H   0  0  0  0  0  0
  -25.2769   -9.5680   22.4751 H   0  0  0  0  0  0
  -24.0006   -7.4636   22.7475 H   0  0  0  0  0  0
  -21.0842   -8.8777   19.8956 H   0  0  0  0  0  0
  -22.3706  -10.9670   19.6159 H   0  0  0  0  0  0
  -21.2005   -7.6151   23.9723 H   0  0  0  0  0  0
  -21.1478   -6.0525   25.9084 H   0  0  0  0  0  0
  -22.0599   -2.7613   23.2854 H   0  0  0  0  0  0
  -22.4126  -11.9874   22.4759 H   0  0  0  0  0  0
  -21.1137  -13.1262   22.2621 H   0  0  0  0  0  0
  -24.6703  -15.8472   20.5214 H   0  0  0  0  0  0
  -26.2954  -15.6273   20.1121 H   0  0  0  0  0  0
  -26.7108  -32.5523   23.1166 H   0  0  0  0  0  0
  -25.0028  -33.9783   25.0455 H   0  0  0  0  0  0
  -22.6894  -31.3081   21.4181 H   0  0  0  0  0  0
  -23.3737  -35.9673   23.3309 H   0  0  0  0  0  0
  -24.3584  -36.8926   22.2050 H   0  0  0  0  0  0
  -23.7275  -37.6534   23.6659 H   0  0  0  0  0  0
  -26.0412  -31.6032   20.6009 H   0  0  0  0  0  0
  -26.8184  -30.8832   21.9836 H   0  0  0  0  0  0
  -28.0993  -29.1041   21.1516 H   0  0  0  0  0  0
  -26.0391  -25.9849   18.9883 H   0  0  0  0  0  0
  -23.9729  -27.3082   19.0229 H   0  0  0  0  0  0
  -23.7185  -30.6054   19.4079 H   0  0  0  0  0  0
  -22.7331  -29.2481   19.8695 H   0  0  0  0  0  0
  -25.1300  -36.1964   25.0818 H   0  0  0  0  0  0
  -20.9927  -28.3236   24.1430 H   0  0  0  0  0  0
  -20.5657  -26.2271   23.3595 H   0  0  0  0  0  0
  -21.6631  -26.7440   22.1211 H   0  0  0  0  0  0
  -19.6910  -25.6290   21.1217 H   0  0  0  0  0  0
  -19.6701  -27.3194   20.6736 H   0  0  0  0  0  0
  -17.4191  -26.6640   21.4008 H   0  0  0  0  0  0
  -18.0335  -26.0078   22.9016 H   0  0  0  0  0  0
  -19.7933  -30.7233   24.2276 H   0  0  0  0  0  0
  -17.5020  -31.6269   24.5155 H   0  0  0  0  0  0
  -15.5347  -30.2977   23.7677 H   0  0  0  0  0  0
  -15.8646  -28.0842   22.7016 H   0  0  0  0  0  0
  -24.5912  -30.7052   25.7822 H   0  0  0  0  0  0
  -24.8921  -32.2875   26.4911 H   0  0  0  0  0  0
  -25.8082  -30.8896   27.0238 H   0  0  0  0  0  0
  -26.2850  -29.6800   24.1161 H   0  0  0  0  0  0
  -27.4057  -29.7284   25.4581 H   0  0  0  0  0  0
  -27.8700  -30.4356   23.9274 H   0  0  0  0  0  0
  -27.2662  -33.3607   26.2102 H   0  0  0  0  0  0
  -28.3852  -32.6886   25.0315 H   0  0  0  0  0  0
  -28.0720  -31.8411   26.5382 H   0  0  0  0  0  0
  -28.2597  -38.0118   24.7490 H   0  0  0  0  0  0
  -28.1084  -36.2632   24.6296 H   0  0  0  0  0  0
  -27.2288  -37.1476   25.8857 H   0  0  0  0  0  0
  -20.9303  -29.8770   21.6971 H   0  0  0  0  0  0
  -26.0181  -38.2853   24.1402 H   0  0  0  0  0  0
  -30.1906  -23.3659   19.0341 H   0  0  0  0  0  0
  -29.0958  -20.5585   22.1039 H   0  0  0  0  0  0
  -31.3336  -22.7440   17.1411 H   0  0  0  0  0  0
  -30.5148  -21.3495   16.4495 H   0  0  0  0  0  0
  -32.1689  -21.2088   17.0695 H   0  0  0  0  0  0
  -36.6706  -18.4914   18.2927 H   0  0  0  0  0  0
  -35.3145  -19.5099   18.7406 H   0  0  0  0  0  0
  -35.6032  -19.1124   17.0464 H   0  0  0  0  0  0
  -35.8637  -16.6086   19.8724 H   0  0  0  0  0  0
  -34.2570  -15.9317   19.6797 H   0  0  0  0  0  0
  -34.4611  -17.5392   20.3724 H   0  0  0  0  0  0
  -29.5894  -23.0651   22.5589 H   0  0  0  0  0  0
  -28.0299  -23.0489   21.7958 H   0  0  0  0  0  0
  -29.3387  -17.6221   20.1498 H   0  0  0  0  0  0
  -29.1117  -18.2960   21.7216 H   0  0  0  0  0  0
  -31.0129  -19.0509   17.1457 H   0  0  0  0  0  0
  -30.6554  -17.8921   18.3801 H   0  0  0  0  0  0
  -30.3355  -24.8258   20.7616 H   0  0  0  0  0  0
  -29.3048  -25.2823   22.0739 H   0  0  0  0  0  0
  -31.6514  -18.3383   22.0200 H   0  0  0  0  0  0
  -31.7911  -17.3768   20.5794 H   0  0  0  0  0  0
  -30.3873  -16.5831   23.1681 H   0  0  0  0  0  0
  -31.9188  -15.9856   22.6005 H   0  0  0  0  0  0
  -32.7522  -16.7279   17.7995 H   0  0  0  0  0  0
  -33.2885  -17.9420   16.6639 H   0  0  0  0  0  0
  -27.2809  -24.9962   20.6553 H   0  0  0  0  0  0
  -28.3079  -24.8194   19.2399 H   0  0  0  0  0  0
  -35.1849  -16.7102   17.5217 H   0  0  0  0  0  0
  -29.3746  -14.9310   22.0109 H   0  0  0  0  0  0
  -32.6994  -18.5102   19.4764 H   0  0  0  0  0  0
  -33.0388  -19.6029   18.3256 H   0  0  0  0  0  0
  1 25  1  0  0  0
  1 30  2  0  0  0
  1 89  1  0  0  0
  2  3  1  0  0  0
  2 25  1  0  0  0
  2 91  1  0  0  0
  2 92  1  0  0  0
  3  4  1  0  0  0
  3 93  1  0  0  0
  3 94  1  0  0  0
  4  5  1  0  0  0
  4 95  1  0  0  0
  4 96  1  0  0  0
  5  6  1  0  0  0
  5 26  1  0  0  0
  5 97  1  0  0  0
  6 25  1  0  0  0
  6 98  1  0  0  0
  6 99  1  0  0  0
  7  8  2  0  0  0
  7 26  1  0  0  0
  7 29  1  0  0  0
  8  9  1  0  0  0
  8 22  1  0  0  0
  9 10  1  0  0  0
  9 27  2  0  0  0
 10 11  2  0  0  0
 10 15  1  0  0  0
 11 12  1  0  0  0
 11100  1  0  0  0
 12 13  2  0  0  0
 12101  1  0  0  0
 13 14  1  0  0  0
 13 31  1  0  0  0
 14 15  2  0  0  0
 14102  1  0  0  0
 15103  1  0  0  0
 16 17  2  0  0  0
 16 21  1  0  0  0
 16 31  1  0  0  0
 17 18  1  0  0  0
 17104  1  0  0  0
 18 19  2  0  0  0
 18105  1  0  0  0
 19 20  1  0  0  0
 19 24  1  0  0  0
 20 21  2  0  0  0
 20106  1  0  0  0
 21 23  1  0  0  0
 22 28  1  0  0  0
 22 32  2  0  0  0
 26 27  1  0  0  0
 28107  1  0  0  0
 28108  1  0  0  0
 29109  1  0  0  0
 29110  1  0  0  0
 33 34  1  0  0  0
 33 66  1  0  0  0
 33 70  2  0  0  0
 34 36  1  0  0  0
 34 59  1  0  0  0
 34111  1  0  0  0
 35 44  2  0  0  0
 35 45  1  0  0  0
 35 68  1  0  0  0
 36 56  1  0  0  0
 36112  1  0  0  0
 37 39  1  0  0  0
 37 47  1  0  0  0
 37 66  1  0  0  0
 37113  1  0  0  0
 38 43  2  0  0  0
 38 46  1  0  0  0
 38 47  1  0  0  0
 39 64  1  0  0  0
 39 67  2  0  0  0
 40 52  1  0  0  0
 40 53  2  0  0  0
 40 58  1  0  0  0
 41114  1  0  0  0
 41115  1  0  0  0
 41116  1  0  0  0
 41 48  1  0  0  0
 42 43  1  0  0  0
 42 66  1  0  0  0
 42117  1  0  0  0
 42118  1  0  0  0
 43 44  1  0  0  0
 44119  1  0  0  0
 45 46  2  0  0  0
 45120  1  0  0  0
 46121  1  0  0  0
 47122  1  0  0  0
 47123  1  0  0  0
 48 56  1  0  0  0
 48 65  1  0  0  0
 48124  1  0  0  0
 49 50  1  0  0  0
 49 53  1  0  0  0
 49 64  1  0  0  0
 49125  1  0  0  0
 50 51  1  0  0  0
 50126  1  0  0  0
 50127  1  0  0  0
 51 52  1  0  0  0
 51128  1  0  0  0
 51129  1  0  0  0
 52130  1  0  0  0
 52131  1  0  0  0
 53 54  1  0  0  0
 54 55  2  0  0  0
 54132  1  0  0  0
 55 57  1  0  0  0
 55133  1  0  0  0
 56 69  2  0  0  0
 57 58  2  0  0  0
 57134  1  0  0  0
 58135  1  0  0  0
 59 60  1  0  0  0
 59 61  1  0  0  0
 59 62  1  0  0  0
 60136  1  0  0  0
 60137  1  0  0  0
 60138  1  0  0  0
 61139  1  0  0  0
 61140  1  0  0  0
 61141  1  0  0  0
 62142  1  0  0  0
 62143  1  0  0  0
 62144  1  0  0  0
 63 65  1  0  0  0
 63145  1  0  0  0
 63146  1  0  0  0
 63147  1  0  0  0
 64148  1  0  0  0
 65149  1  0  0  0
 68 87  1  0  0  0
 71 73  2  0  0  0
 71 74  1  0  0  0
 71150  1  0  0  0
 72 73  1  0  0  0
 72 75  2  0  0  0
 72151  1  0  0  0
 73 80  1  0  0  0
 74 76  2  0  0  0
 74 77  1  0  0  0
 75 76  1  0  0  0
 75 81  1  0  0  0
 76 82  1  0  0  0
 77152  1  0  0  0
 77153  1  0  0  0
 77154  1  0  0  0
 78155  1  0  0  0
 78156  1  0  0  0
 78157  1  0  0  0
 78 88  1  0  0  0
 79 88  1  0  0  0
 79158  1  0  0  0
 79159  1  0  0  0
 79160  1  0  0  0
 80 83  1  0  0  0
 80161  1  0  0  0
 80162  1  0  0  0
 81 84  1  0  0  0
 81163  1  0  0  0
 81164  1  0  0  0
 82 90  1  0  0  0
 82165  1  0  0  0
 82166  1  0  0  0
 83 87  1  0  0  0
 83167  1  0  0  0
 83168  1  0  0  0
 84 85  1  0  0  0
 84169  1  0  0  0
 84170  1  0  0  0
 85 89  1  0  0  0
 85171  1  0  0  0
 85172  1  0  0  0
 86 88  1  0  0  0
 86 90  1  0  0  0
 86173  1  0  0  0
 86174  1  0  0  0
 87175  1  0  0  0
 87176  1  0  0  0
 88177  1  0  0  0
 89178  1  0  0  0
 90179  1  0  0  0
 90180  1  0  0  0
M  CHG  1  90   1
M  ISO  4   1 100  68 101  87 101  89 100
M  END
> <chiral flag>
0

> <version>
0

> <s_m_source_file>
/data/baiqing/PycharmProjects/Reinvent-master-3.2/result/LINK_invent/BTK/process_docking_weight1_custom_sum_contain_oxygen_bond_distance_aromatic_linkinvent_7_9_3/rearranged_h_0094.sdf

> <i_m_source_file_index>
54

> <r_mmod_Potential_Energy-OPLS-2005>
-258.582672119141

> <r_mmod_Stretch_Energy-OPLS-2005>
38.5572395324707

> <r_mmod_Bend_Energy-OPLS-2005>
104.907417297363

> <r_mmod_Torsional_Energy-OPLS-2005>
214.219543457031

> <r_mmod_Improper_Torsional_Energy-OPLS-2005>
2.03185534477234

> <r_mmod_Van_der_Waal_Energy-OPLS-2005>
146.25422668457

> <r_mmod_Electrostatic_Energy-OPLS-2005>
-371.138519287109

> <r_mmod_Solvation_Energy-OPLS-2005>
-403.2353515625

> <b_mmod_Minimization_Converged-OPLS-2005>
0

> <r_mmod_RMS_Derivative-OPLS-2005>
1.41000378131866

$$$$
54
                    3D
 Structure written by MMmdl.
173181  0  0  1  0            999 V2000
  -30.5702  -14.9550   20.4065 C   0  0  0  0  0  0
  -30.4244  -12.5893   19.5008 C   0  0  0  0  0  0
  -29.5148  -12.5289   18.2543 C   0  0  0  0  0  0
  -28.0516  -12.3104   18.6763 C   0  0  0  0  0  0
  -27.6229  -13.2536   19.8294 C   0  0  2  0  0  0
  -28.6639  -13.3153   20.9691 C   0  0  0  0  0  0
  -25.2444  -13.8242   20.5701 C   0  0  0  0  0  0
  -24.1762  -13.0429   20.9226 C   0  0  0  0  0  0
  -24.6394  -11.6928   20.8772 C   0  0  0  0  0  0
  -23.9073  -10.4288   21.0405 C   0  0  0  0  0  0
  -24.3609   -9.4210   21.9194 C   0  0  0  0  0  0
  -23.6287   -8.2255   22.0766 C   0  0  0  0  0  0
  -22.4288   -8.0282   21.3540 C   0  0  0  0  0  0
  -21.9906   -9.0255   20.4647 C   0  0  0  0  0  0
  -22.7240  -10.2131   20.3060 C   0  0  0  0  0  0
  -21.6860   -6.0724   22.5280 C   0  0  0  0  0  0
  -21.4001   -6.5634   23.8200 C   0  0  0  0  0  0
  -21.3663   -5.6793   24.9175 C   0  0  0  0  0  0
  -21.6056   -4.3056   24.7229 C   0  0  0  0  0  0
  -21.8825   -3.8140   23.4356 C   0  0  0  0  0  0
  -21.9178   -4.6952   22.3403 C   0  0  0  0  0  0
  -22.7794  -13.5219   21.1881 C   0  0  0  0  0  0
  -22.1661   -4.2137   21.0989 F   0  0  0  0  0  0
  -21.5622   -3.4541   25.7738 F   0  0  0  0  0  0
  -29.9402  -13.7091   20.3594 N   0  0  0  0  0  0
  -26.2850  -12.9471   20.3207 N   0  0  0  0  0  0
  -25.9324  -11.6596   20.5748 N   0  0  0  0  0  0
  -22.0423  -12.8213   22.0437 N   0  0  0  0  0  0
  -25.4056  -15.1985   20.4136 N   0  0  0  0  0  0
  -31.7849  -14.9422   20.1637 O   0  0  0  0  0  0
  -21.6660   -6.8883   21.4240 O   0  0  0  0  0  0
  -22.3467  -14.5520   20.6733 O   0  0  0  0  0  0
  -24.6435  -31.8461   23.1878 C   0  0  0  0  0  0
  -25.9225  -32.4725   23.8285 C   0  0  1  0  0  0
  -27.2150  -27.1271   20.1493 C   0  0  0  0  0  0
  -25.5948  -33.8516   24.2164 N   0  0  0  0  0  0
  -23.4490  -30.4590   21.5373 C   0  0  2  0  0  0
  -24.8985  -28.8911   20.1038 C   0  0  0  0  0  0
  -22.7580  -29.4509   22.4895 C   0  0  0  0  0  0
  -18.0292  -28.1348   22.8470 C   0  0  0  0  0  0
  -24.1487  -36.7247   23.2641 C   0  0  0  0  0  0
  -26.0025  -30.7130   21.3957 C   0  0  0  0  0  0
  -26.0736  -29.3262   20.7283 C   0  0  0  0  0  0
  -27.2328  -28.4589   20.7347 C   0  0  0  0  0  0
  -26.0187  -26.8037   19.4717 C   0  0  0  0  0  0
  -24.8833  -27.6452   19.4605 C   0  0  0  0  0  0
  -23.6774  -29.7942   20.1545 C   0  0  0  0  0  0
  -25.4119  -36.3044   24.0299 C   0  0  1  0  0  0
  -20.5886  -28.3699   23.1219 C   0  0  2  0  0  0
  -20.6794  -26.9403   22.5396 C   0  0  0  0  0  0
  -19.5788  -26.6347   21.5195 C   0  0  0  0  0  0
  -18.1937  -26.7902   22.1577 C   0  0  0  0  0  0
  -19.1536  -28.8847   23.2843 C   0  0  0  0  0  0
  -18.9478  -30.1439   23.8874 C   0  0  0  0  0  0
  -17.6493  -30.6599   24.0514 C   0  0  0  0  0  0
  -25.9083  -34.9419   23.5049 C   0  0  0  0  0  0
  -16.5367  -29.9060   23.6348 C   0  0  0  0  0  0
  -16.7268  -28.6455   23.0374 C   0  0  0  0  0  0
  -26.4533  -31.6602   25.0745 C   0  0  0  0  0  0
  -25.3666  -31.3787   26.1401 C   0  0  0  0  0  0
  -27.0430  -30.3001   24.6362 C   0  0  0  0  0  0
  -27.6064  -32.4385   25.7520 C   0  0  0  0  0  0
  -27.5575  -37.1752   24.8433 C   0  0  0  0  0  0
  -21.4263  -29.3033   22.3629 N   0  0  0  0  0  0
  -26.4280  -37.3749   23.9417 N   0  0  0  0  0  0
  -24.7170  -31.0274   22.0950 N   0  0  0  0  0  0
  -23.4209  -28.8067   23.3085 O   0  0  0  0  0  0
  -28.2679  -26.1427   20.2485 O   0  0  0  0  0  0
  -26.5705  -34.8920   22.4652 O   0  0  0  0  0  0
  -23.5536  -32.1357   23.7061 O   0  0  0  0  0  0
  -29.3907  -18.8814   20.3870 C   0  0  0  0  0  0
  -29.8715  -20.2991   20.4154 C   0  0  0  0  0  0
  -31.3054  -20.3648   20.5906 C   0  0  0  0  0  0
  -32.0611  -19.1500   20.6104 C   0  0  0  0  0  0
  -30.2384  -17.6585   20.4811 C   0  0  0  0  0  0
  -33.5842  -19.0980   20.6564 C   0  0  0  0  0  0
  -31.7736  -22.4044   22.1101 C   0  0  0  0  0  0
  -33.6380  -23.8401   17.0221 C   0  0  0  0  0  0
  -32.6812  -22.0118   15.5818 C   0  0  0  0  0  0
  -28.9137  -21.6642   20.2082 C   0  0  0  0  0  0
  -28.9264  -23.3336   20.6344 C   0  0  0  0  0  0
  -32.3427  -22.5637   19.5183 C   0  0  0  0  0  0
  -32.4718  -21.8287   18.1560 C   0  0  0  0  0  0
  -28.0654  -24.6183   19.9639 C   0  0  0  0  0  0
  -32.0976  -21.6832   20.7840 C   0  0  2  0  0  0
  -32.5378  -22.7706   16.9178 C   0  0  0  0  0  0
  -31.5500  -17.9081   20.5730 N   0  0  0  0  0  0
  -29.8283  -16.1787   20.4905 N   0  0  0  0  0  0
  -31.4626  -12.7224   19.1935 H   0  0  0  0  0  0
  -30.3945  -11.6440   20.0434 H   0  0  0  0  0  0
  -29.8350  -11.7274   17.5853 H   0  0  0  0  0  0
  -29.6061  -13.4552   17.6869 H   0  0  0  0  0  0
  -27.9619  -11.2723   18.9986 H   0  0  0  0  0  0
  -27.3874  -12.4233   17.8198 H   0  0  0  0  0  0
  -27.5747  -14.2493   19.3882 H   0  0  0  0  0  0
  -28.7484  -12.3634   21.4969 H   0  0  0  0  0  0
  -28.3636  -14.0546   21.7146 H   0  0  0  0  0  0
  -25.2724   -9.5717   22.4780 H   0  0  0  0  0  0
  -23.9974   -7.4677   22.7516 H   0  0  0  0  0  0
  -21.0826   -8.8808   19.8965 H   0  0  0  0  0  0
  -22.3696  -10.9684   19.6197 H   0  0  0  0  0  0
  -21.2006   -7.6141   23.9704 H   0  0  0  0  0  0
  -21.1473   -6.0526   25.9080 H   0  0  0  0  0  0
  -22.0588   -2.7594   23.2871 H   0  0  0  0  0  0
  -22.4009  -11.9887   22.4848 H   0  0  0  0  0  0
  -21.1062  -13.1288   22.2661 H   0  0  0  0  0  0
  -24.6211  -15.8396   20.4970 H   0  0  0  0  0  0
  -26.2541  -15.6483   20.0928 H   0  0  0  0  0  0
  -26.7303  -32.5334   23.1023 H   0  0  0  0  0  0
  -24.9990  -33.9612   25.0229 H   0  0  0  0  0  0
  -22.7520  -31.2838   21.3863 H   0  0  0  0  0  0
  -23.3803  -35.9528   23.3258 H   0  0  0  0  0  0
  -24.3547  -36.8942   22.2066 H   0  0  0  0  0  0
  -23.7179  -37.6375   23.6744 H   0  0  0  0  0  0
  -26.1606  -31.4802   20.6371 H   0  0  0  0  0  0
  -26.8694  -30.7550   22.0444 H   0  0  0  0  0  0
  -28.1277  -28.7788   21.2515 H   0  0  0  0  0  0
  -25.9198  -25.8545   18.9657 H   0  0  0  0  0  0
  -23.9852  -27.3059   18.9591 H   0  0  0  0  0  0
  -23.8077  -30.5742   19.4038 H   0  0  0  0  0  0
  -22.7939  -29.2330   19.8486 H   0  0  0  0  0  0
  -25.1294  -36.1887   25.0789 H   0  0  0  0  0  0
  -20.9905  -28.3321   24.1364 H   0  0  0  0  0  0
  -20.5675  -26.2315   23.3617 H   0  0  0  0  0  0
  -21.6663  -26.7452   22.1200 H   0  0  0  0  0  0
  -19.6977  -25.6240   21.1280 H   0  0  0  0  0  0
  -19.6738  -27.3128   20.6699 H   0  0  0  0  0  0
  -17.4211  -26.6626   21.3983 H   0  0  0  0  0  0
  -18.0334  -26.0027   22.8953 H   0  0  0  0  0  0
  -19.7974  -30.7197   24.2239 H   0  0  0  0  0  0
  -17.5074  -31.6276   24.5116 H   0  0  0  0  0  0
  -15.5369  -30.2947   23.7728 H   0  0  0  0  0  0
  -15.8652  -28.0773   22.7128 H   0  0  0  0  0  0
  -24.5857  -30.7172   25.7641 H   0  0  0  0  0  0
  -24.8847  -32.2962   26.4790 H   0  0  0  0  0  0
  -25.7872  -30.8934   27.0213 H   0  0  0  0  0  0
  -26.3083  -29.6714   24.1344 H   0  0  0  0  0  0
  -27.3984  -29.7344   25.4972 H   0  0  0  0  0  0
  -27.9004  -30.4230   23.9749 H   0  0  0  0  0  0
  -27.2690  -33.3738   26.2012 H   0  0  0  0  0  0
  -28.3922  -32.6867   25.0370 H   0  0  0  0  0  0
  -28.0712  -31.8581   26.5496 H   0  0  0  0  0  0
  -28.2512  -38.0132   24.7577 H   0  0  0  0  0  0
  -28.1161  -36.2646   24.6169 H   0  0  0  0  0  0
  -27.2287  -37.1249   25.8829 H   0  0  0  0  0  0
  -20.9481  -29.8692   21.6755 H   0  0  0  0  0  0
  -26.0171  -38.2801   24.1541 H   0  0  0  0  0  0
  -28.3242  -18.7370   20.2802 H   0  0  0  0  0  0
  -34.0430  -19.8339   19.9973 H   0  0  0  0  0  0
  -33.9644  -18.1311   20.3222 H   0  0  0  0  0  0
  -33.9381  -19.2644   21.6745 H   0  0  0  0  0  0
  -32.0790  -21.7862   22.9595 H   0  0  0  0  0  0
  -30.7193  -22.5835   22.2795 H   0  0  0  0  0  0
  -32.3011  -23.3547   22.1978 H   0  0  0  0  0  0
  -33.6750  -24.4520   16.1190 H   0  0  0  0  0  0
  -34.6258  -23.3986   17.1607 H   0  0  0  0  0  0
  -33.4548  -24.5149   17.8584 H   0  0  0  0  0  0
  -32.5153  -22.6803   14.7334 H   0  0  0  0  0  0
  -31.9549  -21.2016   15.4985 H   0  0  0  0  0  0
  -33.6761  -21.5814   15.4520 H   0  0  0  0  0  0
  -29.6806  -21.8826   19.4694 H   0  0  0  0  0  0
  -28.9658  -21.4812   21.2794 H   0  0  0  0  0  0
  -29.9477  -23.6882   20.6062 H   0  0  0  0  0  0
  -28.6749  -23.3984   21.6952 H   0  0  0  0  0  0
  -31.5702  -23.3157   19.4119 H   0  0  0  0  0  0
  -33.2561  -23.1338   19.6945 H   0  0  0  0  0  0
  -31.6093  -21.1735   18.0251 H   0  0  0  0  0  0
  -33.3407  -21.1688   18.1734 H   0  0  0  0  0  0
  -27.0213  -24.3877   20.1849 H   0  0  0  0  0  0
  -28.1507  -24.5113   18.8829 H   0  0  0  0  0  0
  -33.1203  -21.4150   21.0305 H   0  0  0  0  0  0
  -31.5858  -23.3025   16.8683 H   0  0  0  0  0  0
  -28.8357  -16.0364   20.5692 H   0  0  0  0  0  0
  1 25  1  0  0  0
  1 30  2  0  0  0
  1 88  1  0  0  0
  2  3  1  0  0  0
  2 25  1  0  0  0
  2 89  1  0  0  0
  2 90  1  0  0  0
  3  4  1  0  0  0
  3 91  1  0  0  0
  3 92  1  0  0  0
  4  5  1  0  0  0
  4 93  1  0  0  0
  4 94  1  0  0  0
  5  6  1  0  0  0
  5 26  1  0  0  0
  5 95  1  0  0  0
  6 25  1  0  0  0
  6 96  1  0  0  0
  6 97  1  0  0  0
  7  8  2  0  0  0
  7 26  1  0  0  0
  7 29  1  0  0  0
  8  9  1  0  0  0
  8 22  1  0  0  0
  9 10  1  0  0  0
  9 27  2  0  0  0
 10 11  2  0  0  0
 10 15  1  0  0  0
 11 12  1  0  0  0
 11 98  1  0  0  0
 12 13  2  0  0  0
 12 99  1  0  0  0
 13 14  1  0  0  0
 13 31  1  0  0  0
 14 15  2  0  0  0
 14100  1  0  0  0
 15101  1  0  0  0
 16 17  2  0  0  0
 16 21  1  0  0  0
 16 31  1  0  0  0
 17 18  1  0  0  0
 17102  1  0  0  0
 18 19  2  0  0  0
 18103  1  0  0  0
 19 20  1  0  0  0
 19 24  1  0  0  0
 20 21  2  0  0  0
 20104  1  0  0  0
 21 23  1  0  0  0
 22 28  1  0  0  0
 22 32  2  0  0  0
 26 27  1  0  0  0
 28105  1  0  0  0
 28106  1  0  0  0
 29107  1  0  0  0
 29108  1  0  0  0
 33 34  1  0  0  0
 33 66  1  0  0  0
 33 70  2  0  0  0
 34 36  1  0  0  0
 34 59  1  0  0  0
 34109  1  0  0  0
 35 44  2  0  0  0
 35 45  1  0  0  0
 35 68  1  0  0  0
 36 56  1  0  0  0
 36110  1  0  0  0
 37 39  1  0  0  0
 37 47  1  0  0  0
 37 66  1  0  0  0
 37111  1  0  0  0
 38 43  2  0  0  0
 38 46  1  0  0  0
 38 47  1  0  0  0
 39 64  1  0  0  0
 39 67  2  0  0  0
 40 52  1  0  0  0
 40 53  2  0  0  0
 40 58  1  0  0  0
 41112  1  0  0  0
 41113  1  0  0  0
 41114  1  0  0  0
 41 48  1  0  0  0
 42 43  1  0  0  0
 42 66  1  0  0  0
 42115  1  0  0  0
 42116  1  0  0  0
 43 44  1  0  0  0
 44117  1  0  0  0
 45 46  2  0  0  0
 45118  1  0  0  0
 46119  1  0  0  0
 47120  1  0  0  0
 47121  1  0  0  0
 48 56  1  0  0  0
 48 65  1  0  0  0
 48122  1  0  0  0
 49 50  1  0  0  0
 49 53  1  0  0  0
 49 64  1  0  0  0
 49123  1  0  0  0
 50 51  1  0  0  0
 50124  1  0  0  0
 50125  1  0  0  0
 51 52  1  0  0  0
 51126  1  0  0  0
 51127  1  0  0  0
 52128  1  0  0  0
 52129  1  0  0  0
 53 54  1  0  0  0
 54 55  2  0  0  0
 54130  1  0  0  0
 55 57  1  0  0  0
 55131  1  0  0  0
 56 69  2  0  0  0
 57 58  2  0  0  0
 57132  1  0  0  0
 58133  1  0  0  0
 59 60  1  0  0  0
 59 61  1  0  0  0
 59 62  1  0  0  0
 60134  1  0  0  0
 60135  1  0  0  0
 60136  1  0  0  0
 61137  1  0  0  0
 61138  1  0  0  0
 61139  1  0  0  0
 62140  1  0  0  0
 62141  1  0  0  0
 62142  1  0  0  0
 63 65  1  0  0  0
 63143  1  0  0  0
 63144  1  0  0  0
 63145  1  0  0  0
 64146  1  0  0  0
 65147  1  0  0  0
 68 84  1  0  0  0
 71 72  2  0  0  0
 71 75  1  0  0  0
 71148  1  0  0  0
 72 73  1  0  0  0
 72 80  1  0  0  0
 73 74  2  0  0  0
 73 85  1  0  0  0
 74 76  1  0  0  0
 74 87  1  0  0  0
 75 87  2  0  0  0
 75 88  1  0  0  0
 76149  1  0  0  0
 76150  1  0  0  0
 76151  1  0  0  0
 77152  1  0  0  0
 77153  1  0  0  0
 77154  1  0  0  0
 77 85  1  0  0  0
 78155  1  0  0  0
 78156  1  0  0  0
 78157  1  0  0  0
 78 86  1  0  0  0
 79 86  1  0  0  0
 79158  1  0  0  0
 79159  1  0  0  0
 79160  1  0  0  0
 80 81  1  0  0  0
 80161  1  0  0  0
 80162  1  0  0  0
 81 84  1  0  0  0
 81163  1  0  0  0
 81164  1  0  0  0
 82 83  1  0  0  0
 82 85  1  0  0  0
 82165  1  0  0  0
 82166  1  0  0  0
 83 86  1  0  0  0
 83167  1  0  0  0
 83168  1  0  0  0
 84169  1  0  0  0
 84170  1  0  0  0
 85171  1  0  0  0
 86172  1  0  0  0
 88173  1  0  0  0
M  ISO  4   1 100  68 101  84 101  88 100
M  END
> <chiral flag>
0

> <version>
0

> <s_m_source_file>
/data/baiqing/PycharmProjects/Reinvent-master-3.2/result/LINK_invent/BTK/process_docking_weight1_custom_sum_contain_oxygen_bond_distance_aromatic_linkinvent_7_9_3/rearranged_h_0094.sdf

> <i_m_source_file_index>
55

> <r_mmod_Potential_Energy-OPLS-2005>
642.266418457031

> <r_mmod_Stretch_Energy-OPLS-2005>
296.304443359375

> <r_mmod_Bend_Energy-OPLS-2005>
503.983001708984

> <r_mmod_Torsional_Energy-OPLS-2005>
222.436538696289

> <r_mmod_Improper_Torsional_Energy-OPLS-2005>
5.09510850906372

> <r_mmod_Van_der_Waal_Energy-OPLS-2005>
156.420440673828

> <r_mmod_Electrostatic_Energy-OPLS-2005>
-514.781433105469

> <r_mmod_Solvation_Energy-OPLS-2005>
-225.82682800293

> <b_mmod_Minimization_Converged-OPLS-2005>
0

> <r_mmod_RMS_Derivative-OPLS-2005>
5.47668218612671

$$$$
55
                    3D
 Structure written by MMmdl.
178186  0  0  1  0            999 V2000
  -30.7688  -14.4616   20.6312 C   0  0  0  0  0  0
  -30.4209  -12.3379   19.4253 C   0  0  0  0  0  0
  -29.4863  -12.4935   18.2119 C   0  0  0  0  0  0
  -28.0142  -12.3464   18.6361 C   0  0  0  0  0  0
  -27.6610  -13.2106   19.8761 C   0  0  2  0  0  0
  -28.7051  -13.0354   21.0026 C   0  0  0  0  0  0
  -25.2636  -13.8182   20.5769 C   0  0  0  0  0  0
  -24.1849  -13.0471   20.9225 C   0  0  0  0  0  0
  -24.6392  -11.6923   20.8748 C   0  0  0  0  0  0
  -23.9048  -10.4316   21.0419 C   0  0  0  0  0  0
  -24.3596   -9.4234   21.9195 C   0  0  0  0  0  0
  -23.6285   -8.2253   22.0743 C   0  0  0  0  0  0
  -22.4259   -8.0290   21.3547 C   0  0  0  0  0  0
  -21.9909   -9.0271   20.4659 C   0  0  0  0  0  0
  -22.7225  -10.2161   20.3086 C   0  0  0  0  0  0
  -21.6862   -6.0760   22.5272 C   0  0  0  0  0  0
  -21.4020   -6.5648   23.8219 C   0  0  0  0  0  0
  -21.3662   -5.6790   24.9170 C   0  0  0  0  0  0
  -21.6033   -4.3052   24.7210 C   0  0  0  0  0  0
  -21.8831   -3.8169   23.4320 C   0  0  0  0  0  0
  -21.9207   -4.6991   22.3386 C   0  0  0  0  0  0
  -22.7882  -13.5283   21.1867 C   0  0  0  0  0  0
  -22.1670   -4.2184   21.0962 F   0  0  0  0  0  0
  -21.5619   -3.4529   25.7715 F   0  0  0  0  0  0
  -30.0362  -13.3266   20.4467 N   0  0  0  0  0  0
  -26.3043  -12.9337   20.3427 N   0  0  0  0  0  0
  -25.9330  -11.6501   20.5813 N   0  0  0  0  0  0
  -22.0489  -12.8304   22.0421 N   0  0  0  0  0  0
  -25.4373  -15.1897   20.4177 N   0  0  0  0  0  0
  -31.8240  -14.6654   20.0287 O   0  0  0  0  0  0
  -21.6621   -6.8883   21.4225 O   0  0  0  0  0  0
  -22.3582  -14.5598   20.6717 O   0  0  0  0  0  0
  -24.6161  -31.8675   23.2162 C   0  0  0  0  0  0
  -25.9081  -32.4805   23.8390 C   0  0  1  0  0  0
  -27.2127  -27.4222   20.0860 C   0  0  0  0  0  0
  -25.5946  -33.8609   24.2340 N   0  0  0  0  0  0
  -23.4009  -30.4968   21.5575 C   0  0  2  0  0  0
  -24.8426  -28.9801   20.1074 C   0  0  0  0  0  0
  -22.7404  -29.4674   22.5026 C   0  0  0  0  0  0
  -18.0254  -28.1431   22.8506 C   0  0  0  0  0  0
  -24.1490  -36.7308   23.2632 C   0  0  0  0  0  0
  -25.9333  -30.8326   21.3714 C   0  0  0  0  0  0
  -26.0086  -29.4698   20.7099 C   0  0  0  0  0  0
  -27.1982  -28.6980   20.7038 C   0  0  0  0  0  0
  -26.0348  -26.9842   19.4308 C   0  0  0  0  0  0
  -24.8515  -27.7364   19.4623 C   0  0  0  0  0  0
  -23.6049  -29.8458   20.1660 C   0  0  0  0  0  0
  -25.4105  -36.3089   24.0324 C   0  0  1  0  0  0
  -20.5853  -28.3686   23.1366 C   0  0  2  0  0  0
  -20.6777  -26.9440   22.5439 C   0  0  0  0  0  0
  -19.5749  -26.6440   21.5244 C   0  0  0  0  0  0
  -18.1916  -26.7976   22.1642 C   0  0  0  0  0  0
  -19.1510  -28.8878   23.2920 C   0  0  0  0  0  0
  -18.9440  -30.1494   23.8908 C   0  0  0  0  0  0
  -17.6448  -30.6622   24.0597 C   0  0  0  0  0  0
  -25.9032  -34.9461   23.5112 C   0  0  0  0  0  0
  -16.5336  -29.9127   23.6381 C   0  0  0  0  0  0
  -16.7248  -28.6571   23.0348 C   0  0  0  0  0  0
  -26.4515  -31.6556   25.0694 C   0  0  0  0  0  0
  -25.3780  -31.3695   26.1436 C   0  0  0  0  0  0
  -27.0320  -30.2972   24.6091 C   0  0  0  0  0  0
  -27.6089  -32.4255   25.7484 C   0  0  0  0  0  0
  -27.5567  -37.1812   24.8462 C   0  0  0  0  0  0
  -21.4139  -29.3013   22.3737 N   0  0  0  0  0  0
  -26.4277  -37.3774   23.9407 N   0  0  0  0  0  0
  -24.6679  -31.0770   22.1077 N   0  0  0  0  0  0
  -23.4175  -28.8220   23.3067 O   0  0  0  0  0  0
  -28.3305  -26.6042   20.1339 O   0  0  0  0  0  0
  -26.5580  -34.8908   22.4666 O   0  0  0  0  0  0
  -23.5373  -32.1449   23.7565 O   0  0  0  0  0  0
  -30.5102  -18.6503   21.2009 C   0  0  0  0  0  0
  -31.0497  -17.7699   22.1205 C   0  0  0  0  0  0
  -31.5219  -19.8686   22.7662 C   0  0  0  0  0  0
  -26.7435  -22.0204   26.9375 C   0  0  0  0  0  0
  -29.5303  -24.0915   18.8565 C   0  0  0  0  0  0
  -31.2203  -16.2675   22.2540 C   0  0  0  0  0  0
  -32.1437  -20.9899   23.5640 C   0  0  0  0  0  0
  -27.7063  -21.2140   26.0642 C   0  0  0  0  0  0
  -31.1664  -21.8883   24.3610 C   0  0  0  0  0  0
  -28.9695  -22.0036   25.6958 C   0  0  0  0  0  0
  -29.8936  -21.1605   24.8137 C   0  0  0  0  0  0
  -29.0831  -21.4188   20.4360 C   0  0  0  0  0  0
  -28.4036  -22.7732   20.7731 C   0  0  0  0  0  0
  -30.5110  -21.2477   20.9850 C   0  0  0  0  0  0
  -28.0269  -25.2567   20.5819 C   0  0  0  0  0  0
  -29.0577  -24.1215   20.3205 C   0  0  2  0  0  0
  -30.7997  -19.9389   21.6341 N   0  0  0  0  0  0
  -31.6143  -18.5716   23.0796 N   0  3  0  0  0  0
  -30.3203  -15.3481   21.5378 N   0  0  0  0  0  0
  -31.4627  -12.4368   19.1131 H   0  0  0  0  0  0
  -30.3429  -11.3362   19.8475 H   0  0  0  0  0  0
  -29.7284  -11.7334   17.4669 H   0  0  0  0  0  0
  -29.6432  -13.4612   17.7354 H   0  0  0  0  0  0
  -27.8505  -11.2901   18.8632 H   0  0  0  0  0  0
  -27.3513  -12.5895   17.8032 H   0  0  0  0  0  0
  -27.6990  -14.2536   19.5595 H   0  0  0  0  0  0
  -28.6951  -12.0129   21.3844 H   0  0  0  0  0  0
  -28.4506  -13.6653   21.8544 H   0  0  0  0  0  0
  -25.2742   -9.5728   22.4765 H   0  0  0  0  0  0
  -24.0038   -7.4650   22.7438 H   0  0  0  0  0  0
  -21.0856   -8.8788   19.8948 H   0  0  0  0  0  0
  -22.3674  -10.9706   19.6203 H   0  0  0  0  0  0
  -21.1986   -7.6155   23.9744 H   0  0  0  0  0  0
  -21.1472   -6.0497   25.9081 H   0  0  0  0  0  0
  -22.0603   -2.7633   23.2793 H   0  0  0  0  0  0
  -22.4048  -11.9943   22.4818 H   0  0  0  0  0  0
  -21.1119  -13.1365   22.2585 H   0  0  0  0  0  0
  -24.6770  -15.8518   20.5292 H   0  0  0  0  0  0
  -26.2959  -15.6285   20.1081 H   0  0  0  0  0  0
  -26.7151  -32.5514   23.1139 H   0  0  0  0  0  0
  -25.0079  -33.9763   25.0478 H   0  0  0  0  0  0
  -22.6891  -31.3137   21.4282 H   0  0  0  0  0  0
  -23.3723  -35.9662   23.3293 H   0  0  0  0  0  0
  -24.3599  -36.8929   22.2047 H   0  0  0  0  0  0
  -23.7263  -37.6528   23.6641 H   0  0  0  0  0  0
  -26.0412  -31.6054   20.6091 H   0  0  0  0  0  0
  -26.8256  -30.8803   21.9853 H   0  0  0  0  0  0
  -28.0896  -29.0614   21.1974 H   0  0  0  0  0  0
  -26.0079  -26.0558   18.8813 H   0  0  0  0  0  0
  -23.9589  -27.3680   18.9738 H   0  0  0  0  0  0
  -23.7143  -30.6293   19.4143 H   0  0  0  0  0  0
  -22.7256  -29.2701   19.8686 H   0  0  0  0  0  0
  -25.1280  -36.1931   25.0806 H   0  0  0  0  0  0
  -20.9926  -28.3256   24.1502 H   0  0  0  0  0  0
  -20.5783  -26.2269   23.3596 H   0  0  0  0  0  0
  -21.6637  -26.7566   22.1174 H   0  0  0  0  0  0
  -19.6905  -25.6368   21.1237 H   0  0  0  0  0  0
  -19.6702  -27.3298   20.6821 H   0  0  0  0  0  0
  -17.4201  -26.6765   21.4016 H   0  0  0  0  0  0
  -18.0278  -26.0117   22.9046 H   0  0  0  0  0  0
  -19.7904  -30.7327   24.2269 H   0  0  0  0  0  0
  -17.4994  -31.6294   24.5195 H   0  0  0  0  0  0
  -15.5337  -30.3025   23.7704 H   0  0  0  0  0  0
  -15.8657  -28.0907   22.7033 H   0  0  0  0  0  0
  -24.5993  -30.6963   25.7839 H   0  0  0  0  0  0
  -24.8901  -32.2847   26.4788 H   0  0  0  0  0  0
  -25.8138  -30.8983   27.0245 H   0  0  0  0  0  0
  -26.2866  -29.6759   24.1100 H   0  0  0  0  0  0
  -27.4009  -29.7190   25.4577 H   0  0  0  0  0  0
  -27.8752  -30.4246   23.9290 H   0  0  0  0  0  0
  -27.2709  -33.3559   26.2054 H   0  0  0  0  0  0
  -28.3935  -32.6790   25.0343 H   0  0  0  0  0  0
  -28.0685  -31.8336   26.5410 H   0  0  0  0  0  0
  -28.2599  -38.0107   24.7489 H   0  0  0  0  0  0
  -28.1049  -36.2628   24.6294 H   0  0  0  0  0  0
  -27.2281  -37.1477   25.8870 H   0  0  0  0  0  0
  -20.9312  -29.8677   21.6907 H   0  0  0  0  0  0
  -26.0154  -38.2837   24.1435 H   0  0  0  0  0  0
  -29.9822  -18.4608   20.2777 H   0  0  0  0  0  0
  -25.8402  -21.4460   27.1489 H   0  0  0  0  0  0
  -26.4338  -22.9435   26.4457 H   0  0  0  0  0  0
  -27.2120  -22.2775   27.8886 H   0  0  0  0  0  0
  -30.2829  -23.3169   18.7058 H   0  0  0  0  0  0
  -29.9907  -25.0394   18.5733 H   0  0  0  0  0  0
  -28.7151  -23.8980   18.1596 H   0  0  0  0  0  0
  -31.1222  -16.0208   23.3115 H   0  0  0  0  0  0
  -32.2633  -16.0497   22.0143 H   0  0  0  0  0  0
  -32.7487  -21.5756   22.8708 H   0  0  0  0  0  0
  -32.8489  -20.5201   24.2504 H   0  0  0  0  0  0
  -27.1962  -20.9129   25.1482 H   0  0  0  0  0  0
  -27.9852  -20.2927   26.5831 H   0  0  0  0  0  0
  -30.8664  -22.7413   23.7512 H   0  0  0  0  0  0
  -31.6921  -22.3233   25.2125 H   0  0  0  0  0  0
  -29.4943  -22.3115   26.6020 H   0  0  0  0  0  0
  -28.6944  -22.9209   25.1737 H   0  0  0  0  0  0
  -30.1715  -20.2561   25.3549 H   0  0  0  0  0  0
  -29.3322  -20.8520   23.9311 H   0  0  0  0  0  0
  -29.0809  -21.2632   19.3558 H   0  0  0  0  0  0
  -28.4459  -20.6357   20.8517 H   0  0  0  0  0  0
  -28.2592  -22.8215   21.8528 H   0  0  0  0  0  0
  -27.3931  -22.7059   20.3661 H   0  0  0  0  0  0
  -30.6865  -22.0467   21.7011 H   0  0  0  0  0  0
  -31.2412  -21.3970   20.1901 H   0  0  0  0  0  0
  -27.8344  -25.3121   21.6553 H   0  0  0  0  0  0
  -27.0979  -24.8866   20.1566 H   0  0  0  0  0  0
  -29.9364  -24.3086   20.9400 H   0  0  0  0  0  0
  -32.0867  -18.2253   23.9070 H   0  0  0  0  0  0
  -29.4395  -15.1388   21.9798 H   0  0  0  0  0  0
  1 25  1  0  0  0
  1 30  2  0  0  0
  1 89  1  0  0  0
  2  3  1  0  0  0
  2 25  1  0  0  0
  2 90  1  0  0  0
  2 91  1  0  0  0
  3  4  1  0  0  0
  3 92  1  0  0  0
  3 93  1  0  0  0
  4  5  1  0  0  0
  4 94  1  0  0  0
  4 95  1  0  0  0
  5  6  1  0  0  0
  5 26  1  0  0  0
  5 96  1  0  0  0
  6 25  1  0  0  0
  6 97  1  0  0  0
  6 98  1  0  0  0
  7  8  2  0  0  0
  7 26  1  0  0  0
  7 29  1  0  0  0
  8  9  1  0  0  0
  8 22  1  0  0  0
  9 10  1  0  0  0
  9 27  2  0  0  0
 10 11  2  0  0  0
 10 15  1  0  0  0
 11 12  1  0  0  0
 11 99  1  0  0  0
 12 13  2  0  0  0
 12100  1  0  0  0
 13 14  1  0  0  0
 13 31  1  0  0  0
 14 15  2  0  0  0
 14101  1  0  0  0
 15102  1  0  0  0
 16 17  2  0  0  0
 16 21  1  0  0  0
 16 31  1  0  0  0
 17 18  1  0  0  0
 17103  1  0  0  0
 18 19  2  0  0  0
 18104  1  0  0  0
 19 20  1  0  0  0
 19 24  1  0  0  0
 20 21  2  0  0  0
 20105  1  0  0  0
 21 23  1  0  0  0
 22 28  1  0  0  0
 22 32  2  0  0  0
 26 27  1  0  0  0
 28106  1  0  0  0
 28107  1  0  0  0
 29108  1  0  0  0
 29109  1  0  0  0
 33 34  1  0  0  0
 33 66  1  0  0  0
 33 70  2  0  0  0
 34 36  1  0  0  0
 34 59  1  0  0  0
 34110  1  0  0  0
 35 44  2  0  0  0
 35 45  1  0  0  0
 35 68  1  0  0  0
 36 56  1  0  0  0
 36111  1  0  0  0
 37 39  1  0  0  0
 37 47  1  0  0  0
 37 66  1  0  0  0
 37112  1  0  0  0
 38 43  2  0  0  0
 38 46  1  0  0  0
 38 47  1  0  0  0
 39 64  1  0  0  0
 39 67  2  0  0  0
 40 52  1  0  0  0
 40 53  2  0  0  0
 40 58  1  0  0  0
 41113  1  0  0  0
 41114  1  0  0  0
 41115  1  0  0  0
 41 48  1  0  0  0
 42 43  1  0  0  0
 42 66  1  0  0  0
 42116  1  0  0  0
 42117  1  0  0  0
 43 44  1  0  0  0
 44118  1  0  0  0
 45 46  2  0  0  0
 45119  1  0  0  0
 46120  1  0  0  0
 47121  1  0  0  0
 47122  1  0  0  0
 48 56  1  0  0  0
 48 65  1  0  0  0
 48123  1  0  0  0
 49 50  1  0  0  0
 49 53  1  0  0  0
 49 64  1  0  0  0
 49124  1  0  0  0
 50 51  1  0  0  0
 50125  1  0  0  0
 50126  1  0  0  0
 51 52  1  0  0  0
 51127  1  0  0  0
 51128  1  0  0  0
 52129  1  0  0  0
 52130  1  0  0  0
 53 54  1  0  0  0
 54 55  2  0  0  0
 54131  1  0  0  0
 55 57  1  0  0  0
 55132  1  0  0  0
 56 69  2  0  0  0
 57 58  2  0  0  0
 57133  1  0  0  0
 58134  1  0  0  0
 59 60  1  0  0  0
 59 61  1  0  0  0
 59 62  1  0  0  0
 60135  1  0  0  0
 60136  1  0  0  0
 60137  1  0  0  0
 61138  1  0  0  0
 61139  1  0  0  0
 61140  1  0  0  0
 62141  1  0  0  0
 62142  1  0  0  0
 62143  1  0  0  0
 63 65  1  0  0  0
 63144  1  0  0  0
 63145  1  0  0  0
 63146  1  0  0  0
 64147  1  0  0  0
 65148  1  0  0  0
 68 85  1  0  0  0
 71 72  2  0  0  0
 71 87  1  0  0  0
 71149  1  0  0  0
 72 76  1  0  0  0
 72 88  1  0  0  0
 73 77  1  0  0  0
 73 87  1  0  0  0
 73 88  2  0  0  0
 74 78  1  0  0  0
 74150  1  0  0  0
 74151  1  0  0  0
 74152  1  0  0  0
 75153  1  0  0  0
 75154  1  0  0  0
 75155  1  0  0  0
 75 86  1  0  0  0
 76 89  1  0  0  0
 76156  1  0  0  0
 76157  1  0  0  0
 77 79  1  0  0  0
 77158  1  0  0  0
 77159  1  0  0  0
 78 80  1  0  0  0
 78160  1  0  0  0
 78161  1  0  0  0
 79 81  1  0  0  0
 79162  1  0  0  0
 79163  1  0  0  0
 80 81  1  0  0  0
 80164  1  0  0  0
 80165  1  0  0  0
 81166  1  0  0  0
 81167  1  0  0  0
 82 83  1  0  0  0
 82 84  1  0  0  0
 82168  1  0  0  0
 82169  1  0  0  0
 83 86  1  0  0  0
 83170  1  0  0  0
 83171  1  0  0  0
 84 87  1  0  0  0
 84172  1  0  0  0
 84173  1  0  0  0
 85 86  1  0  0  0
 85174  1  0  0  0
 85175  1  0  0  0
 86176  1  0  0  0
 88177  1  0  0  0
 89178  1  0  0  0
M  CHG  1  88   1
M  ISO  4   1 100  68 101  85 101  89 100
M  END
> <chiral flag>
0

> <version>
0

> <s_m_source_file>
/data/baiqing/PycharmProjects/Reinvent-master-3.2/result/LINK_invent/BTK/process_docking_weight1_custom_sum_contain_oxygen_bond_distance_aromatic_linkinvent_7_9_3/rearranged_h_0094.sdf

> <i_m_source_file_index>
56

> <r_mmod_Potential_Energy-OPLS-2005>
-105.025650024414

> <r_mmod_Stretch_Energy-OPLS-2005>
41.7250900268555

> <r_mmod_Bend_Energy-OPLS-2005>
123.027297973633

> <r_mmod_Torsional_Energy-OPLS-2005>
255.271820068359

> <r_mmod_Improper_Torsional_Energy-OPLS-2005>
3.49114608764648

> <r_mmod_Van_der_Waal_Energy-OPLS-2005>
136.726654052734

> <r_mmod_Electrostatic_Energy-OPLS-2005>
-274.666046142578

> <r_mmod_Solvation_Energy-OPLS-2005>
-408.511199951172

> <b_mmod_Minimization_Converged-OPLS-2005>
0

> <r_mmod_RMS_Derivative-OPLS-2005>
5.01139974594116

$$$$
56
                    3D
 Structure written by MMmdl.
179188  0  0  1  0            999 V2000
  -31.1813  -14.7339   20.2730 C   0  0  0  0  0  0
  -31.1754  -12.5004   19.0980 C   0  0  0  0  0  0
  -30.2269  -12.6383   17.9258 C   0  0  0  0  0  0
  -28.8316  -12.5512   18.3832 C   0  0  0  0  0  0
  -28.4140  -13.3752   19.7778 C   0  0  2  0  0  0
  -29.6880  -13.0042   20.6970 C   0  0  0  0  0  0
  -24.6382  -14.1477   20.7628 C   0  0  0  0  0  0
  -23.6568  -13.2196   20.8964 C   0  0  0  0  0  0
  -24.1715  -11.9183   20.9392 C   0  0  0  0  0  0
  -23.6909  -10.5313   21.0534 C   0  0  0  0  0  0
  -24.2390   -9.5420   21.9160 C   0  0  0  0  0  0
  -23.6052   -8.2848   22.0610 C   0  0  0  0  0  0
  -22.4179   -8.0191   21.3367 C   0  0  0  0  0  0
  -21.9358   -8.9730   20.4291 C   0  0  0  0  0  0
  -22.5782  -10.2054   20.2713 C   0  0  0  0  0  0
  -21.7032   -6.0668   22.5282 C   0  0  0  0  0  0
  -21.4201   -6.5683   23.8191 C   0  0  0  0  0  0
  -21.3695   -5.6836   24.9144 C   0  0  0  0  0  0
  -21.6006   -4.3086   24.7220 C   0  0  0  0  0  0
  -21.8787   -3.8117   23.4368 C   0  0  0  0  0  0
  -21.9247   -4.6896   22.3422 C   0  0  0  0  0  0
  -22.2914  -13.5905   21.1321 C   0  0  0  0  0  0
  -22.1653   -4.2047   21.0995 F   0  0  0  0  0  0
  -21.5521   -3.4606   25.7753 F   0  0  0  0  0  0
  -30.7490  -13.4858   20.0708 N   0  0  0  0  0  0
  -25.7706  -13.4038   20.8409 N   0  0  0  0  0  0
  -25.1738  -12.2894   21.5477 N   0  0  0  0  0  0
  -21.6666  -12.8576   22.0380 N   0  0  0  0  0  0
  -24.6045  -15.5222   20.5579 N   0  0  0  0  0  0
  -32.3540  -14.9592   20.1040 O   0  0  0  0  0  0
  -21.6916   -6.8598   21.4131 O   0  0  0  0  0  0
  -21.8584  -14.6126   20.6270 O   0  0  0  0  0  0
  -24.6753  -31.8147   23.1720 C   0  0  0  0  0  0
  -25.9408  -32.4505   23.8172 C   0  0  1  0  0  0
  -27.0045  -26.7081   20.1989 C   0  0  0  0  0  0
  -25.6040  -33.8343   24.2041 N   0  0  0  0  0  0
  -23.4839  -30.4440   21.5270 C   0  0  2  0  0  0
  -24.9036  -28.8244   20.0999 C   0  0  0  0  0  0
  -22.7679  -29.4442   22.4725 C   0  0  0  0  0  0
  -18.0346  -28.1411   22.8463 C   0  0  0  0  0  0
  -24.1503  -36.7194   23.2644 C   0  0  0  0  0  0
  -26.0657  -30.5255   21.4608 C   0  0  0  0  0  0
  -26.0818  -29.1060   20.7998 C   0  0  0  0  0  0
  -27.1272  -28.0553   20.8531 C   0  0  0  0  0  0
  -25.9185  -26.7404   19.3113 C   0  0  0  0  0  0
  -24.8630  -27.6694   19.3213 C   0  0  0  0  0  0
  -23.7220  -29.7906   20.1432 C   0  0  0  0  0  0
  -25.4140  -36.2930   24.0295 C   0  0  1  0  0  0
  -20.5970  -28.3794   23.1132 C   0  0  2  0  0  0
  -20.6803  -26.9461   22.5374 C   0  0  0  0  0  0
  -19.5770  -26.6375   21.5193 C   0  0  0  0  0  0
  -18.1966  -26.7944   22.1617 C   0  0  0  0  0  0
  -19.1604  -28.8920   23.2796 C   0  0  0  0  0  0
  -18.9507  -30.1500   23.8850 C   0  0  0  0  0  0
  -17.6493  -30.6591   24.0560 C   0  0  0  0  0  0
  -25.9131  -34.9309   23.4989 C   0  0  0  0  0  0
  -16.5388  -29.9079   23.6332 C   0  0  0  0  0  0
  -16.7326  -28.6498   23.0360 C   0  0  0  0  0  0
  -26.4590  -31.6518   25.0773 C   0  0  0  0  0  0
  -25.3636  -31.3823   26.1365 C   0  0  0  0  0  0
  -27.0521  -30.2839   24.6725 C   0  0  0  0  0  0
  -27.6090  -32.4373   25.7521 C   0  0  0  0  0  0
  -27.5579  -37.1750   24.8448 C   0  0  0  0  0  0
  -21.4350  -29.3081   22.3461 N   0  0  0  0  0  0
  -26.4273  -37.3684   23.9413 N   0  0  0  0  0  0
  -24.7662  -30.9633   22.0996 N   0  0  0  0  0  0
  -23.4183  -28.7991   23.2981 O   0  0  0  0  0  0
  -27.7562  -25.3780   20.2949 O   0  0  0  0  0  0
  -26.5742  -34.8853   22.4587 O   0  0  0  0  0  0
  -23.5801  -32.1262   23.6701 O   0  0  0  0  0  0
  -26.4091  -12.7578   18.7795 C   0  0  0  0  0  0
  -26.6022  -14.5603   19.0093 C   0  0  0  0  0  0
  -28.8830  -19.1839   21.7091 C   0  0  0  0  0  0
  -30.0172  -19.6077   20.9497 C   0  0  0  0  0  0
  -28.6674  -19.9848   19.1073 C   0  0  0  0  0  0
  -27.0165  -11.6163   20.0968 C   0  0  0  0  0  0
  -27.7983  -18.7729   20.8972 C   0  0  0  0  0  0
  -27.6785  -20.1578   20.0927 C   0  0  0  0  0  0
  -27.2597  -15.2715   20.5594 C   0  0  0  0  0  0
  -27.6005  -12.3695   21.6990 C   0  0  0  0  0  0
  -26.9303  -10.1161   19.8673 C   0  0  0  0  0  0
  -25.5787  -22.3044   18.5661 C   0  0  0  0  0  0
  -28.4549  -12.4136   24.1175 C   0  0  0  0  0  0
  -28.7541  -10.3056   22.7916 C   0  0  0  0  0  0
  -27.7226  -21.9440   20.5741 C   0  0  0  0  0  0
  -26.2011  -23.6446   19.0008 C   0  0  0  0  0  0
  -29.5058  -16.4461   21.0893 C   0  0  0  0  0  0
  -27.9973  -16.9181   20.7424 C   0  0  1  0  0  0
  -27.8700  -11.5538   22.9793 C   0  0  0  0  0  0
  -27.1688  -23.7266   20.2268 C   0  0  2  0  0  0
  -29.9222  -19.8546   19.6110 N   0  0  0  0  0  0
  -27.6709  -14.1505   21.8332 N   0  0  0  0  0  0
  -30.3169  -15.7594   20.0612 N   0  0  0  0  0  0
  -32.1916  -12.7197   18.7636 H   0  0  0  0  0  0
  -31.2246  -11.4747   19.4634 H   0  0  0  0  0  0
  -30.4447  -11.8769   17.1737 H   0  0  0  0  0  0
  -30.4000  -13.5973   17.4353 H   0  0  0  0  0  0
  -28.6724  -11.4752   18.4132 H   0  0  0  0  0  0
  -28.3305  -12.9287   17.4883 H   0  0  0  0  0  0
  -28.7664  -14.2639   19.2531 H   0  0  0  0  0  0
  -29.7901  -11.9277   20.8401 H   0  0  0  0  0  0
  -29.8174  -13.4104   21.7047 H   0  0  0  0  0  0
  -25.1158   -9.7639   22.5058 H   0  0  0  0  0  0
  -24.0128   -7.5535   22.7463 H   0  0  0  0  0  0
  -21.0438   -8.7599   19.8573 H   0  0  0  0  0  0
  -22.1655  -10.9299   19.5826 H   0  0  0  0  0  0
  -21.2336   -7.6237   23.9667 H   0  0  0  0  0  0
  -21.1517   -6.0613   25.9055 H   0  0  0  0  0  0
  -22.0515   -2.7564   23.2913 H   0  0  0  0  0  0
  -22.1334  -12.0739   22.4692 H   0  0  0  0  0  0
  -20.7276  -13.0994   22.3245 H   0  0  0  0  0  0
  -23.6611  -15.8551   20.3799 H   0  0  0  0  0  0
  -25.2219  -15.7698   19.7935 H   0  0  0  0  0  0
  -26.7457  -32.4910   23.0840 H   0  0  0  0  0  0
  -25.0100  -33.9408   25.0133 H   0  0  0  0  0  0
  -22.8083  -31.2870   21.3710 H   0  0  0  0  0  0
  -23.3778  -35.9507   23.3215 H   0  0  0  0  0  0
  -24.3603  -36.8940   22.2079 H   0  0  0  0  0  0
  -23.7233  -37.6343   23.6766 H   0  0  0  0  0  0
  -26.3018  -31.2483   20.6799 H   0  0  0  0  0  0
  -26.9127  -30.5566   22.1323 H   0  0  0  0  0  0
  -27.9798  -28.2282   21.4966 H   0  0  0  0  0  0
  -25.8252  -25.9942   18.5512 H   0  0  0  0  0  0
  -24.0184  -27.4905   18.6680 H   0  0  0  0  0  0
  -23.9174  -30.5741   19.4116 H   0  0  0  0  0  0
  -22.8194  -29.2868   19.7946 H   0  0  0  0  0  0
  -25.1330  -36.1722   25.0790 H   0  0  0  0  0  0
  -21.0094  -28.3420   24.1243 H   0  0  0  0  0  0
  -20.5657  -26.2441   23.3642 H   0  0  0  0  0  0
  -21.6666  -26.7396   22.1193 H   0  0  0  0  0  0
  -19.6919  -25.6265   21.1278 H   0  0  0  0  0  0
  -19.6678  -27.3138   20.6682 H   0  0  0  0  0  0
  -17.4218  -26.6704   21.4035 H   0  0  0  0  0  0
  -18.0364  -26.0098   22.9030 H   0  0  0  0  0  0
  -19.7984  -30.7331   24.2196 H   0  0  0  0  0  0
  -17.5041  -31.6257   24.5187 H   0  0  0  0  0  0
  -15.5387  -30.2955   23.7659 H   0  0  0  0  0  0
  -15.8741  -28.0777   22.7099 H   0  0  0  0  0  0
  -24.5863  -30.7144   25.7618 H   0  0  0  0  0  0
  -24.8755  -32.3028   26.4581 H   0  0  0  0  0  0
  -25.7762  -30.9089   27.0280 H   0  0  0  0  0  0
  -26.3234  -29.6425   24.1752 H   0  0  0  0  0  0
  -27.3932  -29.7327   25.5499 H   0  0  0  0  0  0
  -27.9247  -30.3930   24.0280 H   0  0  0  0  0  0
  -27.2700  -33.3784   26.1860 H   0  0  0  0  0  0
  -28.3958  -32.6756   25.0349 H   0  0  0  0  0  0
  -28.0691  -31.8661   26.5594 H   0  0  0  0  0  0
  -28.2512  -38.0127   24.7558 H   0  0  0  0  0  0
  -28.1163  -36.2653   24.6184 H   0  0  0  0  0  0
  -27.2316  -37.1271   25.8853 H   0  0  0  0  0  0
  -20.9594  -29.8852   21.6647 H   0  0  0  0  0  0
  -26.0107  -38.2739   24.1422 H   0  0  0  0  0  0
  -26.0238  -12.3537   17.8524 H   0  0  0  0  0  0
  -26.3866  -15.2072   18.1706 H   0  0  0  0  0  0
  -29.1055  -18.7001   22.6483 H   0  0  0  0  0  0
  -31.0073  -19.6166   21.3742 H   0  0  0  0  0  0
  -28.6714  -20.5783   18.2043 H   0  0  0  0  0  0
  -26.1939   -9.9057   19.0920 H   0  0  0  0  0  0
  -26.6243   -9.5876   20.7631 H   0  0  0  0  0  0
  -27.8843   -9.7051   19.5419 H   0  0  0  0  0  0
  -24.8827  -22.4603   17.7389 H   0  0  0  0  0  0
  -25.0144  -21.8329   19.3688 H   0  0  0  0  0  0
  -26.3245  -21.6060   18.1980 H   0  0  0  0  0  0
  -27.8176  -13.2692   24.3380 H   0  0  0  0  0  0
  -29.4493  -12.7883   23.8738 H   0  0  0  0  0  0
  -28.5429  -11.8319   25.0366 H   0  0  0  0  0  0
  -28.3394   -9.6065   22.0742 H   0  0  0  0  0  0
  -28.8377   -9.7643   23.7333 H   0  0  0  0  0  0
  -29.7695  -10.5436   22.4802 H   0  0  0  0  0  0
  -26.6808  -21.7414   20.8120 H   0  0  0  0  0  0
  -28.1351  -22.1324   19.5871 H   0  0  0  0  0  0
  -25.3156  -24.2210   19.2507 H   0  0  0  0  0  0
  -26.6935  -24.0753   18.1302 H   0  0  0  0  0  0
  -29.4680  -15.8016   21.9648 H   0  0  0  0  0  0
  -30.1836  -17.1957   21.4564 H   0  0  0  0  0  0
  -27.5324  -16.8947   21.7312 H   0  0  0  0  0  0
  -26.8970  -11.1975   23.3186 H   0  0  0  0  0  0
  -26.4983  -23.8282   21.0830 H   0  0  0  0  0  0
  -30.7494  -16.4395   19.4547 H   0  0  0  0  0  0
  1 25  1  0  0  0
  1 30  2  0  0  0
  1 93  1  0  0  0
  2  3  1  0  0  0
  2 25  1  0  0  0
  2 94  1  0  0  0
  2 95  1  0  0  0
  3  4  1  0  0  0
  3 96  1  0  0  0
  3 97  1  0  0  0
  4  5  1  0  0  0
  4 98  1  0  0  0
  4 99  1  0  0  0
  5  6  1  0  0  0
  5 26  1  0  0  0
  5100  1  0  0  0
  6 25  1  0  0  0
  6101  1  0  0  0
  6102  1  0  0  0
  7  8  2  0  0  0
  7 26  1  0  0  0
  7 29  1  0  0  0
  8  9  1  0  0  0
  8 22  1  0  0  0
  9 10  1  0  0  0
  9 27  2  0  0  0
 10 11  2  0  0  0
 10 15  1  0  0  0
 11 12  1  0  0  0
 11103  1  0  0  0
 12 13  2  0  0  0
 12104  1  0  0  0
 13 14  1  0  0  0
 13 31  1  0  0  0
 14 15  2  0  0  0
 14105  1  0  0  0
 15106  1  0  0  0
 16 17  2  0  0  0
 16 21  1  0  0  0
 16 31  1  0  0  0
 17 18  1  0  0  0
 17107  1  0  0  0
 18 19  2  0  0  0
 18108  1  0  0  0
 19 20  1  0  0  0
 19 24  1  0  0  0
 20 21  2  0  0  0
 20109  1  0  0  0
 21 23  1  0  0  0
 22 28  1  0  0  0
 22 32  2  0  0  0
 26 27  1  0  0  0
 28110  1  0  0  0
 28111  1  0  0  0
 29112  1  0  0  0
 29113  1  0  0  0
 33 34  1  0  0  0
 33 66  1  0  0  0
 33 70  2  0  0  0
 34 36  1  0  0  0
 34 59  1  0  0  0
 34114  1  0  0  0
 35 44  2  0  0  0
 35 45  1  0  0  0
 35 68  1  0  0  0
 36 56  1  0  0  0
 36115  1  0  0  0
 37 39  1  0  0  0
 37 47  1  0  0  0
 37 66  1  0  0  0
 37116  1  0  0  0
 38 43  2  0  0  0
 38 46  1  0  0  0
 38 47  1  0  0  0
 39 64  1  0  0  0
 39 67  2  0  0  0
 40 52  1  0  0  0
 40 53  2  0  0  0
 40 58  1  0  0  0
 41117  1  0  0  0
 41118  1  0  0  0
 41119  1  0  0  0
 41 48  1  0  0  0
 42 43  1  0  0  0
 42 66  1  0  0  0
 42120  1  0  0  0
 42121  1  0  0  0
 43 44  1  0  0  0
 44122  1  0  0  0
 45 46  2  0  0  0
 45123  1  0  0  0
 46124  1  0  0  0
 47125  1  0  0  0
 47126  1  0  0  0
 48 56  1  0  0  0
 48 65  1  0  0  0
 48127  1  0  0  0
 49 50  1  0  0  0
 49 53  1  0  0  0
 49 64  1  0  0  0
 49128  1  0  0  0
 50 51  1  0  0  0
 50129  1  0  0  0
 50130  1  0  0  0
 51 52  1  0  0  0
 51131  1  0  0  0
 51132  1  0  0  0
 52133  1  0  0  0
 52134  1  0  0  0
 53 54  1  0  0  0
 54 55  2  0  0  0
 54135  1  0  0  0
 55 57  1  0  0  0
 55136  1  0  0  0
 56 69  2  0  0  0
 57 58  2  0  0  0
 57137  1  0  0  0
 58138  1  0  0  0
 59 60  1  0  0  0
 59 61  1  0  0  0
 59 62  1  0  0  0
 60139  1  0  0  0
 60140  1  0  0  0
 60141  1  0  0  0
 61142  1  0  0  0
 61143  1  0  0  0
 61144  1  0  0  0
 62145  1  0  0  0
 62146  1  0  0  0
 62147  1  0  0  0
 63 65  1  0  0  0
 63148  1  0  0  0
 63149  1  0  0  0
 63150  1  0  0  0
 64151  1  0  0  0
 65152  1  0  0  0
 68 90  1  0  0  0
 71 72  2  0  0  0
 71 76  1  0  0  0
 71153  1  0  0  0
 72 79  1  0  0  0
 72154  1  0  0  0
 73 74  2  0  0  0
 73 77  1  0  0  0
 73155  1  0  0  0
 74 91  1  0  0  0
 74156  1  0  0  0
 75 78  1  0  0  0
 75 91  2  0  0  0
 75157  1  0  0  0
 76 80  2  0  0  0
 76 81  1  0  0  0
 77 78  2  0  0  0
 77 88  1  0  0  0
 78 85  1  0  0  0
 79 88  1  0  0  0
 79 92  2  0  0  0
 80 89  1  0  0  0
 80 92  1  0  0  0
 81158  1  0  0  0
 81159  1  0  0  0
 81160  1  0  0  0
 82 86  1  0  0  0
 82161  1  0  0  0
 82162  1  0  0  0
 82163  1  0  0  0
 83164  1  0  0  0
 83165  1  0  0  0
 83166  1  0  0  0
 83 89  1  0  0  0
 84 89  1  0  0  0
 84167  1  0  0  0
 84168  1  0  0  0
 84169  1  0  0  0
 85170  1  0  0  0
 85171  1  0  0  0
 85 90  1  0  0  0
 86 90  1  0  0  0
 86172  1  0  0  0
 86173  1  0  0  0
 87 93  1  0  0  0
 87174  1  0  0  0
 87175  1  0  0  0
 87 88  1  0  0  0
 88176  1  0  0  0
 89177  1  0  0  0
 90178  1  0  0  0
 93179  1  0  0  0
M  ISO  4   1 100  68 101  90 101  93 100
M  END
> <chiral flag>
0

> <version>
0

> <s_m_source_file>
/data/baiqing/PycharmProjects/Reinvent-master-3.2/result/LINK_invent/BTK/process_docking_weight1_custom_sum_contain_oxygen_bond_distance_aromatic_linkinvent_7_9_3/rearranged_h_0094.sdf

> <i_m_source_file_index>
57

> <r_mmod_Potential_Energy-OPLS-2005>
11593.2890625

> <r_mmod_Stretch_Energy-OPLS-2005>
6001.90087890625

> <r_mmod_Bend_Energy-OPLS-2005>
1199.2255859375

> <r_mmod_Torsional_Energy-OPLS-2005>
703.220825195312

> <r_mmod_Improper_Torsional_Energy-OPLS-2005>
98.9767913818359

> <r_mmod_Van_der_Waal_Energy-OPLS-2005>
2889.27954101562

> <r_mmod_Electrostatic_Energy-OPLS-2005>
-591.381042480469

> <r_mmod_Solvation_Energy-OPLS-2005>
-212.055877685547

> <b_mmod_Minimization_Converged-OPLS-2005>
0

> <r_mmod_RMS_Derivative-OPLS-2005>
9.27834510803223

$$$$
57
                    3D
 Structure written by MMmdl.
176184  0  0  1  0            999 V2000
  -30.6101  -14.6947   20.5153 C   0  0  0  0  0  0
  -30.4341  -12.4345   19.4820 C   0  0  0  0  0  0
  -29.5379  -12.5360   18.2318 C   0  0  0  0  0  0
  -28.0432  -12.3823   18.5989 C   0  0  0  0  0  0
  -27.6425  -13.2405   19.8348 C   0  0  2  0  0  0
  -28.6645  -13.1342   20.9814 C   0  0  0  0  0  0
  -25.2472  -13.8237   20.5625 C   0  0  0  0  0  0
  -24.1771  -13.0472   20.9174 C   0  0  0  0  0  0
  -24.6373  -11.6946   20.8624 C   0  0  0  0  0  0
  -23.9043  -10.4328   21.0344 C   0  0  0  0  0  0
  -24.3638   -9.4256   21.9120 C   0  0  0  0  0  0
  -23.6359   -8.2246   22.0690 C   0  0  0  0  0  0
  -22.4315   -8.0278   21.3510 C   0  0  0  0  0  0
  -21.9929   -9.0225   20.4582 C   0  0  0  0  0  0
  -22.7226  -10.2138   20.2984 C   0  0  0  0  0  0
  -21.6883   -6.0744   22.5297 C   0  0  0  0  0  0
  -21.3995   -6.5623   23.8228 C   0  0  0  0  0  0
  -21.3657   -5.6770   24.9177 C   0  0  0  0  0  0
  -21.6070   -4.3036   24.7220 C   0  0  0  0  0  0
  -21.8819   -3.8132   23.4314 C   0  0  0  0  0  0
  -21.9170   -4.6969   22.3396 C   0  0  0  0  0  0
  -22.7787  -13.5228   21.1858 C   0  0  0  0  0  0
  -22.1673   -4.2140   21.0966 F   0  0  0  0  0  0
  -21.5649   -3.4513   25.7730 F   0  0  0  0  0  0
  -29.9790  -13.4749   20.4321 N   0  0  0  0  0  0
  -26.2890  -12.9457   20.3053 N   0  0  0  0  0  0
  -25.9272  -11.6573   20.5508 N   0  0  0  0  0  0
  -22.0394  -12.8249   22.0406 N   0  0  0  0  0  0
  -25.4120  -15.1974   20.4082 N   0  0  0  0  0  0
  -31.7927  -14.7986   20.1804 O   0  0  0  0  0  0
  -21.6643   -6.8887   21.4270 O   0  0  0  0  0  0
  -22.3445  -14.5530   20.6678 O   0  0  0  0  0  0
  -24.6398  -31.8547   23.2013 C   0  0  0  0  0  0
  -25.9206  -32.4773   23.8322 C   0  0  1  0  0  0
  -27.1921  -27.2647   20.1160 C   0  0  0  0  0  0
  -25.5982  -33.8567   24.2224 N   0  0  0  0  0  0
  -23.4306  -30.4905   21.5414 C   0  0  2  0  0  0
  -24.8721  -28.9422   20.1038 C   0  0  0  0  0  0
  -22.7529  -29.4628   22.4835 C   0  0  0  0  0  0
  -18.0312  -28.1475   22.8494 C   0  0  0  0  0  0
  -24.1488  -36.7254   23.2635 C   0  0  0  0  0  0
  -25.9812  -30.7788   21.3747 C   0  0  0  0  0  0
  -26.0466  -29.4014   20.7067 C   0  0  0  0  0  0
  -27.2207  -28.5776   20.6951 C   0  0  0  0  0  0
  -25.9959  -26.8768   19.4768 C   0  0  0  0  0  0
  -24.8495  -27.6909   19.4716 C   0  0  0  0  0  0
  -23.6489  -29.8369   20.1511 C   0  0  0  0  0  0
  -25.4130  -36.3059   24.0311 C   0  0  1  0  0  0
  -20.5924  -28.3757   23.1266 C   0  0  2  0  0  0
  -20.6836  -26.9461   22.5443 C   0  0  0  0  0  0
  -19.5801  -26.6430   21.5255 C   0  0  0  0  0  0
  -18.1968  -26.8032   22.1628 C   0  0  0  0  0  0
  -19.1579  -28.8918   23.2903 C   0  0  0  0  0  0
  -18.9502  -30.1524   23.8904 C   0  0  0  0  0  0
  -17.6491  -30.6653   24.0568 C   0  0  0  0  0  0
  -25.9067  -34.9439   23.5064 C   0  0  0  0  0  0
  -16.5376  -29.9169   23.6325 C   0  0  0  0  0  0
  -16.7312  -28.6604   23.0356 C   0  0  0  0  0  0
  -26.4569  -31.6618   25.0715 C   0  0  0  0  0  0
  -25.3762  -31.3822   26.1406 C   0  0  0  0  0  0
  -27.0402  -30.3032   24.6218 C   0  0  0  0  0  0
  -27.6104  -32.4395   25.7519 C   0  0  0  0  0  0
  -27.5576  -37.1801   24.8458 C   0  0  0  0  0  0
  -21.4225  -29.3065   22.3592 N   0  0  0  0  0  0
  -26.4260  -37.3801   23.9416 N   0  0  0  0  0  0
  -24.7024  -31.0589   22.0934 N   0  0  0  0  0  0
  -23.4242  -28.8134   23.2911 O   0  0  0  0  0  0
  -28.2750  -26.3605   20.1547 O   0  0  0  0  0  0
  -26.5625  -34.8913   22.4611 O   0  0  0  0  0  0
  -23.5573  -32.1270   23.7406 O   0  0  0  0  0  0
  -31.4082  -21.9690   20.2451 C   0  0  0  0  0  0
  -32.6075  -21.5719   20.8703 C   0  0  0  0  0  0
  -30.1949  -21.2843   20.5069 C   0  0  0  0  0  0
  -32.5310  -20.5158   21.8005 C   0  0  0  0  0  0
  -30.3631  -19.9434   21.0726 C   0  0  0  0  0  0
  -33.8736  -22.3973   20.6814 C   0  0  0  0  0  0
  -27.7792  -21.6033   19.5768 C   0  0  0  0  0  0
  -33.9120  -18.9264   23.2641 C   0  0  0  0  0  0
  -32.1909  -22.4178   24.0121 C   0  0  0  0  0  0
  -34.1284  -21.4146   25.2725 C   0  0  0  0  0  0
  -29.5058  -18.6089   20.9502 C   0  0  0  0  0  0
  -29.1057  -23.7921   20.1884 C   0  0  0  0  0  0
  -30.3966  -17.2525   20.7493 C   0  0  0  0  0  0
  -27.9803  -24.9094   20.4303 C   0  0  0  0  0  0
  -28.8872  -22.1930   20.4594 C   0  0  2  0  0  0
  -33.5142  -20.3867   22.9787 C   0  0  2  0  0  0
  -32.9961  -21.1182   24.2629 C   0  0  0  0  0  0
  -31.4542  -19.7052   21.8367 N   0  0  0  0  0  0
  -29.8592  -15.8243   20.7940 N   0  0  0  0  0  0
  -31.4797  -12.5609   19.2023 H   0  0  0  0  0  0
  -30.3715  -11.4466   19.9407 H   0  0  0  0  0  0
  -29.8335  -11.7837   17.4971 H   0  0  0  0  0  0
  -29.7056  -13.5054   17.7612 H   0  0  0  0  0  0
  -27.8431  -11.3277   18.7861 H   0  0  0  0  0  0
  -27.4298  -12.6528   17.7365 H   0  0  0  0  0  0
  -27.6508  -14.2737   19.4810 H   0  0  0  0  0  0
  -28.6791  -12.1257   21.4070 H   0  0  0  0  0  0
  -28.3861  -13.8093   21.7888 H   0  0  0  0  0  0
  -25.2796   -9.5771   22.4644 H   0  0  0  0  0  0
  -24.0084   -7.4657   22.7415 H   0  0  0  0  0  0
  -21.0846   -8.8735   19.8934 H   0  0  0  0  0  0
  -22.3676  -10.9637   19.6047 H   0  0  0  0  0  0
  -21.1997   -7.6129   23.9765 H   0  0  0  0  0  0
  -21.1497   -6.0459   25.9101 H   0  0  0  0  0  0
  -22.0604   -2.7587   23.2803 H   0  0  0  0  0  0
  -22.3980  -11.9987   22.4966 H   0  0  0  0  0  0
  -21.0978  -13.1256   22.2489 H   0  0  0  0  0  0
  -24.6369  -15.8424   20.5166 H   0  0  0  0  0  0
  -26.2538  -15.6473   20.0695 H   0  0  0  0  0  0
  -26.7260  -32.5466   23.1058 H   0  0  0  0  0  0
  -25.0183  -33.9659   25.0420 H   0  0  0  0  0  0
  -22.7264  -31.3136   21.4044 H   0  0  0  0  0  0
  -23.3779  -35.9549   23.3276 H   0  0  0  0  0  0
  -24.3577  -36.8923   22.2046 H   0  0  0  0  0  0
  -23.7187  -37.6420   23.6689 H   0  0  0  0  0  0
  -26.1160  -31.5473   20.6118 H   0  0  0  0  0  0
  -26.8618  -30.8266   22.0031 H   0  0  0  0  0  0
  -28.1325  -28.9231   21.1636 H   0  0  0  0  0  0
  -25.9071  -25.9374   18.9532 H   0  0  0  0  0  0
  -23.9561  -27.3544   18.9670 H   0  0  0  0  0  0
  -23.7786  -30.6188   19.4025 H   0  0  0  0  0  0
  -22.7646  -29.2821   19.8395 H   0  0  0  0  0  0
  -25.1350  -36.1865   25.0811 H   0  0  0  0  0  0
  -21.0072  -28.3441   24.1365 H   0  0  0  0  0  0
  -20.5839  -26.2363   23.3684 H   0  0  0  0  0  0
  -21.6702  -26.7599   22.1147 H   0  0  0  0  0  0
  -19.6958  -25.6336   21.1324 H   0  0  0  0  0  0
  -19.6775  -27.3196   20.6746 H   0  0  0  0  0  0
  -17.4262  -26.6805   21.4006 H   0  0  0  0  0  0
  -18.0333  -26.0220   22.9049 H   0  0  0  0  0  0
  -19.7979  -30.7378   24.2293 H   0  0  0  0  0  0
  -17.5043  -31.6317   24.5219 H   0  0  0  0  0  0
  -15.5395  -30.3079   23.7642 H   0  0  0  0  0  0
  -15.8722  -28.0929   22.7044 H   0  0  0  0  0  0
  -24.5892  -30.7257   25.7673 H   0  0  0  0  0  0
  -24.9018  -32.3030   26.4813 H   0  0  0  0  0  0
  -25.8016  -30.8953   27.0176 H   0  0  0  0  0  0
  -26.2942  -29.6811   24.1251 H   0  0  0  0  0  0
  -27.4040  -29.7336   25.4775 H   0  0  0  0  0  0
  -27.8865  -30.4285   23.9457 H   0  0  0  0  0  0
  -27.2645  -33.3699   26.2039 H   0  0  0  0  0  0
  -28.3931  -32.6961   25.0363 H   0  0  0  0  0  0
  -28.0710  -31.8551   26.5491 H   0  0  0  0  0  0
  -28.2593  -38.0109   24.7557 H   0  0  0  0  0  0
  -28.1078  -36.2656   24.6239 H   0  0  0  0  0  0
  -27.2296  -37.1368   25.8857 H   0  0  0  0  0  0
  -20.9431  -29.8727   21.6715 H   0  0  0  0  0  0
  -26.0146  -38.2843   24.1533 H   0  0  0  0  0  0
  -31.4232  -22.8982   19.6968 H   0  0  0  0  0  0
  -33.6870  -23.2898   20.0843 H   0  0  0  0  0  0
  -34.6329  -21.8046   20.1763 H   0  0  0  0  0  0
  -34.2789  -22.7277   21.6374 H   0  0  0  0  0  0
  -27.5886  -20.5577   19.8222 H   0  0  0  0  0  0
  -28.0286  -21.6885   18.5241 H   0  0  0  0  0  0
  -26.8369  -22.1289   19.7398 H   0  0  0  0  0  0
  -34.3802  -18.4713   22.3914 H   0  0  0  0  0  0
  -33.0381  -18.3354   23.5365 H   0  0  0  0  0  0
  -34.6273  -18.8529   24.0836 H   0  0  0  0  0  0
  -31.7528  -22.7851   24.9389 H   0  0  0  0  0  0
  -31.3488  -22.2680   23.3342 H   0  0  0  0  0  0
  -32.8291  -23.2115   23.6226 H   0  0  0  0  0  0
  -33.7436  -21.9328   26.1510 H   0  0  0  0  0  0
  -34.9103  -22.0466   24.8439 H   0  0  0  0  0  0
  -34.5976  -20.4994   25.6362 H   0  0  0  0  0  0
  -28.8108  -18.7091   20.1143 H   0  0  0  0  0  0
  -28.8795  -18.5244   21.8369 H   0  0  0  0  0  0
  -29.9274  -24.1157   20.8273 H   0  0  0  0  0  0
  -29.4358  -23.9130   19.1582 H   0  0  0  0  0  0
  -31.1803  -17.2479   21.5037 H   0  0  0  0  0  0
  -30.9281  -17.3620   19.8033 H   0  0  0  0  0  0
  -27.6794  -24.8517   21.4771 H   0  0  0  0  0  0
  -27.1146  -24.5690   19.8710 H   0  0  0  0  0  0
  -28.5179  -22.1222   21.4786 H   0  0  0  0  0  0
  -34.4497  -20.8620   22.6897 H   0  0  0  0  0  0
  -32.2878  -20.4375   24.7349 H   0  0  0  0  0  0
  -28.8873  -15.6892   21.0314 H   0  0  0  0  0  0
  1 25  1  0  0  0
  1 30  2  0  0  0
  1 89  1  0  0  0
  2  3  1  0  0  0
  2 25  1  0  0  0
  2 90  1  0  0  0
  2 91  1  0  0  0
  3  4  1  0  0  0
  3 92  1  0  0  0
  3 93  1  0  0  0
  4  5  1  0  0  0
  4 94  1  0  0  0
  4 95  1  0  0  0
  5  6  1  0  0  0
  5 26  1  0  0  0
  5 96  1  0  0  0
  6 25  1  0  0  0
  6 97  1  0  0  0
  6 98  1  0  0  0
  7  8  2  0  0  0
  7 26  1  0  0  0
  7 29  1  0  0  0
  8  9  1  0  0  0
  8 22  1  0  0  0
  9 10  1  0  0  0
  9 27  2  0  0  0
 10 11  2  0  0  0
 10 15  1  0  0  0
 11 12  1  0  0  0
 11 99  1  0  0  0
 12 13  2  0  0  0
 12100  1  0  0  0
 13 14  1  0  0  0
 13 31  1  0  0  0
 14 15  2  0  0  0
 14101  1  0  0  0
 15102  1  0  0  0
 16 17  2  0  0  0
 16 21  1  0  0  0
 16 31  1  0  0  0
 17 18  1  0  0  0
 17103  1  0  0  0
 18 19  2  0  0  0
 18104  1  0  0  0
 19 20  1  0  0  0
 19 24  1  0  0  0
 20 21  2  0  0  0
 20105  1  0  0  0
 21 23  1  0  0  0
 22 28  1  0  0  0
 22 32  2  0  0  0
 26 27  1  0  0  0
 28106  1  0  0  0
 28107  1  0  0  0
 29108  1  0  0  0
 29109  1  0  0  0
 33 34  1  0  0  0
 33 66  1  0  0  0
 33 70  2  0  0  0
 34 36  1  0  0  0
 34 59  1  0  0  0
 34110  1  0  0  0
 35 44  2  0  0  0
 35 45  1  0  0  0
 35 68  1  0  0  0
 36 56  1  0  0  0
 36111  1  0  0  0
 37 39  1  0  0  0
 37 47  1  0  0  0
 37 66  1  0  0  0
 37112  1  0  0  0
 38 43  2  0  0  0
 38 46  1  0  0  0
 38 47  1  0  0  0
 39 64  1  0  0  0
 39 67  2  0  0  0
 40 52  1  0  0  0
 40 53  2  0  0  0
 40 58  1  0  0  0
 41113  1  0  0  0
 41114  1  0  0  0
 41115  1  0  0  0
 41 48  1  0  0  0
 42 43  1  0  0  0
 42 66  1  0  0  0
 42116  1  0  0  0
 42117  1  0  0  0
 43 44  1  0  0  0
 44118  1  0  0  0
 45 46  2  0  0  0
 45119  1  0  0  0
 46120  1  0  0  0
 47121  1  0  0  0
 47122  1  0  0  0
 48 56  1  0  0  0
 48 65  1  0  0  0
 48123  1  0  0  0
 49 50  1  0  0  0
 49 53  1  0  0  0
 49 64  1  0  0  0
 49124  1  0  0  0
 50 51  1  0  0  0
 50125  1  0  0  0
 50126  1  0  0  0
 51 52  1  0  0  0
 51127  1  0  0  0
 51128  1  0  0  0
 52129  1  0  0  0
 52130  1  0  0  0
 53 54  1  0  0  0
 54 55  2  0  0  0
 54131  1  0  0  0
 55 57  1  0  0  0
 55132  1  0  0  0
 56 69  2  0  0  0
 57 58  2  0  0  0
 57133  1  0  0  0
 58134  1  0  0  0
 59 60  1  0  0  0
 59 61  1  0  0  0
 59 62  1  0  0  0
 60135  1  0  0  0
 60136  1  0  0  0
 60137  1  0  0  0
 61138  1  0  0  0
 61139  1  0  0  0
 61140  1  0  0  0
 62141  1  0  0  0
 62142  1  0  0  0
 62143  1  0  0  0
 63 65  1  0  0  0
 63144  1  0  0  0
 63145  1  0  0  0
 63146  1  0  0  0
 64147  1  0  0  0
 65148  1  0  0  0
 68 84  1  0  0  0
 71 72  2  0  0  0
 71 73  1  0  0  0
 71149  1  0  0  0
 72 74  1  0  0  0
 72 76  1  0  0  0
 73 75  2  0  0  0
 73 85  1  0  0  0
 74 86  1  0  0  0
 74 88  2  0  0  0
 75 81  1  0  0  0
 75 88  1  0  0  0
 76150  1  0  0  0
 76151  1  0  0  0
 76152  1  0  0  0
 77153  1  0  0  0
 77154  1  0  0  0
 77155  1  0  0  0
 77 85  1  0  0  0
 78156  1  0  0  0
 78157  1  0  0  0
 78158  1  0  0  0
 78 86  1  0  0  0
 79159  1  0  0  0
 79160  1  0  0  0
 79161  1  0  0  0
 79 87  1  0  0  0
 80 87  1  0  0  0
 80162  1  0  0  0
 80163  1  0  0  0
 80164  1  0  0  0
 81 83  1  0  0  0
 81165  1  0  0  0
 81166  1  0  0  0
 82 84  1  0  0  0
 82 85  1  0  0  0
 82167  1  0  0  0
 82168  1  0  0  0
 83 89  1  0  0  0
 83169  1  0  0  0
 83170  1  0  0  0
 84171  1  0  0  0
 84172  1  0  0  0
 85173  1  0  0  0
 86 87  1  0  0  0
 86174  1  0  0  0
 87175  1  0  0  0
 89176  1  0  0  0
M  ISO  4   1 100  68 101  84 101  89 100
M  END
> <chiral flag>
0

> <version>
0

> <s_m_source_file>
/data/baiqing/PycharmProjects/Reinvent-master-3.2/result/LINK_invent/BTK/process_docking_weight1_custom_sum_contain_oxygen_bond_distance_aromatic_linkinvent_7_9_3/rearranged_h_0094.sdf

> <i_m_source_file_index>
58

> <r_mmod_Potential_Energy-OPLS-2005>
164.617340087891

> <r_mmod_Stretch_Energy-OPLS-2005>
132.118606567383

> <r_mmod_Bend_Energy-OPLS-2005>
195.056701660156

> <r_mmod_Torsional_Energy-OPLS-2005>
294.479095458984

> <r_mmod_Improper_Torsional_Energy-OPLS-2005>
8.82476997375488

> <r_mmod_Van_der_Waal_Energy-OPLS-2005>
156.239364624023

> <r_mmod_Electrostatic_Energy-OPLS-2005>
-483.276672363281

> <r_mmod_Solvation_Energy-OPLS-2005>
-215.038391113281

> <b_mmod_Minimization_Converged-OPLS-2005>
0

> <r_mmod_RMS_Derivative-OPLS-2005>
8.19691944122314

$$$$
58
                    3D
 Structure written by MMmdl.
166174  0  0  1  0            999 V2000
  -30.6719  -14.5546   20.5295 C   0  0  0  0  0  0
  -30.4274  -12.3492   19.4338 C   0  0  0  0  0  0
  -29.4981  -12.4985   18.2109 C   0  0  0  0  0  0
  -28.0204  -12.3509   18.6253 C   0  0  0  0  0  0
  -27.6544  -13.2142   19.8627 C   0  0  2  0  0  0
  -28.6985  -13.0458   20.9888 C   0  0  0  0  0  0
  -25.2567  -13.8178   20.5682 C   0  0  0  0  0  0
  -24.1831  -13.0446   20.9191 C   0  0  0  0  0  0
  -24.6395  -11.6917   20.8739 C   0  0  0  0  0  0
  -23.9062  -10.4298   21.0408 C   0  0  0  0  0  0
  -24.3613   -9.4210   21.9181 C   0  0  0  0  0  0
  -23.6290   -8.2247   22.0755 C   0  0  0  0  0  0
  -22.4273   -8.0280   21.3544 C   0  0  0  0  0  0
  -21.9905   -9.0258   20.4649 C   0  0  0  0  0  0
  -22.7234  -10.2137   20.3057 C   0  0  0  0  0  0
  -21.6853   -6.0731   22.5278 C   0  0  0  0  0  0
  -21.4014   -6.5638   23.8211 C   0  0  0  0  0  0
  -21.3657   -5.6793   24.9174 C   0  0  0  0  0  0
  -21.6041   -4.3054   24.7227 C   0  0  0  0  0  0
  -21.8822   -3.8144   23.4351 C   0  0  0  0  0  0
  -21.9196   -4.6959   22.3404 C   0  0  0  0  0  0
  -22.7853  -13.5241   21.1848 C   0  0  0  0  0  0
  -22.1663   -4.2146   21.0981 F   0  0  0  0  0  0
  -21.5629   -3.4537   25.7738 F   0  0  0  0  0  0
  -30.0183  -13.3620   20.4229 N   0  0  0  0  0  0
  -26.2991  -12.9358   20.3318 N   0  0  0  0  0  0
  -25.9318  -11.6513   20.5749 N   0  0  0  0  0  0
  -22.0486  -12.8237   22.0402 N   0  0  0  0  0  0
  -25.4278  -15.1898   20.4080 N   0  0  0  0  0  0
  -31.8305  -14.7021   20.1324 O   0  0  0  0  0  0
  -21.6638   -6.8878   21.4241 O   0  0  0  0  0  0
  -22.3532  -14.5542   20.6689 O   0  0  0  0  0  0
  -24.6220  -31.8643   23.2075 C   0  0  0  0  0  0
  -25.9093  -32.4801   23.8383 C   0  0  1  0  0  0
  -27.2212  -27.3699   20.1002 C   0  0  0  0  0  0
  -25.5933  -33.8599   24.2315 N   0  0  0  0  0  0
  -23.4113  -30.4910   21.5496 C   0  0  2  0  0  0
  -24.8547  -28.9559   20.1108 C   0  0  0  0  0  0
  -22.7445  -29.4653   22.4960 C   0  0  0  0  0  0
  -18.0281  -28.1380   22.8487 C   0  0  0  0  0  0
  -24.1488  -36.7302   23.2636 C   0  0  0  0  0  0
  -25.9489  -30.8109   21.3707 C   0  0  0  0  0  0
  -26.0223  -29.4435   20.7113 C   0  0  0  0  0  0
  -27.2091  -28.6612   20.6976 C   0  0  0  0  0  0
  -26.0286  -26.9226   19.4821 C   0  0  0  0  0  0
  -24.8577  -27.6989   19.4891 C   0  0  0  0  0  0
  -23.6214  -29.8305   20.1627 C   0  0  0  0  0  0
  -25.4109  -36.3095   24.0333 C   0  0  1  0  0  0
  -20.5877  -28.3682   23.1296 C   0  0  2  0  0  0
  -20.6776  -26.9413   22.5410 C   0  0  0  0  0  0
  -19.5753  -26.6386   21.5210 C   0  0  0  0  0  0
  -18.1930  -26.7925   22.1622 C   0  0  0  0  0  0
  -19.1530  -28.8847   23.2890 C   0  0  0  0  0  0
  -18.9455  -30.1449   23.8903 C   0  0  0  0  0  0
  -17.6456  -30.6584   24.0564 C   0  0  0  0  0  0
  -25.9044  -34.9462   23.5118 C   0  0  0  0  0  0
  -16.5348  -29.9085   23.6326 C   0  0  0  0  0  0
  -16.7268  -28.6503   23.0345 C   0  0  0  0  0  0
  -26.4497  -31.6591   25.0730 C   0  0  0  0  0  0
  -25.3748  -31.3708   26.1466 C   0  0  0  0  0  0
  -27.0338  -30.3024   24.6148 C   0  0  0  0  0  0
  -27.6066  -32.4314   25.7499 C   0  0  0  0  0  0
  -27.5579  -37.1806   24.8463 C   0  0  0  0  0  0
  -21.4166  -29.3050   22.3702 N   0  0  0  0  0  0
  -26.4289  -37.3787   23.9410 N   0  0  0  0  0  0
  -24.6795  -31.0701   22.1003 N   0  0  0  0  0  0
  -23.4195  -28.8182   23.3011 O   0  0  0  0  0  0
  -28.3585  -26.5624   20.1362 O   0  0  0  0  0  0
  -26.5599  -34.8922   22.4675 O   0  0  0  0  0  0
  -23.5398  -32.1422   23.7437 O   0  0  0  0  0  0
  -28.8872  -22.2645   17.9977 C   0  0  0  0  0  0
  -29.1325  -21.2315   17.0709 C   0  0  0  0  0  0
  -29.2202  -21.8169   19.2429 C   0  0  0  0  0  0
  -29.6216  -20.1467   17.7400 C   0  0  0  0  0  0
  -30.4415  -17.3761   22.5839 C   0  0  0  0  0  0
  -31.4770  -18.3673   17.4784 C   0  0  0  0  0  0
  -29.1838  -22.6579   20.5134 C   0  0  0  0  0  0
  -29.3914  -24.2202   20.3624 C   0  0  0  0  0  0
  -29.4838  -18.0846   20.3104 C   0  0  0  0  0  0
  -30.0649  -19.5519   20.2253 C   0  0  0  0  0  0
  -28.1542  -25.1182   20.0266 C   0  0  0  0  0  0
  -30.3679  -17.0370   21.0864 C   0  0  2  0  0  0
  -30.0940  -18.8828   17.0498 C   0  0  0  0  0  0
  -29.6042  -20.4476   19.1218 N   0  0  0  0  0  0
  -29.9280  -15.6185   20.9353 N   0  0  0  0  0  0
  -30.2446  -19.1122   15.7441 F   0  0  0  0  0  0
  -29.1983  -17.9001   17.1235 F   0  0  0  0  0  0
  -31.4704  -12.4572   19.1308 H   0  0  0  0  0  0
  -30.3455  -11.3497   19.8633 H   0  0  0  0  0  0
  -29.7465  -11.7531   17.4539 H   0  0  0  0  0  0
  -29.6542  -13.4729   17.7450 H   0  0  0  0  0  0
  -27.8452  -11.2972   18.8464 H   0  0  0  0  0  0
  -27.3682  -12.5964   17.7859 H   0  0  0  0  0  0
  -27.6820  -14.2539   19.5349 H   0  0  0  0  0  0
  -28.6933  -12.0222   21.3662 H   0  0  0  0  0  0
  -28.4568  -13.6779   21.8446 H   0  0  0  0  0  0
  -25.2760   -9.5686   22.4749 H   0  0  0  0  0  0
  -23.9996   -7.4641   22.7482 H   0  0  0  0  0  0
  -21.0833   -8.8779   19.8957 H   0  0  0  0  0  0
  -22.3693  -10.9672   19.6163 H   0  0  0  0  0  0
  -21.2004   -7.6144   23.9711 H   0  0  0  0  0  0
  -21.1472   -6.0522   25.9076 H   0  0  0  0  0  0
  -22.0603   -2.7604   23.2853 H   0  0  0  0  0  0
  -22.4095  -11.9905   22.4806 H   0  0  0  0  0  0
  -21.1102  -13.1271   22.2596 H   0  0  0  0  0  0
  -24.6615  -15.8449   20.5175 H   0  0  0  0  0  0
  -26.2750  -15.6255   20.0663 H   0  0  0  0  0  0
  -26.7161  -32.5488   23.1137 H   0  0  0  0  0  0
  -25.0112  -33.9756   25.0481 H   0  0  0  0  0  0
  -22.7034  -31.3107   21.4117 H   0  0  0  0  0  0
  -23.3750  -35.9636   23.3298 H   0  0  0  0  0  0
  -24.3581  -36.8919   22.2050 H   0  0  0  0  0  0
  -23.7242  -37.6507   23.6652 H   0  0  0  0  0  0
  -26.0729  -31.5784   20.6051 H   0  0  0  0  0  0
  -26.8324  -30.8580   21.9959 H   0  0  0  0  0  0
  -28.1072  -29.0319   21.1718 H   0  0  0  0  0  0
  -25.9703  -25.9655   18.9867 H   0  0  0  0  0  0
  -23.9631  -27.3218   19.0131 H   0  0  0  0  0  0
  -23.7358  -30.6091   19.4075 H   0  0  0  0  0  0
  -22.7426  -29.2574   19.8614 H   0  0  0  0  0  0
  -25.1286  -36.1953   25.0826 H   0  0  0  0  0  0
  -20.9967  -28.3253   24.1417 H   0  0  0  0  0  0
  -20.5684  -26.2291   23.3604 H   0  0  0  0  0  0
  -21.6646  -26.7454   22.1202 H   0  0  0  0  0  0
  -19.6919  -25.6298   21.1239 H   0  0  0  0  0  0
  -19.6692  -27.3198   20.6741 H   0  0  0  0  0  0
  -17.4203  -26.6672   21.4020 H   0  0  0  0  0  0
  -18.0332  -26.0064   22.9015 H   0  0  0  0  0  0
  -19.7930  -30.7263   24.2281 H   0  0  0  0  0  0
  -17.5009  -31.6262   24.5170 H   0  0  0  0  0  0
  -15.5349  -30.2987   23.7646 H   0  0  0  0  0  0
  -15.8671  -28.0826   22.7053 H   0  0  0  0  0  0
  -24.5923  -30.7056   25.7797 H   0  0  0  0  0  0
  -24.8940  -32.2866   26.4912 H   0  0  0  0  0  0
  -25.8089  -30.8874   27.0227 H   0  0  0  0  0  0
  -26.2899  -29.6774   24.1191 H   0  0  0  0  0  0
  -27.4078  -29.7275   25.4632 H   0  0  0  0  0  0
  -27.8750  -30.4328   23.9335 H   0  0  0  0  0  0
  -27.2685  -33.3609   26.2091 H   0  0  0  0  0  0
  -28.3872  -32.6878   25.0324 H   0  0  0  0  0  0
  -28.0738  -31.8426   26.5404 H   0  0  0  0  0  0
  -28.2594  -38.0107   24.7517 H   0  0  0  0  0  0
  -28.1078  -36.2638   24.6278 H   0  0  0  0  0  0
  -27.2298  -37.1445   25.8867 H   0  0  0  0  0  0
  -20.9330  -29.8791   21.6940 H   0  0  0  0  0  0
  -26.0172  -38.2864   24.1413 H   0  0  0  0  0  0
  -28.5349  -23.2554   17.7532 H   0  0  0  0  0  0
  -29.0015  -21.2921   15.9990 H   0  0  0  0  0  0
  -30.8574  -18.3708   22.7471 H   0  0  0  0  0  0
  -31.0791  -16.6711   23.1187 H   0  0  0  0  0  0
  -29.4567  -17.3524   23.0509 H   0  0  0  0  0  0
  -32.2314  -19.1483   17.3828 H   0  0  0  0  0  0
  -31.7853  -17.5338   16.8472 H   0  0  0  0  0  0
  -31.5030  -18.0040   18.4999 H   0  0  0  0  0  0
  -29.9701  -22.3016   21.1790 H   0  0  0  0  0  0
  -28.2502  -22.4684   21.0440 H   0  0  0  0  0  0
  -30.1991  -24.4174   19.6575 H   0  0  0  0  0  0
  -29.7602  -24.5760   21.3245 H   0  0  0  0  0  0
  -29.3248  -17.6809   19.3230 H   0  0  0  0  0  0
  -28.4876  -18.1301   20.7512 H   0  0  0  0  0  0
  -31.1520  -19.5108   20.1616 H   0  0  0  0  0  0
  -29.8606  -20.0408   21.1763 H   0  0  0  0  0  0
  -27.3396  -24.8293   20.6939 H   0  0  0  0  0  0
  -27.8315  -24.8877   19.0132 H   0  0  0  0  0  0
  -31.3817  -17.1170   20.6906 H   0  0  0  0  0  0
  -28.9713  -15.4117   21.1804 H   0  0  0  0  0  0
  1 25  1  0  0  0
  1 30  2  0  0  0
  1 85  1  0  0  0
  2  3  1  0  0  0
  2 25  1  0  0  0
  2 88  1  0  0  0
  2 89  1  0  0  0
  3  4  1  0  0  0
  3 90  1  0  0  0
  3 91  1  0  0  0
  4  5  1  0  0  0
  4 92  1  0  0  0
  4 93  1  0  0  0
  5  6  1  0  0  0
  5 26  1  0  0  0
  5 94  1  0  0  0
  6 25  1  0  0  0
  6 95  1  0  0  0
  6 96  1  0  0  0
  7  8  2  0  0  0
  7 26  1  0  0  0
  7 29  1  0  0  0
  8  9  1  0  0  0
  8 22  1  0  0  0
  9 10  1  0  0  0
  9 27  2  0  0  0
 10 11  2  0  0  0
 10 15  1  0  0  0
 11 12  1  0  0  0
 11 97  1  0  0  0
 12 13  2  0  0  0
 12 98  1  0  0  0
 13 14  1  0  0  0
 13 31  1  0  0  0
 14 15  2  0  0  0
 14 99  1  0  0  0
 15100  1  0  0  0
 16 17  2  0  0  0
 16 21  1  0  0  0
 16 31  1  0  0  0
 17 18  1  0  0  0
 17101  1  0  0  0
 18 19  2  0  0  0
 18102  1  0  0  0
 19 20  1  0  0  0
 19 24  1  0  0  0
 20 21  2  0  0  0
 20103  1  0  0  0
 21 23  1  0  0  0
 22 28  1  0  0  0
 22 32  2  0  0  0
 26 27  1  0  0  0
 28104  1  0  0  0
 28105  1  0  0  0
 29106  1  0  0  0
 29107  1  0  0  0
 33 34  1  0  0  0
 33 66  1  0  0  0
 33 70  2  0  0  0
 34 36  1  0  0  0
 34 59  1  0  0  0
 34108  1  0  0  0
 35 44  2  0  0  0
 35 45  1  0  0  0
 35 68  1  0  0  0
 36 56  1  0  0  0
 36109  1  0  0  0
 37 39  1  0  0  0
 37 47  1  0  0  0
 37 66  1  0  0  0
 37110  1  0  0  0
 38 43  2  0  0  0
 38 46  1  0  0  0
 38 47  1  0  0  0
 39 64  1  0  0  0
 39 67  2  0  0  0
 40 52  1  0  0  0
 40 53  2  0  0  0
 40 58  1  0  0  0
 41111  1  0  0  0
 41112  1  0  0  0
 41113  1  0  0  0
 41 48  1  0  0  0
 42 43  1  0  0  0
 42 66  1  0  0  0
 42114  1  0  0  0
 42115  1  0  0  0
 43 44  1  0  0  0
 44116  1  0  0  0
 45 46  2  0  0  0
 45117  1  0  0  0
 46118  1  0  0  0
 47119  1  0  0  0
 47120  1  0  0  0
 48 56  1  0  0  0
 48 65  1  0  0  0
 48121  1  0  0  0
 49 50  1  0  0  0
 49 53  1  0  0  0
 49 64  1  0  0  0
 49122  1  0  0  0
 50 51  1  0  0  0
 50123  1  0  0  0
 50124  1  0  0  0
 51 52  1  0  0  0
 51125  1  0  0  0
 51126  1  0  0  0
 52127  1  0  0  0
 52128  1  0  0  0
 53 54  1  0  0  0
 54 55  2  0  0  0
 54129  1  0  0  0
 55 57  1  0  0  0
 55130  1  0  0  0
 56 69  2  0  0  0
 57 58  2  0  0  0
 57131  1  0  0  0
 58132  1  0  0  0
 59 60  1  0  0  0
 59 61  1  0  0  0
 59 62  1  0  0  0
 60133  1  0  0  0
 60134  1  0  0  0
 60135  1  0  0  0
 61136  1  0  0  0
 61137  1  0  0  0
 61138  1  0  0  0
 62139  1  0  0  0
 62140  1  0  0  0
 62141  1  0  0  0
 63 65  1  0  0  0
 63142  1  0  0  0
 63143  1  0  0  0
 63144  1  0  0  0
 64145  1  0  0  0
 65146  1  0  0  0
 68 81  1  0  0  0
 71 72  1  0  0  0
 71 73  2  0  0  0
 71147  1  0  0  0
 72 74  2  0  0  0
 72148  1  0  0  0
 73 77  1  0  0  0
 73 84  1  0  0  0
 74 83  1  0  0  0
 74 84  1  0  0  0
 75149  1  0  0  0
 75150  1  0  0  0
 75151  1  0  0  0
 75 82  1  0  0  0
 76152  1  0  0  0
 76153  1  0  0  0
 76154  1  0  0  0
 76 83  1  0  0  0
 77 78  1  0  0  0
 77155  1  0  0  0
 77156  1  0  0  0
 78 81  1  0  0  0
 78157  1  0  0  0
 78158  1  0  0  0
 79 80  1  0  0  0
 79 82  1  0  0  0
 79159  1  0  0  0
 79160  1  0  0  0
 80 84  1  0  0  0
 80161  1  0  0  0
 80162  1  0  0  0
 81163  1  0  0  0
 81164  1  0  0  0
 82 85  1  0  0  0
 82165  1  0  0  0
 83 86  1  0  0  0
 83 87  1  0  0  0
 85166  1  0  0  0
M  ISO  4   1 100  68 101  81 101  85 100
M  END
> <chiral flag>
0

> <version>
0

> <s_m_source_file>
/data/baiqing/PycharmProjects/Reinvent-master-3.2/result/LINK_invent/BTK/process_docking_weight1_custom_sum_contain_oxygen_bond_distance_aromatic_linkinvent_7_9_3/rearranged_h_0094.sdf

> <i_m_source_file_index>
59

> <r_mmod_Potential_Energy-OPLS-2005>
-0.706337153911591

> <r_mmod_Stretch_Energy-OPLS-2005>
63.5735664367676

> <r_mmod_Bend_Energy-OPLS-2005>
133.330581665039

> <r_mmod_Torsional_Energy-OPLS-2005>
224.216278076172

> <r_mmod_Improper_Torsional_Energy-OPLS-2005>
4.36214542388916

> <r_mmod_Van_der_Waal_Energy-OPLS-2005>
130.345901489258

> <r_mmod_Electrostatic_Energy-OPLS-2005>
-382.576721191406

> <r_mmod_Solvation_Energy-OPLS-2005>
-202.160171508789

> <b_mmod_Minimization_Converged-OPLS-2005>
0

> <r_mmod_RMS_Derivative-OPLS-2005>
0.886840522289276

$$$$
59
                    3D
 Structure written by MMmdl.
167175  0  0  1  0            999 V2000
  -30.6372  -14.7498   20.4792 C   0  0  0  0  0  0
  -30.4407  -12.4743   19.4636 C   0  0  0  0  0  0
  -29.5195  -12.5348   18.2274 C   0  0  0  0  0  0
  -28.0405  -12.3676   18.6339 C   0  0  0  0  0  0
  -27.6461  -13.2435   19.8527 C   0  0  2  0  0  0
  -28.6955  -13.1732   20.9822 C   0  0  0  0  0  0
  -25.2552  -13.8228   20.5701 C   0  0  0  0  0  0
  -24.1855  -13.0464   20.9195 C   0  0  0  0  0  0
  -24.6447  -11.6942   20.8720 C   0  0  0  0  0  0
  -23.9101  -10.4324   21.0397 C   0  0  0  0  0  0
  -24.3644   -9.4243   21.9188 C   0  0  0  0  0  0
  -23.6325   -8.2263   22.0770 C   0  0  0  0  0  0
  -22.4305   -8.0291   21.3556 C   0  0  0  0  0  0
  -21.9926   -9.0268   20.4658 C   0  0  0  0  0  0
  -22.7251  -10.2157   20.3072 C   0  0  0  0  0  0
  -21.6869   -6.0751   22.5284 C   0  0  0  0  0  0
  -21.3989   -6.5643   23.8215 C   0  0  0  0  0  0
  -21.3665   -5.6792   24.9171 C   0  0  0  0  0  0
  -21.6065   -4.3054   24.7225 C   0  0  0  0  0  0
  -21.8819   -3.8158   23.4335 C   0  0  0  0  0  0
  -21.9202   -4.6980   22.3396 C   0  0  0  0  0  0
  -22.7875  -13.5245   21.1859 C   0  0  0  0  0  0
  -22.1692   -4.2166   21.0980 F   0  0  0  0  0  0
  -21.5646   -3.4541   25.7736 F   0  0  0  0  0  0
  -29.9917  -13.5371   20.3929 N   0  0  0  0  0  0
  -26.2996  -12.9454   20.3293 N   0  0  0  0  0  0
  -25.9386  -11.6579   20.5709 N   0  0  0  0  0  0
  -22.0528  -12.8226   22.0403 N   0  0  0  0  0  0
  -25.4267  -15.1951   20.4100 N   0  0  0  0  0  0
  -31.8328  -14.8233   20.1983 O   0  0  0  0  0  0
  -21.6676   -6.8886   21.4247 O   0  0  0  0  0  0
  -22.3568  -14.5555   20.6725 O   0  0  0  0  0  0
  -24.6319  -31.8539   23.1960 C   0  0  0  0  0  0
  -25.9136  -32.4753   23.8308 C   0  0  1  0  0  0
  -27.2268  -27.2511   20.1369 C   0  0  0  0  0  0
  -25.5922  -33.8553   24.2232 N   0  0  0  0  0  0
  -23.4293  -30.4757   21.5410 C   0  0  2  0  0  0
  -24.8776  -28.9174   20.1155 C   0  0  0  0  0  0
  -22.7494  -29.4595   22.4897 C   0  0  0  0  0  0
  -18.0288  -28.1372   22.8491 C   0  0  0  0  0  0
  -24.1500  -36.7288   23.2639 C   0  0  0  0  0  0
  -25.9761  -30.7626   21.3788 C   0  0  0  0  0  0
  -26.0493  -29.3834   20.7240 C   0  0  0  0  0  0
  -27.2260  -28.5648   20.7208 C   0  0  0  0  0  0
  -26.0296  -26.8575   19.4960 C   0  0  0  0  0  0
  -24.8733  -27.6629   19.4900 C   0  0  0  0  0  0
  -23.6492  -29.8063   20.1590 C   0  0  0  0  0  0
  -25.4127  -36.3069   24.0323 C   0  0  1  0  0  0
  -20.5894  -28.3687   23.1269 C   0  0  2  0  0  0
  -20.6765  -26.9402   22.5407 C   0  0  0  0  0  0
  -19.5742  -26.6371   21.5206 C   0  0  0  0  0  0
  -18.1926  -26.7916   22.1625 C   0  0  0  0  0  0
  -19.1542  -28.8846   23.2878 C   0  0  0  0  0  0
  -18.9462  -30.1448   23.8900 C   0  0  0  0  0  0
  -17.6457  -30.6581   24.0555 C   0  0  0  0  0  0
  -25.9061  -34.9437   23.5083 C   0  0  0  0  0  0
  -16.5353  -29.9076   23.6324 C   0  0  0  0  0  0
  -16.7276  -28.6490   23.0358 C   0  0  0  0  0  0
  -26.4490  -31.6588   25.0706 C   0  0  0  0  0  0
  -25.3690  -31.3748   26.1406 C   0  0  0  0  0  0
  -27.0333  -30.2997   24.6207 C   0  0  0  0  0  0
  -27.6033  -32.4327   25.7495 C   0  0  0  0  0  0
  -27.5589  -37.1805   24.8457 C   0  0  0  0  0  0
  -21.4196  -29.3042   22.3660 N   0  0  0  0  0  0
  -26.4298  -37.3772   23.9403 N   0  0  0  0  0  0
  -24.6985  -31.0497   22.0947 N   0  0  0  0  0  0
  -23.4183  -28.8115   23.2994 O   0  0  0  0  0  0
  -28.3332  -26.3662   20.1710 O   0  0  0  0  0  0
  -26.5642  -34.8925   22.4657 O   0  0  0  0  0  0
  -23.5473  -32.1354   23.7262 O   0  0  0  0  0  0
  -31.5360  -22.0173   19.4746 C   0  0  0  0  0  0
  -30.4015  -21.2838   19.8965 C   0  0  0  0  0  0
  -30.4828  -19.8132   19.7095 C   0  0  0  0  0  0
  -32.5537  -21.4213   18.7292 C   0  0  0  0  0  0
  -31.4817  -19.3697   18.7809 C   0  0  0  0  0  0
  -33.7698  -22.2129   18.2892 C   0  0  0  0  0  0
  -32.7997  -17.2208   18.2472 C   0  0  0  0  0  0
  -28.3126  -18.3968   19.6674 C   0  0  0  0  0  0
  -29.2150  -22.2125   20.4205 C   0  0  0  0  0  0
  -31.4843  -18.0044   18.0838 C   0  0  0  0  0  0
  -29.3297  -23.8325   20.1613 C   0  0  0  0  0  0
  -30.3879  -17.3325   20.9530 C   0  0  0  0  0  0
  -28.1115  -24.8798   20.3346 C   0  0  0  0  0  0
  -29.6182  -18.6824   20.4230 C   0  0  1  0  0  0
  -32.4772  -20.1532   18.3187 N   0  0  0  0  0  0
  -29.8942  -15.9019   20.6973 N   0  0  0  0  0  0
  -31.4804  -12.6051   19.1585 H   0  0  0  0  0  0
  -30.3910  -11.4977   19.9464 H   0  0  0  0  0  0
  -29.8014  -11.7657   17.5061 H   0  0  0  0  0  0
  -29.6573  -13.4923   17.7235 H   0  0  0  0  0  0
  -27.8772  -11.3144   18.8600 H   0  0  0  0  0  0
  -27.3947  -12.6042   17.7871 H   0  0  0  0  0  0
  -27.6346  -14.2702   19.4853 H   0  0  0  0  0  0
  -28.7423  -12.1727   21.4129 H   0  0  0  0  0  0
  -28.4366  -13.8444   21.8019 H   0  0  0  0  0  0
  -25.2794   -9.5724   22.4743 H   0  0  0  0  0  0
  -24.0062   -7.4657   22.7459 H   0  0  0  0  0  0
  -21.0880   -8.8773   19.8933 H   0  0  0  0  0  0
  -22.3723  -10.9692   19.6174 H   0  0  0  0  0  0
  -21.1955   -7.6147   23.9705 H   0  0  0  0  0  0
  -21.1498   -6.0532   25.9068 H   0  0  0  0  0  0
  -22.0597   -2.7625   23.2843 H   0  0  0  0  0  0
  -22.4168  -11.9871   22.4752 H   0  0  0  0  0  0
  -21.1130  -13.1239   22.2602 H   0  0  0  0  0  0
  -24.6607  -15.8516   20.5096 H   0  0  0  0  0  0
  -26.2688  -15.6216   20.0460 H   0  0  0  0  0  0
  -26.7195  -32.5401   23.1043 H   0  0  0  0  0  0
  -25.0039  -33.9685   25.0357 H   0  0  0  0  0  0
  -22.7280  -31.2988   21.3919 H   0  0  0  0  0  0
  -23.3768  -35.9615   23.3290 H   0  0  0  0  0  0
  -24.3580  -36.8926   22.2053 H   0  0  0  0  0  0
  -23.7251  -37.6487   23.6671 H   0  0  0  0  0  0
  -26.1144  -31.5209   20.6075 H   0  0  0  0  0  0
  -26.8530  -30.8129   22.0114 H   0  0  0  0  0  0
  -28.1239  -28.9181   21.2083 H   0  0  0  0  0  0
  -25.9577  -25.9110   18.9852 H   0  0  0  0  0  0
  -23.9792  -27.3021   19.0008 H   0  0  0  0  0  0
  -23.7771  -30.5797   19.4014 H   0  0  0  0  0  0
  -22.7680  -29.2408   19.8523 H   0  0  0  0  0  0
  -25.1321  -36.1913   25.0819 H   0  0  0  0  0  0
  -20.9992  -28.3256   24.1386 H   0  0  0  0  0  0
  -20.5635  -26.2297   23.3609 H   0  0  0  0  0  0
  -21.6636  -26.7392   22.1219 H   0  0  0  0  0  0
  -19.6894  -25.6276   21.1247 H   0  0  0  0  0  0
  -19.6682  -27.3174   20.6731 H   0  0  0  0  0  0
  -17.4187  -26.6663   21.4035 H   0  0  0  0  0  0
  -18.0332  -26.0054   22.9021 H   0  0  0  0  0  0
  -19.7936  -30.7260   24.2274 H   0  0  0  0  0  0
  -17.5014  -31.6267   24.5138 H   0  0  0  0  0  0
  -15.5353  -30.2973   23.7650 H   0  0  0  0  0  0
  -15.8673  -28.0802   22.7073 H   0  0  0  0  0  0
  -24.5847  -30.7134   25.7708 H   0  0  0  0  0  0
  -24.8904  -32.2931   26.4824 H   0  0  0  0  0  0
  -25.7970  -30.8899   27.0185 H   0  0  0  0  0  0
  -26.2921  -29.6752   24.1203 H   0  0  0  0  0  0
  -27.3972  -29.7260   25.4743 H   0  0  0  0  0  0
  -27.8823  -30.4267   23.9480 H   0  0  0  0  0  0
  -27.2621  -33.3619   26.2073 H   0  0  0  0  0  0
  -28.3850  -32.6899   25.0333 H   0  0  0  0  0  0
  -28.0684  -31.8442   26.5414 H   0  0  0  0  0  0
  -28.2596  -38.0117   24.7523 H   0  0  0  0  0  0
  -28.1102  -36.2645   24.6269 H   0  0  0  0  0  0
  -27.2297  -37.1436   25.8858 H   0  0  0  0  0  0
  -20.9358  -29.8815   21.6927 H   0  0  0  0  0  0
  -26.0180  -38.2852   24.1391 H   0  0  0  0  0  0
  -31.6505  -23.0702   19.6793 H   0  0  0  0  0  0
  -34.2191  -22.7270   19.1394 H   0  0  0  0  0  0
  -33.4860  -22.9634   17.5520 H   0  0  0  0  0  0
  -34.5361  -21.5707   17.8508 H   0  0  0  0  0  0
  -32.7394  -16.2497   17.7535 H   0  0  0  0  0  0
  -33.0364  -17.0491   19.2947 H   0  0  0  0  0  0
  -33.6401  -17.7591   17.8103 H   0  0  0  0  0  0
  -27.8155  -19.3286   19.3965 H   0  0  0  0  0  0
  -27.6139  -17.8367   20.2886 H   0  0  0  0  0  0
  -28.4785  -17.8333   18.7516 H   0  0  0  0  0  0
  -29.0805  -22.0306   21.4868 H   0  0  0  0  0  0
  -28.3037  -21.8517   19.9449 H   0  0  0  0  0  0
  -31.3154  -18.1776   17.0194 H   0  0  0  0  0  0
  -30.6504  -17.3782   18.3856 H   0  0  0  0  0  0
  -29.6582  -23.9610   19.1292 H   0  0  0  0  0  0
  -30.1481  -24.2014   20.7805 H   0  0  0  0  0  0
  -30.3690  -17.3990   22.0427 H   0  0  0  0  0  0
  -31.4540  -17.4040   20.7506 H   0  0  0  0  0  0
  -27.6873  -24.7355   21.3290 H   0  0  0  0  0  0
  -27.3452  -24.5347   19.6437 H   0  0  0  0  0  0
  -29.3012  -19.1806   21.3412 H   0  0  0  0  0  0
  -28.9063  -15.7541   20.8313 H   0  0  0  0  0  0
  1 25  1  0  0  0
  1 30  2  0  0  0
  1 86  1  0  0  0
  2  3  1  0  0  0
  2 25  1  0  0  0
  2 87  1  0  0  0
  2 88  1  0  0  0
  3  4  1  0  0  0
  3 89  1  0  0  0
  3 90  1  0  0  0
  4  5  1  0  0  0
  4 91  1  0  0  0
  4 92  1  0  0  0
  5  6  1  0  0  0
  5 26  1  0  0  0
  5 93  1  0  0  0
  6 25  1  0  0  0
  6 94  1  0  0  0
  6 95  1  0  0  0
  7  8  2  0  0  0
  7 26  1  0  0  0
  7 29  1  0  0  0
  8  9  1  0  0  0
  8 22  1  0  0  0
  9 10  1  0  0  0
  9 27  2  0  0  0
 10 11  2  0  0  0
 10 15  1  0  0  0
 11 12  1  0  0  0
 11 96  1  0  0  0
 12 13  2  0  0  0
 12 97  1  0  0  0
 13 14  1  0  0  0
 13 31  1  0  0  0
 14 15  2  0  0  0
 14 98  1  0  0  0
 15 99  1  0  0  0
 16 17  2  0  0  0
 16 21  1  0  0  0
 16 31  1  0  0  0
 17 18  1  0  0  0
 17100  1  0  0  0
 18 19  2  0  0  0
 18101  1  0  0  0
 19 20  1  0  0  0
 19 24  1  0  0  0
 20 21  2  0  0  0
 20102  1  0  0  0
 21 23  1  0  0  0
 22 28  1  0  0  0
 22 32  2  0  0  0
 26 27  1  0  0  0
 28103  1  0  0  0
 28104  1  0  0  0
 29105  1  0  0  0
 29106  1  0  0  0
 33 34  1  0  0  0
 33 66  1  0  0  0
 33 70  2  0  0  0
 34 36  1  0  0  0
 34 59  1  0  0  0
 34107  1  0  0  0
 35 44  2  0  0  0
 35 45  1  0  0  0
 35 68  1  0  0  0
 36 56  1  0  0  0
 36108  1  0  0  0
 37 39  1  0  0  0
 37 47  1  0  0  0
 37 66  1  0  0  0
 37109  1  0  0  0
 38 43  2  0  0  0
 38 46  1  0  0  0
 38 47  1  0  0  0
 39 64  1  0  0  0
 39 67  2  0  0  0
 40 52  1  0  0  0
 40 53  2  0  0  0
 40 58  1  0  0  0
 41110  1  0  0  0
 41111  1  0  0  0
 41112  1  0  0  0
 41 48  1  0  0  0
 42 43  1  0  0  0
 42 66  1  0  0  0
 42113  1  0  0  0
 42114  1  0  0  0
 43 44  1  0  0  0
 44115  1  0  0  0
 45 46  2  0  0  0
 45116  1  0  0  0
 46117  1  0  0  0
 47118  1  0  0  0
 47119  1  0  0  0
 48 56  1  0  0  0
 48 65  1  0  0  0
 48120  1  0  0  0
 49 50  1  0  0  0
 49 53  1  0  0  0
 49 64  1  0  0  0
 49121  1  0  0  0
 50 51  1  0  0  0
 50122  1  0  0  0
 50123  1  0  0  0
 51 52  1  0  0  0
 51124  1  0  0  0
 51125  1  0  0  0
 52126  1  0  0  0
 52127  1  0  0  0
 53 54  1  0  0  0
 54 55  2  0  0  0
 54128  1  0  0  0
 55 57  1  0  0  0
 55129  1  0  0  0
 56 69  2  0  0  0
 57 58  2  0  0  0
 57130  1  0  0  0
 58131  1  0  0  0
 59 60  1  0  0  0
 59 61  1  0  0  0
 59 62  1  0  0  0
 60132  1  0  0  0
 60133  1  0  0  0
 60134  1  0  0  0
 61135  1  0  0  0
 61136  1  0  0  0
 61137  1  0  0  0
 62138  1  0  0  0
 62139  1  0  0  0
 62140  1  0  0  0
 63 65  1  0  0  0
 63141  1  0  0  0
 63142  1  0  0  0
 63143  1  0  0  0
 64144  1  0  0  0
 65145  1  0  0  0
 68 83  1  0  0  0
 71 72  2  0  0  0
 71 74  1  0  0  0
 71146  1  0  0  0
 72 73  1  0  0  0
 72 79  1  0  0  0
 73 75  2  0  0  0
 73 84  1  0  0  0
 74 76  1  0  0  0
 74 85  2  0  0  0
 75 80  1  0  0  0
 75 85  1  0  0  0
 76147  1  0  0  0
 76148  1  0  0  0
 76149  1  0  0  0
 77 80  1  0  0  0
 77150  1  0  0  0
 77151  1  0  0  0
 77152  1  0  0  0
 78153  1  0  0  0
 78154  1  0  0  0
 78155  1  0  0  0
 78 84  1  0  0  0
 79 81  1  0  0  0
 79156  1  0  0  0
 79157  1  0  0  0
 80158  1  0  0  0
 80159  1  0  0  0
 81 83  1  0  0  0
 81160  1  0  0  0
 81161  1  0  0  0
 82 84  1  0  0  0
 82 86  1  0  0  0
 82162  1  0  0  0
 82163  1  0  0  0
 83164  1  0  0  0
 83165  1  0  0  0
 84166  1  0  0  0
 86167  1  0  0  0
M  ISO  4   1 100  68 101  83 101  86 100
M  END
> <chiral flag>
0

> <version>
0

> <s_m_source_file>
/data/baiqing/PycharmProjects/Reinvent-master-3.2/result/LINK_invent/BTK/process_docking_weight1_custom_sum_contain_oxygen_bond_distance_aromatic_linkinvent_7_9_3/rearranged_h_0094.sdf

> <i_m_source_file_index>
60

> <r_mmod_Potential_Energy-OPLS-2005>
12.6167917251587

> <r_mmod_Stretch_Energy-OPLS-2005>
148.037658691406

> <r_mmod_Bend_Energy-OPLS-2005>
197.89030456543

> <r_mmod_Torsional_Energy-OPLS-2005>
260.583343505859

> <r_mmod_Improper_Torsional_Energy-OPLS-2005>
4.66561508178711

> <r_mmod_Van_der_Waal_Energy-OPLS-2005>
145.809051513672

> <r_mmod_Electrostatic_Energy-OPLS-2005>
-612.052673339844

> <r_mmod_Solvation_Energy-OPLS-2005>
-220.041641235352

> <b_mmod_Minimization_Converged-OPLS-2005>
0

> <r_mmod_RMS_Derivative-OPLS-2005>
3.52452111244202

$$$$
61
                    3D
 Structure written by MMmdl.
165172  0  0  1  0            999 V2000
  -30.6208  -14.6679   20.4833 C   0  0  0  0  0  0
  -30.4310  -12.4103   19.4566 C   0  0  0  0  0  0
  -29.5038  -12.4996   18.2258 C   0  0  0  0  0  0
  -28.0278  -12.3362   18.6388 C   0  0  0  0  0  0
  -27.6453  -13.2211   19.8550 C   0  0  2  0  0  0
  -28.6902  -13.1087   20.9874 C   0  0  0  0  0  0
  -25.2534  -13.8219   20.5709 C   0  0  0  0  0  0
  -24.1817  -13.0473   20.9222 C   0  0  0  0  0  0
  -24.6383  -11.6932   20.8757 C   0  0  0  0  0  0
  -23.9054  -10.4306   21.0423 C   0  0  0  0  0  0
  -24.3586   -9.4238   21.9239 C   0  0  0  0  0  0
  -23.6260   -8.2267   22.0805 C   0  0  0  0  0  0
  -22.4258   -8.0296   21.3576 C   0  0  0  0  0  0
  -21.9883   -9.0275   20.4686 C   0  0  0  0  0  0
  -22.7231  -10.2135   20.3069 C   0  0  0  0  0  0
  -21.6856   -6.0728   22.5283 C   0  0  0  0  0  0
  -21.4008   -6.5645   23.8211 C   0  0  0  0  0  0
  -21.3663   -5.6821   24.9186 C   0  0  0  0  0  0
  -21.6042   -4.3075   24.7245 C   0  0  0  0  0  0
  -21.8815   -3.8149   23.4383 C   0  0  0  0  0  0
  -21.9187   -4.6955   22.3424 C   0  0  0  0  0  0
  -22.7848  -13.5274   21.1867 C   0  0  0  0  0  0
  -22.1639   -4.2122   21.1003 F   0  0  0  0  0  0
  -21.5636   -3.4572   25.7767 F   0  0  0  0  0  0
  -29.9989  -13.4484   20.4148 N   0  0  0  0  0  0
  -26.2933  -12.9387   20.3291 N   0  0  0  0  0  0
  -25.9300  -11.6537   20.5758 N   0  0  0  0  0  0
  -22.0486  -12.8247   22.0399 N   0  0  0  0  0  0
  -25.4253  -15.1937   20.4117 N   0  0  0  0  0  0
  -31.7987  -14.8016   20.1379 O   0  0  0  0  0  0
  -21.6642   -6.8878   21.4251 O   0  0  0  0  0  0
  -22.3514  -14.5587   20.6736 O   0  0  0  0  0  0
  -24.6259  -31.8593   23.2016 C   0  0  0  0  0  0
  -25.9098  -32.4791   23.8358 C   0  0  1  0  0  0
  -27.2284  -27.3118   20.1378 C   0  0  0  0  0  0
  -25.5915  -33.8588   24.2289 N   0  0  0  0  0  0
  -23.4220  -30.4789   21.5453 C   0  0  2  0  0  0
  -24.8716  -28.9261   20.1186 C   0  0  0  0  0  0
  -22.7473  -29.4618   22.4958 C   0  0  0  0  0  0
  -18.0282  -28.1394   22.8486 C   0  0  0  0  0  0
  -24.1488  -36.7281   23.2635 C   0  0  0  0  0  0
  -25.9611  -30.7920   21.3701 C   0  0  0  0  0  0
  -26.0395  -29.4140   20.7187 C   0  0  0  0  0  0
  -27.2253  -28.6196   20.7123 C   0  0  0  0  0  0
  -26.0402  -26.8660   19.5243 C   0  0  0  0  0  0
  -24.8735  -27.6581   19.5113 C   0  0  0  0  0  0
  -23.6385  -29.8077   20.1632 C   0  0  0  0  0  0
  -25.4116  -36.3090   24.0334 C   0  0  1  0  0  0
  -20.5878  -28.3698   23.1297 C   0  0  2  0  0  0
  -20.6773  -26.9428   22.5416 C   0  0  0  0  0  0
  -19.5751  -26.6394   21.5219 C   0  0  0  0  0  0
  -18.1927  -26.7936   22.1625 C   0  0  0  0  0  0
  -19.1534  -28.8864   23.2884 C   0  0  0  0  0  0
  -18.9455  -30.1459   23.8911 C   0  0  0  0  0  0
  -17.6457  -30.6596   24.0564 C   0  0  0  0  0  0
  -25.9050  -34.9456   23.5111 C   0  0  0  0  0  0
  -16.5349  -29.9098   23.6325 C   0  0  0  0  0  0
  -16.7269  -28.6511   23.0354 C   0  0  0  0  0  0
  -26.4494  -31.6598   25.0716 C   0  0  0  0  0  0
  -25.3714  -31.3722   26.1431 C   0  0  0  0  0  0
  -27.0329  -30.3031   24.6137 C   0  0  0  0  0  0
  -27.6077  -32.4310   25.7468 C   0  0  0  0  0  0
  -27.5586  -37.1797   24.8469 C   0  0  0  0  0  0
  -21.4191  -29.3041   22.3691 N   0  0  0  0  0  0
  -26.4296  -37.3782   23.9405 N   0  0  0  0  0  0
  -24.6889  -31.0586   22.0972 N   0  0  0  0  0  0
  -23.4188  -28.8171   23.3053 O   0  0  0  0  0  0
  -28.3500  -26.4742   20.1224 O   0  0  0  0  0  0
  -26.5622  -34.8924   22.4682 O   0  0  0  0  0  0
  -23.5419  -32.1400   23.7334 O   0  0  0  0  0  0
  -26.1675  -18.1007   23.6803 C   0  0  0  0  0  0
  -27.2722  -20.7735   19.9253 C   0  0  0  0  0  0
  -26.9673  -18.7152   22.5199 C   0  0  0  0  0  0
  -28.4542  -23.7760   20.0133 C   0  0  0  0  0  0
  -30.1811  -17.2429   20.6638 C   0  0  0  0  0  0
  -28.8449  -22.4557   20.8601 C   0  0  0  0  0  0
  -29.4936  -19.9179   20.8908 C   0  0  0  0  0  0
  -28.2780  -25.1589   20.8064 C   0  0  0  0  0  0
  -29.0250  -18.3506   20.9033 C   0  0  2  0  0  0
  -28.2775  -17.9673   22.2231 C   0  0  1  0  0  0
  -29.8316  -15.7634   20.7421 N   0  0  0  0  0  0
  -28.6964  -21.0635   20.2253 N   0  3  1  0  0  0
  -29.1398  -18.1287   23.3364 O   0  0  0  0  0  0
  -31.4727  -12.5327   19.1544 H   0  0  0  0  0  0
  -30.3678  -11.4223   19.9155 H   0  0  0  0  0  0
  -29.7753  -11.7380   17.4933 H   0  0  0  0  0  0
  -29.6404  -13.4623   17.7294 H   0  0  0  0  0  0
  -27.8696  -11.2865   18.8841 H   0  0  0  0  0  0
  -27.3725  -12.5504   17.7945 H   0  0  0  0  0  0
  -27.6542  -14.2497   19.4953 H   0  0  0  0  0  0
  -28.7122  -12.0972   21.3952 H   0  0  0  0  0  0
  -28.4329  -13.7655   21.8185 H   0  0  0  0  0  0
  -25.2710   -9.5724   22.4843 H   0  0  0  0  0  0
  -23.9958   -7.4674   22.7544 H   0  0  0  0  0  0
  -21.0814   -8.8776   19.9004 H   0  0  0  0  0  0
  -22.3726  -10.9657   19.6138 H   0  0  0  0  0  0
  -21.1994   -7.6153   23.9682 H   0  0  0  0  0  0
  -21.1478   -6.0570   25.9081 H   0  0  0  0  0  0
  -22.0578   -2.7606   23.2913 H   0  0  0  0  0  0
  -22.4171  -11.9974   22.4854 H   0  0  0  0  0  0
  -21.1087  -13.1216   22.2573 H   0  0  0  0  0  0
  -24.6483  -15.8394   20.5005 H   0  0  0  0  0  0
  -26.2437  -15.6150   19.9929 H   0  0  0  0  0  0
  -26.7151  -32.5463   23.1102 H   0  0  0  0  0  0
  -25.0079  -33.9752   25.0449 H   0  0  0  0  0  0
  -22.7173  -31.2995   21.3987 H   0  0  0  0  0  0
  -23.3770  -35.9595   23.3306 H   0  0  0  0  0  0
  -24.3568  -36.8887   22.2044 H   0  0  0  0  0  0
  -23.7225  -37.6478   23.6651 H   0  0  0  0  0  0
  -26.0825  -31.5519   20.5974 H   0  0  0  0  0  0
  -26.8459  -30.8502   21.9924 H   0  0  0  0  0  0
  -28.1275  -28.9930   21.1769 H   0  0  0  0  0  0
  -26.0127  -25.8908   19.0591 H   0  0  0  0  0  0
  -23.9771  -27.2798   19.0394 H   0  0  0  0  0  0
  -23.7618  -30.5837   19.4066 H   0  0  0  0  0  0
  -22.7592  -29.2366   19.8595 H   0  0  0  0  0  0
  -25.1297  -36.1953   25.0827 H   0  0  0  0  0  0
  -20.9956  -28.3269   24.1426 H   0  0  0  0  0  0
  -20.5687  -26.2310   23.3616 H   0  0  0  0  0  0
  -21.6643  -26.7476   22.1205 H   0  0  0  0  0  0
  -19.6928  -25.6309   21.1250 H   0  0  0  0  0  0
  -19.6691  -27.3209   20.6754 H   0  0  0  0  0  0
  -17.4199  -26.6690   21.4022 H   0  0  0  0  0  0
  -18.0325  -26.0088   22.9028 H   0  0  0  0  0  0
  -19.7927  -30.7258   24.2314 H   0  0  0  0  0  0
  -17.5009  -31.6281   24.5155 H   0  0  0  0  0  0
  -15.5350  -30.3002   23.7638 H   0  0  0  0  0  0
  -15.8666  -28.0820   22.7084 H   0  0  0  0  0  0
  -24.5906  -30.7073   25.7726 H   0  0  0  0  0  0
  -24.8894  -32.2884   26.4844 H   0  0  0  0  0  0
  -25.8019  -30.8892   27.0212 H   0  0  0  0  0  0
  -26.2905  -29.6795   24.1144 H   0  0  0  0  0  0
  -27.4037  -29.7265   25.4619 H   0  0  0  0  0  0
  -27.8765  -30.4343   23.9355 H   0  0  0  0  0  0
  -27.2739  -33.3618   26.2057 H   0  0  0  0  0  0
  -28.3881  -32.6841   25.0279 H   0  0  0  0  0  0
  -28.0759  -31.8420   26.5365 H   0  0  0  0  0  0
  -28.2608  -38.0090   24.7513 H   0  0  0  0  0  0
  -28.1083  -36.2623   24.6314 H   0  0  0  0  0  0
  -27.2297  -37.1453   25.8870 H   0  0  0  0  0  0
  -20.9393  -29.8720   21.6853 H   0  0  0  0  0  0
  -26.0190  -38.2855   24.1424 H   0  0  0  0  0  0
  -26.7188  -18.1395   24.6210 H   0  0  0  0  0  0
  -25.9137  -17.0581   23.4835 H   0  0  0  0  0  0
  -25.2308  -18.6401   23.8289 H   0  0  0  0  0  0
  -26.8650  -21.5114   19.2365 H   0  0  0  0  0  0
  -26.6605  -20.8220   20.8243 H   0  0  0  0  0  0
  -27.1229  -19.8117   19.4393 H   0  0  0  0  0  0
  -27.1719  -19.7619   22.7469 H   0  0  0  0  0  0
  -26.3325  -18.6922   21.6330 H   0  0  0  0  0  0
  -27.5250  -23.6117   19.4709 H   0  0  0  0  0  0
  -29.2146  -23.9132   19.2444 H   0  0  0  0  0  0
  -30.9801  -17.4191   21.3855 H   0  0  0  0  0  0
  -30.6307  -17.4230   19.6855 H   0  0  0  0  0  0
  -28.2721  -22.4508   21.7876 H   0  0  0  0  0  0
  -29.8847  -22.5671   21.1710 H   0  0  0  0  0  0
  -30.4756  -19.9541   20.4185 H   0  0  0  0  0  0
  -29.6877  -20.2198   21.9193 H   0  0  0  0  0  0
  -29.0723  -25.1935   21.5525 H   0  0  0  0  0  0
  -27.3580  -25.1036   21.3908 H   0  0  0  0  0  0
  -28.3375  -18.1902   20.0759 H   0  0  0  0  0  0
  -28.0129  -16.9109   22.1677 H   0  0  0  0  0  0
  -28.8781  -15.5362   20.9780 H   0  0  0  0  0  0
  -29.1297  -21.1432   19.3159 H   0  0  0  0  0  0
  -28.7057  -17.7545   24.0968 H   0  0  0  0  0  0
  1 25  1  0  0  0
  1 30  2  0  0  0
  1 81  1  0  0  0
  2  3  1  0  0  0
  2 25  1  0  0  0
  2 84  1  0  0  0
  2 85  1  0  0  0
  3  4  1  0  0  0
  3 86  1  0  0  0
  3 87  1  0  0  0
  4  5  1  0  0  0
  4 88  1  0  0  0
  4 89  1  0  0  0
  5  6  1  0  0  0
  5 26  1  0  0  0
  5 90  1  0  0  0
  6 25  1  0  0  0
  6 91  1  0  0  0
  6 92  1  0  0  0
  7  8  2  0  0  0
  7 26  1  0  0  0
  7 29  1  0  0  0
  8  9  1  0  0  0
  8 22  1  0  0  0
  9 10  1  0  0  0
  9 27  2  0  0  0
 10 11  2  0  0  0
 10 15  1  0  0  0
 11 12  1  0  0  0
 11 93  1  0  0  0
 12 13  2  0  0  0
 12 94  1  0  0  0
 13 14  1  0  0  0
 13 31  1  0  0  0
 14 15  2  0  0  0
 14 95  1  0  0  0
 15 96  1  0  0  0
 16 17  2  0  0  0
 16 21  1  0  0  0
 16 31  1  0  0  0
 17 18  1  0  0  0
 17 97  1  0  0  0
 18 19  2  0  0  0
 18 98  1  0  0  0
 19 20  1  0  0  0
 19 24  1  0  0  0
 20 21  2  0  0  0
 20 99  1  0  0  0
 21 23  1  0  0  0
 22 28  1  0  0  0
 22 32  2  0  0  0
 26 27  1  0  0  0
 28100  1  0  0  0
 28101  1  0  0  0
 29102  1  0  0  0
 29103  1  0  0  0
 33 34  1  0  0  0
 33 66  1  0  0  0
 33 70  2  0  0  0
 34 36  1  0  0  0
 34 59  1  0  0  0
 34104  1  0  0  0
 35 44  2  0  0  0
 35 45  1  0  0  0
 35 68  1  0  0  0
 36 56  1  0  0  0
 36105  1  0  0  0
 37 39  1  0  0  0
 37 47  1  0  0  0
 37 66  1  0  0  0
 37106  1  0  0  0
 38 43  2  0  0  0
 38 46  1  0  0  0
 38 47  1  0  0  0
 39 64  1  0  0  0
 39 67  2  0  0  0
 40 52  1  0  0  0
 40 53  2  0  0  0
 40 58  1  0  0  0
 41107  1  0  0  0
 41108  1  0  0  0
 41109  1  0  0  0
 41 48  1  0  0  0
 42 43  1  0  0  0
 42 66  1  0  0  0
 42110  1  0  0  0
 42111  1  0  0  0
 43 44  1  0  0  0
 44112  1  0  0  0
 45 46  2  0  0  0
 45113  1  0  0  0
 46114  1  0  0  0
 47115  1  0  0  0
 47116  1  0  0  0
 48 56  1  0  0  0
 48 65  1  0  0  0
 48117  1  0  0  0
 49 50  1  0  0  0
 49 53  1  0  0  0
 49 64  1  0  0  0
 49118  1  0  0  0
 50 51  1  0  0  0
 50119  1  0  0  0
 50120  1  0  0  0
 51 52  1  0  0  0
 51121  1  0  0  0
 51122  1  0  0  0
 52123  1  0  0  0
 52124  1  0  0  0
 53 54  1  0  0  0
 54 55  2  0  0  0
 54125  1  0  0  0
 55 57  1  0  0  0
 55126  1  0  0  0
 56 69  2  0  0  0
 57 58  2  0  0  0
 57127  1  0  0  0
 58128  1  0  0  0
 59 60  1  0  0  0
 59 61  1  0  0  0
 59 62  1  0  0  0
 60129  1  0  0  0
 60130  1  0  0  0
 60131  1  0  0  0
 61132  1  0  0  0
 61133  1  0  0  0
 61134  1  0  0  0
 62135  1  0  0  0
 62136  1  0  0  0
 62137  1  0  0  0
 63 65  1  0  0  0
 63138  1  0  0  0
 63139  1  0  0  0
 63140  1  0  0  0
 64141  1  0  0  0
 65142  1  0  0  0
 68 78  1  0  0  0
 71 73  1  0  0  0
 71143  1  0  0  0
 71144  1  0  0  0
 71145  1  0  0  0
 72146  1  0  0  0
 72147  1  0  0  0
 72148  1  0  0  0
 72 82  1  0  0  0
 73 80  1  0  0  0
 73149  1  0  0  0
 73150  1  0  0  0
 74 76  1  0  0  0
 74 78  1  0  0  0
 74151  1  0  0  0
 74152  1  0  0  0
 75 81  1  0  0  0
 75153  1  0  0  0
 75154  1  0  0  0
 75 79  1  0  0  0
 76 82  1  0  0  0
 76155  1  0  0  0
 76156  1  0  0  0
 77 79  1  0  0  0
 77 82  1  0  0  0
 77157  1  0  0  0
 77158  1  0  0  0
 78159  1  0  0  0
 78160  1  0  0  0
 79 80  1  0  0  0
 79161  1  0  0  0
 80 83  1  0  0  0
 80162  1  0  0  0
 81163  1  0  0  0
 82164  1  0  0  0
 83165  1  0  0  0
M  CHG  1  82   1
M  ISO  4   1 100  68 101  78 101  81 100
M  END
> <chiral flag>
0

> <version>
0

> <s_m_source_file>
/data/baiqing/PycharmProjects/Reinvent-master-3.2/result/LINK_invent/BTK/process_docking_weight1_custom_sum_contain_oxygen_bond_distance_aromatic_linkinvent_7_9_3/rearranged_h_0094.sdf

> <i_m_source_file_index>
61

> <r_mmod_Potential_Energy-OPLS-2005>
14.3268852233887

> <r_mmod_Stretch_Energy-OPLS-2005>
109.047706604004

> <r_mmod_Bend_Energy-OPLS-2005>
165.035537719727

> <r_mmod_Torsional_Energy-OPLS-2005>
271.050994873047

> <r_mmod_Improper_Torsional_Energy-OPLS-2005>
5.07464838027954

> <r_mmod_Van_der_Waal_Energy-OPLS-2005>
117.358337402344

> <r_mmod_Electrostatic_Energy-OPLS-2005>
-242.667907714844

> <r_mmod_Solvation_Energy-OPLS-2005>
-464.771301269531

> <b_mmod_Minimization_Converged-OPLS-2005>
0

> <r_mmod_RMS_Derivative-OPLS-2005>
2.52803611755371

$$$$
62
                    3D
 Structure written by MMmdl.
186194  0  0  1  0            999 V2000
  -30.7611  -14.5680   20.4283 C   0  0  0  0  0  0
  -30.4069  -12.3509   19.4145 C   0  0  0  0  0  0
  -29.4551  -12.4367   18.1984 C   0  0  0  0  0  0
  -27.9949  -12.2909   18.6445 C   0  0  0  0  0  0
  -27.6414  -13.2095   19.8413 C   0  0  2  0  0  0
  -28.7066  -13.1070   20.9516 C   0  0  0  0  0  0
  -25.2534  -13.8166   20.5717 C   0  0  0  0  0  0
  -24.1806  -13.0415   20.9237 C   0  0  0  0  0  0
  -24.6378  -11.6895   20.8809 C   0  0  0  0  0  0
  -23.9056  -10.4270   21.0445 C   0  0  0  0  0  0
  -24.3614   -9.4175   21.9205 C   0  0  0  0  0  0
  -23.6295   -8.2217   22.0764 C   0  0  0  0  0  0
  -22.4280   -8.0276   21.3553 C   0  0  0  0  0  0
  -21.9917   -9.0245   20.4650 C   0  0  0  0  0  0
  -22.7239  -10.2129   20.3075 C   0  0  0  0  0  0
  -21.6855   -6.0737   22.5276 C   0  0  0  0  0  0
  -21.4005   -6.5636   23.8207 C   0  0  0  0  0  0
  -21.3669   -5.6788   24.9167 C   0  0  0  0  0  0
  -21.6054   -4.3052   24.7220 C   0  0  0  0  0  0
  -21.8819   -3.8150   23.4336 C   0  0  0  0  0  0
  -21.9192   -4.6966   22.3390 C   0  0  0  0  0  0
  -22.7822  -13.5201   21.1875 C   0  0  0  0  0  0
  -22.1648   -4.2146   21.0970 F   0  0  0  0  0  0
  -21.5654   -3.4542   25.7737 F   0  0  0  0  0  0
  -30.0170  -13.4165   20.3579 N   0  0  0  0  0  0
  -26.2954  -12.9338   20.3373 N   0  0  0  0  0  0
  -25.9319  -11.6502   20.5887 N   0  0  0  0  0  0
  -22.0484  -12.8174   22.0431 N   0  0  0  0  0  0
  -25.4202  -15.1875   20.4066 N   0  0  0  0  0  0
  -31.9807  -14.4939   20.3007 O   0  0  0  0  0  0
  -21.6634   -6.8885   21.4244 O   0  0  0  0  0  0
  -22.3486  -14.5501   20.6737 O   0  0  0  0  0  0
  -24.6154  -31.8669   23.2067 C   0  0  0  0  0  0
  -25.9043  -32.4814   23.8372 C   0  0  1  0  0  0
  -27.2378  -27.4159   20.1198 C   0  0  0  0  0  0
  -25.5899  -33.8616   24.2313 N   0  0  0  0  0  0
  -23.4036  -30.4874   21.5480 C   0  0  2  0  0  0
  -24.8535  -28.9499   20.1134 C   0  0  0  0  0  0
  -22.7405  -29.4657   22.4992 C   0  0  0  0  0  0
  -18.0275  -28.1366   22.8498 C   0  0  0  0  0  0
  -24.1488  -36.7316   23.2636 C   0  0  0  0  0  0
  -25.9326  -30.8305   21.3589 C   0  0  0  0  0  0
  -26.0131  -29.4633   20.7071 C   0  0  0  0  0  0
  -27.2095  -28.7076   20.6978 C   0  0  0  0  0  0
  -26.0644  -26.9240   19.5065 C   0  0  0  0  0  0
  -24.8774  -27.6818   19.5042 C   0  0  0  0  0  0
  -23.6114  -29.8120   20.1651 C   0  0  0  0  0  0
  -25.4111  -36.3117   24.0335 C   0  0  1  0  0  0
  -20.5861  -28.3662   23.1322 C   0  0  2  0  0  0
  -20.6764  -26.9400   22.5424 C   0  0  0  0  0  0
  -19.5748  -26.6380   21.5217 C   0  0  0  0  0  0
  -18.1920  -26.7917   22.1619 C   0  0  0  0  0  0
  -19.1518  -28.8833   23.2907 C   0  0  0  0  0  0
  -18.9440  -30.1437   23.8908 C   0  0  0  0  0  0
  -17.6448  -30.6578   24.0563 C   0  0  0  0  0  0
  -25.9039  -34.9482   23.5128 C   0  0  0  0  0  0
  -16.5341  -29.9080   23.6329 C   0  0  0  0  0  0
  -16.7260  -28.6492   23.0355 C   0  0  0  0  0  0
  -26.4472  -31.6592   25.0702 C   0  0  0  0  0  0
  -25.3728  -31.3682   26.1436 C   0  0  0  0  0  0
  -27.0304  -30.3041   24.6076 C   0  0  0  0  0  0
  -27.6060  -32.4299   25.7461 C   0  0  0  0  0  0
  -27.5590  -37.1807   24.8456 C   0  0  0  0  0  0
  -21.4136  -29.3033   22.3725 N   0  0  0  0  0  0
  -26.4298  -37.3802   23.9409 N   0  0  0  0  0  0
  -24.6687  -31.0757   22.0969 N   0  0  0  0  0  0
  -23.4171  -28.8212   23.3045 O   0  0  0  0  0  0
  -28.3986  -26.6648   20.1489 O   0  0  0  0  0  0
  -26.5601  -34.8934   22.4689 O   0  0  0  0  0  0
  -23.5345  -32.1419   23.7465 O   0  0  0  0  0  0
  -30.8574  -17.6114   16.8481 C   0  0  0  0  0  0
  -30.1729  -18.8183   17.0106 C   0  0  0  0  0  0
  -30.9188  -16.6458   17.8665 C   0  0  0  0  0  0
  -29.5636  -19.0898   18.2646 C   0  0  0  0  0  0
  -30.2375  -16.9236   19.0982 C   0  0  0  0  0  0
  -28.8965  -20.6938   13.8135 C   0  0  0  0  0  0
  -32.7710  -13.7148   15.9608 C   0  0  0  0  0  0
  -27.2603  -22.7083   16.9285 C   0  0  0  0  0  0
  -28.9420  -16.2680   21.2642 C   0  0  0  0  0  0
  -30.7495  -21.8911   18.6668 C   0  0  0  0  0  0
  -30.1879  -19.7316   15.7927 C   0  0  0  0  0  0
  -31.7792  -15.4111   17.5739 C   0  0  0  0  0  0
  -28.6757  -20.3454   18.5839 C   0  0  0  0  0  0
  -28.8521  -19.7593   15.0296 C   0  0  0  0  0  0
  -32.1347  -15.1023   16.1039 C   0  0  0  0  0  0
  -28.7749  -22.5322   17.1694 C   0  0  0  0  0  0
  -28.8382  -24.3282   19.4739 C   0  0  0  0  0  0
  -28.6117  -22.7770   19.6554 C   0  0  0  0  0  0
  -28.2907  -25.2799   20.5608 C   0  0  0  0  0  0
  -30.2142  -16.0520   20.4240 C   0  0  1  0  0  0
  -29.2073  -21.8541   18.5134 C   0  0  2  0  0  0
  -29.6256  -18.1460   19.2500 N   0  0  0  0  0  0
  -31.4434  -12.4279   19.0798 H   0  0  0  0  0  0
  -30.3256  -11.3750   19.8939 H   0  0  0  0  0  0
  -29.6988  -11.6598   17.4724 H   0  0  0  0  0  0
  -29.5483  -13.3822   17.6701 H   0  0  0  0  0  0
  -27.8393  -11.2455   18.9161 H   0  0  0  0  0  0
  -27.3200  -12.4856   17.8111 H   0  0  0  0  0  0
  -27.6454  -14.2258   19.4489 H   0  0  0  0  0  0
  -28.7200  -12.0957   21.3614 H   0  0  0  0  0  0
  -28.4665  -13.7392   21.7993 H   0  0  0  0  0  0
  -25.2764   -9.5641   22.4775 H   0  0  0  0  0  0
  -24.0009   -7.4588   22.7470 H   0  0  0  0  0  0
  -21.0874   -8.8762   19.8912 H   0  0  0  0  0  0
  -22.3726  -10.9678   19.6186 H   0  0  0  0  0  0
  -21.1967   -7.6139   23.9702 H   0  0  0  0  0  0
  -21.1512   -6.0524   25.9072 H   0  0  0  0  0  0
  -22.0594   -2.7615   23.2833 H   0  0  0  0  0  0
  -22.4137  -11.9834   22.4786 H   0  0  0  0  0  0
  -21.1100  -13.1185   22.2651 H   0  0  0  0  0  0
  -24.6593  -15.8444   20.5352 H   0  0  0  0  0  0
  -26.2726  -15.6294   20.0908 H   0  0  0  0  0  0
  -26.7110  -32.5526   23.1129 H   0  0  0  0  0  0
  -25.0031  -33.9765   25.0449 H   0  0  0  0  0  0
  -22.6933  -31.3039   21.4044 H   0  0  0  0  0  0
  -23.3757  -35.9642   23.3289 H   0  0  0  0  0  0
  -24.3577  -36.8940   22.2053 H   0  0  0  0  0  0
  -23.7233  -37.6514   23.6655 H   0  0  0  0  0  0
  -26.0384  -31.5955   20.5879 H   0  0  0  0  0  0
  -26.8224  -30.8897   21.9747 H   0  0  0  0  0  0
  -28.1046  -29.1026   21.1584 H   0  0  0  0  0  0
  -26.0646  -25.9514   19.0354 H   0  0  0  0  0  0
  -23.9893  -27.2810   19.0368 H   0  0  0  0  0  0
  -23.7094  -30.5810   19.3987 H   0  0  0  0  0  0
  -22.7383  -29.2231   19.8782 H   0  0  0  0  0  0
  -25.1294  -36.1979   25.0832 H   0  0  0  0  0  0
  -20.9950  -28.3229   24.1446 H   0  0  0  0  0  0
  -20.5678  -26.2272   23.3608 H   0  0  0  0  0  0
  -21.6637  -26.7454   22.1215 H   0  0  0  0  0  0
  -19.6918  -25.6296   21.1236 H   0  0  0  0  0  0
  -19.6687  -27.3207   20.6758 H   0  0  0  0  0  0
  -17.4202  -26.6684   21.4005 H   0  0  0  0  0  0
  -18.0310  -26.0045   22.9001 H   0  0  0  0  0  0
  -19.7916  -30.7260   24.2278 H   0  0  0  0  0  0
  -17.4998  -31.6260   24.5168 H   0  0  0  0  0  0
  -15.5346  -30.2983   23.7642 H   0  0  0  0  0  0
  -15.8664  -28.0820   22.7065 H   0  0  0  0  0  0
  -24.5915  -30.7023   25.7745 H   0  0  0  0  0  0
  -24.8893  -32.2825   26.4891 H   0  0  0  0  0  0
  -25.8069  -30.8832   27.0184 H   0  0  0  0  0  0
  -26.2845  -29.6781   24.1161 H   0  0  0  0  0  0
  -27.4105  -29.7300   25.4532 H   0  0  0  0  0  0
  -27.8663  -30.4353   23.9197 H   0  0  0  0  0  0
  -27.2705  -33.3595   26.2064 H   0  0  0  0  0  0
  -28.3860  -32.6852   25.0278 H   0  0  0  0  0  0
  -28.0733  -31.8392   26.5344 H   0  0  0  0  0  0
  -28.2604  -38.0112   24.7541 H   0  0  0  0  0  0
  -28.1094  -36.2649   24.6246 H   0  0  0  0  0  0
  -27.2302  -37.1416   25.8855 H   0  0  0  0  0  0
  -20.9297  -29.8730   21.6926 H   0  0  0  0  0  0
  -26.0189  -38.2881   24.1412 H   0  0  0  0  0  0
  -31.3556  -17.4477   15.9069 H   0  0  0  0  0  0
  -27.9417  -20.6936   13.2879 H   0  0  0  0  0  0
  -29.6695  -20.3855   13.1102 H   0  0  0  0  0  0
  -29.1069  -21.7239   14.1012 H   0  0  0  0  0  0
  -33.0246  -13.5060   14.9206 H   0  0  0  0  0  0
  -32.0866  -12.9346   16.2985 H   0  0  0  0  0  0
  -33.6840  -13.6392   16.5539 H   0  0  0  0  0  0
  -27.0912  -23.2749   16.0137 H   0  0  0  0  0  0
  -26.7557  -23.2452   17.7296 H   0  0  0  0  0  0
  -26.7502  -21.7549   16.8005 H   0  0  0  0  0  0
  -28.8429  -17.3160   21.5434 H   0  0  0  0  0  0
  -28.9817  -15.7289   22.2067 H   0  0  0  0  0  0
  -28.0435  -15.9997   20.7158 H   0  0  0  0  0  0
  -31.2715  -21.1296   18.0935 H   0  0  0  0  0  0
  -31.0449  -21.7332   19.7049 H   0  0  0  0  0  0
  -31.1699  -22.8467   18.3561 H   0  0  0  0  0  0
  -30.9427  -19.3819   15.0883 H   0  0  0  0  0  0
  -30.5880  -20.6999   16.0645 H   0  0  0  0  0  0
  -31.2585  -14.5350   17.9163 H   0  0  0  0  0  0
  -32.7061  -15.4967   18.1396 H   0  0  0  0  0  0
  -28.3231  -20.1923   19.6051 H   0  0  0  0  0  0
  -27.7675  -20.2359   17.9969 H   0  0  0  0  0  0
  -28.6075  -18.7503   14.6955 H   0  0  0  0  0  0
  -28.0379  -20.0579   15.6867 H   0  0  0  0  0  0
  -31.2351  -15.1296   15.4870 H   0  0  0  0  0  0
  -32.8237  -15.8479   15.7025 H   0  0  0  0  0  0
  -29.2694  -23.4966   17.0591 H   0  0  0  0  0  0
  -29.1470  -22.0215   16.3071 H   0  0  0  0  0  0
  -28.3631  -24.6737   18.5590 H   0  0  0  0  0  0
  -29.9022  -24.5283   19.3508 H   0  0  0  0  0  0
  -27.5383  -22.5966   19.7369 H   0  0  0  0  0  0
  -29.0095  -22.4673   20.6235 H   0  0  0  0  0  0
  -28.8806  -25.1548   21.4696 H   0  0  0  0  0  0
  -27.2730  -24.9985   20.8324 H   0  0  0  0  0  0
  -30.9810  -16.5574   21.0138 H   0  0  0  0  0  0
  1 25  1  0  0  0
  1 30  2  0  0  0
  1 90  1  0  0  0
  2  3  1  0  0  0
  2 25  1  0  0  0
  2 93  1  0  0  0
  2 94  1  0  0  0
  3  4  1  0  0  0
  3 95  1  0  0  0
  3 96  1  0  0  0
  4  5  1  0  0  0
  4 97  1  0  0  0
  4 98  1  0  0  0
  5  6  1  0  0  0
  5 26  1  0  0  0
  5 99  1  0  0  0
  6 25  1  0  0  0
  6100  1  0  0  0
  6101  1  0  0  0
  7  8  2  0  0  0
  7 26  1  0  0  0
  7 29  1  0  0  0
  8  9  1  0  0  0
  8 22  1  0  0  0
  9 10  1  0  0  0
  9 27  2  0  0  0
 10 11  2  0  0  0
 10 15  1  0  0  0
 11 12  1  0  0  0
 11102  1  0  0  0
 12 13  2  0  0  0
 12103  1  0  0  0
 13 14  1  0  0  0
 13 31  1  0  0  0
 14 15  2  0  0  0
 14104  1  0  0  0
 15105  1  0  0  0
 16 17  2  0  0  0
 16 21  1  0  0  0
 16 31  1  0  0  0
 17 18  1  0  0  0
 17106  1  0  0  0
 18 19  2  0  0  0
 18107  1  0  0  0
 19 20  1  0  0  0
 19 24  1  0  0  0
 20 21  2  0  0  0
 20108  1  0  0  0
 21 23  1  0  0  0
 22 28  1  0  0  0
 22 32  2  0  0  0
 26 27  1  0  0  0
 28109  1  0  0  0
 28110  1  0  0  0
 29111  1  0  0  0
 29112  1  0  0  0
 33 34  1  0  0  0
 33 66  1  0  0  0
 33 70  2  0  0  0
 34 36  1  0  0  0
 34 59  1  0  0  0
 34113  1  0  0  0
 35 44  2  0  0  0
 35 45  1  0  0  0
 35 68  1  0  0  0
 36 56  1  0  0  0
 36114  1  0  0  0
 37 39  1  0  0  0
 37 47  1  0  0  0
 37 66  1  0  0  0
 37115  1  0  0  0
 38 43  2  0  0  0
 38 46  1  0  0  0
 38 47  1  0  0  0
 39 64  1  0  0  0
 39 67  2  0  0  0
 40 52  1  0  0  0
 40 53  2  0  0  0
 40 58  1  0  0  0
 41116  1  0  0  0
 41117  1  0  0  0
 41118  1  0  0  0
 41 48  1  0  0  0
 42 43  1  0  0  0
 42 66  1  0  0  0
 42119  1  0  0  0
 42120  1  0  0  0
 43 44  1  0  0  0
 44121  1  0  0  0
 45 46  2  0  0  0
 45122  1  0  0  0
 46123  1  0  0  0
 47124  1  0  0  0
 47125  1  0  0  0
 48 56  1  0  0  0
 48 65  1  0  0  0
 48126  1  0  0  0
 49 50  1  0  0  0
 49 53  1  0  0  0
 49 64  1  0  0  0
 49127  1  0  0  0
 50 51  1  0  0  0
 50128  1  0  0  0
 50129  1  0  0  0
 51 52  1  0  0  0
 51130  1  0  0  0
 51131  1  0  0  0
 52132  1  0  0  0
 52133  1  0  0  0
 53 54  1  0  0  0
 54 55  2  0  0  0
 54134  1  0  0  0
 55 57  1  0  0  0
 55135  1  0  0  0
 56 69  2  0  0  0
 57 58  2  0  0  0
 57136  1  0  0  0
 58137  1  0  0  0
 59 60  1  0  0  0
 59 61  1  0  0  0
 59 62  1  0  0  0
 60138  1  0  0  0
 60139  1  0  0  0
 60140  1  0  0  0
 61141  1  0  0  0
 61142  1  0  0  0
 61143  1  0  0  0
 62144  1  0  0  0
 62145  1  0  0  0
 62146  1  0  0  0
 63 65  1  0  0  0
 63147  1  0  0  0
 63148  1  0  0  0
 63149  1  0  0  0
 64150  1  0  0  0
 65151  1  0  0  0
 68 89  1  0  0  0
 71 72  2  0  0  0
 71 73  1  0  0  0
 71152  1  0  0  0
 72 74  1  0  0  0
 72 81  1  0  0  0
 73 75  2  0  0  0
 73 82  1  0  0  0
 74 83  1  0  0  0
 74 92  2  0  0  0
 75 90  1  0  0  0
 75 92  1  0  0  0
 76 84  1  0  0  0
 76153  1  0  0  0
 76154  1  0  0  0
 76155  1  0  0  0
 77 85  1  0  0  0
 77156  1  0  0  0
 77157  1  0  0  0
 77158  1  0  0  0
 78 86  1  0  0  0
 78159  1  0  0  0
 78160  1  0  0  0
 78161  1  0  0  0
 79162  1  0  0  0
 79163  1  0  0  0
 79164  1  0  0  0
 79 90  1  0  0  0
 80165  1  0  0  0
 80166  1  0  0  0
 80167  1  0  0  0
 80 91  1  0  0  0
 81 84  1  0  0  0
 81168  1  0  0  0
 81169  1  0  0  0
 82 85  1  0  0  0
 82170  1  0  0  0
 82171  1  0  0  0
 83 91  1  0  0  0
 83172  1  0  0  0
 83173  1  0  0  0
 84174  1  0  0  0
 84175  1  0  0  0
 85176  1  0  0  0
 85177  1  0  0  0
 86 91  1  0  0  0
 86178  1  0  0  0
 86179  1  0  0  0
 87 88  1  0  0  0
 87 89  1  0  0  0
 87180  1  0  0  0
 87181  1  0  0  0
 88 91  1  0  0  0
 88182  1  0  0  0
 88183  1  0  0  0
 89184  1  0  0  0
 89185  1  0  0  0
 90186  1  0  0  0
M  ISO  4   1 100  68 101  89 101  90 100
M  END
> <chiral flag>
0

> <version>
0

> <s_m_source_file>
/data/baiqing/PycharmProjects/Reinvent-master-3.2/result/LINK_invent/BTK/process_docking_weight1_custom_sum_contain_oxygen_bond_distance_aromatic_linkinvent_7_9_3/rearranged_h_0094.sdf

> <i_m_source_file_index>
62

> <r_mmod_Potential_Energy-OPLS-2005>
178.602096557617

> <r_mmod_Stretch_Energy-OPLS-2005>
75.5860366821289

> <r_mmod_Bend_Energy-OPLS-2005>
201.17024230957

> <r_mmod_Torsional_Energy-OPLS-2005>
234.926086425781

> <r_mmod_Improper_Torsional_Energy-OPLS-2005>
5.26723289489746

> <r_mmod_Van_der_Waal_Energy-OPLS-2005>
187.240982055664

> <r_mmod_Electrostatic_Energy-OPLS-2005>
-390.986877441406

> <r_mmod_Solvation_Energy-OPLS-2005>
-179.204528808594

> <b_mmod_Minimization_Converged-OPLS-2005>
0

> <r_mmod_RMS_Derivative-OPLS-2005>
2.94995260238647

$$$$
63
                    3D
 Structure written by MMmdl.
169177  0  0  1  0            999 V2000
  -30.7161  -14.5705   20.5507 C   0  0  0  0  0  0
  -30.4083  -12.3690   19.4452 C   0  0  0  0  0  0
  -29.4786  -12.4830   18.2195 C   0  0  0  0  0  0
  -28.0108  -12.3047   18.6442 C   0  0  0  0  0  0
  -27.6384  -13.1991   19.8520 C   0  0  2  0  0  0
  -28.6852  -13.0971   20.9865 C   0  0  0  0  0  0
  -25.2523  -13.8140   20.5719 C   0  0  0  0  0  0
  -24.1786  -13.0423   20.9236 C   0  0  0  0  0  0
  -24.6341  -11.6890   20.8804 C   0  0  0  0  0  0
  -23.9029  -10.4279   21.0455 C   0  0  0  0  0  0
  -24.3592   -9.4189   21.9220 C   0  0  0  0  0  0
  -23.6275   -8.2217   22.0764 C   0  0  0  0  0  0
  -22.4261   -8.0262   21.3538 C   0  0  0  0  0  0
  -21.9896   -9.0245   20.4652 C   0  0  0  0  0  0
  -22.7218  -10.2125   20.3086 C   0  0  0  0  0  0
  -21.6838   -6.0737   22.5281 C   0  0  0  0  0  0
  -21.4004   -6.5638   23.8217 C   0  0  0  0  0  0
  -21.3656   -5.6793   24.9178 C   0  0  0  0  0  0
  -21.6043   -4.3060   24.7225 C   0  0  0  0  0  0
  -21.8815   -3.8146   23.4349 C   0  0  0  0  0  0
  -21.9188   -4.6966   22.3405 C   0  0  0  0  0  0
  -22.7816  -13.5236   21.1892 C   0  0  0  0  0  0
  -22.1662   -4.2155   21.0986 F   0  0  0  0  0  0
  -21.5627   -3.4542   25.7740 F   0  0  0  0  0  0
  -30.0063  -13.4056   20.4202 N   0  0  0  0  0  0
  -26.2908  -12.9280   20.3316 N   0  0  0  0  0  0
  -25.9257  -11.6465   20.5823 N   0  0  0  0  0  0
  -22.0445  -12.8240   22.0448 N   0  0  0  0  0  0
  -25.4225  -15.1857   20.4109 N   0  0  0  0  0  0
  -31.8503  -14.6695   20.0704 O   0  0  0  0  0  0
  -21.6617   -6.8862   21.4239 O   0  0  0  0  0  0
  -22.3522  -14.5551   20.6741 O   0  0  0  0  0  0
  -24.6175  -31.8621   23.2079 C   0  0  0  0  0  0
  -25.9059  -32.4778   23.8370 C   0  0  1  0  0  0
  -27.2315  -27.3852   20.1011 C   0  0  0  0  0  0
  -25.5903  -33.8577   24.2297 N   0  0  0  0  0  0
  -23.4070  -30.4872   21.5445 C   0  0  2  0  0  0
  -24.8537  -28.9437   20.1115 C   0  0  0  0  0  0
  -22.7402  -29.4648   22.4948 C   0  0  0  0  0  0
  -18.0273  -28.1375   22.8471 C   0  0  0  0  0  0
  -24.1498  -36.7302   23.2648 C   0  0  0  0  0  0
  -25.9390  -30.8115   21.3692 C   0  0  0  0  0  0
  -26.0133  -29.4427   20.7134 C   0  0  0  0  0  0
  -27.2002  -28.6693   20.7084 C   0  0  0  0  0  0
  -26.0476  -26.9055   19.5001 C   0  0  0  0  0  0
  -24.8673  -27.6751   19.5053 C   0  0  0  0  0  0
  -23.6184  -29.8160   20.1594 C   0  0  0  0  0  0
  -25.4109  -36.3069   24.0341 C   0  0  1  0  0  0
  -20.5862  -28.3664   23.1305 C   0  0  2  0  0  0
  -20.6761  -26.9394   22.5414 C   0  0  0  0  0  0
  -19.5754  -26.6364   21.5204 C   0  0  0  0  0  0
  -18.1923  -26.7915   22.1598 C   0  0  0  0  0  0
  -19.1526  -28.8833   23.2884 C   0  0  0  0  0  0
  -18.9466  -30.1433   23.8901 C   0  0  0  0  0  0
  -17.6472  -30.6579   24.0568 C   0  0  0  0  0  0
  -25.9042  -34.9439   23.5122 C   0  0  0  0  0  0
  -16.5359  -29.9085   23.6335 C   0  0  0  0  0  0
  -16.7266  -28.6504   23.0346 C   0  0  0  0  0  0
  -26.4499  -31.6581   25.0712 C   0  0  0  0  0  0
  -25.3767  -31.3693   26.1473 C   0  0  0  0  0  0
  -27.0373  -30.3022   24.6124 C   0  0  0  0  0  0
  -27.6058  -32.4328   25.7468 C   0  0  0  0  0  0
  -27.5582  -37.1785   24.8458 C   0  0  0  0  0  0
  -21.4132  -29.3036   22.3700 N   0  0  0  0  0  0
  -26.4281  -37.3763   23.9419 N   0  0  0  0  0  0
  -24.6724  -31.0692   22.0982 N   0  0  0  0  0  0
  -23.4170  -28.8187   23.3003 O   0  0  0  0  0  0
  -28.4048  -26.6468   20.1462 O   0  0  0  0  0  0
  -26.5604  -34.8908   22.4682 O   0  0  0  0  0  0
  -23.5367  -32.1399   23.7450 O   0  0  0  0  0  0
  -30.1385  -18.3124   19.4095 C   0  0  0  0  0  0
  -28.5568  -19.0250   20.7825 C   0  0  0  0  0  0
  -29.2572  -17.8875   20.4412 C   0  0  0  0  0  0
  -29.8618  -19.6137   19.0613 C   0  0  0  0  0  0
  -29.3811  -20.2516   16.6941 C   0  0  0  0  0  0
  -31.7702  -19.9127   17.4126 C   0  0  0  0  0  0
  -30.2734  -22.7829   20.6322 C   0  0  0  0  0  0
  -31.1325  -16.2846   22.2159 C   0  0  0  0  0  0
  -29.0387  -16.4434   20.9535 C   0  0  0  0  0  0
  -28.1129  -24.0727   20.1687 C   0  0  0  0  0  0
  -28.1761  -21.4177   19.9830 C   0  0  0  0  0  0
  -28.5628  -25.3899   19.4413 C   0  0  0  0  0  0
  -30.3725  -20.3673   17.8617 C   0  0  0  0  0  0
  -28.9565  -22.7807   19.8312 C   0  0  2  0  0  0
  -28.8986  -20.1029   19.9558 N   0  0  0  0  0  0
  -30.2138  -15.5979   21.3044 N   0  0  0  0  0  0
  -31.4491  -12.4594   19.1318 H   0  0  0  0  0  0
  -30.3248  -11.3819   19.9013 H   0  0  0  0  0  0
  -29.7423  -11.7302   17.4741 H   0  0  0  0  0  0
  -29.6080  -13.4543   17.7394 H   0  0  0  0  0  0
  -27.8633  -11.2550   18.9019 H   0  0  0  0  0  0
  -27.3437  -12.5021   17.8048 H   0  0  0  0  0  0
  -27.6346  -14.2079   19.4554 H   0  0  0  0  0  0
  -28.6927  -12.0911   21.4088 H   0  0  0  0  0  0
  -28.4269  -13.7616   21.8117 H   0  0  0  0  0  0
  -25.2722   -9.5668   22.4824 H   0  0  0  0  0  0
  -23.9975   -7.4603   22.7476 H   0  0  0  0  0  0
  -21.0829   -8.8771   19.8958 H   0  0  0  0  0  0
  -22.3679  -10.9682   19.6210 H   0  0  0  0  0  0
  -21.1999   -7.6149   23.9725 H   0  0  0  0  0  0
  -21.1482   -6.0524   25.9081 H   0  0  0  0  0  0
  -22.0600   -2.7613   23.2847 H   0  0  0  0  0  0
  -22.4023  -11.9855   22.4794 H   0  0  0  0  0  0
  -21.1090  -13.1300   22.2706 H   0  0  0  0  0  0
  -24.6503  -15.8335   20.5230 H   0  0  0  0  0  0
  -26.2664  -15.6280   20.0720 H   0  0  0  0  0  0
  -26.7098  -32.5466   23.1100 H   0  0  0  0  0  0
  -25.0044  -33.9734   25.0437 H   0  0  0  0  0  0
  -22.6957  -31.3037   21.3974 H   0  0  0  0  0  0
  -23.3754  -35.9639   23.3293 H   0  0  0  0  0  0
  -24.3599  -36.8952   22.2065 H   0  0  0  0  0  0
  -23.7258  -37.6505   23.6686 H   0  0  0  0  0  0
  -26.0589  -31.5764   20.6020 H   0  0  0  0  0  0
  -26.8243  -30.8618   21.9907 H   0  0  0  0  0  0
  -28.0928  -29.0491   21.1832 H   0  0  0  0  0  0
  -26.0117  -25.9299   19.0401 H   0  0  0  0  0  0
  -23.9724  -27.2778   19.0493 H   0  0  0  0  0  0
  -23.7269  -30.5889   19.3981 H   0  0  0  0  0  0
  -22.7428  -29.2363   19.8624 H   0  0  0  0  0  0
  -25.1277  -36.1921   25.0828 H   0  0  0  0  0  0
  -20.9949  -28.3235   24.1437 H   0  0  0  0  0  0
  -20.5664  -26.2260   23.3603 H   0  0  0  0  0  0
  -21.6633  -26.7418   22.1220 H   0  0  0  0  0  0
  -19.6942  -25.6279   21.1236 H   0  0  0  0  0  0
  -19.6739  -27.3175   20.6748 H   0  0  0  0  0  0
  -17.4200  -26.6684   21.3990 H   0  0  0  0  0  0
  -18.0319  -26.0033   22.8972 H   0  0  0  0  0  0
  -19.7962  -30.7235   24.2252 H   0  0  0  0  0  0
  -17.5052  -31.6266   24.5168 H   0  0  0  0  0  0
  -15.5378  -30.3015   23.7657 H   0  0  0  0  0  0
  -15.8652  -28.0847   22.7065 H   0  0  0  0  0  0
  -24.5935  -30.7035   25.7829 H   0  0  0  0  0  0
  -24.8969  -32.2854   26.4920 H   0  0  0  0  0  0
  -25.8128  -30.8866   27.0227 H   0  0  0  0  0  0
  -26.2933  -29.6711   24.1238 H   0  0  0  0  0  0
  -27.4235  -29.7322   25.4592 H   0  0  0  0  0  0
  -27.8721  -30.4358   23.9233 H   0  0  0  0  0  0
  -27.2662  -33.3631   26.2027 H   0  0  0  0  0  0
  -28.3865  -32.6883   25.0290 H   0  0  0  0  0  0
  -28.0717  -31.8460   26.5394 H   0  0  0  0  0  0
  -28.2552  -38.0120   24.7513 H   0  0  0  0  0  0
  -28.1120  -36.2647   24.6250 H   0  0  0  0  0  0
  -27.2305  -37.1389   25.8860 H   0  0  0  0  0  0
  -20.9274  -29.8779   21.6956 H   0  0  0  0  0  0
  -26.0178  -38.2841   24.1434 H   0  0  0  0  0  0
  -30.8374  -17.6777   18.8826 H   0  0  0  0  0  0
  -27.7680  -19.1487   21.5129 H   0  0  0  0  0  0
  -28.4022  -20.6504   16.9623 H   0  0  0  0  0  0
  -29.2427  -19.2096   16.4022 H   0  0  0  0  0  0
  -29.7290  -20.7969   15.8170 H   0  0  0  0  0  0
  -32.5009  -20.0532   18.2092 H   0  0  0  0  0  0
  -32.1097  -20.4978   16.5580 H   0  0  0  0  0  0
  -31.7858  -18.8645   17.1157 H   0  0  0  0  0  0
  -30.8273  -23.7119   20.4979 H   0  0  0  0  0  0
  -30.9386  -21.9724   20.3347 H   0  0  0  0  0  0
  -30.0812  -22.6689   21.7001 H   0  0  0  0  0  0
  -30.6039  -16.9614   22.8890 H   0  0  0  0  0  0
  -31.8667  -16.8701   21.6599 H   0  0  0  0  0  0
  -31.6732  -15.5653   22.8338 H   0  0  0  0  0  0
  -28.4701  -15.9604   20.1658 H   0  0  0  0  0  0
  -28.3749  -16.4761   21.8183 H   0  0  0  0  0  0
  -27.0674  -23.8953   19.9174 H   0  0  0  0  0  0
  -28.1249  -24.2283   21.2487 H   0  0  0  0  0  0
  -27.3993  -21.3728   19.2192 H   0  0  0  0  0  0
  -27.6381  -21.4637   20.9301 H   0  0  0  0  0  0
  -28.1304  -25.4452   18.4412 H   0  0  0  0  0  0
  -29.6356  -25.3242   19.2637 H   0  0  0  0  0  0
  -30.4905  -21.4173   18.1011 H   0  0  0  0  0  0
  -29.1926  -22.8820   18.7748 H   0  0  0  0  0  0
  1 25  1  0  0  0
  1 30  2  0  0  0
  1 86  1  0  0  0
  2  3  1  0  0  0
  2 25  1  0  0  0
  2 87  1  0  0  0
  2 88  1  0  0  0
  3  4  1  0  0  0
  3 89  1  0  0  0
  3 90  1  0  0  0
  4  5  1  0  0  0
  4 91  1  0  0  0
  4 92  1  0  0  0
  5  6  1  0  0  0
  5 26  1  0  0  0
  5 93  1  0  0  0
  6 25  1  0  0  0
  6 94  1  0  0  0
  6 95  1  0  0  0
  7  8  2  0  0  0
  7 26  1  0  0  0
  7 29  1  0  0  0
  8  9  1  0  0  0
  8 22  1  0  0  0
  9 10  1  0  0  0
  9 27  2  0  0  0
 10 11  2  0  0  0
 10 15  1  0  0  0
 11 12  1  0  0  0
 11 96  1  0  0  0
 12 13  2  0  0  0
 12 97  1  0  0  0
 13 14  1  0  0  0
 13 31  1  0  0  0
 14 15  2  0  0  0
 14 98  1  0  0  0
 15 99  1  0  0  0
 16 17  2  0  0  0
 16 21  1  0  0  0
 16 31  1  0  0  0
 17 18  1  0  0  0
 17100  1  0  0  0
 18 19  2  0  0  0
 18101  1  0  0  0
 19 20  1  0  0  0
 19 24  1  0  0  0
 20 21  2  0  0  0
 20102  1  0  0  0
 21 23  1  0  0  0
 22 28  1  0  0  0
 22 32  2  0  0  0
 26 27  1  0  0  0
 28103  1  0  0  0
 28104  1  0  0  0
 29105  1  0  0  0
 29106  1  0  0  0
 33 34  1  0  0  0
 33 66  1  0  0  0
 33 70  2  0  0  0
 34 36  1  0  0  0
 34 59  1  0  0  0
 34107  1  0  0  0
 35 44  2  0  0  0
 35 45  1  0  0  0
 35 68  1  0  0  0
 36 56  1  0  0  0
 36108  1  0  0  0
 37 39  1  0  0  0
 37 47  1  0  0  0
 37 66  1  0  0  0
 37109  1  0  0  0
 38 43  2  0  0  0
 38 46  1  0  0  0
 38 47  1  0  0  0
 39 64  1  0  0  0
 39 67  2  0  0  0
 40 52  1  0  0  0
 40 53  2  0  0  0
 40 58  1  0  0  0
 41110  1  0  0  0
 41111  1  0  0  0
 41112  1  0  0  0
 41 48  1  0  0  0
 42 43  1  0  0  0
 42 66  1  0  0  0
 42113  1  0  0  0
 42114  1  0  0  0
 43 44  1  0  0  0
 44115  1  0  0  0
 45 46  2  0  0  0
 45116  1  0  0  0
 46117  1  0  0  0
 47118  1  0  0  0
 47119  1  0  0  0
 48 56  1  0  0  0
 48 65  1  0  0  0
 48120  1  0  0  0
 49 50  1  0  0  0
 49 53  1  0  0  0
 49 64  1  0  0  0
 49121  1  0  0  0
 50 51  1  0  0  0
 50122  1  0  0  0
 50123  1  0  0  0
 51 52  1  0  0  0
 51124  1  0  0  0
 51125  1  0  0  0
 52126  1  0  0  0
 52127  1  0  0  0
 53 54  1  0  0  0
 54 55  2  0  0  0
 54128  1  0  0  0
 55 57  1  0  0  0
 55129  1  0  0  0
 56 69  2  0  0  0
 57 58  2  0  0  0
 57130  1  0  0  0
 58131  1  0  0  0
 59 60  1  0  0  0
 59 61  1  0  0  0
 59 62  1  0  0  0
 60132  1  0  0  0
 60133  1  0  0  0
 60134  1  0  0  0
 61135  1  0  0  0
 61136  1  0  0  0
 61137  1  0  0  0
 62138  1  0  0  0
 62139  1  0  0  0
 62140  1  0  0  0
 63 65  1  0  0  0
 63141  1  0  0  0
 63142  1  0  0  0
 63143  1  0  0  0
 64144  1  0  0  0
 65145  1  0  0  0
 68 82  1  0  0  0
 71 73  1  0  0  0
 71 74  2  0  0  0
 71146  1  0  0  0
 72 73  2  0  0  0
 72 85  1  0  0  0
 72147  1  0  0  0
 73 79  1  0  0  0
 74 83  1  0  0  0
 74 85  1  0  0  0
 75148  1  0  0  0
 75149  1  0  0  0
 75150  1  0  0  0
 75 83  1  0  0  0
 76 83  1  0  0  0
 76151  1  0  0  0
 76152  1  0  0  0
 76153  1  0  0  0
 77154  1  0  0  0
 77155  1  0  0  0
 77156  1  0  0  0
 77 84  1  0  0  0
 78 86  1  0  0  0
 78157  1  0  0  0
 78158  1  0  0  0
 78159  1  0  0  0
 79 86  1  0  0  0
 79160  1  0  0  0
 79161  1  0  0  0
 80 82  1  0  0  0
 80 84  1  0  0  0
 80162  1  0  0  0
 80163  1  0  0  0
 81 84  1  0  0  0
 81 85  1  0  0  0
 81164  1  0  0  0
 81165  1  0  0  0
 82166  1  0  0  0
 82167  1  0  0  0
 83168  1  0  0  0
 84169  1  0  0  0
M  ISO  4   1 100  68 101  82 101  86 100
M  END
> <chiral flag>
0

> <version>
0

> <s_m_source_file>
/data/baiqing/PycharmProjects/Reinvent-master-3.2/result/LINK_invent/BTK/process_docking_weight1_custom_sum_contain_oxygen_bond_distance_aromatic_linkinvent_7_9_3/rearranged_h_0094.sdf

> <i_m_source_file_index>
63

> <r_mmod_Potential_Energy-OPLS-2005>
124.668884277344

> <r_mmod_Stretch_Energy-OPLS-2005>
56.8250312805176

> <r_mmod_Bend_Energy-OPLS-2005>
150.080642700195

> <r_mmod_Torsional_Energy-OPLS-2005>
281.098663330078

> <r_mmod_Improper_Torsional_Energy-OPLS-2005>
5.88718414306641

> <r_mmod_Van_der_Waal_Energy-OPLS-2005>
121.137329101562

> <r_mmod_Electrostatic_Energy-OPLS-2005>
-327.423767089844

> <r_mmod_Solvation_Energy-OPLS-2005>
-191.453277587891

> <b_mmod_Minimization_Converged-OPLS-2005>
0

> <r_mmod_RMS_Derivative-OPLS-2005>
2.81198811531067

$$$$
64
                    3D
 Structure written by MMmdl.
178186  0  0  1  0            999 V2000
  -30.6774  -14.4775   20.5109 C   0  0  0  0  0  0
  -30.4258  -12.2878   19.4156 C   0  0  0  0  0  0
  -29.4975  -12.5012   18.1997 C   0  0  0  0  0  0
  -28.0149  -12.3707   18.6127 C   0  0  0  0  0  0
  -27.6677  -13.2013   19.8777 C   0  0  2  0  0  0
  -28.7176  -12.9657   20.9932 C   0  0  0  0  0  0
  -25.2630  -13.8142   20.5679 C   0  0  0  0  0  0
  -24.1883  -13.0453   20.9181 C   0  0  0  0  0  0
  -24.6409  -11.6901   20.8745 C   0  0  0  0  0  0
  -23.9071  -10.4294   21.0407 C   0  0  0  0  0  0
  -24.3613   -9.4217   21.9198 C   0  0  0  0  0  0
  -23.6298   -8.2255   22.0779 C   0  0  0  0  0  0
  -22.4290   -8.0275   21.3554 C   0  0  0  0  0  0
  -21.9903   -9.0252   20.4667 C   0  0  0  0  0  0
  -22.7229  -10.2143   20.3080 C   0  0  0  0  0  0
  -21.6845   -6.0759   22.5291 C   0  0  0  0  0  0
  -21.3998   -6.5651   23.8225 C   0  0  0  0  0  0
  -21.3670   -5.6792   24.9175 C   0  0  0  0  0  0
  -21.6047   -4.3059   24.7222 C   0  0  0  0  0  0
  -21.8816   -3.8164   23.4339 C   0  0  0  0  0  0
  -21.9182   -4.6987   22.3402 C   0  0  0  0  0  0
  -22.7887  -13.5228   21.1823 C   0  0  0  0  0  0
  -22.1654   -4.2177   21.0989 F   0  0  0  0  0  0
  -21.5640   -3.4551   25.7742 F   0  0  0  0  0  0
  -30.0497  -13.2738   20.4384 N   0  0  0  0  0  0
  -26.3073  -12.9303   20.3395 N   0  0  0  0  0  0
  -25.9340  -11.6461   20.5775 N   0  0  0  0  0  0
  -22.0508  -12.8247   22.0369 N   0  0  0  0  0  0
  -25.4366  -15.1876   20.4061 N   0  0  0  0  0  0
  -31.8114  -14.6804   20.0688 O   0  0  0  0  0  0
  -21.6637   -6.8903   21.4252 O   0  0  0  0  0  0
  -22.3582  -14.5551   20.6675 O   0  0  0  0  0  0
  -24.6215  -31.8648   23.2088 C   0  0  0  0  0  0
  -25.9074  -32.4814   23.8407 C   0  0  1  0  0  0
  -27.1956  -27.3541   20.1358 C   0  0  0  0  0  0
  -25.5868  -33.8626   24.2306 N   0  0  0  0  0  0
  -23.4149  -30.4889   21.5502 C   0  0  2  0  0  0
  -24.8592  -28.9662   20.1001 C   0  0  0  0  0  0
  -22.7471  -29.4595   22.4929 C   0  0  0  0  0  0
  -18.0279  -28.1397   22.8451 C   0  0  0  0  0  0
  -24.1467  -36.7335   23.2636 C   0  0  0  0  0  0
  -25.9535  -30.8038   21.3772 C   0  0  0  0  0  0
  -26.0213  -29.4361   20.7242 C   0  0  0  0  0  0
  -27.1941  -28.6344   20.7497 C   0  0  0  0  0  0
  -26.0387  -26.9578   19.4274 C   0  0  0  0  0  0
  -24.8674  -27.7317   19.4368 C   0  0  0  0  0  0
  -23.6266  -29.8395   20.1579 C   0  0  0  0  0  0
  -25.4093  -36.3127   24.0330 C   0  0  1  0  0  0
  -20.5877  -28.3686   23.1295 C   0  0  2  0  0  0
  -20.6777  -26.9411   22.5430 C   0  0  0  0  0  0
  -19.5751  -26.6398   21.5220 C   0  0  0  0  0  0
  -18.1903  -26.7942   22.1597 C   0  0  0  0  0  0
  -19.1521  -28.8862   23.2855 C   0  0  0  0  0  0
  -18.9440  -30.1453   23.8873 C   0  0  0  0  0  0
  -17.6462  -30.6580   24.0561 C   0  0  0  0  0  0
  -25.9039  -34.9477   23.5123 C   0  0  0  0  0  0
  -16.5338  -29.9097   23.6345 C   0  0  0  0  0  0
  -16.7256  -28.6524   23.0334 C   0  0  0  0  0  0
  -26.4455  -31.6629   25.0779 C   0  0  0  0  0  0
  -25.3679  -31.3778   26.1502 C   0  0  0  0  0  0
  -27.0314  -30.3072   24.6218 C   0  0  0  0  0  0
  -27.6029  -32.4364   25.7526 C   0  0  0  0  0  0
  -27.5559  -37.1792   24.8445 C   0  0  0  0  0  0
  -21.4187  -29.3041   22.3701 N   0  0  0  0  0  0
  -26.4275  -37.3807   23.9403 N   0  0  0  0  0  0
  -24.6826  -31.0695   22.1025 N   0  0  0  0  0  0
  -23.4220  -28.8092   23.2957 O   0  0  0  0  0  0
  -28.2547  -26.4603   20.2776 O   0  0  0  0  0  0
  -26.5631  -34.8931   22.4703 O   0  0  0  0  0  0
  -23.5394  -32.1443   23.7402 O   0  0  0  0  0  0
  -29.6398  -20.2296   20.7114 C   0  0  0  0  0  0
  -28.7967  -21.2909   21.1708 C   0  0  0  0  0  0
  -29.6669  -19.2037   21.6283 C   0  0  0  0  0  0
  -28.2669  -20.8393   22.3547 C   0  0  0  0  0  0
  -27.2383  -21.5189   23.2086 C   0  0  0  0  0  0
  -32.5732  -20.5232   22.1423 C   0  0  0  0  0  0
  -29.1912  -17.5842   26.0429 C   0  0  0  0  0  0
  -27.5268  -17.5455   23.4219 C   0  0  0  0  0  0
  -28.4236  -22.5939   20.4332 C   0  0  0  0  0  0
  -33.0725  -19.1056   21.7956 C   0  0  0  0  0  0
  -29.5588  -18.4551   24.8263 C   0  0  0  0  0  0
  -28.8184  -23.9810   21.0650 C   0  0  0  0  0  0
  -32.0038  -17.9713   21.6324 C   0  0  0  0  0  0
  -29.9764  -16.9082   20.4581 C   0  0  0  0  0  0
  -27.8029  -25.1285   20.7037 C   0  0  0  0  0  0
  -30.4347  -17.8720   21.5901 C   0  0  2  0  0  0
  -28.3889  -18.7579   23.8423 C   0  0  1  0  0  0
  -28.7843  -19.5702   22.6599 N   0  0  0  0  0  0
  -29.8742  -15.4920   20.8704 N   0  0  0  0  0  0
  -31.4724  -12.3692   19.1172 H   0  0  0  0  0  0
  -30.3131  -11.2763   19.8071 H   0  0  0  0  0  0
  -29.7340  -11.7828   17.4126 H   0  0  0  0  0  0
  -29.6755  -13.4884   17.7649 H   0  0  0  0  0  0
  -27.8032  -11.3138   18.7876 H   0  0  0  0  0  0
  -27.3765  -12.6748   17.7827 H   0  0  0  0  0  0
  -27.7134  -14.2499   19.5785 H   0  0  0  0  0  0
  -28.6925  -11.9230   21.3178 H   0  0  0  0  0  0
  -28.4953  -13.5582   21.8831 H   0  0  0  0  0  0
  -25.2774   -9.5678   22.4760 H   0  0  0  0  0  0
  -24.0016   -7.4629   22.7477 H   0  0  0  0  0  0
  -21.0861   -8.8745   19.8950 H   0  0  0  0  0  0
  -22.3687  -10.9673   19.6179 H   0  0  0  0  0  0
  -21.1978   -7.6158   23.9729 H   0  0  0  0  0  0
  -21.1504   -6.0537   25.9082 H   0  0  0  0  0  0
  -22.0591   -2.7632   23.2835 H   0  0  0  0  0  0
  -22.4086  -11.9904   22.4793 H   0  0  0  0  0  0
  -21.1136  -13.1304   22.2560 H   0  0  0  0  0  0
  -24.6699  -15.8418   20.5180 H   0  0  0  0  0  0
  -26.2837  -15.6235   20.0660 H   0  0  0  0  0  0
  -26.7122  -32.5475   23.1151 H   0  0  0  0  0  0
  -25.0009  -33.9804   25.0447 H   0  0  0  0  0  0
  -22.7075  -31.3080   21.4131 H   0  0  0  0  0  0
  -23.3724  -35.9658   23.3299 H   0  0  0  0  0  0
  -24.3551  -36.8997   22.2046 H   0  0  0  0  0  0
  -23.7204  -37.6537   23.6679 H   0  0  0  0  0  0
  -26.0796  -31.5575   20.5974 H   0  0  0  0  0  0
  -26.8416  -30.8609   21.9944 H   0  0  0  0  0  0
  -28.0696  -28.9613   21.2912 H   0  0  0  0  0  0
  -26.0141  -26.0386   18.8608 H   0  0  0  0  0  0
  -23.9873  -27.3796   18.9157 H   0  0  0  0  0  0
  -23.7373  -30.6269   19.4112 H   0  0  0  0  0  0
  -22.7477  -29.2720   19.8480 H   0  0  0  0  0  0
  -25.1234  -36.2003   25.0815 H   0  0  0  0  0  0
  -20.9931  -28.3251   24.1433 H   0  0  0  0  0  0
  -20.5718  -26.2258   23.3613 H   0  0  0  0  0  0
  -21.6625  -26.7460   22.1163 H   0  0  0  0  0  0
  -19.6928  -25.6323   21.1219 H   0  0  0  0  0  0
  -19.6716  -27.3226   20.6764 H   0  0  0  0  0  0
  -17.4196  -26.6672   21.3995 H   0  0  0  0  0  0
  -18.0263  -26.0141   22.9032 H   0  0  0  0  0  0
  -19.7924  -30.7261   24.2232 H   0  0  0  0  0  0
  -17.5010  -31.6248   24.5177 H   0  0  0  0  0  0
  -15.5330  -30.2966   23.7738 H   0  0  0  0  0  0
  -15.8654  -28.0863   22.7049 H   0  0  0  0  0  0
  -24.5823  -30.7167   25.7841 H   0  0  0  0  0  0
  -24.8879  -32.2953   26.4934 H   0  0  0  0  0  0
  -25.7975  -30.8964   27.0284 H   0  0  0  0  0  0
  -26.2916  -29.6826   24.1218 H   0  0  0  0  0  0
  -27.4028  -29.7327   25.4709 H   0  0  0  0  0  0
  -27.8755  -30.4421   23.9445 H   0  0  0  0  0  0
  -27.2661  -33.3643   26.2149 H   0  0  0  0  0  0
  -28.3796  -32.6969   25.0325 H   0  0  0  0  0  0
  -28.0749  -31.8478   26.5403 H   0  0  0  0  0  0
  -28.2556  -38.0104   24.7542 H   0  0  0  0  0  0
  -28.1072  -36.2655   24.6201 H   0  0  0  0  0  0
  -27.2297  -37.1373   25.8850 H   0  0  0  0  0  0
  -20.9367  -29.8833   21.6971 H   0  0  0  0  0  0
  -26.0175  -38.2873   24.1468 H   0  0  0  0  0  0
  -30.1896  -20.2106   19.7786 H   0  0  0  0  0  0
  -27.0345  -22.5298   22.8538 H   0  0  0  0  0  0
  -27.5734  -21.5999   24.2414 H   0  0  0  0  0  0
  -26.2908  -20.9775   23.1932 H   0  0  0  0  0  0
  -33.4001  -21.1713   22.4324 H   0  0  0  0  0  0
  -31.8600  -20.5154   22.9661 H   0  0  0  0  0  0
  -32.0938  -20.9923   21.2851 H   0  0  0  0  0  0
  -30.0546  -17.4650   26.7015 H   0  0  0  0  0  0
  -28.8974  -16.5784   25.7442 H   0  0  0  0  0  0
  -28.3785  -18.0193   26.6260 H   0  0  0  0  0  0
  -27.3104  -16.8772   24.2516 H   0  0  0  0  0  0
  -27.9733  -16.9456   22.6324 H   0  0  0  0  0  0
  -26.5588  -17.8893   23.0595 H   0  0  0  0  0  0
  -27.3371  -22.5511   20.3438 H   0  0  0  0  0  0
  -28.7898  -22.5473   19.4065 H   0  0  0  0  0  0
  -33.7831  -18.8087   22.5701 H   0  0  0  0  0  0
  -33.7046  -19.1778   20.9058 H   0  0  0  0  0  0
  -30.4072  -17.9766   24.3561 H   0  0  0  0  0  0
  -29.9477  -19.4060   25.1941 H   0  0  0  0  0  0
  -29.8454  -24.2441   20.8054 H   0  0  0  0  0  0
  -28.8084  -23.8732   22.1535 H   0  0  0  0  0  0
  -31.8536  -18.4936   20.6883 H   0  0  0  0  0  0
  -31.8227  -18.2612   22.6652 H   0  0  0  0  0  0
  -30.6022  -17.0109   19.5693 H   0  0  0  0  0  0
  -28.9765  -17.1988   20.1363 H   0  0  0  0  0  0
  -27.1641  -25.2785   21.5789 H   0  0  0  0  0  0
  -27.1325  -24.7061   19.9582 H   0  0  0  0  0  0
  -30.1440  -17.3005   22.4639 H   0  0  0  0  0  0
  -27.7090  -19.3554   24.4485 H   0  0  0  0  0  0
  -28.9753  -15.2048   21.2290 H   0  0  0  0  0  0
  1 25  1  0  0  0
  1 30  2  0  0  0
  1 89  1  0  0  0
  2  3  1  0  0  0
  2 25  1  0  0  0
  2 90  1  0  0  0
  2 91  1  0  0  0
  3  4  1  0  0  0
  3 92  1  0  0  0
  3 93  1  0  0  0
  4  5  1  0  0  0
  4 94  1  0  0  0
  4 95  1  0  0  0
  5  6  1  0  0  0
  5 26  1  0  0  0
  5 96  1  0  0  0
  6 25  1  0  0  0
  6 97  1  0  0  0
  6 98  1  0  0  0
  7  8  2  0  0  0
  7 26  1  0  0  0
  7 29  1  0  0  0
  8  9  1  0  0  0
  8 22  1  0  0  0
  9 10  1  0  0  0
  9 27  2  0  0  0
 10 11  2  0  0  0
 10 15  1  0  0  0
 11 12  1  0  0  0
 11 99  1  0  0  0
 12 13  2  0  0  0
 12100  1  0  0  0
 13 14  1  0  0  0
 13 31  1  0  0  0
 14 15  2  0  0  0
 14101  1  0  0  0
 15102  1  0  0  0
 16 17  2  0  0  0
 16 21  1  0  0  0
 16 31  1  0  0  0
 17 18  1  0  0  0
 17103  1  0  0  0
 18 19  2  0  0  0
 18104  1  0  0  0
 19 20  1  0  0  0
 19 24  1  0  0  0
 20 21  2  0  0  0
 20105  1  0  0  0
 21 23  1  0  0  0
 22 28  1  0  0  0
 22 32  2  0  0  0
 26 27  1  0  0  0
 28106  1  0  0  0
 28107  1  0  0  0
 29108  1  0  0  0
 29109  1  0  0  0
 33 34  1  0  0  0
 33 66  1  0  0  0
 33 70  2  0  0  0
 34 36  1  0  0  0
 34 59  1  0  0  0
 34110  1  0  0  0
 35 44  2  0  0  0
 35 45  1  0  0  0
 35 68  1  0  0  0
 36 56  1  0  0  0
 36111  1  0  0  0
 37 39  1  0  0  0
 37 47  1  0  0  0
 37 66  1  0  0  0
 37112  1  0  0  0
 38 43  2  0  0  0
 38 46  1  0  0  0
 38 47  1  0  0  0
 39 64  1  0  0  0
 39 67  2  0  0  0
 40 52  1  0  0  0
 40 53  2  0  0  0
 40 58  1  0  0  0
 41113  1  0  0  0
 41114  1  0  0  0
 41115  1  0  0  0
 41 48  1  0  0  0
 42 43  1  0  0  0
 42 66  1  0  0  0
 42116  1  0  0  0
 42117  1  0  0  0
 43 44  1  0  0  0
 44118  1  0  0  0
 45 46  2  0  0  0
 45119  1  0  0  0
 46120  1  0  0  0
 47121  1  0  0  0
 47122  1  0  0  0
 48 56  1  0  0  0
 48 65  1  0  0  0
 48123  1  0  0  0
 49 50  1  0  0  0
 49 53  1  0  0  0
 49 64  1  0  0  0
 49124  1  0  0  0
 50 51  1  0  0  0
 50125  1  0  0  0
 50126  1  0  0  0
 51 52  1  0  0  0
 51127  1  0  0  0
 51128  1  0  0  0
 52129  1  0  0  0
 52130  1  0  0  0
 53 54  1  0  0  0
 54 55  2  0  0  0
 54131  1  0  0  0
 55 57  1  0  0  0
 55132  1  0  0  0
 56 69  2  0  0  0
 57 58  2  0  0  0
 57133  1  0  0  0
 58134  1  0  0  0
 59 60  1  0  0  0
 59 61  1  0  0  0
 59 62  1  0  0  0
 60135  1  0  0  0
 60136  1  0  0  0
 60137  1  0  0  0
 61138  1  0  0  0
 61139  1  0  0  0
 61140  1  0  0  0
 62141  1  0  0  0
 62142  1  0  0  0
 62143  1  0  0  0
 63 65  1  0  0  0
 63144  1  0  0  0
 63145  1  0  0  0
 63146  1  0  0  0
 64147  1  0  0  0
 65148  1  0  0  0
 68 85  1  0  0  0
 71 72  1  0  0  0
 71 73  2  0  0  0
 71149  1  0  0  0
 72 74  2  0  0  0
 72 79  1  0  0  0
 73 86  1  0  0  0
 73 88  1  0  0  0
 74 75  1  0  0  0
 74 88  1  0  0  0
 75150  1  0  0  0
 75151  1  0  0  0
 75152  1  0  0  0
 76 80  1  0  0  0
 76153  1  0  0  0
 76154  1  0  0  0
 76155  1  0  0  0
 77 81  1  0  0  0
 77156  1  0  0  0
 77157  1  0  0  0
 77158  1  0  0  0
 78159  1  0  0  0
 78160  1  0  0  0
 78161  1  0  0  0
 78 87  1  0  0  0
 79 82  1  0  0  0
 79162  1  0  0  0
 79163  1  0  0  0
 80 83  1  0  0  0
 80164  1  0  0  0
 80165  1  0  0  0
 81 87  1  0  0  0
 81166  1  0  0  0
 81167  1  0  0  0
 82 85  1  0  0  0
 82168  1  0  0  0
 82169  1  0  0  0
 83170  1  0  0  0
 83171  1  0  0  0
 83 86  1  0  0  0
 84 86  1  0  0  0
 84 89  1  0  0  0
 84172  1  0  0  0
 84173  1  0  0  0
 85174  1  0  0  0
 85175  1  0  0  0
 86176  1  0  0  0
 87 88  1  0  0  0
 87177  1  0  0  0
 89178  1  0  0  0
M  ISO  4   1 100  68 101  85 101  89 100
M  END
> <chiral flag>
0

> <version>
0

> <s_m_source_file>
/data/baiqing/PycharmProjects/Reinvent-master-3.2/result/LINK_invent/BTK/process_docking_weight1_custom_sum_contain_oxygen_bond_distance_aromatic_linkinvent_7_9_3/rearranged_h_0094.sdf

> <i_m_source_file_index>
64

> <r_mmod_Potential_Energy-OPLS-2005>
298.655822753906

> <r_mmod_Stretch_Energy-OPLS-2005>
60.1261100769043

> <r_mmod_Bend_Energy-OPLS-2005>
366.633758544922

> <r_mmod_Torsional_Energy-OPLS-2005>
303.361297607422

> <r_mmod_Improper_Torsional_Energy-OPLS-2005>
7.94064617156982

> <r_mmod_Van_der_Waal_Energy-OPLS-2005>
149.020614624023

> <r_mmod_Electrostatic_Energy-OPLS-2005>
-428.908386230469

> <r_mmod_Solvation_Energy-OPLS-2005>
-195.605072021484

> <b_mmod_Minimization_Converged-OPLS-2005>
0

> <r_mmod_RMS_Derivative-OPLS-2005>
5.50956106185913

$$$$
65
                    3D
 Structure written by MMmdl.
147154  0  0  1  0            999 V2000
  -30.1519  -16.0017   20.3019 C   0  0  0  0  0  0
  -30.3939  -13.3491   19.5762 C   0  0  0  0  0  0
  -29.5718  -12.7679   18.3775 C   0  0  0  0  0  0
  -28.1744  -12.3228   18.8263 C   0  0  0  0  0  0
  -27.5875  -13.3464   19.8186 C   0  0  2  0  0  0
  -28.5691  -13.8217   20.9296 C   0  0  0  0  0  0
  -25.2256  -13.8324   20.5819 C   0  0  0  0  0  0
  -24.1673  -13.0433   20.9264 C   0  0  0  0  0  0
  -24.6433  -11.6957   20.8730 C   0  0  0  0  0  0
  -23.9144  -10.4293   21.0362 C   0  0  0  0  0  0
  -24.3676   -9.4214   21.9157 C   0  0  0  0  0  0
  -23.6320   -8.2260   22.0757 C   0  0  0  0  0  0
  -22.4299   -8.0295   21.3547 C   0  0  0  0  0  0
  -21.9944   -9.0262   20.4645 C   0  0  0  0  0  0
  -22.7297  -10.2126   20.3030 C   0  0  0  0  0  0
  -21.6873   -6.0726   22.5256 C   0  0  0  0  0  0
  -21.4047   -6.5633   23.8194 C   0  0  0  0  0  0
  -21.3686   -5.6781   24.9160 C   0  0  0  0  0  0
  -21.6043   -4.3036   24.7206 C   0  0  0  0  0  0
  -21.8814   -3.8133   23.4328 C   0  0  0  0  0  0
  -21.9193   -4.6955   22.3385 C   0  0  0  0  0  0
  -22.7677  -13.5137   21.1856 C   0  0  0  0  0  0
  -22.1643   -4.2141   21.0956 F   0  0  0  0  0  0
  -21.5644   -3.4524   25.7720 F   0  0  0  0  0  0
  -29.6913  -14.5613   20.2722 N   0  0  0  0  0  0
  -26.2750  -12.9733   20.3280 N   0  0  0  0  0  0
  -25.9405  -11.6764   20.5688 N   0  0  0  0  0  0
  -22.0343  -12.8162   22.0448 N   0  0  0  0  0  0
  -25.3789  -15.2080   20.4284 N   0  0  0  0  0  0
  -31.3823  -15.8915   20.0821 O   0  0  0  0  0  0
  -21.6655   -6.8883   21.4235 O   0  0  0  0  0  0
  -22.3359  -14.5401   20.6647 O   0  0  0  0  0  0
  -24.7073  -31.7686   23.1294 C   0  0  0  0  0  0
  -25.9531  -32.4307   23.7943 C   0  0  1  0  0  0
  -27.2386  -26.4417   20.2385 C   0  0  0  0  0  0
  -25.6019  -33.8153   24.1807 N   0  0  0  0  0  0
  -23.5466  -30.3588   21.4862 C   0  0  2  0  0  0
  -25.0116  -28.6483   20.1172 C   0  0  0  0  0  0
  -22.7880  -29.4141   22.4590 C   0  0  0  0  0  0
  -18.0354  -28.1443   22.8418 C   0  0  0  0  0  0
  -24.1514  -36.7110   23.2654 C   0  0  0  0  0  0
  -26.1360  -30.4144   21.4368 C   0  0  0  0  0  0
  -26.1995  -28.9515   20.7909 C   0  0  0  0  0  0
  -27.2789  -27.8810   20.8176 C   0  0  0  0  0  0
  -26.0227  -26.4187   19.4888 C   0  0  0  0  0  0
  -24.9806  -27.4131   19.4386 C   0  0  0  0  0  0
  -23.8199  -29.6358   20.1305 C   0  0  0  0  0  0
  -25.4171  -36.2820   24.0252 C   0  0  1  0  0  0
  -20.5998  -28.3820   23.1081 C   0  0  2  0  0  0
  -20.6814  -26.9454   22.5406 C   0  0  0  0  0  0
  -19.5801  -26.6361   21.5217 C   0  0  0  0  0  0
  -18.1978  -26.7951   22.1603 C   0  0  0  0  0  0
  -19.1619  -28.8960   23.2717 C   0  0  0  0  0  0
  -18.9524  -30.1528   23.8795 C   0  0  0  0  0  0
  -17.6511  -30.6611   24.0551 C   0  0  0  0  0  0
  -25.9162  -34.9205   23.4895 C   0  0  0  0  0  0
  -16.5404  -29.9099   23.6345 C   0  0  0  0  0  0
  -16.7325  -28.6525   23.0347 C   0  0  0  0  0  0
  -26.4647  -31.6420   25.0651 C   0  0  0  0  0  0
  -25.3652  -31.3816   26.1221 C   0  0  0  0  0  0
  -27.0614  -30.2718   24.6732 C   0  0  0  0  0  0
  -27.6036  -32.4357   25.7491 C   0  0  0  0  0  0
  -27.5576  -37.1710   24.8449 C   0  0  0  0  0  0
  -21.4503  -29.3014   22.3369 N   0  0  0  0  0  0
  -26.4275  -37.3604   23.9407 N   0  0  0  0  0  0
  -24.8228  -30.8876   22.0701 N   0  0  0  0  0  0
  -23.4192  -28.7774   23.3045 O   0  0  0  0  0  0
  -28.1642  -25.1076   20.3781 O   0  0  0  0  0  0
  -26.5836  -34.8834   22.4537 O   0  0  0  0  0  0
  -23.6037  -32.0884   23.6078 O   0  0  0  0  0  0
  -27.5159  -20.9520   21.4760 C   0  0  0  0  0  0
  -29.2914  -19.3346   20.0058 C   0  0  0  0  0  0
  -29.9663  -21.5542   21.5331 C   0  0  0  0  0  0
  -28.2744  -23.2470   20.0034 C   0  0  0  0  0  0
  -28.7524  -21.2790   20.6186 C   0  0  2  0  0  0
  -29.3923  -17.4613   20.4017 N   0  0  0  0  0  0
  -29.7686  -22.6510   22.4125 O   0  0  0  0  0  0
  -31.3685  -13.6487   19.1892 H   0  0  0  0  0  0
  -30.6263  -12.5611   20.2948 H   0  0  0  0  0  0
  -30.1077  -11.9365   17.9153 H   0  0  0  0  0  0
  -29.4740  -13.5381   17.6103 H   0  0  0  0  0  0
  -28.2708  -11.3540   19.3188 H   0  0  0  0  0  0
  -27.5170  -12.1758   17.9681 H   0  0  0  0  0  0
  -27.4100  -14.2246   19.1963 H   0  0  0  0  0  0
  -28.9013  -12.9941   21.5595 H   0  0  0  0  0  0
  -28.0601  -14.5142   21.6009 H   0  0  0  0  0  0
  -25.2823   -9.5691   22.4717 H   0  0  0  0  0  0
  -24.0013   -7.4685   22.7518 H   0  0  0  0  0  0
  -21.0850   -8.8780   19.8977 H   0  0  0  0  0  0
  -22.3745  -10.9643   19.6119 H   0  0  0  0  0  0
  -21.2054   -7.6147   23.9697 H   0  0  0  0  0  0
  -21.1523   -6.0515   25.9065 H   0  0  0  0  0  0
  -22.0573   -2.7596   23.2811 H   0  0  0  0  0  0
  -22.4003  -11.9897   22.4912 H   0  0  0  0  0  0
  -21.0943  -13.1172   22.2587 H   0  0  0  0  0  0
  -24.6046  -15.8524   20.5487 H   0  0  0  0  0  0
  -26.2234  -15.6561   20.0995 H   0  0  0  0  0  0
  -26.7625  -32.4720   23.0647 H   0  0  0  0  0  0
  -25.0035  -33.9142   24.9878 H   0  0  0  0  0  0
  -22.8867  -31.2029   21.2748 H   0  0  0  0  0  0
  -23.3797  -35.9411   23.3214 H   0  0  0  0  0  0
  -24.3573  -36.8898   22.2090 H   0  0  0  0  0  0
  -23.7247  -37.6241   23.6819 H   0  0  0  0  0  0
  -26.3655  -31.1204   20.6386 H   0  0  0  0  0  0
  -26.9776  -30.4948   22.1125 H   0  0  0  0  0  0
  -28.1608  -28.1221   21.3941 H   0  0  0  0  0  0
  -25.8173  -25.4998   18.9576 H   0  0  0  0  0  0
  -24.0958  -27.1732   18.8652 H   0  0  0  0  0  0
  -24.0241  -30.3906   19.3683 H   0  0  0  0  0  0
  -22.9201  -29.1206   19.7900 H   0  0  0  0  0  0
  -25.1393  -36.1557   25.0735 H   0  0  0  0  0  0
  -21.0057  -28.3480   24.1213 H   0  0  0  0  0  0
  -20.5665  -26.2460   23.3693 H   0  0  0  0  0  0
  -21.6673  -26.7374   22.1245 H   0  0  0  0  0  0
  -19.6964  -25.6245   21.1326 H   0  0  0  0  0  0
  -19.6750  -27.3107   20.6698 H   0  0  0  0  0  0
  -17.4249  -26.6659   21.4012 H   0  0  0  0  0  0
  -18.0369  -26.0137   22.9045 H   0  0  0  0  0  0
  -19.8005  -30.7355   24.2123 H   0  0  0  0  0  0
  -17.5073  -31.6271   24.5190 H   0  0  0  0  0  0
  -15.5402  -30.2980   23.7728 H   0  0  0  0  0  0
  -15.8718  -28.0830   22.7104 H   0  0  0  0  0  0
  -24.5820  -30.7206   25.7499 H   0  0  0  0  0  0
  -24.8880  -32.3077   26.4439 H   0  0  0  0  0  0
  -25.7759  -30.9078   27.0143 H   0  0  0  0  0  0
  -26.3363  -29.6225   24.1815 H   0  0  0  0  0  0
  -27.4025  -29.7290   25.5560 H   0  0  0  0  0  0
  -27.9364  -30.3755   24.0309 H   0  0  0  0  0  0
  -27.2496  -33.3714   26.1821 H   0  0  0  0  0  0
  -28.3964  -32.6828   25.0419 H   0  0  0  0  0  0
  -28.0574  -31.8669   26.5611 H   0  0  0  0  0  0
  -28.2525  -38.0079   24.7552 H   0  0  0  0  0  0
  -28.1156  -36.2600   24.6220 H   0  0  0  0  0  0
  -27.2296  -37.1267   25.8851 H   0  0  0  0  0  0
  -20.9861  -29.8660   21.6397 H   0  0  0  0  0  0
  -26.0086  -38.2644   24.1428 H   0  0  0  0  0  0
  -27.7242  -20.1787   22.2169 H   0  0  0  0  0  0
  -26.6932  -20.6034   20.8508 H   0  0  0  0  0  0
  -27.1651  -21.8334   22.0144 H   0  0  0  0  0  0
  -30.2790  -19.4960   19.5752 H   0  0  0  0  0  0
  -28.6504  -19.2528   19.1272 H   0  0  0  0  0  0
  -30.8444  -21.7465   20.9163 H   0  0  0  0  0  0
  -30.2029  -20.6733   22.1320 H   0  0  0  0  0  0
  -27.3229  -23.0960   19.4952 H   0  0  0  0  0  0
  -28.9827  -23.3325   19.1807 H   0  0  0  0  0  0
  -28.4660  -17.2141   20.7240 H   0  0  0  0  0  0
  -30.5800  -22.7888   22.8946 H   0  0  0  0  0  0
  1 25  1  0  0  0
  1 30  2  0  0  0
  1 76  1  0  0  0
  2  3  1  0  0  0
  2 25  1  0  0  0
  2 78  1  0  0  0
  2 79  1  0  0  0
  3  4  1  0  0  0
  3 80  1  0  0  0
  3 81  1  0  0  0
  4  5  1  0  0  0
  4 82  1  0  0  0
  4 83  1  0  0  0
  5  6  1  0  0  0
  5 26  1  0  0  0
  5 84  1  0  0  0
  6 25  1  0  0  0
  6 85  1  0  0  0
  6 86  1  0  0  0
  7  8  2  0  0  0
  7 26  1  0  0  0
  7 29  1  0  0  0
  8  9  1  0  0  0
  8 22  1  0  0  0
  9 10  1  0  0  0
  9 27  2  0  0  0
 10 11  2  0  0  0
 10 15  1  0  0  0
 11 12  1  0  0  0
 11 87  1  0  0  0
 12 13  2  0  0  0
 12 88  1  0  0  0
 13 14  1  0  0  0
 13 31  1  0  0  0
 14 15  2  0  0  0
 14 89  1  0  0  0
 15 90  1  0  0  0
 16 17  2  0  0  0
 16 21  1  0  0  0
 16 31  1  0  0  0
 17 18  1  0  0  0
 17 91  1  0  0  0
 18 19  2  0  0  0
 18 92  1  0  0  0
 19 20  1  0  0  0
 19 24  1  0  0  0
 20 21  2  0  0  0
 20 93  1  0  0  0
 21 23  1  0  0  0
 22 28  1  0  0  0
 22 32  2  0  0  0
 26 27  1  0  0  0
 28 94  1  0  0  0
 28 95  1  0  0  0
 29 96  1  0  0  0
 29 97  1  0  0  0
 33 34  1  0  0  0
 33 66  1  0  0  0
 33 70  2  0  0  0
 34 36  1  0  0  0
 34 59  1  0  0  0
 34 98  1  0  0  0
 35 44  2  0  0  0
 35 45  1  0  0  0
 35 68  1  0  0  0
 36 56  1  0  0  0
 36 99  1  0  0  0
 37 39  1  0  0  0
 37 47  1  0  0  0
 37 66  1  0  0  0
 37100  1  0  0  0
 38 43  2  0  0  0
 38 46  1  0  0  0
 38 47  1  0  0  0
 39 64  1  0  0  0
 39 67  2  0  0  0
 40 52  1  0  0  0
 40 53  2  0  0  0
 40 58  1  0  0  0
 41101  1  0  0  0
 41102  1  0  0  0
 41103  1  0  0  0
 41 48  1  0  0  0
 42 43  1  0  0  0
 42 66  1  0  0  0
 42104  1  0  0  0
 42105  1  0  0  0
 43 44  1  0  0  0
 44106  1  0  0  0
 45 46  2  0  0  0
 45107  1  0  0  0
 46108  1  0  0  0
 47109  1  0  0  0
 47110  1  0  0  0
 48 56  1  0  0  0
 48 65  1  0  0  0
 48111  1  0  0  0
 49 50  1  0  0  0
 49 53  1  0  0  0
 49 64  1  0  0  0
 49112  1  0  0  0
 50 51  1  0  0  0
 50113  1  0  0  0
 50114  1  0  0  0
 51 52  1  0  0  0
 51115  1  0  0  0
 51116  1  0  0  0
 52117  1  0  0  0
 52118  1  0  0  0
 53 54  1  0  0  0
 54 55  2  0  0  0
 54119  1  0  0  0
 55 57  1  0  0  0
 55120  1  0  0  0
 56 69  2  0  0  0
 57 58  2  0  0  0
 57121  1  0  0  0
 58122  1  0  0  0
 59 60  1  0  0  0
 59 61  1  0  0  0
 59 62  1  0  0  0
 60123  1  0  0  0
 60124  1  0  0  0
 60125  1  0  0  0
 61126  1  0  0  0
 61127  1  0  0  0
 61128  1  0  0  0
 62129  1  0  0  0
 62130  1  0  0  0
 62131  1  0  0  0
 63 65  1  0  0  0
 63132  1  0  0  0
 63133  1  0  0  0
 63134  1  0  0  0
 64135  1  0  0  0
 65136  1  0  0  0
 68 74  1  0  0  0
 71137  1  0  0  0
 71138  1  0  0  0
 71139  1  0  0  0
 71 75  1  0  0  0
 72 75  1  0  0  0
 72 76  1  0  0  0
 72140  1  0  0  0
 72141  1  0  0  0
 73 75  1  0  0  0
 73 77  1  0  0  0
 73142  1  0  0  0
 73143  1  0  0  0
 74 75  1  0  0  0
 74144  1  0  0  0
 74145  1  0  0  0
 76146  1  0  0  0
 77147  1  0  0  0
M  ISO  4   1 100  68 101  74 101  76 100
M  END
> <chiral flag>
0

> <version>
0

> <s_m_source_file>
/data/baiqing/PycharmProjects/Reinvent-master-3.2/result/LINK_invent/BTK/process_docking_weight1_custom_sum_contain_oxygen_bond_distance_aromatic_linkinvent_7_9_3/rearranged_h_0094.sdf

> <i_m_source_file_index>
65

> <r_mmod_Potential_Energy-OPLS-2005>
4180.0947265625

> <r_mmod_Stretch_Energy-OPLS-2005>
1952.68469238281

> <r_mmod_Bend_Energy-OPLS-2005>
903.677429199219

> <r_mmod_Torsional_Energy-OPLS-2005>
246.984924316406

> <r_mmod_Improper_Torsional_Energy-OPLS-2005>
3.87594366073608

> <r_mmod_Van_der_Waal_Energy-OPLS-2005>
113.599479675293

> <r_mmod_Electrostatic_Energy-OPLS-2005>
-334.929534912109

> <r_mmod_Solvation_Energy-OPLS-2005>
-244.312133789062

> <b_mmod_Minimization_Converged-OPLS-2005>
0

> <r_mmod_RMS_Derivative-OPLS-2005>
3.09173321723938

$$$$
66
                    3D
 Structure written by MMmdl.
173181  0  0  1  0            999 V2000
  -30.7092  -14.4361   20.6293 C   0  0  0  0  0  0
  -30.4285  -12.3055   19.4142 C   0  0  0  0  0  0
  -29.4854  -12.5094   18.2103 C   0  0  0  0  0  0
  -28.0100  -12.3480   18.6284 C   0  0  0  0  0  0
  -27.6600  -13.1735   19.8921 C   0  0  2  0  0  0
  -28.7077  -12.9453   21.0072 C   0  0  0  0  0  0
  -25.2631  -13.8043   20.5827 C   0  0  0  0  0  0
  -24.1822  -13.0360   20.9184 C   0  0  0  0  0  0
  -24.6330  -11.6824   20.8740 C   0  0  0  0  0  0
  -23.8993  -10.4248   21.0400 C   0  0  0  0  0  0
  -24.3566   -9.4176   21.9177 C   0  0  0  0  0  0
  -23.6243   -8.2212   22.0729 C   0  0  0  0  0  0
  -22.4222   -8.0261   21.3528 C   0  0  0  0  0  0
  -21.9851   -9.0215   20.4625 C   0  0  0  0  0  0
  -22.7172  -10.2098   20.3041 C   0  0  0  0  0  0
  -21.6832   -6.0719   22.5273 C   0  0  0  0  0  0
  -21.4006   -6.5615   23.8208 C   0  0  0  0  0  0
  -21.3661   -5.6771   24.9166 C   0  0  0  0  0  0
  -21.6037   -4.3029   24.7221 C   0  0  0  0  0  0
  -21.8822   -3.8130   23.4342 C   0  0  0  0  0  0
  -21.9188   -4.6947   22.3404 C   0  0  0  0  0  0
  -22.7881  -13.5210   21.1845 C   0  0  0  0  0  0
  -22.1654   -4.2130   21.0977 F   0  0  0  0  0  0
  -21.5633   -3.4518   25.7737 F   0  0  0  0  0  0
  -30.0420  -13.2618   20.4626 N   0  0  0  0  0  0
  -26.3003  -12.9143   20.3496 N   0  0  0  0  0  0
  -25.9242  -11.6332   20.5823 N   0  0  0  0  0  0
  -22.0517  -12.8220   22.0408 N   0  0  0  0  0  0
  -25.4434  -15.1758   20.4511 N   0  0  0  0  0  0
  -31.7830  -14.6888   20.0751 O   0  0  0  0  0  0
  -21.6598   -6.8854   21.4235 O   0  0  0  0  0  0
  -22.3595  -14.5533   20.6706 O   0  0  0  0  0  0
  -24.6146  -31.8676   23.2112 C   0  0  0  0  0  0
  -25.9046  -32.4825   23.8396 C   0  0  1  0  0  0
  -27.2330  -27.4467   20.0825 C   0  0  0  0  0  0
  -25.5906  -33.8621   24.2321 N   0  0  0  0  0  0
  -23.4012  -30.4927   21.5519 C   0  0  2  0  0  0
  -24.8447  -28.9634   20.1153 C   0  0  0  0  0  0
  -22.7385  -29.4657   22.5000 C   0  0  0  0  0  0
  -18.0266  -28.1362   22.8461 C   0  0  0  0  0  0
  -24.1496  -36.7305   23.2636 C   0  0  0  0  0  0
  -25.9294  -30.8352   21.3671 C   0  0  0  0  0  0
  -26.0039  -29.4701   20.7154 C   0  0  0  0  0  0
  -27.1975  -28.7147   20.7047 C   0  0  0  0  0  0
  -26.0466  -26.9474   19.4949 C   0  0  0  0  0  0
  -24.8591  -27.6983   19.5084 C   0  0  0  0  0  0
  -23.6065  -29.8284   20.1659 C   0  0  0  0  0  0
  -25.4122  -36.3106   24.0326 C   0  0  1  0  0  0
  -20.5846  -28.3655   23.1304 C   0  0  2  0  0  0
  -20.6760  -26.9399   22.5406 C   0  0  0  0  0  0
  -19.5766  -26.6376   21.5181 C   0  0  0  0  0  0
  -18.1933  -26.7923   22.1578 C   0  0  0  0  0  0
  -19.1503  -28.8828   23.2886 C   0  0  0  0  0  0
  -18.9435  -30.1413   23.8930 C   0  0  0  0  0  0
  -17.6448  -30.6579   24.0551 C   0  0  0  0  0  0
  -25.9039  -34.9465   23.5120 C   0  0  0  0  0  0
  -16.5337  -29.9069   23.6329 C   0  0  0  0  0  0
  -16.7256  -28.6466   23.0376 C   0  0  0  0  0  0
  -26.4507  -31.6607   25.0721 C   0  0  0  0  0  0
  -25.3783  -31.3695   26.1470 C   0  0  0  0  0  0
  -27.0345  -30.3059   24.6086 C   0  0  0  0  0  0
  -27.6068  -32.4341   25.7494 C   0  0  0  0  0  0
  -27.5584  -37.1807   24.8467 C   0  0  0  0  0  0
  -21.4107  -29.3027   22.3718 N   0  0  0  0  0  0
  -26.4311  -37.3779   23.9392 N   0  0  0  0  0  0
  -24.6663  -31.0791   22.1011 N   0  0  0  0  0  0
  -23.4139  -28.8200   23.3047 O   0  0  0  0  0  0
  -28.4253  -26.7486   20.0713 O   0  0  0  0  0  0
  -26.5568  -34.8919   22.4668 O   0  0  0  0  0  0
  -23.5334  -32.1399   23.7520 O   0  0  0  0  0  0
  -27.2809  -18.9505   19.1661 C   0  0  0  0  0  0
  -28.5160  -16.9169   19.4938 C   0  0  0  0  0  0
  -27.4890  -17.6036   18.8267 C   0  0  0  0  0  0
  -28.1100  -19.5590   20.1233 C   0  0  0  0  0  0
  -29.2538  -17.5668   20.5039 C   0  0  0  0  0  0
  -24.2986  -16.3825   16.9142 C   0  0  0  0  0  0
  -28.1787  -23.5068   17.2497 C   0  0  0  0  0  0
  -26.2025  -22.9995   18.6485 C   0  0  0  0  0  0
  -26.6588  -16.9101   17.7569 C   0  0  0  0  0  0
  -27.9909  -21.0655   20.3314 C   0  0  0  0  0  0
  -30.3000  -16.8054   21.3234 C   0  0  0  0  0  0
  -25.1773  -17.3337   17.7358 C   0  0  0  0  0  0
  -28.4439  -21.8381   19.0620 C   0  0  0  0  0  0
  -28.1090  -24.3111   19.7202 C   0  0  0  0  0  0
  -28.5706  -25.6755   19.1377 C   0  0  0  0  0  0
  -27.7394  -23.1813   18.6986 C   0  0  0  0  0  0
  -29.0694  -18.8782   20.7975 N   0  0  0  0  0  0
  -30.0605  -15.3569   21.3546 N   0  0  0  0  0  0
  -31.4688  -12.4264   19.1026 H   0  0  0  0  0  0
  -30.3530  -11.2880   19.7976 H   0  0  0  0  0  0
  -29.7285  -11.7980   17.4200 H   0  0  0  0  0  0
  -29.6416  -13.5053   17.7895 H   0  0  0  0  0  0
  -27.8287  -11.2898   18.8197 H   0  0  0  0  0  0
  -27.3527  -12.6245   17.8034 H   0  0  0  0  0  0
  -27.6906  -14.2134   19.6003 H   0  0  0  0  0  0
  -28.6938  -11.9030   21.3279 H   0  0  0  0  0  0
  -28.4578  -13.5176   21.9020 H   0  0  0  0  0  0
  -25.2707   -9.5650   22.4754 H   0  0  0  0  0  0
  -23.9941   -7.4588   22.7428 H   0  0  0  0  0  0
  -21.0791   -8.8726   19.8928 H   0  0  0  0  0  0
  -22.3618  -10.9636   19.6158 H   0  0  0  0  0  0
  -21.2002   -7.6125   23.9701 H   0  0  0  0  0  0
  -21.1482   -6.0509   25.9068 H   0  0  0  0  0  0
  -22.0616   -2.7595   23.2845 H   0  0  0  0  0  0
  -22.4124  -11.9866   22.4778 H   0  0  0  0  0  0
  -21.1154  -13.1282   22.2640 H   0  0  0  0  0  0
  -24.6854  -15.8323   20.5919 H   0  0  0  0  0  0
  -26.3122  -15.6276   20.1956 H   0  0  0  0  0  0
  -26.7112  -32.5566   23.1147 H   0  0  0  0  0  0
  -25.0172  -33.9792   25.0547 H   0  0  0  0  0  0
  -22.6901  -31.3094   21.4165 H   0  0  0  0  0  0
  -23.3754  -35.9647   23.3330 H   0  0  0  0  0  0
  -24.3620  -36.8881   22.2051 H   0  0  0  0  0  0
  -23.7243  -37.6515   23.6646 H   0  0  0  0  0  0
  -26.0469  -31.6045   20.6013 H   0  0  0  0  0  0
  -26.8111  -30.8847   21.9923 H   0  0  0  0  0  0
  -28.0949  -29.1065   21.1626 H   0  0  0  0  0  0
  -26.0086  -25.9788   19.0217 H   0  0  0  0  0  0
  -23.9647  -27.2987   19.0511 H   0  0  0  0  0  0
  -23.7064  -30.5996   19.4006 H   0  0  0  0  0  0
  -22.7305  -29.2423   19.8817 H   0  0  0  0  0  0
  -25.1307  -36.1981   25.0818 H   0  0  0  0  0  0
  -20.9920  -28.3219   24.1431 H   0  0  0  0  0  0
  -20.5672  -26.2251   23.3581 H   0  0  0  0  0  0
  -21.6634  -26.7476   22.1209 H   0  0  0  0  0  0
  -19.6946  -25.6286   21.1210 H   0  0  0  0  0  0
  -19.6732  -27.3168   20.6702 H   0  0  0  0  0  0
  -17.4214  -26.6640   21.3976 H   0  0  0  0  0  0
  -18.0364  -26.0062   22.8971 H   0  0  0  0  0  0
  -19.7918  -30.7185   24.2340 H   0  0  0  0  0  0
  -17.5020  -31.6285   24.5095 H   0  0  0  0  0  0
  -15.5339  -30.2991   23.7651 H   0  0  0  0  0  0
  -15.8640  -28.0787   22.7148 H   0  0  0  0  0  0
  -24.5952  -30.7062   25.7779 H   0  0  0  0  0  0
  -24.9015  -32.2855   26.4962 H   0  0  0  0  0  0
  -25.8138  -30.8814   27.0195 H   0  0  0  0  0  0
  -26.2869  -29.6800   24.1198 H   0  0  0  0  0  0
  -27.4183  -29.7329   25.4536 H   0  0  0  0  0  0
  -27.8685  -30.4395   23.9188 H   0  0  0  0  0  0
  -27.2662  -33.3616   26.2113 H   0  0  0  0  0  0
  -28.3852  -32.6930   25.0305 H   0  0  0  0  0  0
  -28.0779  -31.8460   26.5377 H   0  0  0  0  0  0
  -28.2597  -38.0106   24.7509 H   0  0  0  0  0  0
  -28.1069  -36.2627   24.6303 H   0  0  0  0  0  0
  -27.2305  -37.1462   25.8870 H   0  0  0  0  0  0
  -20.9261  -29.8754   21.6953 H   0  0  0  0  0  0
  -26.0198  -38.2854   24.1401 H   0  0  0  0  0  0
  -26.5304  -19.5410   18.6604 H   0  0  0  0  0  0
  -28.7517  -15.9067   19.2091 H   0  0  0  0  0  0
  -23.2589  -16.7091   16.9199 H   0  0  0  0  0  0
  -24.3241  -15.3719   17.3222 H   0  0  0  0  0  0
  -24.6262  -16.3372   15.8756 H   0  0  0  0  0  0
  -27.9505  -22.6771   16.5786 H   0  0  0  0  0  0
  -29.2505  -23.6907   17.1780 H   0  0  0  0  0  0
  -27.6541  -24.3656   16.8297 H   0  0  0  0  0  0
  -25.9206  -22.1293   18.0533 H   0  0  0  0  0  0
  -25.7096  -23.8615   18.1975 H   0  0  0  0  0  0
  -25.7643  -22.8762   19.6396 H   0  0  0  0  0  0
  -26.7213  -15.8343   17.9207 H   0  0  0  0  0  0
  -27.1172  -17.0984   16.7868 H   0  0  0  0  0  0
  -28.5691  -21.3863   21.1996 H   0  0  0  0  0  0
  -26.9499  -21.2711   20.5744 H   0  0  0  0  0  0
  -30.2889  -17.1692   22.3519 H   0  0  0  0  0  0
  -31.2908  -17.0399   20.9290 H   0  0  0  0  0  0
  -24.7879  -17.3682   18.7538 H   0  0  0  0  0  0
  -25.0887  -18.3460   17.3426 H   0  0  0  0  0  0
  -28.2856  -21.1770   18.2079 H   0  0  0  0  0  0
  -29.5264  -21.9677   19.0970 H   0  0  0  0  0  0
  -27.2633  -24.4822   20.3863 H   0  0  0  0  0  0
  -28.8932  -23.9640   20.3948 H   0  0  0  0  0  0
  -28.0688  -25.9492   18.2099 H   0  0  0  0  0  0
  -29.6258  -25.6050   18.8697 H   0  0  0  0  0  0
  -29.2080  -15.0611   21.8022 H   0  0  0  0  0  0
  1 25  1  0  0  0
  1 30  2  0  0  0
  1 88  1  0  0  0
  2  3  1  0  0  0
  2 25  1  0  0  0
  2 89  1  0  0  0
  2 90  1  0  0  0
  3  4  1  0  0  0
  3 91  1  0  0  0
  3 92  1  0  0  0
  4  5  1  0  0  0
  4 93  1  0  0  0
  4 94  1  0  0  0
  5  6  1  0  0  0
  5 26  1  0  0  0
  5 95  1  0  0  0
  6 25  1  0  0  0
  6 96  1  0  0  0
  6 97  1  0  0  0
  7  8  2  0  0  0
  7 26  1  0  0  0
  7 29  1  0  0  0
  8  9  1  0  0  0
  8 22  1  0  0  0
  9 10  1  0  0  0
  9 27  2  0  0  0
 10 11  2  0  0  0
 10 15  1  0  0  0
 11 12  1  0  0  0
 11 98  1  0  0  0
 12 13  2  0  0  0
 12 99  1  0  0  0
 13 14  1  0  0  0
 13 31  1  0  0  0
 14 15  2  0  0  0
 14100  1  0  0  0
 15101  1  0  0  0
 16 17  2  0  0  0
 16 21  1  0  0  0
 16 31  1  0  0  0
 17 18  1  0  0  0
 17102  1  0  0  0
 18 19  2  0  0  0
 18103  1  0  0  0
 19 20  1  0  0  0
 19 24  1  0  0  0
 20 21  2  0  0  0
 20104  1  0  0  0
 21 23  1  0  0  0
 22 28  1  0  0  0
 22 32  2  0  0  0
 26 27  1  0  0  0
 28105  1  0  0  0
 28106  1  0  0  0
 29107  1  0  0  0
 29108  1  0  0  0
 33 34  1  0  0  0
 33 66  1  0  0  0
 33 70  2  0  0  0
 34 36  1  0  0  0
 34 59  1  0  0  0
 34109  1  0  0  0
 35 44  2  0  0  0
 35 45  1  0  0  0
 35 68  1  0  0  0
 36 56  1  0  0  0
 36110  1  0  0  0
 37 39  1  0  0  0
 37 47  1  0  0  0
 37 66  1  0  0  0
 37111  1  0  0  0
 38 43  2  0  0  0
 38 46  1  0  0  0
 38 47  1  0  0  0
 39 64  1  0  0  0
 39 67  2  0  0  0
 40 52  1  0  0  0
 40 53  2  0  0  0
 40 58  1  0  0  0
 41112  1  0  0  0
 41113  1  0  0  0
 41114  1  0  0  0
 41 48  1  0  0  0
 42 43  1  0  0  0
 42 66  1  0  0  0
 42115  1  0  0  0
 42116  1  0  0  0
 43 44  1  0  0  0
 44117  1  0  0  0
 45 46  2  0  0  0
 45118  1  0  0  0
 46119  1  0  0  0
 47120  1  0  0  0
 47121  1  0  0  0
 48 56  1  0  0  0
 48 65  1  0  0  0
 48122  1  0  0  0
 49 50  1  0  0  0
 49 53  1  0  0  0
 49 64  1  0  0  0
 49123  1  0  0  0
 50 51  1  0  0  0
 50124  1  0  0  0
 50125  1  0  0  0
 51 52  1  0  0  0
 51126  1  0  0  0
 51127  1  0  0  0
 52128  1  0  0  0
 52129  1  0  0  0
 53 54  1  0  0  0
 54 55  2  0  0  0
 54130  1  0  0  0
 55 57  1  0  0  0
 55131  1  0  0  0
 56 69  2  0  0  0
 57 58  2  0  0  0
 57132  1  0  0  0
 58133  1  0  0  0
 59 60  1  0  0  0
 59 61  1  0  0  0
 59 62  1  0  0  0
 60134  1  0  0  0
 60135  1  0  0  0
 60136  1  0  0  0
 61137  1  0  0  0
 61138  1  0  0  0
 61139  1  0  0  0
 62140  1  0  0  0
 62141  1  0  0  0
 62142  1  0  0  0
 63 65  1  0  0  0
 63143  1  0  0  0
 63144  1  0  0  0
 63145  1  0  0  0
 64146  1  0  0  0
 65147  1  0  0  0
 68 85  1  0  0  0
 71 73  2  0  0  0
 71 74  1  0  0  0
 71148  1  0  0  0
 72 73  1  0  0  0
 72 75  2  0  0  0
 72149  1  0  0  0
 73 79  1  0  0  0
 74 80  1  0  0  0
 74 87  2  0  0  0
 75 81  1  0  0  0
 75 87  1  0  0  0
 76 82  1  0  0  0
 76150  1  0  0  0
 76151  1  0  0  0
 76152  1  0  0  0
 77153  1  0  0  0
 77154  1  0  0  0
 77155  1  0  0  0
 77 86  1  0  0  0
 78 86  1  0  0  0
 78156  1  0  0  0
 78157  1  0  0  0
 78158  1  0  0  0
 79 82  1  0  0  0
 79159  1  0  0  0
 79160  1  0  0  0
 80 83  1  0  0  0
 80161  1  0  0  0
 80162  1  0  0  0
 81 88  1  0  0  0
 81163  1  0  0  0
 81164  1  0  0  0
 82165  1  0  0  0
 82166  1  0  0  0
 83 86  1  0  0  0
 83167  1  0  0  0
 83168  1  0  0  0
 84 85  1  0  0  0
 84 86  1  0  0  0
 84169  1  0  0  0
 84170  1  0  0  0
 85171  1  0  0  0
 85172  1  0  0  0
 88173  1  0  0  0
M  ISO  4   1 100  68 101  85 101  88 100
M  END
> <chiral flag>
0

> <version>
0

> <s_m_source_file>
/data/baiqing/PycharmProjects/Reinvent-master-3.2/result/LINK_invent/BTK/process_docking_weight1_custom_sum_contain_oxygen_bond_distance_aromatic_linkinvent_7_9_3/rearranged_h_0094.sdf

> <i_m_source_file_index>
66

> <r_mmod_Potential_Energy-OPLS-2005>
-295.115295410156

> <r_mmod_Stretch_Energy-OPLS-2005>
37.7387351989746

> <r_mmod_Bend_Energy-OPLS-2005>
108.410293579102

> <r_mmod_Torsional_Energy-OPLS-2005>
219.126586914062

> <r_mmod_Improper_Torsional_Energy-OPLS-2005>
3.22425413131714

> <r_mmod_Van_der_Waal_Energy-OPLS-2005>
165.571395874023

> <r_mmod_Electrostatic_Energy-OPLS-2005>
-637.65625

> <r_mmod_Solvation_Energy-OPLS-2005>
-201.368515014648

> <b_mmod_Minimization_Converged-OPLS-2005>
0

> <r_mmod_RMS_Derivative-OPLS-2005>
2.71155023574829

$$$$
67
                    3D
 Structure written by MMmdl.
164171  0  0  1  0            999 V2000
  -30.7024  -14.4679   20.6034 C   0  0  0  0  0  0
  -30.4348  -12.3193   19.4096 C   0  0  0  0  0  0
  -29.5002  -12.5191   18.1996 C   0  0  0  0  0  0
  -28.0207  -12.3730   18.6116 C   0  0  0  0  0  0
  -27.6649  -13.2045   19.8734 C   0  0  2  0  0  0
  -28.7077  -12.9706   20.9888 C   0  0  0  0  0  0
  -25.2600  -13.8159   20.5660 C   0  0  0  0  0  0
  -24.1848  -13.0437   20.9162 C   0  0  0  0  0  0
  -24.6398  -11.6904   20.8718 C   0  0  0  0  0  0
  -23.9064  -10.4295   21.0397 C   0  0  0  0  0  0
  -24.3622   -9.4213   21.9176 C   0  0  0  0  0  0
  -23.6301   -8.2251   22.0748 C   0  0  0  0  0  0
  -22.4277   -8.0293   21.3541 C   0  0  0  0  0  0
  -21.9909   -9.0264   20.4642 C   0  0  0  0  0  0
  -22.7238  -10.2139   20.3044 C   0  0  0  0  0  0
  -21.6847   -6.0753   22.5288 C   0  0  0  0  0  0
  -21.4018   -6.5644   23.8229 C   0  0  0  0  0  0
  -21.3658   -5.6788   24.9178 C   0  0  0  0  0  0
  -21.6038   -4.3053   24.7221 C   0  0  0  0  0  0
  -21.8822   -3.8156   23.4339 C   0  0  0  0  0  0
  -21.9195   -4.6980   22.3400 C   0  0  0  0  0  0
  -22.7877  -13.5247   21.1829 C   0  0  0  0  0  0
  -22.1663   -4.2173   21.0978 F   0  0  0  0  0  0
  -21.5622   -3.4531   25.7728 F   0  0  0  0  0  0
  -30.0386  -13.2908   20.4389 N   0  0  0  0  0  0
  -26.3040  -12.9325   20.3343 N   0  0  0  0  0  0
  -25.9322  -11.6487   20.5733 N   0  0  0  0  0  0
  -22.0510  -12.8249   22.0387 N   0  0  0  0  0  0
  -25.4307  -15.1887   20.4076 N   0  0  0  0  0  0
  -31.8230  -14.6875   20.1347 O   0  0  0  0  0  0
  -21.6636   -6.8894   21.4248 O   0  0  0  0  0  0
  -22.3569  -14.5558   20.6681 O   0  0  0  0  0  0
  -24.6134  -31.8690   23.2112 C   0  0  0  0  0  0
  -25.9020  -32.4835   23.8414 C   0  0  1  0  0  0
  -27.2456  -27.4449   20.0963 C   0  0  0  0  0  0
  -25.5865  -33.8628   24.2330 N   0  0  0  0  0  0
  -23.4045  -30.4929   21.5511 C   0  0  2  0  0  0
  -24.8562  -28.9623   20.1207 C   0  0  0  0  0  0
  -22.7419  -29.4657   22.4981 C   0  0  0  0  0  0
  -18.0276  -28.1398   22.8495 C   0  0  0  0  0  0
  -24.1481  -36.7327   23.2641 C   0  0  0  0  0  0
  -25.9340  -30.8376   21.3672 C   0  0  0  0  0  0
  -26.0168  -29.4718   20.7187 C   0  0  0  0  0  0
  -27.2197  -28.7251   20.7065 C   0  0  0  0  0  0
  -26.0675  -26.9543   19.5020 C   0  0  0  0  0  0
  -24.8749  -27.6988   19.5089 C   0  0  0  0  0  0
  -23.6180  -29.8273   20.1665 C   0  0  0  0  0  0
  -25.4100  -36.3114   24.0337 C   0  0  1  0  0  0
  -20.5869  -28.3680   23.1314 C   0  0  2  0  0  0
  -20.6765  -26.9415   22.5413 C   0  0  0  0  0  0
  -19.5741  -26.6408   21.5210 C   0  0  0  0  0  0
  -18.1924  -26.7945   22.1626 C   0  0  0  0  0  0
  -19.1530  -28.8855   23.2911 C   0  0  0  0  0  0
  -18.9455  -30.1462   23.8925 C   0  0  0  0  0  0
  -17.6458  -30.6598   24.0586 C   0  0  0  0  0  0
  -25.9021  -34.9481   23.5131 C   0  0  0  0  0  0
  -16.5349  -29.9101   23.6335 C   0  0  0  0  0  0
  -16.7270  -28.6523   23.0346 C   0  0  0  0  0  0
  -26.4462  -31.6610   25.0734 C   0  0  0  0  0  0
  -25.3728  -31.3733   26.1484 C   0  0  0  0  0  0
  -27.0302  -30.3047   24.6116 C   0  0  0  0  0  0
  -27.6046  -32.4335   25.7477 C   0  0  0  0  0  0
  -27.5579  -37.1817   24.8461 C   0  0  0  0  0  0
  -21.4146  -29.3040   22.3714 N   0  0  0  0  0  0
  -26.4297  -37.3790   23.9404 N   0  0  0  0  0  0
  -24.6685  -31.0801   22.1016 N   0  0  0  0  0  0
  -23.4186  -28.8182   23.3014 O   0  0  0  0  0  0
  -28.3294  -26.5980   20.0037 O   0  0  0  0  0  0
  -26.5605  -34.8931   22.4707 O   0  0  0  0  0  0
  -23.5321  -32.1438   23.7496 O   0  0  0  0  0  0
  -31.6669  -25.6199   21.3792 C   0  0  0  0  0  0
  -31.2405  -20.1359   18.7888 C   0  0  0  0  0  0
  -30.5287  -22.9014   20.6503 C   0  0  0  0  0  0
  -29.8020  -24.2311   20.2866 C   0  0  0  0  0  0
  -30.7280  -17.8161   20.5696 C   0  0  0  0  0  0
  -30.4024  -16.7686   21.6760 C   0  0  0  0  0  0
  -29.8157  -21.6181   20.1459 C   0  0  0  0  0  0
  -30.0432  -19.2061   20.7894 C   0  0  0  0  0  0
  -29.5417  -26.8165   20.7102 C   0  0  0  0  0  0
  -30.1489  -25.4600   21.1841 C   0  0  2  0  0  0
  -29.9966  -15.4244   21.2304 N   0  0  0  0  0  0
  -30.6869  -20.3967   20.1408 N   0  3  1  0  0  0
  -31.4778  -12.4356   19.1088 H   0  0  0  0  0  0
  -30.3503  -11.3049   19.8003 H   0  0  0  0  0  0
  -29.7452  -11.8065   17.4111 H   0  0  0  0  0  0
  -29.6653  -13.5106   17.7733 H   0  0  0  0  0  0
  -27.8283  -11.3159   18.7985 H   0  0  0  0  0  0
  -27.3725  -12.6558   17.7809 H   0  0  0  0  0  0
  -27.7110  -14.2550   19.5846 H   0  0  0  0  0  0
  -28.6884  -11.9276   21.3079 H   0  0  0  0  0  0
  -28.4603  -13.5456   21.8824 H   0  0  0  0  0  0
  -25.2780   -9.5698   22.4734 H   0  0  0  0  0  0
  -24.0020   -7.4639   22.7457 H   0  0  0  0  0  0
  -21.0846   -8.8789   19.8940 H   0  0  0  0  0  0
  -22.3715  -10.9678   19.6146 H   0  0  0  0  0  0
  -21.2016   -7.6155   23.9745 H   0  0  0  0  0  0
  -21.1467   -6.0508   25.9086 H   0  0  0  0  0  0
  -22.0599   -2.7623   23.2824 H   0  0  0  0  0  0
  -22.4102  -11.9921   22.4815 H   0  0  0  0  0  0
  -21.1126  -13.1283   22.2560 H   0  0  0  0  0  0
  -24.6605  -15.8408   20.5091 H   0  0  0  0  0  0
  -26.2840  -15.6315   20.0894 H   0  0  0  0  0  0
  -26.7087  -32.5573   23.1188 H   0  0  0  0  0  0
  -24.9974  -33.9795   25.0441 H   0  0  0  0  0  0
  -22.6929  -31.3091   21.4105 H   0  0  0  0  0  0
  -23.3731  -35.9670   23.3317 H   0  0  0  0  0  0
  -24.3573  -36.8936   22.2052 H   0  0  0  0  0  0
  -23.7247  -37.6542   23.6652 H   0  0  0  0  0  0
  -26.0465  -31.6015   20.5967 H   0  0  0  0  0  0
  -26.8211  -30.8938   21.9859 H   0  0  0  0  0  0
  -28.1076  -29.1437   21.1563 H   0  0  0  0  0  0
  -26.0754  -25.9824   19.0283 H   0  0  0  0  0  0
  -23.9850  -27.2985   19.0427 H   0  0  0  0  0  0
  -23.7293  -30.6028   19.4079 H   0  0  0  0  0  0
  -22.7445  -29.2456   19.8670 H   0  0  0  0  0  0
  -25.1278  -36.1985   25.0831 H   0  0  0  0  0  0
  -20.9981  -28.3252   24.1428 H   0  0  0  0  0  0
  -20.5674  -26.2285   23.3604 H   0  0  0  0  0  0
  -21.6634  -26.7460   22.1199 H   0  0  0  0  0  0
  -19.6895  -25.6326   21.1220 H   0  0  0  0  0  0
  -19.6677  -27.3235   20.6753 H   0  0  0  0  0  0
  -17.4190  -26.6706   21.4030 H   0  0  0  0  0  0
  -18.0328  -26.0095   22.9032 H   0  0  0  0  0  0
  -19.7937  -30.7283   24.2292 H   0  0  0  0  0  0
  -17.5015  -31.6277   24.5196 H   0  0  0  0  0  0
  -15.5353  -30.3015   23.7645 H   0  0  0  0  0  0
  -15.8674  -28.0864   22.7020 H   0  0  0  0  0  0
  -24.5868  -30.7119   25.7818 H   0  0  0  0  0  0
  -24.8960  -32.2903   26.4950 H   0  0  0  0  0  0
  -25.8073  -30.8874   27.0225 H   0  0  0  0  0  0
  -26.2853  -29.6801   24.1165 H   0  0  0  0  0  0
  -27.4068  -29.7284   25.4579 H   0  0  0  0  0  0
  -27.8688  -30.4368   23.9276 H   0  0  0  0  0  0
  -27.2657  -33.3608   26.2104 H   0  0  0  0  0  0
  -28.3808  -32.6943   25.0272 H   0  0  0  0  0  0
  -28.0765  -31.8438   26.5343 H   0  0  0  0  0  0
  -28.2603  -38.0109   24.7506 H   0  0  0  0  0  0
  -28.1074  -36.2645   24.6285 H   0  0  0  0  0  0
  -27.2308  -37.1467   25.8869 H   0  0  0  0  0  0
  -20.9302  -29.8786   21.6960 H   0  0  0  0  0  0
  -26.0188  -38.2873   24.1394 H   0  0  0  0  0  0
  -32.1013  -24.7649   21.8977 H   0  0  0  0  0  0
  -31.8941  -26.5060   21.9733 H   0  0  0  0  0  0
  -32.1777  -25.7240   20.4217 H   0  0  0  0  0  0
  -31.6798  -21.0433   18.3722 H   0  0  0  0  0  0
  -30.4692  -19.7904   18.0992 H   0  0  0  0  0  0
  -32.0342  -19.3900   18.8095 H   0  0  0  0  0  0
  -30.6353  -22.8256   21.7331 H   0  0  0  0  0  0
  -31.5407  -22.9463   20.2454 H   0  0  0  0  0  0
  -28.7240  -24.0689   20.3407 H   0  0  0  0  0  0
  -30.0093  -24.4699   19.2425 H   0  0  0  0  0  0
  -30.4512  -17.4302   19.5879 H   0  0  0  0  0  0
  -31.8117  -17.9358   20.5538 H   0  0  0  0  0  0
  -29.5818  -17.1377   22.2920 H   0  0  0  0  0  0
  -31.2510  -16.6726   22.3555 H   0  0  0  0  0  0
  -29.4165  -21.7864   19.1441 H   0  0  0  0  0  0
  -28.9412  -21.4532   20.7763 H   0  0  0  0  0  0
  -29.9966  -19.4233   21.8577 H   0  0  0  0  0  0
  -29.0089  -19.1268   20.4502 H   0  0  0  0  0  0
  -30.2262  -27.3244   20.0291 H   0  0  0  0  0  0
  -29.4174  -27.4649   21.5775 H   0  0  0  0  0  0
  -29.7142  -25.2548   22.1642 H   0  0  0  0  0  0
  -29.0765  -15.1306   21.5264 H   0  0  0  0  0  0
  -31.4808  -20.6192   20.7237 H   0  0  0  0  0  0
  1 25  1  0  0  0
  1 30  2  0  0  0
  1 81  1  0  0  0
  2  3  1  0  0  0
  2 25  1  0  0  0
  2 83  1  0  0  0
  2 84  1  0  0  0
  3  4  1  0  0  0
  3 85  1  0  0  0
  3 86  1  0  0  0
  4  5  1  0  0  0
  4 87  1  0  0  0
  4 88  1  0  0  0
  5  6  1  0  0  0
  5 26  1  0  0  0
  5 89  1  0  0  0
  6 25  1  0  0  0
  6 90  1  0  0  0
  6 91  1  0  0  0
  7  8  2  0  0  0
  7 26  1  0  0  0
  7 29  1  0  0  0
  8  9  1  0  0  0
  8 22  1  0  0  0
  9 10  1  0  0  0
  9 27  2  0  0  0
 10 11  2  0  0  0
 10 15  1  0  0  0
 11 12  1  0  0  0
 11 92  1  0  0  0
 12 13  2  0  0  0
 12 93  1  0  0  0
 13 14  1  0  0  0
 13 31  1  0  0  0
 14 15  2  0  0  0
 14 94  1  0  0  0
 15 95  1  0  0  0
 16 17  2  0  0  0
 16 21  1  0  0  0
 16 31  1  0  0  0
 17 18  1  0  0  0
 17 96  1  0  0  0
 18 19  2  0  0  0
 18 97  1  0  0  0
 19 20  1  0  0  0
 19 24  1  0  0  0
 20 21  2  0  0  0
 20 98  1  0  0  0
 21 23  1  0  0  0
 22 28  1  0  0  0
 22 32  2  0  0  0
 26 27  1  0  0  0
 28 99  1  0  0  0
 28100  1  0  0  0
 29101  1  0  0  0
 29102  1  0  0  0
 33 34  1  0  0  0
 33 66  1  0  0  0
 33 70  2  0  0  0
 34 36  1  0  0  0
 34 59  1  0  0  0
 34103  1  0  0  0
 35 44  2  0  0  0
 35 45  1  0  0  0
 35 68  1  0  0  0
 36 56  1  0  0  0
 36104  1  0  0  0
 37 39  1  0  0  0
 37 47  1  0  0  0
 37 66  1  0  0  0
 37105  1  0  0  0
 38 43  2  0  0  0
 38 46  1  0  0  0
 38 47  1  0  0  0
 39 64  1  0  0  0
 39 67  2  0  0  0
 40 52  1  0  0  0
 40 53  2  0  0  0
 40 58  1  0  0  0
 41106  1  0  0  0
 41107  1  0  0  0
 41108  1  0  0  0
 41 48  1  0  0  0
 42 43  1  0  0  0
 42 66  1  0  0  0
 42109  1  0  0  0
 42110  1  0  0  0
 43 44  1  0  0  0
 44111  1  0  0  0
 45 46  2  0  0  0
 45112  1  0  0  0
 46113  1  0  0  0
 47114  1  0  0  0
 47115  1  0  0  0
 48 56  1  0  0  0
 48 65  1  0  0  0
 48116  1  0  0  0
 49 50  1  0  0  0
 49 53  1  0  0  0
 49 64  1  0  0  0
 49117  1  0  0  0
 50 51  1  0  0  0
 50118  1  0  0  0
 50119  1  0  0  0
 51 52  1  0  0  0
 51120  1  0  0  0
 51121  1  0  0  0
 52122  1  0  0  0
 52123  1  0  0  0
 53 54  1  0  0  0
 54 55  2  0  0  0
 54124  1  0  0  0
 55 57  1  0  0  0
 55125  1  0  0  0
 56 69  2  0  0  0
 57 58  2  0  0  0
 57126  1  0  0  0
 58127  1  0  0  0
 59 60  1  0  0  0
 59 61  1  0  0  0
 59 62  1  0  0  0
 60128  1  0  0  0
 60129  1  0  0  0
 60130  1  0  0  0
 61131  1  0  0  0
 61132  1  0  0  0
 61133  1  0  0  0
 62134  1  0  0  0
 62135  1  0  0  0
 62136  1  0  0  0
 63 65  1  0  0  0
 63137  1  0  0  0
 63138  1  0  0  0
 63139  1  0  0  0
 64140  1  0  0  0
 65141  1  0  0  0
 68 79  1  0  0  0
 71142  1  0  0  0
 71143  1  0  0  0
 71144  1  0  0  0
 71 80  1  0  0  0
 72145  1  0  0  0
 72146  1  0  0  0
 72147  1  0  0  0
 72 82  1  0  0  0
 73 74  1  0  0  0
 73 77  1  0  0  0
 73148  1  0  0  0
 73149  1  0  0  0
 74 80  1  0  0  0
 74150  1  0  0  0
 74151  1  0  0  0
 75 76  1  0  0  0
 75 78  1  0  0  0
 75152  1  0  0  0
 75153  1  0  0  0
 76 81  1  0  0  0
 76154  1  0  0  0
 76155  1  0  0  0
 77 82  1  0  0  0
 77156  1  0  0  0
 77157  1  0  0  0
 78 82  1  0  0  0
 78158  1  0  0  0
 78159  1  0  0  0
 79 80  1  0  0  0
 79160  1  0  0  0
 79161  1  0  0  0
 80162  1  0  0  0
 81163  1  0  0  0
 82164  1  0  0  0
M  CHG  1  82   1
M  ISO  4   1 100  68 101  79 101  81 100
M  END
> <chiral flag>
0

> <version>
0

> <s_m_source_file>
/data/baiqing/PycharmProjects/Reinvent-master-3.2/result/LINK_invent/BTK/process_docking_weight1_custom_sum_contain_oxygen_bond_distance_aromatic_linkinvent_7_9_3/rearranged_h_0094.sdf

> <i_m_source_file_index>
67

> <r_mmod_Potential_Energy-OPLS-2005>
-114.280212402344

> <r_mmod_Stretch_Energy-OPLS-2005>
40.070613861084

> <r_mmod_Bend_Energy-OPLS-2005>
124.613403320312

> <r_mmod_Torsional_Energy-OPLS-2005>
237.099624633789

> <r_mmod_Improper_Torsional_Energy-OPLS-2005>
2.61633443832397

> <r_mmod_Van_der_Waal_Energy-OPLS-2005>
136.218673706055

> <r_mmod_Electrostatic_Energy-OPLS-2005>
-232.797409057617

> <r_mmod_Solvation_Energy-OPLS-2005>
-435.093688964844

> <b_mmod_Minimization_Converged-OPLS-2005>
0

> <r_mmod_RMS_Derivative-OPLS-2005>
1.77952647209167

$$$$
68
                    3D
 Structure written by MMmdl.
151159  0  0  1  0            999 V2000
  -30.6877  -14.6155   20.5233 C   0  0  0  0  0  0
  -30.4268  -12.3899   19.4542 C   0  0  0  0  0  0
  -29.5014  -12.4914   18.2246 C   0  0  0  0  0  0
  -28.0290  -12.3275   18.6445 C   0  0  0  0  0  0
  -27.6493  -13.2201   19.8563 C   0  0  2  0  0  0
  -28.6945  -13.1135   20.9892 C   0  0  0  0  0  0
  -25.2562  -13.8187   20.5696 C   0  0  0  0  0  0
  -24.1838  -13.0443   20.9199 C   0  0  0  0  0  0
  -24.6404  -11.6919   20.8749 C   0  0  0  0  0  0
  -23.9068  -10.4298   21.0413 C   0  0  0  0  0  0
  -24.3629   -9.4213   21.9181 C   0  0  0  0  0  0
  -23.6309   -8.2247   22.0748 C   0  0  0  0  0  0
  -22.4288   -8.0287   21.3544 C   0  0  0  0  0  0
  -21.9918   -9.0259   20.4646 C   0  0  0  0  0  0
  -22.7241  -10.2144   20.3059 C   0  0  0  0  0  0
  -21.6857   -6.0742   22.5283 C   0  0  0  0  0  0
  -21.4013   -6.5639   23.8217 C   0  0  0  0  0  0
  -21.3669   -5.6789   24.9174 C   0  0  0  0  0  0
  -21.6054   -4.3054   24.7219 C   0  0  0  0  0  0
  -21.8820   -3.8151   23.4337 C   0  0  0  0  0  0
  -21.9194   -4.6971   22.3400 C   0  0  0  0  0  0
  -22.7862  -13.5242   21.1853 C   0  0  0  0  0  0
  -22.1666   -4.2164   21.0976 F   0  0  0  0  0  0
  -21.5636   -3.4533   25.7728 F   0  0  0  0  0  0
  -30.0074  -13.4327   20.4122 N   0  0  0  0  0  0
  -26.2981  -12.9368   20.3309 N   0  0  0  0  0  0
  -25.9330  -11.6518   20.5759 N   0  0  0  0  0  0
  -22.0511  -12.8232   22.0418 N   0  0  0  0  0  0
  -25.4257  -15.1908   20.4126 N   0  0  0  0  0  0
  -31.8595  -14.7086   20.1534 O   0  0  0  0  0  0
  -21.6650   -6.8887   21.4247 O   0  0  0  0  0  0
  -22.3545  -14.5545   20.6704 O   0  0  0  0  0  0
  -24.6232  -31.8626   23.2068 C   0  0  0  0  0  0
  -25.9080  -32.4799   23.8384 C   0  0  1  0  0  0
  -27.2155  -27.3275   20.1086 C   0  0  0  0  0  0
  -25.5914  -33.8602   24.2317 N   0  0  0  0  0  0
  -23.4164  -30.4868   21.5517 C   0  0  2  0  0  0
  -24.8613  -28.9547   20.1073 C   0  0  0  0  0  0
  -22.7467  -29.4621   22.4975 C   0  0  0  0  0  0
  -18.0279  -28.1377   22.8484 C   0  0  0  0  0  0
  -24.1489  -36.7300   23.2633 C   0  0  0  0  0  0
  -25.9574  -30.7932   21.3799 C   0  0  0  0  0  0
  -26.0298  -29.4230   20.7210 C   0  0  0  0  0  0
  -27.2076  -28.6181   20.7210 C   0  0  0  0  0  0
  -26.0284  -26.9303   19.4448 C   0  0  0  0  0  0
  -24.8630  -27.7137   19.4591 C   0  0  0  0  0  0
  -23.6282  -29.8307   20.1637 C   0  0  0  0  0  0
  -25.4112  -36.3107   24.0341 C   0  0  1  0  0  0
  -20.5880  -28.3674   23.1307 C   0  0  2  0  0  0
  -20.6788  -26.9410   22.5411 C   0  0  0  0  0  0
  -19.5760  -26.6382   21.5220 C   0  0  0  0  0  0
  -18.1936  -26.7918   22.1628 C   0  0  0  0  0  0
  -19.1527  -28.8847   23.2887 C   0  0  0  0  0  0
  -18.9443  -30.1453   23.8902 C   0  0  0  0  0  0
  -17.6442  -30.6585   24.0557 C   0  0  0  0  0  0
  -25.9044  -34.9468   23.5132 C   0  0  0  0  0  0
  -16.5339  -29.9080   23.6321 C   0  0  0  0  0  0
  -16.7264  -28.6495   23.0347 C   0  0  0  0  0  0
  -26.4471  -31.6585   25.0728 C   0  0  0  0  0  0
  -25.3721  -31.3705   26.1464 C   0  0  0  0  0  0
  -27.0277  -30.3008   24.6144 C   0  0  0  0  0  0
  -27.6049  -32.4304   25.7477 C   0  0  0  0  0  0
  -27.5591  -37.1806   24.8467 C   0  0  0  0  0  0
  -21.4184  -29.3024   22.3710 N   0  0  0  0  0  0
  -26.4299  -37.3791   23.9417 N   0  0  0  0  0  0
  -24.6845  -31.0638   22.1024 N   0  0  0  0  0  0
  -23.4197  -28.8155   23.3042 O   0  0  0  0  0  0
  -28.3196  -26.4593   20.1824 O   0  0  0  0  0  0
  -26.5608  -34.8924   22.4695 O   0  0  0  0  0  0
  -23.5399  -32.1426   23.7398 O   0  0  0  0  0  0
  -30.6135  -19.3282   19.9189 C   0  0  0  0  0  0
  -28.9157  -19.0840   21.5302 C   0  0  0  0  0  0
  -29.9851  -18.4653   20.8466 C   0  0  0  0  0  0
  -29.1584  -21.0823   20.3573 C   0  0  0  0  0  0
  -30.6069  -17.0728   21.2477 C   0  0  0  0  0  0
  -28.5130  -22.4310   19.8904 C   0  0  0  0  0  0
  -29.0101  -23.8557   20.3885 C   0  0  0  0  0  0
  -28.0793  -25.0323   19.8733 C   0  0  0  0  0  0
  -30.2006  -20.6028   19.6765 N   0  0  0  0  0  0
  -28.5167  -20.3644   21.2837 N   0  0  0  0  0  0
  -29.9956  -15.7357   20.9078 N   0  0  0  0  0  0
  -31.4687  -12.4956   19.1471 H   0  0  0  0  0  0
  -30.3534  -11.4036   19.9152 H   0  0  0  0  0  0
  -29.7678  -11.7289   17.4917 H   0  0  0  0  0  0
  -29.6412  -13.4546   17.7313 H   0  0  0  0  0  0
  -27.8796  -11.2771   18.8979 H   0  0  0  0  0  0
  -27.3685  -12.5312   17.8009 H   0  0  0  0  0  0
  -27.6597  -14.2476   19.4930 H   0  0  0  0  0  0
  -28.7055  -12.1089   21.4130 H   0  0  0  0  0  0
  -28.4413  -13.7847   21.8112 H   0  0  0  0  0  0
  -25.2782   -9.5696   22.4734 H   0  0  0  0  0  0
  -24.0043   -7.4632   22.7447 H   0  0  0  0  0  0
  -21.0854   -8.8767   19.8934 H   0  0  0  0  0  0
  -22.3699  -10.9682   19.6167 H   0  0  0  0  0  0
  -21.1999   -7.6145   23.9729 H   0  0  0  0  0  0
  -21.1497   -6.0510   25.9081 H   0  0  0  0  0  0
  -22.0592   -2.7613   23.2827 H   0  0  0  0  0  0
  -22.4150  -11.9913   22.4825 H   0  0  0  0  0  0
  -21.1122  -13.1241   22.2619 H   0  0  0  0  0  0
  -24.6543  -15.8398   20.5215 H   0  0  0  0  0  0
  -26.2713  -15.6341   20.0759 H   0  0  0  0  0  0
  -26.7144  -32.5472   23.1131 H   0  0  0  0  0  0
  -25.0083  -33.9764   25.0477 H   0  0  0  0  0  0
  -22.7083  -31.3068   21.4160 H   0  0  0  0  0  0
  -23.3766  -35.9617   23.3288 H   0  0  0  0  0  0
  -24.3591  -36.8915   22.2048 H   0  0  0  0  0  0
  -23.7222  -37.6497   23.6647 H   0  0  0  0  0  0
  -26.0900  -31.5562   20.6114 H   0  0  0  0  0  0
  -26.8379  -30.8409   22.0087 H   0  0  0  0  0  0
  -28.0972  -28.9664   21.2273 H   0  0  0  0  0  0
  -25.9601  -25.9967   18.9081 H   0  0  0  0  0  0
  -23.9744  -27.3555   18.9575 H   0  0  0  0  0  0
  -23.7429  -30.6123   19.4119 H   0  0  0  0  0  0
  -22.7480  -29.2601   19.8616 H   0  0  0  0  0  0
  -25.1286  -36.1975   25.0836 H   0  0  0  0  0  0
  -20.9954  -28.3237   24.1436 H   0  0  0  0  0  0
  -20.5736  -26.2267   23.3592 H   0  0  0  0  0  0
  -21.6650  -26.7482   22.1175 H   0  0  0  0  0  0
  -19.6934  -25.6296   21.1247 H   0  0  0  0  0  0
  -19.6705  -27.3196   20.6756 H   0  0  0  0  0  0
  -17.4210  -26.6651   21.4032 H   0  0  0  0  0  0
  -18.0344  -26.0065   22.9030 H   0  0  0  0  0  0
  -19.7916  -30.7270   24.2278 H   0  0  0  0  0  0
  -17.4991  -31.6267   24.5148 H   0  0  0  0  0  0
  -15.5338  -30.2981   23.7645 H   0  0  0  0  0  0
  -15.8661  -28.0820   22.7061 H   0  0  0  0  0  0
  -24.5878  -30.7078   25.7792 H   0  0  0  0  0  0
  -24.8922  -32.2855   26.4943 H   0  0  0  0  0  0
  -25.8040  -30.8836   27.0215 H   0  0  0  0  0  0
  -26.2819  -29.6797   24.1161 H   0  0  0  0  0  0
  -27.3972  -29.7222   25.4621 H   0  0  0  0  0  0
  -27.8709  -30.4299   23.9354 H   0  0  0  0  0  0
  -27.2678  -33.3601   26.2076 H   0  0  0  0  0  0
  -28.3822  -32.6865   25.0266 H   0  0  0  0  0  0
  -28.0756  -31.8412   26.5360 H   0  0  0  0  0  0
  -28.2601  -38.0108   24.7527 H   0  0  0  0  0  0
  -28.1089  -36.2640   24.6274 H   0  0  0  0  0  0
  -27.2311  -37.1439   25.8868 H   0  0  0  0  0  0
  -20.9367  -29.8709   21.6890 H   0  0  0  0  0  0
  -26.0190  -38.2873   24.1410 H   0  0  0  0  0  0
  -31.4906  -19.0045   19.3779 H   0  0  0  0  0  0
  -28.3895  -18.5615   22.3154 H   0  0  0  0  0  0
  -30.6943  -17.0847   22.3355 H   0  0  0  0  0  0
  -31.6430  -17.0868   20.9029 H   0  0  0  0  0  0
  -27.4510  -22.3565   20.1264 H   0  0  0  0  0  0
  -28.5444  -22.4313   18.8004 H   0  0  0  0  0  0
  -30.0360  -24.0220   20.0611 H   0  0  0  0  0  0
  -29.0269  -23.8646   21.4783 H   0  0  0  0  0  0
  -27.0940  -24.7594   20.2517 H   0  0  0  0  0  0
  -28.0277  -24.9551   18.7864 H   0  0  0  0  0  0
  -29.0224  -15.5918   21.1320 H   0  0  0  0  0  0
  1 25  1  0  0  0
  1 30  2  0  0  0
  1 81  1  0  0  0
  2  3  1  0  0  0
  2 25  1  0  0  0
  2 82  1  0  0  0
  2 83  1  0  0  0
  3  4  1  0  0  0
  3 84  1  0  0  0
  3 85  1  0  0  0
  4  5  1  0  0  0
  4 86  1  0  0  0
  4 87  1  0  0  0
  5  6  1  0  0  0
  5 26  1  0  0  0
  5 88  1  0  0  0
  6 25  1  0  0  0
  6 89  1  0  0  0
  6 90  1  0  0  0
  7  8  2  0  0  0
  7 26  1  0  0  0
  7 29  1  0  0  0
  8  9  1  0  0  0
  8 22  1  0  0  0
  9 10  1  0  0  0
  9 27  2  0  0  0
 10 11  2  0  0  0
 10 15  1  0  0  0
 11 12  1  0  0  0
 11 91  1  0  0  0
 12 13  2  0  0  0
 12 92  1  0  0  0
 13 14  1  0  0  0
 13 31  1  0  0  0
 14 15  2  0  0  0
 14 93  1  0  0  0
 15 94  1  0  0  0
 16 17  2  0  0  0
 16 21  1  0  0  0
 16 31  1  0  0  0
 17 18  1  0  0  0
 17 95  1  0  0  0
 18 19  2  0  0  0
 18 96  1  0  0  0
 19 20  1  0  0  0
 19 24  1  0  0  0
 20 21  2  0  0  0
 20 97  1  0  0  0
 21 23  1  0  0  0
 22 28  1  0  0  0
 22 32  2  0  0  0
 26 27  1  0  0  0
 28 98  1  0  0  0
 28 99  1  0  0  0
 29100  1  0  0  0
 29101  1  0  0  0
 33 34  1  0  0  0
 33 66  1  0  0  0
 33 70  2  0  0  0
 34 36  1  0  0  0
 34 59  1  0  0  0
 34102  1  0  0  0
 35 44  2  0  0  0
 35 45  1  0  0  0
 35 68  1  0  0  0
 36 56  1  0  0  0
 36103  1  0  0  0
 37 39  1  0  0  0
 37 47  1  0  0  0
 37 66  1  0  0  0
 37104  1  0  0  0
 38 43  2  0  0  0
 38 46  1  0  0  0
 38 47  1  0  0  0
 39 64  1  0  0  0
 39 67  2  0  0  0
 40 52  1  0  0  0
 40 53  2  0  0  0
 40 58  1  0  0  0
 41105  1  0  0  0
 41106  1  0  0  0
 41107  1  0  0  0
 41 48  1  0  0  0
 42 43  1  0  0  0
 42 66  1  0  0  0
 42108  1  0  0  0
 42109  1  0  0  0
 43 44  1  0  0  0
 44110  1  0  0  0
 45 46  2  0  0  0
 45111  1  0  0  0
 46112  1  0  0  0
 47113  1  0  0  0
 47114  1  0  0  0
 48 56  1  0  0  0
 48 65  1  0  0  0
 48115  1  0  0  0
 49 50  1  0  0  0
 49 53  1  0  0  0
 49 64  1  0  0  0
 49116  1  0  0  0
 50 51  1  0  0  0
 50117  1  0  0  0
 50118  1  0  0  0
 51 52  1  0  0  0
 51119  1  0  0  0
 51120  1  0  0  0
 52121  1  0  0  0
 52122  1  0  0  0
 53 54  1  0  0  0
 54 55  2  0  0  0
 54123  1  0  0  0
 55 57  1  0  0  0
 55124  1  0  0  0
 56 69  2  0  0  0
 57 58  2  0  0  0
 57125  1  0  0  0
 58126  1  0  0  0
 59 60  1  0  0  0
 59 61  1  0  0  0
 59 62  1  0  0  0
 60127  1  0  0  0
 60128  1  0  0  0
 60129  1  0  0  0
 61130  1  0  0  0
 61131  1  0  0  0
 61132  1  0  0  0
 62133  1  0  0  0
 62134  1  0  0  0
 62135  1  0  0  0
 63 65  1  0  0  0
 63136  1  0  0  0
 63137  1  0  0  0
 63138  1  0  0  0
 64139  1  0  0  0
 65140  1  0  0  0
 68 78  1  0  0  0
 71 73  2  0  0  0
 71 79  1  0  0  0
 71141  1  0  0  0
 72 73  1  0  0  0
 72 80  2  0  0  0
 72142  1  0  0  0
 73 75  1  0  0  0
 74 76  1  0  0  0
 74 79  2  0  0  0
 74 80  1  0  0  0
 75 81  1  0  0  0
 75143  1  0  0  0
 75144  1  0  0  0
 76 77  1  0  0  0
 76145  1  0  0  0
 76146  1  0  0  0
 77 78  1  0  0  0
 77147  1  0  0  0
 77148  1  0  0  0
 78149  1  0  0  0
 78150  1  0  0  0
 81151  1  0  0  0
M  ISO  4   1 100  68 101  78 101  81 100
M  END
> <chiral flag>
0

> <version>
0

> <s_m_source_file>
/data/baiqing/PycharmProjects/Reinvent-master-3.2/result/LINK_invent/BTK/process_docking_weight1_custom_sum_contain_oxygen_bond_distance_aromatic_linkinvent_7_9_3/rearranged_h_0094.sdf

> <i_m_source_file_index>
68

> <r_mmod_Potential_Energy-OPLS-2005>
-335.02783203125

> <r_mmod_Stretch_Energy-OPLS-2005>
72.2070770263672

> <r_mmod_Bend_Energy-OPLS-2005>
148.577987670898

> <r_mmod_Torsional_Energy-OPLS-2005>
194.002319335938

> <r_mmod_Improper_Torsional_Energy-OPLS-2005>
6.10533428192139

> <r_mmod_Van_der_Waal_Energy-OPLS-2005>
159.482513427734

> <r_mmod_Electrostatic_Energy-OPLS-2005>
-727.747680664062

> <r_mmod_Solvation_Energy-OPLS-2005>
-235.962875366211

> <b_mmod_Minimization_Converged-OPLS-2005>
0

> <r_mmod_RMS_Derivative-OPLS-2005>
1.5909925699234

$$$$
69
                    3D
 Structure written by MMmdl.
181189  0  0  1  0            999 V2000
  -30.6319  -14.6924   20.4594 C   0  0  0  0  0  0
  -30.4303  -12.4177   19.4484 C   0  0  0  0  0  0
  -29.4960  -12.5093   18.2248 C   0  0  0  0  0  0
  -28.0184  -12.3687   18.6424 C   0  0  0  0  0  0
  -27.6460  -13.2335   19.8825 C   0  0  2  0  0  0
  -28.7065  -13.1026   20.9952 C   0  0  0  0  0  0
  -25.2555  -13.8207   20.5915 C   0  0  0  0  0  0
  -24.1772  -13.0411   20.9255 C   0  0  0  0  0  0
  -24.6408  -11.6924   20.8778 C   0  0  0  0  0  0
  -23.9068  -10.4300   21.0423 C   0  0  0  0  0  0
  -24.3633   -9.4213   21.9207 C   0  0  0  0  0  0
  -23.6298   -8.2263   22.0765 C   0  0  0  0  0  0
  -22.4299   -8.0281   21.3537 C   0  0  0  0  0  0
  -21.9902   -9.0263   20.4667 C   0  0  0  0  0  0
  -22.7252  -10.2140   20.3061 C   0  0  0  0  0  0
  -21.6875   -6.0733   22.5283 C   0  0  0  0  0  0
  -21.4067   -6.5628   23.8227 C   0  0  0  0  0  0
  -21.3684   -5.6796   24.9194 C   0  0  0  0  0  0
  -21.6041   -4.3041   24.7244 C   0  0  0  0  0  0
  -21.8831   -3.8136   23.4357 C   0  0  0  0  0  0
  -21.9205   -4.6962   22.3425 C   0  0  0  0  0  0
  -22.7805  -13.5163   21.1911 C   0  0  0  0  0  0
  -22.1631   -4.2151   21.0984 F   0  0  0  0  0  0
  -21.5614   -3.4522   25.7739 F   0  0  0  0  0  0
  -30.0081  -13.4642   20.4115 N   0  0  0  0  0  0
  -26.2983  -12.9403   20.3522 N   0  0  0  0  0  0
  -25.9345  -11.6532   20.5849 N   0  0  0  0  0  0
  -22.0417  -12.8153   22.0458 N   0  0  0  0  0  0
  -25.4313  -15.1936   20.4610 N   0  0  0  0  0  0
  -31.7839  -14.7927   20.0218 O   0  0  0  0  0  0
  -21.6643   -6.8882   21.4250 O   0  0  0  0  0  0
  -22.3499  -14.5463   20.6766 O   0  0  0  0  0  0
  -24.6267  -31.8573   23.1989 C   0  0  0  0  0  0
  -25.9098  -32.4769   23.8326 C   0  0  1  0  0  0
  -27.2094  -27.2845   20.1533 C   0  0  0  0  0  0
  -25.5895  -33.8575   24.2268 N   0  0  0  0  0  0
  -23.4228  -30.4747   21.5452 C   0  0  2  0  0  0
  -24.8671  -28.9148   20.1227 C   0  0  0  0  0  0
  -22.7489  -29.4593   22.4973 C   0  0  0  0  0  0
  -18.0283  -28.1413   22.8516 C   0  0  0  0  0  0
  -24.1488  -36.7284   23.2642 C   0  0  0  0  0  0
  -25.9646  -30.7795   21.3719 C   0  0  0  0  0  0
  -26.0362  -29.3984   20.7262 C   0  0  0  0  0  0
  -27.2149  -28.5937   20.7271 C   0  0  0  0  0  0
  -26.0226  -26.8497   19.5346 C   0  0  0  0  0  0
  -24.8622  -27.6469   19.5170 C   0  0  0  0  0  0
  -23.6389  -29.8017   20.1644 C   0  0  0  0  0  0
  -25.4128  -36.3093   24.0327 C   0  0  1  0  0  0
  -20.5881  -28.3718   23.1332 C   0  0  2  0  0  0
  -20.6794  -26.9426   22.5468 C   0  0  0  0  0  0
  -19.5757  -26.6419   21.5271 C   0  0  0  0  0  0
  -18.1916  -26.7964   22.1658 C   0  0  0  0  0  0
  -19.1528  -28.8884   23.2928 C   0  0  0  0  0  0
  -18.9463  -30.1499   23.8923 C   0  0  0  0  0  0
  -17.6450  -30.6622   24.0587 C   0  0  0  0  0  0
  -25.9056  -34.9452   23.5113 C   0  0  0  0  0  0
  -16.5356  -29.9119   23.6356 C   0  0  0  0  0  0
  -16.7263  -28.6551   23.0354 C   0  0  0  0  0  0
  -26.4477  -31.6585   25.0692 C   0  0  0  0  0  0
  -25.3702  -31.3687   26.1410 C   0  0  0  0  0  0
  -27.0328  -30.3011   24.6151 C   0  0  0  0  0  0
  -27.6055  -32.4322   25.7451 C   0  0  0  0  0  0
  -27.5590  -37.1797   24.8466 C   0  0  0  0  0  0
  -21.4198  -29.3026   22.3685 N   0  0  0  0  0  0
  -26.4305  -37.3798   23.9408 N   0  0  0  0  0  0
  -24.6909  -31.0536   22.0968 N   0  0  0  0  0  0
  -23.4189  -28.8158   23.3083 O   0  0  0  0  0  0
  -28.3259  -26.4399   20.1349 O   0  0  0  0  0  0
  -26.5643  -34.8929   22.4690 O   0  0  0  0  0  0
  -23.5434  -32.1379   23.7324 O   0  0  0  0  0  0
  -27.8181  -18.1077   18.5421 C   0  0  0  0  0  0
  -29.3385  -18.5825   20.7912 C   0  0  0  0  0  0
  -28.8030  -17.1669   18.9092 C   0  0  0  0  0  0
  -29.4157  -17.2677   20.1873 C   0  0  0  0  0  0
  -27.5478  -19.2476   19.3274 C   0  0  0  0  0  0
  -28.4597  -19.6453   20.3400 C   0  0  0  0  0  0
  -29.1491  -16.1099   17.8906 C   0  0  0  0  0  0
  -28.0654  -21.9530   23.4428 C   0  0  0  0  0  0
  -21.5867  -19.0470   21.2309 C   0  0  0  0  0  0
  -23.3946  -19.9266   22.6423 C   0  0  0  0  0  0
  -29.9731  -16.0315   21.0347 C   0  0  0  0  0  0
  -26.1295  -19.8103   19.2748 C   0  0  0  0  0  0
  -28.8265  -21.0412   22.4774 C   0  0  0  0  0  0
  -25.3873  -19.2809   20.5362 C   0  0  0  0  0  0
  -27.9931  -23.7388   19.9851 C   0  0  0  0  0  0
  -28.8328  -22.3691   20.2164 C   0  0  0  0  0  0
  -23.8888  -18.9045   20.4026 C   0  0  0  0  0  0
  -28.2850  -25.0999   20.7860 C   0  0  0  0  0  0
  -28.3001  -21.0793   21.0262 C   0  0  1  0  0  0
  -22.9331  -19.6658   21.2556 N   0  3  0  0  0  0
  -31.4691  -12.5233   19.1278 H   0  0  0  0  0  0
  -30.3660  -11.4260   19.8992 H   0  0  0  0  0  0
  -29.7556  -11.7526   17.4870 H   0  0  0  0  0  0
  -29.6505  -13.4567   17.7175 H   0  0  0  0  0  0
  -27.8410  -11.3181   18.8761 H   0  0  0  0  0  0
  -27.3672  -12.6051   17.8018 H   0  0  0  0  0  0
  -27.6403  -14.2778   19.5901 H   0  0  0  0  0  0
  -28.7315  -12.0789   21.3710 H   0  0  0  0  0  0
  -28.4565  -13.7256   21.8520 H   0  0  0  0  0  0
  -25.2784   -9.5717   22.4759 H   0  0  0  0  0  0
  -23.9993   -7.4658   22.7485 H   0  0  0  0  0  0
  -21.0826   -8.8810   19.8998 H   0  0  0  0  0  0
  -22.3699  -10.9670   19.6158 H   0  0  0  0  0  0
  -21.2086   -7.6138   23.9725 H   0  0  0  0  0  0
  -21.1483   -6.0535   25.9114 H   0  0  0  0  0  0
  -22.0611   -2.7591   23.2847 H   0  0  0  0  0  0
  -22.3983  -11.9778   22.4830 H   0  0  0  0  0  0
  -21.1046  -13.1245   22.2595 H   0  0  0  0  0  0
  -24.6743  -15.8394   20.6356 H   0  0  0  0  0  0
  -26.3183  -15.6494   20.2811 H   0  0  0  0  0  0
  -26.7149  -32.5431   23.1052 H   0  0  0  0  0  0
  -24.9987  -33.9745   25.0379 H   0  0  0  0  0  0
  -22.7203  -31.2964   21.3984 H   0  0  0  0  0  0
  -23.3772  -35.9593   23.3305 H   0  0  0  0  0  0
  -24.3558  -36.8933   22.2055 H   0  0  0  0  0  0
  -23.7221  -37.6474   23.6664 H   0  0  0  0  0  0
  -26.0946  -31.5368   20.5962 H   0  0  0  0  0  0
  -26.8471  -30.8423   21.9973 H   0  0  0  0  0  0
  -28.1172  -28.9540   21.2054 H   0  0  0  0  0  0
  -25.9947  -25.8712   19.0764 H   0  0  0  0  0  0
  -23.9633  -27.2673   19.0538 H   0  0  0  0  0  0
  -23.7688  -30.5752   19.4091 H   0  0  0  0  0  0
  -22.7556  -29.2365   19.8562 H   0  0  0  0  0  0
  -25.1321  -36.1942   25.0814 H   0  0  0  0  0  0
  -20.9951  -28.3312   24.1460 H   0  0  0  0  0  0
  -20.5825  -26.2263   23.3653 H   0  0  0  0  0  0
  -21.6658  -26.7535   22.1171 H   0  0  0  0  0  0
  -19.6906  -25.6333   21.1273 H   0  0  0  0  0  0
  -19.6690  -27.3269   20.6837 H   0  0  0  0  0  0
  -17.4228  -26.6735   21.4022 H   0  0  0  0  0  0
  -18.0254  -26.0112   22.9035 H   0  0  0  0  0  0
  -19.7930  -30.7337   24.2280 H   0  0  0  0  0  0
  -17.5014  -31.6268   24.5268 H   0  0  0  0  0  0
  -15.5364  -30.3040   23.7691 H   0  0  0  0  0  0
  -15.8662  -28.0898   22.7028 H   0  0  0  0  0  0
  -24.5905  -30.7012   25.7682 H   0  0  0  0  0  0
  -24.8829  -32.2832   26.4784 H   0  0  0  0  0  0
  -25.8016  -30.8860   27.0197 H   0  0  0  0  0  0
  -26.2891  -29.6740   24.1196 H   0  0  0  0  0  0
  -27.4064  -29.7267   25.4639 H   0  0  0  0  0  0
  -27.8737  -30.4296   23.9342 H   0  0  0  0  0  0
  -27.2681  -33.3658   26.1966 H   0  0  0  0  0  0
  -28.3854  -32.6847   25.0245 H   0  0  0  0  0  0
  -28.0720  -31.8479   26.5394 H   0  0  0  0  0  0
  -28.2615  -38.0097   24.7565 H   0  0  0  0  0  0
  -28.1108  -36.2630   24.6258 H   0  0  0  0  0  0
  -27.2300  -37.1421   25.8875 H   0  0  0  0  0  0
  -20.9399  -29.8631   21.6817 H   0  0  0  0  0  0
  -26.0181  -38.2877   24.1421 H   0  0  0  0  0  0
  -27.1989  -17.9010   17.6812 H   0  0  0  0  0  0
  -29.9098  -18.7198   21.6955 H   0  0  0  0  0  0
  -29.0658  -16.5457   16.8928 H   0  0  0  0  0  0
  -28.4654  -15.2705   17.9321 H   0  0  0  0  0  0
  -30.1815  -15.7808   17.9961 H   0  0  0  0  0  0
  -28.6150  -22.0800   24.3778 H   0  0  0  0  0  0
  -27.1025  -21.5049   23.6911 H   0  0  0  0  0  0
  -27.8879  -22.9398   23.0152 H   0  0  0  0  0  0
  -20.8687  -19.6504   21.7876 H   0  0  0  0  0  0
  -21.5864  -18.0443   21.6636 H   0  0  0  0  0  0
  -21.2249  -18.9658   20.2058 H   0  0  0  0  0  0
  -22.5755  -20.1903   23.3110 H   0  0  0  0  0  0
  -24.0812  -20.7732   22.6600 H   0  0  0  0  0  0
  -23.9015  -19.0604   23.0653 H   0  0  0  0  0  0
  -29.1756  -15.7563   21.7148 H   0  0  0  0  0  0
  -30.7298  -16.4592   21.6936 H   0  0  0  0  0  0
  -25.6202  -19.4559   18.3776 H   0  0  0  0  0  0
  -26.1172  -20.8996   19.2024 H   0  0  0  0  0  0
  -28.6962  -20.0432   22.8937 H   0  0  0  0  0  0
  -29.8973  -21.2424   22.4947 H   0  0  0  0  0  0
  -25.6098  -19.9068   21.3918 H   0  0  0  0  0  0
  -25.8639  -18.3357   20.8086 H   0  0  0  0  0  0
  -26.9248  -23.5248   20.0488 H   0  0  0  0  0  0
  -28.1508  -23.9890   18.9355 H   0  0  0  0  0  0
  -29.8504  -22.6107   20.5287 H   0  0  0  0  0  0
  -28.9747  -21.9821   19.2087 H   0  0  0  0  0  0
  -23.7957  -17.8540   20.6882 H   0  0  0  0  0  0
  -23.5630  -18.9514   19.3642 H   0  0  0  0  0  0
  -29.2770  -24.9932   21.2243 H   0  0  0  0  0  0
  -27.6063  -25.1523   21.6397 H   0  0  0  0  0  0
  -27.2350  -21.2546   21.1262 H   0  0  0  0  0  0
  -22.8176  -20.5723   20.8292 H   0  0  0  0  0  0
  1 25  1  0  0  0
  1 30  2  0  0  0
  1 81  1  0  0  0
  2  3  1  0  0  0
  2 25  1  0  0  0
  2 91  1  0  0  0
  2 92  1  0  0  0
  3  4  1  0  0  0
  3 93  1  0  0  0
  3 94  1  0  0  0
  4  5  1  0  0  0
  4 95  1  0  0  0
  4 96  1  0  0  0
  5  6  1  0  0  0
  5 26  1  0  0  0
  5 97  1  0  0  0
  6 25  1  0  0  0
  6 98  1  0  0  0
  6 99  1  0  0  0
  7  8  2  0  0  0
  7 26  1  0  0  0
  7 29  1  0  0  0
  8  9  1  0  0  0
  8 22  1  0  0  0
  9 10  1  0  0  0
  9 27  2  0  0  0
 10 11  2  0  0  0
 10 15  1  0  0  0
 11 12  1  0  0  0
 11100  1  0  0  0
 12 13  2  0  0  0
 12101  1  0  0  0
 13 14  1  0  0  0
 13 31  1  0  0  0
 14 15  2  0  0  0
 14102  1  0  0  0
 15103  1  0  0  0
 16 17  2  0  0  0
 16 21  1  0  0  0
 16 31  1  0  0  0
 17 18  1  0  0  0
 17104  1  0  0  0
 18 19  2  0  0  0
 18105  1  0  0  0
 19 20  1  0  0  0
 19 24  1  0  0  0
 20 21  2  0  0  0
 20106  1  0  0  0
 21 23  1  0  0  0
 22 28  1  0  0  0
 22 32  2  0  0  0
 26 27  1  0  0  0
 28107  1  0  0  0
 28108  1  0  0  0
 29109  1  0  0  0
 29110  1  0  0  0
 33 34  1  0  0  0
 33 66  1  0  0  0
 33 70  2  0  0  0
 34 36  1  0  0  0
 34 59  1  0  0  0
 34111  1  0  0  0
 35 44  2  0  0  0
 35 45  1  0  0  0
 35 68  1  0  0  0
 36 56  1  0  0  0
 36112  1  0  0  0
 37 39  1  0  0  0
 37 47  1  0  0  0
 37 66  1  0  0  0
 37113  1  0  0  0
 38 43  2  0  0  0
 38 46  1  0  0  0
 38 47  1  0  0  0
 39 64  1  0  0  0
 39 67  2  0  0  0
 40 52  1  0  0  0
 40 53  2  0  0  0
 40 58  1  0  0  0
 41114  1  0  0  0
 41115  1  0  0  0
 41116  1  0  0  0
 41 48  1  0  0  0
 42 43  1  0  0  0
 42 66  1  0  0  0
 42117  1  0  0  0
 42118  1  0  0  0
 43 44  1  0  0  0
 44119  1  0  0  0
 45 46  2  0  0  0
 45120  1  0  0  0
 46121  1  0  0  0
 47122  1  0  0  0
 47123  1  0  0  0
 48 56  1  0  0  0
 48 65  1  0  0  0
 48124  1  0  0  0
 49 50  1  0  0  0
 49 53  1  0  0  0
 49 64  1  0  0  0
 49125  1  0  0  0
 50 51  1  0  0  0
 50126  1  0  0  0
 50127  1  0  0  0
 51 52  1  0  0  0
 51128  1  0  0  0
 51129  1  0  0  0
 52130  1  0  0  0
 52131  1  0  0  0
 53 54  1  0  0  0
 54 55  2  0  0  0
 54132  1  0  0  0
 55 57  1  0  0  0
 55133  1  0  0  0
 56 69  2  0  0  0
 57 58  2  0  0  0
 57134  1  0  0  0
 58135  1  0  0  0
 59 60  1  0  0  0
 59 61  1  0  0  0
 59 62  1  0  0  0
 60136  1  0  0  0
 60137  1  0  0  0
 60138  1  0  0  0
 61139  1  0  0  0
 61140  1  0  0  0
 61141  1  0  0  0
 62142  1  0  0  0
 62143  1  0  0  0
 62144  1  0  0  0
 63 65  1  0  0  0
 63145  1  0  0  0
 63146  1  0  0  0
 63147  1  0  0  0
 64148  1  0  0  0
 65149  1  0  0  0
 68 88  1  0  0  0
 71 73  2  0  0  0
 71 75  1  0  0  0
 71150  1  0  0  0
 72 74  2  0  0  0
 72 76  1  0  0  0
 72151  1  0  0  0
 73 74  1  0  0  0
 73 77  1  0  0  0
 74 81  1  0  0  0
 75 76  2  0  0  0
 75 82  1  0  0  0
 76 89  1  0  0  0
 77152  1  0  0  0
 77153  1  0  0  0
 77154  1  0  0  0
 78 83  1  0  0  0
 78155  1  0  0  0
 78156  1  0  0  0
 78157  1  0  0  0
 79158  1  0  0  0
 79159  1  0  0  0
 79160  1  0  0  0
 79 90  1  0  0  0
 80 90  1  0  0  0
 80161  1  0  0  0
 80162  1  0  0  0
 80163  1  0  0  0
 81164  1  0  0  0
 81165  1  0  0  0
 82 84  1  0  0  0
 82166  1  0  0  0
 82167  1  0  0  0
 83168  1  0  0  0
 83169  1  0  0  0
 83 89  1  0  0  0
 84 87  1  0  0  0
 84170  1  0  0  0
 84171  1  0  0  0
 85 86  1  0  0  0
 85 88  1  0  0  0
 85172  1  0  0  0
 85173  1  0  0  0
 86 89  1  0  0  0
 86174  1  0  0  0
 86175  1  0  0  0
 87 90  1  0  0  0
 87176  1  0  0  0
 87177  1  0  0  0
 88178  1  0  0  0
 88179  1  0  0  0
 89180  1  0  0  0
 90181  1  0  0  0
M  CHG  1  90   1
M  ISO  4   1 100  68 101  81 100  88 101
M  END
> <chiral flag>
0

> <version>
0

> <s_m_source_file>
/data/baiqing/PycharmProjects/Reinvent-master-3.2/result/LINK_invent/BTK/process_docking_weight1_custom_sum_contain_oxygen_bond_distance_aromatic_linkinvent_7_9_3/rearranged_h_0094.sdf

> <i_m_source_file_index>
69

> <r_mmod_Potential_Energy-OPLS-2005>
234.775985717773

> <r_mmod_Stretch_Energy-OPLS-2005>
116.248413085938

> <r_mmod_Bend_Energy-OPLS-2005>
221.233703613281

> <r_mmod_Torsional_Energy-OPLS-2005>
329.569274902344

> <r_mmod_Improper_Torsional_Energy-OPLS-2005>
5.94320821762085

> <r_mmod_Van_der_Waal_Energy-OPLS-2005>
138.718322753906

> <r_mmod_Electrostatic_Energy-OPLS-2005>
-214.110534667969

> <r_mmod_Solvation_Energy-OPLS-2005>
-425.184356689453

> <b_mmod_Minimization_Converged-OPLS-2005>
0

> <r_mmod_RMS_Derivative-OPLS-2005>
6.21249103546143

$$$$
70
                    3D
 Structure written by MMmdl.
188197  0  0  1  0            999 V2000
  -30.7437  -14.4018   20.6762 C   0  0  0  0  0  0
  -30.4233  -12.3085   19.3968 C   0  0  0  0  0  0
  -29.4852  -12.5299   18.1942 C   0  0  0  0  0  0
  -28.0104  -12.3792   18.6127 C   0  0  0  0  0  0
  -27.6662  -13.2020   19.8810 C   0  0  2  0  0  0
  -28.7051  -12.9467   20.9948 C   0  0  0  0  0  0
  -25.2607  -13.8149   20.5694 C   0  0  0  0  0  0
  -24.1849  -13.0439   20.9173 C   0  0  0  0  0  0
  -24.6391  -11.6900   20.8734 C   0  0  0  0  0  0
  -23.9060  -10.4294   21.0411 C   0  0  0  0  0  0
  -24.3616   -9.4206   21.9189 C   0  0  0  0  0  0
  -23.6292   -8.2238   22.0752 C   0  0  0  0  0  0
  -22.4270   -8.0280   21.3548 C   0  0  0  0  0  0
  -21.9914   -9.0249   20.4639 C   0  0  0  0  0  0
  -22.7236  -10.2131   20.3050 C   0  0  0  0  0  0
  -21.6854   -6.0734   22.5276 C   0  0  0  0  0  0
  -21.4013   -6.5641   23.8212 C   0  0  0  0  0  0
  -21.3662   -5.6796   24.9179 C   0  0  0  0  0  0
  -21.6045   -4.3053   24.7229 C   0  0  0  0  0  0
  -21.8820   -3.8147   23.4346 C   0  0  0  0  0  0
  -21.9193   -4.6966   22.3399 C   0  0  0  0  0  0
  -22.7870  -13.5230   21.1837 C   0  0  0  0  0  0
  -22.1662   -4.2147   21.0974 F   0  0  0  0  0  0
  -21.5633   -3.4534   25.7747 F   0  0  0  0  0  0
  -30.0454  -13.2535   20.4581 N   0  0  0  0  0  0
  -26.3046  -12.9318   20.3388 N   0  0  0  0  0  0
  -25.9316  -11.6477   20.5765 N   0  0  0  0  0  0
  -22.0519  -12.8216   22.0396 N   0  0  0  0  0  0
  -25.4338  -15.1872   20.4118 N   0  0  0  0  0  0
  -31.7782  -14.6938   20.0662 O   0  0  0  0  0  0
  -21.6639   -6.8875   21.4236 O   0  0  0  0  0  0
  -22.3559  -14.5544   20.6693 O   0  0  0  0  0  0
  -24.6107  -31.8700   23.2113 C   0  0  0  0  0  0
  -25.9013  -32.4835   23.8408 C   0  0  1  0  0  0
  -27.2457  -27.4530   20.1027 C   0  0  0  0  0  0
  -25.5885  -33.8629   24.2344 N   0  0  0  0  0  0
  -23.3984  -30.4913   21.5523 C   0  0  2  0  0  0
  -24.8497  -28.9555   20.1247 C   0  0  0  0  0  0
  -22.7386  -29.4665   22.5015 C   0  0  0  0  0  0
  -18.0264  -28.1374   22.8517 C   0  0  0  0  0  0
  -24.1486  -36.7309   23.2636 C   0  0  0  0  0  0
  -25.9242  -30.8389   21.3652 C   0  0  0  0  0  0
  -26.0058  -29.4703   20.7250 C   0  0  0  0  0  0
  -27.2062  -28.7259   20.7221 C   0  0  0  0  0  0
  -26.0766  -26.9549   19.4947 C   0  0  0  0  0  0
  -24.8771  -27.6921   19.5100 C   0  0  0  0  0  0
  -23.6074  -29.8164   20.1705 C   0  0  0  0  0  0
  -25.4107  -36.3116   24.0338 C   0  0  1  0  0  0
  -20.5853  -28.3657   23.1352 C   0  0  2  0  0  0
  -20.6754  -26.9399   22.5440 C   0  0  0  0  0  0
  -19.5730  -26.6390   21.5232 C   0  0  0  0  0  0
  -18.1907  -26.7931   22.1632 C   0  0  0  0  0  0
  -19.1512  -28.8835   23.2930 C   0  0  0  0  0  0
  -18.9440  -30.1450   23.8928 C   0  0  0  0  0  0
  -17.6449  -30.6599   24.0567 C   0  0  0  0  0  0
  -25.9035  -34.9479   23.5141 C   0  0  0  0  0  0
  -16.5338  -29.9097   23.6336 C   0  0  0  0  0  0
  -16.7250  -28.6502   23.0373 C   0  0  0  0  0  0
  -26.4463  -31.6603   25.0714 C   0  0  0  0  0  0
  -25.3737  -31.3678   26.1460 C   0  0  0  0  0  0
  -27.0301  -30.3050   24.6067 C   0  0  0  0  0  0
  -27.6044  -32.4310   25.7479 C   0  0  0  0  0  0
  -27.5591  -37.1800   24.8455 C   0  0  0  0  0  0
  -21.4118  -29.3026   22.3753 N   0  0  0  0  0  0
  -26.4291  -37.3797   23.9416 N   0  0  0  0  0  0
  -24.6621  -31.0812   22.1015 N   0  0  0  0  0  0
  -23.4167  -28.8216   23.3057 O   0  0  0  0  0  0
  -28.3767  -26.6757   19.9777 O   0  0  0  0  0  0
  -26.5592  -34.8921   22.4699 O   0  0  0  0  0  0
  -23.5306  -32.1454   23.7506 O   0  0  0  0  0  0
  -28.3553  -20.5227   20.0248 C   0  0  0  0  0  0
  -29.1745  -19.7230   21.9346 C   0  0  0  0  0  0
  -28.3711  -20.7131   21.4339 C   0  0  0  0  0  0
  -29.0966  -19.4157   19.7050 C   0  0  0  0  0  0
  -31.9339  -20.7409   15.2966 C   0  0  0  0  0  0
  -32.2097  -19.2806   15.6846 C   0  0  0  0  0  0
  -31.5033  -21.5586   16.5220 C   0  0  0  0  0  0
  -30.9872  -18.6449   16.3678 C   0  0  0  0  0  0
  -30.2771  -20.9326   17.2067 C   0  0  0  0  0  0
  -30.5285  -19.4569   17.6011 C   0  0  0  0  0  0
  -28.0486  -18.7146   17.5281 C   0  0  0  0  0  0
  -30.6726  -26.2602   20.4556 C   0  0  0  0  0  0
  -30.6938  -15.1461   22.9921 C   0  0  0  0  0  0
  -27.5814  -21.7444   22.2126 C   0  0  0  0  0  0
  -28.3365  -23.0280   22.6149 C   0  0  0  0  0  0
  -28.5447  -24.0697   21.4930 C   0  0  0  0  0  0
  -28.8410  -25.4774   22.0687 C   0  0  0  0  0  0
  -30.4089  -17.6982   21.0797 C   0  0  0  0  0  0
  -29.5042  -16.4567   21.2486 C   0  0  0  0  0  0
  -29.3454  -18.7876   18.3561 C   0  0  2  0  0  0
  -29.2944  -26.5611   21.0613 C   0  0  2  0  0  0
  -29.6056  -18.9073   20.8971 N   0  0  0  0  0  0
  -30.2244  -15.2266   21.6090 N   0  0  0  0  0  0
  -31.4634  -12.4255   19.0883 H   0  0  0  0  0  0
  -30.3376  -11.2859   19.7659 H   0  0  0  0  0  0
  -29.7198  -11.8224   17.3974 H   0  0  0  0  0  0
  -29.6477  -13.5256   17.7777 H   0  0  0  0  0  0
  -27.8206  -11.3208   18.7943 H   0  0  0  0  0  0
  -27.3542  -12.6675   17.7906 H   0  0  0  0  0  0
  -27.7212  -14.2556   19.6062 H   0  0  0  0  0  0
  -28.6754  -11.9026   21.3099 H   0  0  0  0  0  0
  -28.4498  -13.5222   21.8848 H   0  0  0  0  0  0
  -25.2760   -9.5688   22.4764 H   0  0  0  0  0  0
  -24.0005   -7.4639   22.7480 H   0  0  0  0  0  0
  -21.0849   -8.8765   19.8948 H   0  0  0  0  0  0
  -22.3693  -10.9674   19.6161 H   0  0  0  0  0  0
  -21.2002   -7.6155   23.9714 H   0  0  0  0  0  0
  -21.1489   -6.0526   25.9082 H   0  0  0  0  0  0
  -22.0600   -2.7605   23.2847 H   0  0  0  0  0  0
  -22.4134  -11.9857   22.4754 H   0  0  0  0  0  0
  -21.1131  -13.1236   22.2605 H   0  0  0  0  0  0
  -24.6727  -15.8460   20.5326 H   0  0  0  0  0  0
  -26.2950  -15.6288   20.1174 H   0  0  0  0  0  0
  -26.7082  -32.5570   23.1181 H   0  0  0  0  0  0
  -25.0040  -33.9791   25.0496 H   0  0  0  0  0  0
  -22.6859  -31.3067   21.4113 H   0  0  0  0  0  0
  -23.3769  -35.9618   23.3260 H   0  0  0  0  0  0
  -24.3587  -36.8965   22.2056 H   0  0  0  0  0  0
  -23.7211  -37.6485   23.6686 H   0  0  0  0  0  0
  -26.0295  -31.5987   20.5895 H   0  0  0  0  0  0
  -26.8147  -30.9002   21.9787 H   0  0  0  0  0  0
  -28.0938  -29.1532   21.1649 H   0  0  0  0  0  0
  -26.0999  -25.9910   19.0059 H   0  0  0  0  0  0
  -23.9907  -27.2897   19.0390 H   0  0  0  0  0  0
  -23.7043  -30.5865   19.4043 H   0  0  0  0  0  0
  -22.7345  -29.2249   19.8858 H   0  0  0  0  0  0
  -25.1280  -36.1976   25.0829 H   0  0  0  0  0  0
  -20.9950  -28.3217   24.1470 H   0  0  0  0  0  0
  -20.5686  -26.2249   23.3606 H   0  0  0  0  0  0
  -21.6619  -26.7470   22.1215 H   0  0  0  0  0  0
  -19.6893  -25.6315   21.1222 H   0  0  0  0  0  0
  -19.6669  -27.3224   20.6781 H   0  0  0  0  0  0
  -17.4195  -26.6740   21.4007 H   0  0  0  0  0  0
  -18.0263  -26.0061   22.9002 H   0  0  0  0  0  0
  -19.7911  -30.7262   24.2306 H   0  0  0  0  0  0
  -17.4998  -31.6277   24.5164 H   0  0  0  0  0  0
  -15.5337  -30.3001   23.7639 H   0  0  0  0  0  0
  -15.8650  -28.0815   22.7091 H   0  0  0  0  0  0
  -24.5914  -30.7018   25.7796 H   0  0  0  0  0  0
  -24.8915  -32.2816   26.4935 H   0  0  0  0  0  0
  -25.8097  -30.8832   27.0205 H   0  0  0  0  0  0
  -26.2839  -29.6791   24.1145 H   0  0  0  0  0  0
  -27.4120  -29.7284   25.4508 H   0  0  0  0  0  0
  -27.8653  -30.4380   23.9181 H   0  0  0  0  0  0
  -27.2689  -33.3621   26.2058 H   0  0  0  0  0  0
  -28.3859  -32.6841   25.0305 H   0  0  0  0  0  0
  -28.0702  -31.8422   26.5391 H   0  0  0  0  0  0
  -28.2581  -38.0131   24.7579 H   0  0  0  0  0  0
  -28.1129  -36.2668   24.6205 H   0  0  0  0  0  0
  -27.2315  -37.1357   25.8857 H   0  0  0  0  0  0
  -20.9267  -29.8731   21.6971 H   0  0  0  0  0  0
  -26.0182  -38.2868   24.1454 H   0  0  0  0  0  0
  -27.8142  -21.1244   19.3082 H   0  0  0  0  0  0
  -29.4464  -19.4930   22.9574 H   0  0  0  0  0  0
  -31.1536  -20.7803   14.5348 H   0  0  0  0  0  0
  -32.8250  -21.1824   14.8484 H   0  0  0  0  0  0
  -33.0697  -19.2337   16.3538 H   0  0  0  0  0  0
  -32.4791  -18.7067   14.7968 H   0  0  0  0  0  0
  -31.2803  -22.5840   16.2236 H   0  0  0  0  0  0
  -32.3300  -21.6177   17.2314 H   0  0  0  0  0  0
  -31.2267  -17.6217   16.6615 H   0  0  0  0  0  0
  -30.1797  -18.5762   15.6390 H   0  0  0  0  0  0
  -29.4201  -21.0038   16.5371 H   0  0  0  0  0  0
  -30.0300  -21.5251   18.0875 H   0  0  0  0  0  0
  -31.3696  -19.4543   18.2969 H   0  0  0  0  0  0
  -27.2719  -18.1900   18.0845 H   0  0  0  0  0  0
  -28.1908  -18.1696   16.5964 H   0  0  0  0  0  0
  -27.6600  -19.7016   17.2816 H   0  0  0  0  0  0
  -31.4335  -26.1721   21.2319 H   0  0  0  0  0  0
  -30.9840  -27.0562   19.7786 H   0  0  0  0  0  0
  -30.6733  -25.3331   19.8829 H   0  0  0  0  0  0
  -30.0566  -15.7159   23.6693 H   0  0  0  0  0  0
  -31.7090  -15.5364   23.0763 H   0  0  0  0  0  0
  -30.7016  -14.1134   23.3445 H   0  0  0  0  0  0
  -27.2264  -21.2540   23.1207 H   0  0  0  0  0  0
  -26.6823  -22.0004   21.6508 H   0  0  0  0  0  0
  -29.2871  -22.7800   23.0897 H   0  0  0  0  0  0
  -27.7368  -23.5031   23.3923 H   0  0  0  0  0  0
  -27.6526  -24.1307   20.8690 H   0  0  0  0  0  0
  -29.3496  -23.7316   20.8401 H   0  0  0  0  0  0
  -29.6058  -25.3921   22.8426 H   0  0  0  0  0  0
  -27.9471  -25.8329   22.5828 H   0  0  0  0  0  0
  -31.0978  -17.5815   20.2428 H   0  0  0  0  0  0
  -31.0316  -17.8366   21.9640 H   0  0  0  0  0  0
  -28.9452  -16.2906   20.3264 H   0  0  0  0  0  0
  -28.7489  -16.6535   22.0100 H   0  0  0  0  0  0
  -29.6326  -17.7486   18.5151 H   0  0  0  0  0  0
  -29.3898  -27.5011   21.6018 H   0  0  0  0  0  0
  1 25  1  0  0  0
  1 30  2  0  0  0
  1 93  1  0  0  0
  2  3  1  0  0  0
  2 25  1  0  0  0
  2 94  1  0  0  0
  2 95  1  0  0  0
  3  4  1  0  0  0
  3 96  1  0  0  0
  3 97  1  0  0  0
  4  5  1  0  0  0
  4 98  1  0  0  0
  4 99  1  0  0  0
  5  6  1  0  0  0
  5 26  1  0  0  0
  5100  1  0  0  0
  6 25  1  0  0  0
  6101  1  0  0  0
  6102  1  0  0  0
  7  8  2  0  0  0
  7 26  1  0  0  0
  7 29  1  0  0  0
  8  9  1  0  0  0
  8 22  1  0  0  0
  9 10  1  0  0  0
  9 27  2  0  0  0
 10 11  2  0  0  0
 10 15  1  0  0  0
 11 12  1  0  0  0
 11103  1  0  0  0
 12 13  2  0  0  0
 12104  1  0  0  0
 13 14  1  0  0  0
 13 31  1  0  0  0
 14 15  2  0  0  0
 14105  1  0  0  0
 15106  1  0  0  0
 16 17  2  0  0  0
 16 21  1  0  0  0
 16 31  1  0  0  0
 17 18  1  0  0  0
 17107  1  0  0  0
 18 19  2  0  0  0
 18108  1  0  0  0
 19 20  1  0  0  0
 19 24  1  0  0  0
 20 21  2  0  0  0
 20109  1  0  0  0
 21 23  1  0  0  0
 22 28  1  0  0  0
 22 32  2  0  0  0
 26 27  1  0  0  0
 28110  1  0  0  0
 28111  1  0  0  0
 29112  1  0  0  0
 29113  1  0  0  0
 33 34  1  0  0  0
 33 66  1  0  0  0
 33 70  2  0  0  0
 34 36  1  0  0  0
 34 59  1  0  0  0
 34114  1  0  0  0
 35 44  2  0  0  0
 35 45  1  0  0  0
 35 68  1  0  0  0
 36 56  1  0  0  0
 36115  1  0  0  0
 37 39  1  0  0  0
 37 47  1  0  0  0
 37 66  1  0  0  0
 37116  1  0  0  0
 38 43  2  0  0  0
 38 46  1  0  0  0
 38 47  1  0  0  0
 39 64  1  0  0  0
 39 67  2  0  0  0
 40 52  1  0  0  0
 40 53  2  0  0  0
 40 58  1  0  0  0
 41117  1  0  0  0
 41118  1  0  0  0
 41119  1  0  0  0
 41 48  1  0  0  0
 42 43  1  0  0  0
 42 66  1  0  0  0
 42120  1  0  0  0
 42121  1  0  0  0
 43 44  1  0  0  0
 44122  1  0  0  0
 45 46  2  0  0  0
 45123  1  0  0  0
 46124  1  0  0  0
 47125  1  0  0  0
 47126  1  0  0  0
 48 56  1  0  0  0
 48 65  1  0  0  0
 48127  1  0  0  0
 49 50  1  0  0  0
 49 53  1  0  0  0
 49 64  1  0  0  0
 49128  1  0  0  0
 50 51  1  0  0  0
 50129  1  0  0  0
 50130  1  0  0  0
 51 52  1  0  0  0
 51131  1  0  0  0
 51132  1  0  0  0
 52133  1  0  0  0
 52134  1  0  0  0
 53 54  1  0  0  0
 54 55  2  0  0  0
 54135  1  0  0  0
 55 57  1  0  0  0
 55136  1  0  0  0
 56 69  2  0  0  0
 57 58  2  0  0  0
 57137  1  0  0  0
 58138  1  0  0  0
 59 60  1  0  0  0
 59 61  1  0  0  0
 59 62  1  0  0  0
 60139  1  0  0  0
 60140  1  0  0  0
 60141  1  0  0  0
 61142  1  0  0  0
 61143  1  0  0  0
 61144  1  0  0  0
 62145  1  0  0  0
 62146  1  0  0  0
 62147  1  0  0  0
 63 65  1  0  0  0
 63148  1  0  0  0
 63149  1  0  0  0
 63150  1  0  0  0
 64151  1  0  0  0
 65152  1  0  0  0
 68 91  1  0  0  0
 71 73  1  0  0  0
 71 74  2  0  0  0
 71153  1  0  0  0
 72 73  2  0  0  0
 72 92  1  0  0  0
 72154  1  0  0  0
 73 84  1  0  0  0
 74 90  1  0  0  0
 74 92  1  0  0  0
 75 76  1  0  0  0
 75 77  1  0  0  0
 75155  1  0  0  0
 75156  1  0  0  0
 76 78  1  0  0  0
 76157  1  0  0  0
 76158  1  0  0  0
 77 79  1  0  0  0
 77159  1  0  0  0
 77160  1  0  0  0
 78161  1  0  0  0
 78162  1  0  0  0
 78 80  1  0  0  0
 79 80  1  0  0  0
 79163  1  0  0  0
 79164  1  0  0  0
 80 90  1  0  0  0
 80165  1  0  0  0
 81166  1  0  0  0
 81167  1  0  0  0
 81168  1  0  0  0
 81 90  1  0  0  0
 82169  1  0  0  0
 82170  1  0  0  0
 82171  1  0  0  0
 82 91  1  0  0  0
 83 93  1  0  0  0
 83172  1  0  0  0
 83173  1  0  0  0
 83174  1  0  0  0
 84 85  1  0  0  0
 84175  1  0  0  0
 84176  1  0  0  0
 85 86  1  0  0  0
 85177  1  0  0  0
 85178  1  0  0  0
 86 87  1  0  0  0
 86179  1  0  0  0
 86180  1  0  0  0
 87 91  1  0  0  0
 87181  1  0  0  0
 87182  1  0  0  0
 88 89  1  0  0  0
 88 92  1  0  0  0
 88183  1  0  0  0
 88184  1  0  0  0
 89 93  1  0  0  0
 89185  1  0  0  0
 89186  1  0  0  0
 90187  1  0  0  0
 91188  1  0  0  0
M  ISO  4   1 100  68 101  91 101  93 100
M  END
> <chiral flag>
0

> <version>
0

> <s_m_source_file>
/data/baiqing/PycharmProjects/Reinvent-master-3.2/result/LINK_invent/BTK/process_docking_weight1_custom_sum_contain_oxygen_bond_distance_aromatic_linkinvent_7_9_3/rearranged_h_0094.sdf

> <i_m_source_file_index>
70

> <r_mmod_Potential_Energy-OPLS-2005>
115.931655883789

> <r_mmod_Stretch_Energy-OPLS-2005>
36.0412902832031

> <r_mmod_Bend_Energy-OPLS-2005>
114.230934143066

> <r_mmod_Torsional_Energy-OPLS-2005>
352.300201416016

> <r_mmod_Improper_Torsional_Energy-OPLS-2005>
3.00507760047913

> <r_mmod_Van_der_Waal_Energy-OPLS-2005>
113.069244384766

> <r_mmod_Electrostatic_Energy-OPLS-2005>
-333.947143554688

> <r_mmod_Solvation_Energy-OPLS-2005>
-176.003723144531

> <b_mmod_Minimization_Converged-OPLS-2005>
0

> <r_mmod_RMS_Derivative-OPLS-2005>
1.68957126140594

$$$$
71
                    3D
 Structure written by MMmdl.
160168  0  0  1  0            999 V2000
  -30.6063  -14.7618   20.5001 C   0  0  0  0  0  0
  -30.4442  -12.4794   19.4644 C   0  0  0  0  0  0
  -29.5085  -12.5307   18.2361 C   0  0  0  0  0  0
  -28.0375  -12.3334   18.6547 C   0  0  0  0  0  0
  -27.6511  -13.2095   19.8715 C   0  0  2  0  0  0
  -28.7099  -13.0913   20.9947 C   0  0  0  0  0  0
  -25.2523  -13.8110   20.5704 C   0  0  0  0  0  0
  -24.1812  -13.0390   20.9207 C   0  0  0  0  0  0
  -24.6387  -11.6871   20.8787 C   0  0  0  0  0  0
  -23.9062  -10.4256   21.0420 C   0  0  0  0  0  0
  -24.3616   -9.4168   21.9191 C   0  0  0  0  0  0
  -23.6279   -8.2218   22.0753 C   0  0  0  0  0  0
  -22.4253   -8.0275   21.3540 C   0  0  0  0  0  0
  -21.9889   -9.0251   20.4637 C   0  0  0  0  0  0
  -22.7240  -10.2119   20.3055 C   0  0  0  0  0  0
  -21.6837   -6.0738   22.5279 C   0  0  0  0  0  0
  -21.4009   -6.5644   23.8213 C   0  0  0  0  0  0
  -21.3655   -5.6791   24.9171 C   0  0  0  0  0  0
  -21.6044   -4.3060   24.7219 C   0  0  0  0  0  0
  -21.8812   -3.8150   23.4335 C   0  0  0  0  0  0
  -21.9189   -4.6968   22.3393 C   0  0  0  0  0  0
  -22.7834  -13.5200   21.1844 C   0  0  0  0  0  0
  -22.1664   -4.2154   21.0972 F   0  0  0  0  0  0
  -21.5611   -3.4549   25.7733 F   0  0  0  0  0  0
  -29.9914  -13.5222   20.4231 N   0  0  0  0  0  0
  -26.2988  -12.9302   20.3439 N   0  0  0  0  0  0
  -25.9325  -11.6457   20.5842 N   0  0  0  0  0  0
  -22.0458  -12.8229   22.0406 N   0  0  0  0  0  0
  -25.4099  -15.1833   20.4053 N   0  0  0  0  0  0
  -31.7697  -14.8291   20.0895 O   0  0  0  0  0  0
  -21.6610   -6.8878   21.4243 O   0  0  0  0  0  0
  -22.3534  -14.5507   20.6666 O   0  0  0  0  0  0
  -24.6269  -31.8577   23.1979 C   0  0  0  0  0  0
  -25.9115  -32.4775   23.8319 C   0  0  1  0  0  0
  -27.2413  -27.3167   20.1325 C   0  0  0  0  0  0
  -25.5921  -33.8567   24.2263 N   0  0  0  0  0  0
  -23.4220  -30.4753   21.5420 C   0  0  2  0  0  0
  -24.8743  -28.9215   20.1155 C   0  0  0  0  0  0
  -22.7473  -29.4601   22.4963 C   0  0  0  0  0  0
  -18.0293  -28.1373   22.8455 C   0  0  0  0  0  0
  -24.1487  -36.7287   23.2629 C   0  0  0  0  0  0
  -25.9593  -30.7897   21.3667 C   0  0  0  0  0  0
  -26.0400  -29.4132   20.7160 C   0  0  0  0  0  0
  -27.2292  -28.6239   20.7100 C   0  0  0  0  0  0
  -26.0542  -26.8696   19.5185 C   0  0  0  0  0  0
  -24.8829  -27.6542   19.5068 C   0  0  0  0  0  0
  -23.6386  -29.7995   20.1593 C   0  0  0  0  0  0
  -25.4113  -36.3081   24.0326 C   0  0  1  0  0  0
  -20.5874  -28.3691   23.1323 C   0  0  2  0  0  0
  -20.6765  -26.9389   22.5559 C   0  0  0  0  0  0
  -19.5813  -26.6342   21.5298 C   0  0  0  0  0  0
  -18.1957  -26.7934   22.1570 C   0  0  0  0  0  0
  -19.1525  -28.8851   23.2879 C   0  0  0  0  0  0
  -18.9426  -30.1444   23.8879 C   0  0  0  0  0  0
  -17.6428  -30.6566   24.0525 C   0  0  0  0  0  0
  -25.9056  -34.9450   23.5114 C   0  0  0  0  0  0
  -16.5313  -29.9062   23.6278 C   0  0  0  0  0  0
  -16.7279  -28.6479   23.0315 C   0  0  0  0  0  0
  -26.4490  -31.6588   25.0689 C   0  0  0  0  0  0
  -25.3713  -31.3762   26.1419 C   0  0  0  0  0  0
  -27.0321  -30.3001   24.6149 C   0  0  0  0  0  0
  -27.6052  -32.4316   25.7456 C   0  0  0  0  0  0
  -27.5581  -37.1800   24.8460 C   0  0  0  0  0  0
  -21.4187  -29.3015   22.3699 N   0  0  0  0  0  0
  -26.4285  -37.3780   23.9416 N   0  0  0  0  0  0
  -24.6884  -31.0580   22.0932 N   0  0  0  0  0  0
  -23.4198  -28.8187   23.3085 O   0  0  0  0  0  0
  -28.3640  -26.4775   20.1162 O   0  0  0  0  0  0
  -26.5610  -34.8920   22.4669 O   0  0  0  0  0  0
  -23.5436  -32.1372   23.7308 O   0  0  0  0  0  0
  -28.6439  -20.4601   19.3822 C   0  0  0  0  0  0
  -29.9784  -19.9866   21.0222 C   0  0  0  0  0  0
  -29.2372  -21.0653   20.5321 C   0  0  0  0  0  0
  -27.9351  -22.4021   22.2114 C   0  0  0  0  0  0
  -30.3818  -16.3418   22.4724 C   0  0  0  0  0  0
  -28.4221  -16.3069   20.9210 C   0  0  0  0  0  0
  -28.7351  -23.7810   20.1544 C   0  0  0  0  0  0
  -30.5191  -17.4755   20.1962 C   0  0  0  0  0  0
  -28.2802  -25.1761   20.8239 C   0  0  0  0  0  0
  -29.0164  -22.5177   21.1232 C   0  0  2  0  0  0
  -29.9611  -16.1802   20.9957 C   0  0  0  0  0  0
  -28.9920  -19.1790   19.1984 N   0  0  0  0  0  0
  -29.8249  -18.8381   20.2177 N   0  0  0  0  0  0
  -31.4771  -12.6174   19.1450 H   0  0  0  0  0  0
  -30.4227  -11.4929   19.9281 H   0  0  0  0  0  0
  -29.7975  -11.7718   17.5085 H   0  0  0  0  0  0
  -29.6225  -13.4947   17.7372 H   0  0  0  0  0  0
  -27.9020  -11.2814   18.9037 H   0  0  0  0  0  0
  -27.3721  -12.5365   17.8146 H   0  0  0  0  0  0
  -27.6520  -14.2263   19.4918 H   0  0  0  0  0  0
  -28.7763  -12.0544   21.3291 H   0  0  0  0  0  0
  -28.4642  -13.6432   21.8980 H   0  0  0  0  0  0
  -25.2754   -9.5644   22.4773 H   0  0  0  0  0  0
  -23.9968   -7.4595   22.7479 H   0  0  0  0  0  0
  -21.0798   -8.8792   19.8934 H   0  0  0  0  0  0
  -22.3706  -10.9680   19.6169 H   0  0  0  0  0  0
  -21.2000   -7.6144   23.9736 H   0  0  0  0  0  0
  -21.1490   -6.0502   25.9080 H   0  0  0  0  0  0
  -22.0588   -2.7613   23.2824 H   0  0  0  0  0  0
  -22.4061  -11.9923   22.4859 H   0  0  0  0  0  0
  -21.1087  -13.1304   22.2618 H   0  0  0  0  0  0
  -24.6396  -15.8326   20.5187 H   0  0  0  0  0  0
  -26.2772  -15.6366   20.1508 H   0  0  0  0  0  0
  -26.7183  -32.5457   23.1074 H   0  0  0  0  0  0
  -25.0092  -33.9699   25.0427 H   0  0  0  0  0  0
  -22.7155  -31.2939   21.3931 H   0  0  0  0  0  0
  -23.3742  -35.9625   23.3282 H   0  0  0  0  0  0
  -24.3571  -36.8902   22.2038 H   0  0  0  0  0  0
  -23.7221  -37.6483   23.6646 H   0  0  0  0  0  0
  -26.0816  -31.5508   20.5949 H   0  0  0  0  0  0
  -26.8383  -30.8444   21.9964 H   0  0  0  0  0  0
  -28.1282  -29.0039   21.1769 H   0  0  0  0  0  0
  -26.0328  -25.8929   19.0557 H   0  0  0  0  0  0
  -23.9900  -27.2628   19.0381 H   0  0  0  0  0  0
  -23.7546  -30.5675   19.3933 H   0  0  0  0  0  0
  -22.7628  -29.2210   19.8639 H   0  0  0  0  0  0
  -25.1293  -36.1935   25.0813 H   0  0  0  0  0  0
  -20.9931  -28.3308   24.1466 H   0  0  0  0  0  0
  -20.5564  -26.2346   23.3799 H   0  0  0  0  0  0
  -21.6670  -26.7363   22.1472 H   0  0  0  0  0  0
  -19.6975  -25.6238   21.1387 H   0  0  0  0  0  0
  -19.6862  -27.3122   20.6810 H   0  0  0  0  0  0
  -17.4337  -26.6727   21.3847 H   0  0  0  0  0  0
  -18.0228  -26.0048   22.8897 H   0  0  0  0  0  0
  -19.7889  -30.7246   24.2282 H   0  0  0  0  0  0
  -17.4966  -31.6249   24.5121 H   0  0  0  0  0  0
  -15.5299  -30.2927   23.7588 H   0  0  0  0  0  0
  -15.8705  -28.0775   22.7011 H   0  0  0  0  0  0
  -24.5906  -30.7085   25.7764 H   0  0  0  0  0  0
  -24.8889  -32.2948   26.4776 H   0  0  0  0  0  0
  -25.8030  -30.8996   27.0232 H   0  0  0  0  0  0
  -26.2896  -29.6751   24.1171 H   0  0  0  0  0  0
  -27.4002  -29.7268   25.4666 H   0  0  0  0  0  0
  -27.8777  -30.4264   23.9378 H   0  0  0  0  0  0
  -27.2668  -33.3629   26.2015 H   0  0  0  0  0  0
  -28.3865  -32.6848   25.0276 H   0  0  0  0  0  0
  -28.0712  -31.8440   26.5378 H   0  0  0  0  0  0
  -28.2620  -38.0083   24.7525 H   0  0  0  0  0  0
  -28.1058  -36.2620   24.6282 H   0  0  0  0  0  0
  -27.2302  -37.1453   25.8862 H   0  0  0  0  0  0
  -20.9345  -29.8731   21.6900 H   0  0  0  0  0  0
  -26.0168  -38.2853   24.1426 H   0  0  0  0  0  0
  -27.9603  -20.9145   18.6787 H   0  0  0  0  0  0
  -30.6172  -19.9456   21.8936 H   0  0  0  0  0  0
  -28.2598  -21.7215   22.9983 H   0  0  0  0  0  0
  -26.9988  -22.0166   21.8065 H   0  0  0  0  0  0
  -27.7179  -23.3537   22.6947 H   0  0  0  0  0  0
  -29.9877  -17.2580   22.9144 H   0  0  0  0  0  0
  -31.4691  -16.3857   22.5656 H   0  0  0  0  0  0
  -30.0413  -15.5026   23.0808 H   0  0  0  0  0  0
  -28.0936  -17.2316   21.3946 H   0  0  0  0  0  0
  -27.8729  -15.5366   21.4443 H   0  0  0  0  0  0
  -28.0820  -16.3630   19.8867 H   0  0  0  0  0  0
  -29.6439  -23.9596   19.5817 H   0  0  0  0  0  0
  -27.9755  -23.5109   19.4185 H   0  0  0  0  0  0
  -30.5702  -17.1898   19.1449 H   0  0  0  0  0  0
  -31.5612  -17.6416   20.4740 H   0  0  0  0  0  0
  -28.8978  -25.3173   21.7116 H   0  0  0  0  0  0
  -27.2665  -25.0545   21.2098 H   0  0  0  0  0  0
  -29.9308  -22.7923   21.6549 H   0  0  0  0  0  0
  1 25  1  0  0  0
  1 30  2  0  0  0
  1 81  1  0  0  0
  2  3  1  0  0  0
  2 25  1  0  0  0
  2 84  1  0  0  0
  2 85  1  0  0  0
  3  4  1  0  0  0
  3 86  1  0  0  0
  3 87  1  0  0  0
  4  5  1  0  0  0
  4 88  1  0  0  0
  4 89  1  0  0  0
  5  6  1  0  0  0
  5 26  1  0  0  0
  5 90  1  0  0  0
  6 25  1  0  0  0
  6 91  1  0  0  0
  6 92  1  0  0  0
  7  8  2  0  0  0
  7 26  1  0  0  0
  7 29  1  0  0  0
  8  9  1  0  0  0
  8 22  1  0  0  0
  9 10  1  0  0  0
  9 27  2  0  0  0
 10 11  2  0  0  0
 10 15  1  0  0  0
 11 12  1  0  0  0
 11 93  1  0  0  0
 12 13  2  0  0  0
 12 94  1  0  0  0
 13 14  1  0  0  0
 13 31  1  0  0  0
 14 15  2  0  0  0
 14 95  1  0  0  0
 15 96  1  0  0  0
 16 17  2  0  0  0
 16 21  1  0  0  0
 16 31  1  0  0  0
 17 18  1  0  0  0
 17 97  1  0  0  0
 18 19  2  0  0  0
 18 98  1  0  0  0
 19 20  1  0  0  0
 19 24  1  0  0  0
 20 21  2  0  0  0
 20 99  1  0  0  0
 21 23  1  0  0  0
 22 28  1  0  0  0
 22 32  2  0  0  0
 26 27  1  0  0  0
 28100  1  0  0  0
 28101  1  0  0  0
 29102  1  0  0  0
 29103  1  0  0  0
 33 34  1  0  0  0
 33 66  1  0  0  0
 33 70  2  0  0  0
 34 36  1  0  0  0
 34 59  1  0  0  0
 34104  1  0  0  0
 35 44  2  0  0  0
 35 45  1  0  0  0
 35 68  1  0  0  0
 36 56  1  0  0  0
 36105  1  0  0  0
 37 39  1  0  0  0
 37 47  1  0  0  0
 37 66  1  0  0  0
 37106  1  0  0  0
 38 43  2  0  0  0
 38 46  1  0  0  0
 38 47  1  0  0  0
 39 64  1  0  0  0
 39 67  2  0  0  0
 40 52  1  0  0  0
 40 53  2  0  0  0
 40 58  1  0  0  0
 41107  1  0  0  0
 41108  1  0  0  0
 41109  1  0  0  0
 41 48  1  0  0  0
 42 43  1  0  0  0
 42 66  1  0  0  0
 42110  1  0  0  0
 42111  1  0  0  0
 43 44  1  0  0  0
 44112  1  0  0  0
 45 46  2  0  0  0
 45113  1  0  0  0
 46114  1  0  0  0
 47115  1  0  0  0
 47116  1  0  0  0
 48 56  1  0  0  0
 48 65  1  0  0  0
 48117  1  0  0  0
 49 50  1  0  0  0
 49 53  1  0  0  0
 49 64  1  0  0  0
 49118  1  0  0  0
 50 51  1  0  0  0
 50119  1  0  0  0
 50120  1  0  0  0
 51 52  1  0  0  0
 51121  1  0  0  0
 51122  1  0  0  0
 52123  1  0  0  0
 52124  1  0  0  0
 53 54  1  0  0  0
 54 55  2  0  0  0
 54125  1  0  0  0
 55 57  1  0  0  0
 55126  1  0  0  0
 56 69  2  0  0  0
 57 58  2  0  0  0
 57127  1  0  0  0
 58128  1  0  0  0
 59 60  1  0  0  0
 59 61  1  0  0  0
 59 62  1  0  0  0
 60129  1  0  0  0
 60130  1  0  0  0
 60131  1  0  0  0
 61132  1  0  0  0
 61133  1  0  0  0
 61134  1  0  0  0
 62135  1  0  0  0
 62136  1  0  0  0
 62137  1  0  0  0
 63 65  1  0  0  0
 63138  1  0  0  0
 63139  1  0  0  0
 63140  1  0  0  0
 64141  1  0  0  0
 65142  1  0  0  0
 68 79  1  0  0  0
 71 73  1  0  0  0
 71 82  2  0  0  0
 71143  1  0  0  0
 72 73  2  0  0  0
 72 83  1  0  0  0
 72144  1  0  0  0
 73 80  1  0  0  0
 74145  1  0  0  0
 74146  1  0  0  0
 74147  1  0  0  0
 74 80  1  0  0  0
 75148  1  0  0  0
 75149  1  0  0  0
 75150  1  0  0  0
 75 81  1  0  0  0
 76 81  1  0  0  0
 76151  1  0  0  0
 76152  1  0  0  0
 76153  1  0  0  0
 77 79  1  0  0  0
 77 80  1  0  0  0
 77154  1  0  0  0
 77155  1  0  0  0
 78 81  1  0  0  0
 78 83  1  0  0  0
 78156  1  0  0  0
 78157  1  0  0  0
 79158  1  0  0  0
 79159  1  0  0  0
 80160  1  0  0  0
 82 83  1  0  0  0
M  ISO  4   1 100  68 101  79 101  81 100
M  END
> <chiral flag>
0

> <version>
0

> <s_m_source_file>
/data/baiqing/PycharmProjects/Reinvent-master-3.2/result/LINK_invent/BTK/process_docking_weight1_custom_sum_contain_oxygen_bond_distance_aromatic_linkinvent_7_9_3/rearranged_h_0094.sdf

> <i_m_source_file_index>
71

> <r_mmod_Potential_Energy-OPLS-2005>
215.918472290039

> <r_mmod_Stretch_Energy-OPLS-2005>
114.580093383789

> <r_mmod_Bend_Energy-OPLS-2005>
184.267013549805

> <r_mmod_Torsional_Energy-OPLS-2005>
228.206481933594

> <r_mmod_Improper_Torsional_Energy-OPLS-2005>
2.77475953102112

> <r_mmod_Van_der_Waal_Energy-OPLS-2005>
121.380851745605

> <r_mmod_Electrostatic_Energy-OPLS-2005>
-309.724731445312

> <r_mmod_Solvation_Energy-OPLS-2005>
-192.621170043945

> <b_mmod_Minimization_Converged-OPLS-2005>
0

> <r_mmod_RMS_Derivative-OPLS-2005>
3.51573276519775

$$$$
72
                    3D
 Structure written by MMmdl.
175183  0  0  1  0            999 V2000
  -30.6910  -14.4618   20.6053 C   0  0  0  0  0  0
  -30.4300  -12.3048   19.4349 C   0  0  0  0  0  0
  -29.5072  -12.5245   18.2186 C   0  0  0  0  0  0
  -28.0235  -12.3797   18.6138 C   0  0  0  0  0  0
  -27.6641  -13.2080   19.8786 C   0  0  2  0  0  0
  -28.7003  -12.9678   21.0027 C   0  0  0  0  0  0
  -25.2570  -13.8151   20.5670 C   0  0  0  0  0  0
  -24.1835  -13.0422   20.9145 C   0  0  0  0  0  0
  -24.6400  -11.6888   20.8726 C   0  0  0  0  0  0
  -23.9074  -10.4271   21.0365 C   0  0  0  0  0  0
  -24.3624   -9.4195   21.9155 C   0  0  0  0  0  0
  -23.6287   -8.2241   22.0732 C   0  0  0  0  0  0
  -22.4259   -8.0267   21.3531 C   0  0  0  0  0  0
  -21.9910   -9.0236   20.4634 C   0  0  0  0  0  0
  -22.7233  -10.2113   20.3027 C   0  0  0  0  0  0
  -21.6847   -6.0736   22.5278 C   0  0  0  0  0  0
  -21.4036   -6.5642   23.8218 C   0  0  0  0  0  0
  -21.3661   -5.6777   24.9174 C   0  0  0  0  0  0
  -21.6045   -4.3044   24.7219 C   0  0  0  0  0  0
  -21.8818   -3.8147   23.4340 C   0  0  0  0  0  0
  -21.9199   -4.6967   22.3405 C   0  0  0  0  0  0
  -22.7851  -13.5188   21.1797 C   0  0  0  0  0  0
  -22.1649   -4.2164   21.0972 F   0  0  0  0  0  0
  -21.5626   -3.4530   25.7733 F   0  0  0  0  0  0
  -30.0392  -13.2743   20.4681 N   0  0  0  0  0  0
  -26.3035  -12.9338   20.3370 N   0  0  0  0  0  0
  -25.9330  -11.6487   20.5754 N   0  0  0  0  0  0
  -22.0484  -12.8216   22.0374 N   0  0  0  0  0  0
  -25.4242  -15.1883   20.4060 N   0  0  0  0  0  0
  -31.7926  -14.6899   20.0987 O   0  0  0  0  0  0
  -21.6622   -6.8861   21.4222 O   0  0  0  0  0  0
  -22.3529  -14.5464   20.6571 O   0  0  0  0  0  0
  -24.6111  -31.8702   23.2108 C   0  0  0  0  0  0
  -25.9012  -32.4841   23.8411 C   0  0  1  0  0  0
  -27.2541  -27.4487   20.1134 C   0  0  0  0  0  0
  -25.5867  -33.8645   24.2335 N   0  0  0  0  0  0
  -23.4021  -30.4878   21.5510 C   0  0  2  0  0  0
  -24.8577  -28.9523   20.1240 C   0  0  0  0  0  0
  -22.7411  -29.4626   22.5019 C   0  0  0  0  0  0
  -18.0270  -28.1367   22.8501 C   0  0  0  0  0  0
  -24.1489  -36.7331   23.2639 C   0  0  0  0  0  0
  -25.9282  -30.8404   21.3672 C   0  0  0  0  0  0
  -26.0124  -29.4691   20.7290 C   0  0  0  0  0  0
  -27.2123  -28.7218   20.7303 C   0  0  0  0  0  0
  -26.0867  -26.9482   19.5027 C   0  0  0  0  0  0
  -24.8887  -27.6861   19.5130 C   0  0  0  0  0  0
  -23.6155  -29.8149   20.1687 C   0  0  0  0  0  0
  -25.4106  -36.3131   24.0339 C   0  0  1  0  0  0
  -20.5859  -28.3643   23.1338 C   0  0  2  0  0  0
  -20.6751  -26.9382   22.5427 C   0  0  0  0  0  0
  -19.5723  -26.6375   21.5235 C   0  0  0  0  0  0
  -18.1906  -26.7912   22.1643 C   0  0  0  0  0  0
  -19.1517  -28.8826   23.2913 C   0  0  0  0  0  0
  -18.9445  -30.1435   23.8909 C   0  0  0  0  0  0
  -17.6445  -30.6575   24.0572 C   0  0  0  0  0  0
  -25.9026  -34.9489   23.5141 C   0  0  0  0  0  0
  -16.5339  -29.9079   23.6332 C   0  0  0  0  0  0
  -16.7257  -28.6502   23.0349 C   0  0  0  0  0  0
  -26.4430  -31.6598   25.0718 C   0  0  0  0  0  0
  -25.3690  -31.3725   26.1473 C   0  0  0  0  0  0
  -27.0267  -30.3042   24.6095 C   0  0  0  0  0  0
  -27.6012  -32.4317   25.7476 C   0  0  0  0  0  0
  -27.5591  -37.1814   24.8455 C   0  0  0  0  0  0
  -21.4144  -29.3009   22.3756 N   0  0  0  0  0  0
  -26.4302  -37.3802   23.9400 N   0  0  0  0  0  0
  -24.6643  -31.0810   22.1013 N   0  0  0  0  0  0
  -23.4188  -28.8193   23.3077 O   0  0  0  0  0  0
  -28.4012  -26.6936   19.9944 O   0  0  0  0  0  0
  -26.5611  -34.8921   22.4710 O   0  0  0  0  0  0
  -23.5305  -32.1461   23.7490 O   0  0  0  0  0  0
  -28.6376  -20.1081   21.4307 C   0  0  0  0  0  0
  -28.8353  -19.0612   20.5691 C   0  0  0  0  0  0
  -28.9739  -19.6317   19.2641 C   0  0  0  0  0  0
  -28.8213  -20.9942   19.3806 C   0  0  0  0  0  0
  -28.8298  -22.0370   18.3031 C   0  0  0  0  0  0
  -27.1627  -19.2768   16.5049 C   0  0  0  0  0  0
  -28.1986  -16.9837   16.5647 C   0  0  0  0  0  0
  -29.4939  -24.9238   23.1752 C   0  0  0  0  0  0
  -28.7989  -17.5756   20.9101 C   0  0  0  0  0  0
  -29.2018  -18.8549   17.9824 C   0  0  0  0  0  0
  -29.0163  -23.8482   20.9136 C   0  0  0  0  0  0
  -28.2143  -22.5873   21.3333 C   0  0  0  0  0  0
  -30.1660  -16.8777   21.0914 C   0  0  0  0  0  0
  -29.1788  -26.4242   21.1604 C   0  0  0  0  0  0
  -27.9082  -18.2569   17.3806 C   0  0  0  0  0  0
  -28.7665  -25.0844   21.8255 C   0  0  2  0  0  0
  -28.5890  -21.2991   20.7214 N   0  0  0  0  0  0
  -29.9733  -15.4264   21.2068 N   0  0  0  0  0  0
  -31.4762  -12.4124   19.1438 H   0  0  0  0  0  0
  -30.3315  -11.2892   19.8225 H   0  0  0  0  0  0
  -29.7622  -11.8191   17.4272 H   0  0  0  0  0  0
  -29.6784  -13.5229   17.8107 H   0  0  0  0  0  0
  -27.8263  -11.3212   18.7950 H   0  0  0  0  0  0
  -27.3835  -12.6731   17.7798 H   0  0  0  0  0  0
  -27.7064  -14.2619   19.5970 H   0  0  0  0  0  0
  -28.6770  -11.9262   21.3271 H   0  0  0  0  0  0
  -28.4483  -13.5524   21.8903 H   0  0  0  0  0  0
  -25.2753   -9.5694   22.4753 H   0  0  0  0  0  0
  -23.9996   -7.4642   22.7478 H   0  0  0  0  0  0
  -21.0838   -8.8717   19.8968 H   0  0  0  0  0  0
  -22.3639  -10.9633   19.6150 H   0  0  0  0  0  0
  -21.2021   -7.6154   23.9725 H   0  0  0  0  0  0
  -21.1493   -6.0515   25.9084 H   0  0  0  0  0  0
  -22.0611   -2.7613   23.2819 H   0  0  0  0  0  0
  -22.4042  -11.9858   22.4774 H   0  0  0  0  0  0
  -21.1104  -13.1266   22.2550 H   0  0  0  0  0  0
  -24.6554  -15.8398   20.5221 H   0  0  0  0  0  0
  -26.2697  -15.6331   20.0762 H   0  0  0  0  0  0
  -26.7088  -32.5570   23.1190 H   0  0  0  0  0  0
  -24.9959  -33.9824   25.0447 H   0  0  0  0  0  0
  -22.6886  -31.3011   21.4093 H   0  0  0  0  0  0
  -23.3754  -35.9666   23.3304 H   0  0  0  0  0  0
  -24.3601  -36.8954   22.2058 H   0  0  0  0  0  0
  -23.7242  -37.6530   23.6654 H   0  0  0  0  0  0
  -26.0337  -31.6014   20.5928 H   0  0  0  0  0  0
  -26.8169  -30.9040   21.9820 H   0  0  0  0  0  0
  -28.1045  -29.1403   21.1742 H   0  0  0  0  0  0
  -26.1146  -25.9845   19.0162 H   0  0  0  0  0  0
  -24.0025  -27.2847   19.0413 H   0  0  0  0  0  0
  -23.7190  -30.5869   19.4056 H   0  0  0  0  0  0
  -22.7432  -29.2264   19.8769 H   0  0  0  0  0  0
  -25.1286  -36.2000   25.0831 H   0  0  0  0  0  0
  -20.9946  -28.3196   24.1464 H   0  0  0  0  0  0
  -20.5688  -26.2241   23.3616 H   0  0  0  0  0  0
  -21.6618  -26.7437   22.1202 H   0  0  0  0  0  0
  -19.6879  -25.6298   21.1241 H   0  0  0  0  0  0
  -19.6660  -27.3220   20.6792 H   0  0  0  0  0  0
  -17.4184  -26.6700   21.4027 H   0  0  0  0  0  0
  -18.0266  -26.0052   22.9018 H   0  0  0  0  0  0
  -19.7916  -30.7254   24.2282 H   0  0  0  0  0  0
  -17.4993  -31.6259   24.5158 H   0  0  0  0  0  0
  -15.5334  -30.2972   23.7642 H   0  0  0  0  0  0
  -15.8661  -28.0816   22.7047 H   0  0  0  0  0  0
  -24.5840  -30.7105   25.7793 H   0  0  0  0  0  0
  -24.8907  -32.2898   26.4909 H   0  0  0  0  0  0
  -25.8021  -30.8873   27.0231 H   0  0  0  0  0  0
  -26.2830  -29.6824   24.1105 H   0  0  0  0  0  0
  -27.3988  -29.7241   25.4544 H   0  0  0  0  0  0
  -27.8665  -30.4358   23.9284 H   0  0  0  0  0  0
  -27.2637  -33.3611   26.2077 H   0  0  0  0  0  0
  -28.3799  -32.6905   25.0287 H   0  0  0  0  0  0
  -28.0705  -31.8434   26.5372 H   0  0  0  0  0  0
  -28.2587  -38.0129   24.7528 H   0  0  0  0  0  0
  -28.1109  -36.2664   24.6245 H   0  0  0  0  0  0
  -27.2319  -37.1424   25.8859 H   0  0  0  0  0  0
  -20.9309  -29.8714   21.6965 H   0  0  0  0  0  0
  -26.0200  -38.2880   24.1400 H   0  0  0  0  0  0
  -28.4588  -20.1072   22.5002 H   0  0  0  0  0  0
  -28.8825  -21.5980   17.3083 H   0  0  0  0  0  0
  -29.6906  -22.6976   18.4011 H   0  0  0  0  0  0
  -27.9198  -22.6350   18.3353 H   0  0  0  0  0  0
  -26.2302  -18.8634   16.1147 H   0  0  0  0  0  0
  -27.7710  -19.5781   15.6506 H   0  0  0  0  0  0
  -26.9121  -20.1752   17.0687 H   0  0  0  0  0  0
  -27.2739  -16.5069   16.2364 H   0  0  0  0  0  0
  -28.7507  -16.2471   17.1508 H   0  0  0  0  0  0
  -28.7871  -17.2078   15.6722 H   0  0  0  0  0  0
  -29.0984  -24.0919   23.7576 H   0  0  0  0  0  0
  -29.3954  -25.8170   23.7925 H   0  0  0  0  0  0
  -30.5616  -24.7459   23.0348 H   0  0  0  0  0  0
  -28.2360  -17.0735   20.1233 H   0  0  0  0  0  0
  -28.2052  -17.4495   21.8157 H   0  0  0  0  0  0
  -29.9054  -18.0579   18.2215 H   0  0  0  0  0  0
  -29.7146  -19.4770   17.2487 H   0  0  0  0  0  0
  -28.7236  -24.1264   19.9029 H   0  0  0  0  0  0
  -30.0838  -23.6263   20.8686 H   0  0  0  0  0  0
  -27.1576  -22.7558   21.1243 H   0  0  0  0  0  0
  -28.2869  -22.4632   22.4130 H   0  0  0  0  0  0
  -30.6666  -17.2582   21.9826 H   0  0  0  0  0  0
  -30.8109  -17.1025   20.2404 H   0  0  0  0  0  0
  -30.2241  -26.3673   20.8515 H   0  0  0  0  0  0
  -29.1246  -27.2446   21.8785 H   0  0  0  0  0  0
  -27.2483  -17.9625   18.1977 H   0  0  0  0  0  0
  -27.6988  -25.1510   22.0333 H   0  0  0  0  0  0
  -29.1074  -15.1223   21.6255 H   0  0  0  0  0  0
  1 25  1  0  0  0
  1 30  2  0  0  0
  1 88  1  0  0  0
  2  3  1  0  0  0
  2 25  1  0  0  0
  2 89  1  0  0  0
  2 90  1  0  0  0
  3  4  1  0  0  0
  3 91  1  0  0  0
  3 92  1  0  0  0
  4  5  1  0  0  0
  4 93  1  0  0  0
  4 94  1  0  0  0
  5  6  1  0  0  0
  5 26  1  0  0  0
  5 95  1  0  0  0
  6 25  1  0  0  0
  6 96  1  0  0  0
  6 97  1  0  0  0
  7  8  2  0  0  0
  7 26  1  0  0  0
  7 29  1  0  0  0
  8  9  1  0  0  0
  8 22  1  0  0  0
  9 10  1  0  0  0
  9 27  2  0  0  0
 10 11  2  0  0  0
 10 15  1  0  0  0
 11 12  1  0  0  0
 11 98  1  0  0  0
 12 13  2  0  0  0
 12 99  1  0  0  0
 13 14  1  0  0  0
 13 31  1  0  0  0
 14 15  2  0  0  0
 14100  1  0  0  0
 15101  1  0  0  0
 16 17  2  0  0  0
 16 21  1  0  0  0
 16 31  1  0  0  0
 17 18  1  0  0  0
 17102  1  0  0  0
 18 19  2  0  0  0
 18103  1  0  0  0
 19 20  1  0  0  0
 19 24  1  0  0  0
 20 21  2  0  0  0
 20104  1  0  0  0
 21 23  1  0  0  0
 22 28  1  0  0  0
 22 32  2  0  0  0
 26 27  1  0  0  0
 28105  1  0  0  0
 28106  1  0  0  0
 29107  1  0  0  0
 29108  1  0  0  0
 33 34  1  0  0  0
 33 66  1  0  0  0
 33 70  2  0  0  0
 34 36  1  0  0  0
 34 59  1  0  0  0
 34109  1  0  0  0
 35 44  2  0  0  0
 35 45  1  0  0  0
 35 68  1  0  0  0
 36 56  1  0  0  0
 36110  1  0  0  0
 37 39  1  0  0  0
 37 47  1  0  0  0
 37 66  1  0  0  0
 37111  1  0  0  0
 38 43  2  0  0  0
 38 46  1  0  0  0
 38 47  1  0  0  0
 39 64  1  0  0  0
 39 67  2  0  0  0
 40 52  1  0  0  0
 40 53  2  0  0  0
 40 58  1  0  0  0
 41112  1  0  0  0
 41113  1  0  0  0
 41114  1  0  0  0
 41 48  1  0  0  0
 42 43  1  0  0  0
 42 66  1  0  0  0
 42115  1  0  0  0
 42116  1  0  0  0
 43 44  1  0  0  0
 44117  1  0  0  0
 45 46  2  0  0  0
 45118  1  0  0  0
 46119  1  0  0  0
 47120  1  0  0  0
 47121  1  0  0  0
 48 56  1  0  0  0
 48 65  1  0  0  0
 48122  1  0  0  0
 49 50  1  0  0  0
 49 53  1  0  0  0
 49 64  1  0  0  0
 49123  1  0  0  0
 50 51  1  0  0  0
 50124  1  0  0  0
 50125  1  0  0  0
 51 52  1  0  0  0
 51126  1  0  0  0
 51127  1  0  0  0
 52128  1  0  0  0
 52129  1  0  0  0
 53 54  1  0  0  0
 54 55  2  0  0  0
 54130  1  0  0  0
 55 57  1  0  0  0
 55131  1  0  0  0
 56 69  2  0  0  0
 57 58  2  0  0  0
 57132  1  0  0  0
 58133  1  0  0  0
 59 60  1  0  0  0
 59 61  1  0  0  0
 59 62  1  0  0  0
 60134  1  0  0  0
 60135  1  0  0  0
 60136  1  0  0  0
 61137  1  0  0  0
 61138  1  0  0  0
 61139  1  0  0  0
 62140  1  0  0  0
 62141  1  0  0  0
 62142  1  0  0  0
 63 65  1  0  0  0
 63143  1  0  0  0
 63144  1  0  0  0
 63145  1  0  0  0
 64146  1  0  0  0
 65147  1  0  0  0
 68 84  1  0  0  0
 71 72  2  0  0  0
 71 87  1  0  0  0
 71148  1  0  0  0
 72 73  1  0  0  0
 72 79  1  0  0  0
 73 74  2  0  0  0
 73 80  1  0  0  0
 74 75  1  0  0  0
 74 87  1  0  0  0
 75149  1  0  0  0
 75150  1  0  0  0
 75151  1  0  0  0
 76152  1  0  0  0
 76153  1  0  0  0
 76154  1  0  0  0
 76 85  1  0  0  0
 77 85  1  0  0  0
 77155  1  0  0  0
 77156  1  0  0  0
 77157  1  0  0  0
 78158  1  0  0  0
 78159  1  0  0  0
 78160  1  0  0  0
 78 86  1  0  0  0
 79 83  1  0  0  0
 79161  1  0  0  0
 79162  1  0  0  0
 80 85  1  0  0  0
 80163  1  0  0  0
 80164  1  0  0  0
 81 82  1  0  0  0
 81 86  1  0  0  0
 81165  1  0  0  0
 81166  1  0  0  0
 82 87  1  0  0  0
 82167  1  0  0  0
 82168  1  0  0  0
 83 88  1  0  0  0
 83169  1  0  0  0
 83170  1  0  0  0
 84 86  1  0  0  0
 84171  1  0  0  0
 84172  1  0  0  0
 85173  1  0  0  0
 86174  1  0  0  0
 88175  1  0  0  0
M  ISO  4   1 100  68 101  84 101  88 100
M  END
> <chiral flag>
0

> <version>
0

> <s_m_source_file>
/data/baiqing/PycharmProjects/Reinvent-master-3.2/result/LINK_invent/BTK/process_docking_weight1_custom_sum_contain_oxygen_bond_distance_aromatic_linkinvent_7_9_3/rearranged_h_0094.sdf

> <i_m_source_file_index>
72

> <r_mmod_Potential_Energy-OPLS-2005>
-98.569580078125

> <r_mmod_Stretch_Energy-OPLS-2005>
36.929256439209

> <r_mmod_Bend_Energy-OPLS-2005>
109.667579650879

> <r_mmod_Torsional_Energy-OPLS-2005>
235.60807800293

> <r_mmod_Improper_Torsional_Energy-OPLS-2005>
5.04350233078003

> <r_mmod_Van_der_Waal_Energy-OPLS-2005>
113.586906433105

> <r_mmod_Electrostatic_Energy-OPLS-2005>
-406.0693359375

> <r_mmod_Solvation_Energy-OPLS-2005>
-202.946594238281

> <b_mmod_Minimization_Converged-OPLS-2005>
0

> <r_mmod_RMS_Derivative-OPLS-2005>
4.06896829605103

$$$$
73
                    3D
 Structure written by MMmdl.
164172  0  0  1  0            999 V2000
  -30.5547  -14.9444   20.4130 C   0  0  0  0  0  0
  -30.4384  -12.5832   19.5076 C   0  0  0  0  0  0
  -29.5249  -12.5323   18.2618 C   0  0  0  0  0  0
  -28.0608  -12.3101   18.6797 C   0  0  0  0  0  0
  -27.6323  -13.2470   19.8379 C   0  0  2  0  0  0
  -28.6702  -13.2852   20.9819 C   0  0  0  0  0  0
  -25.2486  -13.8218   20.5709 C   0  0  0  0  0  0
  -24.1781  -13.0454   20.9216 C   0  0  0  0  0  0
  -24.6382  -11.6935   20.8749 C   0  0  0  0  0  0
  -23.9065  -10.4300   21.0404 C   0  0  0  0  0  0
  -24.3612   -9.4219   21.9186 C   0  0  0  0  0  0
  -23.6284   -8.2251   22.0762 C   0  0  0  0  0  0
  -22.4259   -8.0291   21.3555 C   0  0  0  0  0  0
  -21.9888   -9.0266   20.4664 C   0  0  0  0  0  0
  -22.7226  -10.2142   20.3073 C   0  0  0  0  0  0
  -21.6859   -6.0730   22.5281 C   0  0  0  0  0  0
  -21.4021   -6.5633   23.8208 C   0  0  0  0  0  0
  -21.3658   -5.6791   24.9168 C   0  0  0  0  0  0
  -21.6029   -4.3048   24.7228 C   0  0  0  0  0  0
  -21.8819   -3.8144   23.4352 C   0  0  0  0  0  0
  -21.9193   -4.6963   22.3409 C   0  0  0  0  0  0
  -22.7811  -13.5261   21.1847 C   0  0  0  0  0  0
  -22.1664   -4.2150   21.0989 F   0  0  0  0  0  0
  -21.5627   -3.4536   25.7730 F   0  0  0  0  0  0
  -29.9519  -13.6865   20.3898 N   0  0  0  0  0  0
  -26.2891  -12.9433   20.3216 N   0  0  0  0  0  0
  -25.9308  -11.6571   20.5711 N   0  0  0  0  0  0
  -22.0424  -12.8280   22.0399 N   0  0  0  0  0  0
  -25.4225  -15.1937   20.4149 N   0  0  0  0  0  0
  -31.7505  -15.0055   20.1061 O   0  0  0  0  0  0
  -21.6644   -6.8871   21.4230 O   0  0  0  0  0  0
  -22.3518  -14.5568   20.6678 O   0  0  0  0  0  0
  -24.6448  -31.8407   23.1843 C   0  0  0  0  0  0
  -25.9207  -32.4676   23.8247 C   0  0  1  0  0  0
  -27.2199  -27.1156   20.1540 C   0  0  0  0  0  0
  -25.5934  -33.8479   24.2160 N   0  0  0  0  0  0
  -23.4507  -30.4601   21.5298 C   0  0  2  0  0  0
  -24.9016  -28.8816   20.1108 C   0  0  0  0  0  0
  -22.7578  -29.4537   22.4834 C   0  0  0  0  0  0
  -18.0312  -28.1383   22.8472 C   0  0  0  0  0  0
  -24.1501  -36.7254   23.2639 C   0  0  0  0  0  0
  -26.0091  -30.7074   21.3884 C   0  0  0  0  0  0
  -26.0797  -29.3178   20.7292 C   0  0  0  0  0  0
  -27.2393  -28.4517   20.7319 C   0  0  0  0  0  0
  -26.0139  -26.7846   19.4965 C   0  0  0  0  0  0
  -24.8827  -27.6298   19.4784 C   0  0  0  0  0  0
  -23.6785  -29.7852   20.1513 C   0  0  0  0  0  0
  -25.4132  -36.3026   24.0309 C   0  0  1  0  0  0
  -20.5925  -28.3718   23.1218 C   0  0  2  0  0  0
  -20.6793  -26.9414   22.5402 C   0  0  0  0  0  0
  -19.5771  -26.6370   21.5203 C   0  0  0  0  0  0
  -18.1950  -26.7921   22.1614 C   0  0  0  0  0  0
  -19.1567  -28.8868   23.2844 C   0  0  0  0  0  0
  -18.9479  -30.1457   23.8881 C   0  0  0  0  0  0
  -17.6477  -30.6583   24.0545 C   0  0  0  0  0  0
  -25.9076  -34.9399   23.5055 C   0  0  0  0  0  0
  -16.5371  -29.9072   23.6323 C   0  0  0  0  0  0
  -16.7295  -28.6486   23.0354 C   0  0  0  0  0  0
  -26.4518  -31.6550   25.0701 C   0  0  0  0  0  0
  -25.3687  -31.3769   26.1392 C   0  0  0  0  0  0
  -27.0348  -30.2921   24.6314 C   0  0  0  0  0  0
  -27.6066  -32.4305   25.7465 C   0  0  0  0  0  0
  -27.5594  -37.1778   24.8459 C   0  0  0  0  0  0
  -21.4271  -29.3042   22.3582 N   0  0  0  0  0  0
  -26.4302  -37.3739   23.9403 N   0  0  0  0  0  0
  -24.7213  -31.0254   22.0880 N   0  0  0  0  0  0
  -23.4210  -28.8073   23.2983 O   0  0  0  0  0  0
  -28.2670  -26.1187   20.2316 O   0  0  0  0  0  0
  -26.5685  -34.8903   22.4647 O   0  0  0  0  0  0
  -23.5568  -32.1276   23.7067 O   0  0  0  0  0  0
  -29.1688  -18.9197   20.5173 C   0  0  0  0  0  0
  -29.4570  -20.1990   19.9635 C   0  0  0  0  0  0
  -29.9791  -17.6519   20.1957 C   0  0  0  0  0  0
  -31.3313  -19.0643   18.8226 C   0  0  0  0  0  0
  -29.5798  -23.5982   16.3060 C   0  0  0  0  0  0
  -28.7676  -21.9188   14.6186 C   0  0  0  0  0  0
  -28.5527  -21.6108   20.0927 C   0  0  0  0  0  0
  -28.9734  -23.2419   20.3957 C   0  0  0  0  0  0
  -29.7129  -21.0846   16.8162 C   0  0  0  0  0  0
  -30.6479  -21.2938   18.0305 C   0  0  0  0  0  0
  -27.9907  -24.5866   20.0475 C   0  0  0  0  0  0
  -29.7894  -22.1857   15.7359 C   0  0  0  0  0  0
  -31.0126  -17.8725   19.4098 N   0  0  0  0  0  0
  -30.5075  -20.2090   19.0226 N   0  0  0  0  0  0
  -29.7371  -16.2842   20.5826 N   0  0  0  0  0  0
  -32.3107  -19.1011   18.0783 O   0  0  0  0  0  0
  -31.4756  -12.7273   19.1992 H   0  0  0  0  0  0
  -30.4169  -11.6309   20.0397 H   0  0  0  0  0  0
  -29.8467  -11.7418   17.5817 H   0  0  0  0  0  0
  -29.6076  -13.4690   17.7067 H   0  0  0  0  0  0
  -27.9602  -11.2698   18.9917 H   0  0  0  0  0  0
  -27.4003  -12.4336   17.8223 H   0  0  0  0  0  0
  -27.5968  -14.2455   19.4018 H   0  0  0  0  0  0
  -28.7502  -12.3156   21.4749 H   0  0  0  0  0  0
  -28.3673  -13.9997   21.7487 H   0  0  0  0  0  0
  -25.2745   -9.5717   22.4775 H   0  0  0  0  0  0
  -23.9989   -7.4653   22.7496 H   0  0  0  0  0  0
  -21.0815   -8.8804   19.8981 H   0  0  0  0  0  0
  -22.3673  -10.9690   19.6213 H   0  0  0  0  0  0
  -21.2011   -7.6140   23.9708 H   0  0  0  0  0  0
  -21.1484   -6.0520   25.9069 H   0  0  0  0  0  0
  -22.0595   -2.7604   23.2856 H   0  0  0  0  0  0
  -22.4004  -11.9965   22.4848 H   0  0  0  0  0  0
  -21.1069  -13.1389   22.2579 H   0  0  0  0  0  0
  -24.6563  -15.8499   20.5190 H   0  0  0  0  0  0
  -26.2561  -15.6199   20.0334 H   0  0  0  0  0  0
  -26.7267  -32.5272   23.0967 H   0  0  0  0  0  0
  -25.0014  -33.9563   25.0264 H   0  0  0  0  0  0
  -22.7561  -31.2877   21.3722 H   0  0  0  0  0  0
  -23.3768  -35.9586   23.3298 H   0  0  0  0  0  0
  -24.3591  -36.8890   22.2058 H   0  0  0  0  0  0
  -23.7259  -37.6448   23.6678 H   0  0  0  0  0  0
  -26.1740  -31.4612   20.6177 H   0  0  0  0  0  0
  -26.8755  -30.7536   22.0362 H   0  0  0  0  0  0
  -28.1369  -28.7789   21.2372 H   0  0  0  0  0  0
  -25.9110  -25.8252   19.0114 H   0  0  0  0  0  0
  -23.9828  -27.2893   18.9848 H   0  0  0  0  0  0
  -23.8180  -30.5552   19.3919 H   0  0  0  0  0  0
  -22.7930  -29.2267   19.8419 H   0  0  0  0  0  0
  -25.1327  -36.1856   25.0805 H   0  0  0  0  0  0
  -21.0029  -28.3319   24.1331 H   0  0  0  0  0  0
  -20.5659  -26.2334   23.3627 H   0  0  0  0  0  0
  -21.6662  -26.7395   22.1220 H   0  0  0  0  0  0
  -19.6932  -25.6270   21.1254 H   0  0  0  0  0  0
  -19.6705  -27.3163   20.6718 H   0  0  0  0  0  0
  -17.4214  -26.6655   21.4023 H   0  0  0  0  0  0
  -18.0361  -26.0066   22.9016 H   0  0  0  0  0  0
  -19.7951  -30.7273   24.2256 H   0  0  0  0  0  0
  -17.5023  -31.6266   24.5136 H   0  0  0  0  0  0
  -15.5366  -30.2964   23.7646 H   0  0  0  0  0  0
  -15.8697  -28.0784   22.7095 H   0  0  0  0  0  0
  -24.5854  -30.7135   25.7709 H   0  0  0  0  0  0
  -24.8885  -32.2958   26.4761 H   0  0  0  0  0  0
  -25.7941  -30.8962   27.0204 H   0  0  0  0  0  0
  -26.2942  -29.6659   24.1323 H   0  0  0  0  0  0
  -27.3914  -29.7232   25.4909 H   0  0  0  0  0  0
  -27.8892  -30.4120   23.9651 H   0  0  0  0  0  0
  -27.2673  -33.3617   26.2015 H   0  0  0  0  0  0
  -28.3870  -32.6840   25.0277 H   0  0  0  0  0  0
  -28.0734  -31.8441   26.5384 H   0  0  0  0  0  0
  -28.2604  -38.0081   24.7512 H   0  0  0  0  0  0
  -28.1092  -36.2611   24.6272 H   0  0  0  0  0  0
  -27.2308  -37.1421   25.8860 H   0  0  0  0  0  0
  -20.9482  -29.8744   21.6754 H   0  0  0  0  0  0
  -26.0174  -38.2816   24.1383 H   0  0  0  0  0  0
  -28.3156  -18.8601   21.1764 H   0  0  0  0  0  0
  -29.5164  -24.3411   15.5102 H   0  0  0  0  0  0
  -30.4087  -23.8991   16.9465 H   0  0  0  0  0  0
  -28.6621  -23.6594   16.8906 H   0  0  0  0  0  0
  -28.8537  -22.6585   13.8206 H   0  0  0  0  0  0
  -27.7451  -21.9606   14.9981 H   0  0  0  0  0  0
  -28.9124  -20.9368   14.1669 H   0  0  0  0  0  0
  -27.7969  -21.3720   20.8389 H   0  0  0  0  0  0
  -27.9761  -21.6387   19.1706 H   0  0  0  0  0  0
  -29.9501  -23.4693   19.9840 H   0  0  0  0  0  0
  -29.1617  -23.2890   21.4680 H   0  0  0  0  0  0
  -28.6834  -20.9878   17.1566 H   0  0  0  0  0  0
  -29.9560  -20.1288   16.3484 H   0  0  0  0  0  0
  -30.4775  -22.2545   18.4793 H   0  0  0  0  0  0
  -31.6761  -21.3809   17.6752 H   0  0  0  0  0  0
  -27.0605  -24.4005   20.5857 H   0  0  0  0  0  0
  -27.7302  -24.4779   18.9951 H   0  0  0  0  0  0
  -30.7841  -22.1521   15.2881 H   0  0  0  0  0  0
  -28.8101  -16.1207   20.9438 H   0  0  0  0  0  0
  1 25  1  0  0  0
  1 30  2  0  0  0
  1 85  1  0  0  0
  2  3  1  0  0  0
  2 25  1  0  0  0
  2 87  1  0  0  0
  2 88  1  0  0  0
  3  4  1  0  0  0
  3 89  1  0  0  0
  3 90  1  0  0  0
  4  5  1  0  0  0
  4 91  1  0  0  0
  4 92  1  0  0  0
  5  6  1  0  0  0
  5 26  1  0  0  0
  5 93  1  0  0  0
  6 25  1  0  0  0
  6 94  1  0  0  0
  6 95  1  0  0  0
  7  8  2  0  0  0
  7 26  1  0  0  0
  7 29  1  0  0  0
  8  9  1  0  0  0
  8 22  1  0  0  0
  9 10  1  0  0  0
  9 27  2  0  0  0
 10 11  2  0  0  0
 10 15  1  0  0  0
 11 12  1  0  0  0
 11 96  1  0  0  0
 12 13  2  0  0  0
 12 97  1  0  0  0
 13 14  1  0  0  0
 13 31  1  0  0  0
 14 15  2  0  0  0
 14 98  1  0  0  0
 15 99  1  0  0  0
 16 17  2  0  0  0
 16 21  1  0  0  0
 16 31  1  0  0  0
 17 18  1  0  0  0
 17100  1  0  0  0
 18 19  2  0  0  0
 18101  1  0  0  0
 19 20  1  0  0  0
 19 24  1  0  0  0
 20 21  2  0  0  0
 20102  1  0  0  0
 21 23  1  0  0  0
 22 28  1  0  0  0
 22 32  2  0  0  0
 26 27  1  0  0  0
 28103  1  0  0  0
 28104  1  0  0  0
 29105  1  0  0  0
 29106  1  0  0  0
 33 34  1  0  0  0
 33 66  1  0  0  0
 33 70  2  0  0  0
 34 36  1  0  0  0
 34 59  1  0  0  0
 34107  1  0  0  0
 35 44  2  0  0  0
 35 45  1  0  0  0
 35 68  1  0  0  0
 36 56  1  0  0  0
 36108  1  0  0  0
 37 39  1  0  0  0
 37 47  1  0  0  0
 37 66  1  0  0  0
 37109  1  0  0  0
 38 43  2  0  0  0
 38 46  1  0  0  0
 38 47  1  0  0  0
 39 64  1  0  0  0
 39 67  2  0  0  0
 40 52  1  0  0  0
 40 53  2  0  0  0
 40 58  1  0  0  0
 41110  1  0  0  0
 41111  1  0  0  0
 41112  1  0  0  0
 41 48  1  0  0  0
 42 43  1  0  0  0
 42 66  1  0  0  0
 42113  1  0  0  0
 42114  1  0  0  0
 43 44  1  0  0  0
 44115  1  0  0  0
 45 46  2  0  0  0
 45116  1  0  0  0
 46117  1  0  0  0
 47118  1  0  0  0
 47119  1  0  0  0
 48 56  1  0  0  0
 48 65  1  0  0  0
 48120  1  0  0  0
 49 50  1  0  0  0
 49 53  1  0  0  0
 49 64  1  0  0  0
 49121  1  0  0  0
 50 51  1  0  0  0
 50122  1  0  0  0
 50123  1  0  0  0
 51 52  1  0  0  0
 51124  1  0  0  0
 51125  1  0  0  0
 52126  1  0  0  0
 52127  1  0  0  0
 53 54  1  0  0  0
 54 55  2  0  0  0
 54128  1  0  0  0
 55 57  1  0  0  0
 55129  1  0  0  0
 56 69  2  0  0  0
 57 58  2  0  0  0
 57130  1  0  0  0
 58131  1  0  0  0
 59 60  1  0  0  0
 59 61  1  0  0  0
 59 62  1  0  0  0
 60132  1  0  0  0
 60133  1  0  0  0
 60134  1  0  0  0
 61135  1  0  0  0
 61136  1  0  0  0
 61137  1  0  0  0
 62138  1  0  0  0
 62139  1  0  0  0
 62140  1  0  0  0
 63 65  1  0  0  0
 63141  1  0  0  0
 63142  1  0  0  0
 63143  1  0  0  0
 64144  1  0  0  0
 65145  1  0  0  0
 68 81  1  0  0  0
 71 72  2  0  0  0
 71 73  1  0  0  0
 71146  1  0  0  0
 72 77  1  0  0  0
 72 84  1  0  0  0
 73 83  2  0  0  0
 73 85  1  0  0  0
 74 83  1  0  0  0
 74 84  1  0  0  0
 74 86  2  0  0  0
 75147  1  0  0  0
 75148  1  0  0  0
 75149  1  0  0  0
 75 82  1  0  0  0
 76 82  1  0  0  0
 76150  1  0  0  0
 76151  1  0  0  0
 76152  1  0  0  0
 77 78  1  0  0  0
 77153  1  0  0  0
 77154  1  0  0  0
 78 81  1  0  0  0
 78155  1  0  0  0
 78156  1  0  0  0
 79 80  1  0  0  0
 79 82  1  0  0  0
 79157  1  0  0  0
 79158  1  0  0  0
 80 84  1  0  0  0
 80159  1  0  0  0
 80160  1  0  0  0
 81161  1  0  0  0
 81162  1  0  0  0
 82163  1  0  0  0
 85164  1  0  0  0
M  ISO  4   1 100  68 101  81 101  85 100
M  END
> <chiral flag>
0

> <version>
0

> <s_m_source_file>
/data/baiqing/PycharmProjects/Reinvent-master-3.2/result/LINK_invent/BTK/process_docking_weight1_custom_sum_contain_oxygen_bond_distance_aromatic_linkinvent_7_9_3/rearranged_h_0094.sdf

> <i_m_source_file_index>
73

> <r_mmod_Potential_Energy-OPLS-2005>
427.520935058594

> <r_mmod_Stretch_Energy-OPLS-2005>
301.750701904297

> <r_mmod_Bend_Energy-OPLS-2005>
271.559509277344

> <r_mmod_Torsional_Energy-OPLS-2005>
211.875595092773

> <r_mmod_Improper_Torsional_Energy-OPLS-2005>
5.86694383621216

> <r_mmod_Van_der_Waal_Energy-OPLS-2005>
147.263168334961

> <r_mmod_Electrostatic_Energy-OPLS-2005>
-433.058166503906

> <r_mmod_Solvation_Energy-OPLS-2005>
-278.189819335938

> <b_mmod_Minimization_Converged-OPLS-2005>
0

> <r_mmod_RMS_Derivative-OPLS-2005>
2.51390337944031

$$$$
74
                    3D
 Structure written by MMmdl.
186194  0  0  1  0            999 V2000
  -30.7459  -14.3806   20.6574 C   0  0  0  0  0  0
  -30.4165  -12.2887   19.3955 C   0  0  0  0  0  0
  -29.4819  -12.5170   18.1914 C   0  0  0  0  0  0
  -28.0050  -12.3779   18.6083 C   0  0  0  0  0  0
  -27.6638  -13.2006   19.8791 C   0  0  2  0  0  0
  -28.7026  -12.9403   20.9920 C   0  0  0  0  0  0
  -25.2596  -13.8154   20.5671 C   0  0  0  0  0  0
  -24.1833  -13.0430   20.9157 C   0  0  0  0  0  0
  -24.6375  -11.6899   20.8724 C   0  0  0  0  0  0
  -23.9040  -10.4287   21.0397 C   0  0  0  0  0  0
  -24.3602   -9.4217   21.9176 C   0  0  0  0  0  0
  -23.6281   -8.2249   22.0761 C   0  0  0  0  0  0
  -22.4267   -8.0271   21.3548 C   0  0  0  0  0  0
  -21.9900   -9.0240   20.4647 C   0  0  0  0  0  0
  -22.7217  -10.2122   20.3047 C   0  0  0  0  0  0
  -21.6850   -6.0725   22.5279 C   0  0  0  0  0  0
  -21.4009   -6.5630   23.8211 C   0  0  0  0  0  0
  -21.3661   -5.6788   24.9177 C   0  0  0  0  0  0
  -21.6045   -4.3050   24.7233 C   0  0  0  0  0  0
  -21.8818   -3.8138   23.4353 C   0  0  0  0  0  0
  -21.9190   -4.6954   22.3403 C   0  0  0  0  0  0
  -22.7866  -13.5244   21.1827 C   0  0  0  0  0  0
  -22.1659   -4.2139   21.0979 F   0  0  0  0  0  0
  -21.5633   -3.4534   25.7744 F   0  0  0  0  0  0
  -30.0417  -13.2391   20.4515 N   0  0  0  0  0  0
  -26.3020  -12.9307   20.3371 N   0  0  0  0  0  0
  -25.9296  -11.6469   20.5753 N   0  0  0  0  0  0
  -22.0503  -12.8225   22.0378 N   0  0  0  0  0  0
  -25.4343  -15.1861   20.4075 N   0  0  0  0  0  0
  -31.8050  -14.6407   20.0785 O   0  0  0  0  0  0
  -21.6635   -6.8867   21.4238 O   0  0  0  0  0  0
  -22.3558  -14.5551   20.6688 O   0  0  0  0  0  0
  -24.6114  -31.8702   23.2133 C   0  0  0  0  0  0
  -25.8999  -32.4836   23.8428 C   0  0  1  0  0  0
  -27.2384  -27.4713   20.0683 C   0  0  0  0  0  0
  -25.5847  -33.8638   24.2330 N   0  0  0  0  0  0
  -23.3994  -30.4948   21.5539 C   0  0  2  0  0  0
  -24.8445  -28.9605   20.1225 C   0  0  0  0  0  0
  -22.7387  -29.4666   22.4998 C   0  0  0  0  0  0
  -18.0278  -28.1438   22.8498 C   0  0  0  0  0  0
  -24.1483  -36.7319   23.2643 C   0  0  0  0  0  0
  -25.9263  -30.8423   21.3629 C   0  0  0  0  0  0
  -26.0050  -29.4778   20.7141 C   0  0  0  0  0  0
  -27.2069  -28.7376   20.6898 C   0  0  0  0  0  0
  -26.0562  -26.9455   19.5099 C   0  0  0  0  0  0
  -24.8610  -27.6884   19.5254 C   0  0  0  0  0  0
  -23.6080  -29.8302   20.1678 C   0  0  0  0  0  0
  -25.4106  -36.3104   24.0330 C   0  0  1  0  0  0
  -20.5853  -28.3718   23.1328 C   0  0  2  0  0  0
  -20.6775  -26.9458   22.5433 C   0  0  0  0  0  0
  -19.5751  -26.6435   21.5235 C   0  0  0  0  0  0
  -18.1928  -26.7983   22.1644 C   0  0  0  0  0  0
  -19.1520  -28.8895   23.2922 C   0  0  0  0  0  0
  -18.9454  -30.1505   23.8939 C   0  0  0  0  0  0
  -17.6457  -30.6636   24.0611 C   0  0  0  0  0  0
  -25.9035  -34.9476   23.5131 C   0  0  0  0  0  0
  -16.5352  -29.9150   23.6345 C   0  0  0  0  0  0
  -16.7270  -28.6583   23.0328 C   0  0  0  0  0  0
  -26.4451  -31.6605   25.0741 C   0  0  0  0  0  0
  -25.3739  -31.3677   26.1498 C   0  0  0  0  0  0
  -27.0288  -30.3054   24.6074 C   0  0  0  0  0  0
  -27.6002  -32.4366   25.7512 C   0  0  0  0  0  0
  -27.5571  -37.1810   24.8469 C   0  0  0  0  0  0
  -21.4118  -29.3064   22.3723 N   0  0  0  0  0  0
  -26.4287  -37.3785   23.9408 N   0  0  0  0  0  0
  -24.6642  -31.0821   22.1029 N   0  0  0  0  0  0
  -23.4154  -28.8202   23.3037 O   0  0  0  0  0  0
  -28.4126  -26.7656   19.9814 O   0  0  0  0  0  0
  -26.5621  -34.8921   22.4706 O   0  0  0  0  0  0
  -23.5305  -32.1462   23.7514 O   0  0  0  0  0  0
  -30.6437  -24.1868   20.0171 C   0  0  0  0  0  0
  -29.0791  -22.6100   19.0461 C   0  0  0  0  0  0
  -29.8201  -23.8029   18.9502 C   0  0  0  0  0  0
  -30.7623  -23.3920   21.1735 C   0  0  0  0  0  0
  -29.1707  -21.7914   20.1956 C   0  0  0  0  0  0
  -30.0166  -22.1842   21.2763 C   0  0  0  0  0  0
  -30.1369  -21.3359   22.5417 C   0  0  0  0  0  0
  -35.0743  -25.8629   22.1067 C   0  0  0  0  0  0
  -32.7957  -26.8256   21.6259 C   0  0  0  0  0  0
  -29.0549  -18.9137   18.4311 C   0  0  0  0  0  0
  -29.7905  -24.6506   17.6895 C   0  0  0  0  0  0
  -31.6771  -23.9100   22.2859 C   0  0  0  0  0  0
  -28.3656  -20.4902   20.2044 C   0  0  0  0  0  0
  -28.7902  -25.8203   17.7145 C   0  0  0  0  0  0
  -33.0985  -24.2967   21.8108 C   0  0  0  0  0  0
  -30.6806  -17.6372   20.9520 C   0  0  0  0  0  0
  -30.8051  -16.4920   21.9806 C   0  0  0  0  0  0
  -29.2608  -18.2210   20.7990 C   0  0  0  0  0  0
  -29.0885  -26.9435   18.7340 C   0  0  0  0  0  0
  -33.5628  -25.6811   22.3104 C   0  0  0  0  0  0
  -30.2016  -15.2370   21.5335 N   0  0  0  0  0  0
  -29.2467  -19.3538   19.8332 N   0  3  1  0  0  0
  -31.4590  -12.3916   19.0902 H   0  0  0  0  0  0
  -30.3176  -11.2675   19.7667 H   0  0  0  0  0  0
  -29.7121  -11.8050   17.3964 H   0  0  0  0  0  0
  -29.6535  -13.5103   17.7735 H   0  0  0  0  0  0
  -27.8078  -11.3195   18.7861 H   0  0  0  0  0  0
  -27.3539  -12.6728   17.7849 H   0  0  0  0  0  0
  -27.7218  -14.2549   19.6063 H   0  0  0  0  0  0
  -28.6685  -11.8943   21.2993 H   0  0  0  0  0  0
  -28.4527  -13.5072   21.8895 H   0  0  0  0  0  0
  -25.2745   -9.5692   22.4749 H   0  0  0  0  0  0
  -23.9989   -7.4644   22.7491 H   0  0  0  0  0  0
  -21.0832   -8.8742   19.8952 H   0  0  0  0  0  0
  -22.3669  -10.9650   19.6154 H   0  0  0  0  0  0
  -21.1994   -7.6137   23.9713 H   0  0  0  0  0  0
  -21.1482   -6.0517   25.9078 H   0  0  0  0  0  0
  -22.0592   -2.7601   23.2855 H   0  0  0  0  0  0
  -22.4114  -11.9878   22.4746 H   0  0  0  0  0  0
  -21.1118  -13.1246   22.2585 H   0  0  0  0  0  0
  -24.6698  -15.8446   20.5112 H   0  0  0  0  0  0
  -26.2886  -15.6172   20.0782 H   0  0  0  0  0  0
  -26.7055  -32.5566   23.1185 H   0  0  0  0  0  0
  -24.9879  -33.9843   25.0379 H   0  0  0  0  0  0
  -22.6878  -31.3114   21.4150 H   0  0  0  0  0  0
  -23.3725  -35.9671   23.3321 H   0  0  0  0  0  0
  -24.3573  -36.8938   22.2057 H   0  0  0  0  0  0
  -23.7269  -37.6528   23.6685 H   0  0  0  0  0  0
  -26.0354  -31.6044   20.5912 H   0  0  0  0  0  0
  -26.8154  -30.8985   21.9777 H   0  0  0  0  0  0
  -28.1134  -29.1407   21.1219 H   0  0  0  0  0  0
  -26.0549  -25.9654   19.0585 H   0  0  0  0  0  0
  -23.9657  -27.2768   19.0810 H   0  0  0  0  0  0
  -23.7253  -30.6123   19.4163 H   0  0  0  0  0  0
  -22.7312  -29.2551   19.8646 H   0  0  0  0  0  0
  -25.1277  -36.1964   25.0816 H   0  0  0  0  0  0
  -20.9972  -28.3322   24.1437 H   0  0  0  0  0  0
  -20.5725  -26.2339   23.3633 H   0  0  0  0  0  0
  -21.6647  -26.7539   22.1197 H   0  0  0  0  0  0
  -19.6928  -25.6351   21.1258 H   0  0  0  0  0  0
  -19.6695  -27.3267   20.6779 H   0  0  0  0  0  0
  -17.4189  -26.6732   21.4049 H   0  0  0  0  0  0
  -18.0355  -26.0144   22.9065 H   0  0  0  0  0  0
  -19.7924  -30.7331   24.2302 H   0  0  0  0  0  0
  -17.5012  -31.6306   24.5243 H   0  0  0  0  0  0
  -15.5365  -30.3078   23.7650 H   0  0  0  0  0  0
  -15.8667  -28.0959   22.6958 H   0  0  0  0  0  0
  -24.5889  -30.7059   25.7820 H   0  0  0  0  0  0
  -24.8959  -32.2825   26.5014 H   0  0  0  0  0  0
  -25.8112  -30.8786   27.0216 H   0  0  0  0  0  0
  -26.2823  -29.6827   24.1123 H   0  0  0  0  0  0
  -27.4072  -29.7268   25.4512 H   0  0  0  0  0  0
  -27.8650  -30.4379   23.9202 H   0  0  0  0  0  0
  -27.2555  -33.3637   26.2121 H   0  0  0  0  0  0
  -28.3786  -32.7006   25.0334 H   0  0  0  0  0  0
  -28.0709  -31.8503   26.5421 H   0  0  0  0  0  0
  -28.2570  -38.0117   24.7489 H   0  0  0  0  0  0
  -28.1083  -36.2641   24.6315 H   0  0  0  0  0  0
  -27.2304  -37.1472   25.8877 H   0  0  0  0  0  0
  -20.9305  -29.8779   21.6920 H   0  0  0  0  0  0
  -26.0162  -38.2857   24.1408 H   0  0  0  0  0  0
  -31.2051  -25.1067   19.9355 H   0  0  0  0  0  0
  -28.4482  -22.3134   18.2186 H   0  0  0  0  0  0
  -30.0182  -21.9592   23.4271 H   0  0  0  0  0  0
  -31.1149  -20.8547   22.5868 H   0  0  0  0  0  0
  -29.3850  -20.5611   22.6425 H   0  0  0  0  0  0
  -35.4083  -26.8300   22.4837 H   0  0  0  0  0  0
  -35.3454  -25.8099   21.0514 H   0  0  0  0  0  0
  -35.6404  -25.0949   22.6352 H   0  0  0  0  0  0
  -33.1152  -27.7972   22.0041 H   0  0  0  0  0  0
  -31.7219  -26.7539   21.7980 H   0  0  0  0  0  0
  -32.9568  -26.8208   20.5465 H   0  0  0  0  0  0
  -29.1786  -19.7460   17.7375 H   0  0  0  0  0  0
  -28.0568  -18.4993   18.2845 H   0  0  0  0  0  0
  -29.7788  -18.1478   18.1536 H   0  0  0  0  0  0
  -29.5573  -24.0026   16.8452 H   0  0  0  0  0  0
  -30.7958  -25.0260   17.4935 H   0  0  0  0  0  0
  -31.7872  -23.2031   23.1050 H   0  0  0  0  0  0
  -31.1734  -24.7671   22.7318 H   0  0  0  0  0  0
  -27.5364  -20.5699   19.4992 H   0  0  0  0  0  0
  -27.8699  -20.3530   21.1642 H   0  0  0  0  0  0
  -27.7787  -25.4385   17.8270 H   0  0  0  0  0  0
  -28.8198  -26.2709   16.7222 H   0  0  0  0  0  0
  -33.1824  -24.2712   20.7239 H   0  0  0  0  0  0
  -33.7859  -23.5234   22.1567 H   0  0  0  0  0  0
  -31.0619  -17.3072   19.9856 H   0  0  0  0  0  0
  -31.3474  -18.4396   21.2702 H   0  0  0  0  0  0
  -30.3566  -16.7835   22.9317 H   0  0  0  0  0  0
  -31.8616  -16.3162   22.1934 H   0  0  0  0  0  0
  -28.9283  -18.5423   21.7855 H   0  0  0  0  0  0
  -28.5518  -17.4515   20.4894 H   0  0  0  0  0  0
  -28.8200  -27.9100   18.2996 H   0  0  0  0  0  0
  -30.1612  -27.0045   18.9160 H   0  0  0  0  0  0
  -33.3686  -25.7387   23.3834 H   0  0  0  0  0  0
  -29.3423  -14.9433   21.9766 H   0  0  0  0  0  0
  -30.1694  -19.7597   19.8751 H   0  0  0  0  0  0
  1 25  1  0  0  0
  1 30  2  0  0  0
  1 91  1  0  0  0
  2  3  1  0  0  0
  2 25  1  0  0  0
  2 93  1  0  0  0
  2 94  1  0  0  0
  3  4  1  0  0  0
  3 95  1  0  0  0
  3 96  1  0  0  0
  4  5  1  0  0  0
  4 97  1  0  0  0
  4 98  1  0  0  0
  5  6  1  0  0  0
  5 26  1  0  0  0
  5 99  1  0  0  0
  6 25  1  0  0  0
  6100  1  0  0  0
  6101  1  0  0  0
  7  8  2  0  0  0
  7 26  1  0  0  0
  7 29  1  0  0  0
  8  9  1  0  0  0
  8 22  1  0  0  0
  9 10  1  0  0  0
  9 27  2  0  0  0
 10 11  2  0  0  0
 10 15  1  0  0  0
 11 12  1  0  0  0
 11102  1  0  0  0
 12 13  2  0  0  0
 12103  1  0  0  0
 13 14  1  0  0  0
 13 31  1  0  0  0
 14 15  2  0  0  0
 14104  1  0  0  0
 15105  1  0  0  0
 16 17  2  0  0  0
 16 21  1  0  0  0
 16 31  1  0  0  0
 17 18  1  0  0  0
 17106  1  0  0  0
 18 19  2  0  0  0
 18107  1  0  0  0
 19 20  1  0  0  0
 19 24  1  0  0  0
 20 21  2  0  0  0
 20108  1  0  0  0
 21 23  1  0  0  0
 22 28  1  0  0  0
 22 32  2  0  0  0
 26 27  1  0  0  0
 28109  1  0  0  0
 28110  1  0  0  0
 29111  1  0  0  0
 29112  1  0  0  0
 33 34  1  0  0  0
 33 66  1  0  0  0
 33 70  2  0  0  0
 34 36  1  0  0  0
 34 59  1  0  0  0
 34113  1  0  0  0
 35 44  2  0  0  0
 35 45  1  0  0  0
 35 68  1  0  0  0
 36 56  1  0  0  0
 36114  1  0  0  0
 37 39  1  0  0  0
 37 47  1  0  0  0
 37 66  1  0  0  0
 37115  1  0  0  0
 38 43  2  0  0  0
 38 46  1  0  0  0
 38 47  1  0  0  0
 39 64  1  0  0  0
 39 67  2  0  0  0
 40 52  1  0  0  0
 40 53  2  0  0  0
 40 58  1  0  0  0
 41116  1  0  0  0
 41117  1  0  0  0
 41118  1  0  0  0
 41 48  1  0  0  0
 42 43  1  0  0  0
 42 66  1  0  0  0
 42119  1  0  0  0
 42120  1  0  0  0
 43 44  1  0  0  0
 44121  1  0  0  0
 45 46  2  0  0  0
 45122  1  0  0  0
 46123  1  0  0  0
 47124  1  0  0  0
 47125  1  0  0  0
 48 56  1  0  0  0
 48 65  1  0  0  0
 48126  1  0  0  0
 49 50  1  0  0  0
 49 53  1  0  0  0
 49 64  1  0  0  0
 49127  1  0  0  0
 50 51  1  0  0  0
 50128  1  0  0  0
 50129  1  0  0  0
 51 52  1  0  0  0
 51130  1  0  0  0
 51131  1  0  0  0
 52132  1  0  0  0
 52133  1  0  0  0
 53 54  1  0  0  0
 54 55  2  0  0  0
 54134  1  0  0  0
 55 57  1  0  0  0
 55135  1  0  0  0
 56 69  2  0  0  0
 57 58  2  0  0  0
 57136  1  0  0  0
 58137  1  0  0  0
 59 60  1  0  0  0
 59 61  1  0  0  0
 59 62  1  0  0  0
 60138  1  0  0  0
 60139  1  0  0  0
 60140  1  0  0  0
 61141  1  0  0  0
 61142  1  0  0  0
 61143  1  0  0  0
 62144  1  0  0  0
 62145  1  0  0  0
 62146  1  0  0  0
 63 65  1  0  0  0
 63147  1  0  0  0
 63148  1  0  0  0
 63149  1  0  0  0
 64150  1  0  0  0
 65151  1  0  0  0
 68 89  1  0  0  0
 71 73  2  0  0  0
 71 74  1  0  0  0
 71152  1  0  0  0
 72 73  1  0  0  0
 72 75  2  0  0  0
 72153  1  0  0  0
 73 81  1  0  0  0
 74 76  2  0  0  0
 74 82  1  0  0  0
 75 76  1  0  0  0
 75 83  1  0  0  0
 76 77  1  0  0  0
 77154  1  0  0  0
 77155  1  0  0  0
 77156  1  0  0  0
 78157  1  0  0  0
 78158  1  0  0  0
 78159  1  0  0  0
 78 90  1  0  0  0
 79 90  1  0  0  0
 79160  1  0  0  0
 79161  1  0  0  0
 79162  1  0  0  0
 80163  1  0  0  0
 80164  1  0  0  0
 80165  1  0  0  0
 80 92  1  0  0  0
 81 84  1  0  0  0
 81166  1  0  0  0
 81167  1  0  0  0
 82 85  1  0  0  0
 82168  1  0  0  0
 82169  1  0  0  0
 83 92  1  0  0  0
 83170  1  0  0  0
 83171  1  0  0  0
 84 89  1  0  0  0
 84172  1  0  0  0
 84173  1  0  0  0
 85 90  1  0  0  0
 85174  1  0  0  0
 85175  1  0  0  0
 86 87  1  0  0  0
 86 88  1  0  0  0
 86176  1  0  0  0
 86177  1  0  0  0
 87 91  1  0  0  0
 87178  1  0  0  0
 87179  1  0  0  0
 88 92  1  0  0  0
 88180  1  0  0  0
 88181  1  0  0  0
 89182  1  0  0  0
 89183  1  0  0  0
 90184  1  0  0  0
 91185  1  0  0  0
 92186  1  0  0  0
M  CHG  1  92   1
M  ISO  4   1 100  68 101  89 101  91 100
M  END
> <chiral flag>
0

> <version>
0

> <s_m_source_file>
/data/baiqing/PycharmProjects/Reinvent-master-3.2/result/LINK_invent/BTK/process_docking_weight1_custom_sum_contain_oxygen_bond_distance_aromatic_linkinvent_7_9_3/rearranged_h_0094.sdf

> <i_m_source_file_index>
74

> <r_mmod_Potential_Energy-OPLS-2005>
-164.319793701172

> <r_mmod_Stretch_Energy-OPLS-2005>
36.3327903747559

> <r_mmod_Bend_Energy-OPLS-2005>
101.993087768555

> <r_mmod_Torsional_Energy-OPLS-2005>
252.372131347656

> <r_mmod_Improper_Torsional_Energy-OPLS-2005>
1.99393939971924

> <r_mmod_Van_der_Waal_Energy-OPLS-2005>
151.360763549805

> <r_mmod_Electrostatic_Energy-OPLS-2005>
-287.763671875

> <r_mmod_Solvation_Energy-OPLS-2005>
-427.733215332031

> <b_mmod_Minimization_Converged-OPLS-2005>
0

> <r_mmod_RMS_Derivative-OPLS-2005>
2.335040807724

$$$$
75
                    3D
 Structure written by MMmdl.
167174  0  0  1  0            999 V2000
  -30.5347  -14.8839   20.4287 C   0  0  0  0  0  0
  -30.4335  -12.5368   19.5069 C   0  0  0  0  0  0
  -29.5203  -12.5311   18.2570 C   0  0  0  0  0  0
  -28.0473  -12.3183   18.6614 C   0  0  0  0  0  0
  -27.6314  -13.2376   19.8402 C   0  0  2  0  0  0
  -28.6626  -13.2272   20.9868 C   0  0  0  0  0  0
  -25.2462  -13.8221   20.5638 C   0  0  0  0  0  0
  -24.1741  -13.0463   20.9158 C   0  0  0  0  0  0
  -24.6355  -11.6928   20.8713 C   0  0  0  0  0  0
  -23.9038  -10.4296   21.0380 C   0  0  0  0  0  0
  -24.3612   -9.4213   21.9151 C   0  0  0  0  0  0
  -23.6291   -8.2233   22.0737 C   0  0  0  0  0  0
  -22.4279   -8.0275   21.3531 C   0  0  0  0  0  0
  -21.9888   -9.0239   20.4638 C   0  0  0  0  0  0
  -22.7218  -10.2124   20.3039 C   0  0  0  0  0  0
  -21.6860   -6.0719   22.5256 C   0  0  0  0  0  0
  -21.4022   -6.5632   23.8196 C   0  0  0  0  0  0
  -21.3652   -5.6787   24.9160 C   0  0  0  0  0  0
  -21.6036   -4.3037   24.7234 C   0  0  0  0  0  0
  -21.8823   -3.8136   23.4346 C   0  0  0  0  0  0
  -21.9198   -4.6938   22.3404 C   0  0  0  0  0  0
  -22.7761  -13.5216   21.1839 C   0  0  0  0  0  0
  -22.1668   -4.2114   21.0975 F   0  0  0  0  0  0
  -21.5638   -3.4527   25.7743 F   0  0  0  0  0  0
  -29.9548  -13.6215   20.4101 N   0  0  0  0  0  0
  -26.2855  -12.9426   20.3189 N   0  0  0  0  0  0
  -25.9274  -11.6563   20.5669 N   0  0  0  0  0  0
  -22.0444  -12.8205   22.0425 N   0  0  0  0  0  0
  -25.4260  -15.1928   20.4052 N   0  0  0  0  0  0
  -31.7190  -14.9783   20.0884 O   0  0  0  0  0  0
  -21.6643   -6.8863   21.4229 O   0  0  0  0  0  0
  -22.3412  -14.5501   20.6669 O   0  0  0  0  0  0
  -24.6427  -31.8431   23.1872 C   0  0  0  0  0  0
  -25.9228  -32.4650   23.8266 C   0  0  1  0  0  0
  -27.2120  -27.1432   20.1391 C   0  0  0  0  0  0
  -25.6010  -33.8465   24.2204 N   0  0  0  0  0  0
  -23.4430  -30.4577   21.5317 C   0  0  2  0  0  0
  -24.8926  -28.8831   20.1006 C   0  0  0  0  0  0
  -22.7580  -29.4512   22.4893 C   0  0  0  0  0  0
  -18.0311  -28.1373   22.8467 C   0  0  0  0  0  0
  -24.1504  -36.7211   23.2638 C   0  0  0  0  0  0
  -25.9977  -30.7101   21.3908 C   0  0  0  0  0  0
  -26.0650  -29.3264   20.7239 C   0  0  0  0  0  0
  -27.2216  -28.4675   20.7325 C   0  0  0  0  0  0
  -26.0147  -26.7855   19.4849 C   0  0  0  0  0  0
  -24.8773  -27.6251   19.4715 C   0  0  0  0  0  0
  -23.6691  -29.7824   20.1498 C   0  0  0  0  0  0
  -25.4130  -36.2995   24.0319 C   0  0  1  0  0  0
  -20.5916  -28.3679   23.1252 C   0  0  2  0  0  0
  -20.6792  -26.9391   22.5402 C   0  0  0  0  0  0
  -19.5771  -26.6366   21.5197 C   0  0  0  0  0  0
  -18.1949  -26.7898   22.1608 C   0  0  0  0  0  0
  -19.1563  -28.8839   23.2823 C   0  0  0  0  0  0
  -18.9496  -30.1468   23.8823 C   0  0  0  0  0  0
  -17.6490  -30.6572   24.0534 C   0  0  0  0  0  0
  -25.9086  -34.9382   23.5067 C   0  0  0  0  0  0
  -16.5380  -29.9063   23.6335 C   0  0  0  0  0  0
  -16.7286  -28.6476   23.0331 C   0  0  0  0  0  0
  -26.4571  -31.6508   25.0709 C   0  0  0  0  0  0
  -25.3786  -31.3716   26.1433 C   0  0  0  0  0  0
  -27.0449  -30.2884   24.6337 C   0  0  0  0  0  0
  -27.6114  -32.4289   25.7464 C   0  0  0  0  0  0
  -27.5584  -37.1744   24.8471 C   0  0  0  0  0  0
  -21.4278  -29.2997   22.3644 N   0  0  0  0  0  0
  -26.4284  -37.3715   23.9433 N   0  0  0  0  0  0
  -24.7126  -31.0269   22.0895 N   0  0  0  0  0  0
  -23.4249  -28.8116   23.3061 O   0  0  0  0  0  0
  -28.2880  -26.1996   20.2530 O   0  0  0  0  0  0
  -26.5673  -34.8889   22.4634 O   0  0  0  0  0  0
  -23.5560  -32.1349   23.7086 O   0  0  0  0  0  0
  -28.0975  -22.2809   15.2926 C   0  0  0  0  0  0
  -29.6247  -20.3126   15.4381 C   0  0  0  0  0  0
  -27.1482  -19.9992   15.7741 C   0  0  0  0  0  0
  -28.0463  -23.2565   20.2667 C   0  0  0  0  0  0
  -29.0446  -21.8966   20.4291 C   0  0  0  0  0  0
  -28.9994  -20.1000   18.4253 C   0  0  0  0  0  0
  -28.4881  -21.2456   17.5311 C   0  0  0  0  0  0
  -29.2354  -18.9075   20.7487 C   0  0  0  0  0  0
  -29.9111  -17.5136   20.0852 C   0  0  0  0  0  0
  -28.4007  -24.7777   19.6446 C   0  0  0  0  0  0
  -28.7465  -20.3095   19.9371 C   0  0  1  0  0  0
  -28.3446  -20.9416   16.0176 C   0  0  0  0  0  0
  -29.7401  -16.0420   20.6134 N   0  0  0  0  0  0
  -31.4714  -12.6844   19.2029 H   0  0  0  0  0  0
  -30.4070  -11.5696   20.0152 H   0  0  0  0  0  0
  -29.8407  -11.7612   17.5533 H   0  0  0  0  0  0
  -29.6166  -13.4842   17.7318 H   0  0  0  0  0  0
  -27.9239  -11.2733   18.9474 H   0  0  0  0  0  0
  -27.3908  -12.4825   17.8054 H   0  0  0  0  0  0
  -27.6134  -14.2480   19.4312 H   0  0  0  0  0  0
  -28.7128  -12.2433   21.4538 H   0  0  0  0  0  0
  -28.3618  -13.9231   21.7721 H   0  0  0  0  0  0
  -25.2781   -9.5688   22.4692 H   0  0  0  0  0  0
  -24.0021   -7.4624   22.7436 H   0  0  0  0  0  0
  -21.0836   -8.8750   19.8932 H   0  0  0  0  0  0
  -22.3689  -10.9645   19.6111 H   0  0  0  0  0  0
  -21.2028   -7.6149   23.9687 H   0  0  0  0  0  0
  -21.1463   -6.0523   25.9060 H   0  0  0  0  0  0
  -22.0621   -2.7598   23.2855 H   0  0  0  0  0  0
  -22.4139  -11.9932   22.4877 H   0  0  0  0  0  0
  -21.1021  -13.1153   22.2595 H   0  0  0  0  0  0
  -24.6732  -15.8668   20.5037 H   0  0  0  0  0  0
  -26.2865  -15.6099   20.0771 H   0  0  0  0  0  0
  -26.7280  -32.5244   23.0974 H   0  0  0  0  0  0
  -25.0156  -33.9565   25.0358 H   0  0  0  0  0  0
  -22.7387  -31.2788   21.3772 H   0  0  0  0  0  0
  -23.3784  -35.9520   23.3270 H   0  0  0  0  0  0
  -24.3596  -36.8865   22.2055 H   0  0  0  0  0  0
  -23.7247  -37.6390   23.6697 H   0  0  0  0  0  0
  -26.1785  -31.4735   20.6343 H   0  0  0  0  0  0
  -26.8553  -30.7392   22.0494 H   0  0  0  0  0  0
  -28.1120  -28.7928   21.2519 H   0  0  0  0  0  0
  -25.9215  -25.8135   19.0217 H   0  0  0  0  0  0
  -23.9746  -27.2765   18.9915 H   0  0  0  0  0  0
  -23.8019  -30.5554   19.3916 H   0  0  0  0  0  0
  -22.7833  -29.2219   19.8448 H   0  0  0  0  0  0
  -25.1312  -36.1787   25.0805 H   0  0  0  0  0  0
  -20.9954  -28.3238   24.1389 H   0  0  0  0  0  0
  -20.5667  -26.2286   23.3613 H   0  0  0  0  0  0
  -21.6667  -26.7399   22.1221 H   0  0  0  0  0  0
  -19.6939  -25.6275   21.1237 H   0  0  0  0  0  0
  -19.6709  -27.3169   20.6727 H   0  0  0  0  0  0
  -17.4221  -26.6632   21.4006 H   0  0  0  0  0  0
  -18.0354  -26.0058   22.9030 H   0  0  0  0  0  0
  -19.7970  -30.7306   24.2125 H   0  0  0  0  0  0
  -17.5041  -31.6236   24.5187 H   0  0  0  0  0  0
  -15.5366  -30.2927   23.7709 H   0  0  0  0  0  0
  -15.8697  -28.0791   22.7052 H   0  0  0  0  0  0
  -24.5934  -30.7081   25.7772 H   0  0  0  0  0  0
  -24.9028  -32.2913   26.4836 H   0  0  0  0  0  0
  -25.8109  -30.8900   27.0214 H   0  0  0  0  0  0
  -26.3086  -29.6556   24.1361 H   0  0  0  0  0  0
  -27.4047  -29.7219   25.4936 H   0  0  0  0  0  0
  -27.9007  -30.4072   23.9691 H   0  0  0  0  0  0
  -27.2705  -33.3599   26.2001 H   0  0  0  0  0  0
  -28.3925  -32.6825   25.0281 H   0  0  0  0  0  0
  -28.0799  -31.8449   26.5400 H   0  0  0  0  0  0
  -28.2570  -38.0073   24.7551 H   0  0  0  0  0  0
  -28.1116  -36.2600   24.6249 H   0  0  0  0  0  0
  -27.2320  -37.1322   25.8879 H   0  0  0  0  0  0
  -20.9529  -29.8648   21.6759 H   0  0  0  0  0  0
  -26.0138  -38.2775   24.1428 H   0  0  0  0  0  0
  -27.9883  -22.1536   14.2146 H   0  0  0  0  0  0
  -28.9354  -22.9619   15.4468 H   0  0  0  0  0  0
  -27.2031  -22.7884   15.6539 H   0  0  0  0  0  0
  -29.5203  -20.0931   14.3737 H   0  0  0  0  0  0
  -29.8776  -19.3703   15.9244 H   0  0  0  0  0  0
  -30.4755  -20.9859   15.5475 H   0  0  0  0  0  0
  -26.9401  -19.8785   14.7098 H   0  0  0  0  0  0
  -26.2378  -20.3775   16.2418 H   0  0  0  0  0  0
  -27.3217  -19.0005   16.1766 H   0  0  0  0  0  0
  -27.6272  -23.4459   21.2549 H   0  0  0  0  0  0
  -27.1710  -22.9250   19.7076 H   0  0  0  0  0  0
  -29.1598  -21.8101   21.5104 H   0  0  0  0  0  0
  -30.0489  -22.1582   20.0963 H   0  0  0  0  0  0
  -30.0644  -19.9392   18.2443 H   0  0  0  0  0  0
  -28.5024  -19.1746   18.1319 H   0  0  0  0  0  0
  -29.1552  -22.0981   17.6701 H   0  0  0  0  0  0
  -27.5171  -21.5711   17.9017 H   0  0  0  0  0  0
  -29.9080  -19.2161   21.5500 H   0  0  0  0  0  0
  -28.3458  -18.5703   21.2812 H   0  0  0  0  0  0
  -30.9859  -17.6912   20.0302 H   0  0  0  0  0  0
  -29.5978  -17.4461   19.0456 H   0  0  0  0  0  0
  -27.9004  -24.8308   18.6782 H   0  0  0  0  0  0
  -29.4520  -24.7193   19.3599 H   0  0  0  0  0  0
  -27.6619  -20.2659   20.0304 H   0  0  0  0  0  0
  -28.8122  -15.8326   20.9518 H   0  0  0  0  0  0
  1 25  1  0  0  0
  1 30  2  0  0  0
  1 83  1  0  0  0
  2  3  1  0  0  0
  2 25  1  0  0  0
  2 84  1  0  0  0
  2 85  1  0  0  0
  3  4  1  0  0  0
  3 86  1  0  0  0
  3 87  1  0  0  0
  4  5  1  0  0  0
  4 88  1  0  0  0
  4 89  1  0  0  0
  5  6  1  0  0  0
  5 26  1  0  0  0
  5 90  1  0  0  0
  6 25  1  0  0  0
  6 91  1  0  0  0
  6 92  1  0  0  0
  7  8  2  0  0  0
  7 26  1  0  0  0
  7 29  1  0  0  0
  8  9  1  0  0  0
  8 22  1  0  0  0
  9 10  1  0  0  0
  9 27  2  0  0  0
 10 11  2  0  0  0
 10 15  1  0  0  0
 11 12  1  0  0  0
 11 93  1  0  0  0
 12 13  2  0  0  0
 12 94  1  0  0  0
 13 14  1  0  0  0
 13 31  1  0  0  0
 14 15  2  0  0  0
 14 95  1  0  0  0
 15 96  1  0  0  0
 16 17  2  0  0  0
 16 21  1  0  0  0
 16 31  1  0  0  0
 17 18  1  0  0  0
 17 97  1  0  0  0
 18 19  2  0  0  0
 18 98  1  0  0  0
 19 20  1  0  0  0
 19 24  1  0  0  0
 20 21  2  0  0  0
 20 99  1  0  0  0
 21 23  1  0  0  0
 22 28  1  0  0  0
 22 32  2  0  0  0
 26 27  1  0  0  0
 28100  1  0  0  0
 28101  1  0  0  0
 29102  1  0  0  0
 29103  1  0  0  0
 33 34  1  0  0  0
 33 66  1  0  0  0
 33 70  2  0  0  0
 34 36  1  0  0  0
 34 59  1  0  0  0
 34104  1  0  0  0
 35 44  2  0  0  0
 35 45  1  0  0  0
 35 68  1  0  0  0
 36 56  1  0  0  0
 36105  1  0  0  0
 37 39  1  0  0  0
 37 47  1  0  0  0
 37 66  1  0  0  0
 37106  1  0  0  0
 38 43  2  0  0  0
 38 46  1  0  0  0
 38 47  1  0  0  0
 39 64  1  0  0  0
 39 67  2  0  0  0
 40 52  1  0  0  0
 40 53  2  0  0  0
 40 58  1  0  0  0
 41107  1  0  0  0
 41108  1  0  0  0
 41109  1  0  0  0
 41 48  1  0  0  0
 42 43  1  0  0  0
 42 66  1  0  0  0
 42110  1  0  0  0
 42111  1  0  0  0
 43 44  1  0  0  0
 44112  1  0  0  0
 45 46  2  0  0  0
 45113  1  0  0  0
 46114  1  0  0  0
 47115  1  0  0  0
 47116  1  0  0  0
 48 56  1  0  0  0
 48 65  1  0  0  0
 48117  1  0  0  0
 49 50  1  0  0  0
 49 53  1  0  0  0
 49 64  1  0  0  0
 49118  1  0  0  0
 50 51  1  0  0  0
 50119  1  0  0  0
 50120  1  0  0  0
 51 52  1  0  0  0
 51121  1  0  0  0
 51122  1  0  0  0
 52123  1  0  0  0
 52124  1  0  0  0
 53 54  1  0  0  0
 54 55  2  0  0  0
 54125  1  0  0  0
 55 57  1  0  0  0
 55126  1  0  0  0
 56 69  2  0  0  0
 57 58  2  0  0  0
 57127  1  0  0  0
 58128  1  0  0  0
 59 60  1  0  0  0
 59 61  1  0  0  0
 59 62  1  0  0  0
 60129  1  0  0  0
 60130  1  0  0  0
 60131  1  0  0  0
 61132  1  0  0  0
 61133  1  0  0  0
 61134  1  0  0  0
 62135  1  0  0  0
 62136  1  0  0  0
 62137  1  0  0  0
 63 65  1  0  0  0
 63138  1  0  0  0
 63139  1  0  0  0
 63140  1  0  0  0
 64141  1  0  0  0
 65142  1  0  0  0
 68 80  1  0  0  0
 71143  1  0  0  0
 71144  1  0  0  0
 71145  1  0  0  0
 71 82  1  0  0  0
 72 82  1  0  0  0
 72146  1  0  0  0
 72147  1  0  0  0
 72148  1  0  0  0
 73 82  1  0  0  0
 73149  1  0  0  0
 73150  1  0  0  0
 73151  1  0  0  0
 74 75  1  0  0  0
 74 80  1  0  0  0
 74152  1  0  0  0
 74153  1  0  0  0
 75154  1  0  0  0
 75155  1  0  0  0
 75 81  1  0  0  0
 76 77  1  0  0  0
 76 81  1  0  0  0
 76156  1  0  0  0
 76157  1  0  0  0
 77 82  1  0  0  0
 77158  1  0  0  0
 77159  1  0  0  0
 78 79  1  0  0  0
 78 81  1  0  0  0
 78160  1  0  0  0
 78161  1  0  0  0
 79 83  1  0  0  0
 79162  1  0  0  0
 79163  1  0  0  0
 80164  1  0  0  0
 80165  1  0  0  0
 81166  1  0  0  0
 83167  1  0  0  0
M  ISO  4   1 100  68 101  80 101  83 100
M  END
> <chiral flag>
0

> <version>
0

> <s_m_source_file>
/data/baiqing/PycharmProjects/Reinvent-master-3.2/result/LINK_invent/BTK/process_docking_weight1_custom_sum_contain_oxygen_bond_distance_aromatic_linkinvent_7_9_3/rearranged_h_0094.sdf

> <i_m_source_file_index>
75

> <r_mmod_Potential_Energy-OPLS-2005>
553.911560058594

> <r_mmod_Stretch_Energy-OPLS-2005>
263.368591308594

> <r_mmod_Bend_Energy-OPLS-2005>
312.192993164062

> <r_mmod_Torsional_Energy-OPLS-2005>
266.115600585938

> <r_mmod_Improper_Torsional_Energy-OPLS-2005>
5.64758634567261

> <r_mmod_Van_der_Waal_Energy-OPLS-2005>
112.303405761719

> <r_mmod_Electrostatic_Energy-OPLS-2005>
-376.305969238281

> <r_mmod_Solvation_Energy-OPLS-2005>
-195.623794555664

> <b_mmod_Minimization_Converged-OPLS-2005>
0

> <r_mmod_RMS_Derivative-OPLS-2005>
5.03628015518188

$$$$
76
                    3D
 Structure written by MMmdl.
172180  0  0  1  0            999 V2000
  -30.6681  -14.5116   20.5716 C   0  0  0  0  0  0
  -30.4266  -12.3361   19.4200 C   0  0  0  0  0  0
  -29.4969  -12.5304   18.2014 C   0  0  0  0  0  0
  -28.0176  -12.3770   18.6095 C   0  0  0  0  0  0
  -27.6600  -13.2043   19.8734 C   0  0  2  0  0  0
  -28.7034  -12.9846   20.9946 C   0  0  0  0  0  0
  -25.2570  -13.8127   20.5603 C   0  0  0  0  0  0
  -24.1842  -13.0392   20.9124 C   0  0  0  0  0  0
  -24.6414  -11.6870   20.8704 C   0  0  0  0  0  0
  -23.9076  -10.4262   21.0407 C   0  0  0  0  0  0
  -24.3645   -9.4182   21.9179 C   0  0  0  0  0  0
  -23.6319   -8.2216   22.0762 C   0  0  0  0  0  0
  -22.4286   -8.0281   21.3552 C   0  0  0  0  0  0
  -21.9908   -9.0239   20.4644 C   0  0  0  0  0  0
  -22.7251  -10.2111   20.3055 C   0  0  0  0  0  0
  -21.6846   -6.0733   22.5279 C   0  0  0  0  0  0
  -21.4002   -6.5625   23.8213 C   0  0  0  0  0  0
  -21.3676   -5.6778   24.9165 C   0  0  0  0  0  0
  -21.6072   -4.3036   24.7230 C   0  0  0  0  0  0
  -21.8821   -3.8142   23.4339 C   0  0  0  0  0  0
  -21.9187   -4.6958   22.3397 C   0  0  0  0  0  0
  -22.7872  -13.5183   21.1851 C   0  0  0  0  0  0
  -22.1652   -4.2162   21.0967 F   0  0  0  0  0  0
  -21.5683   -3.4513   25.7737 F   0  0  0  0  0  0
  -30.0277  -13.3167   20.4412 N   0  0  0  0  0  0
  -26.3014  -12.9302   20.3308 N   0  0  0  0  0  0
  -25.9350  -11.6452   20.5732 N   0  0  0  0  0  0
  -22.0542  -12.8184   22.0436 N   0  0  0  0  0  0
  -25.4196  -15.1867   20.4044 N   0  0  0  0  0  0
  -31.8000  -14.7192   20.1226 O   0  0  0  0  0  0
  -21.6664   -6.8871   21.4243 O   0  0  0  0  0  0
  -22.3552  -14.5503   20.6720 O   0  0  0  0  0  0
  -24.6142  -31.8676   23.2078 C   0  0  0  0  0  0
  -25.9031  -32.4821   23.8382 C   0  0  1  0  0  0
  -27.2324  -27.4218   20.1266 C   0  0  0  0  0  0
  -25.5879  -33.8618   24.2306 N   0  0  0  0  0  0
  -23.4036  -30.4893   21.5484 C   0  0  2  0  0  0
  -24.8538  -28.9580   20.1086 C   0  0  0  0  0  0
  -22.7412  -29.4652   22.4987 C   0  0  0  0  0  0
  -18.0271  -28.1367   22.8497 C   0  0  0  0  0  0
  -24.1483  -36.7321   23.2630 C   0  0  0  0  0  0
  -25.9304  -30.8378   21.3562 C   0  0  0  0  0  0
  -26.0136  -29.4697   20.7062 C   0  0  0  0  0  0
  -27.2095  -28.7122   20.7070 C   0  0  0  0  0  0
  -26.0614  -26.9306   19.5156 C   0  0  0  0  0  0
  -24.8745  -27.6883   19.5028 C   0  0  0  0  0  0
  -23.6117  -29.8210   20.1619 C   0  0  0  0  0  0
  -25.4102  -36.3110   24.0329 C   0  0  1  0  0  0
  -20.5860  -28.3646   23.1321 C   0  0  2  0  0  0
  -20.6759  -26.9385   22.5418 C   0  0  0  0  0  0
  -19.5728  -26.6372   21.5222 C   0  0  0  0  0  0
  -18.1910  -26.7914   22.1636 C   0  0  0  0  0  0
  -19.1520  -28.8829   23.2908 C   0  0  0  0  0  0
  -18.9449  -30.1444   23.8899 C   0  0  0  0  0  0
  -17.6448  -30.6573   24.0568 C   0  0  0  0  0  0
  -25.9036  -34.9476   23.5121 C   0  0  0  0  0  0
  -16.5344  -29.9073   23.6324 C   0  0  0  0  0  0
  -16.7265  -28.6502   23.0337 C   0  0  0  0  0  0
  -26.4446  -31.6593   25.0707 C   0  0  0  0  0  0
  -25.3721  -31.3705   26.1461 C   0  0  0  0  0  0
  -27.0252  -30.3033   24.6069 C   0  0  0  0  0  0
  -27.6022  -32.4299   25.7483 C   0  0  0  0  0  0
  -27.5576  -37.1807   24.8455 C   0  0  0  0  0  0
  -21.4142  -29.3019   22.3730 N   0  0  0  0  0  0
  -26.4285  -37.3798   23.9410 N   0  0  0  0  0  0
  -24.6680  -31.0791   22.0964 N   0  0  0  0  0  0
  -23.4183  -28.8189   23.3028 O   0  0  0  0  0  0
  -28.3618  -26.6293   20.1595 O   0  0  0  0  0  0
  -26.5614  -34.8937   22.4690 O   0  0  0  0  0  0
  -23.5329  -32.1413   23.7478 O   0  0  0  0  0  0
  -30.8554  -20.1007   20.1965 C   0  0  0  0  0  0
  -28.8447  -20.4301   21.0691 C   0  0  0  0  0  0
  -29.6621  -19.4320   20.5904 C   0  0  0  0  0  0
  -30.7248  -21.4512   20.4001 C   0  0  0  0  0  0
  -33.9963  -24.0304   22.8639 C   0  0  0  0  0  0
  -32.9118  -21.7520   23.0174 C   0  0  0  0  0  0
  -31.7309  -22.5065   20.0412 C   0  0  0  0  0  0
  -32.2270  -23.4330   21.1712 C   0  0  0  0  0  0
  -28.8499  -24.1727   20.4399 C   0  0  0  0  0  0
  -28.8520  -22.9505   21.4193 C   0  0  0  0  0  0
  -30.2600  -16.9492   21.2352 C   0  0  0  0  0  0
  -28.2607  -25.4817   21.0397 C   0  0  0  0  0  0
  -29.3494  -17.9333   20.4254 C   0  0  2  0  0  0
  -33.3586  -22.8787   22.0658 C   0  0  0  0  0  0
  -29.4575  -21.6797   20.9447 N   0  0  0  0  0  0
  -29.9106  -15.5144   21.0633 N   0  0  0  0  0  0
  -29.3628  -17.6201   18.9899 N   0  3  0  0  0  0
  -31.4711  -12.4391   19.1230 H   0  0  0  0  0  0
  -30.3329  -11.3254   19.8218 H   0  0  0  0  0  0
  -29.7434  -11.8150   17.4167 H   0  0  0  0  0  0
  -29.6578  -13.5209   17.7721 H   0  0  0  0  0  0
  -27.8384  -11.3182   18.8019 H   0  0  0  0  0  0
  -27.3649  -12.6527   17.7792 H   0  0  0  0  0  0
  -27.6948  -14.2548   19.5886 H   0  0  0  0  0  0
  -28.6982  -11.9446   21.3272 H   0  0  0  0  0  0
  -28.4598  -13.5709   21.8808 H   0  0  0  0  0  0
  -25.2815   -9.5650   22.4720 H   0  0  0  0  0  0
  -24.0037   -7.4606   22.7459 H   0  0  0  0  0  0
  -21.0860   -8.8769   19.8910 H   0  0  0  0  0  0
  -22.3752  -10.9666   19.6166 H   0  0  0  0  0  0
  -21.1957   -7.6132   23.9702 H   0  0  0  0  0  0
  -21.1519   -6.0511   25.9060 H   0  0  0  0  0  0
  -22.0587   -2.7606   23.2838 H   0  0  0  0  0  0
  -22.4160  -11.9800   22.4754 H   0  0  0  0  0  0
  -21.1161  -13.1183   22.2674 H   0  0  0  0  0  0
  -24.6347  -15.8210   20.5097 H   0  0  0  0  0  0
  -26.2566  -15.6421   20.0668 H   0  0  0  0  0  0
  -26.7129  -32.5531   23.1174 H   0  0  0  0  0  0
  -24.9998  -33.9789   25.0426 H   0  0  0  0  0  0
  -22.6905  -31.3046   21.4091 H   0  0  0  0  0  0
  -23.3749  -35.9648   23.3273 H   0  0  0  0  0  0
  -24.3591  -36.8962   22.2051 H   0  0  0  0  0  0
  -23.7244  -37.6514   23.6676 H   0  0  0  0  0  0
  -26.0325  -31.6042   20.5855 H   0  0  0  0  0  0
  -26.8194  -30.8966   21.9722 H   0  0  0  0  0  0
  -28.1005  -29.1070   21.1744 H   0  0  0  0  0  0
  -26.0663  -25.9489   19.0663 H   0  0  0  0  0  0
  -23.9866  -27.2862   19.0345 H   0  0  0  0  0  0
  -23.7081  -30.5940   19.3978 H   0  0  0  0  0  0
  -22.7374  -29.2345   19.8756 H   0  0  0  0  0  0
  -25.1286  -36.1951   25.0825 H   0  0  0  0  0  0
  -20.9964  -28.3215   24.1438 H   0  0  0  0  0  0
  -20.5648  -26.2272   23.3611 H   0  0  0  0  0  0
  -21.6634  -26.7407   22.1219 H   0  0  0  0  0  0
  -19.6881  -25.6285   21.1248 H   0  0  0  0  0  0
  -19.6667  -27.3196   20.6768 H   0  0  0  0  0  0
  -17.4185  -26.6664   21.4038 H   0  0  0  0  0  0
  -18.0301  -26.0055   22.9024 H   0  0  0  0  0  0
  -19.7926  -30.7269   24.2257 H   0  0  0  0  0  0
  -17.5000  -31.6255   24.5152 H   0  0  0  0  0  0
  -15.5342  -30.2970   23.7644 H   0  0  0  0  0  0
  -15.8672  -28.0833   22.7015 H   0  0  0  0  0  0
  -24.5901  -30.7044   25.7815 H   0  0  0  0  0  0
  -24.8911  -32.2855   26.4916 H   0  0  0  0  0  0
  -25.8070  -30.8877   27.0217 H   0  0  0  0  0  0
  -26.2787  -29.6834   24.1096 H   0  0  0  0  0  0
  -27.3985  -29.7231   25.4515 H   0  0  0  0  0  0
  -27.8640  -30.4339   23.9231 H   0  0  0  0  0  0
  -27.2649  -33.3595   26.2081 H   0  0  0  0  0  0
  -28.3838  -32.6855   25.0317 H   0  0  0  0  0  0
  -28.0688  -31.8408   26.5387 H   0  0  0  0  0  0
  -28.2576  -38.0121   24.7530 H   0  0  0  0  0  0
  -28.1091  -36.2657   24.6238 H   0  0  0  0  0  0
  -27.2306  -37.1407   25.8860 H   0  0  0  0  0  0
  -20.9286  -29.8779   21.6992 H   0  0  0  0  0  0
  -26.0158  -38.2863   24.1437 H   0  0  0  0  0  0
  -31.7316  -19.6425   19.7585 H   0  0  0  0  0  0
  -27.8469  -20.3545   21.4860 H   0  0  0  0  0  0
  -34.8100  -23.6777   23.4994 H   0  0  0  0  0  0
  -33.2702  -24.5306   23.5042 H   0  0  0  0  0  0
  -34.4092  -24.7904   22.2009 H   0  0  0  0  0  0
  -33.7560  -21.3729   23.5972 H   0  0  0  0  0  0
  -32.4922  -20.8996   22.4837 H   0  0  0  0  0  0
  -32.1587  -22.0944   23.7264 H   0  0  0  0  0  0
  -31.3215  -23.1107   19.2318 H   0  0  0  0  0  0
  -32.5956  -22.0200   19.5867 H   0  0  0  0  0  0
  -31.4073  -23.8169   21.7737 H   0  0  0  0  0  0
  -32.6274  -24.3133   20.6649 H   0  0  0  0  0  0
  -28.3051  -23.9107   19.5350 H   0  0  0  0  0  0
  -29.8608  -24.4090   20.1296 H   0  0  0  0  0  0
  -27.8193  -22.7400   21.7047 H   0  0  0  0  0  0
  -29.3487  -23.2120   22.3542 H   0  0  0  0  0  0
  -30.1717  -17.1800   22.2972 H   0  0  0  0  0  0
  -31.3093  -17.1203   20.9928 H   0  0  0  0  0  0
  -28.8042  -25.7263   21.9530 H   0  0  0  0  0  0
  -27.2325  -25.2988   21.3611 H   0  0  0  0  0  0
  -28.3210  -17.7911   20.7633 H   0  0  0  0  0  0
  -34.1265  -22.4672   21.4077 H   0  0  0  0  0  0
  -28.9920  -15.2356   21.3789 H   0  0  0  0  0  0
  -29.0257  -16.6929   18.8147 H   0  0  0  0  0  0
  -30.2975  -17.7044   18.6293 H   0  0  0  0  0  0
  -28.7767  -18.2746   18.5038 H   0  0  0  0  0  0
  1 25  1  0  0  0
  1 30  2  0  0  0
  1 86  1  0  0  0
  2  3  1  0  0  0
  2 25  1  0  0  0
  2 88  1  0  0  0
  2 89  1  0  0  0
  3  4  1  0  0  0
  3 90  1  0  0  0
  3 91  1  0  0  0
  4  5  1  0  0  0
  4 92  1  0  0  0
  4 93  1  0  0  0
  5  6  1  0  0  0
  5 26  1  0  0  0
  5 94  1  0  0  0
  6 25  1  0  0  0
  6 95  1  0  0  0
  6 96  1  0  0  0
  7  8  2  0  0  0
  7 26  1  0  0  0
  7 29  1  0  0  0
  8  9  1  0  0  0
  8 22  1  0  0  0
  9 10  1  0  0  0
  9 27  2  0  0  0
 10 11  2  0  0  0
 10 15  1  0  0  0
 11 12  1  0  0  0
 11 97  1  0  0  0
 12 13  2  0  0  0
 12 98  1  0  0  0
 13 14  1  0  0  0
 13 31  1  0  0  0
 14 15  2  0  0  0
 14 99  1  0  0  0
 15100  1  0  0  0
 16 17  2  0  0  0
 16 21  1  0  0  0
 16 31  1  0  0  0
 17 18  1  0  0  0
 17101  1  0  0  0
 18 19  2  0  0  0
 18102  1  0  0  0
 19 20  1  0  0  0
 19 24  1  0  0  0
 20 21  2  0  0  0
 20103  1  0  0  0
 21 23  1  0  0  0
 22 28  1  0  0  0
 22 32  2  0  0  0
 26 27  1  0  0  0
 28104  1  0  0  0
 28105  1  0  0  0
 29106  1  0  0  0
 29107  1  0  0  0
 33 34  1  0  0  0
 33 66  1  0  0  0
 33 70  2  0  0  0
 34 36  1  0  0  0
 34 59  1  0  0  0
 34108  1  0  0  0
 35 44  2  0  0  0
 35 45  1  0  0  0
 35 68  1  0  0  0
 36 56  1  0  0  0
 36109  1  0  0  0
 37 39  1  0  0  0
 37 47  1  0  0  0
 37 66  1  0  0  0
 37110  1  0  0  0
 38 43  2  0  0  0
 38 46  1  0  0  0
 38 47  1  0  0  0
 39 64  1  0  0  0
 39 67  2  0  0  0
 40 52  1  0  0  0
 40 53  2  0  0  0
 40 58  1  0  0  0
 41111  1  0  0  0
 41112  1  0  0  0
 41113  1  0  0  0
 41 48  1  0  0  0
 42 43  1  0  0  0
 42 66  1  0  0  0
 42114  1  0  0  0
 42115  1  0  0  0
 43 44  1  0  0  0
 44116  1  0  0  0
 45 46  2  0  0  0
 45117  1  0  0  0
 46118  1  0  0  0
 47119  1  0  0  0
 47120  1  0  0  0
 48 56  1  0  0  0
 48 65  1  0  0  0
 48121  1  0  0  0
 49 50  1  0  0  0
 49 53  1  0  0  0
 49 64  1  0  0  0
 49122  1  0  0  0
 50 51  1  0  0  0
 50123  1  0  0  0
 50124  1  0  0  0
 51 52  1  0  0  0
 51125  1  0  0  0
 51126  1  0  0  0
 52127  1  0  0  0
 52128  1  0  0  0
 53 54  1  0  0  0
 54 55  2  0  0  0
 54129  1  0  0  0
 55 57  1  0  0  0
 55130  1  0  0  0
 56 69  2  0  0  0
 57 58  2  0  0  0
 57131  1  0  0  0
 58132  1  0  0  0
 59 60  1  0  0  0
 59 61  1  0  0  0
 59 62  1  0  0  0
 60133  1  0  0  0
 60134  1  0  0  0
 60135  1  0  0  0
 61136  1  0  0  0
 61137  1  0  0  0
 61138  1  0  0  0
 62139  1  0  0  0
 62140  1  0  0  0
 62141  1  0  0  0
 63 65  1  0  0  0
 63142  1  0  0  0
 63143  1  0  0  0
 63144  1  0  0  0
 64145  1  0  0  0
 65146  1  0  0  0
 68 82  1  0  0  0
 71 73  1  0  0  0
 71 74  2  0  0  0
 71147  1  0  0  0
 72 73  2  0  0  0
 72 85  1  0  0  0
 72148  1  0  0  0
 73 83  1  0  0  0
 74 77  1  0  0  0
 74 85  1  0  0  0
 75149  1  0  0  0
 75150  1  0  0  0
 75151  1  0  0  0
 75 84  1  0  0  0
 76 84  1  0  0  0
 76152  1  0  0  0
 76153  1  0  0  0
 76154  1  0  0  0
 77 78  1  0  0  0
 77155  1  0  0  0
 77156  1  0  0  0
 78 84  1  0  0  0
 78157  1  0  0  0
 78158  1  0  0  0
 79 80  1  0  0  0
 79 82  1  0  0  0
 79159  1  0  0  0
 79160  1  0  0  0
 80 85  1  0  0  0
 80161  1  0  0  0
 80162  1  0  0  0
 81 83  1  0  0  0
 81 86  1  0  0  0
 81163  1  0  0  0
 81164  1  0  0  0
 82165  1  0  0  0
 82166  1  0  0  0
 83 87  1  0  0  0
 83167  1  0  0  0
 84168  1  0  0  0
 86169  1  0  0  0
 87170  1  0  0  0
 87171  1  0  0  0
 87172  1  0  0  0
M  CHG  1  87   1
M  ISO  4   1 100  68 101  82 101  86 100
M  END
> <chiral flag>
0

> <version>
0

> <s_m_source_file>
/data/baiqing/PycharmProjects/Reinvent-master-3.2/result/LINK_invent/BTK/process_docking_weight1_custom_sum_contain_oxygen_bond_distance_aromatic_linkinvent_7_9_3/rearranged_h_0094.sdf

> <i_m_source_file_index>
76

> <r_mmod_Potential_Energy-OPLS-2005>
-362.45068359375

> <r_mmod_Stretch_Energy-OPLS-2005>
45.3703651428223

> <r_mmod_Bend_Energy-OPLS-2005>
116.9375

> <r_mmod_Torsional_Energy-OPLS-2005>
269.815490722656

> <r_mmod_Improper_Torsional_Energy-OPLS-2005>
4.52402687072754

> <r_mmod_Van_der_Waal_Energy-OPLS-2005>
116.89990234375

> <r_mmod_Electrostatic_Energy-OPLS-2005>
-451.002319335938

> <r_mmod_Solvation_Energy-OPLS-2005>
-482.675476074219

> <b_mmod_Minimization_Converged-OPLS-2005>
0

> <r_mmod_RMS_Derivative-OPLS-2005>
4.43304681777954

$$$$
77
                    3D
 Structure written by MMmdl.
163171  0  0  1  0            999 V2000
  -30.6331  -14.7285   20.4796 C   0  0  0  0  0  0
  -30.4297  -12.4549   19.4583 C   0  0  0  0  0  0
  -29.5035  -12.5198   18.2250 C   0  0  0  0  0  0
  -28.0299  -12.3484   18.6386 C   0  0  0  0  0  0
  -27.6413  -13.2337   19.8527 C   0  0  2  0  0  0
  -28.6880  -13.1573   20.9847 C   0  0  0  0  0  0
  -25.2515  -13.8212   20.5694 C   0  0  0  0  0  0
  -24.1795  -13.0443   20.9220 C   0  0  0  0  0  0
  -24.6389  -11.6939   20.8758 C   0  0  0  0  0  0
  -23.9045  -10.4306   21.0414 C   0  0  0  0  0  0
  -24.3604   -9.4235   21.9191 C   0  0  0  0  0  0
  -23.6299   -8.2260   22.0757 C   0  0  0  0  0  0
  -22.4288   -8.0298   21.3559 C   0  0  0  0  0  0
  -21.9909   -9.0255   20.4652 C   0  0  0  0  0  0
  -22.7227  -10.2148   20.3062 C   0  0  0  0  0  0
  -21.6852   -6.0745   22.5283 C   0  0  0  0  0  0
  -21.4014   -6.5649   23.8220 C   0  0  0  0  0  0
  -21.3653   -5.6795   24.9177 C   0  0  0  0  0  0
  -21.6038   -4.3059   24.7223 C   0  0  0  0  0  0
  -21.8829   -3.8156   23.4341 C   0  0  0  0  0  0
  -21.9200   -4.6975   22.3400 C   0  0  0  0  0  0
  -22.7832  -13.5234   21.1897 C   0  0  0  0  0  0
  -22.1682   -4.2156   21.0978 F   0  0  0  0  0  0
  -21.5621   -3.4544   25.7734 F   0  0  0  0  0  0
  -29.9881  -13.5123   20.3984 N   0  0  0  0  0  0
  -26.2933  -12.9405   20.3292 N   0  0  0  0  0  0
  -25.9317  -11.6548   20.5738 N   0  0  0  0  0  0
  -22.0487  -12.8191   22.0446 N   0  0  0  0  0  0
  -25.4186  -15.1918   20.4099 N   0  0  0  0  0  0
  -31.8281  -14.8155   20.1916 O   0  0  0  0  0  0
  -21.6665   -6.8894   21.4250 O   0  0  0  0  0  0
  -22.3522  -14.5547   20.6791 O   0  0  0  0  0  0
  -24.6292  -31.8544   23.1964 C   0  0  0  0  0  0
  -25.9111  -32.4735   23.8318 C   0  0  1  0  0  0
  -27.2221  -27.2806   20.1366 C   0  0  0  0  0  0
  -25.5898  -33.8540   24.2229 N   0  0  0  0  0  0
  -23.4262  -30.4753   21.5390 C   0  0  2  0  0  0
  -24.8750  -28.9219   20.1154 C   0  0  0  0  0  0
  -22.7483  -29.4589   22.4908 C   0  0  0  0  0  0
  -18.0283  -28.1371   22.8477 C   0  0  0  0  0  0
  -24.1488  -36.7288   23.2645 C   0  0  0  0  0  0
  -25.9700  -30.7786   21.3722 C   0  0  0  0  0  0
  -26.0470  -29.4016   20.7158 C   0  0  0  0  0  0
  -27.2280  -28.5952   20.7096 C   0  0  0  0  0  0
  -26.0308  -26.8641   19.5065 C   0  0  0  0  0  0
  -24.8707  -27.6592   19.5022 C   0  0  0  0  0  0
  -23.6428  -29.8024   20.1583 C   0  0  0  0  0  0
  -25.4106  -36.3053   24.0322 C   0  0  1  0  0  0
  -20.5880  -28.3654   23.1269 C   0  0  2  0  0  0
  -20.6752  -26.9370   22.5411 C   0  0  0  0  0  0
  -19.5741  -26.6361   21.5201 C   0  0  0  0  0  0
  -18.1921  -26.7918   22.1618 C   0  0  0  0  0  0
  -19.1535  -28.8840   23.2863 C   0  0  0  0  0  0
  -18.9462  -30.1448   23.8860 C   0  0  0  0  0  0
  -17.6460  -30.6563   24.0559 C   0  0  0  0  0  0
  -25.9044  -34.9417   23.5083 C   0  0  0  0  0  0
  -16.5350  -29.9065   23.6330 C   0  0  0  0  0  0
  -16.7280  -28.6495   23.0338 C   0  0  0  0  0  0
  -26.4475  -31.6576   25.0717 C   0  0  0  0  0  0
  -25.3691  -31.3749   26.1432 C   0  0  0  0  0  0
  -27.0331  -30.2977   24.6252 C   0  0  0  0  0  0
  -27.6011  -32.4325   25.7494 C   0  0  0  0  0  0
  -27.5569  -37.1790   24.8451 C   0  0  0  0  0  0
  -21.4186  -29.3015   22.3654 N   0  0  0  0  0  0
  -26.4272  -37.3746   23.9398 N   0  0  0  0  0  0
  -24.6935  -31.0532   22.0925 N   0  0  0  0  0  0
  -23.4196  -28.8137   23.2992 O   0  0  0  0  0  0
  -28.3188  -26.3980   20.1641 O   0  0  0  0  0  0
  -26.5631  -34.8900   22.4671 O   0  0  0  0  0  0
  -23.5431  -32.1352   23.7264 O   0  0  0  0  0  0
  -30.9815  -21.8389   19.0092 C   0  0  0  0  0  0
  -29.9364  -21.2696   19.6918 C   0  0  0  0  0  0
  -31.2249  -19.6579   18.7330 C   0  0  0  0  0  0
  -33.3158  -18.3341   18.1251 C   0  0  0  0  0  0
  -31.2765  -18.2480   16.6033 C   0  0  0  0  0  0
  -28.8419  -22.2153   20.3200 C   0  0  0  0  0  0
  -28.9406  -23.7929   19.8845 C   0  0  0  0  0  0
  -29.4737  -18.5498   20.0969 C   0  0  0  0  0  0
  -30.3180  -17.3466   20.8157 C   0  0  0  0  0  0
  -28.0903  -24.9705   20.5696 C   0  0  0  0  0  0
  -31.7761  -18.4165   18.0496 C   0  0  0  0  0  0
  -30.1817  -19.8375   19.5964 N   0  0  0  0  0  0
  -31.7209  -20.8585   18.4479 N   0  3  0  0  0  0
  -29.8814  -15.8778   20.6832 N   0  0  0  0  0  0
  -31.4681  -12.5873   19.1519 H   0  0  0  0  0  0
  -30.3767  -11.4718   19.9277 H   0  0  0  0  0  0
  -29.7768  -11.7530   17.4995 H   0  0  0  0  0  0
  -29.6326  -13.4795   17.7232 H   0  0  0  0  0  0
  -27.8756  -11.2956   18.8815 H   0  0  0  0  0  0
  -27.3755  -12.5672   17.7932 H   0  0  0  0  0  0
  -27.6366  -14.2600   19.4864 H   0  0  0  0  0  0
  -28.7156  -12.1538   21.4119 H   0  0  0  0  0  0
  -28.4220  -13.8275   21.8030 H   0  0  0  0  0  0
  -25.2751   -9.5732   22.4758 H   0  0  0  0  0  0
  -24.0034   -7.4643   22.7463 H   0  0  0  0  0  0
  -21.0850   -8.8757   19.8926 H   0  0  0  0  0  0
  -22.3682  -10.9678   19.6174 H   0  0  0  0  0  0
  -21.1990   -7.6158   23.9716 H   0  0  0  0  0  0
  -21.1475   -6.0530   25.9070 H   0  0  0  0  0  0
  -22.0596   -2.7618   23.2837 H   0  0  0  0  0  0
  -22.4119  -11.9822   22.4760 H   0  0  0  0  0  0
  -21.1095  -13.1195   22.2672 H   0  0  0  0  0  0
  -24.6425  -15.8392   20.5024 H   0  0  0  0  0  0
  -26.2550  -15.6302   20.0468 H   0  0  0  0  0  0
  -26.7202  -32.5398   23.1073 H   0  0  0  0  0  0
  -24.9956  -33.9669   25.0312 H   0  0  0  0  0  0
  -22.7210  -31.2947   21.3858 H   0  0  0  0  0  0
  -23.3726  -35.9644   23.3298 H   0  0  0  0  0  0
  -24.3583  -36.8931   22.2063 H   0  0  0  0  0  0
  -23.7269  -37.6495   23.6692 H   0  0  0  0  0  0
  -26.1049  -31.5443   20.6073 H   0  0  0  0  0  0
  -26.8475  -30.8279   22.0049 H   0  0  0  0  0  0
  -28.1311  -28.9560   21.1830 H   0  0  0  0  0  0
  -25.9836  -25.8986   19.0236 H   0  0  0  0  0  0
  -23.9731  -27.2780   19.0357 H   0  0  0  0  0  0
  -23.7603  -30.5707   19.3929 H   0  0  0  0  0  0
  -22.7656  -29.2253   19.8604 H   0  0  0  0  0  0
  -25.1296  -36.1887   25.0813 H   0  0  0  0  0  0
  -20.9982  -28.3240   24.1386 H   0  0  0  0  0  0
  -20.5596  -26.2276   23.3612 H   0  0  0  0  0  0
  -21.6629  -26.7354   22.1238 H   0  0  0  0  0  0
  -19.6886  -25.6273   21.1228 H   0  0  0  0  0  0
  -19.6688  -27.3168   20.6726 H   0  0  0  0  0  0
  -17.4180  -26.6645   21.4027 H   0  0  0  0  0  0
  -18.0326  -26.0058   22.9016 H   0  0  0  0  0  0
  -19.7940  -30.7274   24.2199 H   0  0  0  0  0  0
  -17.5019  -31.6247   24.5166 H   0  0  0  0  0  0
  -15.5351  -30.2960   23.7676 H   0  0  0  0  0  0
  -15.8678  -28.0826   22.7040 H   0  0  0  0  0  0
  -24.5857  -30.7101   25.7770 H   0  0  0  0  0  0
  -24.8885  -32.2933   26.4807 H   0  0  0  0  0  0
  -25.7989  -30.8959   27.0235 H   0  0  0  0  0  0
  -26.2953  -29.6694   24.1235 H   0  0  0  0  0  0
  -27.3936  -29.7258   25.4814 H   0  0  0  0  0  0
  -27.8857  -30.4199   23.9561 H   0  0  0  0  0  0
  -27.2600  -33.3624   26.2032 H   0  0  0  0  0  0
  -28.3834  -32.6874   25.0344 H   0  0  0  0  0  0
  -28.0656  -31.8480   26.5434 H   0  0  0  0  0  0
  -28.2559  -38.0107   24.7490 H   0  0  0  0  0  0
  -28.1091  -36.2632   24.6280 H   0  0  0  0  0  0
  -27.2293  -37.1439   25.8855 H   0  0  0  0  0  0
  -20.9358  -29.8794   21.6913 H   0  0  0  0  0  0
  -26.0149  -38.2819   24.1402 H   0  0  0  0  0  0
  -31.2288  -22.8746   18.8299 H   0  0  0  0  0  0
  -33.6546  -18.2128   19.1539 H   0  0  0  0  0  0
  -33.8029  -19.2243   17.7224 H   0  0  0  0  0  0
  -33.6961  -17.4823   17.5573 H   0  0  0  0  0  0
  -30.1932  -18.1362   16.5778 H   0  0  0  0  0  0
  -31.6952  -17.3400   16.1646 H   0  0  0  0  0  0
  -31.5431  -19.0745   15.9475 H   0  0  0  0  0  0
  -28.9027  -22.1468   21.4058 H   0  0  0  0  0  0
  -27.8521  -21.8429   20.0528 H   0  0  0  0  0  0
  -28.7503  -23.8530   18.8121 H   0  0  0  0  0  0
  -29.9689  -24.1234   20.0187 H   0  0  0  0  0  0
  -28.6592  -18.8617   20.7523 H   0  0  0  0  0  0
  -28.9950  -18.1263   19.2131 H   0  0  0  0  0  0
  -30.3022  -17.5646   21.8853 H   0  0  0  0  0  0
  -31.3807  -17.4148   20.5900 H   0  0  0  0  0  0
  -28.3230  -24.9399   21.6350 H   0  0  0  0  0  0
  -27.0367  -24.7041   20.5177 H   0  0  0  0  0  0
  -31.3794  -17.5484   18.5524 H   0  0  0  0  0  0
  -32.5259  -21.0313   17.8587 H   0  0  0  0  0  0
  -28.8972  -15.7066   20.8237 H   0  0  0  0  0  0
  1 25  1  0  0  0
  1 30  2  0  0  0
  1 84  1  0  0  0
  2  3  1  0  0  0
  2 25  1  0  0  0
  2 85  1  0  0  0
  2 86  1  0  0  0
  3  4  1  0  0  0
  3 87  1  0  0  0
  3 88  1  0  0  0
  4  5  1  0  0  0
  4 89  1  0  0  0
  4 90  1  0  0  0
  5  6  1  0  0  0
  5 26  1  0  0  0
  5 91  1  0  0  0
  6 25  1  0  0  0
  6 92  1  0  0  0
  6 93  1  0  0  0
  7  8  2  0  0  0
  7 26  1  0  0  0
  7 29  1  0  0  0
  8  9  1  0  0  0
  8 22  1  0  0  0
  9 10  1  0  0  0
  9 27  2  0  0  0
 10 11  2  0  0  0
 10 15  1  0  0  0
 11 12  1  0  0  0
 11 94  1  0  0  0
 12 13  2  0  0  0
 12 95  1  0  0  0
 13 14  1  0  0  0
 13 31  1  0  0  0
 14 15  2  0  0  0
 14 96  1  0  0  0
 15 97  1  0  0  0
 16 17  2  0  0  0
 16 21  1  0  0  0
 16 31  1  0  0  0
 17 18  1  0  0  0
 17 98  1  0  0  0
 18 19  2  0  0  0
 18 99  1  0  0  0
 19 20  1  0  0  0
 19 24  1  0  0  0
 20 21  2  0  0  0
 20100  1  0  0  0
 21 23  1  0  0  0
 22 28  1  0  0  0
 22 32  2  0  0  0
 26 27  1  0  0  0
 28101  1  0  0  0
 28102  1  0  0  0
 29103  1  0  0  0
 29104  1  0  0  0
 33 34  1  0  0  0
 33 66  1  0  0  0
 33 70  2  0  0  0
 34 36  1  0  0  0
 34 59  1  0  0  0
 34105  1  0  0  0
 35 44  2  0  0  0
 35 45  1  0  0  0
 35 68  1  0  0  0
 36 56  1  0  0  0
 36106  1  0  0  0
 37 39  1  0  0  0
 37 47  1  0  0  0
 37 66  1  0  0  0
 37107  1  0  0  0
 38 43  2  0  0  0
 38 46  1  0  0  0
 38 47  1  0  0  0
 39 64  1  0  0  0
 39 67  2  0  0  0
 40 52  1  0  0  0
 40 53  2  0  0  0
 40 58  1  0  0  0
 41108  1  0  0  0
 41109  1  0  0  0
 41110  1  0  0  0
 41 48  1  0  0  0
 42 43  1  0  0  0
 42 66  1  0  0  0
 42111  1  0  0  0
 42112  1  0  0  0
 43 44  1  0  0  0
 44113  1  0  0  0
 45 46  2  0  0  0
 45114  1  0  0  0
 46115  1  0  0  0
 47116  1  0  0  0
 47117  1  0  0  0
 48 56  1  0  0  0
 48 65  1  0  0  0
 48118  1  0  0  0
 49 50  1  0  0  0
 49 53  1  0  0  0
 49 64  1  0  0  0
 49119  1  0  0  0
 50 51  1  0  0  0
 50120  1  0  0  0
 50121  1  0  0  0
 51 52  1  0  0  0
 51122  1  0  0  0
 51123  1  0  0  0
 52124  1  0  0  0
 52125  1  0  0  0
 53 54  1  0  0  0
 54 55  2  0  0  0
 54126  1  0  0  0
 55 57  1  0  0  0
 55127  1  0  0  0
 56 69  2  0  0  0
 57 58  2  0  0  0
 57128  1  0  0  0
 58129  1  0  0  0
 59 60  1  0  0  0
 59 61  1  0  0  0
 59 62  1  0  0  0
 60130  1  0  0  0
 60131  1  0  0  0
 60132  1  0  0  0
 61133  1  0  0  0
 61134  1  0  0  0
 61135  1  0  0  0
 62136  1  0  0  0
 62137  1  0  0  0
 62138  1  0  0  0
 63 65  1  0  0  0
 63139  1  0  0  0
 63140  1  0  0  0
 63141  1  0  0  0
 64142  1  0  0  0
 65143  1  0  0  0
 68 80  1  0  0  0
 71 72  2  0  0  0
 71 83  1  0  0  0
 71144  1  0  0  0
 72 76  1  0  0  0
 72 82  1  0  0  0
 73 81  1  0  0  0
 73 82  1  0  0  0
 73 83  2  0  0  0
 74145  1  0  0  0
 74146  1  0  0  0
 74147  1  0  0  0
 74 81  1  0  0  0
 75 81  1  0  0  0
 75148  1  0  0  0
 75149  1  0  0  0
 75150  1  0  0  0
 76 77  1  0  0  0
 76151  1  0  0  0
 76152  1  0  0  0
 77 80  1  0  0  0
 77153  1  0  0  0
 77154  1  0  0  0
 78 79  1  0  0  0
 78 82  1  0  0  0
 78155  1  0  0  0
 78156  1  0  0  0
 79 84  1  0  0  0
 79157  1  0  0  0
 79158  1  0  0  0
 80159  1  0  0  0
 80160  1  0  0  0
 81161  1  0  0  0
 83162  1  0  0  0
 84163  1  0  0  0
M  CHG  1  83   1
M  ISO  4   1 100  68 101  80 101  84 100
M  END
> <chiral flag>
0

> <version>
0

> <s_m_source_file>
/data/baiqing/PycharmProjects/Reinvent-master-3.2/result/LINK_invent/BTK/process_docking_weight1_custom_sum_contain_oxygen_bond_distance_aromatic_linkinvent_7_9_3/rearranged_h_0094.sdf

> <i_m_source_file_index>
77

> <r_mmod_Potential_Energy-OPLS-2005>
142.585189819336

> <r_mmod_Stretch_Energy-OPLS-2005>
142.312805175781

> <r_mmod_Bend_Energy-OPLS-2005>
200.591186523438

> <r_mmod_Torsional_Energy-OPLS-2005>
250.976623535156

> <r_mmod_Improper_Torsional_Energy-OPLS-2005>
5.44258594512939

> <r_mmod_Van_der_Waal_Energy-OPLS-2005>
122.904632568359

> <r_mmod_Electrostatic_Energy-OPLS-2005>
-241.450210571289

> <r_mmod_Solvation_Energy-OPLS-2005>
-414.662200927734

> <b_mmod_Minimization_Converged-OPLS-2005>
0

> <r_mmod_RMS_Derivative-OPLS-2005>
4.9746470451355

$$$$
78
                    3D
 Structure written by MMmdl.
167175  0  0  1  0            999 V2000
  -30.6236  -14.6911   20.4750 C   0  0  0  0  0  0
  -30.4398  -12.4208   19.4599 C   0  0  0  0  0  0
  -29.5128  -12.4941   18.2263 C   0  0  0  0  0  0
  -28.0370  -12.3261   18.6446 C   0  0  0  0  0  0
  -27.6463  -13.2235   19.8506 C   0  0  2  0  0  0
  -28.6939  -13.1244   20.9816 C   0  0  0  0  0  0
  -25.2537  -13.8124   20.5693 C   0  0  0  0  0  0
  -24.1815  -13.0389   20.9224 C   0  0  0  0  0  0
  -24.6390  -11.6870   20.8755 C   0  0  0  0  0  0
  -23.9044  -10.4263   21.0410 C   0  0  0  0  0  0
  -24.3589   -9.4178   21.9194 C   0  0  0  0  0  0
  -23.6282   -8.2205   22.0746 C   0  0  0  0  0  0
  -22.4265   -8.0246   21.3534 C   0  0  0  0  0  0
  -21.9900   -9.0205   20.4632 C   0  0  0  0  0  0
  -22.7215  -10.2103   20.3063 C   0  0  0  0  0  0
  -21.6835   -6.0722   22.5279 C   0  0  0  0  0  0
  -21.3993   -6.5629   23.8211 C   0  0  0  0  0  0
  -21.3677   -5.6790   24.9181 C   0  0  0  0  0  0
  -21.6058   -4.3051   24.7228 C   0  0  0  0  0  0
  -21.8817   -3.8139   23.4346 C   0  0  0  0  0  0
  -21.9181   -4.6955   22.3404 C   0  0  0  0  0  0
  -22.7847  -13.5191   21.1867 C   0  0  0  0  0  0
  -22.1661   -4.2145   21.0987 F   0  0  0  0  0  0
  -21.5643   -3.4542   25.7745 F   0  0  0  0  0  0
  -29.9975  -13.4710   20.3991 N   0  0  0  0  0  0
  -26.2960  -12.9328   20.3273 N   0  0  0  0  0  0
  -25.9311  -11.6474   20.5723 N   0  0  0  0  0  0
  -22.0470  -12.8181   22.0411 N   0  0  0  0  0  0
  -25.4223  -15.1821   20.4054 N   0  0  0  0  0  0
  -31.8154  -14.8100   20.1826 O   0  0  0  0  0  0
  -21.6624   -6.8849   21.4234 O   0  0  0  0  0  0
  -22.3534  -14.5484   20.6692 O   0  0  0  0  0  0
  -24.6291  -31.8606   23.2023 C   0  0  0  0  0  0
  -25.9138  -32.4785   23.8358 C   0  0  1  0  0  0
  -27.2146  -27.2943   20.1183 C   0  0  0  0  0  0
  -25.5950  -33.8581   24.2288 N   0  0  0  0  0  0
  -23.4234  -30.4836   21.5456 C   0  0  2  0  0  0
  -24.8705  -28.9368   20.1114 C   0  0  0  0  0  0
  -22.7477  -29.4641   22.4940 C   0  0  0  0  0  0
  -18.0295  -28.1409   22.8495 C   0  0  0  0  0  0
  -24.1492  -36.7270   23.2643 C   0  0  0  0  0  0
  -25.9679  -30.7828   21.3796 C   0  0  0  0  0  0
  -26.0420  -29.4082   20.7188 C   0  0  0  0  0  0
  -27.2215  -28.5977   20.7130 C   0  0  0  0  0  0
  -26.0291  -26.8952   19.4652 C   0  0  0  0  0  0
  -24.8666  -27.6872   19.4748 C   0  0  0  0  0  0
  -23.6395  -29.8194   20.1613 C   0  0  0  0  0  0
  -25.4124  -36.3076   24.0332 C   0  0  1  0  0  0
  -20.5892  -28.3703   23.1293 C   0  0  2  0  0  0
  -20.6791  -26.9432   22.5414 C   0  0  0  0  0  0
  -19.5759  -26.6405   21.5219 C   0  0  0  0  0  0
  -18.1934  -26.7956   22.1626 C   0  0  0  0  0  0
  -19.1548  -28.8871   23.2889 C   0  0  0  0  0  0
  -18.9471  -30.1471   23.8905 C   0  0  0  0  0  0
  -17.6472  -30.6607   24.0569 C   0  0  0  0  0  0
  -25.9057  -34.9451   23.5101 C   0  0  0  0  0  0
  -16.5361  -29.9100   23.6341 C   0  0  0  0  0  0
  -16.7281  -28.6518   23.0360 C   0  0  0  0  0  0
  -26.4506  -31.6599   25.0720 C   0  0  0  0  0  0
  -25.3727  -31.3749   26.1431 C   0  0  0  0  0  0
  -27.0350  -30.3027   24.6178 C   0  0  0  0  0  0
  -27.6072  -32.4322   25.7488 C   0  0  0  0  0  0
  -27.5581  -37.1798   24.8466 C   0  0  0  0  0  0
  -21.4188  -29.3053   22.3673 N   0  0  0  0  0  0
  -26.4295  -37.3776   23.9410 N   0  0  0  0  0  0
  -24.6916  -31.0593   22.0992 N   0  0  0  0  0  0
  -23.4186  -28.8192   23.3042 O   0  0  0  0  0  0
  -28.2980  -26.3971   20.1430 O   0  0  0  0  0  0
  -26.5605  -34.8917   22.4652 O   0  0  0  0  0  0
  -23.5451  -32.1418   23.7337 O   0  0  0  0  0  0
  -30.4309  -21.6364   19.2622 C   0  0  0  0  0  0
  -30.4944  -22.9483   18.7495 C   0  0  0  0  0  0
  -29.5250  -21.3165   20.2906 C   0  0  0  0  0  0
  -28.6911  -22.4178   20.7314 C   0  0  0  0  0  0
  -28.8422  -23.7545   20.1779 C   0  0  0  0  0  0
  -26.7461  -20.2771   24.1769 C   0  0  0  0  0  0
  -27.7361  -22.0153   25.7175 C   0  0  0  0  0  0
  -29.6193  -19.8920   20.9890 C   0  0  0  0  0  0
  -27.6300  -22.1544   21.7979 C   0  0  0  0  0  0
  -28.0020  -25.0174   20.6416 C   0  0  0  0  0  0
  -29.6225  -18.4936   20.2019 C   0  0  0  0  0  0
  -28.1944  -22.1731   23.2307 C   0  0  0  0  0  0
  -30.2287  -17.2340   21.0094 C   0  0  0  0  0  0
  -27.1760  -21.7503   24.3110 C   0  0  0  0  0  0
  -29.7386  -23.9787   19.1932 N   0  0  0  0  0  0
  -29.8357  -15.7995   20.6955 N   0  0  0  0  0  0
  -31.4803  -12.5519   19.1590 H   0  0  0  0  0  0
  -30.3810  -11.4376   19.9295 H   0  0  0  0  0  0
  -29.7844  -11.7261   17.5000 H   0  0  0  0  0  0
  -29.6543  -13.4521   17.7236 H   0  0  0  0  0  0
  -27.8926  -11.2782   18.9116 H   0  0  0  0  0  0
  -27.3785  -12.5152   17.7963 H   0  0  0  0  0  0
  -27.6475  -14.2497   19.4807 H   0  0  0  0  0  0
  -28.7200  -12.1120   21.3871 H   0  0  0  0  0  0
  -28.4396  -13.7799   21.8176 H   0  0  0  0  0  0
  -25.2708   -9.5675   22.4801 H   0  0  0  0  0  0
  -23.9993   -7.4591   22.7458 H   0  0  0  0  0  0
  -21.0829   -8.8687   19.8935 H   0  0  0  0  0  0
  -22.3615  -10.9635   19.6197 H   0  0  0  0  0  0
  -21.1961   -7.6130   23.9718 H   0  0  0  0  0  0
  -21.1522   -6.0515   25.9093 H   0  0  0  0  0  0
  -22.0583   -2.7600   23.2833 H   0  0  0  0  0  0
  -22.4085  -11.9853   22.4819 H   0  0  0  0  0  0
  -21.1096  -13.1226   22.2602 H   0  0  0  0  0  0
  -24.6476  -15.8288   20.5109 H   0  0  0  0  0  0
  -26.2372  -15.6054   19.9821 H   0  0  0  0  0  0
  -26.7204  -32.5467   23.1113 H   0  0  0  0  0  0
  -25.0143  -33.9739   25.0462 H   0  0  0  0  0  0
  -22.7191  -31.3057   21.4010 H   0  0  0  0  0  0
  -23.3758  -35.9594   23.3302 H   0  0  0  0  0  0
  -24.3590  -36.8875   22.2055 H   0  0  0  0  0  0
  -23.7225  -37.6467   23.6654 H   0  0  0  0  0  0
  -26.1036  -31.5486   20.6151 H   0  0  0  0  0  0
  -26.8469  -30.8343   22.0098 H   0  0  0  0  0  0
  -28.1198  -28.9485   21.2019 H   0  0  0  0  0  0
  -25.9861  -25.9478   18.9468 H   0  0  0  0  0  0
  -23.9721  -27.3250   18.9872 H   0  0  0  0  0  0
  -23.7622  -30.5950   19.4045 H   0  0  0  0  0  0
  -22.7593  -29.2503   19.8587 H   0  0  0  0  0  0
  -25.1313  -36.1925   25.0824 H   0  0  0  0  0  0
  -21.0001  -28.3288   24.1408 H   0  0  0  0  0  0
  -20.5712  -26.2312   23.3606 H   0  0  0  0  0  0
  -21.6661  -26.7485   22.1199 H   0  0  0  0  0  0
  -19.6917  -25.6312   21.1247 H   0  0  0  0  0  0
  -19.6705  -27.3214   20.6742 H   0  0  0  0  0  0
  -17.4214  -26.6714   21.4017 H   0  0  0  0  0  0
  -18.0328  -26.0103   22.9026 H   0  0  0  0  0  0
  -19.7944  -30.7287   24.2281 H   0  0  0  0  0  0
  -17.5028  -31.6290   24.5166 H   0  0  0  0  0  0
  -15.5362  -30.3007   23.7675 H   0  0  0  0  0  0
  -15.8674  -28.0835   22.7089 H   0  0  0  0  0  0
  -24.5905  -30.7093   25.7758 H   0  0  0  0  0  0
  -24.8910  -32.2919   26.4845 H   0  0  0  0  0  0
  -25.8056  -30.8934   27.0207 H   0  0  0  0  0  0
  -26.2940  -29.6780   24.1176 H   0  0  0  0  0  0
  -27.4016  -29.7292   25.4699 H   0  0  0  0  0  0
  -27.8823  -30.4311   23.9433 H   0  0  0  0  0  0
  -27.2710  -33.3640   26.2054 H   0  0  0  0  0  0
  -28.3909  -32.6851   25.0328 H   0  0  0  0  0  0
  -28.0703  -31.8425   26.5410 H   0  0  0  0  0  0
  -28.2613  -38.0085   24.7534 H   0  0  0  0  0  0
  -28.1068  -36.2622   24.6289 H   0  0  0  0  0  0
  -27.2295  -37.1444   25.8867 H   0  0  0  0  0  0
  -20.9363  -29.8738   21.6851 H   0  0  0  0  0  0
  -26.0164  -38.2843   24.1422 H   0  0  0  0  0  0
  -31.1128  -20.8906   18.8764 H   0  0  0  0  0  0
  -31.2022  -23.1887   17.9684 H   0  0  0  0  0  0
  -26.1060  -19.9745   25.0065 H   0  0  0  0  0  0
  -27.6059  -19.6062   24.1637 H   0  0  0  0  0  0
  -26.1735  -20.0980   23.2664 H   0  0  0  0  0  0
  -27.0197  -21.7304   26.4894 H   0  0  0  0  0  0
  -27.9612  -23.0730   25.8615 H   0  0  0  0  0  0
  -28.6549  -21.4540   25.8961 H   0  0  0  0  0  0
  -28.8567  -19.8080   21.7590 H   0  0  0  0  0  0
  -30.5535  -19.9294   21.5489 H   0  0  0  0  0  0
  -27.1623  -21.1964   21.5750 H   0  0  0  0  0  0
  -26.8116  -22.8677   21.7190 H   0  0  0  0  0  0
  -28.1081  -25.0736   21.7253 H   0  0  0  0  0  0
  -26.9585  -24.7545   20.4840 H   0  0  0  0  0  0
  -30.2031  -18.6101   19.2858 H   0  0  0  0  0  0
  -28.6005  -18.2887   19.8795 H   0  0  0  0  0  0
  -28.5494  -23.1819   23.4431 H   0  0  0  0  0  0
  -29.0742  -21.5327   23.3028 H   0  0  0  0  0  0
  -31.3172  -17.3093   20.9996 H   0  0  0  0  0  0
  -29.9571  -17.3692   22.0575 H   0  0  0  0  0  0
  -26.2851  -22.3699   24.1991 H   0  0  0  0  0  0
  -28.8584  -15.5843   20.8252 H   0  0  0  0  0  0
  1 25  1  0  0  0
  1 30  2  0  0  0
  1 86  1  0  0  0
  2  3  1  0  0  0
  2 25  1  0  0  0
  2 87  1  0  0  0
  2 88  1  0  0  0
  3  4  1  0  0  0
  3 89  1  0  0  0
  3 90  1  0  0  0
  4  5  1  0  0  0
  4 91  1  0  0  0
  4 92  1  0  0  0
  5  6  1  0  0  0
  5 26  1  0  0  0
  5 93  1  0  0  0
  6 25  1  0  0  0
  6 94  1  0  0  0
  6 95  1  0  0  0
  7  8  2  0  0  0
  7 26  1  0  0  0
  7 29  1  0  0  0
  8  9  1  0  0  0
  8 22  1  0  0  0
  9 10  1  0  0  0
  9 27  2  0  0  0
 10 11  2  0  0  0
 10 15  1  0  0  0
 11 12  1  0  0  0
 11 96  1  0  0  0
 12 13  2  0  0  0
 12 97  1  0  0  0
 13 14  1  0  0  0
 13 31  1  0  0  0
 14 15  2  0  0  0
 14 98  1  0  0  0
 15 99  1  0  0  0
 16 17  2  0  0  0
 16 21  1  0  0  0
 16 31  1  0  0  0
 17 18  1  0  0  0
 17100  1  0  0  0
 18 19  2  0  0  0
 18101  1  0  0  0
 19 20  1  0  0  0
 19 24  1  0  0  0
 20 21  2  0  0  0
 20102  1  0  0  0
 21 23  1  0  0  0
 22 28  1  0  0  0
 22 32  2  0  0  0
 26 27  1  0  0  0
 28103  1  0  0  0
 28104  1  0  0  0
 29105  1  0  0  0
 29106  1  0  0  0
 33 34  1  0  0  0
 33 66  1  0  0  0
 33 70  2  0  0  0
 34 36  1  0  0  0
 34 59  1  0  0  0
 34107  1  0  0  0
 35 44  2  0  0  0
 35 45  1  0  0  0
 35 68  1  0  0  0
 36 56  1  0  0  0
 36108  1  0  0  0
 37 39  1  0  0  0
 37 47  1  0  0  0
 37 66  1  0  0  0
 37109  1  0  0  0
 38 43  2  0  0  0
 38 46  1  0  0  0
 38 47  1  0  0  0
 39 64  1  0  0  0
 39 67  2  0  0  0
 40 52  1  0  0  0
 40 53  2  0  0  0
 40 58  1  0  0  0
 41110  1  0  0  0
 41111  1  0  0  0
 41112  1  0  0  0
 41 48  1  0  0  0
 42 43  1  0  0  0
 42 66  1  0  0  0
 42113  1  0  0  0
 42114  1  0  0  0
 43 44  1  0  0  0
 44115  1  0  0  0
 45 46  2  0  0  0
 45116  1  0  0  0
 46117  1  0  0  0
 47118  1  0  0  0
 47119  1  0  0  0
 48 56  1  0  0  0
 48 65  1  0  0  0
 48120  1  0  0  0
 49 50  1  0  0  0
 49 53  1  0  0  0
 49 64  1  0  0  0
 49121  1  0  0  0
 50 51  1  0  0  0
 50122  1  0  0  0
 50123  1  0  0  0
 51 52  1  0  0  0
 51124  1  0  0  0
 51125  1  0  0  0
 52126  1  0  0  0
 52127  1  0  0  0
 53 54  1  0  0  0
 54 55  2  0  0  0
 54128  1  0  0  0
 55 57  1  0  0  0
 55129  1  0  0  0
 56 69  2  0  0  0
 57 58  2  0  0  0
 57130  1  0  0  0
 58131  1  0  0  0
 59 60  1  0  0  0
 59 61  1  0  0  0
 59 62  1  0  0  0
 60132  1  0  0  0
 60133  1  0  0  0
 60134  1  0  0  0
 61135  1  0  0  0
 61136  1  0  0  0
 61137  1  0  0  0
 62138  1  0  0  0
 62139  1  0  0  0
 62140  1  0  0  0
 63 65  1  0  0  0
 63141  1  0  0  0
 63142  1  0  0  0
 63143  1  0  0  0
 64144  1  0  0  0
 65145  1  0  0  0
 68 80  1  0  0  0
 71 72  2  0  0  0
 71 73  1  0  0  0
 71146  1  0  0  0
 72 85  1  0  0  0
 72147  1  0  0  0
 73 74  2  0  0  0
 73 78  1  0  0  0
 74 75  1  0  0  0
 74 79  1  0  0  0
 75 80  1  0  0  0
 75 85  2  0  0  0
 76148  1  0  0  0
 76149  1  0  0  0
 76150  1  0  0  0
 76 84  1  0  0  0
 77 84  1  0  0  0
 77151  1  0  0  0
 77152  1  0  0  0
 77153  1  0  0  0
 78 81  1  0  0  0
 78154  1  0  0  0
 78155  1  0  0  0
 79 82  1  0  0  0
 79156  1  0  0  0
 79157  1  0  0  0
 80158  1  0  0  0
 80159  1  0  0  0
 81 83  1  0  0  0
 81160  1  0  0  0
 81161  1  0  0  0
 82 84  1  0  0  0
 82162  1  0  0  0
 82163  1  0  0  0
 83 86  1  0  0  0
 83164  1  0  0  0
 83165  1  0  0  0
 84166  1  0  0  0
 86167  1  0  0  0
M  ISO  4   1 100  68 101  80 101  86 100
M  END
> <chiral flag>
0

> <version>
0

> <s_m_source_file>
/data/baiqing/PycharmProjects/Reinvent-master-3.2/result/LINK_invent/BTK/process_docking_weight1_custom_sum_contain_oxygen_bond_distance_aromatic_linkinvent_7_9_3/rearranged_h_0094.sdf

> <i_m_source_file_index>
78

> <r_mmod_Potential_Energy-OPLS-2005>
4.25259208679199

> <r_mmod_Stretch_Energy-OPLS-2005>
103.151817321777

> <r_mmod_Bend_Energy-OPLS-2005>
153.074417114258

> <r_mmod_Torsional_Energy-OPLS-2005>
233.632965087891

> <r_mmod_Improper_Torsional_Energy-OPLS-2005>
5.52216672897339

> <r_mmod_Van_der_Waal_Energy-OPLS-2005>
141.269714355469

> <r_mmod_Electrostatic_Energy-OPLS-2005>
-472.847503662109

> <r_mmod_Solvation_Energy-OPLS-2005>
-227.241668701172

> <b_mmod_Minimization_Converged-OPLS-2005>
0

> <r_mmod_RMS_Derivative-OPLS-2005>
2.70125126838684

$$$$
79
                    3D
 Structure written by MMmdl.
187195  0  0  1  0            999 V2000
  -30.5920  -14.7589   20.5152 C   0  0  0  0  0  0
  -30.4346  -12.4770   19.4722 C   0  0  0  0  0  0
  -29.5074  -12.5231   18.2358 C   0  0  0  0  0  0
  -28.0360  -12.3334   18.6505 C   0  0  0  0  0  0
  -27.6432  -13.2235   19.8584 C   0  0  2  0  0  0
  -28.6831  -13.1192   20.9919 C   0  0  0  0  0  0
  -25.2523  -13.8183   20.5701 C   0  0  0  0  0  0
  -24.1793  -13.0446   20.9185 C   0  0  0  0  0  0
  -24.6369  -11.6910   20.8727 C   0  0  0  0  0  0
  -23.9044  -10.4287   21.0389 C   0  0  0  0  0  0
  -24.3596   -9.4215   21.9183 C   0  0  0  0  0  0
  -23.6276   -8.2257   22.0763 C   0  0  0  0  0  0
  -22.4266   -8.0275   21.3550 C   0  0  0  0  0  0
  -21.9900   -9.0239   20.4638 C   0  0  0  0  0  0
  -22.7220  -10.2121   20.3034 C   0  0  0  0  0  0
  -21.6849   -6.0725   22.5278 C   0  0  0  0  0  0
  -21.4005   -6.5631   23.8207 C   0  0  0  0  0  0
  -21.3661   -5.6788   24.9176 C   0  0  0  0  0  0
  -21.6049   -4.3051   24.7227 C   0  0  0  0  0  0
  -21.8822   -3.8138   23.4349 C   0  0  0  0  0  0
  -21.9192   -4.6953   22.3400 C   0  0  0  0  0  0
  -22.7819  -13.5230   21.1850 C   0  0  0  0  0  0
  -22.1663   -4.2132   21.0978 F   0  0  0  0  0  0
  -21.5633   -3.4537   25.7745 F   0  0  0  0  0  0
  -29.9815  -13.5190   20.4309 N   0  0  0  0  0  0
  -26.2927  -12.9367   20.3298 N   0  0  0  0  0  0
  -25.9287  -11.6515   20.5736 N   0  0  0  0  0  0
  -22.0465  -12.8198   22.0382 N   0  0  0  0  0  0
  -25.4266  -15.1903   20.4160 N   0  0  0  0  0  0
  -31.7247  -14.8973   20.0400 O   0  0  0  0  0  0
  -21.6636   -6.8870   21.4237 O   0  0  0  0  0  0
  -22.3517  -14.5561   20.6726 O   0  0  0  0  0  0
  -24.6301  -31.8541   23.1963 C   0  0  0  0  0  0
  -25.9117  -32.4739   23.8326 C   0  0  1  0  0  0
  -27.2156  -27.2398   20.1569 C   0  0  0  0  0  0
  -25.5921  -33.8544   24.2262 N   0  0  0  0  0  0
  -23.4274  -30.4742   21.5402 C   0  0  2  0  0  0
  -24.8730  -28.9084   20.1191 C   0  0  0  0  0  0
  -22.7496  -29.4598   22.4916 C   0  0  0  0  0  0
  -18.0293  -28.1378   22.8506 C   0  0  0  0  0  0
  -24.1467  -36.7283   23.2650 C   0  0  0  0  0  0
  -25.9702  -30.7652   21.3711 C   0  0  0  0  0  0
  -26.0418  -29.3782   20.7307 C   0  0  0  0  0  0
  -27.2164  -28.5600   20.7292 C   0  0  0  0  0  0
  -26.0287  -26.8383   19.5144 C   0  0  0  0  0  0
  -24.8715  -27.6460   19.5016 C   0  0  0  0  0  0
  -23.6454  -29.8001   20.1594 C   0  0  0  0  0  0
  -25.4089  -36.3061   24.0332 C   0  0  1  0  0  0
  -20.5895  -28.3700   23.1271 C   0  0  2  0  0  0
  -20.6779  -26.9425   22.5386 C   0  0  0  0  0  0
  -19.5734  -26.6403   21.5204 C   0  0  0  0  0  0
  -18.1924  -26.7933   22.1635 C   0  0  0  0  0  0
  -19.1549  -28.8851   23.2890 C   0  0  0  0  0  0
  -18.9464  -30.1454   23.8905 C   0  0  0  0  0  0
  -17.6470  -30.6583   24.0565 C   0  0  0  0  0  0
  -25.9039  -34.9427   23.5097 C   0  0  0  0  0  0
  -16.5349  -29.9079   23.6338 C   0  0  0  0  0  0
  -16.7274  -28.6502   23.0361 C   0  0  0  0  0  0
  -26.4496  -31.6549   25.0695 C   0  0  0  0  0  0
  -25.3709  -31.3587   26.1388 C   0  0  0  0  0  0
  -27.0420  -30.3015   24.6112 C   0  0  0  0  0  0
  -27.6026  -32.4297   25.7502 C   0  0  0  0  0  0
  -27.5549  -37.1781   24.8484 C   0  0  0  0  0  0
  -21.4202  -29.3059   22.3665 N   0  0  0  0  0  0
  -26.4270  -37.3748   23.9421 N   0  0  0  0  0  0
  -24.6958  -31.0499   22.0943 N   0  0  0  0  0  0
  -23.4192  -28.8150   23.3026 O   0  0  0  0  0  0
  -28.3593  -26.4137   20.0959 O   0  0  0  0  0  0
  -26.5613  -34.8920   22.4664 O   0  0  0  0  0  0
  -23.5443  -32.1380   23.7232 O   0  0  0  0  0  0
  -28.8291  -21.2826   20.6378 C   0  0  0  0  0  0
  -28.0000  -22.1565   19.9166 C   0  0  0  0  0  0
  -27.3813  -21.2600   18.9575 C   0  0  0  0  0  0
  -27.9803  -20.0077   19.0308 C   0  0  0  0  0  0
  -27.7759  -18.8105   18.1531 C   0  0  0  0  0  0
  -26.3170  -23.7356   21.0231 C   0  0  0  0  0  0
  -24.8878  -20.9535   18.6915 C   0  0  0  0  0  0
  -28.7872  -20.0203   11.7836 C   0  0  0  0  0  0
  -29.4015  -22.4017   11.1993 C   0  0  0  0  0  0
  -29.5268  -15.9958   22.3441 C   0  0  0  0  0  0
  -27.4617  -21.7490   15.8327 C   0  0  0  0  0  0
  -27.3711  -21.3403   14.3519 C   0  0  0  0  0  0
  -26.1862  -21.3433   16.5810 C   0  0  0  0  0  0
  -28.5349  -21.8869   13.5146 C   0  0  0  0  0  0
  -29.3811  -18.6642   20.8565 C   0  0  0  0  0  0
  -29.6549  -17.2011   20.1380 C   0  0  0  0  0  0
  -28.4934  -24.9564   20.5119 C   0  0  0  0  0  0
  -27.5469  -23.7132   20.0951 C   0  0  1  0  0  0
  -26.1464  -21.6148   18.1029 C   0  0  2  0  0  0
  -28.4657  -21.5056   12.0215 C   0  0  0  0  0  0
  -28.7927  -19.9299   20.1635 N   0  0  0  0  0  0
  -29.8508  -15.8808   20.9199 N   0  0  0  0  0  0
  -31.4714  -12.6183   19.1649 H   0  0  0  0  0  0
  -30.3987  -11.4907   19.9386 H   0  0  0  0  0  0
  -29.7936  -11.7507   17.5198 H   0  0  0  0  0  0
  -29.6206  -13.4783   17.7207 H   0  0  0  0  0  0
  -27.9029  -11.2825   18.9134 H   0  0  0  0  0  0
  -27.3713  -12.5199   17.8058 H   0  0  0  0  0  0
  -27.6504  -14.2522   19.4979 H   0  0  0  0  0  0
  -28.7325  -12.0988   21.3771 H   0  0  0  0  0  0
  -28.3796  -13.7331   21.8371 H   0  0  0  0  0  0
  -25.2727   -9.5709   22.4773 H   0  0  0  0  0  0
  -23.9971   -7.4658   22.7501 H   0  0  0  0  0  0
  -21.0836   -8.8740   19.8940 H   0  0  0  0  0  0
  -22.3667  -10.9649   19.6138 H   0  0  0  0  0  0
  -21.1994   -7.6139   23.9701 H   0  0  0  0  0  0
  -21.1484   -6.0523   25.9076 H   0  0  0  0  0  0
  -22.0601   -2.7596   23.2854 H   0  0  0  0  0  0
  -22.4054  -11.9803   22.4690 H   0  0  0  0  0  0
  -21.1087  -13.1217   22.2610 H   0  0  0  0  0  0
  -24.6671  -15.8500   20.5391 H   0  0  0  0  0  0
  -26.2928  -15.6287   20.1341 H   0  0  0  0  0  0
  -26.7174  -32.5408   23.1070 H   0  0  0  0  0  0
  -25.0072  -33.9687   25.0405 H   0  0  0  0  0  0
  -22.7220  -31.2940   21.3898 H   0  0  0  0  0  0
  -23.3738  -35.9605   23.3303 H   0  0  0  0  0  0
  -24.3568  -36.8927   22.2073 H   0  0  0  0  0  0
  -23.7213  -37.6471   23.6689 H   0  0  0  0  0  0
  -26.0886  -31.5132   20.5864 H   0  0  0  0  0  0
  -26.8554  -30.8362   21.9908 H   0  0  0  0  0  0
  -28.1216  -28.9328   21.1903 H   0  0  0  0  0  0
  -25.9886  -25.8848   19.0133 H   0  0  0  0  0  0
  -23.9784  -27.2842   19.0125 H   0  0  0  0  0  0
  -23.7696  -30.5712   19.4001 H   0  0  0  0  0  0
  -22.7627  -29.2326   19.8618 H   0  0  0  0  0  0
  -25.1243  -36.1923   25.0818 H   0  0  0  0  0  0
  -20.9978  -28.3283   24.1392 H   0  0  0  0  0  0
  -20.5712  -26.2297   23.3577 H   0  0  0  0  0  0
  -21.6638  -26.7467   22.1141 H   0  0  0  0  0  0
  -19.6900  -25.6325   21.1218 H   0  0  0  0  0  0
  -19.6670  -27.3221   20.6738 H   0  0  0  0  0  0
  -17.4191  -26.6694   21.4044 H   0  0  0  0  0  0
  -18.0329  -26.0059   22.9012 H   0  0  0  0  0  0
  -19.7932  -30.7266   24.2289 H   0  0  0  0  0  0
  -17.5014  -31.6272   24.5154 H   0  0  0  0  0  0
  -15.5346  -30.2968   23.7680 H   0  0  0  0  0  0
  -15.8684  -28.0816   22.7064 H   0  0  0  0  0  0
  -24.5899  -30.6960   25.7641 H   0  0  0  0  0  0
  -24.8865  -32.2699   26.4898 H   0  0  0  0  0  0
  -25.8016  -30.8665   27.0121 H   0  0  0  0  0  0
  -26.3031  -29.6691   24.1182 H   0  0  0  0  0  0
  -27.4256  -29.7307   25.4587 H   0  0  0  0  0  0
  -27.8804  -30.4396   23.9279 H   0  0  0  0  0  0
  -27.2644  -33.3636   26.2010 H   0  0  0  0  0  0
  -28.3892  -32.6789   25.0360 H   0  0  0  0  0  0
  -28.0629  -31.8452   26.5483 H   0  0  0  0  0  0
  -28.2535  -38.0105   24.7549 H   0  0  0  0  0  0
  -28.1071  -36.2623   24.6303 H   0  0  0  0  0  0
  -27.2261  -37.1418   25.8885 H   0  0  0  0  0  0
  -20.9369  -29.8808   21.6907 H   0  0  0  0  0  0
  -26.0155  -38.2819   24.1433 H   0  0  0  0  0  0
  -29.4079  -21.4956   21.5260 H   0  0  0  0  0  0
  -27.4036  -19.0684   17.1719 H   0  0  0  0  0  0
  -27.0769  -18.1028   18.5991 H   0  0  0  0  0  0
  -28.7257  -18.3249   17.9401 H   0  0  0  0  0  0
  -25.5095  -23.1141   20.6421 H   0  0  0  0  0  0
  -25.9119  -24.7377   21.1520 H   0  0  0  0  0  0
  -26.5758  -23.3659   22.0157 H   0  0  0  0  0  0
  -24.7385  -21.2204   19.7355 H   0  0  0  0  0  0
  -24.9454  -19.8656   18.6415 H   0  0  0  0  0  0
  -23.9920  -21.2598   18.1499 H   0  0  0  0  0  0
  -28.7477  -19.7741   10.7217 H   0  0  0  0  0  0
  -28.0760  -19.3653   12.2875 H   0  0  0  0  0  0
  -29.7856  -19.7669   12.1427 H   0  0  0  0  0  0
  -29.3529  -22.1642   10.1363 H   0  0  0  0  0  0
  -30.4381  -22.2913   11.5201 H   0  0  0  0  0  0
  -29.1302  -23.4528   11.3074 H   0  0  0  0  0  0
  -28.4485  -16.0853   22.4824 H   0  0  0  0  0  0
  -30.0090  -16.8639   22.7925 H   0  0  0  0  0  0
  -29.8639  -15.1327   22.9218 H   0  0  0  0  0  0
  -27.5978  -22.8266   15.9189 H   0  0  0  0  0  0
  -28.3389  -21.2902   16.2895 H   0  0  0  0  0  0
  -26.4324  -21.7081   13.9327 H   0  0  0  0  0  0
  -27.3304  -20.2524   14.2812 H   0  0  0  0  0  0
  -25.9564  -20.2993   16.3765 H   0  0  0  0  0  0
  -25.3493  -21.8777   16.1281 H   0  0  0  0  0  0
  -29.4855  -21.5583   13.9381 H   0  0  0  0  0  0
  -28.5239  -22.9742   13.6065 H   0  0  0  0  0  0
  -30.3156  -18.9718   21.3274 H   0  0  0  0  0  0
  -28.6998  -18.4847   21.6876 H   0  0  0  0  0  0
  -30.4770  -17.3118   19.4309 H   0  0  0  0  0  0
  -28.7847  -16.9419   19.5463 H   0  0  0  0  0  0
  -29.4825  -24.6933   20.1373 H   0  0  0  0  0  0
  -28.6183  -24.9449   21.5956 H   0  0  0  0  0  0
  -27.2354  -24.0183   19.1013 H   0  0  0  0  0  0
  -25.9755  -22.6838   18.1787 H   0  0  0  0  0  0
  -27.4498  -21.6894   11.6665 H   0  0  0  0  0  0
  1 25  1  0  0  0
  1 30  2  0  0  0
  1 92  1  0  0  0
  2  3  1  0  0  0
  2 25  1  0  0  0
  2 93  1  0  0  0
  2 94  1  0  0  0
  3  4  1  0  0  0
  3 95  1  0  0  0
  3 96  1  0  0  0
  4  5  1  0  0  0
  4 97  1  0  0  0
  4 98  1  0  0  0
  5  6  1  0  0  0
  5 26  1  0  0  0
  5 99  1  0  0  0
  6 25  1  0  0  0
  6100  1  0  0  0
  6101  1  0  0  0
  7  8  2  0  0  0
  7 26  1  0  0  0
  7 29  1  0  0  0
  8  9  1  0  0  0
  8 22  1  0  0  0
  9 10  1  0  0  0
  9 27  2  0  0  0
 10 11  2  0  0  0
 10 15  1  0  0  0
 11 12  1  0  0  0
 11102  1  0  0  0
 12 13  2  0  0  0
 12103  1  0  0  0
 13 14  1  0  0  0
 13 31  1  0  0  0
 14 15  2  0  0  0
 14104  1  0  0  0
 15105  1  0  0  0
 16 17  2  0  0  0
 16 21  1  0  0  0
 16 31  1  0  0  0
 17 18  1  0  0  0
 17106  1  0  0  0
 18 19  2  0  0  0
 18107  1  0  0  0
 19 20  1  0  0  0
 19 24  1  0  0  0
 20 21  2  0  0  0
 20108  1  0  0  0
 21 23  1  0  0  0
 22 28  1  0  0  0
 22 32  2  0  0  0
 26 27  1  0  0  0
 28109  1  0  0  0
 28110  1  0  0  0
 29111  1  0  0  0
 29112  1  0  0  0
 33 34  1  0  0  0
 33 66  1  0  0  0
 33 70  2  0  0  0
 34 36  1  0  0  0
 34 59  1  0  0  0
 34113  1  0  0  0
 35 44  2  0  0  0
 35 45  1  0  0  0
 35 68  1  0  0  0
 36 56  1  0  0  0
 36114  1  0  0  0
 37 39  1  0  0  0
 37 47  1  0  0  0
 37 66  1  0  0  0
 37115  1  0  0  0
 38 43  2  0  0  0
 38 46  1  0  0  0
 38 47  1  0  0  0
 39 64  1  0  0  0
 39 67  2  0  0  0
 40 52  1  0  0  0
 40 53  2  0  0  0
 40 58  1  0  0  0
 41116  1  0  0  0
 41117  1  0  0  0
 41118  1  0  0  0
 41 48  1  0  0  0
 42 43  1  0  0  0
 42 66  1  0  0  0
 42119  1  0  0  0
 42120  1  0  0  0
 43 44  1  0  0  0
 44121  1  0  0  0
 45 46  2  0  0  0
 45122  1  0  0  0
 46123  1  0  0  0
 47124  1  0  0  0
 47125  1  0  0  0
 48 56  1  0  0  0
 48 65  1  0  0  0
 48126  1  0  0  0
 49 50  1  0  0  0
 49 53  1  0  0  0
 49 64  1  0  0  0
 49127  1  0  0  0
 50 51  1  0  0  0
 50128  1  0  0  0
 50129  1  0  0  0
 51 52  1  0  0  0
 51130  1  0  0  0
 51131  1  0  0  0
 52132  1  0  0  0
 52133  1  0  0  0
 53 54  1  0  0  0
 54 55  2  0  0  0
 54134  1  0  0  0
 55 57  1  0  0  0
 55135  1  0  0  0
 56 69  2  0  0  0
 57 58  2  0  0  0
 57136  1  0  0  0
 58137  1  0  0  0
 59 60  1  0  0  0
 59 61  1  0  0  0
 59 62  1  0  0  0
 60138  1  0  0  0
 60139  1  0  0  0
 60140  1  0  0  0
 61141  1  0  0  0
 61142  1  0  0  0
 61143  1  0  0  0
 62144  1  0  0  0
 62145  1  0  0  0
 62146  1  0  0  0
 63 65  1  0  0  0
 63147  1  0  0  0
 63148  1  0  0  0
 63149  1  0  0  0
 64150  1  0  0  0
 65151  1  0  0  0
 68 87  1  0  0  0
 71 72  2  0  0  0
 71 91  1  0  0  0
 71152  1  0  0  0
 72 73  1  0  0  0
 72 88  1  0  0  0
 73 74  2  0  0  0
 73 89  1  0  0  0
 74 75  1  0  0  0
 74 91  1  0  0  0
 75153  1  0  0  0
 75154  1  0  0  0
 75155  1  0  0  0
 76156  1  0  0  0
 76157  1  0  0  0
 76158  1  0  0  0
 76 88  1  0  0  0
 77159  1  0  0  0
 77160  1  0  0  0
 77161  1  0  0  0
 77 89  1  0  0  0
 78162  1  0  0  0
 78163  1  0  0  0
 78164  1  0  0  0
 78 90  1  0  0  0
 79 90  1  0  0  0
 79165  1  0  0  0
 79166  1  0  0  0
 79167  1  0  0  0
 80 92  1  0  0  0
 80168  1  0  0  0
 80169  1  0  0  0
 80170  1  0  0  0
 81 82  1  0  0  0
 81 83  1  0  0  0
 81171  1  0  0  0
 81172  1  0  0  0
 82 84  1  0  0  0
 82173  1  0  0  0
 82174  1  0  0  0
 83 89  1  0  0  0
 83175  1  0  0  0
 83176  1  0  0  0
 84 90  1  0  0  0
 84177  1  0  0  0
 84178  1  0  0  0
 85 86  1  0  0  0
 85 91  1  0  0  0
 85179  1  0  0  0
 85180  1  0  0  0
 86 92  1  0  0  0
 86181  1  0  0  0
 86182  1  0  0  0
 87 88  1  0  0  0
 87183  1  0  0  0
 87184  1  0  0  0
 88185  1  0  0  0
 89186  1  0  0  0
 90187  1  0  0  0
M  ISO  4   1 100  68 101  87 101  92 100
M  END
> <chiral flag>
0

> <version>
0

> <s_m_source_file>
/data/baiqing/PycharmProjects/Reinvent-master-3.2/result/LINK_invent/BTK/process_docking_weight1_custom_sum_contain_oxygen_bond_distance_aromatic_linkinvent_7_9_3/rearranged_h_0094.sdf

> <i_m_source_file_index>
79

> <r_mmod_Potential_Energy-OPLS-2005>
447.974090576172

> <r_mmod_Stretch_Energy-OPLS-2005>
163.168502807617

> <r_mmod_Bend_Energy-OPLS-2005>
267.207855224609

> <r_mmod_Torsional_Energy-OPLS-2005>
337.066192626953

> <r_mmod_Improper_Torsional_Energy-OPLS-2005>
8.64136028289795

> <r_mmod_Van_der_Waal_Energy-OPLS-2005>
116.607810974121

> <r_mmod_Electrostatic_Energy-OPLS-2005>
-338.874450683594

> <r_mmod_Solvation_Energy-OPLS-2005>
-188.035705566406

> <b_mmod_Minimization_Converged-OPLS-2005>
0

> <r_mmod_RMS_Derivative-OPLS-2005>
2.62995433807373

$$$$
80
                    3D
 Structure written by MMmdl.
163171  0  0  1  0            999 V2000
  -30.7107  -14.5259   20.5673 C   0  0  0  0  0  0
  -30.4244  -12.3464   19.4354 C   0  0  0  0  0  0
  -29.4974  -12.5031   18.2136 C   0  0  0  0  0  0
  -28.0187  -12.3608   18.6250 C   0  0  0  0  0  0
  -27.6561  -13.2186   19.8688 C   0  0  2  0  0  0
  -28.7007  -13.0520   20.9929 C   0  0  0  0  0  0
  -25.2557  -13.8189   20.5681 C   0  0  0  0  0  0
  -24.1827  -13.0442   20.9171 C   0  0  0  0  0  0
  -24.6392  -11.6925   20.8719 C   0  0  0  0  0  0
  -23.9065  -10.4305   21.0392 C   0  0  0  0  0  0
  -24.3622   -9.4215   21.9169 C   0  0  0  0  0  0
  -23.6311   -8.2227   22.0720 C   0  0  0  0  0  0
  -22.4293   -8.0257   21.3513 C   0  0  0  0  0  0
  -21.9927   -9.0229   20.4613 C   0  0  0  0  0  0
  -22.7234  -10.2125   20.3038 C   0  0  0  0  0  0
  -21.6856   -6.0743   22.5269 C   0  0  0  0  0  0
  -21.3992   -6.5640   23.8207 C   0  0  0  0  0  0
  -21.3676   -5.6789   24.9167 C   0  0  0  0  0  0
  -21.6065   -4.3056   24.7208 C   0  0  0  0  0  0
  -21.8820   -3.8144   23.4323 C   0  0  0  0  0  0
  -21.9186   -4.6964   22.3386 C   0  0  0  0  0  0
  -22.7839  -13.5222   21.1869 C   0  0  0  0  0  0
  -22.1650   -4.2148   21.0954 F   0  0  0  0  0  0
  -21.5660   -3.4542   25.7713 F   0  0  0  0  0  0
  -30.0245  -13.3575   20.4279 N   0  0  0  0  0  0
  -26.3011  -12.9371   20.3370 N   0  0  0  0  0  0
  -25.9334  -11.6526   20.5773 N   0  0  0  0  0  0
  -22.0489  -12.8201   22.0414 N   0  0  0  0  0  0
  -25.4269  -15.1904   20.4085 N   0  0  0  0  0  0
  -31.8571  -14.6688   20.1365 O   0  0  0  0  0  0
  -21.6626   -6.8875   21.4232 O   0  0  0  0  0  0
  -22.3521  -14.5559   20.6755 O   0  0  0  0  0  0
  -24.6172  -31.8653   23.2079 C   0  0  0  0  0  0
  -25.9051  -32.4817   23.8379 C   0  0  1  0  0  0
  -27.2330  -27.4031   20.0924 C   0  0  0  0  0  0
  -25.5901  -33.8616   24.2313 N   0  0  0  0  0  0
  -23.4051  -30.4879   21.5502 C   0  0  2  0  0  0
  -24.8466  -28.9467   20.1160 C   0  0  0  0  0  0
  -22.7424  -29.4641   22.4998 C   0  0  0  0  0  0
  -18.0267  -28.1374   22.8490 C   0  0  0  0  0  0
  -24.1479  -36.7316   23.2639 C   0  0  0  0  0  0
  -25.9352  -30.8220   21.3598 C   0  0  0  0  0  0
  -26.0081  -29.4521   20.7103 C   0  0  0  0  0  0
  -27.1989  -28.6877   20.6917 C   0  0  0  0  0  0
  -26.0433  -26.9090   19.5082 C   0  0  0  0  0  0
  -24.8609  -27.6767   19.5132 C   0  0  0  0  0  0
  -23.6109  -29.8185   20.1653 C   0  0  0  0  0  0
  -25.4100  -36.3114   24.0341 C   0  0  1  0  0  0
  -20.5862  -28.3648   23.1333 C   0  0  2  0  0  0
  -20.6753  -26.9389   22.5422 C   0  0  0  0  0  0
  -19.5737  -26.6379   21.5212 C   0  0  0  0  0  0
  -18.1916  -26.7920   22.1619 C   0  0  0  0  0  0
  -19.1516  -28.8825   23.2909 C   0  0  0  0  0  0
  -18.9446  -30.1438   23.8915 C   0  0  0  0  0  0
  -17.6444  -30.6583   24.0561 C   0  0  0  0  0  0
  -25.9034  -34.9478   23.5124 C   0  0  0  0  0  0
  -16.5335  -29.9079   23.6325 C   0  0  0  0  0  0
  -16.7259  -28.6496   23.0352 C   0  0  0  0  0  0
  -26.4469  -31.6615   25.0721 C   0  0  0  0  0  0
  -25.3740  -31.3721   26.1478 C   0  0  0  0  0  0
  -27.0287  -30.3063   24.6085 C   0  0  0  0  0  0
  -27.6048  -32.4334   25.7479 C   0  0  0  0  0  0
  -27.5580  -37.1809   24.8465 C   0  0  0  0  0  0
  -21.4147  -29.3021   22.3747 N   0  0  0  0  0  0
  -26.4289  -37.3800   23.9416 N   0  0  0  0  0  0
  -24.6719  -31.0729   22.0987 N   0  0  0  0  0  0
  -23.4196  -28.8188   23.3040 O   0  0  0  0  0  0
  -28.4328  -26.7082   20.1089 O   0  0  0  0  0  0
  -26.5599  -34.8931   22.4685 O   0  0  0  0  0  0
  -23.5364  -32.1418   23.7467 O   0  0  0  0  0  0
  -29.7137  -19.3108   21.4729 C   0  0  0  0  0  0
  -30.0513  -18.1414   20.8331 C   0  0  0  0  0  0
  -29.8256  -18.3858   19.4448 C   0  0  0  0  0  0
  -29.3480  -19.6702   19.2994 C   0  0  0  0  0  0
  -30.0774  -17.3908   18.3355 C   0  0  0  0  0  0
  -28.9403  -20.3797   18.0452 C   0  0  0  0  0  0
  -29.4305  -24.6290   21.8683 C   0  0  0  0  0  0
  -30.6078  -16.8738   21.5000 C   0  0  0  0  0  0
  -29.0025  -22.8444   20.0707 C   0  0  0  0  0  0
  -28.7503  -21.5948   20.9770 C   0  0  0  0  0  0
  -28.5814  -25.3664   19.5867 C   0  0  0  0  0  0
  -28.5607  -24.2315   20.6602 C   0  0  2  0  0  0
  -29.2782  -20.2665   20.5602 N   0  0  0  0  0  0
  -30.0346  -15.5724   21.0937 N   0  0  0  0  0  0
  -31.4647  -12.4586   19.1255 H   0  0  0  0  0  0
  -30.3373  -11.3461   19.8638 H   0  0  0  0  0  0
  -29.7493  -11.7645   17.4534 H   0  0  0  0  0  0
  -29.6582  -13.4829   17.7593 H   0  0  0  0  0  0
  -27.8272  -11.3081   18.8333 H   0  0  0  0  0  0
  -27.3700  -12.6210   17.7876 H   0  0  0  0  0  0
  -27.6883  -14.2597   19.5527 H   0  0  0  0  0  0
  -28.6880  -12.0346   21.3803 H   0  0  0  0  0  0
  -28.4586  -13.6958   21.8403 H   0  0  0  0  0  0
  -25.2755   -9.5707   22.4750 H   0  0  0  0  0  0
  -24.0026   -7.4634   22.7455 H   0  0  0  0  0  0
  -21.0846   -8.8752   19.8940 H   0  0  0  0  0  0
  -22.3672  -10.9664   19.6160 H   0  0  0  0  0  0
  -21.1942   -7.6146   23.9710 H   0  0  0  0  0  0
  -21.1528   -6.0509   25.9086 H   0  0  0  0  0  0
  -22.0590   -2.7609   23.2805 H   0  0  0  0  0  0
  -22.4103  -11.9877   22.4821 H   0  0  0  0  0  0
  -21.1107  -13.1225   22.2614 H   0  0  0  0  0  0
  -24.6683  -15.8531   20.5331 H   0  0  0  0  0  0
  -26.2828  -15.6298   20.0907 H   0  0  0  0  0  0
  -26.7116  -32.5507   23.1135 H   0  0  0  0  0  0
  -25.0064  -33.9778   25.0466 H   0  0  0  0  0  0
  -22.6948  -31.3055   21.4130 H   0  0  0  0  0  0
  -23.3746  -35.9649   23.3313 H   0  0  0  0  0  0
  -24.3569  -36.8920   22.2055 H   0  0  0  0  0  0
  -23.7229  -37.6520   23.6644 H   0  0  0  0  0  0
  -26.0437  -31.5837   20.5857 H   0  0  0  0  0  0
  -26.8262  -30.8808   21.9734 H   0  0  0  0  0  0
  -28.0987  -29.0792   21.1453 H   0  0  0  0  0  0
  -25.9928  -25.9345   19.0483 H   0  0  0  0  0  0
  -23.9645  -27.2826   19.0547 H   0  0  0  0  0  0
  -23.7186  -30.5927   19.4048 H   0  0  0  0  0  0
  -22.7336  -29.2401   19.8726 H   0  0  0  0  0  0
  -25.1276  -36.1979   25.0835 H   0  0  0  0  0  0
  -20.9949  -28.3198   24.1458 H   0  0  0  0  0  0
  -20.5645  -26.2256   23.3598 H   0  0  0  0  0  0
  -21.6625  -26.7421   22.1226 H   0  0  0  0  0  0
  -19.6895  -25.6294   21.1237 H   0  0  0  0  0  0
  -19.6693  -27.3194   20.6751 H   0  0  0  0  0  0
  -17.4193  -26.6682   21.4015 H   0  0  0  0  0  0
  -18.0309  -26.0058   22.9004 H   0  0  0  0  0  0
  -19.7921  -30.7244   24.2305 H   0  0  0  0  0  0
  -17.5001  -31.6265   24.5146 H   0  0  0  0  0  0
  -15.5339  -30.2982   23.7643 H   0  0  0  0  0  0
  -15.8662  -28.0819   22.7061 H   0  0  0  0  0  0
  -24.5906  -30.7072   25.7823 H   0  0  0  0  0  0
  -24.8936  -32.2875   26.4944 H   0  0  0  0  0  0
  -25.8100  -30.8883   27.0230 H   0  0  0  0  0  0
  -26.2817  -29.6841   24.1142 H   0  0  0  0  0  0
  -27.4073  -29.7278   25.4523 H   0  0  0  0  0  0
  -27.8647  -30.4396   23.9213 H   0  0  0  0  0  0
  -27.2674  -33.3627   26.2080 H   0  0  0  0  0  0
  -28.3841  -32.6912   25.0295 H   0  0  0  0  0  0
  -28.0739  -31.8449   26.5376 H   0  0  0  0  0  0
  -28.2607  -38.0100   24.7509 H   0  0  0  0  0  0
  -28.1065  -36.2628   24.6287 H   0  0  0  0  0  0
  -27.2302  -37.1466   25.8872 H   0  0  0  0  0  0
  -20.9309  -29.8757   21.6978 H   0  0  0  0  0  0
  -26.0181  -38.2882   24.1416 H   0  0  0  0  0  0
  -29.7350  -19.5532   22.5282 H   0  0  0  0  0  0
  -29.2403  -16.6972   18.2439 H   0  0  0  0  0  0
  -30.9758  -16.8094   18.5405 H   0  0  0  0  0  0
  -30.2281  -17.8826   17.3761 H   0  0  0  0  0  0
  -29.0232  -19.7384   17.1700 H   0  0  0  0  0  0
  -29.5766  -21.2438   17.8549 H   0  0  0  0  0  0
  -27.9022  -20.7060   18.0961 H   0  0  0  0  0  0
  -29.3553  -23.9086   22.6826 H   0  0  0  0  0  0
  -29.1196  -25.5921   22.2752 H   0  0  0  0  0  0
  -30.4815  -24.7164   21.5870 H   0  0  0  0  0  0
  -30.4501  -16.9672   22.5749 H   0  0  0  0  0  0
  -31.6921  -16.8830   21.3634 H   0  0  0  0  0  0
  -28.4544  -22.7150   19.1404 H   0  0  0  0  0  0
  -30.0584  -22.8884   19.7986 H   0  0  0  0  0  0
  -27.6779  -21.4888   21.1468 H   0  0  0  0  0  0
  -29.1847  -21.8005   21.9540 H   0  0  0  0  0  0
  -27.8984  -25.1443   18.7695 H   0  0  0  0  0  0
  -29.5660  -25.3558   19.1171 H   0  0  0  0  0  0
  -27.5320  -24.1350   21.0088 H   0  0  0  0  0  0
  -29.0608  -15.4238   21.3161 H   0  0  0  0  0  0
  1 25  1  0  0  0
  1 30  2  0  0  0
  1 84  1  0  0  0
  2  3  1  0  0  0
  2 25  1  0  0  0
  2 85  1  0  0  0
  2 86  1  0  0  0
  3  4  1  0  0  0
  3 87  1  0  0  0
  3 88  1  0  0  0
  4  5  1  0  0  0
  4 89  1  0  0  0
  4 90  1  0  0  0
  5  6  1  0  0  0
  5 26  1  0  0  0
  5 91  1  0  0  0
  6 25  1  0  0  0
  6 92  1  0  0  0
  6 93  1  0  0  0
  7  8  2  0  0  0
  7 26  1  0  0  0
  7 29  1  0  0  0
  8  9  1  0  0  0
  8 22  1  0  0  0
  9 10  1  0  0  0
  9 27  2  0  0  0
 10 11  2  0  0  0
 10 15  1  0  0  0
 11 12  1  0  0  0
 11 94  1  0  0  0
 12 13  2  0  0  0
 12 95  1  0  0  0
 13 14  1  0  0  0
 13 31  1  0  0  0
 14 15  2  0  0  0
 14 96  1  0  0  0
 15 97  1  0  0  0
 16 17  2  0  0  0
 16 21  1  0  0  0
 16 31  1  0  0  0
 17 18  1  0  0  0
 17 98  1  0  0  0
 18 19  2  0  0  0
 18 99  1  0  0  0
 19 20  1  0  0  0
 19 24  1  0  0  0
 20 21  2  0  0  0
 20100  1  0  0  0
 21 23  1  0  0  0
 22 28  1  0  0  0
 22 32  2  0  0  0
 26 27  1  0  0  0
 28101  1  0  0  0
 28102  1  0  0  0
 29103  1  0  0  0
 29104  1  0  0  0
 33 34  1  0  0  0
 33 66  1  0  0  0
 33 70  2  0  0  0
 34 36  1  0  0  0
 34 59  1  0  0  0
 34105  1  0  0  0
 35 44  2  0  0  0
 35 45  1  0  0  0
 35 68  1  0  0  0
 36 56  1  0  0  0
 36106  1  0  0  0
 37 39  1  0  0  0
 37 47  1  0  0  0
 37 66  1  0  0  0
 37107  1  0  0  0
 38 43  2  0  0  0
 38 46  1  0  0  0
 38 47  1  0  0  0
 39 64  1  0  0  0
 39 67  2  0  0  0
 40 52  1  0  0  0
 40 53  2  0  0  0
 40 58  1  0  0  0
 41108  1  0  0  0
 41109  1  0  0  0
 41110  1  0  0  0
 41 48  1  0  0  0
 42 43  1  0  0  0
 42 66  1  0  0  0
 42111  1  0  0  0
 42112  1  0  0  0
 43 44  1  0  0  0
 44113  1  0  0  0
 45 46  2  0  0  0
 45114  1  0  0  0
 46115  1  0  0  0
 47116  1  0  0  0
 47117  1  0  0  0
 48 56  1  0  0  0
 48 65  1  0  0  0
 48118  1  0  0  0
 49 50  1  0  0  0
 49 53  1  0  0  0
 49 64  1  0  0  0
 49119  1  0  0  0
 50 51  1  0  0  0
 50120  1  0  0  0
 50121  1  0  0  0
 51 52  1  0  0  0
 51122  1  0  0  0
 51123  1  0  0  0
 52124  1  0  0  0
 52125  1  0  0  0
 53 54  1  0  0  0
 54 55  2  0  0  0
 54126  1  0  0  0
 55 57  1  0  0  0
 55127  1  0  0  0
 56 69  2  0  0  0
 57 58  2  0  0  0
 57128  1  0  0  0
 58129  1  0  0  0
 59 60  1  0  0  0
 59 61  1  0  0  0
 59 62  1  0  0  0
 60130  1  0  0  0
 60131  1  0  0  0
 60132  1  0  0  0
 61133  1  0  0  0
 61134  1  0  0  0
 61135  1  0  0  0
 62136  1  0  0  0
 62137  1  0  0  0
 62138  1  0  0  0
 63 65  1  0  0  0
 63139  1  0  0  0
 63140  1  0  0  0
 63141  1  0  0  0
 64142  1  0  0  0
 65143  1  0  0  0
 68 81  1  0  0  0
 71 72  2  0  0  0
 71 83  1  0  0  0
 71144  1  0  0  0
 72 73  1  0  0  0
 72 78  1  0  0  0
 73 74  2  0  0  0
 73 75  1  0  0  0
 74 76  1  0  0  0
 74 83  1  0  0  0
 75145  1  0  0  0
 75146  1  0  0  0
 75147  1  0  0  0
 76148  1  0  0  0
 76149  1  0  0  0
 76150  1  0  0  0
 77151  1  0  0  0
 77152  1  0  0  0
 77153  1  0  0  0
 77 82  1  0  0  0
 78 84  1  0  0  0
 78154  1  0  0  0
 78155  1  0  0  0
 79 80  1  0  0  0
 79 82  1  0  0  0
 79156  1  0  0  0
 79157  1  0  0  0
 80 83  1  0  0  0
 80158  1  0  0  0
 80159  1  0  0  0
 81 82  1  0  0  0
 81160  1  0  0  0
 81161  1  0  0  0
 82162  1  0  0  0
 84163  1  0  0  0
M  ISO  4   1 100  68 101  81 101  84 100
M  END
> <chiral flag>
0

> <version>
0

> <s_m_source_file>
/data/baiqing/PycharmProjects/Reinvent-master-3.2/result/LINK_invent/BTK/process_docking_weight1_custom_sum_contain_oxygen_bond_distance_aromatic_linkinvent_7_9_3/rearranged_h_0094.sdf

> <i_m_source_file_index>
80

> <r_mmod_Potential_Energy-OPLS-2005>
-115.027374267578

> <r_mmod_Stretch_Energy-OPLS-2005>
45.3901901245117

> <r_mmod_Bend_Energy-OPLS-2005>
130.101776123047

> <r_mmod_Torsional_Energy-OPLS-2005>
206.969253540039

> <r_mmod_Improper_Torsional_Energy-OPLS-2005>
3.02728390693665

> <r_mmod_Van_der_Waal_Energy-OPLS-2005>
124.27571105957

> <r_mmod_Electrostatic_Energy-OPLS-2005>
-437.075378417969

> <r_mmod_Solvation_Energy-OPLS-2005>
-207.731399536133

> <b_mmod_Minimization_Converged-OPLS-2005>
0

> <r_mmod_RMS_Derivative-OPLS-2005>
3.37401652336121

$$$$
81
                    3D
 Structure written by MMmdl.
169177  0  0  1  0            999 V2000
  -30.6246  -14.5785   20.4949 C   0  0  0  0  0  0
  -30.4209  -12.3414   19.4665 C   0  0  0  0  0  0
  -29.5131  -12.5093   18.2277 C   0  0  0  0  0  0
  -28.0285  -12.3474   18.6213 C   0  0  0  0  0  0
  -27.6466  -13.2123   19.8505 C   0  0  2  0  0  0
  -28.6782  -13.0561   20.9897 C   0  0  0  0  0  0
  -25.2523  -13.8151   20.5594 C   0  0  0  0  0  0
  -24.1801  -13.0406   20.9126 C   0  0  0  0  0  0
  -24.6375  -11.6878   20.8629 C   0  0  0  0  0  0
  -23.9071  -10.4265   21.0334 C   0  0  0  0  0  0
  -24.3611   -9.4219   21.9138 C   0  0  0  0  0  0
  -23.6256   -8.2269   22.0744 C   0  0  0  0  0  0
  -22.4256   -8.0265   21.3501 C   0  0  0  0  0  0
  -21.9896   -9.0217   20.4597 C   0  0  0  0  0  0
  -22.7222  -10.2106   20.3012 C   0  0  0  0  0  0
  -21.6843   -6.0729   22.5288 C   0  0  0  0  0  0
  -21.4022   -6.5665   23.8210 C   0  0  0  0  0  0
  -21.3677   -5.6829   24.9176 C   0  0  0  0  0  0
  -21.6053   -4.3089   24.7224 C   0  0  0  0  0  0
  -21.8804   -3.8168   23.4345 C   0  0  0  0  0  0
  -21.9177   -4.6973   22.3393 C   0  0  0  0  0  0
  -22.7848  -13.5189   21.1859 C   0  0  0  0  0  0
  -22.1640   -4.2173   21.0967 F   0  0  0  0  0  0
  -21.5632   -3.4556   25.7719 F   0  0  0  0  0  0
  -30.0082  -13.3638   20.4426 N   0  0  0  0  0  0
  -26.2923  -12.9324   20.3148 N   0  0  0  0  0  0
  -25.9304  -11.6484   20.5625 N   0  0  0  0  0  0
  -22.0541  -12.8176   22.0482 N   0  0  0  0  0  0
  -25.4240  -15.1871   20.4083 N   0  0  0  0  0  0
  -31.7811  -14.7504   20.0958 O   0  0  0  0  0  0
  -21.6616   -6.8853   21.4244 O   0  0  0  0  0  0
  -22.3486  -14.5432   20.6659 O   0  0  0  0  0  0
  -24.6169  -31.8637   23.2055 C   0  0  0  0  0  0
  -25.9061  -32.4801   23.8362 C   0  0  1  0  0  0
  -27.2436  -27.4025   20.0924 C   0  0  0  0  0  0
  -25.5919  -33.8591   24.2293 N   0  0  0  0  0  0
  -23.4060  -30.4842   21.5461 C   0  0  2  0  0  0
  -24.8530  -28.9366   20.1178 C   0  0  0  0  0  0
  -22.7416  -29.4645   22.4982 C   0  0  0  0  0  0
  -18.0272  -28.1373   22.8480 C   0  0  0  0  0  0
  -24.1509  -36.7324   23.2629 C   0  0  0  0  0  0
  -25.9360  -30.8209   21.3582 C   0  0  0  0  0  0
  -26.0130  -29.4485   20.7091 C   0  0  0  0  0  0
  -27.2047  -28.6855   20.6961 C   0  0  0  0  0  0
  -26.0555  -26.8985   19.5222 C   0  0  0  0  0  0
  -24.8692  -27.6602   19.5264 C   0  0  0  0  0  0
  -23.6171  -29.8075   20.1636 C   0  0  0  0  0  0
  -25.4125  -36.3091   24.0324 C   0  0  1  0  0  0
  -20.5863  -28.3671   23.1314 C   0  0  2  0  0  0
  -20.6777  -26.9411   22.5415 C   0  0  0  0  0  0
  -19.5755  -26.6384   21.5213 C   0  0  0  0  0  0
  -18.1931  -26.7922   22.1620 C   0  0  0  0  0  0
  -19.1518  -28.8835   23.2894 C   0  0  0  0  0  0
  -18.9454  -30.1448   23.8897 C   0  0  0  0  0  0
  -17.6454  -30.6582   24.0566 C   0  0  0  0  0  0
  -25.9052  -34.9453   23.5108 C   0  0  0  0  0  0
  -16.5345  -29.9080   23.6336 C   0  0  0  0  0  0
  -16.7260  -28.6502   23.0337 C   0  0  0  0  0  0
  -26.4480  -31.6584   25.0692 C   0  0  0  0  0  0
  -25.3763  -31.3694   26.1454 C   0  0  0  0  0  0
  -27.0313  -30.3033   24.6066 C   0  0  0  0  0  0
  -27.6047  -32.4293   25.7471 C   0  0  0  0  0  0
  -27.5593  -37.1810   24.8458 C   0  0  0  0  0  0
  -21.4140  -29.3039   22.3725 N   0  0  0  0  0  0
  -26.4304  -37.3782   23.9398 N   0  0  0  0  0  0
  -24.6722  -31.0706   22.0968 N   0  0  0  0  0  0
  -23.4180  -28.8189   23.3028 O   0  0  0  0  0  0
  -28.4388  -26.7015   20.1263 O   0  0  0  0  0  0
  -26.5606  -34.8911   22.4665 O   0  0  0  0  0  0
  -23.5357  -32.1376   23.7459 O   0  0  0  0  0  0
  -29.3148  -20.6437   20.4758 C   0  0  0  0  0  0
  -28.7970  -19.3979   20.1936 C   0  0  0  0  0  0
  -27.9399  -19.5803   19.0554 C   0  0  0  0  0  0
  -28.0096  -20.9061   18.6778 C   0  0  0  0  0  0
  -27.3531  -21.6182   17.5276 C   0  0  0  0  0  0
  -27.6938  -18.0589   17.0343 C   0  0  0  0  0  0
  -25.6251  -18.8508   18.2634 C   0  0  0  0  0  0
  -28.5758  -25.7906   17.8134 C   0  0  0  0  0  0
  -29.0291  -18.0810   20.9679 C   0  0  0  0  0  0
  -28.2680  -24.1263   19.8172 C   0  0  0  0  0  0
  -29.2926  -22.9894   19.4595 C   0  0  0  0  0  0
  -29.9644  -17.0310   20.2847 C   0  0  0  0  0  0
  -27.1148  -18.4832   18.3932 C   0  0  0  0  0  0
  -28.7523  -25.5351   19.3245 C   0  0  2  0  0  0
  -28.8502  -21.5786   19.5550 N   0  0  0  0  0  0
  -29.8126  -15.6308   20.7711 N   0  0  0  0  0  0
  -31.4759  -12.4265   19.1940 H   0  0  0  0  0  0
  -30.3013  -11.3416   19.8921 H   0  0  0  0  0  0
  -29.7834  -11.7863   17.4573 H   0  0  0  0  0  0
  -29.6759  -13.4959   17.7881 H   0  0  0  0  0  0
  -27.8500  -11.2914   18.8347 H   0  0  0  0  0  0
  -27.3862  -12.5877   17.7745 H   0  0  0  0  0  0
  -27.6652  -14.2468   19.5070 H   0  0  0  0  0  0
  -28.6605  -12.0398   21.3853 H   0  0  0  0  0  0
  -28.4245  -13.7022   21.8306 H   0  0  0  0  0  0
  -25.2744   -9.5745   22.4742 H   0  0  0  0  0  0
  -23.9953   -7.4681   22.7504 H   0  0  0  0  0  0
  -21.0823   -8.8707   19.8899 H   0  0  0  0  0  0
  -22.3676  -10.9610   19.6106 H   0  0  0  0  0  0
  -21.2012   -7.6186   23.9694 H   0  0  0  0  0  0
  -21.1546   -6.0577   25.9067 H   0  0  0  0  0  0
  -22.0562   -2.7637   23.2824 H   0  0  0  0  0  0
  -22.4190  -11.9903   22.4952 H   0  0  0  0  0  0
  -21.1176  -13.1200   22.2698 H   0  0  0  0  0  0
  -24.6499  -15.8321   20.5168 H   0  0  0  0  0  0
  -26.2720  -15.6380   20.0907 H   0  0  0  0  0  0
  -26.7131  -32.5490   23.1125 H   0  0  0  0  0  0
  -25.0090  -33.9758   25.0453 H   0  0  0  0  0  0
  -22.6980  -31.3018   21.4015 H   0  0  0  0  0  0
  -23.3759  -35.9670   23.3277 H   0  0  0  0  0  0
  -24.3614  -36.8961   22.2048 H   0  0  0  0  0  0
  -23.7288  -37.6529   23.6670 H   0  0  0  0  0  0
  -26.0424  -31.5818   20.5828 H   0  0  0  0  0  0
  -26.8259  -30.8821   21.9742 H   0  0  0  0  0  0
  -28.1002  -29.0817   21.1553 H   0  0  0  0  0  0
  -26.0256  -25.9089   19.0940 H   0  0  0  0  0  0
  -23.9708  -27.2507   19.0876 H   0  0  0  0  0  0
  -23.7311  -30.5758   19.3983 H   0  0  0  0  0  0
  -22.7396  -29.2308   19.8675 H   0  0  0  0  0  0
  -25.1317  -36.1936   25.0820 H   0  0  0  0  0  0
  -20.9956  -28.3237   24.1429 H   0  0  0  0  0  0
  -20.5710  -26.2272   23.3591 H   0  0  0  0  0  0
  -21.6646  -26.7472   22.1192 H   0  0  0  0  0  0
  -19.6934  -25.6299   21.1228 H   0  0  0  0  0  0
  -19.6699  -27.3201   20.6746 H   0  0  0  0  0  0
  -17.4212  -26.6650   21.4023 H   0  0  0  0  0  0
  -18.0351  -26.0063   22.9014 H   0  0  0  0  0  0
  -19.7933  -30.7268   24.2260 H   0  0  0  0  0  0
  -17.5011  -31.6260   24.5167 H   0  0  0  0  0  0
  -15.5351  -30.2979   23.7668 H   0  0  0  0  0  0
  -15.8661  -28.0835   22.7035 H   0  0  0  0  0  0
  -24.5893  -30.7094   25.7810 H   0  0  0  0  0  0
  -24.9008  -32.2849   26.4968 H   0  0  0  0  0  0
  -25.8114  -30.8803   27.0176 H   0  0  0  0  0  0
  -26.2853  -29.6790   24.1139 H   0  0  0  0  0  0
  -27.4120  -29.7266   25.4509 H   0  0  0  0  0  0
  -27.8672  -30.4370   23.9196 H   0  0  0  0  0  0
  -27.2660  -33.3556   26.2122 H   0  0  0  0  0  0
  -28.3839  -32.6905   25.0307 H   0  0  0  0  0  0
  -28.0749  -31.8370   26.5333 H   0  0  0  0  0  0
  -28.2588  -38.0121   24.7510 H   0  0  0  0  0  0
  -28.1100  -36.2648   24.6281 H   0  0  0  0  0  0
  -27.2300  -37.1469   25.8853 H   0  0  0  0  0  0
  -20.9316  -29.8741   21.6927 H   0  0  0  0  0  0
  -26.0182  -38.2859   24.1381 H   0  0  0  0  0  0
  -29.9984  -20.9467   21.2582 H   0  0  0  0  0  0
  -26.3218  -21.8774   17.7640 H   0  0  0  0  0  0
  -27.3386  -20.9903   16.6392 H   0  0  0  0  0  0
  -27.8704  -22.5319   17.2404 H   0  0  0  0  0  0
  -28.7298  -17.7339   17.1276 H   0  0  0  0  0  0
  -27.6680  -18.8655   16.3048 H   0  0  0  0  0  0
  -27.1254  -17.2316   16.6088 H   0  0  0  0  0  0
  -25.2147  -19.1828   19.2165 H   0  0  0  0  0  0
  -25.0457  -17.9867   17.9399 H   0  0  0  0  0  0
  -25.4520  -19.6386   17.5303 H   0  0  0  0  0  0
  -29.0403  -25.0006   17.2234 H   0  0  0  0  0  0
  -29.0422  -26.7302   17.5146 H   0  0  0  0  0  0
  -27.5352  -25.8407   17.5048 H   0  0  0  0  0  0
  -28.0455  -17.6479   21.1479 H   0  0  0  0  0  0
  -29.4274  -18.3143   21.9580 H   0  0  0  0  0  0
  -28.1481  -24.1508   20.9004 H   0  0  0  0  0  0
  -27.2804  -23.9068   19.4111 H   0  0  0  0  0  0
  -29.6438  -23.1382   18.4396 H   0  0  0  0  0  0
  -30.1877  -23.1058   20.0705 H   0  0  0  0  0  0
  -31.0001  -17.3617   20.3661 H   0  0  0  0  0  0
  -29.7350  -17.0163   19.2195 H   0  0  0  0  0  0
  -27.1662  -17.6092   19.0440 H   0  0  0  0  0  0
  -29.8320  -25.5051   19.4729 H   0  0  0  0  0  0
  -28.9021  -15.3831   21.1279 H   0  0  0  0  0  0
  1 25  1  0  0  0
  1 30  2  0  0  0
  1 86  1  0  0  0
  2  3  1  0  0  0
  2 25  1  0  0  0
  2 87  1  0  0  0
  2 88  1  0  0  0
  3  4  1  0  0  0
  3 89  1  0  0  0
  3 90  1  0  0  0
  4  5  1  0  0  0
  4 91  1  0  0  0
  4 92  1  0  0  0
  5  6  1  0  0  0
  5 26  1  0  0  0
  5 93  1  0  0  0
  6 25  1  0  0  0
  6 94  1  0  0  0
  6 95  1  0  0  0
  7  8  2  0  0  0
  7 26  1  0  0  0
  7 29  1  0  0  0
  8  9  1  0  0  0
  8 22  1  0  0  0
  9 10  1  0  0  0
  9 27  2  0  0  0
 10 11  2  0  0  0
 10 15  1  0  0  0
 11 12  1  0  0  0
 11 96  1  0  0  0
 12 13  2  0  0  0
 12 97  1  0  0  0
 13 14  1  0  0  0
 13 31  1  0  0  0
 14 15  2  0  0  0
 14 98  1  0  0  0
 15 99  1  0  0  0
 16 17  2  0  0  0
 16 21  1  0  0  0
 16 31  1  0  0  0
 17 18  1  0  0  0
 17100  1  0  0  0
 18 19  2  0  0  0
 18101  1  0  0  0
 19 20  1  0  0  0
 19 24  1  0  0  0
 20 21  2  0  0  0
 20102  1  0  0  0
 21 23  1  0  0  0
 22 28  1  0  0  0
 22 32  2  0  0  0
 26 27  1  0  0  0
 28103  1  0  0  0
 28104  1  0  0  0
 29105  1  0  0  0
 29106  1  0  0  0
 33 34  1  0  0  0
 33 66  1  0  0  0
 33 70  2  0  0  0
 34 36  1  0  0  0
 34 59  1  0  0  0
 34107  1  0  0  0
 35 44  2  0  0  0
 35 45  1  0  0  0
 35 68  1  0  0  0
 36 56  1  0  0  0
 36108  1  0  0  0
 37 39  1  0  0  0
 37 47  1  0  0  0
 37 66  1  0  0  0
 37109  1  0  0  0
 38 43  2  0  0  0
 38 46  1  0  0  0
 38 47  1  0  0  0
 39 64  1  0  0  0
 39 67  2  0  0  0
 40 52  1  0  0  0
 40 53  2  0  0  0
 40 58  1  0  0  0
 41110  1  0  0  0
 41111  1  0  0  0
 41112  1  0  0  0
 41 48  1  0  0  0
 42 43  1  0  0  0
 42 66  1  0  0  0
 42113  1  0  0  0
 42114  1  0  0  0
 43 44  1  0  0  0
 44115  1  0  0  0
 45 46  2  0  0  0
 45116  1  0  0  0
 46117  1  0  0  0
 47118  1  0  0  0
 47119  1  0  0  0
 48 56  1  0  0  0
 48 65  1  0  0  0
 48120  1  0  0  0
 49 50  1  0  0  0
 49 53  1  0  0  0
 49 64  1  0  0  0
 49121  1  0  0  0
 50 51  1  0  0  0
 50122  1  0  0  0
 50123  1  0  0  0
 51 52  1  0  0  0
 51124  1  0  0  0
 51125  1  0  0  0
 52126  1  0  0  0
 52127  1  0  0  0
 53 54  1  0  0  0
 54 55  2  0  0  0
 54128  1  0  0  0
 55 57  1  0  0  0
 55129  1  0  0  0
 56 69  2  0  0  0
 57 58  2  0  0  0
 57130  1  0  0  0
 58131  1  0  0  0
 59 60  1  0  0  0
 59 61  1  0  0  0
 59 62  1  0  0  0
 60132  1  0  0  0
 60133  1  0  0  0
 60134  1  0  0  0
 61135  1  0  0  0
 61136  1  0  0  0
 61137  1  0  0  0
 62138  1  0  0  0
 62139  1  0  0  0
 62140  1  0  0  0
 63 65  1  0  0  0
 63141  1  0  0  0
 63142  1  0  0  0
 63143  1  0  0  0
 64144  1  0  0  0
 65145  1  0  0  0
 68 84  1  0  0  0
 71 72  2  0  0  0
 71 85  1  0  0  0
 71146  1  0  0  0
 72 73  1  0  0  0
 72 79  1  0  0  0
 73 74  2  0  0  0
 73 83  1  0  0  0
 74 75  1  0  0  0
 74 85  1  0  0  0
 75147  1  0  0  0
 75148  1  0  0  0
 75149  1  0  0  0
 76150  1  0  0  0
 76151  1  0  0  0
 76152  1  0  0  0
 76 83  1  0  0  0
 77 83  1  0  0  0
 77153  1  0  0  0
 77154  1  0  0  0
 77155  1  0  0  0
 78156  1  0  0  0
 78157  1  0  0  0
 78158  1  0  0  0
 78 84  1  0  0  0
 79 82  1  0  0  0
 79159  1  0  0  0
 79160  1  0  0  0
 80 81  1  0  0  0
 80 84  1  0  0  0
 80161  1  0  0  0
 80162  1  0  0  0
 81 85  1  0  0  0
 81163  1  0  0  0
 81164  1  0  0  0
 82 86  1  0  0  0
 82165  1  0  0  0
 82166  1  0  0  0
 83167  1  0  0  0
 84168  1  0  0  0
 86169  1  0  0  0
M  ISO  4   1 100  68 101  84 101  86 100
M  END
> <chiral flag>
0

> <version>
0

> <s_m_source_file>
/data/baiqing/PycharmProjects/Reinvent-master-3.2/result/LINK_invent/BTK/process_docking_weight1_custom_sum_contain_oxygen_bond_distance_aromatic_linkinvent_7_9_3/rearranged_h_0094.sdf

> <i_m_source_file_index>
81

> <r_mmod_Potential_Energy-OPLS-2005>
-89.5054626464844

> <r_mmod_Stretch_Energy-OPLS-2005>
48.6754684448242

> <r_mmod_Bend_Energy-OPLS-2005>
139.652221679688

> <r_mmod_Torsional_Energy-OPLS-2005>
220.88703918457

> <r_mmod_Improper_Torsional_Energy-OPLS-2005>
7.18383646011353

> <r_mmod_Van_der_Waal_Energy-OPLS-2005>
112.792984008789

> <r_mmod_Electrostatic_Energy-OPLS-2005>
-438.068725585938

> <r_mmod_Solvation_Energy-OPLS-2005>
-207.711547851562

> <b_mmod_Minimization_Converged-OPLS-2005>
0

> <r_mmod_RMS_Derivative-OPLS-2005>
4.76907587051392

$$$$
82
                    3D
 Structure written by MMmdl.
162170  0  0  1  0            999 V2000
  -30.7335  -14.5489   20.5490 C   0  0  0  0  0  0
  -30.4120  -12.3632   19.4453 C   0  0  0  0  0  0
  -29.4946  -12.5097   18.2154 C   0  0  0  0  0  0
  -28.0164  -12.3596   18.6254 C   0  0  0  0  0  0
  -27.6486  -13.2204   19.8641 C   0  0  2  0  0  0
  -28.6936  -13.0571   20.9892 C   0  0  0  0  0  0
  -25.2515  -13.8178   20.5679 C   0  0  0  0  0  0
  -24.1809  -13.0436   20.9234 C   0  0  0  0  0  0
  -24.6382  -11.6912   20.8761 C   0  0  0  0  0  0
  -23.9054  -10.4292   21.0408 C   0  0  0  0  0  0
  -24.3607   -9.4202   21.9184 C   0  0  0  0  0  0
  -23.6281   -8.2237   22.0739 C   0  0  0  0  0  0
  -22.4261   -8.0276   21.3536 C   0  0  0  0  0  0
  -21.9903   -9.0245   20.4633 C   0  0  0  0  0  0
  -22.7226  -10.2133   20.3052 C   0  0  0  0  0  0
  -21.6849   -6.0738   22.5283 C   0  0  0  0  0  0
  -21.4008   -6.5635   23.8219 C   0  0  0  0  0  0
  -21.3663   -5.6783   24.9180 C   0  0  0  0  0  0
  -21.6048   -4.3046   24.7234 C   0  0  0  0  0  0
  -21.8811   -3.8144   23.4352 C   0  0  0  0  0  0
  -21.9184   -4.6964   22.3409 C   0  0  0  0  0  0
  -22.7825  -13.5221   21.1883 C   0  0  0  0  0  0
  -22.1649   -4.2151   21.0990 F   0  0  0  0  0  0
  -21.5638   -3.4531   25.7748 F   0  0  0  0  0  0
  -30.0063  -13.3953   20.4226 N   0  0  0  0  0  0
  -26.2950  -12.9376   20.3316 N   0  0  0  0  0  0
  -25.9307  -11.6526   20.5762 N   0  0  0  0  0  0
  -22.0450  -12.8216   22.0424 N   0  0  0  0  0  0
  -25.4173  -15.1898   20.4001 N   0  0  0  0  0  0
  -31.8981  -14.6108   20.1611 O   0  0  0  0  0  0
  -21.6623   -6.8878   21.4243 O   0  0  0  0  0  0
  -22.3521  -14.5524   20.6703 O   0  0  0  0  0  0
  -24.6222  -31.8651   23.2093 C   0  0  0  0  0  0
  -25.9099  -32.4808   23.8402 C   0  0  1  0  0  0
  -27.2170  -27.3749   20.1104 C   0  0  0  0  0  0
  -25.5960  -33.8611   24.2346 N   0  0  0  0  0  0
  -23.4117  -30.4926   21.5496 C   0  0  2  0  0  0
  -24.8560  -28.9630   20.1048 C   0  0  0  0  0  0
  -22.7442  -29.4656   22.4950 C   0  0  0  0  0  0
  -18.0289  -28.1384   22.8484 C   0  0  0  0  0  0
  -24.1496  -36.7298   23.2636 C   0  0  0  0  0  0
  -25.9483  -30.8166   21.3703 C   0  0  0  0  0  0
  -26.0225  -29.4504   20.7088 C   0  0  0  0  0  0
  -27.2081  -28.6678   20.7019 C   0  0  0  0  0  0
  -26.0322  -26.9316   19.4763 C   0  0  0  0  0  0
  -24.8620  -27.7098   19.4764 C   0  0  0  0  0  0
  -23.6209  -29.8335   20.1611 C   0  0  0  0  0  0
  -25.4118  -36.3106   24.0342 C   0  0  1  0  0  0
  -20.5887  -28.3684   23.1290 C   0  0  2  0  0  0
  -20.6788  -26.9416   22.5402 C   0  0  0  0  0  0
  -19.5768  -26.6385   21.5201 C   0  0  0  0  0  0
  -18.1943  -26.7936   22.1607 C   0  0  0  0  0  0
  -19.1543  -28.8850   23.2885 C   0  0  0  0  0  0
  -18.9459  -30.1454   23.8899 C   0  0  0  0  0  0
  -17.6457  -30.6581   24.0563 C   0  0  0  0  0  0
  -25.9044  -34.9467   23.5126 C   0  0  0  0  0  0
  -16.5350  -29.9071   23.6334 C   0  0  0  0  0  0
  -16.7276  -28.6494   23.0345 C   0  0  0  0  0  0
  -26.4515  -31.6596   25.0737 C   0  0  0  0  0  0
  -25.3763  -31.3676   26.1462 C   0  0  0  0  0  0
  -27.0368  -30.3046   24.6146 C   0  0  0  0  0  0
  -27.6119  -32.4292   25.7481 C   0  0  0  0  0  0
  -27.5588  -37.1801   24.8469 C   0  0  0  0  0  0
  -21.4161  -29.3045   22.3684 N   0  0  0  0  0  0
  -26.4300  -37.3789   23.9408 N   0  0  0  0  0  0
  -24.6794  -31.0726   22.1007 N   0  0  0  0  0  0
  -23.4193  -28.8175   23.2993 O   0  0  0  0  0  0
  -28.3356  -26.5465   20.1752 O   0  0  0  0  0  0
  -26.5565  -34.8914   22.4664 O   0  0  0  0  0  0
  -23.5398  -32.1415   23.7469 O   0  0  0  0  0  0
  -28.9759  -21.3527   19.4580 C   0  0  0  0  0  0
  -29.0093  -20.3068   21.6470 C   0  0  0  0  0  0
  -28.9402  -21.4921   20.8573 C   0  0  0  0  0  0
  -29.0758  -20.0703   18.8735 C   0  0  0  0  0  0
  -29.0719  -18.9907   21.0843 C   0  0  0  0  0  0
  -29.1104  -18.9011   19.6707 C   0  0  0  0  0  0
  -29.1375  -19.9435   17.3652 C   0  0  0  0  0  0
  -28.7667  -22.8720   21.5395 C   0  0  0  0  0  0
  -29.2064  -24.2023   20.8160 C   0  0  0  0  0  0
  -28.9975  -16.2524   21.5160 C   0  0  0  0  0  0
  -28.0523  -25.1166   20.2947 C   0  0  0  0  0  0
  -29.0648  -17.7510   22.0411 C   0  0  2  0  0  0
  -30.1329  -15.7539   20.7242 N   0  0  0  0  0  0
  -27.9475  -17.9299   22.9848 N   0  3  0  0  0  0
  -29.1771  -17.7008   19.0512 F   0  0  0  0  0  0
  -31.4569  -12.4490   19.1411 H   0  0  0  0  0  0
  -30.3167  -11.3672   19.8789 H   0  0  0  0  0  0
  -29.7513  -11.7683   17.4584 H   0  0  0  0  0  0
  -29.6538  -13.4863   17.7555 H   0  0  0  0  0  0
  -27.8412  -11.3051   18.8420 H   0  0  0  0  0  0
  -27.3648  -12.6090   17.7876 H   0  0  0  0  0  0
  -27.6728  -14.2592   19.5371 H   0  0  0  0  0  0
  -28.6984  -12.0271   21.3464 H   0  0  0  0  0  0
  -28.4387  -13.6517   21.8615 H   0  0  0  0  0  0
  -25.2753   -9.5680   22.4762 H   0  0  0  0  0  0
  -23.9994   -7.4623   22.7447 H   0  0  0  0  0  0
  -21.0840   -8.8755   19.8935 H   0  0  0  0  0  0
  -22.3672  -10.9669   19.6162 H   0  0  0  0  0  0
  -21.1985   -7.6140   23.9730 H   0  0  0  0  0  0
  -21.1501   -6.0514   25.9090 H   0  0  0  0  0  0
  -22.0586   -2.7607   23.2851 H   0  0  0  0  0  0
  -22.4038  -11.9884   22.4851 H   0  0  0  0  0  0
  -21.1057  -13.1241   22.2597 H   0  0  0  0  0  0
  -24.6049  -15.7981   20.4048 H   0  0  0  0  0  0
  -26.1956  -15.5787   19.8837 H   0  0  0  0  0  0
  -26.7165  -32.5505   23.1157 H   0  0  0  0  0  0
  -25.0220  -33.9785   25.0572 H   0  0  0  0  0  0
  -22.7043  -31.3135   21.4131 H   0  0  0  0  0  0
  -23.3765  -35.9624   23.3300 H   0  0  0  0  0  0
  -24.3593  -36.8897   22.2049 H   0  0  0  0  0  0
  -23.7230  -37.6500   23.6636 H   0  0  0  0  0  0
  -26.0729  -31.5859   20.6068 H   0  0  0  0  0  0
  -26.8321  -30.8625   21.9953 H   0  0  0  0  0  0
  -28.1040  -29.0350   21.1836 H   0  0  0  0  0  0
  -25.9846  -25.9736   18.9815 H   0  0  0  0  0  0
  -23.9703  -27.3363   18.9913 H   0  0  0  0  0  0
  -23.7291  -30.6125   19.4053 H   0  0  0  0  0  0
  -22.7438  -29.2559   19.8632 H   0  0  0  0  0  0
  -25.1290  -36.1975   25.0834 H   0  0  0  0  0  0
  -21.0000  -28.3255   24.1400 H   0  0  0  0  0  0
  -20.5704  -26.2285   23.3588 H   0  0  0  0  0  0
  -21.6656  -26.7456   22.1185 H   0  0  0  0  0  0
  -19.6926  -25.6288   21.1234 H   0  0  0  0  0  0
  -19.6717  -27.3191   20.6728 H   0  0  0  0  0  0
  -17.4218  -26.6693   21.4000 H   0  0  0  0  0  0
  -18.0341  -26.0073   22.9000 H   0  0  0  0  0  0
  -19.7930  -30.7280   24.2270 H   0  0  0  0  0  0
  -17.5000  -31.6265   24.5155 H   0  0  0  0  0  0
  -15.5348  -30.2958   23.7670 H   0  0  0  0  0  0
  -15.8681  -28.0809   22.7054 H   0  0  0  0  0  0
  -24.5984  -30.6991   25.7755 H   0  0  0  0  0  0
  -24.8905  -32.2808   26.4906 H   0  0  0  0  0  0
  -25.8104  -30.8832   27.0221 H   0  0  0  0  0  0
  -26.2924  -29.6757   24.1253 H   0  0  0  0  0  0
  -27.4191  -29.7341   25.4621 H   0  0  0  0  0  0
  -27.8735  -30.4370   23.9282 H   0  0  0  0  0  0
  -27.2812  -33.3613   26.2071 H   0  0  0  0  0  0
  -28.3917  -32.6796   25.0275 H   0  0  0  0  0  0
  -28.0803  -31.8387   26.5366 H   0  0  0  0  0  0
  -28.2606  -38.0101   24.7529 H   0  0  0  0  0  0
  -28.1081  -36.2630   24.6283 H   0  0  0  0  0  0
  -27.2302  -37.1437   25.8870 H   0  0  0  0  0  0
  -20.9327  -29.8758   21.6895 H   0  0  0  0  0  0
  -26.0194  -38.2869   24.1400 H   0  0  0  0  0  0
  -28.9170  -22.2280   18.8268 H   0  0  0  0  0  0
  -28.9843  -20.4235   22.7215 H   0  0  0  0  0  0
  -28.8509  -20.8732   16.8736 H   0  0  0  0  0  0
  -28.4636  -19.1602   17.0188 H   0  0  0  0  0  0
  -30.1504  -19.6879   17.0536 H   0  0  0  0  0  0
  -29.3292  -22.8175   22.4727 H   0  0  0  0  0  0
  -27.7257  -22.9540   21.8554 H   0  0  0  0  0  0
  -29.9510  -24.0145   20.0423 H   0  0  0  0  0  0
  -29.7299  -24.7937   21.5678 H   0  0  0  0  0  0
  -28.0813  -16.0964   20.9475 H   0  0  0  0  0  0
  -28.9371  -15.6212   22.4016 H   0  0  0  0  0  0
  -27.2115  -25.0015   20.9815 H   0  0  0  0  0  0
  -27.7254  -24.7195   19.3332 H   0  0  0  0  0  0
  -29.9808  -17.8387   22.6282 H   0  0  0  0  0  0
  -30.7451  -16.4995   20.4261 H   0  0  0  0  0  0
  -27.0643  -17.8292   22.5177 H   0  0  0  0  0  0
  -27.9887  -18.8460   23.3913 H   0  0  0  0  0  0
  -27.9998  -17.2555   23.7271 H   0  0  0  0  0  0
  1 25  1  0  0  0
  1 30  2  0  0  0
  1 83  1  0  0  0
  2  3  1  0  0  0
  2 25  1  0  0  0
  2 86  1  0  0  0
  2 87  1  0  0  0
  3  4  1  0  0  0
  3 88  1  0  0  0
  3 89  1  0  0  0
  4  5  1  0  0  0
  4 90  1  0  0  0
  4 91  1  0  0  0
  5  6  1  0  0  0
  5 26  1  0  0  0
  5 92  1  0  0  0
  6 25  1  0  0  0
  6 93  1  0  0  0
  6 94  1  0  0  0
  7  8  2  0  0  0
  7 26  1  0  0  0
  7 29  1  0  0  0
  8  9  1  0  0  0
  8 22  1  0  0  0
  9 10  1  0  0  0
  9 27  2  0  0  0
 10 11  2  0  0  0
 10 15  1  0  0  0
 11 12  1  0  0  0
 11 95  1  0  0  0
 12 13  2  0  0  0
 12 96  1  0  0  0
 13 14  1  0  0  0
 13 31  1  0  0  0
 14 15  2  0  0  0
 14 97  1  0  0  0
 15 98  1  0  0  0
 16 17  2  0  0  0
 16 21  1  0  0  0
 16 31  1  0  0  0
 17 18  1  0  0  0
 17 99  1  0  0  0
 18 19  2  0  0  0
 18100  1  0  0  0
 19 20  1  0  0  0
 19 24  1  0  0  0
 20 21  2  0  0  0
 20101  1  0  0  0
 21 23  1  0  0  0
 22 28  1  0  0  0
 22 32  2  0  0  0
 26 27  1  0  0  0
 28102  1  0  0  0
 28103  1  0  0  0
 29104  1  0  0  0
 29105  1  0  0  0
 33 34  1  0  0  0
 33 66  1  0  0  0
 33 70  2  0  0  0
 34 36  1  0  0  0
 34 59  1  0  0  0
 34106  1  0  0  0
 35 44  2  0  0  0
 35 45  1  0  0  0
 35 68  1  0  0  0
 36 56  1  0  0  0
 36107  1  0  0  0
 37 39  1  0  0  0
 37 47  1  0  0  0
 37 66  1  0  0  0
 37108  1  0  0  0
 38 43  2  0  0  0
 38 46  1  0  0  0
 38 47  1  0  0  0
 39 64  1  0  0  0
 39 67  2  0  0  0
 40 52  1  0  0  0
 40 53  2  0  0  0
 40 58  1  0  0  0
 41109  1  0  0  0
 41110  1  0  0  0
 41111  1  0  0  0
 41 48  1  0  0  0
 42 43  1  0  0  0
 42 66  1  0  0  0
 42112  1  0  0  0
 42113  1  0  0  0
 43 44  1  0  0  0
 44114  1  0  0  0
 45 46  2  0  0  0
 45115  1  0  0  0
 46116  1  0  0  0
 47117  1  0  0  0
 47118  1  0  0  0
 48 56  1  0  0  0
 48 65  1  0  0  0
 48119  1  0  0  0
 49 50  1  0  0  0
 49 53  1  0  0  0
 49 64  1  0  0  0
 49120  1  0  0  0
 50 51  1  0  0  0
 50121  1  0  0  0
 50122  1  0  0  0
 51 52  1  0  0  0
 51123  1  0  0  0
 51124  1  0  0  0
 52125  1  0  0  0
 52126  1  0  0  0
 53 54  1  0  0  0
 54 55  2  0  0  0
 54127  1  0  0  0
 55 57  1  0  0  0
 55128  1  0  0  0
 56 69  2  0  0  0
 57 58  2  0  0  0
 57129  1  0  0  0
 58130  1  0  0  0
 59 60  1  0  0  0
 59 61  1  0  0  0
 59 62  1  0  0  0
 60131  1  0  0  0
 60132  1  0  0  0
 60133  1  0  0  0
 61134  1  0  0  0
 61135  1  0  0  0
 61136  1  0  0  0
 62137  1  0  0  0
 62138  1  0  0  0
 62139  1  0  0  0
 63 65  1  0  0  0
 63140  1  0  0  0
 63141  1  0  0  0
 63142  1  0  0  0
 64143  1  0  0  0
 65144  1  0  0  0
 68 81  1  0  0  0
 71 73  2  0  0  0
 71 74  1  0  0  0
 71145  1  0  0  0
 72 73  1  0  0  0
 72 75  2  0  0  0
 72146  1  0  0  0
 73 78  1  0  0  0
 74 76  2  0  0  0
 74 77  1  0  0  0
 75 76  1  0  0  0
 75 82  1  0  0  0
 76 85  1  0  0  0
 77147  1  0  0  0
 77148  1  0  0  0
 77149  1  0  0  0
 78 79  1  0  0  0
 78150  1  0  0  0
 78151  1  0  0  0
 79 81  1  0  0  0
 79152  1  0  0  0
 79153  1  0  0  0
 80 82  1  0  0  0
 80 83  1  0  0  0
 80154  1  0  0  0
 80155  1  0  0  0
 81156  1  0  0  0
 81157  1  0  0  0
 82 84  1  0  0  0
 82158  1  0  0  0
 83159  1  0  0  0
 84160  1  0  0  0
 84161  1  0  0  0
 84162  1  0  0  0
M  CHG  1  84   1
M  ISO  4   1 100  68 101  81 101  83 100
M  END
> <chiral flag>
0

> <version>
0

> <s_m_source_file>
/data/baiqing/PycharmProjects/Reinvent-master-3.2/result/LINK_invent/BTK/process_docking_weight1_custom_sum_contain_oxygen_bond_distance_aromatic_linkinvent_7_9_3/rearranged_h_0094.sdf

> <i_m_source_file_index>
82

> <r_mmod_Potential_Energy-OPLS-2005>
-258.508056640625

> <r_mmod_Stretch_Energy-OPLS-2005>
58.2591438293457

> <r_mmod_Bend_Energy-OPLS-2005>
159.906143188477

> <r_mmod_Torsional_Energy-OPLS-2005>
263.033538818359

> <r_mmod_Improper_Torsional_Energy-OPLS-2005>
13.1015768051147

> <r_mmod_Van_der_Waal_Energy-OPLS-2005>
149.734771728516

> <r_mmod_Electrostatic_Energy-OPLS-2005>
-425.306518554688

> <r_mmod_Solvation_Energy-OPLS-2005>
-509.188293457031

> <b_mmod_Minimization_Converged-OPLS-2005>
0

> <r_mmod_RMS_Derivative-OPLS-2005>
1.68113172054291

$$$$
84
                    3D
 Structure written by MMmdl.
158165  0  0  1  0            999 V2000
  -30.6190  -14.6762   20.4795 C   0  0  0  0  0  0
  -30.4290  -12.4124   19.4666 C   0  0  0  0  0  0
  -29.5069  -12.5077   18.2297 C   0  0  0  0  0  0
  -28.0310  -12.3401   18.6420 C   0  0  0  0  0  0
  -27.6467  -13.2236   19.8595 C   0  0  2  0  0  0
  -28.6888  -13.1176   20.9960 C   0  0  0  0  0  0
  -25.2514  -13.8174   20.5676 C   0  0  0  0  0  0
  -24.1802  -13.0420   20.9203 C   0  0  0  0  0  0
  -24.6393  -11.6902   20.8762 C   0  0  0  0  0  0
  -23.9080  -10.4281   21.0426 C   0  0  0  0  0  0
  -24.3635   -9.4193   21.9197 C   0  0  0  0  0  0
  -23.6308   -8.2228   22.0757 C   0  0  0  0  0  0
  -22.4293   -8.0276   21.3547 C   0  0  0  0  0  0
  -21.9930   -9.0246   20.4642 C   0  0  0  0  0  0
  -22.7257  -10.2124   20.3067 C   0  0  0  0  0  0
  -21.6838   -6.0744   22.5298 C   0  0  0  0  0  0
  -21.4000   -6.5650   23.8234 C   0  0  0  0  0  0
  -21.3656   -5.6806   24.9192 C   0  0  0  0  0  0
  -21.6044   -4.3072   24.7244 C   0  0  0  0  0  0
  -21.8811   -3.8158   23.4367 C   0  0  0  0  0  0
  -21.9178   -4.6972   22.3424 C   0  0  0  0  0  0
  -22.7828  -13.5200   21.1876 C   0  0  0  0  0  0
  -22.1653   -4.2154   21.1003 F   0  0  0  0  0  0
  -21.5635   -3.4565   25.7763 F   0  0  0  0  0  0
  -29.9971  -13.4555   20.4226 N   0  0  0  0  0  0
  -26.2953  -12.9385   20.3307 N   0  0  0  0  0  0
  -25.9321  -11.6529   20.5768 N   0  0  0  0  0  0
  -22.0474  -12.8182   22.0439 N   0  0  0  0  0  0
  -25.4170  -15.1900   20.4094 N   0  0  0  0  0  0
  -31.7973  -14.7990   20.1331 O   0  0  0  0  0  0
  -21.6634   -6.8891   21.4262 O   0  0  0  0  0  0
  -22.3517  -14.5514   20.6742 O   0  0  0  0  0  0
  -24.6251  -31.8564   23.1967 C   0  0  0  0  0  0
  -25.9100  -32.4740   23.8306 C   0  0  1  0  0  0
  -27.2292  -27.3058   20.1154 C   0  0  0  0  0  0
  -25.5918  -33.8544   24.2237 N   0  0  0  0  0  0
  -23.4191  -30.4743   21.5403 C   0  0  2  0  0  0
  -24.8660  -28.9202   20.1091 C   0  0  0  0  0  0
  -22.7463  -29.4592   22.4936 C   0  0  0  0  0  0
  -18.0280  -28.1377   22.8475 C   0  0  0  0  0  0
  -24.1497  -36.7292   23.2641 C   0  0  0  0  0  0
  -25.9581  -30.7798   21.3708 C   0  0  0  0  0  0
  -26.0311  -29.4044   20.7153 C   0  0  0  0  0  0
  -27.2107  -28.6057   20.7114 C   0  0  0  0  0  0
  -26.0417  -26.8659   19.4934 C   0  0  0  0  0  0
  -24.8733  -27.6564   19.4913 C   0  0  0  0  0  0
  -23.6330  -29.7990   20.1585 C   0  0  0  0  0  0
  -25.4118  -36.3056   24.0319 C   0  0  1  0  0  0
  -20.5873  -28.3674   23.1293 C   0  0  2  0  0  0
  -20.6764  -26.9398   22.5418 C   0  0  0  0  0  0
  -19.5752  -26.6375   21.5206 C   0  0  0  0  0  0
  -18.1928  -26.7919   22.1615 C   0  0  0  0  0  0
  -19.1535  -28.8842   23.2874 C   0  0  0  0  0  0
  -18.9457  -30.1451   23.8888 C   0  0  0  0  0  0
  -17.6460  -30.6582   24.0552 C   0  0  0  0  0  0
  -25.9057  -34.9427   23.5080 C   0  0  0  0  0  0
  -16.5344  -29.9076   23.6334 C   0  0  0  0  0  0
  -16.7266  -28.6493   23.0342 C   0  0  0  0  0  0
  -26.4489  -31.6559   25.0690 C   0  0  0  0  0  0
  -25.3725  -31.3704   26.1422 C   0  0  0  0  0  0
  -27.0341  -30.2978   24.6170 C   0  0  0  0  0  0
  -27.6040  -32.4303   25.7474 C   0  0  0  0  0  0
  -27.5578  -37.1794   24.8457 C   0  0  0  0  0  0
  -21.4176  -29.3027   22.3695 N   0  0  0  0  0  0
  -26.4290  -37.3758   23.9401 N   0  0  0  0  0  0
  -24.6858  -31.0550   22.0924 N   0  0  0  0  0  0
  -23.4184  -28.8160   23.3043 O   0  0  0  0  0  0
  -28.3747  -26.5003   20.1883 O   0  0  0  0  0  0
  -26.5646  -34.8905   22.4662 O   0  0  0  0  0  0
  -23.5422  -32.1378   23.7298 O   0  0  0  0  0  0
  -28.5143  -24.0580   21.9548 C   0  0  0  0  0  0
  -27.1529  -20.7279   20.0704 C   0  0  0  0  0  0
  -29.1320  -18.4093   20.6732 C   0  0  0  0  0  0
  -30.2158  -17.2387   20.4545 C   0  0  0  0  0  0
  -29.5123  -19.9194   20.2302 C   0  0  0  0  0  0
  -28.9485  -22.4562   19.9579 C   0  0  0  0  0  0
  -28.4958  -25.1341   19.6186 C   0  0  0  0  0  0
  -28.2023  -23.8022   20.4697 C   0  0  2  0  0  0
  -29.8371  -15.7890   20.7070 N   0  0  0  0  0  0
  -28.5306  -21.0766   20.4956 N   0  3  1  0  0  0
  -31.4726  -12.5240   19.1708 H   0  0  0  0  0  0
  -30.3535  -11.4256   19.9246 H   0  0  0  0  0  0
  -29.7764  -11.7502   17.4913 H   0  0  0  0  0  0
  -29.6432  -13.4731   17.7402 H   0  0  0  0  0  0
  -27.8734  -11.2879   18.8839 H   0  0  0  0  0  0
  -27.3754  -12.5583   17.7982 H   0  0  0  0  0  0
  -27.6544  -14.2524   19.4998 H   0  0  0  0  0  0
  -28.7093  -12.1102   21.4120 H   0  0  0  0  0  0
  -28.4329  -13.7808   21.8242 H   0  0  0  0  0  0
  -25.2778   -9.5658   22.4769 H   0  0  0  0  0  0
  -24.0007   -7.4617   22.7477 H   0  0  0  0  0  0
  -21.0863   -8.8770   19.8944 H   0  0  0  0  0  0
  -22.3725  -10.9672   19.6185 H   0  0  0  0  0  0
  -21.1989   -7.6153   23.9745 H   0  0  0  0  0  0
  -21.1487   -6.0535   25.9101 H   0  0  0  0  0  0
  -22.0587   -2.7616   23.2871 H   0  0  0  0  0  0
  -22.4111  -11.9851   22.4819 H   0  0  0  0  0  0
  -21.1086  -13.1188   22.2645 H   0  0  0  0  0  0
  -24.6371  -15.8303   20.5127 H   0  0  0  0  0  0
  -26.2546  -15.6396   20.0636 H   0  0  0  0  0  0
  -26.7162  -32.5396   23.1052 H   0  0  0  0  0  0
  -25.0016  -33.9678   25.0346 H   0  0  0  0  0  0
  -22.7137  -31.2941   21.3904 H   0  0  0  0  0  0
  -23.3744  -35.9638   23.3283 H   0  0  0  0  0  0
  -24.3592  -36.8942   22.2060 H   0  0  0  0  0  0
  -23.7267  -37.6490   23.6689 H   0  0  0  0  0  0
  -26.0915  -31.5420   20.6008 H   0  0  0  0  0  0
  -26.8381  -30.8294   21.9998 H   0  0  0  0  0  0
  -28.1057  -28.9701   21.1964 H   0  0  0  0  0  0
  -25.9910  -25.8952   19.0230 H   0  0  0  0  0  0
  -23.9777  -27.2753   19.0206 H   0  0  0  0  0  0
  -23.7478  -30.5677   19.3937 H   0  0  0  0  0  0
  -22.7551  -29.2217   19.8625 H   0  0  0  0  0  0
  -25.1300  -36.1890   25.0812 H   0  0  0  0  0  0
  -20.9951  -28.3236   24.1414 H   0  0  0  0  0  0
  -20.5643  -26.2278   23.3609 H   0  0  0  0  0  0
  -21.6632  -26.7419   22.1219 H   0  0  0  0  0  0
  -19.6908  -25.6284   21.1233 H   0  0  0  0  0  0
  -19.6688  -27.3184   20.6732 H   0  0  0  0  0  0
  -17.4188  -26.6653   21.4015 H   0  0  0  0  0  0
  -18.0333  -26.0060   22.9018 H   0  0  0  0  0  0
  -19.7932  -30.7267   24.2239 H   0  0  0  0  0  0
  -17.5012  -31.6258   24.5160 H   0  0  0  0  0  0
  -15.5347  -30.2973   23.7670 H   0  0  0  0  0  0
  -15.8661  -28.0819   22.7057 H   0  0  0  0  0  0
  -24.5893  -30.7055   25.7754 H   0  0  0  0  0  0
  -24.8923  -32.2872   26.4855 H   0  0  0  0  0  0
  -25.8056  -30.8873   27.0190 H   0  0  0  0  0  0
  -26.2919  -29.6712   24.1209 H   0  0  0  0  0  0
  -27.4039  -29.7254   25.4685 H   0  0  0  0  0  0
  -27.8783  -30.4251   23.9394 H   0  0  0  0  0  0
  -27.2631  -33.3598   26.2056 H   0  0  0  0  0  0
  -28.3853  -32.6873   25.0303 H   0  0  0  0  0  0
  -28.0705  -31.8420   26.5388 H   0  0  0  0  0  0
  -28.2573  -38.0112   24.7513 H   0  0  0  0  0  0
  -28.1098  -36.2638   24.6264 H   0  0  0  0  0  0
  -27.2302  -37.1416   25.8864 H   0  0  0  0  0  0
  -20.9361  -29.8750   21.6899 H   0  0  0  0  0  0
  -26.0158  -38.2827   24.1400 H   0  0  0  0  0  0
  -28.2210  -23.2160   22.5806 H   0  0  0  0  0  0
  -27.9719  -24.9306   22.3223 H   0  0  0  0  0  0
  -29.5769  -24.2405   22.1143 H   0  0  0  0  0  0
  -26.7782  -19.8596   20.6129 H   0  0  0  0  0  0
  -27.1174  -20.5002   19.0035 H   0  0  0  0  0  0
  -26.4502  -21.5358   20.2653 H   0  0  0  0  0  0
  -28.8562  -18.4213   21.7281 H   0  0  0  0  0  0
  -28.2312  -18.1164   20.1355 H   0  0  0  0  0  0
  -31.0942  -17.4602   21.0621 H   0  0  0  0  0  0
  -30.5579  -17.2937   19.4201 H   0  0  0  0  0  0
  -29.7230  -19.9080   19.1605 H   0  0  0  0  0  0
  -30.4579  -20.1794   20.7057 H   0  0  0  0  0  0
  -30.0131  -22.5778   20.1625 H   0  0  0  0  0  0
  -28.8734  -22.4141   18.8699 H   0  0  0  0  0  0
  -27.9810  -25.0792   18.6591 H   0  0  0  0  0  0
  -29.5479  -25.0770   19.3412 H   0  0  0  0  0  0
  -27.1257  -23.6536   20.3973 H   0  0  0  0  0  0
  -28.8806  -15.6038   20.9717 H   0  0  0  0  0  0
  -28.4988  -21.1732   21.4993 H   0  0  0  0  0  0
  1 25  1  0  0  0
  1 30  2  0  0  0
  1 79  1  0  0  0
  2  3  1  0  0  0
  2 25  1  0  0  0
  2 81  1  0  0  0
  2 82  1  0  0  0
  3  4  1  0  0  0
  3 83  1  0  0  0
  3 84  1  0  0  0
  4  5  1  0  0  0
  4 85  1  0  0  0
  4 86  1  0  0  0
  5  6  1  0  0  0
  5 26  1  0  0  0
  5 87  1  0  0  0
  6 25  1  0  0  0
  6 88  1  0  0  0
  6 89  1  0  0  0
  7  8  2  0  0  0
  7 26  1  0  0  0
  7 29  1  0  0  0
  8  9  1  0  0  0
  8 22  1  0  0  0
  9 10  1  0  0  0
  9 27  2  0  0  0
 10 11  2  0  0  0
 10 15  1  0  0  0
 11 12  1  0  0  0
 11 90  1  0  0  0
 12 13  2  0  0  0
 12 91  1  0  0  0
 13 14  1  0  0  0
 13 31  1  0  0  0
 14 15  2  0  0  0
 14 92  1  0  0  0
 15 93  1  0  0  0
 16 17  2  0  0  0
 16 21  1  0  0  0
 16 31  1  0  0  0
 17 18  1  0  0  0
 17 94  1  0  0  0
 18 19  2  0  0  0
 18 95  1  0  0  0
 19 20  1  0  0  0
 19 24  1  0  0  0
 20 21  2  0  0  0
 20 96  1  0  0  0
 21 23  1  0  0  0
 22 28  1  0  0  0
 22 32  2  0  0  0
 26 27  1  0  0  0
 28 97  1  0  0  0
 28 98  1  0  0  0
 29 99  1  0  0  0
 29100  1  0  0  0
 33 34  1  0  0  0
 33 66  1  0  0  0
 33 70  2  0  0  0
 34 36  1  0  0  0
 34 59  1  0  0  0
 34101  1  0  0  0
 35 44  2  0  0  0
 35 45  1  0  0  0
 35 68  1  0  0  0
 36 56  1  0  0  0
 36102  1  0  0  0
 37 39  1  0  0  0
 37 47  1  0  0  0
 37 66  1  0  0  0
 37103  1  0  0  0
 38 43  2  0  0  0
 38 46  1  0  0  0
 38 47  1  0  0  0
 39 64  1  0  0  0
 39 67  2  0  0  0
 40 52  1  0  0  0
 40 53  2  0  0  0
 40 58  1  0  0  0
 41104  1  0  0  0
 41105  1  0  0  0
 41106  1  0  0  0
 41 48  1  0  0  0
 42 43  1  0  0  0
 42 66  1  0  0  0
 42107  1  0  0  0
 42108  1  0  0  0
 43 44  1  0  0  0
 44109  1  0  0  0
 45 46  2  0  0  0
 45110  1  0  0  0
 46111  1  0  0  0
 47112  1  0  0  0
 47113  1  0  0  0
 48 56  1  0  0  0
 48 65  1  0  0  0
 48114  1  0  0  0
 49 50  1  0  0  0
 49 53  1  0  0  0
 49 64  1  0  0  0
 49115  1  0  0  0
 50 51  1  0  0  0
 50116  1  0  0  0
 50117  1  0  0  0
 51 52  1  0  0  0
 51118  1  0  0  0
 51119  1  0  0  0
 52120  1  0  0  0
 52121  1  0  0  0
 53 54  1  0  0  0
 54 55  2  0  0  0
 54122  1  0  0  0
 55 57  1  0  0  0
 55123  1  0  0  0
 56 69  2  0  0  0
 57 58  2  0  0  0
 57124  1  0  0  0
 58125  1  0  0  0
 59 60  1  0  0  0
 59 61  1  0  0  0
 59 62  1  0  0  0
 60126  1  0  0  0
 60127  1  0  0  0
 60128  1  0  0  0
 61129  1  0  0  0
 61130  1  0  0  0
 61131  1  0  0  0
 62132  1  0  0  0
 62133  1  0  0  0
 62134  1  0  0  0
 63 65  1  0  0  0
 63135  1  0  0  0
 63136  1  0  0  0
 63137  1  0  0  0
 64138  1  0  0  0
 65139  1  0  0  0
 68 77  1  0  0  0
 71140  1  0  0  0
 71141  1  0  0  0
 71142  1  0  0  0
 71 78  1  0  0  0
 72143  1  0  0  0
 72144  1  0  0  0
 72145  1  0  0  0
 72 80  1  0  0  0
 73 74  1  0  0  0
 73 75  1  0  0  0
 73146  1  0  0  0
 73147  1  0  0  0
 74 79  1  0  0  0
 74148  1  0  0  0
 74149  1  0  0  0
 75 80  1  0  0  0
 75150  1  0  0  0
 75151  1  0  0  0
 76 78  1  0  0  0
 76 80  1  0  0  0
 76152  1  0  0  0
 76153  1  0  0  0
 77 78  1  0  0  0
 77154  1  0  0  0
 77155  1  0  0  0
 78156  1  0  0  0
 79157  1  0  0  0
 80158  1  0  0  0
M  CHG  1  80   1
M  ISO  4   1 100  68 101  77 101  79 100
M  END
> <chiral flag>
0

> <version>
0

> <s_m_source_file>
/data/baiqing/PycharmProjects/Reinvent-master-3.2/result/LINK_invent/BTK/process_docking_weight1_custom_sum_contain_oxygen_bond_distance_aromatic_linkinvent_7_9_3/rearranged_h_0094.sdf

> <i_m_source_file_index>
83

> <r_mmod_Potential_Energy-OPLS-2005>
-24.8804321289062

> <r_mmod_Stretch_Energy-OPLS-2005>
103.623657226562

> <r_mmod_Bend_Energy-OPLS-2005>
163.001953125

> <r_mmod_Torsional_Energy-OPLS-2005>
215.459625244141

> <r_mmod_Improper_Torsional_Energy-OPLS-2005>
5.33439159393311

> <r_mmod_Van_der_Waal_Energy-OPLS-2005>
116.814056396484

> <r_mmod_Electrostatic_Energy-OPLS-2005>
-225.160415649414

> <r_mmod_Solvation_Energy-OPLS-2005>
-460.953247070312

> <b_mmod_Minimization_Converged-OPLS-2005>
0

> <r_mmod_RMS_Derivative-OPLS-2005>
2.11117672920227

$$$$
85
                    3D
 Structure written by MMmdl.
158166  0  0  1  0            999 V2000
  -30.5905  -14.8594   20.4257 C   0  0  0  0  0  0
  -30.4320  -12.5294   19.4896 C   0  0  0  0  0  0
  -29.5149  -12.5173   18.2460 C   0  0  0  0  0  0
  -28.0446  -12.3259   18.6617 C   0  0  0  0  0  0
  -27.6346  -13.2459   19.8426 C   0  0  2  0  0  0
  -28.6782  -13.2443   20.9809 C   0  0  0  0  0  0
  -25.2475  -13.8224   20.5706 C   0  0  0  0  0  0
  -24.1785  -13.0447   20.9215 C   0  0  0  0  0  0
  -24.6397  -11.6933   20.8754 C   0  0  0  0  0  0
  -23.9085  -10.4302   21.0406 C   0  0  0  0  0  0
  -24.3636   -9.4218   21.9185 C   0  0  0  0  0  0
  -23.6310   -8.2252   22.0755 C   0  0  0  0  0  0
  -22.4294   -8.0294   21.3539 C   0  0  0  0  0  0
  -21.9937   -9.0267   20.4642 C   0  0  0  0  0  0
  -22.7263  -10.2145   20.3052 C   0  0  0  0  0  0
  -21.6861   -6.0747   22.5280 C   0  0  0  0  0  0
  -21.4019   -6.5642   23.8218 C   0  0  0  0  0  0
  -21.3663   -5.6793   24.9173 C   0  0  0  0  0  0
  -21.6046   -4.3057   24.7219 C   0  0  0  0  0  0
  -21.8812   -3.8150   23.4339 C   0  0  0  0  0  0
  -21.9189   -4.6969   22.3402 C   0  0  0  0  0  0
  -22.7800  -13.5222   21.1857 C   0  0  0  0  0  0
  -22.1656   -4.2157   21.0977 F   0  0  0  0  0  0
  -21.5632   -3.4540   25.7730 F   0  0  0  0  0  0
  -29.9644  -13.6228   20.3854 N   0  0  0  0  0  0
  -26.2908  -12.9459   20.3262 N   0  0  0  0  0  0
  -25.9337  -11.6589   20.5753 N   0  0  0  0  0  0
  -22.0441  -12.8226   22.0417 N   0  0  0  0  0  0
  -25.4129  -15.1954   20.4122 N   0  0  0  0  0  0
  -31.7872  -14.9067   20.1252 O   0  0  0  0  0  0
  -21.6652   -6.8893   21.4247 O   0  0  0  0  0  0
  -22.3485  -14.5517   20.6683 O   0  0  0  0  0  0
  -24.6397  -31.8483   23.1922 C   0  0  0  0  0  0
  -25.9191  -32.4711   23.8294 C   0  0  1  0  0  0
  -27.2129  -27.1783   20.1446 C   0  0  0  0  0  0
  -25.5956  -33.8514   24.2215 N   0  0  0  0  0  0
  -23.4401  -30.4706   21.5373 C   0  0  2  0  0  0
  -24.8861  -28.9030   20.1137 C   0  0  0  0  0  0
  -22.7542  -29.4574   22.4875 C   0  0  0  0  0  0
  -18.0306  -28.1394   22.8484 C   0  0  0  0  0  0
  -24.1495  -36.7259   23.2638 C   0  0  0  0  0  0
  -25.9932  -30.7362   21.3830 C   0  0  0  0  0  0
  -26.0636  -29.3514   20.7245 C   0  0  0  0  0  0
  -27.2297  -28.5059   20.7216 C   0  0  0  0  0  0
  -26.0064  -26.8170   19.5053 C   0  0  0  0  0  0
  -24.8670  -27.6470   19.4906 C   0  0  0  0  0  0
  -23.6648  -29.8043   20.1548 C   0  0  0  0  0  0
  -25.4120  -36.3037   24.0322 C   0  0  1  0  0  0
  -20.5913  -28.3721   23.1243 C   0  0  2  0  0  0
  -20.6796  -26.9429   22.5404 C   0  0  0  0  0  0
  -19.5773  -26.6383   21.5212 C   0  0  0  0  0  0
  -18.1952  -26.7936   22.1621 C   0  0  0  0  0  0
  -19.1558  -28.8874   23.2859 C   0  0  0  0  0  0
  -18.9474  -30.1467   23.8891 C   0  0  0  0  0  0
  -17.6471  -30.6592   24.0561 C   0  0  0  0  0  0
  -25.9070  -34.9414   23.5074 C   0  0  0  0  0  0
  -16.5364  -29.9087   23.6329 C   0  0  0  0  0  0
  -16.7290  -28.6500   23.0361 C   0  0  0  0  0  0
  -26.4524  -31.6557   25.0717 C   0  0  0  0  0  0
  -25.3711  -31.3732   26.1413 C   0  0  0  0  0  0
  -27.0380  -30.2959   24.6260 C   0  0  0  0  0  0
  -27.6078  -32.4291   25.7498 C   0  0  0  0  0  0
  -27.5578  -37.1782   24.8460 C   0  0  0  0  0  0
  -21.4241  -29.3055   22.3619 N   0  0  0  0  0  0
  -26.4284  -37.3748   23.9413 N   0  0  0  0  0  0
  -24.7110  -31.0372   22.0938 N   0  0  0  0  0  0
  -23.4204  -28.8114   23.3007 O   0  0  0  0  0  0
  -28.2859  -26.2302   20.1956 O   0  0  0  0  0  0
  -26.5647  -34.8908   22.4647 O   0  0  0  0  0  0
  -23.5525  -32.1348   23.7160 O   0  0  0  0  0  0
  -29.7891  -19.7717   21.5602 C   0  0  0  0  0  0
  -29.2065  -19.7873   19.2900 C   0  0  0  0  0  0
  -29.6712  -18.9786   20.3809 C   0  0  0  0  0  0
  -29.5444  -21.1990   21.5855 C   0  0  0  0  0  0
  -29.1330  -21.9361   20.4200 C   0  0  0  0  0  0
  -31.6552  -23.2527   24.1350 C   0  0  0  0  0  0
  -29.8577  -21.9339   22.8806 C   0  0  0  0  0  0
  -30.3501  -17.4936   20.1935 C   0  0  0  0  0  0
  -29.2307  -23.5751   20.2839 C   0  0  0  0  0  0
  -31.3518  -22.2861   22.9861 C   0  0  0  0  0  0
  -28.0275  -24.7070   20.1756 C   0  0  0  0  0  0
  -28.9573  -21.1572   19.3050 N   0  0  0  0  0  0
  -29.8585  -16.0596   20.5641 N   0  0  0  0  0  0
  -31.4704  -12.6610   19.1798 H   0  0  0  0  0  0
  -30.3993  -11.5691   20.0063 H   0  0  0  0  0  0
  -29.8172  -11.7248   17.5593 H   0  0  0  0  0  0
  -29.6222  -13.4555   17.6989 H   0  0  0  0  0  0
  -27.9181  -11.2816   18.9486 H   0  0  0  0  0  0
  -27.3845  -12.4876   17.8085 H   0  0  0  0  0  0
  -27.6111  -14.2555   19.4314 H   0  0  0  0  0  0
  -28.7427  -12.2644   21.4568 H   0  0  0  0  0  0
  -28.3977  -13.9527   21.7620 H   0  0  0  0  0  0
  -25.2776   -9.5703   22.4763 H   0  0  0  0  0  0
  -24.0017   -7.4651   22.7488 H   0  0  0  0  0  0
  -21.0862   -8.8791   19.8957 H   0  0  0  0  0  0
  -22.3720  -10.9686   19.6164 H   0  0  0  0  0  0
  -21.2024   -7.6153   23.9723 H   0  0  0  0  0  0
  -21.1492   -6.0521   25.9077 H   0  0  0  0  0  0
  -22.0588   -2.7613   23.2831 H   0  0  0  0  0  0
  -22.4065  -11.9917   22.4854 H   0  0  0  0  0  0
  -21.1050  -13.1238   22.2586 H   0  0  0  0  0  0
  -24.6414  -15.8442   20.5277 H   0  0  0  0  0  0
  -26.2528  -15.6395   20.0637 H   0  0  0  0  0  0
  -26.7258  -32.5335   23.1027 H   0  0  0  0  0  0
  -25.0096  -33.9625   25.0357 H   0  0  0  0  0  0
  -22.7419  -31.2964   21.3863 H   0  0  0  0  0  0
  -23.3765  -35.9583   23.3278 H   0  0  0  0  0  0
  -24.3595  -36.8907   22.2060 H   0  0  0  0  0  0
  -23.7242  -37.6449   23.6682 H   0  0  0  0  0  0
  -26.1422  -31.4923   20.6114 H   0  0  0  0  0  0
  -26.8669  -30.7848   22.0216 H   0  0  0  0  0  0
  -28.1292  -28.8457   21.2155 H   0  0  0  0  0  0
  -25.9070  -25.8587   19.0204 H   0  0  0  0  0  0
  -23.9655  -27.2983   19.0057 H   0  0  0  0  0  0
  -23.8058  -30.5821   19.4037 H   0  0  0  0  0  0
  -22.7795  -29.2507   19.8383 H   0  0  0  0  0  0
  -25.1300  -36.1873   25.0813 H   0  0  0  0  0  0
  -21.0005  -28.3318   24.1365 H   0  0  0  0  0  0
  -20.5711  -26.2333   23.3617 H   0  0  0  0  0  0
  -21.6664  -26.7460   22.1189 H   0  0  0  0  0  0
  -19.6938  -25.6287   21.1262 H   0  0  0  0  0  0
  -19.6708  -27.3179   20.6732 H   0  0  0  0  0  0
  -17.4221  -26.6688   21.4021 H   0  0  0  0  0  0
  -18.0347  -26.0076   22.9017 H   0  0  0  0  0  0
  -19.7948  -30.7281   24.2266 H   0  0  0  0  0  0
  -17.5025  -31.6272   24.5163 H   0  0  0  0  0  0
  -15.5363  -30.2990   23.7645 H   0  0  0  0  0  0
  -15.8693  -28.0807   22.7088 H   0  0  0  0  0  0
  -24.5905  -30.7065   25.7726 H   0  0  0  0  0  0
  -24.8882  -32.2910   26.4779 H   0  0  0  0  0  0
  -25.7994  -30.8943   27.0228 H   0  0  0  0  0  0
  -26.2985  -29.6687   24.1276 H   0  0  0  0  0  0
  -27.4025  -29.7247   25.4809 H   0  0  0  0  0  0
  -27.8881  -30.4208   23.9550 H   0  0  0  0  0  0
  -27.2701  -33.3603   26.2054 H   0  0  0  0  0  0
  -28.3910  -32.6817   25.0338 H   0  0  0  0  0  0
  -28.0728  -31.8424   26.5431 H   0  0  0  0  0  0
  -28.2569  -38.0102   24.7523 H   0  0  0  0  0  0
  -28.1098  -36.2632   24.6259 H   0  0  0  0  0  0
  -27.2304  -37.1397   25.8864 H   0  0  0  0  0  0
  -20.9441  -29.8755   21.6793 H   0  0  0  0  0  0
  -26.0154  -38.2814   24.1429 H   0  0  0  0  0  0
  -30.1857  -19.3017   22.4498 H   0  0  0  0  0  0
  -29.1200  -19.3334   18.3142 H   0  0  0  0  0  0
  -32.7281  -23.4249   24.2241 H   0  0  0  0  0  0
  -31.3004  -22.8644   25.0900 H   0  0  0  0  0  0
  -31.1809  -24.2206   23.9681 H   0  0  0  0  0  0
  -29.5705  -21.3094   23.7284 H   0  0  0  0  0  0
  -29.2382  -22.8275   22.9610 H   0  0  0  0  0  0
  -31.3271  -17.5839   20.6696 H   0  0  0  0  0  0
  -30.5882  -17.4305   19.1305 H   0  0  0  0  0  0
  -29.8559  -23.7329   19.4054 H   0  0  0  0  0  0
  -29.8655  -23.9174   21.0968 H   0  0  0  0  0  0
  -31.9349  -21.3723   23.1094 H   0  0  0  0  0  0
  -31.6963  -22.7401   22.0557 H   0  0  0  0  0  0
  -27.3241  -24.5070   20.9846 H   0  0  0  0  0  0
  -27.4958  -24.4701   19.2555 H   0  0  0  0  0  0
  -28.8820  -15.9623   20.7979 H   0  0  0  0  0  0
  1 25  1  0  0  0
  1 30  2  0  0  0
  1 83  1  0  0  0
  2  3  1  0  0  0
  2 25  1  0  0  0
  2 84  1  0  0  0
  2 85  1  0  0  0
  3  4  1  0  0  0
  3 86  1  0  0  0
  3 87  1  0  0  0
  4  5  1  0  0  0
  4 88  1  0  0  0
  4 89  1  0  0  0
  5  6  1  0  0  0
  5 26  1  0  0  0
  5 90  1  0  0  0
  6 25  1  0  0  0
  6 91  1  0  0  0
  6 92  1  0  0  0
  7  8  2  0  0  0
  7 26  1  0  0  0
  7 29  1  0  0  0
  8  9  1  0  0  0
  8 22  1  0  0  0
  9 10  1  0  0  0
  9 27  2  0  0  0
 10 11  2  0  0  0
 10 15  1  0  0  0
 11 12  1  0  0  0
 11 93  1  0  0  0
 12 13  2  0  0  0
 12 94  1  0  0  0
 13 14  1  0  0  0
 13 31  1  0  0  0
 14 15  2  0  0  0
 14 95  1  0  0  0
 15 96  1  0  0  0
 16 17  2  0  0  0
 16 21  1  0  0  0
 16 31  1  0  0  0
 17 18  1  0  0  0
 17 97  1  0  0  0
 18 19  2  0  0  0
 18 98  1  0  0  0
 19 20  1  0  0  0
 19 24  1  0  0  0
 20 21  2  0  0  0
 20 99  1  0  0  0
 21 23  1  0  0  0
 22 28  1  0  0  0
 22 32  2  0  0  0
 26 27  1  0  0  0
 28100  1  0  0  0
 28101  1  0  0  0
 29102  1  0  0  0
 29103  1  0  0  0
 33 34  1  0  0  0
 33 66  1  0  0  0
 33 70  2  0  0  0
 34 36  1  0  0  0
 34 59  1  0  0  0
 34104  1  0  0  0
 35 44  2  0  0  0
 35 45  1  0  0  0
 35 68  1  0  0  0
 36 56  1  0  0  0
 36105  1  0  0  0
 37 39  1  0  0  0
 37 47  1  0  0  0
 37 66  1  0  0  0
 37106  1  0  0  0
 38 43  2  0  0  0
 38 46  1  0  0  0
 38 47  1  0  0  0
 39 64  1  0  0  0
 39 67  2  0  0  0
 40 52  1  0  0  0
 40 53  2  0  0  0
 40 58  1  0  0  0
 41107  1  0  0  0
 41108  1  0  0  0
 41109  1  0  0  0
 41 48  1  0  0  0
 42 43  1  0  0  0
 42 66  1  0  0  0
 42110  1  0  0  0
 42111  1  0  0  0
 43 44  1  0  0  0
 44112  1  0  0  0
 45 46  2  0  0  0
 45113  1  0  0  0
 46114  1  0  0  0
 47115  1  0  0  0
 47116  1  0  0  0
 48 56  1  0  0  0
 48 65  1  0  0  0
 48117  1  0  0  0
 49 50  1  0  0  0
 49 53  1  0  0  0
 49 64  1  0  0  0
 49118  1  0  0  0
 50 51  1  0  0  0
 50119  1  0  0  0
 50120  1  0  0  0
 51 52  1  0  0  0
 51121  1  0  0  0
 51122  1  0  0  0
 52123  1  0  0  0
 52124  1  0  0  0
 53 54  1  0  0  0
 54 55  2  0  0  0
 54125  1  0  0  0
 55 57  1  0  0  0
 55126  1  0  0  0
 56 69  2  0  0  0
 57 58  2  0  0  0
 57127  1  0  0  0
 58128  1  0  0  0
 59 60  1  0  0  0
 59 61  1  0  0  0
 59 62  1  0  0  0
 60129  1  0  0  0
 60130  1  0  0  0
 60131  1  0  0  0
 61132  1  0  0  0
 61133  1  0  0  0
 61134  1  0  0  0
 62135  1  0  0  0
 62136  1  0  0  0
 62137  1  0  0  0
 63 65  1  0  0  0
 63138  1  0  0  0
 63139  1  0  0  0
 63140  1  0  0  0
 64141  1  0  0  0
 65142  1  0  0  0
 68 81  1  0  0  0
 71 73  2  0  0  0
 71 74  1  0  0  0
 71143  1  0  0  0
 72 73  1  0  0  0
 72 82  2  0  0  0
 72144  1  0  0  0
 73 78  1  0  0  0
 74 75  2  0  0  0
 74 77  1  0  0  0
 75 79  1  0  0  0
 75 82  1  0  0  0
 76 80  1  0  0  0
 76145  1  0  0  0
 76146  1  0  0  0
 76147  1  0  0  0
 77 80  1  0  0  0
 77148  1  0  0  0
 77149  1  0  0  0
 78 83  1  0  0  0
 78150  1  0  0  0
 78151  1  0  0  0
 79 81  1  0  0  0
 79152  1  0  0  0
 79153  1  0  0  0
 80154  1  0  0  0
 80155  1  0  0  0
 81156  1  0  0  0
 81157  1  0  0  0
 83158  1  0  0  0
M  ISO  4   1 100  68 101  81 101  83 100
M  END
> <chiral flag>
0

> <version>
0

> <s_m_source_file>
/data/baiqing/PycharmProjects/Reinvent-master-3.2/result/LINK_invent/BTK/process_docking_weight1_custom_sum_contain_oxygen_bond_distance_aromatic_linkinvent_7_9_3/rearranged_h_0094.sdf

> <i_m_source_file_index>
84

> <r_mmod_Potential_Energy-OPLS-2005>
243.699523925781

> <r_mmod_Stretch_Energy-OPLS-2005>
194.26789855957

> <r_mmod_Bend_Energy-OPLS-2005>
239.65234375

> <r_mmod_Torsional_Energy-OPLS-2005>
221.848587036133

> <r_mmod_Improper_Torsional_Energy-OPLS-2005>
11.0186462402344

> <r_mmod_Van_der_Waal_Energy-OPLS-2005>
136.156890869141

> <r_mmod_Electrostatic_Energy-OPLS-2005>
-478.938690185547

> <r_mmod_Solvation_Energy-OPLS-2005>
-223.24983215332

> <b_mmod_Minimization_Converged-OPLS-2005>
0

> <r_mmod_RMS_Derivative-OPLS-2005>
1.38697969913483

$$$$
86
                    3D
 Structure written by MMmdl.
155163  0  0  1  0            999 V2000
  -30.6943  -14.4522   20.6269 C   0  0  0  0  0  0
  -30.4320  -12.3145   19.4159 C   0  0  0  0  0  0
  -29.4969  -12.5089   18.2056 C   0  0  0  0  0  0
  -28.0201  -12.3612   18.6224 C   0  0  0  0  0  0
  -27.6663  -13.1973   19.8800 C   0  0  2  0  0  0
  -28.7021  -12.9556   20.9993 C   0  0  0  0  0  0
  -25.2619  -13.8135   20.5669 C   0  0  0  0  0  0
  -24.1846  -13.0437   20.9160 C   0  0  0  0  0  0
  -24.6372  -11.6893   20.8725 C   0  0  0  0  0  0
  -23.9034  -10.4300   21.0402 C   0  0  0  0  0  0
  -24.3593   -9.4221   21.9176 C   0  0  0  0  0  0
  -23.6289   -8.2248   22.0739 C   0  0  0  0  0  0
  -22.4265   -8.0284   21.3542 C   0  0  0  0  0  0
  -21.9893   -9.0258   20.4644 C   0  0  0  0  0  0
  -22.7210  -10.2139   20.3060 C   0  0  0  0  0  0
  -21.6845   -6.0746   22.5279 C   0  0  0  0  0  0
  -21.4027   -6.5653   23.8215 C   0  0  0  0  0  0
  -21.3650   -5.6787   24.9172 C   0  0  0  0  0  0
  -21.6032   -4.3049   24.7214 C   0  0  0  0  0  0
  -21.8823   -3.8155   23.4333 C   0  0  0  0  0  0
  -21.9192   -4.6985   22.3403 C   0  0  0  0  0  0
  -22.7881  -13.5257   21.1835 C   0  0  0  0  0  0
  -22.1660   -4.2164   21.0983 F   0  0  0  0  0  0
  -21.5614   -3.4535   25.7731 F   0  0  0  0  0  0
  -30.0362  -13.2742   20.4592 N   0  0  0  0  0  0
  -26.3038  -12.9277   20.3371 N   0  0  0  0  0  0
  -25.9292  -11.6448   20.5753 N   0  0  0  0  0  0
  -22.0502  -12.8277   22.0400 N   0  0  0  0  0  0
  -25.4378  -15.1846   20.4071 N   0  0  0  0  0  0
  -31.7835  -14.6937   20.0951 O   0  0  0  0  0  0
  -21.6632   -6.8882   21.4235 O   0  0  0  0  0  0
  -22.3581  -14.5561   20.6675 O   0  0  0  0  0  0
  -24.6200  -31.8664   23.2129 C   0  0  0  0  0  0
  -25.9087  -32.4819   23.8421 C   0  0  1  0  0  0
  -27.2216  -27.4037   20.0897 C   0  0  0  0  0  0
  -25.5940  -33.8616   24.2343 N   0  0  0  0  0  0
  -23.4092  -30.4960   21.5526 C   0  0  2  0  0  0
  -24.8526  -28.9677   20.1122 C   0  0  0  0  0  0
  -22.7439  -29.4668   22.4970 C   0  0  0  0  0  0
  -18.0286  -28.1377   22.8499 C   0  0  0  0  0  0
  -24.1489  -36.7301   23.2635 C   0  0  0  0  0  0
  -25.9462  -30.8197   21.3788 C   0  0  0  0  0  0
  -26.0189  -29.4584   20.7140 C   0  0  0  0  0  0
  -27.2085  -28.6843   20.6983 C   0  0  0  0  0  0
  -26.0373  -26.9545   19.4593 C   0  0  0  0  0  0
  -24.8584  -27.7163   19.4822 C   0  0  0  0  0  0
  -23.6192  -29.8388   20.1653 C   0  0  0  0  0  0
  -25.4112  -36.3108   24.0336 C   0  0  1  0  0  0
  -20.5877  -28.3677   23.1301 C   0  0  2  0  0  0
  -20.6782  -26.9410   22.5411 C   0  0  0  0  0  0
  -19.5755  -26.6389   21.5214 C   0  0  0  0  0  0
  -18.1930  -26.7926   22.1625 C   0  0  0  0  0  0
  -19.1530  -28.8846   23.2901 C   0  0  0  0  0  0
  -18.9457  -30.1448   23.8910 C   0  0  0  0  0  0
  -17.6455  -30.6585   24.0563 C   0  0  0  0  0  0
  -25.9044  -34.9470   23.5130 C   0  0  0  0  0  0
  -16.5350  -29.9083   23.6328 C   0  0  0  0  0  0
  -16.7271  -28.6501   23.0359 C   0  0  0  0  0  0
  -26.4501  -31.6606   25.0758 C   0  0  0  0  0  0
  -25.3761  -31.3722   26.1507 C   0  0  0  0  0  0
  -27.0342  -30.3034   24.6191 C   0  0  0  0  0  0
  -27.6083  -32.4334   25.7505 C   0  0  0  0  0  0
  -27.5580  -37.1806   24.8466 C   0  0  0  0  0  0
  -21.4161  -29.3043   22.3693 N   0  0  0  0  0  0
  -26.4296  -37.3796   23.9406 N   0  0  0  0  0  0
  -24.6762  -31.0757   22.1044 N   0  0  0  0  0  0
  -23.4185  -28.8191   23.3010 O   0  0  0  0  0  0
  -28.3546  -26.6002   20.1107 O   0  0  0  0  0  0
  -26.5590  -34.8914   22.4675 O   0  0  0  0  0  0
  -23.5378  -32.1434   23.7488 O   0  0  0  0  0  0
  -31.1522  -21.7869   20.3295 C   0  0  0  0  0  0
  -29.3099  -20.2932   20.7645 C   0  0  0  0  0  0
  -31.9399  -20.6492   20.0799 C   0  0  0  0  0  0
  -29.7964  -21.6210   20.6665 C   0  0  0  0  0  0
  -30.1754  -19.2027   20.5061 C   0  0  0  0  0  0
  -28.8649  -22.8123   20.9284 C   0  0  0  0  0  0
  -29.6896  -17.7464   20.4955 C   0  0  0  0  0  0
  -29.2741  -24.2094   20.3636 C   0  0  0  0  0  0
  -30.4084  -16.8038   21.5001 C   0  0  0  0  0  0
  -28.1029  -25.2203   20.4847 C   0  0  0  0  0  0
  -31.4650  -19.3879   20.1531 N   0  0  0  0  0  0
  -30.0312  -15.3872   21.3336 N   0  0  0  0  0  0
  -31.4730  -12.4379   19.1101 H   0  0  0  0  0  0
  -30.3566  -11.2960   19.8014 H   0  0  0  0  0  0
  -29.7390  -11.7857   17.4248 H   0  0  0  0  0  0
  -29.6571  -13.4949   17.7685 H   0  0  0  0  0  0
  -27.8379  -11.3049   18.8219 H   0  0  0  0  0  0
  -27.3645  -12.6300   17.7933 H   0  0  0  0  0  0
  -27.7218  -14.2478   19.5918 H   0  0  0  0  0  0
  -28.6814  -11.9127   21.3155 H   0  0  0  0  0  0
  -28.4496  -13.5274   21.8929 H   0  0  0  0  0  0
  -25.2741   -9.5699   22.4742 H   0  0  0  0  0  0
  -24.0002   -7.4637   22.7454 H   0  0  0  0  0  0
  -21.0817   -8.8771   19.8957 H   0  0  0  0  0  0
  -22.3656  -10.9678   19.6178 H   0  0  0  0  0  0
  -21.2045   -7.6159   23.9730 H   0  0  0  0  0  0
  -21.1453   -6.0519   25.9068 H   0  0  0  0  0  0
  -22.0609   -2.7627   23.2828 H   0  0  0  0  0  0
  -22.4079  -11.9965   22.4865 H   0  0  0  0  0  0
  -21.1113  -13.1318   22.2555 H   0  0  0  0  0  0
  -24.6750  -15.8450   20.5161 H   0  0  0  0  0  0
  -26.2922  -15.6166   20.0787 H   0  0  0  0  0  0
  -26.7147  -32.5512   23.1170 H   0  0  0  0  0  0
  -25.0140  -33.9788   25.0522 H   0  0  0  0  0  0
  -22.7010  -31.3150   21.4164 H   0  0  0  0  0  0
  -23.3755  -35.9633   23.3316 H   0  0  0  0  0  0
  -24.3581  -36.8891   22.2046 H   0  0  0  0  0  0
  -23.7239  -37.6505   23.6633 H   0  0  0  0  0  0
  -26.0810  -31.5942   20.6227 H   0  0  0  0  0  0
  -26.8253  -30.8545   22.0107 H   0  0  0  0  0  0
  -28.1060  -29.0527   21.1742 H   0  0  0  0  0  0
  -25.9973  -26.0171   18.9263 H   0  0  0  0  0  0
  -23.9675  -27.3416   18.9979 H   0  0  0  0  0  0
  -23.7336  -30.6177   19.4115 H   0  0  0  0  0  0
  -22.7428  -29.2637   19.8621 H   0  0  0  0  0  0
  -25.1290  -36.1972   25.0831 H   0  0  0  0  0  0
  -20.9979  -28.3245   24.1418 H   0  0  0  0  0  0
  -20.5702  -26.2278   23.3598 H   0  0  0  0  0  0
  -21.6650  -26.7463   22.1187 H   0  0  0  0  0  0
  -19.6917  -25.6303   21.1235 H   0  0  0  0  0  0
  -19.6690  -27.3210   20.6748 H   0  0  0  0  0  0
  -17.4203  -26.6681   21.4022 H   0  0  0  0  0  0
  -18.0331  -26.0061   22.9015 H   0  0  0  0  0  0
  -19.7930  -30.7267   24.2279 H   0  0  0  0  0  0
  -17.5012  -31.6268   24.5159 H   0  0  0  0  0  0
  -15.5349  -30.2987   23.7657 H   0  0  0  0  0  0
  -15.8674  -28.0825   22.7069 H   0  0  0  0  0  0
  -24.5940  -30.7071   25.7838 H   0  0  0  0  0  0
  -24.8963  -32.2881   26.4965 H   0  0  0  0  0  0
  -25.8124  -30.8881   27.0257 H   0  0  0  0  0  0
  -26.2905  -29.6782   24.1252 H   0  0  0  0  0  0
  -27.4073  -29.7307   25.4692 H   0  0  0  0  0  0
  -27.8762  -30.4325   23.9392 H   0  0  0  0  0  0
  -27.2716  -33.3627   26.2113 H   0  0  0  0  0  0
  -28.3870  -32.6910   25.0313 H   0  0  0  0  0  0
  -28.0785  -31.8449   26.5394 H   0  0  0  0  0  0
  -28.2614  -38.0090   24.7515 H   0  0  0  0  0  0
  -28.1062  -36.2625   24.6298 H   0  0  0  0  0  0
  -27.2296  -37.1462   25.8868 H   0  0  0  0  0  0
  -20.9318  -29.8756   21.6913 H   0  0  0  0  0  0
  -26.0183  -38.2869   24.1417 H   0  0  0  0  0  0
  -31.6016  -22.7668   20.2532 H   0  0  0  0  0  0
  -28.2717  -20.1149   21.0193 H   0  0  0  0  0  0
  -32.9788  -20.7501   19.8048 H   0  0  0  0  0  0
  -28.7162  -22.8920   22.0062 H   0  0  0  0  0  0
  -27.8940  -22.5411   20.5161 H   0  0  0  0  0  0
  -29.8160  -17.3657   19.4809 H   0  0  0  0  0  0
  -28.6158  -17.7292   20.6877 H   0  0  0  0  0  0
  -29.5403  -24.1114   19.3104 H   0  0  0  0  0  0
  -30.1578  -24.5794   20.8817 H   0  0  0  0  0  0
  -30.1748  -17.1104   22.5206 H   0  0  0  0  0  0
  -31.4883  -16.9107   21.3951 H   0  0  0  0  0  0
  -27.7434  -25.2192   21.5138 H   0  0  0  0  0  0
  -27.3024  -24.7835   19.8929 H   0  0  0  0  0  0
  -29.1626  -15.0947   21.7585 H   0  0  0  0  0  0
  1 25  1  0  0  0
  1 30  2  0  0  0
  1 82  1  0  0  0
  2  3  1  0  0  0
  2 25  1  0  0  0
  2 83  1  0  0  0
  2 84  1  0  0  0
  3  4  1  0  0  0
  3 85  1  0  0  0
  3 86  1  0  0  0
  4  5  1  0  0  0
  4 87  1  0  0  0
  4 88  1  0  0  0
  5  6  1  0  0  0
  5 26  1  0  0  0
  5 89  1  0  0  0
  6 25  1  0  0  0
  6 90  1  0  0  0
  6 91  1  0  0  0
  7  8  2  0  0  0
  7 26  1  0  0  0
  7 29  1  0  0  0
  8  9  1  0  0  0
  8 22  1  0  0  0
  9 10  1  0  0  0
  9 27  2  0  0  0
 10 11  2  0  0  0
 10 15  1  0  0  0
 11 12  1  0  0  0
 11 92  1  0  0  0
 12 13  2  0  0  0
 12 93  1  0  0  0
 13 14  1  0  0  0
 13 31  1  0  0  0
 14 15  2  0  0  0
 14 94  1  0  0  0
 15 95  1  0  0  0
 16 17  2  0  0  0
 16 21  1  0  0  0
 16 31  1  0  0  0
 17 18  1  0  0  0
 17 96  1  0  0  0
 18 19  2  0  0  0
 18 97  1  0  0  0
 19 20  1  0  0  0
 19 24  1  0  0  0
 20 21  2  0  0  0
 20 98  1  0  0  0
 21 23  1  0  0  0
 22 28  1  0  0  0
 22 32  2  0  0  0
 26 27  1  0  0  0
 28 99  1  0  0  0
 28100  1  0  0  0
 29101  1  0  0  0
 29102  1  0  0  0
 33 34  1  0  0  0
 33 66  1  0  0  0
 33 70  2  0  0  0
 34 36  1  0  0  0
 34 59  1  0  0  0
 34103  1  0  0  0
 35 44  2  0  0  0
 35 45  1  0  0  0
 35 68  1  0  0  0
 36 56  1  0  0  0
 36104  1  0  0  0
 37 39  1  0  0  0
 37 47  1  0  0  0
 37 66  1  0  0  0
 37105  1  0  0  0
 38 43  2  0  0  0
 38 46  1  0  0  0
 38 47  1  0  0  0
 39 64  1  0  0  0
 39 67  2  0  0  0
 40 52  1  0  0  0
 40 53  2  0  0  0
 40 58  1  0  0  0
 41106  1  0  0  0
 41107  1  0  0  0
 41108  1  0  0  0
 41 48  1  0  0  0
 42 43  1  0  0  0
 42 66  1  0  0  0
 42109  1  0  0  0
 42110  1  0  0  0
 43 44  1  0  0  0
 44111  1  0  0  0
 45 46  2  0  0  0
 45112  1  0  0  0
 46113  1  0  0  0
 47114  1  0  0  0
 47115  1  0  0  0
 48 56  1  0  0  0
 48 65  1  0  0  0
 48116  1  0  0  0
 49 50  1  0  0  0
 49 53  1  0  0  0
 49 64  1  0  0  0
 49117  1  0  0  0
 50 51  1  0  0  0
 50118  1  0  0  0
 50119  1  0  0  0
 51 52  1  0  0  0
 51120  1  0  0  0
 51121  1  0  0  0
 52122  1  0  0  0
 52123  1  0  0  0
 53 54  1  0  0  0
 54 55  2  0  0  0
 54124  1  0  0  0
 55 57  1  0  0  0
 55125  1  0  0  0
 56 69  2  0  0  0
 57 58  2  0  0  0
 57126  1  0  0  0
 58127  1  0  0  0
 59 60  1  0  0  0
 59 61  1  0  0  0
 59 62  1  0  0  0
 60128  1  0  0  0
 60129  1  0  0  0
 60130  1  0  0  0
 61131  1  0  0  0
 61132  1  0  0  0
 61133  1  0  0  0
 62134  1  0  0  0
 62135  1  0  0  0
 62136  1  0  0  0
 63 65  1  0  0  0
 63137  1  0  0  0
 63138  1  0  0  0
 63139  1  0  0  0
 64140  1  0  0  0
 65141  1  0  0  0
 68 80  1  0  0  0
 71 73  2  0  0  0
 71 74  1  0  0  0
 71142  1  0  0  0
 72 74  2  0  0  0
 72 75  1  0  0  0
 72143  1  0  0  0
 73 81  1  0  0  0
 73144  1  0  0  0
 74 76  1  0  0  0
 75 77  1  0  0  0
 75 81  2  0  0  0
 76 78  1  0  0  0
 76145  1  0  0  0
 76146  1  0  0  0
 77 79  1  0  0  0
 77147  1  0  0  0
 77148  1  0  0  0
 78 80  1  0  0  0
 78149  1  0  0  0
 78150  1  0  0  0
 79 82  1  0  0  0
 79151  1  0  0  0
 79152  1  0  0  0
 80153  1  0  0  0
 80154  1  0  0  0
 82155  1  0  0  0
M  ISO  4   1 100  68 101  80 101  82 100
M  END
> <chiral flag>
0

> <version>
0

> <s_m_source_file>
/data/baiqing/PycharmProjects/Reinvent-master-3.2/result/LINK_invent/BTK/process_docking_weight1_custom_sum_contain_oxygen_bond_distance_aromatic_linkinvent_7_9_3/rearranged_h_0094.sdf

> <i_m_source_file_index>
85

> <r_mmod_Potential_Energy-OPLS-2005>
-220.575836181641

> <r_mmod_Stretch_Energy-OPLS-2005>
40.3297271728516

> <r_mmod_Bend_Energy-OPLS-2005>
96.2927169799805

> <r_mmod_Torsional_Energy-OPLS-2005>
195.308975219727

> <r_mmod_Improper_Torsional_Energy-OPLS-2005>
2.73491168022156

> <r_mmod_Van_der_Waal_Energy-OPLS-2005>
159.324432373047

> <r_mmod_Electrostatic_Energy-OPLS-2005>
-499.262084960938

> <r_mmod_Solvation_Energy-OPLS-2005>
-230.675003051758

> <b_mmod_Minimization_Converged-OPLS-2005>
0

> <r_mmod_RMS_Derivative-OPLS-2005>
2.67405700683594

$$$$
87
                    3D
 Structure written by MMmdl.
166174  0  0  1  0            999 V2000
  -30.4907  -14.9974   20.4079 C   0  0  0  0  0  0
  -30.4346  -12.6219   19.5065 C   0  0  0  0  0  0
  -29.5271  -12.5698   18.2573 C   0  0  0  0  0  0
  -28.0524  -12.3646   18.6434 C   0  0  0  0  0  0
  -27.6245  -13.2635   19.8360 C   0  0  2  0  0  0
  -28.6625  -13.2716   20.9786 C   0  0  0  0  0  0
  -25.2459  -13.8280   20.5719 C   0  0  0  0  0  0
  -24.1819  -13.0463   20.9252 C   0  0  0  0  0  0
  -24.6445  -11.6926   20.8709 C   0  0  0  0  0  0
  -23.9110  -10.4300   21.0370 C   0  0  0  0  0  0
  -24.3658   -9.4212   21.9160 C   0  0  0  0  0  0
  -23.6310   -8.2270   22.0774 C   0  0  0  0  0  0
  -22.4266   -8.0340   21.3594 C   0  0  0  0  0  0
  -21.9914   -9.0282   20.4663 C   0  0  0  0  0  0
  -22.7271  -10.2139   20.3042 C   0  0  0  0  0  0
  -21.6887   -6.0728   22.5287 C   0  0  0  0  0  0
  -21.4008   -6.5619   23.8212 C   0  0  0  0  0  0
  -21.3671   -5.6776   24.9188 C   0  0  0  0  0  0
  -21.6074   -4.3053   24.7232 C   0  0  0  0  0  0
  -21.8820   -3.8132   23.4357 C   0  0  0  0  0  0
  -21.9211   -4.6946   22.3410 C   0  0  0  0  0  0
  -22.7828  -13.5210   21.1902 C   0  0  0  0  0  0
  -22.1693   -4.2159   21.0978 F   0  0  0  0  0  0
  -21.5637   -3.4523   25.7733 F   0  0  0  0  0  0
  -29.9323  -13.7146   20.3977 N   0  0  0  0  0  0
  -26.2882  -12.9493   20.3189 N   0  0  0  0  0  0
  -25.9335  -11.6592   20.5590 N   0  0  0  0  0  0
  -22.0482  -12.8174   22.0450 N   0  0  0  0  0  0
  -25.4063  -15.2027   20.4162 N   0  0  0  0  0  0
  -31.6801  -15.0661   20.0710 O   0  0  0  0  0  0
  -21.6698   -6.8877   21.4259 O   0  0  0  0  0  0
  -22.3455  -14.5485   20.6746 O   0  0  0  0  0  0
  -24.6444  -31.8423   23.1922 C   0  0  0  0  0  0
  -25.9184  -32.4717   23.8327 C   0  0  1  0  0  0
  -27.1821  -27.0928   20.1954 C   0  0  0  0  0  0
  -25.5934  -33.8538   24.2252 N   0  0  0  0  0  0
  -23.4493  -30.4642   21.5390 C   0  0  2  0  0  0
  -24.8913  -28.8833   20.1204 C   0  0  0  0  0  0
  -22.7575  -29.4548   22.4920 C   0  0  0  0  0  0
  -18.0307  -28.1411   22.8492 C   0  0  0  0  0  0
  -24.1473  -36.7245   23.2640 C   0  0  0  0  0  0
  -26.0086  -30.7077   21.3939 C   0  0  0  0  0  0
  -26.0719  -29.3156   20.7356 C   0  0  0  0  0  0
  -27.2245  -28.4389   20.7433 C   0  0  0  0  0  0
  -25.9725  -26.7606   19.5527 C   0  0  0  0  0  0
  -24.8562  -27.6207   19.5116 C   0  0  0  0  0  0
  -23.6747  -29.7925   20.1577 C   0  0  0  0  0  0
  -25.4115  -36.3040   24.0312 C   0  0  1  0  0  0
  -20.5924  -28.3704   23.1276 C   0  0  2  0  0  0
  -20.6792  -26.9409   22.5418 C   0  0  0  0  0  0
  -19.5764  -26.6373   21.5223 C   0  0  0  0  0  0
  -18.1937  -26.7954   22.1620 C   0  0  0  0  0  0
  -19.1571  -28.8868   23.2855 C   0  0  0  0  0  0
  -18.9454  -30.1473   23.8889 C   0  0  0  0  0  0
  -17.6458  -30.6590   24.0553 C   0  0  0  0  0  0
  -25.9059  -34.9408   23.5091 C   0  0  0  0  0  0
  -16.5338  -29.9048   23.6367 C   0  0  0  0  0  0
  -16.7289  -28.6495   23.0380 C   0  0  0  0  0  0
  -26.4507  -31.6607   25.0769 C   0  0  0  0  0  0
  -25.3694  -31.3753   26.1458 C   0  0  0  0  0  0
  -27.0407  -30.3013   24.6362 C   0  0  0  0  0  0
  -27.6057  -32.4381   25.7569 C   0  0  0  0  0  0
  -27.5600  -37.1763   24.8461 C   0  0  0  0  0  0
  -21.4273  -29.3003   22.3636 N   0  0  0  0  0  0
  -26.4289  -37.3746   23.9415 N   0  0  0  0  0  0
  -24.7210  -31.0261   22.0955 N   0  0  0  0  0  0
  -23.4193  -28.8049   23.3031 O   0  0  0  0  0  0
  -28.2249  -26.0913   20.2250 O   0  0  0  0  0  0
  -26.5620  -34.8913   22.4663 O   0  0  0  0  0  0
  -23.5539  -32.1307   23.7104 O   0  0  0  0  0  0
  -28.7085  -20.2634   19.7660 C   0  0  0  0  0  0
  -28.8944  -21.6112   20.3846 C   0  0  0  0  0  0
  -29.3658  -19.1558   20.3710 C   0  0  0  0  0  0
  -29.6208  -21.2090   21.4975 C   0  0  0  0  0  0
  -30.1868  -22.0670   22.5970 C   0  0  0  0  0  0
  -27.8209  -24.2235   17.5250 C   0  0  0  0  0  0
  -30.0023  -18.3978   23.5346 C   0  0  0  0  0  0
  -29.0347  -17.3746   18.5070 C   0  0  0  0  0  0
  -27.6879  -23.0577   18.5275 C   0  0  0  0  0  0
  -30.7926  -19.1282   22.4365 C   0  0  0  0  0  0
  -28.0037  -24.5756   20.6190 C   0  0  0  0  0  0
  -28.5535  -23.1790   19.8070 C   0  0  1  0  0  0
  -29.7563  -17.6077   19.8504 C   0  0  2  0  0  0
  -29.9221  -19.8074   21.4775 N   0  0  0  0  0  0
  -29.7010  -16.1877   20.5776 N   0  0  0  0  0  0
  -31.4682  -12.7877   19.1966 H   0  0  0  0  0  0
  -30.4331  -11.6608   20.0228 H   0  0  0  0  0  0
  -29.8431  -11.7807   17.5767 H   0  0  0  0  0  0
  -29.6414  -13.5057   17.7065 H   0  0  0  0  0  0
  -27.9012  -11.3115   18.8799 H   0  0  0  0  0  0
  -27.4276  -12.5791   17.7786 H   0  0  0  0  0  0
  -27.5818  -14.2782   19.4317 H   0  0  0  0  0  0
  -28.7704  -12.2786   21.4211 H   0  0  0  0  0  0
  -28.3516  -13.9392   21.7829 H   0  0  0  0  0  0
  -25.2799   -9.5703   22.4738 H   0  0  0  0  0  0
  -24.0077   -7.4611   22.7433 H   0  0  0  0  0  0
  -21.0900   -8.8761   19.8865 H   0  0  0  0  0  0
  -22.3761  -10.9686   19.6148 H   0  0  0  0  0  0
  -21.1994   -7.6114   23.9719 H   0  0  0  0  0  0
  -21.1497   -6.0511   25.9095 H   0  0  0  0  0  0
  -22.0586   -2.7598   23.2860 H   0  0  0  0  0  0
  -22.4114  -11.9860   22.4860 H   0  0  0  0  0  0
  -21.1073  -13.1140   22.2537 H   0  0  0  0  0  0
  -24.6237  -15.8437   20.5211 H   0  0  0  0  0  0
  -26.2397  -15.6517   20.0588 H   0  0  0  0  0  0
  -26.7256  -32.5277   23.1069 H   0  0  0  0  0  0
  -25.0089  -33.9705   25.0406 H   0  0  0  0  0  0
  -22.7481  -31.2871   21.3860 H   0  0  0  0  0  0
  -23.3786  -35.9526   23.3234 H   0  0  0  0  0  0
  -24.3569  -36.8937   22.2071 H   0  0  0  0  0  0
  -23.7172  -37.6390   23.6730 H   0  0  0  0  0  0
  -26.1664  -31.4602   20.6218 H   0  0  0  0  0  0
  -26.8796  -30.7576   22.0359 H   0  0  0  0  0  0
  -28.1350  -28.7620   21.2274 H   0  0  0  0  0  0
  -25.8581  -25.7872   19.1020 H   0  0  0  0  0  0
  -23.9437  -27.2830   19.0415 H   0  0  0  0  0  0
  -23.8102  -30.5676   19.4017 H   0  0  0  0  0  0
  -22.7858  -29.2359   19.8544 H   0  0  0  0  0  0
  -25.1315  -36.1884   25.0801 H   0  0  0  0  0  0
  -21.0002  -28.3241   24.1402 H   0  0  0  0  0  0
  -20.5709  -26.2277   23.3598 H   0  0  0  0  0  0
  -21.6648  -26.7416   22.1209 H   0  0  0  0  0  0
  -19.6903  -25.6254   21.1288 H   0  0  0  0  0  0
  -19.6756  -27.3172   20.6730 H   0  0  0  0  0  0
  -17.4226  -26.6730   21.3986 H   0  0  0  0  0  0
  -18.0296  -26.0102   22.9022 H   0  0  0  0  0  0
  -19.7891  -30.7314   24.2256 H   0  0  0  0  0  0
  -17.4959  -31.6297   24.5091 H   0  0  0  0  0  0
  -15.5329  -30.2911   23.7729 H   0  0  0  0  0  0
  -15.8689  -28.0769   22.7125 H   0  0  0  0  0  0
  -24.5873  -30.7132   25.7724 H   0  0  0  0  0  0
  -24.8878  -32.2908   26.4901 H   0  0  0  0  0  0
  -25.7942  -30.8878   27.0241 H   0  0  0  0  0  0
  -26.3039  -29.6738   24.1327 H   0  0  0  0  0  0
  -27.3971  -29.7319   25.4958 H   0  0  0  0  0  0
  -27.8971  -30.4288   23.9745 H   0  0  0  0  0  0
  -27.2655  -33.3665   26.2196 H   0  0  0  0  0  0
  -28.3851  -32.6984   25.0392 H   0  0  0  0  0  0
  -28.0777  -31.8487   26.5444 H   0  0  0  0  0  0
  -28.2555  -38.0108   24.7565 H   0  0  0  0  0  0
  -28.1148  -36.2643   24.6230 H   0  0  0  0  0  0
  -27.2324  -37.1360   25.8854 H   0  0  0  0  0  0
  -20.9455  -29.8674   21.6817 H   0  0  0  0  0  0
  -26.0156  -38.2805   24.1440 H   0  0  0  0  0  0
  -28.1931  -20.1289   18.8266 H   0  0  0  0  0  0
  -29.6987  -23.0344   22.6510 H   0  0  0  0  0  0
  -31.2536  -22.2406   22.4353 H   0  0  0  0  0  0
  -30.0683  -21.6013   23.5794 H   0  0  0  0  0  0
  -27.6712  -25.2002   17.9801 H   0  0  0  0  0  0
  -27.0794  -24.1384   16.7267 H   0  0  0  0  0  0
  -28.8031  -24.2397   17.0520 H   0  0  0  0  0  0
  -30.6813  -17.9892   24.2802 H   0  0  0  0  0  0
  -29.4240  -17.5652   23.1285 H   0  0  0  0  0  0
  -29.3114  -19.0693   24.0432 H   0  0  0  0  0  0
  -29.1714  -18.2143   17.8259 H   0  0  0  0  0  0
  -27.9580  -17.2424   18.6443 H   0  0  0  0  0  0
  -29.4151  -16.4899   17.9919 H   0  0  0  0  0  0
  -27.9637  -22.1613   17.9760 H   0  0  0  0  0  0
  -26.6430  -22.9275   18.8157 H   0  0  0  0  0  0
  -31.4206  -18.4241   21.8940 H   0  0  0  0  0  0
  -31.5064  -19.8351   22.8623 H   0  0  0  0  0  0
  -28.4272  -24.5194   21.6196 H   0  0  0  0  0  0
  -26.9369  -24.4350   20.8139 H   0  0  0  0  0  0
  -29.5464  -23.4668   19.4690 H   0  0  0  0  0  0
  -30.8136  -17.6855   19.5912 H   0  0  0  0  0  0
  -28.8049  -16.0074   21.0061 H   0  0  0  0  0  0
  1 25  1  0  0  0
  1 30  2  0  0  0
  1 85  1  0  0  0
  2  3  1  0  0  0
  2 25  1  0  0  0
  2 86  1  0  0  0
  2 87  1  0  0  0
  3  4  1  0  0  0
  3 88  1  0  0  0
  3 89  1  0  0  0
  4  5  1  0  0  0
  4 90  1  0  0  0
  4 91  1  0  0  0
  5  6  1  0  0  0
  5 26  1  0  0  0
  5 92  1  0  0  0
  6 25  1  0  0  0
  6 93  1  0  0  0
  6 94  1  0  0  0
  7  8  2  0  0  0
  7 26  1  0  0  0
  7 29  1  0  0  0
  8  9  1  0  0  0
  8 22  1  0  0  0
  9 10  1  0  0  0
  9 27  2  0  0  0
 10 11  2  0  0  0
 10 15  1  0  0  0
 11 12  1  0  0  0
 11 95  1  0  0  0
 12 13  2  0  0  0
 12 96  1  0  0  0
 13 14  1  0  0  0
 13 31  1  0  0  0
 14 15  2  0  0  0
 14 97  1  0  0  0
 15 98  1  0  0  0
 16 17  2  0  0  0
 16 21  1  0  0  0
 16 31  1  0  0  0
 17 18  1  0  0  0
 17 99  1  0  0  0
 18 19  2  0  0  0
 18100  1  0  0  0
 19 20  1  0  0  0
 19 24  1  0  0  0
 20 21  2  0  0  0
 20101  1  0  0  0
 21 23  1  0  0  0
 22 28  1  0  0  0
 22 32  2  0  0  0
 26 27  1  0  0  0
 28102  1  0  0  0
 28103  1  0  0  0
 29104  1  0  0  0
 29105  1  0  0  0
 33 34  1  0  0  0
 33 66  1  0  0  0
 33 70  2  0  0  0
 34 36  1  0  0  0
 34 59  1  0  0  0
 34106  1  0  0  0
 35 44  2  0  0  0
 35 45  1  0  0  0
 35 68  1  0  0  0
 36 56  1  0  0  0
 36107  1  0  0  0
 37 39  1  0  0  0
 37 47  1  0  0  0
 37 66  1  0  0  0
 37108  1  0  0  0
 38 43  2  0  0  0
 38 46  1  0  0  0
 38 47  1  0  0  0
 39 64  1  0  0  0
 39 67  2  0  0  0
 40 52  1  0  0  0
 40 53  2  0  0  0
 40 58  1  0  0  0
 41109  1  0  0  0
 41110  1  0  0  0
 41111  1  0  0  0
 41 48  1  0  0  0
 42 43  1  0  0  0
 42 66  1  0  0  0
 42112  1  0  0  0
 42113  1  0  0  0
 43 44  1  0  0  0
 44114  1  0  0  0
 45 46  2  0  0  0
 45115  1  0  0  0
 46116  1  0  0  0
 47117  1  0  0  0
 47118  1  0  0  0
 48 56  1  0  0  0
 48 65  1  0  0  0
 48119  1  0  0  0
 49 50  1  0  0  0
 49 53  1  0  0  0
 49 64  1  0  0  0
 49120  1  0  0  0
 50 51  1  0  0  0
 50121  1  0  0  0
 50122  1  0  0  0
 51 52  1  0  0  0
 51123  1  0  0  0
 51124  1  0  0  0
 52125  1  0  0  0
 52126  1  0  0  0
 53 54  1  0  0  0
 54 55  2  0  0  0
 54127  1  0  0  0
 55 57  1  0  0  0
 55128  1  0  0  0
 56 69  2  0  0  0
 57 58  2  0  0  0
 57129  1  0  0  0
 58130  1  0  0  0
 59 60  1  0  0  0
 59 61  1  0  0  0
 59 62  1  0  0  0
 60131  1  0  0  0
 60132  1  0  0  0
 60133  1  0  0  0
 61134  1  0  0  0
 61135  1  0  0  0
 61136  1  0  0  0
 62137  1  0  0  0
 62138  1  0  0  0
 62139  1  0  0  0
 63 65  1  0  0  0
 63140  1  0  0  0
 63141  1  0  0  0
 63142  1  0  0  0
 64143  1  0  0  0
 65144  1  0  0  0
 68 81  1  0  0  0
 71 72  1  0  0  0
 71 73  2  0  0  0
 71145  1  0  0  0
 72 74  2  0  0  0
 72 82  1  0  0  0
 73 83  1  0  0  0
 73 84  1  0  0  0
 74 75  1  0  0  0
 74 84  1  0  0  0
 75146  1  0  0  0
 75147  1  0  0  0
 75148  1  0  0  0
 76 79  1  0  0  0
 76149  1  0  0  0
 76150  1  0  0  0
 76151  1  0  0  0
 77 80  1  0  0  0
 77152  1  0  0  0
 77153  1  0  0  0
 77154  1  0  0  0
 78155  1  0  0  0
 78156  1  0  0  0
 78157  1  0  0  0
 78 83  1  0  0  0
 79158  1  0  0  0
 79159  1  0  0  0
 79 82  1  0  0  0
 80 84  1  0  0  0
 80160  1  0  0  0
 80161  1  0  0  0
 81 82  1  0  0  0
 81162  1  0  0  0
 81163  1  0  0  0
 82164  1  0  0  0
 83 85  1  0  0  0
 83165  1  0  0  0
 85166  1  0  0  0
M  ISO  4   1 100  68 101  81 101  85 100
M  END
> <chiral flag>
0

> <version>
0

> <s_m_source_file>
/data/baiqing/PycharmProjects/Reinvent-master-3.2/result/LINK_invent/BTK/process_docking_weight1_custom_sum_contain_oxygen_bond_distance_aromatic_linkinvent_7_9_3/rearranged_h_0094.sdf

> <i_m_source_file_index>
86

> <r_mmod_Potential_Energy-OPLS-2005>
608.407409667969

> <r_mmod_Stretch_Energy-OPLS-2005>
312.39306640625

> <r_mmod_Bend_Energy-OPLS-2005>
308.004852294922

> <r_mmod_Torsional_Energy-OPLS-2005>
263.83251953125

> <r_mmod_Improper_Torsional_Energy-OPLS-2005>
9.52201366424561

> <r_mmod_Van_der_Waal_Energy-OPLS-2005>
104.217269897461

> <r_mmod_Electrostatic_Energy-OPLS-2005>
-417.918640136719

> <r_mmod_Solvation_Energy-OPLS-2005>
-200.74479675293

> <b_mmod_Minimization_Converged-OPLS-2005>
0

> <r_mmod_RMS_Derivative-OPLS-2005>
7.01755523681641

$$$$
88
                    3D
 Structure written by MMmdl.
178186  0  0  1  0            999 V2000
  -30.6600  -14.5595   20.4709 C   0  0  0  0  0  0
  -30.4252  -12.3367   19.4424 C   0  0  0  0  0  0
  -29.4948  -12.5037   18.2220 C   0  0  0  0  0  0
  -28.0208  -12.3544   18.6350 C   0  0  0  0  0  0
  -27.6582  -13.2172   19.8721 C   0  0  2  0  0  0
  -28.7045  -13.0531   20.9997 C   0  0  0  0  0  0
  -25.2602  -13.8176   20.5745 C   0  0  0  0  0  0
  -24.1871  -13.0436   20.9221 C   0  0  0  0  0  0
  -24.6464  -11.6908   20.8771 C   0  0  0  0  0  0
  -23.9127  -10.4290   21.0430 C   0  0  0  0  0  0
  -24.3646   -9.4181   21.9201 C   0  0  0  0  0  0
  -23.6316   -8.2218   22.0748 C   0  0  0  0  0  0
  -22.4278   -8.0298   21.3551 C   0  0  0  0  0  0
  -21.9951   -9.0279   20.4640 C   0  0  0  0  0  0
  -22.7310  -10.2143   20.3065 C   0  0  0  0  0  0
  -21.6852   -6.0778   22.5305 C   0  0  0  0  0  0
  -21.3998   -6.5667   23.8241 C   0  0  0  0  0  0
  -21.3643   -5.6805   24.9197 C   0  0  0  0  0  0
  -21.6039   -4.3069   24.7237 C   0  0  0  0  0  0
  -21.8815   -3.8185   23.4352 C   0  0  0  0  0  0
  -21.9191   -4.7013   22.3421 C   0  0  0  0  0  0
  -22.7901  -13.5216   21.1902 C   0  0  0  0  0  0
  -22.1673   -4.2202   21.1002 F   0  0  0  0  0  0
  -21.5616   -3.4542   25.7741 F   0  0  0  0  0  0
  -30.0308  -13.3519   20.4357 N   0  0  0  0  0  0
  -26.3050  -12.9383   20.3409 N   0  0  0  0  0  0
  -25.9378  -11.6521   20.5787 N   0  0  0  0  0  0
  -22.0578  -12.8133   22.0439 N   0  0  0  0  0  0
  -25.4334  -15.1897   20.4207 N   0  0  0  0  0  0
  -31.8212  -14.7101   20.0840 O   0  0  0  0  0  0
  -21.6633   -6.8906   21.4260 O   0  0  0  0  0  0
  -22.3571  -14.5535   20.6810 O   0  0  0  0  0  0
  -24.6198  -31.8634   23.2074 C   0  0  0  0  0  0
  -25.9076  -32.4796   23.8381 C   0  0  1  0  0  0
  -27.2300  -27.3965   20.1162 C   0  0  0  0  0  0
  -25.5908  -33.8590   24.2309 N   0  0  0  0  0  0
  -23.4098  -30.4875   21.5478 C   0  0  2  0  0  0
  -24.8587  -28.9518   20.1114 C   0  0  0  0  0  0
  -22.7440  -29.4629   22.4963 C   0  0  0  0  0  0
  -18.0281  -28.1374   22.8490 C   0  0  0  0  0  0
  -24.1495  -36.7290   23.2634 C   0  0  0  0  0  0
  -25.9427  -30.8214   21.3655 C   0  0  0  0  0  0
  -26.0232  -29.4568   20.7055 C   0  0  0  0  0  0
  -27.2165  -28.6885   20.6996 C   0  0  0  0  0  0
  -26.0511  -26.9177   19.5081 C   0  0  0  0  0  0
  -24.8696  -27.6833   19.5061 C   0  0  0  0  0  0
  -23.6207  -29.8192   20.1629 C   0  0  0  0  0  0
  -25.4114  -36.3092   24.0343 C   0  0  1  0  0  0
  -20.5874  -28.3665   23.1300 C   0  0  2  0  0  0
  -20.6766  -26.9396   22.5417 C   0  0  0  0  0  0
  -19.5742  -26.6374   21.5219 C   0  0  0  0  0  0
  -18.1915  -26.7923   22.1619 C   0  0  0  0  0  0
  -19.1527  -28.8840   23.2892 C   0  0  0  0  0  0
  -18.9454  -30.1440   23.8918 C   0  0  0  0  0  0
  -17.6456  -30.6587   24.0561 C   0  0  0  0  0  0
  -25.9050  -34.9462   23.5126 C   0  0  0  0  0  0
  -16.5350  -29.9091   23.6328 C   0  0  0  0  0  0
  -16.7263  -28.6499   23.0364 C   0  0  0  0  0  0
  -26.4498  -31.6573   25.0715 C   0  0  0  0  0  0
  -25.3752  -31.3647   26.1443 C   0  0  0  0  0  0
  -27.0348  -30.3023   24.6102 C   0  0  0  0  0  0
  -27.6079  -32.4288   25.7484 C   0  0  0  0  0  0
  -27.5595  -37.1789   24.8457 C   0  0  0  0  0  0
  -21.4156  -29.3040   22.3715 N   0  0  0  0  0  0
  -26.4287  -37.3788   23.9424 N   0  0  0  0  0  0
  -24.6759  -31.0708   22.0986 N   0  0  0  0  0  0
  -23.4189  -28.8165   23.3021 O   0  0  0  0  0  0
  -28.3336  -26.5605   20.1656 O   0  0  0  0  0  0
  -26.5603  -34.8915   22.4695 O   0  0  0  0  0  0
  -23.5385  -32.1408   23.7445 O   0  0  0  0  0  0
  -28.9327  -19.0426   17.7819 C   0  0  0  0  0  0
  -29.0879  -19.2551   19.1967 C   0  0  0  0  0  0
  -27.9268  -19.8645   17.3613 C   0  0  0  0  0  0
  -28.4991  -20.4974   19.4283 C   0  0  0  0  0  0
  -29.6410  -18.0501   16.8840 C   0  0  0  0  0  0
  -27.2790  -19.9720   16.0121 C   0  0  0  0  0  0
  -23.6369  -21.7982   20.1993 C   0  0  0  0  0  0
  -22.5262  -20.0911   18.7271 C   0  0  0  0  0  0
  -29.7693  -18.2676   20.1881 C   0  0  0  0  0  0
  -28.6330  -21.5844   20.5097 C   0  0  0  0  0  0
  -28.5972  -23.0969   20.0104 C   0  0  0  0  0  0
  -29.0521  -24.2017   21.0228 C   0  0  0  0  0  0
  -25.0320  -20.4266   18.5306 C   0  0  0  0  0  0
  -26.2621  -21.3622   18.5494 C   0  0  0  0  0  0
  -29.7864  -16.7675   19.6943 C   0  0  0  0  0  0
  -28.1815  -25.5023   21.1489 C   0  0  0  0  0  0
  -23.6768  -21.1095   18.8236 C   0  0  0  0  0  0
  -27.5105  -20.6015   18.4542 N   0  0  0  0  0  0
  -29.8516  -15.6321   20.6563 N   0  0  0  0  0  0
  -31.4678  -12.4287   19.1321 H   0  0  0  0  0  0
  -30.3323  -11.3379   19.8695 H   0  0  0  0  0  0
  -29.7356  -11.7639   17.4570 H   0  0  0  0  0  0
  -29.6520  -13.4838   17.7681 H   0  0  0  0  0  0
  -27.8397  -11.2999   18.8477 H   0  0  0  0  0  0
  -27.3693  -12.6088   17.8000 H   0  0  0  0  0  0
  -27.6757  -14.2548   19.5377 H   0  0  0  0  0  0
  -28.6924  -12.0360   21.3942 H   0  0  0  0  0  0
  -28.4684  -13.7027   21.8447 H   0  0  0  0  0  0
  -25.2789   -9.5625   22.4769 H   0  0  0  0  0  0
  -24.0027   -7.4592   22.7429 H   0  0  0  0  0  0
  -21.0913   -8.8809   19.8915 H   0  0  0  0  0  0
  -22.3822  -10.9675   19.6153 H   0  0  0  0  0  0
  -21.1961   -7.6164   23.9749 H   0  0  0  0  0  0
  -21.1469   -6.0541   25.9086 H   0  0  0  0  0  0
  -22.0598   -2.7652   23.2857 H   0  0  0  0  0  0
  -22.4245  -11.9713   22.4618 H   0  0  0  0  0  0
  -21.1212  -13.1120   22.2718 H   0  0  0  0  0  0
  -24.6651  -15.8411   20.5292 H   0  0  0  0  0  0
  -26.2879  -15.6354   20.1158 H   0  0  0  0  0  0
  -26.7143  -32.5486   23.1131 H   0  0  0  0  0  0
  -25.0107  -33.9754   25.0490 H   0  0  0  0  0  0
  -22.7006  -31.3055   21.4064 H   0  0  0  0  0  0
  -23.3782  -35.9592   23.3259 H   0  0  0  0  0  0
  -24.3606  -36.8948   22.2056 H   0  0  0  0  0  0
  -23.7212  -37.6468   23.6677 H   0  0  0  0  0  0
  -26.0644  -31.5914   20.6013 H   0  0  0  0  0  0
  -26.8262  -30.8688   21.9901 H   0  0  0  0  0  0
  -28.1127  -29.0669   21.1730 H   0  0  0  0  0  0
  -26.0365  -25.9307   19.0667 H   0  0  0  0  0  0
  -23.9708  -27.2850   19.0545 H   0  0  0  0  0  0
  -23.7282  -30.5945   19.4043 H   0  0  0  0  0  0
  -22.7443  -29.2405   19.8652 H   0  0  0  0  0  0
  -25.1293  -36.1955   25.0837 H   0  0  0  0  0  0
  -20.9959  -28.3237   24.1418 H   0  0  0  0  0  0
  -20.5687  -26.2271   23.3609 H   0  0  0  0  0  0
  -21.6631  -26.7443   22.1196 H   0  0  0  0  0  0
  -19.6913  -25.6283   21.1250 H   0  0  0  0  0  0
  -19.6699  -27.3182   20.6747 H   0  0  0  0  0  0
  -17.4197  -26.6686   21.4008 H   0  0  0  0  0  0
  -18.0312  -26.0055   22.9004 H   0  0  0  0  0  0
  -19.7927  -30.7244   24.2306 H   0  0  0  0  0  0
  -17.5014  -31.6279   24.5135 H   0  0  0  0  0  0
  -15.5351  -30.3004   23.7641 H   0  0  0  0  0  0
  -15.8654  -28.0820   22.7095 H   0  0  0  0  0  0
  -24.5955  -30.6974   25.7736 H   0  0  0  0  0  0
  -24.8906  -32.2783   26.4898 H   0  0  0  0  0  0
  -25.8101  -30.8795   27.0190 H   0  0  0  0  0  0
  -26.2899  -29.6749   24.1181 H   0  0  0  0  0  0
  -27.4154  -29.7286   25.4562 H   0  0  0  0  0  0
  -27.8719  -30.4342   23.9237 H   0  0  0  0  0  0
  -27.2726  -33.3604   26.2043 H   0  0  0  0  0  0
  -28.3902  -32.6803   25.0312 H   0  0  0  0  0  0
  -28.0718  -31.8404   26.5405 H   0  0  0  0  0  0
  -28.2555  -38.0140   24.7593 H   0  0  0  0  0  0
  -28.1154  -36.2685   24.6187 H   0  0  0  0  0  0
  -27.2318  -37.1305   25.8851 H   0  0  0  0  0  0
  -20.9332  -29.8765   21.6933 H   0  0  0  0  0  0
  -26.0182  -38.2860   24.1462 H   0  0  0  0  0  0
  -30.6907  -17.9520   17.1603 H   0  0  0  0  0  0
  -29.6235  -18.3819   15.8461 H   0  0  0  0  0  0
  -29.1704  -17.0687   16.9244 H   0  0  0  0  0  0
  -28.0331  -20.0107   15.2242 H   0  0  0  0  0  0
  -26.6774  -20.8745   15.9104 H   0  0  0  0  0  0
  -26.6368  -19.1135   15.8196 H   0  0  0  0  0  0
  -22.6273  -22.1228   20.4522 H   0  0  0  0  0  0
  -24.2633  -22.6907   20.2246 H   0  0  0  0  0  0
  -23.9745  -21.1315   20.9932 H   0  0  0  0  0  0
  -21.5571  -20.5789   18.8438 H   0  0  0  0  0  0
  -22.6025  -19.3270   19.5012 H   0  0  0  0  0  0
  -22.5167  -19.5835   17.7628 H   0  0  0  0  0  0
  -29.2182  -18.3250   21.1264 H   0  0  0  0  0  0
  -30.7817  -18.6092   20.4020 H   0  0  0  0  0  0
  -29.5856  -21.4262   21.0162 H   0  0  0  0  0  0
  -27.8696  -21.4389   21.2747 H   0  0  0  0  0  0
  -27.6034  -23.3846   19.6794 H   0  0  0  0  0  0
  -29.2164  -23.1910   19.1175 H   0  0  0  0  0  0
  -30.0943  -24.4671   20.8475 H   0  0  0  0  0  0
  -29.0416  -23.7415   22.0128 H   0  0  0  0  0  0
  -25.1900  -19.6326   19.2623 H   0  0  0  0  0  0
  -24.9732  -19.9245   17.5669 H   0  0  0  0  0  0
  -26.2279  -21.8630   19.5085 H   0  0  0  0  0  0
  -26.2235  -22.1261   17.7725 H   0  0  0  0  0  0
  -30.5735  -16.6499   18.9512 H   0  0  0  0  0  0
  -28.8490  -16.5907   19.1656 H   0  0  0  0  0  0
  -28.4414  -25.9639   22.1026 H   0  0  0  0  0  0
  -27.1390  -25.2038   21.2630 H   0  0  0  0  0  0
  -23.5056  -21.8690   18.0587 H   0  0  0  0  0  0
  -28.9685  -15.3987   21.0841 H   0  0  0  0  0  0
  1 25  1  0  0  0
  1 30  2  0  0  0
  1 89  1  0  0  0
  2  3  1  0  0  0
  2 25  1  0  0  0
  2 90  1  0  0  0
  2 91  1  0  0  0
  3  4  1  0  0  0
  3 92  1  0  0  0
  3 93  1  0  0  0
  4  5  1  0  0  0
  4 94  1  0  0  0
  4 95  1  0  0  0
  5  6  1  0  0  0
  5 26  1  0  0  0
  5 96  1  0  0  0
  6 25  1  0  0  0
  6 97  1  0  0  0
  6 98  1  0  0  0
  7  8  2  0  0  0
  7 26  1  0  0  0
  7 29  1  0  0  0
  8  9  1  0  0  0
  8 22  1  0  0  0
  9 10  1  0  0  0
  9 27  2  0  0  0
 10 11  2  0  0  0
 10 15  1  0  0  0
 11 12  1  0  0  0
 11 99  1  0  0  0
 12 13  2  0  0  0
 12100  1  0  0  0
 13 14  1  0  0  0
 13 31  1  0  0  0
 14 15  2  0  0  0
 14101  1  0  0  0
 15102  1  0  0  0
 16 17  2  0  0  0
 16 21  1  0  0  0
 16 31  1  0  0  0
 17 18  1  0  0  0
 17103  1  0  0  0
 18 19  2  0  0  0
 18104  1  0  0  0
 19 20  1  0  0  0
 19 24  1  0  0  0
 20 21  2  0  0  0
 20105  1  0  0  0
 21 23  1  0  0  0
 22 28  1  0  0  0
 22 32  2  0  0  0
 26 27  1  0  0  0
 28106  1  0  0  0
 28107  1  0  0  0
 29108  1  0  0  0
 29109  1  0  0  0
 33 34  1  0  0  0
 33 66  1  0  0  0
 33 70  2  0  0  0
 34 36  1  0  0  0
 34 59  1  0  0  0
 34110  1  0  0  0
 35 44  2  0  0  0
 35 45  1  0  0  0
 35 68  1  0  0  0
 36 56  1  0  0  0
 36111  1  0  0  0
 37 39  1  0  0  0
 37 47  1  0  0  0
 37 66  1  0  0  0
 37112  1  0  0  0
 38 43  2  0  0  0
 38 46  1  0  0  0
 38 47  1  0  0  0
 39 64  1  0  0  0
 39 67  2  0  0  0
 40 52  1  0  0  0
 40 53  2  0  0  0
 40 58  1  0  0  0
 41113  1  0  0  0
 41114  1  0  0  0
 41115  1  0  0  0
 41 48  1  0  0  0
 42 43  1  0  0  0
 42 66  1  0  0  0
 42116  1  0  0  0
 42117  1  0  0  0
 43 44  1  0  0  0
 44118  1  0  0  0
 45 46  2  0  0  0
 45119  1  0  0  0
 46120  1  0  0  0
 47121  1  0  0  0
 47122  1  0  0  0
 48 56  1  0  0  0
 48 65  1  0  0  0
 48123  1  0  0  0
 49 50  1  0  0  0
 49 53  1  0  0  0
 49 64  1  0  0  0
 49124  1  0  0  0
 50 51  1  0  0  0
 50125  1  0  0  0
 50126  1  0  0  0
 51 52  1  0  0  0
 51127  1  0  0  0
 51128  1  0  0  0
 52129  1  0  0  0
 52130  1  0  0  0
 53 54  1  0  0  0
 54 55  2  0  0  0
 54131  1  0  0  0
 55 57  1  0  0  0
 55132  1  0  0  0
 56 69  2  0  0  0
 57 58  2  0  0  0
 57133  1  0  0  0
 58134  1  0  0  0
 59 60  1  0  0  0
 59 61  1  0  0  0
 59 62  1  0  0  0
 60135  1  0  0  0
 60136  1  0  0  0
 60137  1  0  0  0
 61138  1  0  0  0
 61139  1  0  0  0
 61140  1  0  0  0
 62141  1  0  0  0
 62142  1  0  0  0
 62143  1  0  0  0
 63 65  1  0  0  0
 63144  1  0  0  0
 63145  1  0  0  0
 63146  1  0  0  0
 64147  1  0  0  0
 65148  1  0  0  0
 68 86  1  0  0  0
 71 72  1  0  0  0
 71 73  2  0  0  0
 71 75  1  0  0  0
 72 74  2  0  0  0
 72 79  1  0  0  0
 73 76  1  0  0  0
 73 88  1  0  0  0
 74 80  1  0  0  0
 74 88  1  0  0  0
 75149  1  0  0  0
 75150  1  0  0  0
 75151  1  0  0  0
 76152  1  0  0  0
 76153  1  0  0  0
 76154  1  0  0  0
 77155  1  0  0  0
 77156  1  0  0  0
 77157  1  0  0  0
 77 87  1  0  0  0
 78 87  1  0  0  0
 78158  1  0  0  0
 78159  1  0  0  0
 78160  1  0  0  0
 79 85  1  0  0  0
 79161  1  0  0  0
 79162  1  0  0  0
 80 81  1  0  0  0
 80163  1  0  0  0
 80164  1  0  0  0
 81 82  1  0  0  0
 81165  1  0  0  0
 81166  1  0  0  0
 82 86  1  0  0  0
 82167  1  0  0  0
 82168  1  0  0  0
 83 84  1  0  0  0
 83 87  1  0  0  0
 83169  1  0  0  0
 83170  1  0  0  0
 84 88  1  0  0  0
 84171  1  0  0  0
 84172  1  0  0  0
 85 89  1  0  0  0
 85173  1  0  0  0
 85174  1  0  0  0
 86175  1  0  0  0
 86176  1  0  0  0
 87177  1  0  0  0
 89178  1  0  0  0
M  ISO  4   1 100  68 101  86 101  89 100
M  END
> <chiral flag>
0

> <version>
0

> <s_m_source_file>
/data/baiqing/PycharmProjects/Reinvent-master-3.2/result/LINK_invent/BTK/process_docking_weight1_custom_sum_contain_oxygen_bond_distance_aromatic_linkinvent_7_9_3/rearranged_h_0094.sdf

> <i_m_source_file_index>
87

> <r_mmod_Potential_Energy-OPLS-2005>
72.9185256958008

> <r_mmod_Stretch_Energy-OPLS-2005>
58.4853935241699

> <r_mmod_Bend_Energy-OPLS-2005>
128.929565429688

> <r_mmod_Torsional_Energy-OPLS-2005>
355.56396484375

> <r_mmod_Improper_Torsional_Energy-OPLS-2005>
11.2370290756226

> <r_mmod_Van_der_Waal_Energy-OPLS-2005>
124.41983795166

> <r_mmod_Electrostatic_Energy-OPLS-2005>
-429.528594970703

> <r_mmod_Solvation_Energy-OPLS-2005>
-204.613327026367

> <b_mmod_Minimization_Converged-OPLS-2005>
0

> <r_mmod_RMS_Derivative-OPLS-2005>
3.78180575370789

$$$$
89
                    3D
 Structure written by MMmdl.
186194  0  0  1  0            999 V2000
  -30.7253  -14.4951   20.5771 C   0  0  0  0  0  0
  -30.4172  -12.3281   19.4303 C   0  0  0  0  0  0
  -29.4932  -12.5059   18.2091 C   0  0  0  0  0  0
  -28.0163  -12.3632   18.6238 C   0  0  0  0  0  0
  -27.6571  -13.2174   19.8694 C   0  0  2  0  0  0
  -28.7004  -13.0354   20.9950 C   0  0  0  0  0  0
  -25.2574  -13.8189   20.5690 C   0  0  0  0  0  0
  -24.1836  -13.0450   20.9182 C   0  0  0  0  0  0
  -24.6400  -11.6920   20.8736 C   0  0  0  0  0  0
  -23.9069  -10.4298   21.0401 C   0  0  0  0  0  0
  -24.3618   -9.4213   21.9182 C   0  0  0  0  0  0
  -23.6294   -8.2250   22.0754 C   0  0  0  0  0  0
  -22.4277   -8.0284   21.3543 C   0  0  0  0  0  0
  -21.9912   -9.0257   20.4646 C   0  0  0  0  0  0
  -22.7240  -10.2137   20.3054 C   0  0  0  0  0  0
  -21.6853   -6.0738   22.5277 C   0  0  0  0  0  0
  -21.4012   -6.5640   23.8212 C   0  0  0  0  0  0
  -21.3660   -5.6792   24.9172 C   0  0  0  0  0  0
  -21.6045   -4.3057   24.7223 C   0  0  0  0  0  0
  -21.8820   -3.8148   23.4344 C   0  0  0  0  0  0
  -21.9193   -4.6965   22.3399 C   0  0  0  0  0  0
  -22.7858  -13.5241   21.1844 C   0  0  0  0  0  0
  -22.1663   -4.2153   21.0980 F   0  0  0  0  0  0
  -21.5628   -3.4539   25.7736 F   0  0  0  0  0  0
  -30.0275  -13.3331   20.4350 N   0  0  0  0  0  0
  -26.3010  -12.9375   20.3349 N   0  0  0  0  0  0
  -25.9332  -11.6522   20.5770 N   0  0  0  0  0  0
  -22.0494  -12.8232   22.0395 N   0  0  0  0  0  0
  -25.4299  -15.1908   20.4109 N   0  0  0  0  0  0
  -31.8548  -14.6423   20.1047 O   0  0  0  0  0  0
  -21.6643   -6.8884   21.4241 O   0  0  0  0  0  0
  -22.3547  -14.5546   20.6692 O   0  0  0  0  0  0
  -24.6182  -31.8670   23.2088 C   0  0  0  0  0  0
  -25.9059  -32.4815   23.8402 C   0  0  1  0  0  0
  -27.2204  -27.3882   20.0956 C   0  0  0  0  0  0
  -25.5914  -33.8617   24.2325 N   0  0  0  0  0  0
  -23.4075  -30.4934   21.5520 C   0  0  2  0  0  0
  -24.8504  -28.9641   20.1105 C   0  0  0  0  0  0
  -22.7440  -29.4650   22.4974 C   0  0  0  0  0  0
  -18.0279  -28.1366   22.8492 C   0  0  0  0  0  0
  -24.1483  -36.7310   23.2636 C   0  0  0  0  0  0
  -25.9429  -30.8177   21.3712 C   0  0  0  0  0  0
  -26.0163  -29.4510   20.7146 C   0  0  0  0  0  0
  -27.2022  -28.6713   20.7046 C   0  0  0  0  0  0
  -26.0289  -26.9436   19.4671 C   0  0  0  0  0  0
  -24.8548  -27.7126   19.4817 C   0  0  0  0  0  0
  -23.6167  -29.8360   20.1636 C   0  0  0  0  0  0
  -25.4101  -36.3103   24.0334 C   0  0  1  0  0  0
  -20.5867  -28.3664   23.1295 C   0  0  2  0  0  0
  -20.6764  -26.9394   22.5407 C   0  0  0  0  0  0
  -19.5744  -26.6371   21.5205 C   0  0  0  0  0  0
  -18.1926  -26.7912   22.1617 C   0  0  0  0  0  0
  -19.1529  -28.8833   23.2895 C   0  0  0  0  0  0
  -18.9460  -30.1438   23.8903 C   0  0  0  0  0  0
  -17.6466  -30.6577   24.0563 C   0  0  0  0  0  0
  -25.9039  -34.9468   23.5125 C   0  0  0  0  0  0
  -16.5357  -29.9079   23.6326 C   0  0  0  0  0  0
  -16.7271  -28.6493   23.0350 C   0  0  0  0  0  0
  -26.4473  -31.6600   25.0743 C   0  0  0  0  0  0
  -25.3732  -31.3720   26.1492 C   0  0  0  0  0  0
  -27.0304  -30.3033   24.6139 C   0  0  0  0  0  0
  -27.6042  -32.4331   25.7503 C   0  0  0  0  0  0
  -27.5575  -37.1807   24.8467 C   0  0  0  0  0  0
  -21.4159  -29.3038   22.3714 N   0  0  0  0  0  0
  -26.4288  -37.3784   23.9412 N   0  0  0  0  0  0
  -24.6745  -31.0743   22.1014 N   0  0  0  0  0  0
  -23.4205  -28.8176   23.3007 O   0  0  0  0  0  0
  -28.3647  -26.5935   20.1438 O   0  0  0  0  0  0
  -26.5604  -34.8920   22.4687 O   0  0  0  0  0  0
  -23.5361  -32.1448   23.7457 O   0  0  0  0  0  0
  -28.4771  -22.5562   18.3043 C   0  0  0  0  0  0
  -29.6579  -21.6058   20.1770 C   0  0  0  0  0  0
  -29.1331  -22.7569   19.5312 C   0  0  0  0  0  0
  -28.3395  -21.2827   17.7187 C   0  0  0  0  0  0
  -29.5499  -20.2959   19.6163 C   0  0  0  0  0  0
  -28.8525  -20.1181   18.3733 C   0  0  0  0  0  0
  -28.0426  -21.8274   13.8580 C   0  0  0  0  0  0
  -30.7294  -24.7181   19.6108 C   0  0  0  0  0  0
  -29.5019  -18.5283   16.4315 C   0  0  0  0  0  0
  -27.2681  -18.1786   17.6759 C   0  0  0  0  0  0
  -28.2961  -17.7738   21.0122 C   0  0  0  0  0  0
  -27.6959  -21.2948   16.3338 C   0  0  0  0  0  0
  -30.3872  -19.1608   20.2719 C   0  0  0  0  0  0
  -28.6379  -21.8852   15.2688 C   0  0  0  0  0  0
  -30.6963  -16.8687   21.4088 C   0  0  0  0  0  0
  -29.8064  -18.9138   22.6917 C   0  0  0  0  0  0
  -28.2282  -25.2148   19.7051 C   0  0  0  0  0  0
  -29.3609  -24.1974   20.0730 C   0  0  1  0  0  0
  -28.7173  -18.7092   17.7431 C   0  0  0  0  0  0
  -29.7645  -18.1525   21.3277 C   0  0  2  0  0  0
  -30.0884  -15.5335   21.1649 N   0  0  0  0  0  0
  -29.2482  -18.1662   23.8368 N   0  3  0  0  0  0
  -31.4621  -12.4166   19.1273 H   0  0  0  0  0  0
  -30.3152  -11.3245   19.8469 H   0  0  0  0  0  0
  -29.7375  -11.7705   17.4415 H   0  0  0  0  0  0
  -29.6572  -13.4859   17.7589 H   0  0  0  0  0  0
  -27.8337  -11.3089   18.8335 H   0  0  0  0  0  0
  -27.3638  -12.6226   17.7892 H   0  0  0  0  0  0
  -27.6911  -14.2603   19.5533 H   0  0  0  0  0  0
  -28.6834  -12.0105   21.3691 H   0  0  0  0  0  0
  -28.4613  -13.6660   21.8521 H   0  0  0  0  0  0
  -25.2761   -9.5693   22.4756 H   0  0  0  0  0  0
  -24.0003   -7.4644   22.7473 H   0  0  0  0  0  0
  -21.0842   -8.8774   19.8953 H   0  0  0  0  0  0
  -22.3694  -10.9674   19.6164 H   0  0  0  0  0  0
  -21.2003   -7.6148   23.9715 H   0  0  0  0  0  0
  -21.1479   -6.0523   25.9078 H   0  0  0  0  0  0
  -22.0599   -2.7611   23.2842 H   0  0  0  0  0  0
  -22.4106  -11.9891   22.4780 H   0  0  0  0  0  0
  -21.1111  -13.1258   22.2587 H   0  0  0  0  0  0
  -24.6602  -15.8433   20.5108 H   0  0  0  0  0  0
  -26.2779  -15.6259   20.0732 H   0  0  0  0  0  0
  -26.7125  -32.5524   23.1154 H   0  0  0  0  0  0
  -25.0081  -33.9793   25.0483 H   0  0  0  0  0  0
  -22.6971  -31.3116   21.4157 H   0  0  0  0  0  0
  -23.3749  -35.9645   23.3310 H   0  0  0  0  0  0
  -24.3581  -36.8918   22.2051 H   0  0  0  0  0  0
  -23.7233  -37.6516   23.6650 H   0  0  0  0  0  0
  -26.0646  -31.5832   20.6037 H   0  0  0  0  0  0
  -26.8271  -30.8653   21.9956 H   0  0  0  0  0  0
  -28.0990  -29.0405   21.1826 H   0  0  0  0  0  0
  -25.9645  -25.9959   18.9552 H   0  0  0  0  0  0
  -23.9615  -27.3372   19.0013 H   0  0  0  0  0  0
  -23.7304  -30.6174   19.4108 H   0  0  0  0  0  0
  -22.7378  -29.2631   19.8619 H   0  0  0  0  0  0
  -25.1268  -36.1969   25.0825 H   0  0  0  0  0  0
  -20.9966  -28.3227   24.1407 H   0  0  0  0  0  0
  -20.5647  -26.2276   23.3604 H   0  0  0  0  0  0
  -21.6638  -26.7411   22.1210 H   0  0  0  0  0  0
  -19.6909  -25.6284   21.1234 H   0  0  0  0  0  0
  -19.6678  -27.3185   20.6740 H   0  0  0  0  0  0
  -17.4189  -26.6667   21.4023 H   0  0  0  0  0  0
  -18.0324  -26.0041   22.8994 H   0  0  0  0  0  0
  -19.7944  -30.7252   24.2265 H   0  0  0  0  0  0
  -17.5026  -31.6255   24.5169 H   0  0  0  0  0  0
  -15.5361  -30.2990   23.7632 H   0  0  0  0  0  0
  -15.8667  -28.0817   22.7051 H   0  0  0  0  0  0
  -24.5914  -30.7042   25.7843 H   0  0  0  0  0  0
  -24.8915  -32.2883   26.4923 H   0  0  0  0  0  0
  -25.8081  -30.8915   27.0267 H   0  0  0  0  0  0
  -26.2854  -29.6813   24.1160 H   0  0  0  0  0  0
  -27.4026  -29.7242   25.4607 H   0  0  0  0  0  0
  -27.8709  -30.4342   23.9319 H   0  0  0  0  0  0
  -27.2652  -33.3633   26.2077 H   0  0  0  0  0  0
  -28.3844  -32.6897   25.0321 H   0  0  0  0  0  0
  -28.0724  -31.8474   26.5427 H   0  0  0  0  0  0
  -28.2582  -38.0109   24.7511 H   0  0  0  0  0  0
  -28.1072  -36.2640   24.6281 H   0  0  0  0  0  0
  -27.2313  -37.1447   25.8876 H   0  0  0  0  0  0
  -20.9318  -29.8798   21.6966 H   0  0  0  0  0  0
  -26.0181  -38.2859   24.1428 H   0  0  0  0  0  0
  -28.1013  -23.3975   17.7446 H   0  0  0  0  0  0
  -30.2192  -21.7428   21.0913 H   0  0  0  0  0  0
  -28.7554  -22.1989   13.1213 H   0  0  0  0  0  0
  -27.1407  -22.4362   13.7857 H   0  0  0  0  0  0
  -27.7816  -20.8058   13.5800 H   0  0  0  0  0  0
  -31.5327  -24.0549   19.9335 H   0  0  0  0  0  0
  -30.9335  -25.7082   20.0205 H   0  0  0  0  0  0
  -30.7776  -24.7939   18.5241 H   0  0  0  0  0  0
  -30.5390  -18.8407   16.5561 H   0  0  0  0  0  0
  -29.0899  -19.0810   15.5917 H   0  0  0  0  0  0
  -29.5135  -17.4792   16.1344 H   0  0  0  0  0  0
  -26.7768  -18.2593   18.6442 H   0  0  0  0  0  0
  -27.2641  -17.1236   17.3998 H   0  0  0  0  0  0
  -26.6239  -18.6817   16.9626 H   0  0  0  0  0  0
  -28.2158  -17.1642   20.1162 H   0  0  0  0  0  0
  -27.6723  -18.6580   20.8769 H   0  0  0  0  0  0
  -27.8411  -17.1830   21.8071 H   0  0  0  0  0  0
  -26.7844  -21.8922   16.3843 H   0  0  0  0  0  0
  -27.3668  -20.3198   16.0057 H   0  0  0  0  0  0
  -31.2600  -19.6352   20.7238 H   0  0  0  0  0  0
  -30.8527  -18.6077   19.4574 H   0  0  0  0  0  0
  -28.8794  -22.9201   15.5131 H   0  0  0  0  0  0
  -29.5845  -21.3444   15.2799 H   0  0  0  0  0  0
  -31.1739  -16.8092   22.3875 H   0  0  0  0  0  0
  -31.5460  -17.0002   20.7372 H   0  0  0  0  0  0
  -29.2578  -19.8542   22.6108 H   0  0  0  0  0  0
  -30.8334  -19.1853   22.9431 H   0  0  0  0  0  0
  -27.3127  -24.7854   20.1151 H   0  0  0  0  0  0
  -28.1178  -25.2736   18.6235 H   0  0  0  0  0  0
  -29.3838  -24.1248   21.1618 H   0  0  0  0  0  0
  -29.1947  -17.9898   18.3946 H   0  0  0  0  0  0
  -29.1446  -15.3709   21.4806 H   0  0  0  0  0  0
  -28.2671  -17.9920   23.7120 H   0  0  0  0  0  0
  -29.3570  -18.7098   24.6754 H   0  0  0  0  0  0
  -29.7216  -17.2926   23.9779 H   0  0  0  0  0  0
  1 25  1  0  0  0
  1 30  2  0  0  0
  1 91  1  0  0  0
  2  3  1  0  0  0
  2 25  1  0  0  0
  2 93  1  0  0  0
  2 94  1  0  0  0
  3  4  1  0  0  0
  3 95  1  0  0  0
  3 96  1  0  0  0
  4  5  1  0  0  0
  4 97  1  0  0  0
  4 98  1  0  0  0
  5  6  1  0  0  0
  5 26  1  0  0  0
  5 99  1  0  0  0
  6 25  1  0  0  0
  6100  1  0  0  0
  6101  1  0  0  0
  7  8  2  0  0  0
  7 26  1  0  0  0
  7 29  1  0  0  0
  8  9  1  0  0  0
  8 22  1  0  0  0
  9 10  1  0  0  0
  9 27  2  0  0  0
 10 11  2  0  0  0
 10 15  1  0  0  0
 11 12  1  0  0  0
 11102  1  0  0  0
 12 13  2  0  0  0
 12103  1  0  0  0
 13 14  1  0  0  0
 13 31  1  0  0  0
 14 15  2  0  0  0
 14104  1  0  0  0
 15105  1  0  0  0
 16 17  2  0  0  0
 16 21  1  0  0  0
 16 31  1  0  0  0
 17 18  1  0  0  0
 17106  1  0  0  0
 18 19  2  0  0  0
 18107  1  0  0  0
 19 20  1  0  0  0
 19 24  1  0  0  0
 20 21  2  0  0  0
 20108  1  0  0  0
 21 23  1  0  0  0
 22 28  1  0  0  0
 22 32  2  0  0  0
 26 27  1  0  0  0
 28109  1  0  0  0
 28110  1  0  0  0
 29111  1  0  0  0
 29112  1  0  0  0
 33 34  1  0  0  0
 33 66  1  0  0  0
 33 70  2  0  0  0
 34 36  1  0  0  0
 34 59  1  0  0  0
 34113  1  0  0  0
 35 44  2  0  0  0
 35 45  1  0  0  0
 35 68  1  0  0  0
 36 56  1  0  0  0
 36114  1  0  0  0
 37 39  1  0  0  0
 37 47  1  0  0  0
 37 66  1  0  0  0
 37115  1  0  0  0
 38 43  2  0  0  0
 38 46  1  0  0  0
 38 47  1  0  0  0
 39 64  1  0  0  0
 39 67  2  0  0  0
 40 52  1  0  0  0
 40 53  2  0  0  0
 40 58  1  0  0  0
 41116  1  0  0  0
 41117  1  0  0  0
 41118  1  0  0  0
 41 48  1  0  0  0
 42 43  1  0  0  0
 42 66  1  0  0  0
 42119  1  0  0  0
 42120  1  0  0  0
 43 44  1  0  0  0
 44121  1  0  0  0
 45 46  2  0  0  0
 45122  1  0  0  0
 46123  1  0  0  0
 47124  1  0  0  0
 47125  1  0  0  0
 48 56  1  0  0  0
 48 65  1  0  0  0
 48126  1  0  0  0
 49 50  1  0  0  0
 49 53  1  0  0  0
 49 64  1  0  0  0
 49127  1  0  0  0
 50 51  1  0  0  0
 50128  1  0  0  0
 50129  1  0  0  0
 51 52  1  0  0  0
 51130  1  0  0  0
 51131  1  0  0  0
 52132  1  0  0  0
 52133  1  0  0  0
 53 54  1  0  0  0
 54 55  2  0  0  0
 54134  1  0  0  0
 55 57  1  0  0  0
 55135  1  0  0  0
 56 69  2  0  0  0
 57 58  2  0  0  0
 57136  1  0  0  0
 58137  1  0  0  0
 59 60  1  0  0  0
 59 61  1  0  0  0
 59 62  1  0  0  0
 60138  1  0  0  0
 60139  1  0  0  0
 60140  1  0  0  0
 61141  1  0  0  0
 61142  1  0  0  0
 61143  1  0  0  0
 62144  1  0  0  0
 62145  1  0  0  0
 62146  1  0  0  0
 63 65  1  0  0  0
 63147  1  0  0  0
 63148  1  0  0  0
 63149  1  0  0  0
 64150  1  0  0  0
 65151  1  0  0  0
 68 87  1  0  0  0
 71 73  2  0  0  0
 71 74  1  0  0  0
 71152  1  0  0  0
 72 73  1  0  0  0
 72 75  2  0  0  0
 72153  1  0  0  0
 73 88  1  0  0  0
 74 76  2  0  0  0
 74 82  1  0  0  0
 75 76  1  0  0  0
 75 83  1  0  0  0
 76 89  1  0  0  0
 77 84  1  0  0  0
 77154  1  0  0  0
 77155  1  0  0  0
 77156  1  0  0  0
 78157  1  0  0  0
 78158  1  0  0  0
 78159  1  0  0  0
 78 88  1  0  0  0
 79160  1  0  0  0
 79161  1  0  0  0
 79162  1  0  0  0
 79 89  1  0  0  0
 80 89  1  0  0  0
 80163  1  0  0  0
 80164  1  0  0  0
 80165  1  0  0  0
 81166  1  0  0  0
 81167  1  0  0  0
 81168  1  0  0  0
 81 90  1  0  0  0
 82 84  1  0  0  0
 82169  1  0  0  0
 82170  1  0  0  0
 83 90  1  0  0  0
 83171  1  0  0  0
 83172  1  0  0  0
 84173  1  0  0  0
 84174  1  0  0  0
 85 90  1  0  0  0
 85 91  1  0  0  0
 85175  1  0  0  0
 85176  1  0  0  0
 86 90  1  0  0  0
 86 92  1  0  0  0
 86177  1  0  0  0
 86178  1  0  0  0
 87 88  1  0  0  0
 87179  1  0  0  0
 87180  1  0  0  0
 88181  1  0  0  0
 89182  1  0  0  0
 91183  1  0  0  0
 92184  1  0  0  0
 92185  1  0  0  0
 92186  1  0  0  0
M  CHG  1  92   1
M  ISO  4   1 100  68 101  87 101  91 100
M  END
> <chiral flag>
0

> <version>
0

> <s_m_source_file>
/data/baiqing/PycharmProjects/Reinvent-master-3.2/result/LINK_invent/BTK/process_docking_weight1_custom_sum_contain_oxygen_bond_distance_aromatic_linkinvent_7_9_3/rearranged_h_0094.sdf

> <i_m_source_file_index>
88

> <r_mmod_Potential_Energy-OPLS-2005>
-211.738021850586

> <r_mmod_Stretch_Energy-OPLS-2005>
64.6897277832031

> <r_mmod_Bend_Energy-OPLS-2005>
145.695388793945

> <r_mmod_Torsional_Energy-OPLS-2005>
243.782669067383

> <r_mmod_Improper_Torsional_Energy-OPLS-2005>
3.99783325195312

> <r_mmod_Van_der_Waal_Energy-OPLS-2005>
169.8193359375

> <r_mmod_Electrostatic_Energy-OPLS-2005>
-360.904388427734

> <r_mmod_Solvation_Energy-OPLS-2005>
-499.618865966797

> <b_mmod_Minimization_Converged-OPLS-2005>
0

> <r_mmod_RMS_Derivative-OPLS-2005>
1.22674870491028

$$$$
90
                    3D
 Structure written by MMmdl.
169177  0  0  1  0            999 V2000
  -30.7150  -14.4614   20.5661 C   0  0  0  0  0  0
  -30.4211  -12.3007   19.4144 C   0  0  0  0  0  0
  -29.4898  -12.4953   18.1995 C   0  0  0  0  0  0
  -28.0130  -12.3599   18.6190 C   0  0  0  0  0  0
  -27.6646  -13.2066   19.8775 C   0  0  2  0  0  0
  -28.7122  -12.9778   20.9931 C   0  0  0  0  0  0
  -25.2565  -13.8168   20.5674 C   0  0  0  0  0  0
  -24.1875  -13.0443   20.9224 C   0  0  0  0  0  0
  -24.6456  -11.6887   20.8810 C   0  0  0  0  0  0
  -23.9144  -10.4267   21.0422 C   0  0  0  0  0  0
  -24.3664   -9.4173   21.9211 C   0  0  0  0  0  0
  -23.6307   -8.2225   22.0769 C   0  0  0  0  0  0
  -22.4285   -8.0293   21.3559 C   0  0  0  0  0  0
  -21.9959   -9.0280   20.4658 C   0  0  0  0  0  0
  -22.7318  -10.2139   20.3062 C   0  0  0  0  0  0
  -21.6828   -6.0750   22.5298 C   0  0  0  0  0  0
  -21.3988   -6.5640   23.8238 C   0  0  0  0  0  0
  -21.3664   -5.6795   24.9198 C   0  0  0  0  0  0
  -21.6036   -4.3051   24.7238 C   0  0  0  0  0  0
  -21.8816   -3.8160   23.4351 C   0  0  0  0  0  0
  -21.9169   -4.6980   22.3418 C   0  0  0  0  0  0
  -22.7859  -13.5190   21.1822 C   0  0  0  0  0  0
  -22.1634   -4.2182   21.0981 F   0  0  0  0  0  0
  -21.5655   -3.4518   25.7749 F   0  0  0  0  0  0
  -30.0406  -13.2858   20.4366 N   0  0  0  0  0  0
  -26.3041  -12.9368   20.3396 N   0  0  0  0  0  0
  -25.9380  -11.6513   20.5852 N   0  0  0  0  0  0
  -22.0486  -12.8217   22.0359 N   0  0  0  0  0  0
  -25.4224  -15.1898   20.3994 N   0  0  0  0  0  0
  -31.8203  -14.6595   20.0573 O   0  0  0  0  0  0
  -21.6642   -6.8889   21.4255 O   0  0  0  0  0  0
  -22.3558  -14.5493   20.6630 O   0  0  0  0  0  0
  -24.6249  -31.8620   23.2092 C   0  0  0  0  0  0
  -25.9132  -32.4773   23.8375 C   0  0  1  0  0  0
  -27.2175  -27.3563   20.0998 C   0  0  0  0  0  0
  -25.6015  -33.8584   24.2310 N   0  0  0  0  0  0
  -23.4101  -30.4874   21.5556 C   0  0  2  0  0  0
  -24.8527  -28.9575   20.1020 C   0  0  0  0  0  0
  -22.7462  -29.4589   22.5007 C   0  0  0  0  0  0
  -18.0301  -28.1370   22.8456 C   0  0  0  0  0  0
  -24.1511  -36.7279   23.2628 C   0  0  0  0  0  0
  -25.9485  -30.8023   21.3713 C   0  0  0  0  0  0
  -26.0199  -29.4365   20.7103 C   0  0  0  0  0  0
  -27.1997  -28.6438   20.7072 C   0  0  0  0  0  0
  -26.0347  -26.9392   19.4371 C   0  0  0  0  0  0
  -24.8623  -27.7143   19.4566 C   0  0  0  0  0  0
  -23.6157  -29.8279   20.1675 C   0  0  0  0  0  0
  -25.4142  -36.3060   24.0294 C   0  0  1  0  0  0
  -20.5897  -28.3636   23.1323 C   0  0  2  0  0  0
  -20.6786  -26.9364   22.5423 C   0  0  0  0  0  0
  -19.5761  -26.6368   21.5212 C   0  0  0  0  0  0
  -18.1935  -26.7923   22.1601 C   0  0  0  0  0  0
  -19.1547  -28.8832   23.2865 C   0  0  0  0  0  0
  -18.9455  -30.1468   23.8825 C   0  0  0  0  0  0
  -17.6436  -30.6546   24.0563 C   0  0  0  0  0  0
  -25.9067  -34.9437   23.5064 C   0  0  0  0  0  0
  -16.5340  -29.9002   23.6382 C   0  0  0  0  0  0
  -16.7287  -28.6476   23.0307 C   0  0  0  0  0  0
  -26.4576  -31.6557   25.0707 C   0  0  0  0  0  0
  -25.3835  -31.3601   26.1429 C   0  0  0  0  0  0
  -27.0436  -30.2992   24.6136 C   0  0  0  0  0  0
  -27.6203  -32.4266   25.7408 C   0  0  0  0  0  0
  -27.5570  -37.1775   24.8464 C   0  0  0  0  0  0
  -21.4186  -29.2970   22.3728 N   0  0  0  0  0  0
  -26.4312  -37.3759   23.9385 N   0  0  0  0  0  0
  -24.6807  -31.0663   22.1027 N   0  0  0  0  0  0
  -23.4217  -28.8127   23.3060 O   0  0  0  0  0  0
  -28.3478  -26.5358   20.1777 O   0  0  0  0  0  0
  -26.5603  -34.8883   22.4598 O   0  0  0  0  0  0
  -23.5441  -32.1441   23.7448 O   0  0  0  0  0  0
  -29.1252  -20.1514   20.5873 C   0  0  0  0  0  0
  -30.0132  -19.2422   20.0695 C   0  0  0  0  0  0
  -31.0350  -20.0190   19.4073 C   0  0  0  0  0  0
  -30.5478  -21.3214   19.3234 C   0  0  0  0  0  0
  -31.1525  -22.2216   16.9832 C   0  0  0  0  0  0
  -32.7712  -18.0753   19.0667 C   0  0  0  0  0  0
  -33.5564  -20.3896   19.1884 C   0  0  0  0  0  0
  -29.8012  -17.7132   20.0997 C   0  0  0  0  0  0
  -31.0191  -22.4982   18.4895 C   0  0  0  0  0  0
  -29.0226  -24.0424   20.6340 C   0  0  0  0  0  0
  -28.4917  -22.5830   20.3463 C   0  0  0  0  0  0
  -30.4212  -16.8787   21.2599 C   0  0  0  0  0  0
  -28.1892  -25.1160   19.8543 C   0  0  0  0  0  0
  -32.3559  -19.5229   18.7728 C   0  0  0  0  0  0
  -29.4179  -21.4339   20.1380 N   0  0  0  0  0  0
  -30.0441  -15.4523   21.1832 N   0  0  0  0  0  0
  -31.4641  -12.3878   19.1104 H   0  0  0  0  0  0
  -30.3182  -11.2951   19.8216 H   0  0  0  0  0  0
  -29.7283  -11.7599   17.4285 H   0  0  0  0  0  0
  -29.6591  -13.4748   17.7496 H   0  0  0  0  0  0
  -27.8246  -11.3063   18.8283 H   0  0  0  0  0  0
  -27.3625  -12.6183   17.7832 H   0  0  0  0  0  0
  -27.7114  -14.2585   19.5897 H   0  0  0  0  0  0
  -28.6896  -11.9349   21.3134 H   0  0  0  0  0  0
  -28.4861  -13.5548   21.8906 H   0  0  0  0  0  0
  -25.2808   -9.5620   22.4805 H   0  0  0  0  0  0
  -23.9991   -7.4598   22.7488 H   0  0  0  0  0  0
  -21.0895   -8.8831   19.8962 H   0  0  0  0  0  0
  -22.3819  -10.9685   19.6167 H   0  0  0  0  0  0
  -21.1973   -7.6143   23.9752 H   0  0  0  0  0  0
  -21.1491   -6.0521   25.9107 H   0  0  0  0  0  0
  -22.0597   -2.7615   23.2856 H   0  0  0  0  0  0
  -22.4064  -11.9878   22.4788 H   0  0  0  0  0  0
  -21.1119  -13.1294   22.2531 H   0  0  0  0  0  0
  -24.6512  -15.8394   20.5106 H   0  0  0  0  0  0
  -26.2596  -15.6275   20.0365 H   0  0  0  0  0  0
  -26.7166  -32.5471   23.1107 H   0  0  0  0  0  0
  -25.0256  -33.9793   25.0506 H   0  0  0  0  0  0
  -22.6993  -31.3066   21.4239 H   0  0  0  0  0  0
  -23.3753  -35.9618   23.3310 H   0  0  0  0  0  0
  -24.3588  -36.8915   22.2036 H   0  0  0  0  0  0
  -23.7295  -37.6489   23.6660 H   0  0  0  0  0  0
  -26.0814  -31.5690   20.6066 H   0  0  0  0  0  0
  -26.8296  -30.8454   21.9973 H   0  0  0  0  0  0
  -28.0938  -29.0029   21.1959 H   0  0  0  0  0  0
  -25.9754  -26.0111   18.8876 H   0  0  0  0  0  0
  -23.9734  -27.3519   18.9597 H   0  0  0  0  0  0
  -23.7041  -30.6079   19.4118 H   0  0  0  0  0  0
  -22.7395  -29.2414   19.8831 H   0  0  0  0  0  0
  -25.1309  -36.1899   25.0778 H   0  0  0  0  0  0
  -20.9976  -28.3195   24.1443 H   0  0  0  0  0  0
  -20.5734  -26.2200   23.3591 H   0  0  0  0  0  0
  -21.6644  -26.7411   22.1171 H   0  0  0  0  0  0
  -19.6916  -25.6288   21.1200 H   0  0  0  0  0  0
  -19.6744  -27.3218   20.6779 H   0  0  0  0  0  0
  -17.4230  -26.6716   21.3966 H   0  0  0  0  0  0
  -18.0282  -26.0054   22.8983 H   0  0  0  0  0  0
  -19.7913  -30.7342   24.2086 H   0  0  0  0  0  0
  -17.4962  -31.6215   24.5179 H   0  0  0  0  0  0
  -15.5323  -30.2827   23.7764 H   0  0  0  0  0  0
  -15.8707  -28.0787   22.6950 H   0  0  0  0  0  0
  -24.6053  -30.6944   25.7674 H   0  0  0  0  0  0
  -24.8986  -32.2717   26.4927 H   0  0  0  0  0  0
  -25.8195  -30.8694   27.0143 H   0  0  0  0  0  0
  -26.2963  -29.6646   24.1365 H   0  0  0  0  0  0
  -27.4380  -29.7367   25.4619 H   0  0  0  0  0  0
  -27.8721  -30.4281   23.9162 H   0  0  0  0  0  0
  -27.2908  -33.3598   26.1973 H   0  0  0  0  0  0
  -28.3963  -32.6770   25.0154 H   0  0  0  0  0  0
  -28.0913  -31.8384   26.5300 H   0  0  0  0  0  0
  -28.2588  -38.0078   24.7513 H   0  0  0  0  0  0
  -28.1078  -36.2610   24.6286 H   0  0  0  0  0  0
  -27.2281  -37.1402   25.8872 H   0  0  0  0  0  0
  -20.9359  -29.8631   21.6894 H   0  0  0  0  0  0
  -26.0179  -38.2810   24.1438 H   0  0  0  0  0  0
  -28.2255  -19.9781   21.1637 H   0  0  0  0  0  0
  -31.5003  -23.1090   16.4523 H   0  0  0  0  0  0
  -30.1918  -21.9407   16.5517 H   0  0  0  0  0  0
  -31.8631  -21.4322   16.7567 H   0  0  0  0  0  0
  -32.0811  -17.3372   18.6730 H   0  0  0  0  0  0
  -32.8983  -17.9369   20.1361 H   0  0  0  0  0  0
  -33.7349  -17.8398   18.6083 H   0  0  0  0  0  0
  -33.4919  -21.4069   18.8193 H   0  0  0  0  0  0
  -34.4855  -19.9790   18.7911 H   0  0  0  0  0  0
  -33.6570  -20.4194   20.2735 H   0  0  0  0  0  0
  -30.0777  -17.3062   19.1292 H   0  0  0  0  0  0
  -28.7246  -17.5466   20.1270 H   0  0  0  0  0  0
  -31.9499  -22.9031   18.8860 H   0  0  0  0  0  0
  -30.3088  -23.3176   18.5332 H   0  0  0  0  0  0
  -30.0927  -24.1481   20.4640 H   0  0  0  0  0  0
  -28.9026  -24.2344   21.7020 H   0  0  0  0  0  0
  -27.8160  -22.5907   19.4874 H   0  0  0  0  0  0
  -27.8419  -22.3273   21.1855 H   0  0  0  0  0  0
  -30.0551  -17.2682   22.2084 H   0  0  0  0  0  0
  -31.5038  -16.9521   21.3020 H   0  0  0  0  0  0
  -27.1675  -24.7901   20.0364 H   0  0  0  0  0  0
  -28.3586  -24.9965   18.7830 H   0  0  0  0  0  0
  -32.2411  -19.5766   17.6915 H   0  0  0  0  0  0
  -29.1572  -15.1971   21.5902 H   0  0  0  0  0  0
  1 25  1  0  0  0
  1 30  2  0  0  0
  1 86  1  0  0  0
  2  3  1  0  0  0
  2 25  1  0  0  0
  2 87  1  0  0  0
  2 88  1  0  0  0
  3  4  1  0  0  0
  3 89  1  0  0  0
  3 90  1  0  0  0
  4  5  1  0  0  0
  4 91  1  0  0  0
  4 92  1  0  0  0
  5  6  1  0  0  0
  5 26  1  0  0  0
  5 93  1  0  0  0
  6 25  1  0  0  0
  6 94  1  0  0  0
  6 95  1  0  0  0
  7  8  2  0  0  0
  7 26  1  0  0  0
  7 29  1  0  0  0
  8  9  1  0  0  0
  8 22  1  0  0  0
  9 10  1  0  0  0
  9 27  2  0  0  0
 10 11  2  0  0  0
 10 15  1  0  0  0
 11 12  1  0  0  0
 11 96  1  0  0  0
 12 13  2  0  0  0
 12 97  1  0  0  0
 13 14  1  0  0  0
 13 31  1  0  0  0
 14 15  2  0  0  0
 14 98  1  0  0  0
 15 99  1  0  0  0
 16 17  2  0  0  0
 16 21  1  0  0  0
 16 31  1  0  0  0
 17 18  1  0  0  0
 17100  1  0  0  0
 18 19  2  0  0  0
 18101  1  0  0  0
 19 20  1  0  0  0
 19 24  1  0  0  0
 20 21  2  0  0  0
 20102  1  0  0  0
 21 23  1  0  0  0
 22 28  1  0  0  0
 22 32  2  0  0  0
 26 27  1  0  0  0
 28103  1  0  0  0
 28104  1  0  0  0
 29105  1  0  0  0
 29106  1  0  0  0
 33 34  1  0  0  0
 33 66  1  0  0  0
 33 70  2  0  0  0
 34 36  1  0  0  0
 34 59  1  0  0  0
 34107  1  0  0  0
 35 44  2  0  0  0
 35 45  1  0  0  0
 35 68  1  0  0  0
 36 56  1  0  0  0
 36108  1  0  0  0
 37 39  1  0  0  0
 37 47  1  0  0  0
 37 66  1  0  0  0
 37109  1  0  0  0
 38 43  2  0  0  0
 38 46  1  0  0  0
 38 47  1  0  0  0
 39 64  1  0  0  0
 39 67  2  0  0  0
 40 52  1  0  0  0
 40 53  2  0  0  0
 40 58  1  0  0  0
 41110  1  0  0  0
 41111  1  0  0  0
 41112  1  0  0  0
 41 48  1  0  0  0
 42 43  1  0  0  0
 42 66  1  0  0  0
 42113  1  0  0  0
 42114  1  0  0  0
 43 44  1  0  0  0
 44115  1  0  0  0
 45 46  2  0  0  0
 45116  1  0  0  0
 46117  1  0  0  0
 47118  1  0  0  0
 47119  1  0  0  0
 48 56  1  0  0  0
 48 65  1  0  0  0
 48120  1  0  0  0
 49 50  1  0  0  0
 49 53  1  0  0  0
 49 64  1  0  0  0
 49121  1  0  0  0
 50 51  1  0  0  0
 50122  1  0  0  0
 50123  1  0  0  0
 51 52  1  0  0  0
 51124  1  0  0  0
 51125  1  0  0  0
 52126  1  0  0  0
 52127  1  0  0  0
 53 54  1  0  0  0
 54 55  2  0  0  0
 54128  1  0  0  0
 55 57  1  0  0  0
 55129  1  0  0  0
 56 69  2  0  0  0
 57 58  2  0  0  0
 57130  1  0  0  0
 58131  1  0  0  0
 59 60  1  0  0  0
 59 61  1  0  0  0
 59 62  1  0  0  0
 60132  1  0  0  0
 60133  1  0  0  0
 60134  1  0  0  0
 61135  1  0  0  0
 61136  1  0  0  0
 61137  1  0  0  0
 62138  1  0  0  0
 62139  1  0  0  0
 62140  1  0  0  0
 63 65  1  0  0  0
 63141  1  0  0  0
 63142  1  0  0  0
 63143  1  0  0  0
 64144  1  0  0  0
 65145  1  0  0  0
 68 83  1  0  0  0
 71 72  2  0  0  0
 71 85  1  0  0  0
 71146  1  0  0  0
 72 73  1  0  0  0
 72 78  1  0  0  0
 73 74  2  0  0  0
 73 84  1  0  0  0
 74 79  1  0  0  0
 74 85  1  0  0  0
 75 79  1  0  0  0
 75147  1  0  0  0
 75148  1  0  0  0
 75149  1  0  0  0
 76150  1  0  0  0
 76151  1  0  0  0
 76152  1  0  0  0
 76 84  1  0  0  0
 77 84  1  0  0  0
 77153  1  0  0  0
 77154  1  0  0  0
 77155  1  0  0  0
 78 82  1  0  0  0
 78156  1  0  0  0
 78157  1  0  0  0
 79158  1  0  0  0
 79159  1  0  0  0
 80 81  1  0  0  0
 80 83  1  0  0  0
 80160  1  0  0  0
 80161  1  0  0  0
 81 85  1  0  0  0
 81162  1  0  0  0
 81163  1  0  0  0
 82 86  1  0  0  0
 82164  1  0  0  0
 82165  1  0  0  0
 83166  1  0  0  0
 83167  1  0  0  0
 84168  1  0  0  0
 86169  1  0  0  0
M  ISO  4   1 100  68 101  83 101  86 100
M  END
> <chiral flag>
0

> <version>
0

> <s_m_source_file>
/data/baiqing/PycharmProjects/Reinvent-master-3.2/result/LINK_invent/BTK/process_docking_weight1_custom_sum_contain_oxygen_bond_distance_aromatic_linkinvent_7_9_3/rearranged_h_0094.sdf

> <i_m_source_file_index>
89

> <r_mmod_Potential_Energy-OPLS-2005>
-37.5930404663086

> <r_mmod_Stretch_Energy-OPLS-2005>
57.0722312927246

> <r_mmod_Bend_Energy-OPLS-2005>
143.545959472656

> <r_mmod_Torsional_Energy-OPLS-2005>
232.240081787109

> <r_mmod_Improper_Torsional_Energy-OPLS-2005>
5.85617780685425

> <r_mmod_Van_der_Waal_Energy-OPLS-2005>
145.245849609375

> <r_mmod_Electrostatic_Energy-OPLS-2005>
-434.785186767578

> <r_mmod_Solvation_Energy-OPLS-2005>
-210.075912475586

> <b_mmod_Minimization_Converged-OPLS-2005>
0

> <r_mmod_RMS_Derivative-OPLS-2005>
5.83904218673706

$$$$
91
                    3D
 Structure written by MMmdl.
171179  0  0  1  0            999 V2000
  -30.6689  -14.5491   20.5353 C   0  0  0  0  0  0
  -30.4285  -12.3459   19.4347 C   0  0  0  0  0  0
  -29.4968  -12.4924   18.2124 C   0  0  0  0  0  0
  -28.0196  -12.3440   18.6273 C   0  0  0  0  0  0
  -27.6552  -13.2084   19.8637 C   0  0  2  0  0  0
  -28.6981  -13.0352   20.9901 C   0  0  0  0  0  0
  -25.2571  -13.8158   20.5667 C   0  0  0  0  0  0
  -24.1830  -13.0436   20.9184 C   0  0  0  0  0  0
  -24.6384  -11.6905   20.8744 C   0  0  0  0  0  0
  -23.9052  -10.4293   21.0400 C   0  0  0  0  0  0
  -24.3613   -9.4213   21.9175 C   0  0  0  0  0  0
  -23.6295   -8.2247   22.0748 C   0  0  0  0  0  0
  -22.4273   -8.0282   21.3540 C   0  0  0  0  0  0
  -21.9908   -9.0253   20.4640 C   0  0  0  0  0  0
  -22.7229  -10.2132   20.3048 C   0  0  0  0  0  0
  -21.6854   -6.0737   22.5280 C   0  0  0  0  0  0
  -21.4011   -6.5640   23.8212 C   0  0  0  0  0  0
  -21.3657   -5.6789   24.9177 C   0  0  0  0  0  0
  -21.6046   -4.3053   24.7224 C   0  0  0  0  0  0
  -21.8820   -3.8146   23.4347 C   0  0  0  0  0  0
  -21.9195   -4.6966   22.3402 C   0  0  0  0  0  0
  -22.7857  -13.5238   21.1856 C   0  0  0  0  0  0
  -22.1662   -4.2152   21.0982 F   0  0  0  0  0  0
  -21.5632   -3.4541   25.7740 F   0  0  0  0  0  0
  -30.0198  -13.3537   20.4277 N   0  0  0  0  0  0
  -26.2992  -12.9326   20.3316 N   0  0  0  0  0  0
  -25.9308  -11.6486   20.5760 N   0  0  0  0  0  0
  -22.0510  -12.8220   22.0411 N   0  0  0  0  0  0
  -25.4281  -15.1876   20.4035 N   0  0  0  0  0  0
  -31.8224  -14.7112   20.1295 O   0  0  0  0  0  0
  -21.6636   -6.8878   21.4237 O   0  0  0  0  0  0
  -22.3544  -14.5545   20.6710 O   0  0  0  0  0  0
  -24.6234  -31.8625   23.2060 C   0  0  0  0  0  0
  -25.9101  -32.4780   23.8366 C   0  0  1  0  0  0
  -27.2228  -27.3600   20.0977 C   0  0  0  0  0  0
  -25.5941  -33.8583   24.2292 N   0  0  0  0  0  0
  -23.4128  -30.4876   21.5481 C   0  0  2  0  0  0
  -24.8565  -28.9507   20.1073 C   0  0  0  0  0  0
  -22.7459  -29.4626   22.4946 C   0  0  0  0  0  0
  -18.0282  -28.1377   22.8452 C   0  0  0  0  0  0
  -24.1498  -36.7294   23.2634 C   0  0  0  0  0  0
  -25.9517  -30.8023   21.3741 C   0  0  0  0  0  0
  -26.0233  -29.4353   20.7121 C   0  0  0  0  0  0
  -27.2067  -28.6470   20.7048 C   0  0  0  0  0  0
  -26.0361  -26.9243   19.4615 C   0  0  0  0  0  0
  -24.8619  -27.6979   19.4783 C   0  0  0  0  0  0
  -23.6236  -29.8271   20.1609 C   0  0  0  0  0  0
  -25.4119  -36.3082   24.0332 C   0  0  1  0  0  0
  -20.5877  -28.3673   23.1291 C   0  0  2  0  0  0
  -20.6777  -26.9405   22.5407 C   0  0  0  0  0  0
  -19.5758  -26.6378   21.5202 C   0  0  0  0  0  0
  -18.1932  -26.7914   22.1607 C   0  0  0  0  0  0
  -19.1532  -28.8844   23.2854 C   0  0  0  0  0  0
  -18.9465  -30.1442   23.8874 C   0  0  0  0  0  0
  -17.6468  -30.6576   24.0560 C   0  0  0  0  0  0
  -25.9065  -34.9452   23.5111 C   0  0  0  0  0  0
  -16.5354  -29.9074   23.6335 C   0  0  0  0  0  0
  -16.7270  -28.6502   23.0328 C   0  0  0  0  0  0
  -26.4499  -31.6582   25.0726 C   0  0  0  0  0  0
  -25.3734  -31.3728   26.1449 C   0  0  0  0  0  0
  -27.0334  -30.3010   24.6164 C   0  0  0  0  0  0
  -27.6070  -32.4318   25.7481 C   0  0  0  0  0  0
  -27.5582  -37.1793   24.8464 C   0  0  0  0  0  0
  -21.4179  -29.3021   22.3685 N   0  0  0  0  0  0
  -26.4296  -37.3776   23.9415 N   0  0  0  0  0  0
  -24.6805  -31.0662   22.0993 N   0  0  0  0  0  0
  -23.4209  -28.8165   23.2999 O   0  0  0  0  0  0
  -28.3597  -26.5494   20.1548 O   0  0  0  0  0  0
  -26.5623  -34.8917   22.4669 O   0  0  0  0  0  0
  -23.5413  -32.1403   23.7422 O   0  0  0  0  0  0
  -27.0493  -21.9750   21.1298 C   0  0  0  0  0  0
  -28.3634  -21.6357   20.6960 C   0  0  0  0  0  0
  -26.4256  -20.8796   21.6518 C   0  0  0  0  0  0
  -28.4756  -20.2692   20.9487 C   0  0  0  0  0  0
  -25.6603  -22.2148   24.2502 C   0  0  0  0  0  0
  -23.4117  -21.0691   24.1359 C   0  0  0  0  0  0
  -27.0413  -18.4808   22.1028 C   0  0  0  0  0  0
  -29.3344  -22.6501   20.0587 C   0  0  0  0  0  0
  -25.0322  -20.7726   22.2073 C   0  0  0  0  0  0
  -29.2676  -24.1621   20.5293 C   0  0  0  0  0  0
  -29.4972  -18.0354   20.2299 C   0  0  0  0  0  0
  -30.3213  -17.0201   21.0962 C   0  0  0  0  0  0
  -28.2148  -25.1196   19.8678 C   0  0  0  0  0  0
  -24.8930  -20.9848   23.7335 C   0  0  0  0  0  0
  -27.3153  -19.8155   21.5834 N   0  0  0  0  0  0
  -29.6001  -19.4548   20.6560 N   0  0  0  0  0  0
  -29.9181  -15.5962   20.9574 N   0  0  0  0  0  0
  -31.4702  -12.4597   19.1299 H   0  0  0  0  0  0
  -30.3526  -11.3455   19.8637 H   0  0  0  0  0  0
  -29.7482  -11.7462   17.4573 H   0  0  0  0  0  0
  -29.6493  -13.4658   17.7440 H   0  0  0  0  0  0
  -27.8437  -11.2903   18.8476 H   0  0  0  0  0  0
  -27.3659  -12.5891   17.7894 H   0  0  0  0  0  0
  -27.6845  -14.2477   19.5356 H   0  0  0  0  0  0
  -28.6920  -12.0098   21.3626 H   0  0  0  0  0  0
  -28.4529  -13.6628   21.8482 H   0  0  0  0  0  0
  -25.2764   -9.5690   22.4742 H   0  0  0  0  0  0
  -24.0014   -7.4629   22.7461 H   0  0  0  0  0  0
  -21.0846   -8.8760   19.8936 H   0  0  0  0  0  0
  -22.3692  -10.9668   19.6153 H   0  0  0  0  0  0
  -21.1997   -7.6147   23.9717 H   0  0  0  0  0  0
  -21.1477   -6.0522   25.9079 H   0  0  0  0  0  0
  -22.0602   -2.7610   23.2847 H   0  0  0  0  0  0
  -22.4143  -11.9884   22.4782 H   0  0  0  0  0  0
  -21.1115  -13.1206   22.2612 H   0  0  0  0  0  0
  -24.6474  -15.8307   20.4767 H   0  0  0  0  0  0
  -26.2606  -15.6141   20.0184 H   0  0  0  0  0  0
  -26.7162  -32.5467   23.1109 H   0  0  0  0  0  0
  -25.0087  -33.9731   25.0431 H   0  0  0  0  0  0
  -22.7036  -31.3064   21.4097 H   0  0  0  0  0  0
  -23.3761  -35.9626   23.3297 H   0  0  0  0  0  0
  -24.3580  -36.8923   22.2047 H   0  0  0  0  0  0
  -23.7254  -37.6496   23.6657 H   0  0  0  0  0  0
  -26.0834  -31.5704   20.6112 H   0  0  0  0  0  0
  -26.8318  -30.8446   22.0041 H   0  0  0  0  0  0
  -28.1006  -29.0089   21.1921 H   0  0  0  0  0  0
  -25.9831  -25.9774   18.9450 H   0  0  0  0  0  0
  -23.9684  -27.3241   18.9980 H   0  0  0  0  0  0
  -23.7363  -30.6052   19.4047 H   0  0  0  0  0  0
  -22.7444  -29.2531   19.8622 H   0  0  0  0  0  0
  -25.1289  -36.1934   25.0823 H   0  0  0  0  0  0
  -20.9950  -28.3249   24.1417 H   0  0  0  0  0  0
  -20.5700  -26.2279   23.3596 H   0  0  0  0  0  0
  -21.6649  -26.7442   22.1194 H   0  0  0  0  0  0
  -19.6950  -25.6296   21.1219 H   0  0  0  0  0  0
  -19.6726  -27.3194   20.6741 H   0  0  0  0  0  0
  -17.4212  -26.6651   21.3997 H   0  0  0  0  0  0
  -18.0329  -26.0054   22.9004 H   0  0  0  0  0  0
  -19.7948  -30.7244   24.2244 H   0  0  0  0  0  0
  -17.5033  -31.6257   24.5157 H   0  0  0  0  0  0
  -15.5357  -30.2974   23.7682 H   0  0  0  0  0  0
  -15.8662  -28.0835   22.7042 H   0  0  0  0  0  0
  -24.5911  -30.7079   25.7770 H   0  0  0  0  0  0
  -24.8912  -32.2903   26.4846 H   0  0  0  0  0  0
  -25.8044  -30.8908   27.0237 H   0  0  0  0  0  0
  -26.2895  -29.6762   24.1211 H   0  0  0  0  0  0
  -27.4067  -29.7265   25.4658 H   0  0  0  0  0  0
  -27.8753  -30.4289   23.9354 H   0  0  0  0  0  0
  -27.2690  -33.3638   26.2022 H   0  0  0  0  0  0
  -28.3880  -32.6858   25.0297 H   0  0  0  0  0  0
  -28.0732  -31.8463   26.5415 H   0  0  0  0  0  0
  -28.2587  -38.0097   24.7509 H   0  0  0  0  0  0
  -28.1090  -36.2634   24.6284 H   0  0  0  0  0  0
  -27.2300  -37.1429   25.8864 H   0  0  0  0  0  0
  -20.9371  -29.8739   21.6883 H   0  0  0  0  0  0
  -26.0186  -38.2854   24.1411 H   0  0  0  0  0  0
  -26.5806  -22.9440   21.0747 H   0  0  0  0  0  0
  -25.4984  -22.3596   25.3189 H   0  0  0  0  0  0
  -25.3403  -23.1241   23.7408 H   0  0  0  0  0  0
  -26.7351  -22.1099   24.1006 H   0  0  0  0  0  0
  -23.2976  -21.0852   25.2205 H   0  0  0  0  0  0
  -22.8482  -20.2145   23.7594 H   0  0  0  0  0  0
  -22.9455  -21.9724   23.7403 H   0  0  0  0  0  0
  -26.3729  -18.5257   22.9596 H   0  0  0  0  0  0
  -27.9604  -18.0069   22.4423 H   0  0  0  0  0  0
  -26.5718  -17.8731   21.3297 H   0  0  0  0  0  0
  -29.2218  -22.5991   18.9756 H   0  0  0  0  0  0
  -30.3399  -22.2810   20.2619 H   0  0  0  0  0  0
  -24.5989  -19.8108   21.9316 H   0  0  0  0  0  0
  -24.4113  -21.5125   21.6987 H   0  0  0  0  0  0
  -30.2428  -24.5957   20.3046 H   0  0  0  0  0  0
  -29.1824  -24.2038   21.6156 H   0  0  0  0  0  0
  -28.4583  -17.7214   20.1661 H   0  0  0  0  0  0
  -29.8578  -17.9744   19.2017 H   0  0  0  0  0  0
  -30.2056  -17.2686   22.1514 H   0  0  0  0  0  0
  -31.3857  -17.1417   20.8852 H   0  0  0  0  0  0
  -27.2403  -24.7736   20.2007 H   0  0  0  0  0  0
  -28.2433  -24.9931   18.7851 H   0  0  0  0  0  0
  -25.3195  -20.1159   24.2351 H   0  0  0  0  0  0
  -30.3979  -19.9452   20.2606 H   0  0  0  0  0  0
  -28.9765  -15.3683   21.2375 H   0  0  0  0  0  0
  1 25  1  0  0  0
  1 30  2  0  0  0
  1 87  1  0  0  0
  2  3  1  0  0  0
  2 25  1  0  0  0
  2 88  1  0  0  0
  2 89  1  0  0  0
  3  4  1  0  0  0
  3 90  1  0  0  0
  3 91  1  0  0  0
  4  5  1  0  0  0
  4 92  1  0  0  0
  4 93  1  0  0  0
  5  6  1  0  0  0
  5 26  1  0  0  0
  5 94  1  0  0  0
  6 25  1  0  0  0
  6 95  1  0  0  0
  6 96  1  0  0  0
  7  8  2  0  0  0
  7 26  1  0  0  0
  7 29  1  0  0  0
  8  9  1  0  0  0
  8 22  1  0  0  0
  9 10  1  0  0  0
  9 27  2  0  0  0
 10 11  2  0  0  0
 10 15  1  0  0  0
 11 12  1  0  0  0
 11 97  1  0  0  0
 12 13  2  0  0  0
 12 98  1  0  0  0
 13 14  1  0  0  0
 13 31  1  0  0  0
 14 15  2  0  0  0
 14 99  1  0  0  0
 15100  1  0  0  0
 16 17  2  0  0  0
 16 21  1  0  0  0
 16 31  1  0  0  0
 17 18  1  0  0  0
 17101  1  0  0  0
 18 19  2  0  0  0
 18102  1  0  0  0
 19 20  1  0  0  0
 19 24  1  0  0  0
 20 21  2  0  0  0
 20103  1  0  0  0
 21 23  1  0  0  0
 22 28  1  0  0  0
 22 32  2  0  0  0
 26 27  1  0  0  0
 28104  1  0  0  0
 28105  1  0  0  0
 29106  1  0  0  0
 29107  1  0  0  0
 33 34  1  0  0  0
 33 66  1  0  0  0
 33 70  2  0  0  0
 34 36  1  0  0  0
 34 59  1  0  0  0
 34108  1  0  0  0
 35 44  2  0  0  0
 35 45  1  0  0  0
 35 68  1  0  0  0
 36 56  1  0  0  0
 36109  1  0  0  0
 37 39  1  0  0  0
 37 47  1  0  0  0
 37 66  1  0  0  0
 37110  1  0  0  0
 38 43  2  0  0  0
 38 46  1  0  0  0
 38 47  1  0  0  0
 39 64  1  0  0  0
 39 67  2  0  0  0
 40 52  1  0  0  0
 40 53  2  0  0  0
 40 58  1  0  0  0
 41111  1  0  0  0
 41112  1  0  0  0
 41113  1  0  0  0
 41 48  1  0  0  0
 42 43  1  0  0  0
 42 66  1  0  0  0
 42114  1  0  0  0
 42115  1  0  0  0
 43 44  1  0  0  0
 44116  1  0  0  0
 45 46  2  0  0  0
 45117  1  0  0  0
 46118  1  0  0  0
 47119  1  0  0  0
 47120  1  0  0  0
 48 56  1  0  0  0
 48 65  1  0  0  0
 48121  1  0  0  0
 49 50  1  0  0  0
 49 53  1  0  0  0
 49 64  1  0  0  0
 49122  1  0  0  0
 50 51  1  0  0  0
 50123  1  0  0  0
 50124  1  0  0  0
 51 52  1  0  0  0
 51125  1  0  0  0
 51126  1  0  0  0
 52127  1  0  0  0
 52128  1  0  0  0
 53 54  1  0  0  0
 54 55  2  0  0  0
 54129  1  0  0  0
 55 57  1  0  0  0
 55130  1  0  0  0
 56 69  2  0  0  0
 57 58  2  0  0  0
 57131  1  0  0  0
 58132  1  0  0  0
 59 60  1  0  0  0
 59 61  1  0  0  0
 59 62  1  0  0  0
 60133  1  0  0  0
 60134  1  0  0  0
 60135  1  0  0  0
 61136  1  0  0  0
 61137  1  0  0  0
 61138  1  0  0  0
 62139  1  0  0  0
 62140  1  0  0  0
 62141  1  0  0  0
 63 65  1  0  0  0
 63142  1  0  0  0
 63143  1  0  0  0
 63144  1  0  0  0
 64145  1  0  0  0
 65146  1  0  0  0
 68 83  1  0  0  0
 71 72  1  0  0  0
 71 73  2  0  0  0
 71147  1  0  0  0
 72 74  2  0  0  0
 72 78  1  0  0  0
 73 79  1  0  0  0
 73 85  1  0  0  0
 74 85  1  0  0  0
 74 86  1  0  0  0
 75148  1  0  0  0
 75149  1  0  0  0
 75150  1  0  0  0
 75 84  1  0  0  0
 76 84  1  0  0  0
 76151  1  0  0  0
 76152  1  0  0  0
 76153  1  0  0  0
 77 85  1  0  0  0
 77154  1  0  0  0
 77155  1  0  0  0
 77156  1  0  0  0
 78 80  1  0  0  0
 78157  1  0  0  0
 78158  1  0  0  0
 79 84  1  0  0  0
 79159  1  0  0  0
 79160  1  0  0  0
 80 83  1  0  0  0
 80161  1  0  0  0
 80162  1  0  0  0
 81 82  1  0  0  0
 81 86  1  0  0  0
 81163  1  0  0  0
 81164  1  0  0  0
 82 87  1  0  0  0
 82165  1  0  0  0
 82166  1  0  0  0
 83167  1  0  0  0
 83168  1  0  0  0
 84169  1  0  0  0
 86170  1  0  0  0
 87171  1  0  0  0
M  ISO  4   1 100  68 101  83 101  87 100
M  END
> <chiral flag>
0

> <version>
0

> <s_m_source_file>
/data/baiqing/PycharmProjects/Reinvent-master-3.2/result/LINK_invent/BTK/process_docking_weight1_custom_sum_contain_oxygen_bond_distance_aromatic_linkinvent_7_9_3/rearranged_h_0094.sdf

> <i_m_source_file_index>
90

> <r_mmod_Potential_Energy-OPLS-2005>
-137.241653442383

> <r_mmod_Stretch_Energy-OPLS-2005>
57.2343406677246

> <r_mmod_Bend_Energy-OPLS-2005>
132.192581176758

> <r_mmod_Torsional_Energy-OPLS-2005>
212.633010864258

> <r_mmod_Improper_Torsional_Energy-OPLS-2005>
6.39295959472656

> <r_mmod_Van_der_Waal_Energy-OPLS-2005>
127.370132446289

> <r_mmod_Electrostatic_Energy-OPLS-2005>
-484.002136230469

> <r_mmod_Solvation_Energy-OPLS-2005>
-218.527893066406

> <b_mmod_Minimization_Converged-OPLS-2005>
0

> <r_mmod_RMS_Derivative-OPLS-2005>
1.76463711261749

$$$$
92
                    3D
 Structure written by MMmdl.
157165  0  0  1  0            999 V2000
  -30.6176  -14.7243   20.4578 C   0  0  0  0  0  0
  -30.4286  -12.4374   19.4875 C   0  0  0  0  0  0
  -29.5123  -12.5095   18.2453 C   0  0  0  0  0  0
  -28.0348  -12.3439   18.6491 C   0  0  0  0  0  0
  -27.6444  -13.2336   19.8596 C   0  0  2  0  0  0
  -28.6856  -13.1552   20.9991 C   0  0  0  0  0  0
  -25.2502  -13.8205   20.5699 C   0  0  0  0  0  0
  -24.1790  -13.0444   20.9199 C   0  0  0  0  0  0
  -24.6387  -11.6924   20.8745 C   0  0  0  0  0  0
  -23.9068  -10.4296   21.0402 C   0  0  0  0  0  0
  -24.3619   -9.4213   21.9182 C   0  0  0  0  0  0
  -23.6294   -8.2247   22.0755 C   0  0  0  0  0  0
  -22.4277   -8.0282   21.3544 C   0  0  0  0  0  0
  -21.9910   -9.0255   20.4646 C   0  0  0  0  0  0
  -22.7240  -10.2134   20.3053 C   0  0  0  0  0  0
  -21.6857   -6.0732   22.5276 C   0  0  0  0  0  0
  -21.4017   -6.5637   23.8209 C   0  0  0  0  0  0
  -21.3661   -5.6791   24.9170 C   0  0  0  0  0  0
  -21.6043   -4.3052   24.7222 C   0  0  0  0  0  0
  -21.8821   -3.8144   23.4343 C   0  0  0  0  0  0
  -21.9192   -4.6958   22.3399 C   0  0  0  0  0  0
  -22.7810  -13.5224   21.1855 C   0  0  0  0  0  0
  -22.1661   -4.2143   21.0976 F   0  0  0  0  0  0
  -21.5627   -3.4539   25.7735 F   0  0  0  0  0  0
  -29.9938  -13.4975   20.4272 N   0  0  0  0  0  0
  -26.2941  -12.9420   20.3315 N   0  0  0  0  0  0
  -25.9324  -11.6557   20.5766 N   0  0  0  0  0  0
  -22.0464  -12.8211   22.0416 N   0  0  0  0  0  0
  -25.4189  -15.1925   20.4119 N   0  0  0  0  0  0
  -31.7929  -14.8210   20.0941 O   0  0  0  0  0  0
  -21.6643   -6.8875   21.4240 O   0  0  0  0  0  0
  -22.3489  -14.5528   20.6702 O   0  0  0  0  0  0
  -24.6299  -31.8552   23.1994 C   0  0  0  0  0  0
  -25.9128  -32.4749   23.8337 C   0  0  1  0  0  0
  -27.2123  -27.2681   20.1426 C   0  0  0  0  0  0
  -25.5927  -33.8552   24.2257 N   0  0  0  0  0  0
  -23.4263  -30.4783   21.5407 C   0  0  2  0  0  0
  -24.8764  -28.9313   20.1023 C   0  0  0  0  0  0
  -22.7500  -29.4596   22.4904 C   0  0  0  0  0  0
  -18.0293  -28.1385   22.8484 C   0  0  0  0  0  0
  -24.1493  -36.7287   23.2643 C   0  0  0  0  0  0
  -25.9719  -30.7702   21.3806 C   0  0  0  0  0  0
  -26.0447  -29.3944   20.7238 C   0  0  0  0  0  0
  -27.2168  -28.5730   20.7375 C   0  0  0  0  0  0
  -26.0432  -26.8939   19.4475 C   0  0  0  0  0  0
  -24.8813  -27.6885   19.4502 C   0  0  0  0  0  0
  -23.6441  -29.8139   20.1554 C   0  0  0  0  0  0
  -25.4118  -36.3066   24.0330 C   0  0  1  0  0  0
  -20.5899  -28.3697   23.1269 C   0  0  2  0  0  0
  -20.6777  -26.9414   22.5406 C   0  0  0  0  0  0
  -19.5753  -26.6381   21.5210 C   0  0  0  0  0  0
  -18.1936  -26.7927   22.1624 C   0  0  0  0  0  0
  -19.1549  -28.8861   23.2869 C   0  0  0  0  0  0
  -18.9467  -30.1458   23.8883 C   0  0  0  0  0  0
  -17.6467  -30.6583   24.0570 C   0  0  0  0  0  0
  -25.9060  -34.9439   23.5101 C   0  0  0  0  0  0
  -16.5358  -29.9081   23.6332 C   0  0  0  0  0  0
  -16.7281  -28.6503   23.0351 C   0  0  0  0  0  0
  -26.4494  -31.6570   25.0725 C   0  0  0  0  0  0
  -25.3720  -31.3723   26.1452 C   0  0  0  0  0  0
  -27.0337  -30.2984   24.6211 C   0  0  0  0  0  0
  -27.6044  -32.4316   25.7491 C   0  0  0  0  0  0
  -27.5572  -37.1798   24.8466 C   0  0  0  0  0  0
  -21.4208  -29.3043   22.3651 N   0  0  0  0  0  0
  -26.4288  -37.3767   23.9413 N   0  0  0  0  0  0
  -24.6947  -31.0531   22.0958 N   0  0  0  0  0  0
  -23.4204  -28.8152   23.3009 O   0  0  0  0  0  0
  -28.2766  -26.3400   20.2095 O   0  0  0  0  0  0
  -26.5641  -34.8921   22.4672 O   0  0  0  0  0  0
  -23.5453  -32.1365   23.7293 O   0  0  0  0  0  0
  -30.2506  -19.2074   21.7449 C   0  0  0  0  0  0
  -28.9951  -19.7007   20.0023 C   0  0  0  0  0  0
  -29.7258  -18.6374   20.5458 C   0  0  0  0  0  0
  -29.8506  -20.5216   21.8799 C   0  0  0  0  0  0
  -30.1311  -21.4837   22.9910 C   0  0  0  0  0  0
  -26.6482  -24.7015   21.3665 C   0  0  0  0  0  0
  -30.0405  -17.1999   19.9351 C   0  0  0  0  0  0
  -28.8271  -23.6385   20.3304 C   0  0  0  0  0  0
  -28.2276  -22.1651   20.6754 C   0  0  0  0  0  0
  -28.0920  -24.9924   20.8846 C   0  0  1  0  0  0
  -29.0460  -20.8759   20.7999 N   0  0  0  0  0  0
  -29.8489  -15.8623   20.6433 N   0  0  0  0  0  0
  -31.4727  -12.5487   19.1905 H   0  0  0  0  0  0
  -30.3591  -11.4581   19.9634 H   0  0  0  0  0  0
  -29.7914  -11.7401   17.5243 H   0  0  0  0  0  0
  -29.6497  -13.4673   17.7411 H   0  0  0  0  0  0
  -27.8760  -11.2935   18.8948 H   0  0  0  0  0  0
  -27.3848  -12.5575   17.7999 H   0  0  0  0  0  0
  -27.6444  -14.2589   19.4902 H   0  0  0  0  0  0
  -28.7101  -12.1554   21.4341 H   0  0  0  0  0  0
  -28.4235  -13.8349   21.8114 H   0  0  0  0  0  0
  -25.2766   -9.5683   22.4756 H   0  0  0  0  0  0
  -23.9998   -7.4638   22.7477 H   0  0  0  0  0  0
  -21.0841   -8.8773   19.8952 H   0  0  0  0  0  0
  -22.3700  -10.9669   19.6156 H   0  0  0  0  0  0
  -21.2019   -7.6147   23.9708 H   0  0  0  0  0  0
  -21.1479   -6.0523   25.9071 H   0  0  0  0  0  0
  -22.0600   -2.7607   23.2847 H   0  0  0  0  0  0
  -22.4096  -11.9880   22.4803 H   0  0  0  0  0  0
  -21.1077  -13.1216   22.2628 H   0  0  0  0  0  0
  -24.6519  -15.8460   20.5258 H   0  0  0  0  0  0
  -26.2654  -15.6340   20.0775 H   0  0  0  0  0  0
  -26.7200  -32.5416   23.1084 H   0  0  0  0  0  0
  -25.0066  -33.9692   25.0397 H   0  0  0  0  0  0
  -22.7233  -31.3013   21.3944 H   0  0  0  0  0  0
  -23.3752  -35.9622   23.3306 H   0  0  0  0  0  0
  -24.3582  -36.8906   22.2056 H   0  0  0  0  0  0
  -23.7257  -37.6492   23.6668 H   0  0  0  0  0  0
  -26.1148  -31.5295   20.6104 H   0  0  0  0  0  0
  -26.8488  -30.8198   22.0148 H   0  0  0  0  0  0
  -28.1050  -28.9136   21.2494 H   0  0  0  0  0  0
  -26.0127  -25.9430   18.9357 H   0  0  0  0  0  0
  -23.9942  -27.3357   18.9430 H   0  0  0  0  0  0
  -23.7634  -30.5913   19.4004 H   0  0  0  0  0  0
  -22.7630  -29.2459   19.8500 H   0  0  0  0  0  0
  -25.1301  -36.1907   25.0822 H   0  0  0  0  0  0
  -21.0003  -28.3277   24.1384 H   0  0  0  0  0  0
  -20.5677  -26.2300   23.3609 H   0  0  0  0  0  0
  -21.6648  -26.7443   22.1201 H   0  0  0  0  0  0
  -19.6922  -25.6291   21.1243 H   0  0  0  0  0  0
  -19.6690  -27.3193   20.6744 H   0  0  0  0  0  0
  -17.4204  -26.6672   21.4026 H   0  0  0  0  0  0
  -18.0327  -26.0069   22.9024 H   0  0  0  0  0  0
  -19.7948  -30.7282   24.2225 H   0  0  0  0  0  0
  -17.5033  -31.6259   24.5179 H   0  0  0  0  0  0
  -15.5364  -30.2991   23.7659 H   0  0  0  0  0  0
  -15.8681  -28.0830   22.7058 H   0  0  0  0  0  0
  -24.5911  -30.7038   25.7808 H   0  0  0  0  0  0
  -24.8895  -32.2891   26.4850 H   0  0  0  0  0  0
  -25.8050  -30.8935   27.0244 H   0  0  0  0  0  0
  -26.2910  -29.6748   24.1221 H   0  0  0  0  0  0
  -27.3999  -29.7219   25.4718 H   0  0  0  0  0  0
  -27.8805  -30.4267   23.9469 H   0  0  0  0  0  0
  -27.2632  -33.3630   26.2023 H   0  0  0  0  0  0
  -28.3864  -32.6860   25.0321 H   0  0  0  0  0  0
  -28.0704  -31.8475   26.5437 H   0  0  0  0  0  0
  -28.2587  -38.0097   24.7504 H   0  0  0  0  0  0
  -28.1070  -36.2623   24.6298 H   0  0  0  0  0  0
  -27.2293  -37.1453   25.8871 H   0  0  0  0  0  0
  -20.9393  -29.8769   21.6862 H   0  0  0  0  0  0
  -26.0162  -38.2841   24.1403 H   0  0  0  0  0  0
  -30.8900  -18.6943   22.4509 H   0  0  0  0  0  0
  -28.4124  -19.7215   19.0897 H   0  0  0  0  0  0
  -30.8570  -21.0711   23.6919 H   0  0  0  0  0  0
  -29.2247  -21.7081   23.5544 H   0  0  0  0  0  0
  -30.5348  -22.4230   22.6135 H   0  0  0  0  0  0
  -26.1729  -25.5725   21.8185 H   0  0  0  0  0  0
  -26.0140  -24.3394   20.5577 H   0  0  0  0  0  0
  -26.6274  -23.9538   22.1562 H   0  0  0  0  0  0
  -31.0792  -17.2563   19.6074 H   0  0  0  0  0  0
  -29.4667  -17.1291   19.0104 H   0  0  0  0  0  0
  -28.8818  -23.7084   19.2443 H   0  0  0  0  0  0
  -29.8653  -23.6715   20.6601 H   0  0  0  0  0  0
  -27.4195  -21.9668   19.9706 H   0  0  0  0  0  0
  -27.7265  -22.2339   21.6373 H   0  0  0  0  0  0
  -28.6139  -25.1762   21.8242 H   0  0  0  0  0  0
  -28.9179  -15.6940   20.9927 H   0  0  0  0  0  0
  1 25  1  0  0  0
  1 30  2  0  0  0
  1 82  1  0  0  0
  2  3  1  0  0  0
  2 25  1  0  0  0
  2 83  1  0  0  0
  2 84  1  0  0  0
  3  4  1  0  0  0
  3 85  1  0  0  0
  3 86  1  0  0  0
  4  5  1  0  0  0
  4 87  1  0  0  0
  4 88  1  0  0  0
  5  6  1  0  0  0
  5 26  1  0  0  0
  5 89  1  0  0  0
  6 25  1  0  0  0
  6 90  1  0  0  0
  6 91  1  0  0  0
  7  8  2  0  0  0
  7 26  1  0  0  0
  7 29  1  0  0  0
  8  9  1  0  0  0
  8 22  1  0  0  0
  9 10  1  0  0  0
  9 27  2  0  0  0
 10 11  2  0  0  0
 10 15  1  0  0  0
 11 12  1  0  0  0
 11 92  1  0  0  0
 12 13  2  0  0  0
 12 93  1  0  0  0
 13 14  1  0  0  0
 13 31  1  0  0  0
 14 15  2  0  0  0
 14 94  1  0  0  0
 15 95  1  0  0  0
 16 17  2  0  0  0
 16 21  1  0  0  0
 16 31  1  0  0  0
 17 18  1  0  0  0
 17 96  1  0  0  0
 18 19  2  0  0  0
 18 97  1  0  0  0
 19 20  1  0  0  0
 19 24  1  0  0  0
 20 21  2  0  0  0
 20 98  1  0  0  0
 21 23  1  0  0  0
 22 28  1  0  0  0
 22 32  2  0  0  0
 26 27  1  0  0  0
 28 99  1  0  0  0
 28100  1  0  0  0
 29101  1  0  0  0
 29102  1  0  0  0
 33 34  1  0  0  0
 33 66  1  0  0  0
 33 70  2  0  0  0
 34 36  1  0  0  0
 34 59  1  0  0  0
 34103  1  0  0  0
 35 44  2  0  0  0
 35 45  1  0  0  0
 35 68  1  0  0  0
 36 56  1  0  0  0
 36104  1  0  0  0
 37 39  1  0  0  0
 37 47  1  0  0  0
 37 66  1  0  0  0
 37105  1  0  0  0
 38 43  2  0  0  0
 38 46  1  0  0  0
 38 47  1  0  0  0
 39 64  1  0  0  0
 39 67  2  0  0  0
 40 52  1  0  0  0
 40 53  2  0  0  0
 40 58  1  0  0  0
 41106  1  0  0  0
 41107  1  0  0  0
 41108  1  0  0  0
 41 48  1  0  0  0
 42 43  1  0  0  0
 42 66  1  0  0  0
 42109  1  0  0  0
 42110  1  0  0  0
 43 44  1  0  0  0
 44111  1  0  0  0
 45 46  2  0  0  0
 45112  1  0  0  0
 46113  1  0  0  0
 47114  1  0  0  0
 47115  1  0  0  0
 48 56  1  0  0  0
 48 65  1  0  0  0
 48116  1  0  0  0
 49 50  1  0  0  0
 49 53  1  0  0  0
 49 64  1  0  0  0
 49117  1  0  0  0
 50 51  1  0  0  0
 50118  1  0  0  0
 50119  1  0  0  0
 51 52  1  0  0  0
 51120  1  0  0  0
 51121  1  0  0  0
 52122  1  0  0  0
 52123  1  0  0  0
 53 54  1  0  0  0
 54 55  2  0  0  0
 54124  1  0  0  0
 55 57  1  0  0  0
 55125  1  0  0  0
 56 69  2  0  0  0
 57 58  2  0  0  0
 57126  1  0  0  0
 58127  1  0  0  0
 59 60  1  0  0  0
 59 61  1  0  0  0
 59 62  1  0  0  0
 60128  1  0  0  0
 60129  1  0  0  0
 60130  1  0  0  0
 61131  1  0  0  0
 61132  1  0  0  0
 61133  1  0  0  0
 62134  1  0  0  0
 62135  1  0  0  0
 62136  1  0  0  0
 63 65  1  0  0  0
 63137  1  0  0  0
 63138  1  0  0  0
 63139  1  0  0  0
 64140  1  0  0  0
 65141  1  0  0  0
 68 80  1  0  0  0
 71 73  1  0  0  0
 71 74  2  0  0  0
 71142  1  0  0  0
 72 73  2  0  0  0
 72 81  1  0  0  0
 72143  1  0  0  0
 73 77  1  0  0  0
 74 75  1  0  0  0
 74 81  1  0  0  0
 75144  1  0  0  0
 75145  1  0  0  0
 75146  1  0  0  0
 76147  1  0  0  0
 76148  1  0  0  0
 76149  1  0  0  0
 76 80  1  0  0  0
 77 82  1  0  0  0
 77150  1  0  0  0
 77151  1  0  0  0
 78 79  1  0  0  0
 78 80  1  0  0  0
 78152  1  0  0  0
 78153  1  0  0  0
 79 81  1  0  0  0
 79154  1  0  0  0
 79155  1  0  0  0
 80156  1  0  0  0
 82157  1  0  0  0
M  ISO  4   1 100  68 101  80 101  82 100
M  END
> <chiral flag>
0

> <version>
0

> <s_m_source_file>
/data/baiqing/PycharmProjects/Reinvent-master-3.2/result/LINK_invent/BTK/process_docking_weight1_custom_sum_contain_oxygen_bond_distance_aromatic_linkinvent_7_9_3/rearranged_h_0094.sdf

> <i_m_source_file_index>
91

> <r_mmod_Potential_Energy-OPLS-2005>
154.646667480469

> <r_mmod_Stretch_Energy-OPLS-2005>
122.280303955078

> <r_mmod_Bend_Energy-OPLS-2005>
188.020065307617

> <r_mmod_Torsional_Energy-OPLS-2005>
269.820220947266

> <r_mmod_Improper_Torsional_Energy-OPLS-2005>
9.47101593017578

> <r_mmod_Van_der_Waal_Energy-OPLS-2005>
124.198104858398

> <r_mmod_Electrostatic_Energy-OPLS-2005>
-428.853576660156

> <r_mmod_Solvation_Energy-OPLS-2005>
-213.265686035156

> <b_mmod_Minimization_Converged-OPLS-2005>
0

> <r_mmod_RMS_Derivative-OPLS-2005>
1.29303240776062

$$$$
93
                    3D
 Structure written by MMmdl.
174182  0  0  1  0            999 V2000
  -30.5843  -14.7869   20.3884 C   0  0  0  0  0  0
  -30.4249  -12.4702   19.4727 C   0  0  0  0  0  0
  -29.4917  -12.4941   18.2466 C   0  0  0  0  0  0
  -28.0204  -12.3151   18.6602 C   0  0  0  0  0  0
  -27.6266  -13.2358   19.8485 C   0  0  2  0  0  0
  -28.6792  -13.2141   20.9812 C   0  0  0  0  0  0
  -25.2401  -13.8238   20.5695 C   0  0  0  0  0  0
  -24.1744  -13.0502   20.9248 C   0  0  0  0  0  0
  -24.6317  -11.6942   20.8780 C   0  0  0  0  0  0
  -23.9003  -10.4357   21.0433 C   0  0  0  0  0  0
  -24.3601   -9.4229   21.9154 C   0  0  0  0  0  0
  -23.6321   -8.2237   22.0696 C   0  0  0  0  0  0
  -22.4287   -8.0259   21.3513 C   0  0  0  0  0  0
  -21.9905   -9.0225   20.4602 C   0  0  0  0  0  0
  -22.7182  -10.2121   20.3048 C   0  0  0  0  0  0
  -21.6883   -6.0719   22.5256 C   0  0  0  0  0  0
  -21.3991   -6.5629   23.8169 C   0  0  0  0  0  0
  -21.3698   -5.6774   24.9166 C   0  0  0  0  0  0
  -21.6083   -4.3046   24.7183 C   0  0  0  0  0  0
  -21.8831   -3.8123   23.4321 C   0  0  0  0  0  0
  -21.9193   -4.6961   22.3357 C   0  0  0  0  0  0
  -22.7763  -13.5184   21.1949 C   0  0  0  0  0  0
  -22.1660   -4.2131   21.0954 F   0  0  0  0  0  0
  -21.5680   -3.4508   25.7713 F   0  0  0  0  0  0
  -29.9688  -13.5561   20.3677 N   0  0  0  0  0  0
  -26.2861  -12.9441   20.3363 N   0  0  0  0  0  0
  -25.9266  -11.6599   20.5842 N   0  0  0  0  0  0
  -22.0466  -12.8131   22.0523 N   0  0  0  0  0  0
  -25.4171  -15.1960   20.3963 N   0  0  0  0  0  0
  -31.7993  -14.8638   20.1760 O   0  0  0  0  0  0
  -21.6685   -6.8829   21.4190 O   0  0  0  0  0  0
  -22.3426  -14.5531   20.6849 O   0  0  0  0  0  0
  -24.6332  -31.8467   23.1947 C   0  0  0  0  0  0
  -25.9149  -32.4715   23.8300 C   0  0  1  0  0  0
  -27.2309  -27.2444   20.1051 C   0  0  0  0  0  0
  -25.5906  -33.8517   24.2198 N   0  0  0  0  0  0
  -23.4343  -30.4629   21.5398 C   0  0  2  0  0  0
  -24.8879  -28.9013   20.1122 C   0  0  0  0  0  0
  -22.7510  -29.4525   22.4925 C   0  0  0  0  0  0
  -18.0290  -28.1376   22.8481 C   0  0  0  0  0  0
  -24.1493  -36.7259   23.2653 C   0  0  0  0  0  0
  -25.9862  -30.7451   21.3871 C   0  0  0  0  0  0
  -26.0581  -29.3685   20.7280 C   0  0  0  0  0  0
  -27.2293  -28.5473   20.7196 C   0  0  0  0  0  0
  -26.0384  -26.8456   19.4703 C   0  0  0  0  0  0
  -24.8872  -27.6523   19.4677 C   0  0  0  0  0  0
  -23.6555  -29.7741   20.1654 C   0  0  0  0  0  0
  -25.4123  -36.3023   24.0308 C   0  0  1  0  0  0
  -20.5901  -28.3648   23.1286 C   0  0  2  0  0  0
  -20.6787  -26.9357   22.5434 C   0  0  0  0  0  0
  -19.5770  -26.6354   21.5237 C   0  0  0  0  0  0
  -18.1934  -26.7934   22.1628 C   0  0  0  0  0  0
  -19.1563  -28.8844   23.2873 C   0  0  0  0  0  0
  -18.9472  -30.1457   23.8858 C   0  0  0  0  0  0
  -17.6463  -30.6576   24.0560 C   0  0  0  0  0  0
  -25.9033  -34.9401   23.5063 C   0  0  0  0  0  0
  -16.5345  -29.9057   23.6335 C   0  0  0  0  0  0
  -16.7280  -28.6496   23.0328 C   0  0  0  0  0  0
  -26.4483  -31.6569   25.0691 C   0  0  0  0  0  0
  -25.3687  -31.3752   26.1403 C   0  0  0  0  0  0
  -27.0355  -30.2988   24.6199 C   0  0  0  0  0  0
  -27.6025  -32.4337   25.7430 C   0  0  0  0  0  0
  -27.5575  -37.1780   24.8456 C   0  0  0  0  0  0
  -21.4219  -29.2981   22.3678 N   0  0  0  0  0  0
  -26.4286  -37.3728   23.9406 N   0  0  0  0  0  0
  -24.7046  -31.0367   22.0972 N   0  0  0  0  0  0
  -23.4246  -28.8045   23.2984 O   0  0  0  0  0  0
  -28.3376  -26.3668   20.1315 O   0  0  0  0  0  0
  -26.5632  -34.8895   22.4631 O   0  0  0  0  0  0
  -23.5445  -32.1288   23.7179 O   0  0  0  0  0  0
  -30.8499  -22.2877   20.7149 C   0  0  0  0  0  0
  -29.8426  -21.4397   20.2183 C   0  0  0  0  0  0
  -32.2141  -21.9706   20.6422 C   0  0  0  0  0  0
  -31.6208  -20.0306   19.2873 C   0  0  0  0  0  0
  -30.2694  -20.1009   19.7488 C   0  0  0  0  0  0
  -32.6145  -20.8878   19.8259 C   0  0  0  0  0  0
  -32.0151  -19.0324   18.1952 C   0  0  0  0  0  0
  -34.7785  -21.4867   18.5994 C   0  0  0  0  0  0
  -33.1617  -22.0301   22.9136 C   0  0  0  0  0  0
  -32.9455  -24.2345   21.6192 C   0  0  0  0  0  0
  -28.4073  -22.0745   20.3280 C   0  0  0  0  0  0
  -34.0957  -20.5680   19.6194 C   0  0  0  0  0  0
  -29.4940  -18.6875   19.7645 C   0  0  0  0  0  0
  -28.0567  -23.6955   20.4956 C   0  0  0  0  0  0
  -30.2658  -17.4100   20.4680 C   0  0  0  0  0  0
  -28.3671  -24.9759   19.5322 C   0  0  0  0  0  0
  -33.1976  -22.7190   21.5379 C   0  0  0  0  0  0
  -29.8044  -15.9395   20.4123 N   0  0  0  0  0  0
  -31.4533  -12.6261   19.1436 H   0  0  0  0  0  0
  -30.4021  -11.5015   19.9695 H   0  0  0  0  0  0
  -29.7675  -11.7119   17.5375 H   0  0  0  0  0  0
  -29.6131  -13.4462   17.7340 H   0  0  0  0  0  0
  -27.8646  -11.2699   18.9243 H   0  0  0  0  0  0
  -27.3645  -12.5006   17.8064 H   0  0  0  0  0  0
  -27.5960  -14.2428   19.4377 H   0  0  0  0  0  0
  -28.7282  -12.2452   21.4756 H   0  0  0  0  0  0
  -28.4258  -13.9448   21.7537 H   0  0  0  0  0  0
  -25.2713   -9.5797   22.4758 H   0  0  0  0  0  0
  -24.0094   -7.4626   22.7393 H   0  0  0  0  0  0
  -21.0845   -8.8701   19.8872 H   0  0  0  0  0  0
  -22.3579  -10.9697   19.6215 H   0  0  0  0  0  0
  -21.1926   -7.6115   23.9649 H   0  0  0  0  0  0
  -21.1560   -6.0518   25.9063 H   0  0  0  0  0  0
  -22.0583   -2.7576   23.2806 H   0  0  0  0  0  0
  -22.4117  -11.9765   22.4859 H   0  0  0  0  0  0
  -21.1074  -13.1092   22.2785 H   0  0  0  0  0  0
  -24.6545  -15.8602   20.4953 H   0  0  0  0  0  0
  -26.2595  -15.6215   20.0348 H   0  0  0  0  0  0
  -26.7213  -32.5331   23.1040 H   0  0  0  0  0  0
  -25.0013  -33.9673   25.0319 H   0  0  0  0  0  0
  -22.7319  -31.2802   21.3703 H   0  0  0  0  0  0
  -23.3738  -35.9606   23.3291 H   0  0  0  0  0  0
  -24.3570  -36.8898   22.2068 H   0  0  0  0  0  0
  -23.7269  -37.6459   23.6698 H   0  0  0  0  0  0
  -26.1196  -31.4820   20.5976 H   0  0  0  0  0  0
  -26.8732  -30.8081   22.0122 H   0  0  0  0  0  0
  -28.1311  -28.8905   21.2119 H   0  0  0  0  0  0
  -25.9635  -25.8796   18.9958 H   0  0  0  0  0  0
  -23.9889  -27.2778   18.9950 H   0  0  0  0  0  0
  -23.7769  -30.5266   19.3877 H   0  0  0  0  0  0
  -22.7838  -29.1851   19.8694 H   0  0  0  0  0  0
  -25.1316  -36.1846   25.0794 H   0  0  0  0  0  0
  -21.0002  -28.3226   24.1415 H   0  0  0  0  0  0
  -20.5687  -26.2232   23.3623 H   0  0  0  0  0  0
  -21.6637  -26.7363   22.1218 H   0  0  0  0  0  0
  -19.6910  -25.6266   21.1261 H   0  0  0  0  0  0
  -19.6748  -27.3177   20.6783 H   0  0  0  0  0  0
  -17.4219  -26.6699   21.4000 H   0  0  0  0  0  0
  -18.0286  -26.0069   22.9013 H   0  0  0  0  0  0
  -19.7933  -30.7325   24.2182 H   0  0  0  0  0  0
  -17.4986  -31.6245   24.5177 H   0  0  0  0  0  0
  -15.5343  -30.2942   23.7684 H   0  0  0  0  0  0
  -15.8688  -28.0832   22.7018 H   0  0  0  0  0  0
  -24.5843  -30.7121   25.7745 H   0  0  0  0  0  0
  -24.8888  -32.2930   26.4808 H   0  0  0  0  0  0
  -25.7975  -30.8936   27.0197 H   0  0  0  0  0  0
  -26.2965  -29.6709   24.1211 H   0  0  0  0  0  0
  -27.4035  -29.7274   25.4731 H   0  0  0  0  0  0
  -27.8822  -30.4263   23.9451 H   0  0  0  0  0  0
  -27.2639  -33.3658   26.1960 H   0  0  0  0  0  0
  -28.3833  -32.6878   25.0255 H   0  0  0  0  0  0
  -28.0691  -31.8497   26.5365 H   0  0  0  0  0  0
  -28.2577  -38.0086   24.7474 H   0  0  0  0  0  0
  -28.1075  -36.2610   24.6303 H   0  0  0  0  0  0
  -27.2276  -37.1442   25.8851 H   0  0  0  0  0  0
  -20.9447  -29.8655   21.6828 H   0  0  0  0  0  0
  -26.0134  -38.2787   24.1415 H   0  0  0  0  0  0
  -30.5484  -23.1693   21.2597 H   0  0  0  0  0  0
  -31.1482  -18.6560   17.6501 H   0  0  0  0  0  0
  -32.5943  -18.1898   18.5784 H   0  0  0  0  0  0
  -32.6257  -19.5303   17.4386 H   0  0  0  0  0  0
  -35.8404  -21.2504   18.5597 H   0  0  0  0  0  0
  -34.6751  -22.5451   18.8500 H   0  0  0  0  0  0
  -34.3731  -21.3308   17.6008 H   0  0  0  0  0  0
  -33.4343  -20.9756   22.8196 H   0  0  0  0  0  0
  -32.1506  -22.0631   23.3241 H   0  0  0  0  0  0
  -33.8372  -22.4875   23.6352 H   0  0  0  0  0  0
  -33.0012  -24.6848   20.6271 H   0  0  0  0  0  0
  -33.7026  -24.7051   22.2459 H   0  0  0  0  0  0
  -31.9812  -24.4923   22.0545 H   0  0  0  0  0  0
  -28.0970  -21.6818   21.2982 H   0  0  0  0  0  0
  -27.7709  -21.5692   19.6010 H   0  0  0  0  0  0
  -34.2196  -19.5326   19.3123 H   0  0  0  0  0  0
  -34.6184  -20.6013   20.5768 H   0  0  0  0  0  0
  -29.2647  -18.4166   18.7339 H   0  0  0  0  0  0
  -28.5123  -18.8228   20.2205 H   0  0  0  0  0  0
  -28.2983  -23.9984   21.5186 H   0  0  0  0  0  0
  -26.9634  -23.6863   20.5101 H   0  0  0  0  0  0
  -31.2928  -17.3983   20.1170 H   0  0  0  0  0  0
  -30.3495  -17.6384   21.5275 H   0  0  0  0  0  0
  -27.7525  -24.9066   18.6223 H   0  0  0  0  0  0
  -29.3894  -24.8987   19.1443 H   0  0  0  0  0  0
  -34.2052  -22.6343   21.1452 H   0  0  0  0  0  0
  -28.8107  -15.7829   20.4947 H   0  0  0  0  0  0
  1 25  1  0  0  0
  1 30  2  0  0  0
  1 88  1  0  0  0
  2  3  1  0  0  0
  2 25  1  0  0  0
  2 89  1  0  0  0
  2 90  1  0  0  0
  3  4  1  0  0  0
  3 91  1  0  0  0
  3 92  1  0  0  0
  4  5  1  0  0  0
  4 93  1  0  0  0
  4 94  1  0  0  0
  5  6  1  0  0  0
  5 26  1  0  0  0
  5 95  1  0  0  0
  6 25  1  0  0  0
  6 96  1  0  0  0
  6 97  1  0  0  0
  7  8  2  0  0  0
  7 26  1  0  0  0
  7 29  1  0  0  0
  8  9  1  0  0  0
  8 22  1  0  0  0
  9 10  1  0  0  0
  9 27  2  0  0  0
 10 11  2  0  0  0
 10 15  1  0  0  0
 11 12  1  0  0  0
 11 98  1  0  0  0
 12 13  2  0  0  0
 12 99  1  0  0  0
 13 14  1  0  0  0
 13 31  1  0  0  0
 14 15  2  0  0  0
 14100  1  0  0  0
 15101  1  0  0  0
 16 17  2  0  0  0
 16 21  1  0  0  0
 16 31  1  0  0  0
 17 18  1  0  0  0
 17102  1  0  0  0
 18 19  2  0  0  0
 18103  1  0  0  0
 19 20  1  0  0  0
 19 24  1  0  0  0
 20 21  2  0  0  0
 20104  1  0  0  0
 21 23  1  0  0  0
 22 28  1  0  0  0
 22 32  2  0  0  0
 26 27  1  0  0  0
 28105  1  0  0  0
 28106  1  0  0  0
 29107  1  0  0  0
 29108  1  0  0  0
 33 34  1  0  0  0
 33 66  1  0  0  0
 33 70  2  0  0  0
 34 36  1  0  0  0
 34 59  1  0  0  0
 34109  1  0  0  0
 35 44  2  0  0  0
 35 45  1  0  0  0
 35 68  1  0  0  0
 36 56  1  0  0  0
 36110  1  0  0  0
 37 39  1  0  0  0
 37 47  1  0  0  0
 37 66  1  0  0  0
 37111  1  0  0  0
 38 43  2  0  0  0
 38 46  1  0  0  0
 38 47  1  0  0  0
 39 64  1  0  0  0
 39 67  2  0  0  0
 40 52  1  0  0  0
 40 53  2  0  0  0
 40 58  1  0  0  0
 41112  1  0  0  0
 41113  1  0  0  0
 41114  1  0  0  0
 41 48  1  0  0  0
 42 43  1  0  0  0
 42 66  1  0  0  0
 42115  1  0  0  0
 42116  1  0  0  0
 43 44  1  0  0  0
 44117  1  0  0  0
 45 46  2  0  0  0
 45118  1  0  0  0
 46119  1  0  0  0
 47120  1  0  0  0
 47121  1  0  0  0
 48 56  1  0  0  0
 48 65  1  0  0  0
 48122  1  0  0  0
 49 50  1  0  0  0
 49 53  1  0  0  0
 49 64  1  0  0  0
 49123  1  0  0  0
 50 51  1  0  0  0
 50124  1  0  0  0
 50125  1  0  0  0
 51 52  1  0  0  0
 51126  1  0  0  0
 51127  1  0  0  0
 52128  1  0  0  0
 52129  1  0  0  0
 53 54  1  0  0  0
 54 55  2  0  0  0
 54130  1  0  0  0
 55 57  1  0  0  0
 55131  1  0  0  0
 56 69  2  0  0  0
 57 58  2  0  0  0
 57132  1  0  0  0
 58133  1  0  0  0
 59 60  1  0  0  0
 59 61  1  0  0  0
 59 62  1  0  0  0
 60134  1  0  0  0
 60135  1  0  0  0
 60136  1  0  0  0
 61137  1  0  0  0
 61138  1  0  0  0
 61139  1  0  0  0
 62140  1  0  0  0
 62141  1  0  0  0
 62142  1  0  0  0
 63 65  1  0  0  0
 63143  1  0  0  0
 63144  1  0  0  0
 63145  1  0  0  0
 64146  1  0  0  0
 65147  1  0  0  0
 68 86  1  0  0  0
 71 72  2  0  0  0
 71 73  1  0  0  0
 71148  1  0  0  0
 72 75  1  0  0  0
 72 81  1  0  0  0
 73 76  2  0  0  0
 73 87  1  0  0  0
 74 75  2  0  0  0
 74 76  1  0  0  0
 74 77  1  0  0  0
 75 83  1  0  0  0
 76 82  1  0  0  0
 77149  1  0  0  0
 77150  1  0  0  0
 77151  1  0  0  0
 78 82  1  0  0  0
 78152  1  0  0  0
 78153  1  0  0  0
 78154  1  0  0  0
 79155  1  0  0  0
 79156  1  0  0  0
 79157  1  0  0  0
 79 87  1  0  0  0
 80 87  1  0  0  0
 80158  1  0  0  0
 80159  1  0  0  0
 80160  1  0  0  0
 81 84  1  0  0  0
 81161  1  0  0  0
 81162  1  0  0  0
 82163  1  0  0  0
 82164  1  0  0  0
 83 85  1  0  0  0
 83165  1  0  0  0
 83166  1  0  0  0
 84 86  1  0  0  0
 84167  1  0  0  0
 84168  1  0  0  0
 85 88  1  0  0  0
 85169  1  0  0  0
 85170  1  0  0  0
 86171  1  0  0  0
 86172  1  0  0  0
 87173  1  0  0  0
 88174  1  0  0  0
M  ISO  4   1 100  68 101  86 101  88 100
M  END
> <chiral flag>
0

> <version>
0

> <s_m_source_file>
/data/baiqing/PycharmProjects/Reinvent-master-3.2/result/LINK_invent/BTK/process_docking_weight1_custom_sum_contain_oxygen_bond_distance_aromatic_linkinvent_7_9_3/rearranged_h_0094.sdf

> <i_m_source_file_index>
92

> <r_mmod_Potential_Energy-OPLS-2005>
329.220947265625

> <r_mmod_Stretch_Energy-OPLS-2005>
163.255783081055

> <r_mmod_Bend_Energy-OPLS-2005>
251.999908447266

> <r_mmod_Torsional_Energy-OPLS-2005>
288.611419677734

> <r_mmod_Improper_Torsional_Energy-OPLS-2005>
6.48397731781006

> <r_mmod_Van_der_Waal_Energy-OPLS-2005>
152.556777954102

> <r_mmod_Electrostatic_Energy-OPLS-2005>
-433.566772460938

> <r_mmod_Solvation_Energy-OPLS-2005>
-204.982055664062

> <b_mmod_Minimization_Converged-OPLS-2005>
0

> <r_mmod_RMS_Derivative-OPLS-2005>
10.8023586273193

$$$$
94
                    3D
 Structure written by MMmdl.
153160  0  0  1  0            999 V2000
  -30.3537  -15.4684   20.3179 C   0  0  0  0  0  0
  -30.4349  -12.9500   19.5369 C   0  0  0  0  0  0
  -29.5492  -12.6214   18.3041 C   0  0  0  0  0  0
  -28.1069  -12.2996   18.7303 C   0  0  0  0  0  0
  -27.5999  -13.2928   19.8022 C   0  0  2  0  0  0
  -28.6200  -13.5606   20.9277 C   0  0  0  0  0  0
  -25.2387  -13.8277   20.5742 C   0  0  0  0  0  0
  -24.1743  -13.0449   20.9239 C   0  0  0  0  0  0
  -24.6412  -11.6947   20.8731 C   0  0  0  0  0  0
  -23.9094  -10.4299   21.0388 C   0  0  0  0  0  0
  -24.3634   -9.4225   21.9181 C   0  0  0  0  0  0
  -23.6305   -8.2260   22.0758 C   0  0  0  0  0  0
  -22.4294   -8.0282   21.3538 C   0  0  0  0  0  0
  -21.9934   -9.0255   20.4638 C   0  0  0  0  0  0
  -22.7260  -10.2138   20.3042 C   0  0  0  0  0  0
  -21.6863   -6.0736   22.5274 C   0  0  0  0  0  0
  -21.4025   -6.5644   23.8205 C   0  0  0  0  0  0
  -21.3666   -5.6796   24.9169 C   0  0  0  0  0  0
  -21.6041   -4.3054   24.7218 C   0  0  0  0  0  0
  -21.8819   -3.8144   23.4337 C   0  0  0  0  0  0
  -21.9203   -4.6964   22.3397 C   0  0  0  0  0  0
  -22.7766  -13.5202   21.1885 C   0  0  0  0  0  0
  -22.1675   -4.2151   21.0974 F   0  0  0  0  0  0
  -21.5626   -3.4540   25.7730 F   0  0  0  0  0  0
  -29.8312  -14.1204   20.2970 N   0  0  0  0  0  0
  -26.2788  -12.9567   20.3128 N   0  0  0  0  0  0
  -25.9350  -11.6652   20.5650 N   0  0  0  0  0  0
  -22.0421  -12.8184   22.0437 N   0  0  0  0  0  0
  -25.4077  -15.2011   20.4230 N   0  0  0  0  0  0
  -31.5945  -15.4027   20.2603 O   0  0  0  0  0  0
  -21.6656   -6.8880   21.4236 O   0  0  0  0  0  0
  -22.3451  -14.5499   20.6730 O   0  0  0  0  0  0
  -24.6758  -31.8099   23.1593 C   0  0  0  0  0  0
  -25.9376  -32.4514   23.8109 C   0  0  1  0  0  0
  -27.2211  -26.7958   20.2127 C   0  0  0  0  0  0
  -25.5992  -33.8333   24.2012 N   0  0  0  0  0  0
  -23.4968  -30.4155   21.5120 C   0  0  2  0  0  0
  -24.9496  -28.7689   20.1265 C   0  0  0  0  0  0
  -22.7725  -29.4377   22.4753 C   0  0  0  0  0  0
  -18.0335  -28.1414   22.8459 C   0  0  0  0  0  0
  -24.1507  -36.7179   23.2650 C   0  0  0  0  0  0
  -26.0728  -30.5744   21.4074 C   0  0  0  0  0  0
  -26.1390  -29.1468   20.7619 C   0  0  0  0  0  0
  -27.2684  -28.1885   20.7666 C   0  0  0  0  0  0
  -25.9958  -26.5968   19.5349 C   0  0  0  0  0  0
  -24.9099  -27.5165   19.4913 C   0  0  0  0  0  0
  -23.7443  -29.7155   20.1463 C   0  0  0  0  0  0
  -25.4148  -36.2921   24.0292 C   0  0  1  0  0  0
  -20.5962  -28.3772   23.1160 C   0  0  2  0  0  0
  -20.6803  -26.9443   22.5399 C   0  0  0  0  0  0
  -19.5780  -26.6375   21.5209 C   0  0  0  0  0  0
  -18.1962  -26.7945   22.1617 C   0  0  0  0  0  0
  -19.1596  -28.8919   23.2791 C   0  0  0  0  0  0
  -18.9497  -30.1500   23.8836 C   0  0  0  0  0  0
  -17.6487  -30.6596   24.0549 C   0  0  0  0  0  0
  -25.9116  -34.9305   23.4981 C   0  0  0  0  0  0
  -16.5378  -29.9078   23.6343 C   0  0  0  0  0  0
  -16.7312  -28.6499   23.0360 C   0  0  0  0  0  0
  -26.4585  -31.6503   25.0686 C   0  0  0  0  0  0
  -25.3683  -31.3769   26.1319 C   0  0  0  0  0  0
  -27.0497  -30.2854   24.6510 C   0  0  0  0  0  0
  -27.6060  -32.4335   25.7493 C   0  0  0  0  0  0
  -27.5577  -37.1744   24.8462 C   0  0  0  0  0  0
  -21.4381  -29.3040   22.3497 N   0  0  0  0  0  0
  -26.4284  -37.3670   23.9403 N   0  0  0  0  0  0
  -24.7713  -30.9644   22.0790 N   0  0  0  0  0  0
  -23.4210  -28.7962   23.3055 O   0  0  0  0  0  0
  -28.2352  -25.6577   20.1678 O   0  0  0  0  0  0
  -26.5744  -34.8862   22.4589 O   0  0  0  0  0  0
  -23.5796  -32.1127   23.6604 O   0  0  0  0  0  0
  -30.1480  -17.4375   18.5367 C   0  0  0  0  0  0
  -30.4180  -21.0821   21.3382 C   0  0  0  0  0  0
  -27.8656  -22.1989   18.6325 C   0  0  0  0  0  0
  -29.1598  -18.7937   20.6261 C   0  0  0  0  0  0
  -28.2254  -24.0106   20.6428 C   0  0  0  0  0  0
  -29.5973  -17.0966   19.9323 C   0  0  2  0  0  0
  -29.3705  -20.6466   20.3064 C   0  0  1  0  0  0
  -28.3231  -22.2010   20.0955 C   0  0  2  0  0  0
  -31.4426  -13.1847   19.1926 H   0  0  0  0  0  0
  -30.5455  -12.0776   20.1826 H   0  0  0  0  0  0
  -29.9722  -11.7908   17.7374 H   0  0  0  0  0  0
  -29.5446  -13.4797   17.6302 H   0  0  0  0  0  0
  -28.0969  -11.2870   19.1348 H   0  0  0  0  0  0
  -27.4420  -12.2936   17.8661 H   0  0  0  0  0  0
  -27.4833  -14.2332   19.2620 H   0  0  0  0  0  0
  -28.8298  -12.6579   21.5043 H   0  0  0  0  0  0
  -28.2185  -14.2896   21.6327 H   0  0  0  0  0  0
  -25.2777   -9.5719   22.4756 H   0  0  0  0  0  0
  -24.0013   -7.4669   22.7494 H   0  0  0  0  0  0
  -21.0872   -8.8767   19.8940 H   0  0  0  0  0  0
  -22.3711  -10.9674   19.6143 H   0  0  0  0  0  0
  -21.2021   -7.6156   23.9710 H   0  0  0  0  0  0
  -21.1493   -6.0528   25.9076 H   0  0  0  0  0  0
  -22.0593   -2.7607   23.2834 H   0  0  0  0  0  0
  -22.4069  -11.9873   22.4843 H   0  0  0  0  0  0
  -21.1028  -13.1193   22.2615 H   0  0  0  0  0  0
  -24.6483  -15.8612   20.5469 H   0  0  0  0  0  0
  -26.2662  -15.6382   20.1137 H   0  0  0  0  0  0
  -26.7454  -32.5013   23.0821 H   0  0  0  0  0  0
  -25.0056  -33.9387   25.0108 H   0  0  0  0  0  0
  -22.8179  -31.2503   21.3268 H   0  0  0  0  0  0
  -23.3781  -35.9494   23.3257 H   0  0  0  0  0  0
  -24.3587  -36.8890   22.2077 H   0  0  0  0  0  0
  -23.7253  -37.6340   23.6756 H   0  0  0  0  0  0
  -26.2651  -31.3032   20.6188 H   0  0  0  0  0  0
  -26.9288  -30.6404   22.0672 H   0  0  0  0  0  0
  -28.1797  -28.4907   21.2636 H   0  0  0  0  0  0
  -25.8549  -25.6484   19.0359 H   0  0  0  0  0  0
  -24.0095  -27.2198   18.9715 H   0  0  0  0  0  0
  -23.9154  -30.4742   19.3822 H   0  0  0  0  0  0
  -22.8510  -29.1767   19.8255 H   0  0  0  0  0  0
  -25.1356  -36.1698   25.0785 H   0  0  0  0  0  0
  -21.0049  -28.3382   24.1282 H   0  0  0  0  0  0
  -20.5669  -26.2394   23.3647 H   0  0  0  0  0  0
  -21.6663  -26.7393   22.1212 H   0  0  0  0  0  0
  -19.6935  -25.6270   21.1277 H   0  0  0  0  0  0
  -19.6715  -27.3149   20.6708 H   0  0  0  0  0  0
  -17.4229  -26.6684   21.4021 H   0  0  0  0  0  0
  -18.0357  -26.0100   22.9028 H   0  0  0  0  0  0
  -19.7968  -30.7335   24.2183 H   0  0  0  0  0  0
  -17.5030  -31.6270   24.5162 H   0  0  0  0  0  0
  -15.5373  -30.2953   23.7703 H   0  0  0  0  0  0
  -15.8714  -28.0792   22.7110 H   0  0  0  0  0  0
  -24.5888  -30.7105   25.7606 H   0  0  0  0  0  0
  -24.8846  -32.2969   26.4612 H   0  0  0  0  0  0
  -25.7887  -30.9006   27.0189 H   0  0  0  0  0  0
  -26.3187  -29.6492   24.1513 H   0  0  0  0  0  0
  -27.3970  -29.7266   25.5212 H   0  0  0  0  0  0
  -27.9154  -30.3995   23.9985 H   0  0  0  0  0  0
  -27.2626  -33.3692   26.1913 H   0  0  0  0  0  0
  -28.3947  -32.6805   25.0375 H   0  0  0  0  0  0
  -28.0651  -31.8569   26.5533 H   0  0  0  0  0  0
  -28.2549  -38.0082   24.7525 H   0  0  0  0  0  0
  -28.1122  -36.2605   24.6275 H   0  0  0  0  0  0
  -27.2293  -37.1358   25.8863 H   0  0  0  0  0  0
  -20.9672  -29.8713   21.6584 H   0  0  0  0  0  0
  -26.0121  -38.2726   24.1397 H   0  0  0  0  0  0
  -29.4351  -18.0359   17.9692 H   0  0  0  0  0  0
  -30.3611  -16.5461   17.9441 H   0  0  0  0  0  0
  -31.0743  -18.0070   18.6153 H   0  0  0  0  0  0
  -31.2434  -20.3719   21.3964 H   0  0  0  0  0  0
  -29.9747  -21.1608   22.3311 H   0  0  0  0  0  0
  -30.8415  -22.0557   21.0874 H   0  0  0  0  0  0
  -27.0326  -22.8847   18.4760 H   0  0  0  0  0  0
  -27.5343  -21.2072   18.3202 H   0  0  0  0  0  0
  -28.6762  -22.5054   17.9711 H   0  0  0  0  0  0
  -29.3974  -18.6844   21.6846 H   0  0  0  0  0  0
  -28.0711  -18.7268   20.6381 H   0  0  0  0  0  0
  -28.9638  -24.0378   21.4437 H   0  0  0  0  0  0
  -27.2850  -24.0093   21.1950 H   0  0  0  0  0  0
  -28.5933  -16.7128   19.7487 H   0  0  0  0  0  0
  -29.9165  -20.6286   19.3616 H   0  0  0  0  0  0
  -27.4496  -21.8450   20.6439 H   0  0  0  0  0  0
  1 25  1  0  0  0
  1 30  2  0  0  0
  1 76  1  0  0  0
  2  3  1  0  0  0
  2 25  1  0  0  0
  2 79  1  0  0  0
  2 80  1  0  0  0
  3  4  1  0  0  0
  3 81  1  0  0  0
  3 82  1  0  0  0
  4  5  1  0  0  0
  4 83  1  0  0  0
  4 84  1  0  0  0
  5  6  1  0  0  0
  5 26  1  0  0  0
  5 85  1  0  0  0
  6 25  1  0  0  0
  6 86  1  0  0  0
  6 87  1  0  0  0
  7  8  2  0  0  0
  7 26  1  0  0  0
  7 29  1  0  0  0
  8  9  1  0  0  0
  8 22  1  0  0  0
  9 10  1  0  0  0
  9 27  2  0  0  0
 10 11  2  0  0  0
 10 15  1  0  0  0
 11 12  1  0  0  0
 11 88  1  0  0  0
 12 13  2  0  0  0
 12 89  1  0  0  0
 13 14  1  0  0  0
 13 31  1  0  0  0
 14 15  2  0  0  0
 14 90  1  0  0  0
 15 91  1  0  0  0
 16 17  2  0  0  0
 16 21  1  0  0  0
 16 31  1  0  0  0
 17 18  1  0  0  0
 17 92  1  0  0  0
 18 19  2  0  0  0
 18 93  1  0  0  0
 19 20  1  0  0  0
 19 24  1  0  0  0
 20 21  2  0  0  0
 20 94  1  0  0  0
 21 23  1  0  0  0
 22 28  1  0  0  0
 22 32  2  0  0  0
 26 27  1  0  0  0
 28 95  1  0  0  0
 28 96  1  0  0  0
 29 97  1  0  0  0
 29 98  1  0  0  0
 33 34  1  0  0  0
 33 66  1  0  0  0
 33 70  2  0  0  0
 34 36  1  0  0  0
 34 59  1  0  0  0
 34 99  1  0  0  0
 35 44  2  0  0  0
 35 45  1  0  0  0
 35 68  1  0  0  0
 36 56  1  0  0  0
 36100  1  0  0  0
 37 39  1  0  0  0
 37 47  1  0  0  0
 37 66  1  0  0  0
 37101  1  0  0  0
 38 43  2  0  0  0
 38 46  1  0  0  0
 38 47  1  0  0  0
 39 64  1  0  0  0
 39 67  2  0  0  0
 40 52  1  0  0  0
 40 53  2  0  0  0
 40 58  1  0  0  0
 41102  1  0  0  0
 41103  1  0  0  0
 41104  1  0  0  0
 41 48  1  0  0  0
 42 43  1  0  0  0
 42 66  1  0  0  0
 42105  1  0  0  0
 42106  1  0  0  0
 43 44  1  0  0  0
 44107  1  0  0  0
 45 46  2  0  0  0
 45108  1  0  0  0
 46109  1  0  0  0
 47110  1  0  0  0
 47111  1  0  0  0
 48 56  1  0  0  0
 48 65  1  0  0  0
 48112  1  0  0  0
 49 50  1  0  0  0
 49 53  1  0  0  0
 49 64  1  0  0  0
 49113  1  0  0  0
 50 51  1  0  0  0
 50114  1  0  0  0
 50115  1  0  0  0
 51 52  1  0  0  0
 51116  1  0  0  0
 51117  1  0  0  0
 52118  1  0  0  0
 52119  1  0  0  0
 53 54  1  0  0  0
 54 55  2  0  0  0
 54120  1  0  0  0
 55 57  1  0  0  0
 55121  1  0  0  0
 56 69  2  0  0  0
 57 58  2  0  0  0
 57122  1  0  0  0
 58123  1  0  0  0
 59 60  1  0  0  0
 59 61  1  0  0  0
 59 62  1  0  0  0
 60124  1  0  0  0
 60125  1  0  0  0
 60126  1  0  0  0
 61127  1  0  0  0
 61128  1  0  0  0
 61129  1  0  0  0
 62130  1  0  0  0
 62131  1  0  0  0
 62132  1  0  0  0
 63 65  1  0  0  0
 63133  1  0  0  0
 63134  1  0  0  0
 63135  1  0  0  0
 64136  1  0  0  0
 65137  1  0  0  0
 68 75  1  0  0  0
 71138  1  0  0  0
 71139  1  0  0  0
 71140  1  0  0  0
 71 76  1  0  0  0
 72141  1  0  0  0
 72142  1  0  0  0
 72143  1  0  0  0
 72 77  1  0  0  0
 73144  1  0  0  0
 73145  1  0  0  0
 73146  1  0  0  0
 73 78  1  0  0  0
 74 76  1  0  0  0
 74 77  1  0  0  0
 74147  1  0  0  0
 74148  1  0  0  0
 75 78  1  0  0  0
 75149  1  0  0  0
 75150  1  0  0  0
 76151  1  0  0  0
 77 78  1  0  0  0
 77152  1  0  0  0
 78153  1  0  0  0
M  ISO  4   1 100  68 101  75 101  76 100
M  END
> <chiral flag>
0

> <version>
0

> <s_m_source_file>
/data/baiqing/PycharmProjects/Reinvent-master-3.2/result/LINK_invent/BTK/process_docking_weight1_custom_sum_contain_oxygen_bond_distance_aromatic_linkinvent_7_9_3/rearranged_h_0094.sdf

> <i_m_source_file_index>
93

> <r_mmod_Potential_Energy-OPLS-2005>
2290.65649414062

> <r_mmod_Stretch_Energy-OPLS-2005>
991.611572265625

> <r_mmod_Bend_Energy-OPLS-2005>
712.71826171875

> <r_mmod_Torsional_Energy-OPLS-2005>
275.577178955078

> <r_mmod_Improper_Torsional_Energy-OPLS-2005>
13.5476055145264

> <r_mmod_Van_der_Waal_Energy-OPLS-2005>
104.178581237793

> <r_mmod_Electrostatic_Energy-OPLS-2005>
-300.433837890625

> <r_mmod_Solvation_Energy-OPLS-2005>
-182.853668212891

> <b_mmod_Minimization_Converged-OPLS-2005>
0

> <r_mmod_RMS_Derivative-OPLS-2005>
1.50313436985016

$$$$
95
                    3D
 Structure written by MMmdl.
170177  0  0  1  0            999 V2000
  -30.7186  -14.5033   20.6087 C   0  0  0  0  0  0
  -30.4364  -12.3403   19.4283 C   0  0  0  0  0  0
  -29.4998  -12.4962   18.2128 C   0  0  0  0  0  0
  -28.0250  -12.3527   18.6332 C   0  0  0  0  0  0
  -27.6693  -13.2050   19.8797 C   0  0  2  0  0  0
  -28.7130  -13.0038   21.0020 C   0  0  0  0  0  0
  -25.2663  -13.8152   20.5710 C   0  0  0  0  0  0
  -24.1890  -13.0435   20.9191 C   0  0  0  0  0  0
  -24.6439  -11.6907   20.8764 C   0  0  0  0  0  0
  -23.9100  -10.4292   21.0425 C   0  0  0  0  0  0
  -24.3637   -9.4199   21.9201 C   0  0  0  0  0  0
  -23.6299   -8.2246   22.0770 C   0  0  0  0  0  0
  -22.4279   -8.0307   21.3552 C   0  0  0  0  0  0
  -21.9937   -9.0284   20.4655 C   0  0  0  0  0  0
  -22.7283  -10.2152   20.3063 C   0  0  0  0  0  0
  -21.6837   -6.0760   22.5280 C   0  0  0  0  0  0
  -21.4009   -6.5649   23.8222 C   0  0  0  0  0  0
  -21.3666   -5.6797   24.9186 C   0  0  0  0  0  0
  -21.6053   -4.3061   24.7223 C   0  0  0  0  0  0
  -21.8818   -3.8159   23.4336 C   0  0  0  0  0  0
  -21.9185   -4.6986   22.3395 C   0  0  0  0  0  0
  -22.7926  -13.5251   21.1853 C   0  0  0  0  0  0
  -22.1658   -4.2173   21.0968 F   0  0  0  0  0  0
  -21.5635   -3.4543   25.7731 F   0  0  0  0  0  0
  -30.0409  -13.3271   20.4501 N   0  0  0  0  0  0
  -26.3088  -12.9315   20.3398 N   0  0  0  0  0  0
  -25.9363  -11.6476   20.5797 N   0  0  0  0  0  0
  -22.0566  -12.8226   22.0393 N   0  0  0  0  0  0
  -25.4422  -15.1858   20.4106 N   0  0  0  0  0  0
  -31.7866  -14.7325   20.0326 O   0  0  0  0  0  0
  -21.6627   -6.8913   21.4245 O   0  0  0  0  0  0
  -22.3638  -14.5589   20.6755 O   0  0  0  0  0  0
  -24.6106  -31.8659   23.2176 C   0  0  0  0  0  0
  -25.8994  -32.4823   23.8455 C   0  0  1  0  0  0
  -27.2350  -27.4269   20.0866 C   0  0  0  0  0  0
  -25.5856  -33.8634   24.2364 N   0  0  0  0  0  0
  -23.3997  -30.4888   21.5601 C   0  0  2  0  0  0
  -24.8466  -28.9643   20.1124 C   0  0  0  0  0  0
  -22.7399  -29.4580   22.5048 C   0  0  0  0  0  0
  -18.0224  -28.1327   22.8480 C   0  0  0  0  0  0
  -24.1480  -36.7343   23.2649 C   0  0  0  0  0  0
  -25.9306  -30.8301   21.3727 C   0  0  0  0  0  0
  -26.0079  -29.4676   20.7104 C   0  0  0  0  0  0
  -27.1993  -28.7060   20.6945 C   0  0  0  0  0  0
  -26.0524  -26.9451   19.4747 C   0  0  0  0  0  0
  -24.8639  -27.7026   19.4933 C   0  0  0  0  0  0
  -23.6069  -29.8299   20.1707 C   0  0  0  0  0  0
  -25.4102  -36.3121   24.0340 C   0  0  1  0  0  0
  -20.5817  -28.3595   23.1348 C   0  0  2  0  0  0
  -20.6719  -26.9334   22.5435 C   0  0  0  0  0  0
  -19.5711  -26.6342   21.5210 C   0  0  0  0  0  0
  -18.1878  -26.7871   22.1607 C   0  0  0  0  0  0
  -19.1473  -28.8787   23.2891 C   0  0  0  0  0  0
  -18.9406  -30.1401   23.8886 C   0  0  0  0  0  0
  -17.6405  -30.6555   24.0516 C   0  0  0  0  0  0
  -25.9011  -34.9471   23.5147 C   0  0  0  0  0  0
  -16.5296  -29.9032   23.6317 C   0  0  0  0  0  0
  -16.7212  -28.6438   23.0362 C   0  0  0  0  0  0
  -26.4452  -31.6617   25.0780 C   0  0  0  0  0  0
  -25.3743  -31.3641   26.1539 C   0  0  0  0  0  0
  -27.0308  -30.3068   24.6162 C   0  0  0  0  0  0
  -27.6017  -32.4379   25.7518 C   0  0  0  0  0  0
  -27.5582  -37.1800   24.8465 C   0  0  0  0  0  0
  -21.4122  -29.2956   22.3784 N   0  0  0  0  0  0
  -26.4302  -37.3785   23.9394 N   0  0  0  0  0  0
  -24.6653  -31.0771   22.1069 N   0  0  0  0  0  0
  -23.4186  -28.8107   23.3062 O   0  0  0  0  0  0
  -28.4156  -26.7021   20.1165 O   0  0  0  0  0  0
  -26.5590  -34.8897   22.4719 O   0  0  0  0  0  0
  -23.5304  -32.1415   23.7572 O   0  0  0  0  0  0
  -28.1700  -21.0590   18.0742 C   0  0  0  0  0  0
  -26.6754  -21.3189   20.1274 C   0  0  0  0  0  0
  -29.0076  -19.5488   22.3908 C   0  0  0  0  0  0
  -30.4252  -15.4988   22.8127 C   0  0  0  0  0  0
  -29.5758  -24.5655   20.4709 C   0  0  0  0  0  0
  -30.0301  -23.1866   19.8890 C   0  0  0  0  0  0
  -30.3068  -18.0111   20.8317 C   0  0  0  0  0  0
  -30.0889  -20.6144   20.3535 C   0  0  0  0  0  0
  -29.4700  -16.6826   20.8526 C   0  0  0  0  0  0
  -28.4046  -25.3024   19.7717 C   0  0  0  0  0  0
  -27.9338  -21.8144   19.3934 C   0  0  0  0  0  0
  -29.4334  -19.3122   20.9295 C   0  0  2  0  0  0
  -29.2030  -21.9225   20.2937 C   0  0  2  0  0  0
  -30.1310  -15.4584   21.3786 N   0  0  0  0  0  0
  -31.4771  -12.4558   19.1193 H   0  0  0  0  0  0
  -30.3638  -11.3336   19.8417 H   0  0  0  0  0  0
  -29.7412  -11.7467   17.4568 H   0  0  0  0  0  0
  -29.6565  -13.4686   17.7439 H   0  0  0  0  0  0
  -27.8449  -11.2976   18.8452 H   0  0  0  0  0  0
  -27.3670  -12.6086   17.8020 H   0  0  0  0  0  0
  -27.7110  -14.2497   19.5720 H   0  0  0  0  0  0
  -28.7060  -11.9688   21.3467 H   0  0  0  0  0  0
  -28.4637  -13.6050   21.8770 H   0  0  0  0  0  0
  -25.2777   -9.5668   22.4788 H   0  0  0  0  0  0
  -23.9995   -7.4640   22.7497 H   0  0  0  0  0  0
  -21.0868   -8.8838   19.8954 H   0  0  0  0  0  0
  -22.3771  -10.9709   19.6185 H   0  0  0  0  0  0
  -21.2002   -7.6160   23.9735 H   0  0  0  0  0  0
  -21.1491   -6.0522   25.9089 H   0  0  0  0  0  0
  -22.0589   -2.7623   23.2819 H   0  0  0  0  0  0
  -22.4135  -11.9808   22.4660 H   0  0  0  0  0  0
  -21.1255  -13.1351   22.2730 H   0  0  0  0  0  0
  -24.6927  -15.8536   20.5525 H   0  0  0  0  0  0
  -26.3028  -15.6149   20.0946 H   0  0  0  0  0  0
  -26.7046  -32.5537   23.1201 H   0  0  0  0  0  0
  -24.9983  -33.9823   25.0491 H   0  0  0  0  0  0
  -22.6821  -31.3011   21.4311 H   0  0  0  0  0  0
  -23.3735  -35.9683   23.3298 H   0  0  0  0  0  0
  -24.3563  -36.9001   22.2068 H   0  0  0  0  0  0
  -23.7242  -37.6534   23.6708 H   0  0  0  0  0  0
  -26.0503  -31.6043   20.6142 H   0  0  0  0  0  0
  -26.8135  -30.8774   21.9975 H   0  0  0  0  0  0
  -28.0963  -29.0895   21.1623 H   0  0  0  0  0  0
  -26.0254  -25.9889   18.9737 H   0  0  0  0  0  0
  -23.9689  -27.3153   19.0238 H   0  0  0  0  0  0
  -23.7016  -30.6134   19.4170 H   0  0  0  0  0  0
  -22.7304  -29.2478   19.8828 H   0  0  0  0  0  0
  -25.1275  -36.1993   25.0834 H   0  0  0  0  0  0
  -20.9859  -28.3128   24.1486 H   0  0  0  0  0  0
  -20.5625  -26.2167   23.3586 H   0  0  0  0  0  0
  -21.6587  -26.7374   22.1230 H   0  0  0  0  0  0
  -19.6874  -25.6254   21.1233 H   0  0  0  0  0  0
  -19.6682  -27.3138   20.6734 H   0  0  0  0  0  0
  -17.4157  -26.6596   21.3994 H   0  0  0  0  0  0
  -18.0246  -26.0009   22.8994 H   0  0  0  0  0  0
  -19.7880  -30.7192   24.2290 H   0  0  0  0  0  0
  -17.4958  -31.6254   24.5075 H   0  0  0  0  0  0
  -15.5291  -30.2926   23.7675 H   0  0  0  0  0  0
  -15.8593  -28.0757   22.7130 H   0  0  0  0  0  0
  -24.5957  -30.6943   25.7880 H   0  0  0  0  0  0
  -24.8868  -32.2733   26.5063 H   0  0  0  0  0  0
  -25.8142  -30.8794   27.0262 H   0  0  0  0  0  0
  -26.2843  -29.6788   24.1285 H   0  0  0  0  0  0
  -27.4127  -29.7354   25.4635 H   0  0  0  0  0  0
  -27.8659  -30.4401   23.9280 H   0  0  0  0  0  0
  -27.2631  -33.3693   26.2072 H   0  0  0  0  0  0
  -28.3798  -32.6927   25.0314 H   0  0  0  0  0  0
  -28.0702  -31.8531   26.5439 H   0  0  0  0  0  0
  -28.2588  -38.0110   24.7547 H   0  0  0  0  0  0
  -28.1086  -36.2634   24.6272 H   0  0  0  0  0  0
  -27.2285  -37.1439   25.8863 H   0  0  0  0  0  0
  -20.9281  -29.8695   21.7028 H   0  0  0  0  0  0
  -26.0201  -38.2869   24.1389 H   0  0  0  0  0  0
  -27.3163  -21.1754   17.4059 H   0  0  0  0  0  0
  -28.3171  -19.9909   18.2334 H   0  0  0  0  0  0
  -29.0457  -21.4423   17.5504 H   0  0  0  0  0  0
  -25.7983  -21.4157   19.4874 H   0  0  0  0  0  0
  -26.4833  -21.9136   21.0215 H   0  0  0  0  0  0
  -26.7359  -20.2756   20.4289 H   0  0  0  0  0  0
  -28.5617  -18.6610   22.8379 H   0  0  0  0  0  0
  -28.2678  -20.3445   22.4702 H   0  0  0  0  0  0
  -29.8628  -19.8339   23.0051 H   0  0  0  0  0  0
  -29.5734  -15.8753   23.3810 H   0  0  0  0  0  0
  -31.2775  -16.1496   23.0097 H   0  0  0  0  0  0
  -30.6718  -14.5108   23.2047 H   0  0  0  0  0  0
  -30.4392  -25.2314   20.4310 H   0  0  0  0  0  0
  -29.3480  -24.4625   21.5332 H   0  0  0  0  0  0
  -31.0537  -23.0456   20.2383 H   0  0  0  0  0  0
  -30.1173  -23.2554   18.8033 H   0  0  0  0  0  0
  -30.8938  -18.0311   19.9132 H   0  0  0  0  0  0
  -31.0392  -18.0200   21.6393 H   0  0  0  0  0  0
  -30.4895  -20.4064   19.3604 H   0  0  0  0  0  0
  -30.9673  -20.8288   20.9648 H   0  0  0  0  0  0
  -29.1017  -16.4841   19.8449 H   0  0  0  0  0  0
  -28.5672  -16.8288   21.4446 H   0  0  0  0  0  0
  -27.4776  -24.8174   20.0820 H   0  0  0  0  0  0
  -28.4847  -25.2093   18.6874 H   0  0  0  0  0  0
  -27.6701  -22.8242   19.0896 H   0  0  0  0  0  0
  -28.5437  -19.1121   20.3366 H   0  0  0  0  0  0
  -28.8780  -22.1256   21.3128 H   0  0  0  0  0  0
  1 25  1  0  0  0
  1 30  2  0  0  0
  1 84  1  0  0  0
  2  3  1  0  0  0
  2 25  1  0  0  0
  2 85  1  0  0  0
  2 86  1  0  0  0
  3  4  1  0  0  0
  3 87  1  0  0  0
  3 88  1  0  0  0
  4  5  1  0  0  0
  4 89  1  0  0  0
  4 90  1  0  0  0
  5  6  1  0  0  0
  5 26  1  0  0  0
  5 91  1  0  0  0
  6 25  1  0  0  0
  6 92  1  0  0  0
  6 93  1  0  0  0
  7  8  2  0  0  0
  7 26  1  0  0  0
  7 29  1  0  0  0
  8  9  1  0  0  0
  8 22  1  0  0  0
  9 10  1  0  0  0
  9 27  2  0  0  0
 10 11  2  0  0  0
 10 15  1  0  0  0
 11 12  1  0  0  0
 11 94  1  0  0  0
 12 13  2  0  0  0
 12 95  1  0  0  0
 13 14  1  0  0  0
 13 31  1  0  0  0
 14 15  2  0  0  0
 14 96  1  0  0  0
 15 97  1  0  0  0
 16 17  2  0  0  0
 16 21  1  0  0  0
 16 31  1  0  0  0
 17 18  1  0  0  0
 17 98  1  0  0  0
 18 19  2  0  0  0
 18 99  1  0  0  0
 19 20  1  0  0  0
 19 24  1  0  0  0
 20 21  2  0  0  0
 20100  1  0  0  0
 21 23  1  0  0  0
 22 28  1  0  0  0
 22 32  2  0  0  0
 26 27  1  0  0  0
 28101  1  0  0  0
 28102  1  0  0  0
 29103  1  0  0  0
 29104  1  0  0  0
 33 34  1  0  0  0
 33 66  1  0  0  0
 33 70  2  0  0  0
 34 36  1  0  0  0
 34 59  1  0  0  0
 34105  1  0  0  0
 35 44  2  0  0  0
 35 45  1  0  0  0
 35 68  1  0  0  0
 36 56  1  0  0  0
 36106  1  0  0  0
 37 39  1  0  0  0
 37 47  1  0  0  0
 37 66  1  0  0  0
 37107  1  0  0  0
 38 43  2  0  0  0
 38 46  1  0  0  0
 38 47  1  0  0  0
 39 64  1  0  0  0
 39 67  2  0  0  0
 40 52  1  0  0  0
 40 53  2  0  0  0
 40 58  1  0  0  0
 41108  1  0  0  0
 41109  1  0  0  0
 41110  1  0  0  0
 41 48  1  0  0  0
 42 43  1  0  0  0
 42 66  1  0  0  0
 42111  1  0  0  0
 42112  1  0  0  0
 43 44  1  0  0  0
 44113  1  0  0  0
 45 46  2  0  0  0
 45114  1  0  0  0
 46115  1  0  0  0
 47116  1  0  0  0
 47117  1  0  0  0
 48 56  1  0  0  0
 48 65  1  0  0  0
 48118  1  0  0  0
 49 50  1  0  0  0
 49 53  1  0  0  0
 49 64  1  0  0  0
 49119  1  0  0  0
 50 51  1  0  0  0
 50120  1  0  0  0
 50121  1  0  0  0
 51 52  1  0  0  0
 51122  1  0  0  0
 51123  1  0  0  0
 52124  1  0  0  0
 52125  1  0  0  0
 53 54  1  0  0  0
 54 55  2  0  0  0
 54126  1  0  0  0
 55 57  1  0  0  0
 55127  1  0  0  0
 56 69  2  0  0  0
 57 58  2  0  0  0
 57128  1  0  0  0
 58129  1  0  0  0
 59 60  1  0  0  0
 59 61  1  0  0  0
 59 62  1  0  0  0
 60130  1  0  0  0
 60131  1  0  0  0
 60132  1  0  0  0
 61133  1  0  0  0
 61134  1  0  0  0
 61135  1  0  0  0
 62136  1  0  0  0
 62137  1  0  0  0
 62138  1  0  0  0
 63 65  1  0  0  0
 63139  1  0  0  0
 63140  1  0  0  0
 63141  1  0  0  0
 64142  1  0  0  0
 65143  1  0  0  0
 68 80  1  0  0  0
 71144  1  0  0  0
 71145  1  0  0  0
 71146  1  0  0  0
 71 81  1  0  0  0
 72 81  1  0  0  0
 72147  1  0  0  0
 72148  1  0  0  0
 72149  1  0  0  0
 73150  1  0  0  0
 73151  1  0  0  0
 73152  1  0  0  0
 73 82  1  0  0  0
 74 84  1  0  0  0
 74153  1  0  0  0
 74154  1  0  0  0
 74155  1  0  0  0
 75 76  1  0  0  0
 75 80  1  0  0  0
 75156  1  0  0  0
 75157  1  0  0  0
 76158  1  0  0  0
 76159  1  0  0  0
 76 83  1  0  0  0
 77 79  1  0  0  0
 77 82  1  0  0  0
 77160  1  0  0  0
 77161  1  0  0  0
 78 82  1  0  0  0
 78 83  1  0  0  0
 78162  1  0  0  0
 78163  1  0  0  0
 79 84  1  0  0  0
 79164  1  0  0  0
 79165  1  0  0  0
 80166  1  0  0  0
 80167  1  0  0  0
 81 83  1  0  0  0
 81168  1  0  0  0
 82169  1  0  0  0
 83170  1  0  0  0
M  ISO  4   1 100  68 101  80 101  84 100
M  END
> <chiral flag>
0

> <version>
0

> <s_m_source_file>
/data/baiqing/PycharmProjects/Reinvent-master-3.2/result/LINK_invent/BTK/process_docking_weight1_custom_sum_contain_oxygen_bond_distance_aromatic_linkinvent_7_9_3/rearranged_h_0094.sdf

> <i_m_source_file_index>
94

> <r_mmod_Potential_Energy-OPLS-2005>
181.466339111328

> <r_mmod_Stretch_Energy-OPLS-2005>
49.8931884765625

> <r_mmod_Bend_Energy-OPLS-2005>
121.516815185547

> <r_mmod_Torsional_Energy-OPLS-2005>
329.023162841797

> <r_mmod_Improper_Torsional_Energy-OPLS-2005>
2.61327624320984

> <r_mmod_Van_der_Waal_Energy-OPLS-2005>
127.826332092285

> <r_mmod_Electrostatic_Energy-OPLS-2005>
-290.335754394531

> <r_mmod_Solvation_Energy-OPLS-2005>
-174.073669433594

> <b_mmod_Minimization_Converged-OPLS-2005>
0

> <r_mmod_RMS_Derivative-OPLS-2005>
3.29362177848816

$$$$
96
                    3D
 Structure written by MMmdl.
175183  0  0  1  0            999 V2000
  -29.6584  -16.6113   20.4364 C   0  0  0  0  0  0
  -30.2357  -13.8765   19.5826 C   0  0  0  0  0  0
  -29.5511  -12.9851   18.4556 C   0  0  0  0  0  0
  -28.2351  -12.3722   18.9383 C   0  0  0  0  0  0
  -27.5357  -13.4052   19.8286 C   0  0  2  0  0  0
  -28.4220  -14.0820   20.9224 C   0  0  0  0  0  0
  -25.1944  -13.8369   20.5883 C   0  0  0  0  0  0
  -24.1462  -13.0407   20.9350 C   0  0  0  0  0  0
  -24.6309  -11.6980   20.8740 C   0  0  0  0  0  0
  -23.9058  -10.4298   21.0385 C   0  0  0  0  0  0
  -24.3583   -9.4203   21.9179 C   0  0  0  0  0  0
  -23.6254   -8.2216   22.0743 C   0  0  0  0  0  0
  -22.4234   -8.0238   21.3536 C   0  0  0  0  0  0
  -21.9873   -9.0209   20.4636 C   0  0  0  0  0  0
  -22.7214  -10.2096   20.3051 C   0  0  0  0  0  0
  -21.6834   -6.0696   22.5279 C   0  0  0  0  0  0
  -21.4001   -6.5611   23.8210 C   0  0  0  0  0  0
  -21.3653   -5.6772   24.9179 C   0  0  0  0  0  0
  -21.6050   -4.3038   24.7244 C   0  0  0  0  0  0
  -21.8831   -3.8118   23.4372 C   0  0  0  0  0  0
  -21.9200   -4.6925   22.3417 C   0  0  0  0  0  0
  -22.7485  -13.5060   21.1973 C   0  0  0  0  0  0
  -22.1663   -4.2093   21.0997 F   0  0  0  0  0  0
  -21.5631   -3.4539   25.7767 F   0  0  0  0  0  0
  -29.3581  -15.0593   20.2476 N   0  0  0  0  0  0
  -26.2459  -12.9869   20.3341 N   0  0  0  0  0  0
  -25.9282  -11.6846   20.5641 N   0  0  0  0  0  0
  -22.0103  -12.8094   22.0539 N   0  0  0  0  0  0
  -25.3499  -15.2113   20.4312 N   0  0  0  0  0  0
  -30.9226  -16.4451   20.3743 O   0  0  0  0  0  0
  -21.6618   -6.8827   21.4234 O   0  0  0  0  0  0
  -22.3228  -14.5373   20.6801 O   0  0  0  0  0  0
  -24.7252  -31.6942   23.2825 C   0  0  0  0  0  0
  -25.9658  -32.4201   23.8888 C   0  0  1  0  0  0
  -28.0130  -26.5235   19.5213 C   0  0  0  0  0  0
  -25.5756  -33.8151   24.2013 N   0  0  0  0  0  0
  -23.3342  -29.9917   21.7343 C   0  0  2  0  0  0
  -24.6501  -27.7697   19.5688 C   0  0  0  0  0  0
  -22.5021  -29.4040   22.7731 C   0  0  0  0  0  0
  -17.9462  -28.1193   22.8489 C   0  0  0  0  0  0
  -24.1474  -36.6994   23.2573 C   0  0  0  0  0  0
  -26.5996  -30.2146   21.9433 C   0  0  0  0  0  0
  -26.9904  -28.8009   20.7421 C   0  0  0  0  0  0
  -28.2115  -27.8784   20.4559 C   0  0  0  0  0  0
  -26.5986  -25.8511   18.7478 C   0  0  0  0  0  0
  -25.0042  -26.4254   18.7715 C   0  0  0  0  0  0
  -23.1260  -28.6517   20.2709 C   0  0  0  0  0  0
  -25.4139  -36.2741   24.0206 C   0  0  1  0  0  0
  -20.4485  -28.2943   23.1985 C   0  0  2  0  0  0
  -20.5728  -26.8779   22.6009 C   0  0  0  0  0  0
  -19.5140  -26.6121   21.5322 C   0  0  0  0  0  0
  -18.1195  -26.7794   22.1484 C   0  0  0  0  0  0
  -19.0579  -28.8496   23.3195 C   0  0  0  0  0  0
  -18.8810  -30.1222   23.9063 C   0  0  0  0  0  0
  -17.5907  -30.6540   24.0505 C   0  0  0  0  0  0
  -25.9126  -34.9037   23.4999 C   0  0  0  0  0  0
  -16.4774  -29.9136   23.6172 C   0  0  0  0  0  0
  -16.6563  -28.6521   23.0198 C   0  0  0  0  0  0
  -26.4923  -31.7169   25.2076 C   0  0  0  0  0  0
  -25.3532  -31.4006   26.2055 C   0  0  0  0  0  0
  -27.2445  -30.3906   25.0230 C   0  0  0  0  0  0
  -27.5593  -32.6093   25.8759 C   0  0  0  0  0  0
  -27.5527  -37.1605   24.8469 C   0  0  0  0  0  0
  -21.2510  -29.2165   22.4509 N   0  0  0  0  0  0
  -26.4290  -37.3526   23.9362 N   0  0  0  0  0  0
  -24.8900  -30.6353   22.4292 N   0  0  0  0  0  0
  -22.9848  -29.0155   23.8196 O   0  0  0  0  0  0
  -29.1895  -26.0505   19.2365 O   0  0  0  0  0  0
  -26.5997  -34.8587   22.4780 O   0  0  0  0  0  0
  -23.6045  -32.0939   23.6286 O   0  0  0  0  0  0
  -25.9273  -29.5917   18.7575 C   0  0  0  0  0  0
  -25.1255  -29.8482   20.1711 C   0  0  0  0  0  0
  -26.6063  -28.2102   18.6728 C   0  0  0  0  0  0
  -25.1166  -28.2224   21.6545 C   0  0  0  0  0  0
  -24.7259  -31.3534   19.8569 C   0  0  0  0  0  0
  -24.1958  -25.7564   26.1546 C   0  0  0  0  0  0
  -26.5874  -26.4093   25.6014 C   0  0  0  0  0  0
  -27.4954  -28.1508   17.3734 C   0  0  0  0  0  0
  -25.3219  -27.8922   23.1378 C   0  0  0  0  0  0
  -28.5459  -27.0315   16.9737 C   0  0  0  0  0  0
  -24.7636  -26.6237   23.8099 C   0  0  0  0  0  0
  -27.4375  -22.4422   20.5748 C   0  0  0  0  0  0
  -26.7796  -24.6688   21.1993 C   0  0  0  0  0  0
  -28.2988  -20.2283   20.9400 C   0  0  0  0  0  0
  -29.6552  -26.6797   18.0343 C   0  0  0  0  0  0
  -25.0952  -26.6770   25.3245 C   0  0  0  0  0  0
  -26.1175  -26.7631   20.8375 N   0  0  0  0  0  0
  -28.8242  -18.2171   20.4258 N   0  0  0  0  0  0
  -31.1097  -14.3439   19.1283 H   0  0  0  0  0  0
  -30.6696  -13.2262   20.3429 H   0  0  0  0  0  0
  -30.2275  -12.1987   18.1213 H   0  0  0  0  0  0
  -29.3543  -13.6061   17.5770 H   0  0  0  0  0  0
  -28.4440  -11.4833   19.5338 H   0  0  0  0  0  0
  -27.6078  -12.0622   18.1019 H   0  0  0  0  0  0
  -27.2955  -14.2000   19.1170 H   0  0  0  0  0  0
  -28.9109  -13.3480   21.5625 H   0  0  0  0  0  0
  -27.7960  -14.6644   21.6000 H   0  0  0  0  0  0
  -25.2674   -9.5700   22.4850 H   0  0  0  0  0  0
  -23.9936   -7.4612   22.7498 H   0  0  0  0  0  0
  -21.0784   -8.8742   19.8960 H   0  0  0  0  0  0
  -22.3605  -10.9647   19.6206 H   0  0  0  0  0  0
  -21.1970   -7.6117   23.9703 H   0  0  0  0  0  0
  -21.1454   -6.0499   25.9078 H   0  0  0  0  0  0
  -22.0613   -2.7573   23.2907 H   0  0  0  0  0  0
  -22.3661  -11.9757   22.4994 H   0  0  0  0  0  0
  -21.0722  -13.1216   22.2716 H   0  0  0  0  0  0
  -24.5962  -15.8774   20.5574 H   0  0  0  0  0  0
  -26.2108  -15.6401   20.1147 H   0  0  0  0  0  0
  -26.7827  -32.4501   23.1712 H   0  0  0  0  0  0
  -24.9449  -33.9379   24.9769 H   0  0  0  0  0  0
  -22.7414  -30.8527   21.4328 H   0  0  0  0  0  0
  -23.3772  -35.9293   23.3266 H   0  0  0  0  0  0
  -24.3439  -36.8695   22.1962 H   0  0  0  0  0  0
  -23.7256  -37.6164   23.6710 H   0  0  0  0  0  0
  -27.0506  -31.1084   21.5030 H   0  0  0  0  0  0
  -27.2719  -29.9363   22.7149 H   0  0  0  0  0  0
  -29.1793  -28.1151   20.8708 H   0  0  0  0  0  0
  -26.7263  -24.9419   18.1789 H   0  0  0  0  0  0
  -24.2192  -25.8434   18.3213 H   0  0  0  0  0  0
  -22.6543  -29.1432   19.4253 H   0  0  0  0  0  0
  -22.4091  -27.8836   20.5566 H   0  0  0  0  0  0
  -25.1334  -36.1489   25.0712 H   0  0  0  0  0  0
  -20.7890  -28.2284   24.2310 H   0  0  0  0  0  0
  -20.3995  -26.1609   23.4086 H   0  0  0  0  0  0
  -21.5800  -26.6606   22.2412 H   0  0  0  0  0  0
  -19.6266  -25.6042   21.1283 H   0  0  0  0  0  0
  -19.6360  -27.3050   20.6967 H   0  0  0  0  0  0
  -17.3612  -26.6747   21.3714 H   0  0  0  0  0  0
  -17.9332  -25.9899   22.8775 H   0  0  0  0  0  0
  -19.7372  -30.6921   24.2481 H   0  0  0  0  0  0
  -17.4519  -31.6244   24.5036 H   0  0  0  0  0  0
  -15.4808  -30.3131   23.7404 H   0  0  0  0  0  0
  -15.7957  -28.0950   22.6748 H   0  0  0  0  0  0
  -24.6947  -30.6095   25.8427 H   0  0  0  0  0  0
  -24.7352  -32.2803   26.4037 H   0  0  0  0  0  0
  -25.7415  -31.0481   27.1597 H   0  0  0  0  0  0
  -26.6407  -29.5858   24.6643 H   0  0  0  0  0  0
  -27.6077  -30.0273   25.9890 H   0  0  0  0  0  0
  -28.1567  -30.5104   24.4458 H   0  0  0  0  0  0
  -27.1553  -33.5585   26.2243 H   0  0  0  0  0  0
  -28.3584  -32.8469   25.1767 H   0  0  0  0  0  0
  -28.0270  -32.1384   26.7393 H   0  0  0  0  0  0
  -28.2583  -37.9857   24.7547 H   0  0  0  0  0  0
  -28.1028  -36.2413   24.6388 H   0  0  0  0  0  0
  -27.2186  -37.1304   25.8853 H   0  0  0  0  0  0
  -20.9015  -29.5400   21.5601 H   0  0  0  0  0  0
  -26.0093  -38.2600   24.1343 H   0  0  0  0  0  0
  -26.0489  -30.3264   17.9683 H   0  0  0  0  0  0
  -24.0248  -31.3354   19.0167 H   0  0  0  0  0  0
  -25.6121  -31.8959   19.5191 H   0  0  0  0  0  0
  -24.2887  -32.0224   20.5952 H   0  0  0  0  0  0
  -24.4428  -25.8259   27.2145 H   0  0  0  0  0  0
  -24.3237  -24.7200   25.8525 H   0  0  0  0  0  0
  -23.1439  -26.0340   26.0589 H   0  0  0  0  0  0
  -26.8979  -25.4204   25.2664 H   0  0  0  0  0  0
  -26.7899  -26.4756   26.6695 H   0  0  0  0  0  0
  -27.2370  -27.1401   25.1179 H   0  0  0  0  0  0
  -28.1056  -29.0590   17.4178 H   0  0  0  0  0  0
  -26.8372  -28.3470   16.5281 H   0  0  0  0  0  0
  -25.1467  -28.7151   23.7915 H   0  0  0  0  0  0
  -26.3999  -27.7802   23.2277 H   0  0  0  0  0  0
  -29.0575  -27.3807   16.0710 H   0  0  0  0  0  0
  -28.0405  -26.1246   16.6309 H   0  0  0  0  0  0
  -25.1730  -25.7165   23.3727 H   0  0  0  0  0  0
  -23.6886  -26.5524   23.6746 H   0  0  0  0  0  0
  -28.0455  -22.7031   19.7129 H   0  0  0  0  0  0
  -26.4769  -22.1431   20.1455 H   0  0  0  0  0  0
  -27.6871  -24.8722   21.7676 H   0  0  0  0  0  0
  -26.0771  -24.3812   21.9810 H   0  0  0  0  0  0
  -27.5652  -19.9329   21.6915 H   0  0  0  0  0  0
  -29.1800  -20.4527   21.5421 H   0  0  0  0  0  0
  -30.2064  -27.5757   18.3115 H   0  0  0  0  0  0
  -30.3862  -26.0014   17.5867 H   0  0  0  0  0  0
  -24.8921  -27.6856   25.6858 H   0  0  0  0  0  0
  -29.3988  -18.5141   19.6485 H   0  0  0  0  0  0
  1 25  1  0  0  0
  1 30  2  0  0  0
  1 88  1  0  0  0
  2  3  1  0  0  0
  2 25  1  0  0  0
  2 89  1  0  0  0
  2 90  1  0  0  0
  3  4  1  0  0  0
  3 91  1  0  0  0
  3 92  1  0  0  0
  4  5  1  0  0  0
  4 93  1  0  0  0
  4 94  1  0  0  0
  5  6  1  0  0  0
  5 26  1  0  0  0
  5 95  1  0  0  0
  6 25  1  0  0  0
  6 96  1  0  0  0
  6 97  1  0  0  0
  7  8  2  0  0  0
  7 26  1  0  0  0
  7 29  1  0  0  0
  8  9  1  0  0  0
  8 22  1  0  0  0
  9 10  1  0  0  0
  9 27  2  0  0  0
 10 11  2  0  0  0
 10 15  1  0  0  0
 11 12  1  0  0  0
 11 98  1  0  0  0
 12 13  2  0  0  0
 12 99  1  0  0  0
 13 14  1  0  0  0
 13 31  1  0  0  0
 14 15  2  0  0  0
 14100  1  0  0  0
 15101  1  0  0  0
 16 17  2  0  0  0
 16 21  1  0  0  0
 16 31  1  0  0  0
 17 18  1  0  0  0
 17102  1  0  0  0
 18 19  2  0  0  0
 18103  1  0  0  0
 19 20  1  0  0  0
 19 24  1  0  0  0
 20 21  2  0  0  0
 20104  1  0  0  0
 21 23  1  0  0  0
 22 28  1  0  0  0
 22 32  2  0  0  0
 26 27  1  0  0  0
 28105  1  0  0  0
 28106  1  0  0  0
 29107  1  0  0  0
 29108  1  0  0  0
 33 34  1  0  0  0
 33 66  1  0  0  0
 33 70  2  0  0  0
 34 36  1  0  0  0
 34 59  1  0  0  0
 34109  1  0  0  0
 35 44  2  0  0  0
 35 45  1  0  0  0
 35 68  1  0  0  0
 36 56  1  0  0  0
 36110  1  0  0  0
 37 39  1  0  0  0
 37 47  1  0  0  0
 37 66  1  0  0  0
 37111  1  0  0  0
 38 43  2  0  0  0
 38 46  1  0  0  0
 38 47  1  0  0  0
 39 64  1  0  0  0
 39 67  2  0  0  0
 40 52  1  0  0  0
 40 53  2  0  0  0
 40 58  1  0  0  0
 41112  1  0  0  0
 41113  1  0  0  0
 41114  1  0  0  0
 41 48  1  0  0  0
 42 43  1  0  0  0
 42 66  1  0  0  0
 42115  1  0  0  0
 42116  1  0  0  0
 43 44  1  0  0  0
 44117  1  0  0  0
 45 46  2  0  0  0
 45118  1  0  0  0
 46119  1  0  0  0
 47120  1  0  0  0
 47121  1  0  0  0
 48 56  1  0  0  0
 48 65  1  0  0  0
 48122  1  0  0  0
 49 50  1  0  0  0
 49 53  1  0  0  0
 49 64  1  0  0  0
 49123  1  0  0  0
 50 51  1  0  0  0
 50124  1  0  0  0
 50125  1  0  0  0
 51 52  1  0  0  0
 51126  1  0  0  0
 51127  1  0  0  0
 52128  1  0  0  0
 52129  1  0  0  0
 53 54  1  0  0  0
 54 55  2  0  0  0
 54130  1  0  0  0
 55 57  1  0  0  0
 55131  1  0  0  0
 56 69  2  0  0  0
 57 58  2  0  0  0
 57132  1  0  0  0
 58133  1  0  0  0
 59 60  1  0  0  0
 59 61  1  0  0  0
 59 62  1  0  0  0
 60134  1  0  0  0
 60135  1  0  0  0
 60136  1  0  0  0
 61137  1  0  0  0
 61138  1  0  0  0
 61139  1  0  0  0
 62140  1  0  0  0
 62141  1  0  0  0
 62142  1  0  0  0
 63 65  1  0  0  0
 63143  1  0  0  0
 63144  1  0  0  0
 63145  1  0  0  0
 64146  1  0  0  0
 65147  1  0  0  0
 68 85  1  0  0  0
 71 72  1  0  0  0
 71 73  2  0  0  0
 71148  1  0  0  0
 72 74  2  0  0  0
 72 75  1  0  0  0
 73 78  1  0  0  0
 73 87  1  0  0  0
 74 79  1  0  0  0
 74 87  1  0  0  0
 75149  1  0  0  0
 75150  1  0  0  0
 75151  1  0  0  0
 76152  1  0  0  0
 76153  1  0  0  0
 76154  1  0  0  0
 76 86  1  0  0  0
 77 86  1  0  0  0
 77155  1  0  0  0
 77156  1  0  0  0
 77157  1  0  0  0
 78 80  1  0  0  0
 78158  1  0  0  0
 78159  1  0  0  0
 79 81  1  0  0  0
 79160  1  0  0  0
 79161  1  0  0  0
 80 85  1  0  0  0
 80162  1  0  0  0
 80163  1  0  0  0
 81 86  1  0  0  0
 81164  1  0  0  0
 81165  1  0  0  0
 82 83  1  0  0  0
 82 84  1  0  0  0
 82166  1  0  0  0
 82167  1  0  0  0
 83 87  1  0  0  0
 83168  1  0  0  0
 83169  1  0  0  0
 84 88  1  0  0  0
 84170  1  0  0  0
 84171  1  0  0  0
 85172  1  0  0  0
 85173  1  0  0  0
 86174  1  0  0  0
 88175  1  0  0  0
M  ISO  4   1 100  68 101  85 101  88 100
M  END
> <chiral flag>
0

> <version>
0

> <s_m_source_file>
/data/baiqing/PycharmProjects/Reinvent-master-3.2/result/LINK_invent/BTK/process_docking_weight1_custom_sum_contain_oxygen_bond_distance_aromatic_linkinvent_7_9_3/rearranged_h_0094.sdf

> <i_m_source_file_index>
95

> <r_mmod_Potential_Energy-OPLS-2005>
25103.0078125

> <r_mmod_Stretch_Energy-OPLS-2005>
14760.46875

> <r_mmod_Bend_Energy-OPLS-2005>
1659.01171875

> <r_mmod_Torsional_Energy-OPLS-2005>
393.496612548828

> <r_mmod_Improper_Torsional_Energy-OPLS-2005>
31.4052734375

> <r_mmod_Van_der_Waal_Energy-OPLS-2005>
5143.25

> <r_mmod_Electrostatic_Energy-OPLS-2005>
-354.89013671875

> <r_mmod_Solvation_Energy-OPLS-2005>
-194.801284790039

> <b_mmod_Minimization_Converged-OPLS-2005>
0

> <r_mmod_RMS_Derivative-OPLS-2005>
17.7159938812256

$$$$
97
                    3D
 Structure written by MMmdl.
170178  0  0  1  0            999 V2000
  -30.6969  -14.5041   20.5725 C   0  0  0  0  0  0
  -30.4268  -12.3347   19.4168 C   0  0  0  0  0  0
  -29.4912  -12.5129   18.2028 C   0  0  0  0  0  0
  -28.0142  -12.3682   18.6203 C   0  0  0  0  0  0
  -27.6605  -13.2095   19.8762 C   0  0  2  0  0  0
  -28.7069  -13.0034   20.9943 C   0  0  0  0  0  0
  -25.2580  -13.8158   20.5714 C   0  0  0  0  0  0
  -24.1837  -13.0439   20.9188 C   0  0  0  0  0  0
  -24.6383  -11.6904   20.8726 C   0  0  0  0  0  0
  -23.9041  -10.4294   21.0405 C   0  0  0  0  0  0
  -24.3603   -9.4212   21.9185 C   0  0  0  0  0  0
  -23.6285   -8.2247   22.0758 C   0  0  0  0  0  0
  -22.4271   -8.0278   21.3548 C   0  0  0  0  0  0
  -21.9900   -9.0244   20.4657 C   0  0  0  0  0  0
  -22.7213  -10.2128   20.3061 C   0  0  0  0  0  0
  -21.6857   -6.0726   22.5279 C   0  0  0  0  0  0
  -21.4009   -6.5640   23.8205 C   0  0  0  0  0  0
  -21.3657   -5.6801   24.9175 C   0  0  0  0  0  0
  -21.6054   -4.3063   24.7228 C   0  0  0  0  0  0
  -21.8826   -3.8144   23.4354 C   0  0  0  0  0  0
  -21.9190   -4.6955   22.3401 C   0  0  0  0  0  0
  -22.7859  -13.5239   21.1860 C   0  0  0  0  0  0
  -22.1671   -4.2145   21.0977 F   0  0  0  0  0  0
  -21.5632   -3.4547   25.7735 F   0  0  0  0  0  0
  -30.0315  -13.3224   20.4365 N   0  0  0  0  0  0
  -26.3027  -12.9336   20.3389 N   0  0  0  0  0  0
  -25.9313  -11.6486   20.5758 N   0  0  0  0  0  0
  -22.0503  -12.8224   22.0415 N   0  0  0  0  0  0
  -25.4307  -15.1877   20.4124 N   0  0  0  0  0  0
  -31.8217  -14.6905   20.1045 O   0  0  0  0  0  0
  -21.6652   -6.8872   21.4240 O   0  0  0  0  0  0
  -22.3558  -14.5554   20.6710 O   0  0  0  0  0  0
  -24.6163  -31.8648   23.2096 C   0  0  0  0  0  0
  -25.9058  -32.4804   23.8381 C   0  0  1  0  0  0
  -27.2371  -27.4166   20.0978 C   0  0  0  0  0  0
  -25.5901  -33.8601   24.2324 N   0  0  0  0  0  0
  -23.4062  -30.4881   21.5490 C   0  0  2  0  0  0
  -24.8543  -28.9450   20.1190 C   0  0  0  0  0  0
  -22.7406  -29.4659   22.4988 C   0  0  0  0  0  0
  -18.0265  -28.1384   22.8487 C   0  0  0  0  0  0
  -24.1482  -36.7313   23.2645 C   0  0  0  0  0  0
  -25.9366  -30.8227   21.3672 C   0  0  0  0  0  0
  -26.0160  -29.4547   20.7140 C   0  0  0  0  0  0
  -27.2138  -28.6997   20.6970 C   0  0  0  0  0  0
  -26.0590  -26.9183   19.5071 C   0  0  0  0  0  0
  -24.8710  -27.6757   19.5127 C   0  0  0  0  0  0
  -23.6176  -29.8171   20.1650 C   0  0  0  0  0  0
  -25.4103  -36.3102   24.0340 C   0  0  1  0  0  0
  -20.5854  -28.3679   23.1313 C   0  0  2  0  0  0
  -20.6767  -26.9418   22.5414 C   0  0  0  0  0  0
  -19.5754  -26.6391   21.5208 C   0  0  0  0  0  0
  -18.1923  -26.7933   22.1611 C   0  0  0  0  0  0
  -19.1515  -28.8842   23.2896 C   0  0  0  0  0  0
  -18.9455  -30.1448   23.8904 C   0  0  0  0  0  0
  -17.6460  -30.6592   24.0569 C   0  0  0  0  0  0
  -25.9030  -34.9467   23.5133 C   0  0  0  0  0  0
  -16.5343  -29.9100   23.6331 C   0  0  0  0  0  0
  -16.7255  -28.6515   23.0350 C   0  0  0  0  0  0
  -26.4487  -31.6585   25.0711 C   0  0  0  0  0  0
  -25.3750  -31.3687   26.1460 C   0  0  0  0  0  0
  -27.0352  -30.3026   24.6113 C   0  0  0  0  0  0
  -27.6056  -32.4323   25.7465 C   0  0  0  0  0  0
  -27.5583  -37.1808   24.8463 C   0  0  0  0  0  0
  -21.4135  -29.3041   22.3711 N   0  0  0  0  0  0
  -26.4296  -37.3785   23.9408 N   0  0  0  0  0  0
  -24.6710  -31.0733   22.1002 N   0  0  0  0  0  0
  -23.4158  -28.8224   23.3070 O   0  0  0  0  0  0
  -28.3896  -26.6597   20.0502 O   0  0  0  0  0  0
  -26.5590  -34.8927   22.4694 O   0  0  0  0  0  0
  -23.5352  -32.1413   23.7476 O   0  0  0  0  0  0
  -29.4024  -20.4820   20.7164 C   0  0  0  0  0  0
  -29.8978  -21.8170   20.8110 C   0  0  0  0  0  0
  -31.2967  -21.9969   20.5868 C   0  0  0  0  0  0
  -30.2678  -19.4031   20.4166 C   0  0  0  0  0  0
  -32.0734  -20.8582   20.2372 C   0  0  0  0  0  0
  -33.5645  -20.9362   19.9459 C   0  0  0  0  0  0
  -32.5546  -22.7213   23.2013 C   0  0  0  0  0  0
  -27.6792  -22.5063   21.9439 C   0  0  0  0  0  0
  -31.9875  -23.3672   20.7375 C   0  0  0  0  0  0
  -29.7844  -17.9389   20.3026 C   0  0  0  0  0  0
  -32.2549  -23.8348   22.1871 C   0  0  0  0  0  0
  -28.6662  -24.1227   20.2372 C   0  0  0  0  0  0
  -30.4413  -16.9275   21.2964 C   0  0  0  0  0  0
  -28.4221  -25.5097   20.9201 C   0  0  0  0  0  0
  -28.9801  -22.9875   21.2749 C   0  0  2  0  0  0
  -31.5698  -19.6108   20.1486 N   0  0  0  0  0  0
  -30.0014  -15.5173   21.1331 N   0  0  0  0  0  0
  -31.4683  -12.4458   19.1090 H   0  0  0  0  0  0
  -30.3417  -11.3256   19.8217 H   0  0  0  0  0  0
  -29.7296  -11.7778   17.4336 H   0  0  0  0  0  0
  -29.6515  -13.4922   17.7487 H   0  0  0  0  0  0
  -27.8291  -11.3115   18.8183 H   0  0  0  0  0  0
  -27.3598  -12.6413   17.7902 H   0  0  0  0  0  0
  -27.6995  -14.2560   19.5722 H   0  0  0  0  0  0
  -28.6936  -11.9694   21.3415 H   0  0  0  0  0  0
  -28.4679  -13.6051   21.8707 H   0  0  0  0  0  0
  -25.2750   -9.5701   22.4758 H   0  0  0  0  0  0
  -24.0008   -7.4644   22.7473 H   0  0  0  0  0  0
  -21.0843   -8.8750   19.8951 H   0  0  0  0  0  0
  -22.3667  -10.9669   19.6177 H   0  0  0  0  0  0
  -21.1988   -7.6148   23.9704 H   0  0  0  0  0  0
  -21.1488   -6.0533   25.9079 H   0  0  0  0  0  0
  -22.0595   -2.7603   23.2852 H   0  0  0  0  0  0
  -22.4129  -11.9883   22.4796 H   0  0  0  0  0  0
  -21.1111  -13.1249   22.2608 H   0  0  0  0  0  0
  -24.6630  -15.8416   20.5242 H   0  0  0  0  0  0
  -26.2831  -15.6310   20.0940 H   0  0  0  0  0  0
  -26.7125  -32.5495   23.1141 H   0  0  0  0  0  0
  -25.0046  -33.9745   25.0467 H   0  0  0  0  0  0
  -22.6960  -31.3046   21.4074 H   0  0  0  0  0  0
  -23.3740  -35.9651   23.3308 H   0  0  0  0  0  0
  -24.3578  -36.8925   22.2061 H   0  0  0  0  0  0
  -23.7247  -37.6522   23.6659 H   0  0  0  0  0  0
  -26.0486  -31.5891   20.5994 H   0  0  0  0  0  0
  -26.8235  -30.8745   21.9868 H   0  0  0  0  0  0
  -28.1142  -29.0914   21.1502 H   0  0  0  0  0  0
  -26.0664  -25.9440   19.0382 H   0  0  0  0  0  0
  -23.9785  -27.2759   19.0526 H   0  0  0  0  0  0
  -23.7273  -30.5900   19.4033 H   0  0  0  0  0  0
  -22.7396  -29.2386   19.8706 H   0  0  0  0  0  0
  -25.1286  -36.1967   25.0834 H   0  0  0  0  0  0
  -20.9925  -28.3261   24.1447 H   0  0  0  0  0  0
  -20.5684  -26.2287   23.3605 H   0  0  0  0  0  0
  -21.6646  -26.7485   22.1207 H   0  0  0  0  0  0
  -19.6924  -25.6302   21.1243 H   0  0  0  0  0  0
  -19.6705  -27.3197   20.6739 H   0  0  0  0  0  0
  -17.4199  -26.6672   21.4006 H   0  0  0  0  0  0
  -18.0331  -26.0068   22.9004 H   0  0  0  0  0  0
  -19.7932  -30.7256   24.2279 H   0  0  0  0  0  0
  -17.5023  -31.6278   24.5177 H   0  0  0  0  0  0
  -15.5348  -30.3014   23.7661 H   0  0  0  0  0  0
  -15.8648  -28.0847   22.7066 H   0  0  0  0  0  0
  -24.5901  -30.7069   25.7793 H   0  0  0  0  0  0
  -24.8963  -32.2833   26.4957 H   0  0  0  0  0  0
  -25.8092  -30.8806   27.0192 H   0  0  0  0  0  0
  -26.2906  -29.6734   24.1218 H   0  0  0  0  0  0
  -27.4177  -29.7321   25.4590 H   0  0  0  0  0  0
  -27.8711  -30.4355   23.9243 H   0  0  0  0  0  0
  -27.2670  -33.3608   26.2079 H   0  0  0  0  0  0
  -28.3835  -32.6911   25.0269 H   0  0  0  0  0  0
  -28.0762  -31.8422   26.5342 H   0  0  0  0  0  0
  -28.2604  -38.0103   24.7511 H   0  0  0  0  0  0
  -28.1075  -36.2633   24.6285 H   0  0  0  0  0  0
  -27.2294  -37.1462   25.8864 H   0  0  0  0  0  0
  -20.9301  -29.8737   21.6905 H   0  0  0  0  0  0
  -26.0180  -38.2862   24.1408 H   0  0  0  0  0  0
  -28.3613  -20.2602   20.8972 H   0  0  0  0  0  0
  -33.7515  -21.5069   19.0360 H   0  0  0  0  0  0
  -33.9997  -19.9461   19.8036 H   0  0  0  0  0  0
  -34.1017  -21.4077   20.7679 H   0  0  0  0  0  0
  -32.7334  -23.1420   24.1916 H   0  0  0  0  0  0
  -33.4411  -22.1521   22.9242 H   0  0  0  0  0  0
  -31.7203  -22.0254   23.2904 H   0  0  0  0  0  0
  -27.8895  -21.8188   22.7636 H   0  0  0  0  0  0
  -27.0226  -22.0056   21.2330 H   0  0  0  0  0  0
  -27.1207  -23.3404   22.3648 H   0  0  0  0  0  0
  -31.4445  -24.1443   20.2092 H   0  0  0  0  0  0
  -32.9428  -23.3623   20.2155 H   0  0  0  0  0  0
  -29.9661  -17.6046   19.2811 H   0  0  0  0  0  0
  -28.7015  -17.9182   20.4315 H   0  0  0  0  0  0
  -33.0769  -24.5532   22.1828 H   0  0  0  0  0  0
  -31.4008  -24.4031   22.5523 H   0  0  0  0  0  0
  -29.4777  -24.2233   19.5218 H   0  0  0  0  0  0
  -27.8021  -23.8428   19.6347 H   0  0  0  0  0  0
  -31.5260  -16.9881   21.2048 H   0  0  0  0  0  0
  -30.2127  -17.2356   22.3176 H   0  0  0  0  0  0
  -29.2325  -25.7008   21.6248 H   0  0  0  0  0  0
  -27.5164  -25.4567   21.5254 H   0  0  0  0  0  0
  -29.5337  -23.4481   22.0876 H   0  0  0  0  0  0
  -29.0880  -15.2794   21.4889 H   0  0  0  0  0  0
  1 25  1  0  0  0
  1 30  2  0  0  0
  1 87  1  0  0  0
  2  3  1  0  0  0
  2 25  1  0  0  0
  2 88  1  0  0  0
  2 89  1  0  0  0
  3  4  1  0  0  0
  3 90  1  0  0  0
  3 91  1  0  0  0
  4  5  1  0  0  0
  4 92  1  0  0  0
  4 93  1  0  0  0
  5  6  1  0  0  0
  5 26  1  0  0  0
  5 94  1  0  0  0
  6 25  1  0  0  0
  6 95  1  0  0  0
  6 96  1  0  0  0
  7  8  2  0  0  0
  7 26  1  0  0  0
  7 29  1  0  0  0
  8  9  1  0  0  0
  8 22  1  0  0  0
  9 10  1  0  0  0
  9 27  2  0  0  0
 10 11  2  0  0  0
 10 15  1  0  0  0
 11 12  1  0  0  0
 11 97  1  0  0  0
 12 13  2  0  0  0
 12 98  1  0  0  0
 13 14  1  0  0  0
 13 31  1  0  0  0
 14 15  2  0  0  0
 14 99  1  0  0  0
 15100  1  0  0  0
 16 17  2  0  0  0
 16 21  1  0  0  0
 16 31  1  0  0  0
 17 18  1  0  0  0
 17101  1  0  0  0
 18 19  2  0  0  0
 18102  1  0  0  0
 19 20  1  0  0  0
 19 24  1  0  0  0
 20 21  2  0  0  0
 20103  1  0  0  0
 21 23  1  0  0  0
 22 28  1  0  0  0
 22 32  2  0  0  0
 26 27  1  0  0  0
 28104  1  0  0  0
 28105  1  0  0  0
 29106  1  0  0  0
 29107  1  0  0  0
 33 34  1  0  0  0
 33 66  1  0  0  0
 33 70  2  0  0  0
 34 36  1  0  0  0
 34 59  1  0  0  0
 34108  1  0  0  0
 35 44  2  0  0  0
 35 45  1  0  0  0
 35 68  1  0  0  0
 36 56  1  0  0  0
 36109  1  0  0  0
 37 39  1  0  0  0
 37 47  1  0  0  0
 37 66  1  0  0  0
 37110  1  0  0  0
 38 43  2  0  0  0
 38 46  1  0  0  0
 38 47  1  0  0  0
 39 64  1  0  0  0
 39 67  2  0  0  0
 40 52  1  0  0  0
 40 53  2  0  0  0
 40 58  1  0  0  0
 41111  1  0  0  0
 41112  1  0  0  0
 41113  1  0  0  0
 41 48  1  0  0  0
 42 43  1  0  0  0
 42 66  1  0  0  0
 42114  1  0  0  0
 42115  1  0  0  0
 43 44  1  0  0  0
 44116  1  0  0  0
 45 46  2  0  0  0
 45117  1  0  0  0
 46118  1  0  0  0
 47119  1  0  0  0
 47120  1  0  0  0
 48 56  1  0  0  0
 48 65  1  0  0  0
 48121  1  0  0  0
 49 50  1  0  0  0
 49 53  1  0  0  0
 49 64  1  0  0  0
 49122  1  0  0  0
 50 51  1  0  0  0
 50123  1  0  0  0
 50124  1  0  0  0
 51 52  1  0  0  0
 51125  1  0  0  0
 51126  1  0  0  0
 52127  1  0  0  0
 52128  1  0  0  0
 53 54  1  0  0  0
 54 55  2  0  0  0
 54129  1  0  0  0
 55 57  1  0  0  0
 55130  1  0  0  0
 56 69  2  0  0  0
 57 58  2  0  0  0
 57131  1  0  0  0
 58132  1  0  0  0
 59 60  1  0  0  0
 59 61  1  0  0  0
 59 62  1  0  0  0
 60133  1  0  0  0
 60134  1  0  0  0
 60135  1  0  0  0
 61136  1  0  0  0
 61137  1  0  0  0
 61138  1  0  0  0
 62139  1  0  0  0
 62140  1  0  0  0
 62141  1  0  0  0
 63 65  1  0  0  0
 63142  1  0  0  0
 63143  1  0  0  0
 63144  1  0  0  0
 64145  1  0  0  0
 65146  1  0  0  0
 68 84  1  0  0  0
 71 72  2  0  0  0
 71 74  1  0  0  0
 71147  1  0  0  0
 72 73  1  0  0  0
 72 85  1  0  0  0
 73 75  2  0  0  0
 73 79  1  0  0  0
 74 80  1  0  0  0
 74 86  2  0  0  0
 75 76  1  0  0  0
 75 86  1  0  0  0
 76148  1  0  0  0
 76149  1  0  0  0
 76150  1  0  0  0
 77 81  1  0  0  0
 77151  1  0  0  0
 77152  1  0  0  0
 77153  1  0  0  0
 78154  1  0  0  0
 78155  1  0  0  0
 78156  1  0  0  0
 78 85  1  0  0  0
 79 81  1  0  0  0
 79157  1  0  0  0
 79158  1  0  0  0
 80 83  1  0  0  0
 80159  1  0  0  0
 80160  1  0  0  0
 81161  1  0  0  0
 81162  1  0  0  0
 82 84  1  0  0  0
 82 85  1  0  0  0
 82163  1  0  0  0
 82164  1  0  0  0
 83 87  1  0  0  0
 83165  1  0  0  0
 83166  1  0  0  0
 84167  1  0  0  0
 84168  1  0  0  0
 85169  1  0  0  0
 87170  1  0  0  0
M  ISO  4   1 100  68 101  84 101  87 100
M  END
> <chiral flag>
0

> <version>
0

> <s_m_source_file>
/data/baiqing/PycharmProjects/Reinvent-master-3.2/result/LINK_invent/BTK/process_docking_weight1_custom_sum_contain_oxygen_bond_distance_aromatic_linkinvent_7_9_3/rearranged_h_0094.sdf

> <i_m_source_file_index>
96

> <r_mmod_Potential_Energy-OPLS-2005>
-212.077346801758

> <r_mmod_Stretch_Energy-OPLS-2005>
50.4501342773438

> <r_mmod_Bend_Energy-OPLS-2005>
110.157402038574

> <r_mmod_Torsional_Energy-OPLS-2005>
224.006988525391

> <r_mmod_Improper_Torsional_Energy-OPLS-2005>
3.4428083896637

> <r_mmod_Van_der_Waal_Energy-OPLS-2005>
155.078887939453

> <r_mmod_Electrostatic_Energy-OPLS-2005>
-548.703796386719

> <r_mmod_Solvation_Energy-OPLS-2005>
-221.59228515625

> <b_mmod_Minimization_Converged-OPLS-2005>
0

> <r_mmod_RMS_Derivative-OPLS-2005>
2.3345308303833

$$$$
