0
                    3D
 Structure written by MMmdl.
156165  0  0  1  0            999 V2000
  -30.5404  -14.9852   20.4260 C   0  0  0  0  0  0
  -30.4340  -12.6116   19.5113 C   0  0  0  0  0  0
  -29.5224  -12.5376   18.2642 C   0  0  0  0  0  0
  -28.0557  -12.3205   18.6789 C   0  0  0  0  0  0
  -27.6277  -13.2537   19.8419 C   0  0  2  0  0  0
  -28.6672  -13.2913   20.9821 C   0  0  0  0  0  0
  -25.2453  -13.8231   20.5726 C   0  0  0  0  0  0
  -24.1775  -13.0447   20.9237 C   0  0  0  0  0  0
  -24.6396  -11.6931   20.8757 C   0  0  0  0  0  0
  -23.9084  -10.4295   21.0407 C   0  0  0  0  0  0
  -24.3631   -9.4208   21.9184 C   0  0  0  0  0  0
  -23.6301   -8.2244   22.0753 C   0  0  0  0  0  0
  -22.4282   -8.0284   21.3545 C   0  0  0  0  0  0
  -21.9923   -9.0258   20.4646 C   0  0  0  0  0  0
  -22.7255  -10.2135   20.3056 C   0  0  0  0  0  0
  -21.6857   -6.0738   22.5279 C   0  0  0  0  0  0
  -21.4015   -6.5641   23.8212 C   0  0  0  0  0  0
  -21.3659   -5.6792   24.9174 C   0  0  0  0  0  0
  -21.6044   -4.3055   24.7224 C   0  0  0  0  0  0
  -21.8820   -3.8148   23.4346 C   0  0  0  0  0  0
  -21.9193   -4.6965   22.3403 C   0  0  0  0  0  0
  -22.7794  -13.5210   21.1884 C   0  0  0  0  0  0
  -22.1663   -4.2150   21.0981 F   0  0  0  0  0  0
  -21.5627   -3.4539   25.7738 F   0  0  0  0  0  0
  -29.9371  -13.7216   20.3834 N   0  0  0  0  0  0
  -26.2876  -12.9469   20.3261 N   0  0  0  0  0  0
  -25.9330  -11.6593   20.5747 N   0  0  0  0  0  0
  -22.0446  -12.8190   22.0434 N   0  0  0  0  0  0
  -25.4131  -15.1959   20.4143 N   0  0  0  0  0  0
  -31.7261  -15.0243   20.0738 O   0  0  0  0  0  0
  -21.6644   -6.8882   21.4242 O   0  0  0  0  0  0
  -22.3477  -14.5514   20.6727 O   0  0  0  0  0  0
  -24.6456  -31.8395   23.1837 C   0  0  0  0  0  0
  -25.9217  -32.4667   23.8237 C   0  0  1  0  0  0
  -27.2210  -27.1045   20.1537 C   0  0  0  0  0  0
  -25.5955  -33.8474   24.2157 N   0  0  0  0  0  0
  -23.4504  -30.4560   21.5288 C   0  0  2  0  0  0
  -24.9007  -28.8733   20.1050 C   0  0  0  0  0  0
  -22.7576  -29.4520   22.4839 C   0  0  0  0  0  0
  -18.0304  -28.1400   22.8476 C   0  0  0  0  0  0
  -24.1490  -36.7239   23.2643 C   0  0  0  0  0  0
  -26.0065  -30.7026   21.3861 C   0  0  0  0  0  0
  -26.0755  -29.3103   20.7280 C   0  0  0  0  0  0
  -27.2306  -28.4399   20.7369 C   0  0  0  0  0  0
  -26.0209  -26.7712   19.4900 C   0  0  0  0  0  0
  -24.8882  -27.6195   19.4706 C   0  0  0  0  0  0
  -23.6777  -29.7791   20.1491 C   0  0  0  0  0  0
  -25.4125  -36.3014   24.0313 C   0  0  1  0  0  0
  -20.5919  -28.3725   23.1233 C   0  0  2  0  0  0
  -20.6785  -26.9425   22.5409 C   0  0  0  0  0  0
  -19.5759  -26.6384   21.5215 C   0  0  0  0  0  0
  -18.1941  -26.7939   22.1624 C   0  0  0  0  0  0
  -19.1562  -28.8882   23.2845 C   0  0  0  0  0  0
  -18.9478  -30.1477   23.8870 C   0  0  0  0  0  0
  -17.6474  -30.6595   24.0560 C   0  0  0  0  0  0
  -25.9077  -34.9392   23.5047 C   0  0  0  0  0  0
  -16.5364  -29.9086   23.6340 C   0  0  0  0  0  0
  -16.7289  -28.6508   23.0358 C   0  0  0  0  0  0
  -26.4529  -31.6554   25.0697 C   0  0  0  0  0  0
  -25.3708  -31.3764   26.1390 C   0  0  0  0  0  0
  -27.0397  -30.2944   24.6308 C   0  0  0  0  0  0
  -27.6050  -32.4331   25.7486 C   0  0  0  0  0  0
  -27.5573  -37.1775   24.8464 C   0  0  0  0  0  0
  -21.4265  -29.3040   22.3597 N   0  0  0  0  0  0
  -26.4281  -37.3736   23.9410 N   0  0  0  0  0  0
  -24.7206  -31.0223   22.0878 N   0  0  0  0  0  0
  -23.4208  -28.8081   23.3010 O   0  0  0  0  0  0
  -28.2879  -26.1334   20.2786 O   0  0  0  0  0  0
  -26.5667  -34.8902   22.4630 O   0  0  0  0  0  0
  -23.5572  -32.1284   23.7049 O   0  0  0  0  0  0
  -29.8579  -17.5626   19.7456 C   0  0  0  0  0  0
  -29.0416  -16.6760   21.7058 C   0  0  0  0  0  0
  -28.1157  -20.3341   21.9360 C   0  0  0  0  0  0
  -29.7001  -18.9477   20.6318 C   0  0  1  0  0  0
  -28.6959  -20.3214   20.5011 C   0  0  2  0  0  0
  -29.2821  -18.2261   21.9228 C   0  0  1  0  0  0
  -28.3656  -23.1501   20.5629 C   0  0  0  0  0  0
  -28.3700  -24.6543   19.7504 C   0  0  0  0  0  0
  -29.7872  -16.2115   20.5239 N   0  0  0  0  0  0
  -29.0800  -21.8080   20.1162 N   0  0  0  0  0  0
  -28.1186  -18.9509   22.4611 N   0  3  0  0  0  0
  -31.4693  -12.7597   19.2006 H   0  0  0  0  0  0
  -30.4254  -11.6638   20.0523 H   0  0  0  0  0  0
  -29.8478  -11.7340   17.6018 H   0  0  0  0  0  0
  -29.6094  -13.4623   17.6913 H   0  0  0  0  0  0
  -27.9537  -11.2793   18.9875 H   0  0  0  0  0  0
  -27.3942  -12.4506   17.8217 H   0  0  0  0  0  0
  -27.5887  -14.2556   19.4128 H   0  0  0  0  0  0
  -28.7642  -12.3150   21.4597 H   0  0  0  0  0  0
  -28.3539  -13.9838   21.7631 H   0  0  0  0  0  0
  -25.2776   -9.5682   22.4759 H   0  0  0  0  0  0
  -24.0009   -7.4635   22.7473 H   0  0  0  0  0  0
  -21.0854   -8.8780   19.8951 H   0  0  0  0  0  0
  -22.3716  -10.9674   19.6163 H   0  0  0  0  0  0
  -21.2009   -7.6149   23.9716 H   0  0  0  0  0  0
  -21.1479   -6.0523   25.9077 H   0  0  0  0  0  0
  -22.0599   -2.7610   23.2846 H   0  0  0  0  0  0
  -22.4072  -11.9853   22.4817 H   0  0  0  0  0  0
  -21.1054  -13.1193   22.2630 H   0  0  0  0  0  0
  -24.6347  -15.8407   20.4965 H   0  0  0  0  0  0
  -26.2447  -15.6231   20.0283 H   0  0  0  0  0  0
  -26.7279  -32.5259   23.0958 H   0  0  0  0  0  0
  -25.0081  -33.9579   25.0292 H   0  0  0  0  0  0
  -22.7546  -31.2828   21.3707 H   0  0  0  0  0  0
  -23.3758  -35.9564   23.3292 H   0  0  0  0  0  0
  -24.3574  -36.8887   22.2060 H   0  0  0  0  0  0
  -23.7242  -37.6430   23.6689 H   0  0  0  0  0  0
  -26.1669  -31.4554   20.6131 H   0  0  0  0  0  0
  -26.8754  -30.7531   22.0308 H   0  0  0  0  0  0
  -28.1229  -28.7671   21.2520 H   0  0  0  0  0  0
  -25.9182  -25.8069   19.0166 H   0  0  0  0  0  0
  -23.9894  -27.2792   18.9746 H   0  0  0  0  0  0
  -23.8147  -30.5509   19.3907 H   0  0  0  0  0  0
  -22.7919  -29.2212   19.8402 H   0  0  0  0  0  0
  -25.1318  -36.1829   25.0804 H   0  0  0  0  0  0
  -21.0011  -28.3319   24.1354 H   0  0  0  0  0  0
  -20.5671  -26.2340   23.3633 H   0  0  0  0  0  0
  -21.6651  -26.7422   22.1213 H   0  0  0  0  0  0
  -19.6918  -25.6290   21.1258 H   0  0  0  0  0  0
  -19.6699  -27.3183   20.6735 H   0  0  0  0  0  0
  -17.4213  -26.6687   21.4026 H   0  0  0  0  0  0
  -18.0334  -26.0088   22.9027 H   0  0  0  0  0  0
  -19.7952  -30.7302   24.2226 H   0  0  0  0  0  0
  -17.5027  -31.6272   24.5168 H   0  0  0  0  0  0
  -15.5363  -30.2981   23.7680 H   0  0  0  0  0  0
  -15.8691  -28.0819   22.7085 H   0  0  0  0  0  0
  -24.5900  -30.7090   25.7726 H   0  0  0  0  0  0
  -24.8878  -32.2951   26.4728 H   0  0  0  0  0  0
  -25.7990  -30.9007   27.0222 H   0  0  0  0  0  0
  -26.3019  -29.6659   24.1305 H   0  0  0  0  0  0
  -27.3981  -29.7255   25.4898 H   0  0  0  0  0  0
  -27.8941  -30.4165   23.9650 H   0  0  0  0  0  0
  -27.2631  -33.3655   26.1992 H   0  0  0  0  0  0
  -28.3899  -32.6855   25.0344 H   0  0  0  0  0  0
  -28.0673  -31.8503   26.5464 H   0  0  0  0  0  0
  -28.2580  -38.0082   24.7516 H   0  0  0  0  0  0
  -28.1080  -36.2612   24.6283 H   0  0  0  0  0  0
  -27.2292  -37.1416   25.8867 H   0  0  0  0  0  0
  -20.9483  -29.8742   21.6761 H   0  0  0  0  0  0
  -26.0141  -38.2799   24.1419 H   0  0  0  0  0  0
  -30.7917  -17.5958   19.1825 H   0  0  0  0  0  0
  -29.0663  -17.5378   18.9958 H   0  0  0  0  0  0
  -27.9861  -16.4676   21.5274 H   0  0  0  0  0  0
  -29.3291  -16.1154   22.5969 H   0  0  0  0  0  0
  -27.1134  -20.7621   21.9765 H   0  0  0  0  0  0
  -28.7522  -20.9334   22.5889 H   0  0  0  0  0  0
  -30.7103  -19.3278   20.7926 H   0  0  0  0  0  0
  -27.8781  -20.0397   19.8358 H   0  0  0  0  0  0
  -30.0961  -18.3462   22.6405 H   0  0  0  0  0  0
  -27.3127  -22.9027   20.7053 H   0  0  0  0  0  0
  -28.7343  -23.3456   21.5706 H   0  0  0  0  0  0
  -27.6786  -24.5605   18.9148 H   0  0  0  0  0  0
  -29.3403  -24.6671   19.2543 H   0  0  0  0  0  0
  -29.2253  -21.8414   19.1087 H   0  0  0  0  0  0
  -27.2785  -18.5013   22.1380 H   0  0  0  0  0  0
  -28.1109  -18.9457   23.4682 H   0  0  0  0  0  0
  1 25  1  0  0  0
  1 30  2  0  0  0
  1 79  1  0  0  0
  2  3  1  0  0  0
  2 25  1  0  0  0
  2 82  1  0  0  0
  2 83  1  0  0  0
  3  4  1  0  0  0
  3 84  1  0  0  0
  3 85  1  0  0  0
  4  5  1  0  0  0
  4 86  1  0  0  0
  4 87  1  0  0  0
  5  6  1  0  0  0
  5 26  1  0  0  0
  5 88  1  0  0  0
  6 25  1  0  0  0
  6 89  1  0  0  0
  6 90  1  0  0  0
  7  8  2  0  0  0
  7 26  1  0  0  0
  7 29  1  0  0  0
  8  9  1  0  0  0
  8 22  1  0  0  0
  9 10  1  0  0  0
  9 27  2  0  0  0
 10 11  2  0  0  0
 10 15  1  0  0  0
 11 12  1  0  0  0
 11 91  1  0  0  0
 12 13  2  0  0  0
 12 92  1  0  0  0
 13 14  1  0  0  0
 13 31  1  0  0  0
 14 15  2  0  0  0
 14 93  1  0  0  0
 15 94  1  0  0  0
 16 17  2  0  0  0
 16 21  1  0  0  0
 16 31  1  0  0  0
 17 18  1  0  0  0
 17 95  1  0  0  0
 18 19  2  0  0  0
 18 96  1  0  0  0
 19 20  1  0  0  0
 19 24  1  0  0  0
 20 21  2  0  0  0
 20 97  1  0  0  0
 21 23  1  0  0  0
 22 28  1  0  0  0
 22 32  2  0  0  0
 26 27  1  0  0  0
 28 98  1  0  0  0
 28 99  1  0  0  0
 29100  1  0  0  0
 29101  1  0  0  0
 33 34  1  0  0  0
 33 66  1  0  0  0
 33 70  2  0  0  0
 34 36  1  0  0  0
 34 59  1  0  0  0
 34102  1  0  0  0
 35 44  2  0  0  0
 35 45  1  0  0  0
 35 68  1  0  0  0
 36 56  1  0  0  0
 36103  1  0  0  0
 37 39  1  0  0  0
 37 47  1  0  0  0
 37 66  1  0  0  0
 37104  1  0  0  0
 38 43  2  0  0  0
 38 46  1  0  0  0
 38 47  1  0  0  0
 39 64  1  0  0  0
 39 67  2  0  0  0
 40 52  1  0  0  0
 40 53  2  0  0  0
 40 58  1  0  0  0
 41105  1  0  0  0
 41106  1  0  0  0
 41107  1  0  0  0
 41 48  1  0  0  0
 42 43  1  0  0  0
 42 66  1  0  0  0
 42108  1  0  0  0
 42109  1  0  0  0
 43 44  1  0  0  0
 44110  1  0  0  0
 45 46  2  0  0  0
 45111  1  0  0  0
 46112  1  0  0  0
 47113  1  0  0  0
 47114  1  0  0  0
 48 56  1  0  0  0
 48 65  1  0  0  0
 48115  1  0  0  0
 49 50  1  0  0  0
 49 53  1  0  0  0
 49 64  1  0  0  0
 49116  1  0  0  0
 50 51  1  0  0  0
 50117  1  0  0  0
 50118  1  0  0  0
 51 52  1  0  0  0
 51119  1  0  0  0
 51120  1  0  0  0
 52121  1  0  0  0
 52122  1  0  0  0
 53 54  1  0  0  0
 54 55  2  0  0  0
 54123  1  0  0  0
 55 57  1  0  0  0
 55124  1  0  0  0
 56 69  2  0  0  0
 57 58  2  0  0  0
 57125  1  0  0  0
 58126  1  0  0  0
 59 60  1  0  0  0
 59 61  1  0  0  0
 59 62  1  0  0  0
 60127  1  0  0  0
 60128  1  0  0  0
 60129  1  0  0  0
 61130  1  0  0  0
 61131  1  0  0  0
 61132  1  0  0  0
 62133  1  0  0  0
 62134  1  0  0  0
 62135  1  0  0  0
 63 65  1  0  0  0
 63136  1  0  0  0
 63137  1  0  0  0
 63138  1  0  0  0
 64139  1  0  0  0
 65140  1  0  0  0
 68 78  1  0  0  0
 71 79  1  0  0  0
 71141  1  0  0  0
 71142  1  0  0  0
 71 74  1  0  0  0
 72 79  1  0  0  0
 72143  1  0  0  0
 72144  1  0  0  0
 72 76  1  0  0  0
 73 75  1  0  0  0
 73 81  1  0  0  0
 73145  1  0  0  0
 73146  1  0  0  0
 74 75  1  0  0  0
 74 76  1  0  0  0
 74147  1  0  0  0
 75 80  1  0  0  0
 75148  1  0  0  0
 76 81  1  0  0  0
 76149  1  0  0  0
 77 78  1  0  0  0
 77 80  1  0  0  0
 77150  1  0  0  0
 77151  1  0  0  0
 78152  1  0  0  0
 78153  1  0  0  0
 80154  1  0  0  0
 81155  1  0  0  0
 81156  1  0  0  0
M  CHG  1  81   1
M  ISO  4   1 100  68 101  78 101  79 100
M  END
> <chiral flag>
0

> <version>
0

> <s_m_source_file>
/data/baiqing/PycharmProjects/Reinvent-master-3.2/result/LINK_invent/BTK/process_docking_weight1_custom_sum_contain_oxygen_bond_distance_aromatic_linkinvent_7_9_3/rearranged_h_0190.sdf

> <i_m_source_file_index>
1

> <r_mmod_Potential_Energy-OPLS-2005>
761.281860351562

> <r_mmod_Stretch_Energy-OPLS-2005>
296.898529052734

> <r_mmod_Bend_Energy-OPLS-2005>
391.586517333984

> <r_mmod_Torsional_Energy-OPLS-2005>
412.740905761719

> <r_mmod_Improper_Torsional_Energy-OPLS-2005>
10.2002811431885

> <r_mmod_Van_der_Waal_Energy-OPLS-2005>
104.366676330566

> <r_mmod_Electrostatic_Energy-OPLS-2005>
-185.309478759766

> <r_mmod_Solvation_Energy-OPLS-2005>
-484.8974609375

> <b_mmod_Minimization_Converged-OPLS-2005>
0

> <r_mmod_RMS_Derivative-OPLS-2005>
0.439911365509033

$$$$
1
                    3D
 Structure written by MMmdl.
168177  0  0  1  0            999 V2000
  -30.6782  -14.4830   20.6014 C   0  0  0  0  0  0
  -30.4254  -12.3243   19.4084 C   0  0  0  0  0  0
  -29.4879  -12.5263   18.1987 C   0  0  0  0  0  0
  -28.0083  -12.3879   18.6077 C   0  0  0  0  0  0
  -27.6623  -13.2065   19.8790 C   0  0  2  0  0  0
  -28.7058  -12.9598   20.9923 C   0  0  0  0  0  0
  -25.2593  -13.8161   20.5684 C   0  0  0  0  0  0
  -24.1848  -13.0423   20.9182 C   0  0  0  0  0  0
  -24.6415  -11.6897   20.8734 C   0  0  0  0  0  0
  -23.9086  -10.4284   21.0407 C   0  0  0  0  0  0
  -24.3640   -9.4197   21.9177 C   0  0  0  0  0  0
  -23.6312   -8.2238   22.0756 C   0  0  0  0  0  0
  -22.4297   -8.0291   21.3549 C   0  0  0  0  0  0
  -21.9942   -9.0257   20.4636 C   0  0  0  0  0  0
  -22.7268  -10.2132   20.3047 C   0  0  0  0  0  0
  -21.6858   -6.0751   22.5283 C   0  0  0  0  0  0
  -21.4013   -6.5651   23.8215 C   0  0  0  0  0  0
  -21.3653   -5.6802   24.9173 C   0  0  0  0  0  0
  -21.6051   -4.3064   24.7218 C   0  0  0  0  0  0
  -21.8828   -3.8160   23.4338 C   0  0  0  0  0  0
  -21.9195   -4.6982   22.3397 C   0  0  0  0  0  0
  -22.7872  -13.5211   21.1854 C   0  0  0  0  0  0
  -22.1670   -4.2170   21.0977 F   0  0  0  0  0  0
  -21.5623   -3.4547   25.7724 F   0  0  0  0  0  0
  -30.0346  -13.2913   20.4478 N   0  0  0  0  0  0
  -26.3030  -12.9329   20.3379 N   0  0  0  0  0  0
  -25.9336  -11.6487   20.5750 N   0  0  0  0  0  0
  -22.0538  -12.8168   22.0410 N   0  0  0  0  0  0
  -25.4324  -15.1874   20.4131 N   0  0  0  0  0  0
  -31.7821  -14.7072   20.1021 O   0  0  0  0  0  0
  -21.6649   -6.8895   21.4248 O   0  0  0  0  0  0
  -22.3554  -14.5525   20.6727 O   0  0  0  0  0  0
  -24.6159  -31.8650   23.2077 C   0  0  0  0  0  0
  -25.9050  -32.4806   23.8385 C   0  0  1  0  0  0
  -27.2470  -27.4170   20.0820 C   0  0  0  0  0  0
  -25.5911  -33.8606   24.2305 N   0  0  0  0  0  0
  -23.4040  -30.4859   21.5503 C   0  0  2  0  0  0
  -24.8504  -28.9443   20.1160 C   0  0  0  0  0  0
  -22.7411  -29.4642   22.5015 C   0  0  0  0  0  0
  -18.0266  -28.1372   22.8508 C   0  0  0  0  0  0
  -24.1483  -36.7308   23.2633 C   0  0  0  0  0  0
  -25.9336  -30.8224   21.3624 C   0  0  0  0  0  0
  -26.0110  -29.4543   20.7099 C   0  0  0  0  0  0
  -27.2054  -28.6949   20.6951 C   0  0  0  0  0  0
  -26.0569  -26.9160   19.5045 C   0  0  0  0  0  0
  -24.8682  -27.6723   19.5165 C   0  0  0  0  0  0
  -23.6097  -29.8091   20.1682 C   0  0  0  0  0  0
  -25.4102  -36.3094   24.0333 C   0  0  1  0  0  0
  -20.5852  -28.3664   23.1333 C   0  0  2  0  0  0
  -20.6748  -26.9398   22.5429 C   0  0  0  0  0  0
  -19.5729  -26.6378   21.5225 C   0  0  0  0  0  0
  -18.1907  -26.7928   22.1627 C   0  0  0  0  0  0
  -19.1512  -28.8842   23.2912 C   0  0  0  0  0  0
  -18.9437  -30.1447   23.8917 C   0  0  0  0  0  0
  -17.6440  -30.6583   24.0565 C   0  0  0  0  0  0
  -25.9042  -34.9469   23.5118 C   0  0  0  0  0  0
  -16.5328  -29.9078   23.6331 C   0  0  0  0  0  0
  -16.7252  -28.6486   23.0366 C   0  0  0  0  0  0
  -26.4470  -31.6617   25.0740 C   0  0  0  0  0  0
  -25.3719  -31.3721   26.1477 C   0  0  0  0  0  0
  -27.0328  -30.3066   24.6149 C   0  0  0  0  0  0
  -27.6022  -32.4360   25.7521 C   0  0  0  0  0  0
  -27.5591  -37.1776   24.8437 C   0  0  0  0  0  0
  -21.4137  -29.3035   22.3754 N   0  0  0  0  0  0
  -26.4274  -37.3802   23.9435 N   0  0  0  0  0  0
  -24.6698  -31.0733   22.0982 N   0  0  0  0  0  0
  -23.4181  -28.8189   23.3062 O   0  0  0  0  0  0
  -28.4375  -26.7038   20.0988 O   0  0  0  0  0  0
  -26.5592  -34.8925   22.4674 O   0  0  0  0  0  0
  -23.5349  -32.1408   23.7463 O   0  0  0  0  0  0
  -31.3941  -17.0891   22.4326 C   0  0  0  0  0  0
  -32.1085  -17.6340   21.1907 C   0  0  0  0  0  0
  -28.4789  -20.9800   20.1916 C   0  0  0  0  0  0
  -30.7077  -21.6018   19.6252 C   0  0  0  0  0  0
  -28.8722  -19.4716   20.2006 C   0  0  0  0  0  0
  -31.1390  -20.1121   19.6081 C   0  0  0  0  0  0
  -30.1388  -16.8638   21.5792 C   0  0  1  0  0  0
  -30.7431  -17.8104   20.4850 C   0  0  1  0  0  0
  -27.6105  -22.8422   17.8823 C   0  0  0  0  0  0
  -28.6547  -24.1760   19.8145 C   0  0  0  0  0  0
  -28.6638  -25.6086   19.1855 C   0  0  0  0  0  0
  -28.8638  -23.0449   18.7537 C   0  0  1  0  0  0
  -29.3038  -21.7058   19.2160 N   0  0  0  0  0  0
  -29.9540  -15.4251   21.2479 N   0  0  0  0  0  0
  -30.3136  -19.2576   20.5132 N   0  3  0  0  0  0
  -31.4655  -12.4426   19.1006 H   0  0  0  0  0  0
  -30.3403  -11.3067   19.7927 H   0  0  0  0  0  0
  -29.7224  -11.8111   17.4096 H   0  0  0  0  0  0
  -29.6538  -13.5163   17.7708 H   0  0  0  0  0  0
  -27.8014  -11.3304   18.7763 H   0  0  0  0  0  0
  -27.3644  -12.6943   17.7817 H   0  0  0  0  0  0
  -27.7117  -14.2584   19.5977 H   0  0  0  0  0  0
  -28.6880  -11.9125   21.2987 H   0  0  0  0  0  0
  -28.4559  -13.5220   21.8929 H   0  0  0  0  0  0
  -25.2790   -9.5659   22.4746 H   0  0  0  0  0  0
  -24.0015   -7.4630   22.7485 H   0  0  0  0  0  0
  -21.0880   -8.8787   19.8929 H   0  0  0  0  0  0
  -22.3743  -10.9687   19.6163 H   0  0  0  0  0  0
  -21.2014   -7.6164   23.9716 H   0  0  0  0  0  0
  -21.1467   -6.0535   25.9075 H   0  0  0  0  0  0
  -22.0612   -2.7628   23.2832 H   0  0  0  0  0  0
  -22.4191  -11.9796   22.4718 H   0  0  0  0  0  0
  -21.1158  -13.1164   22.2668 H   0  0  0  0  0  0
  -24.6672  -15.8429   20.5247 H   0  0  0  0  0  0
  -26.2865  -15.6283   20.0963 H   0  0  0  0  0  0
  -26.7130  -32.5514   23.1154 H   0  0  0  0  0  0
  -25.0097  -33.9775   25.0475 H   0  0  0  0  0  0
  -22.6926  -31.3023   21.4080 H   0  0  0  0  0  0
  -23.3775  -35.9603   23.3217 H   0  0  0  0  0  0
  -24.3594  -36.9018   22.2065 H   0  0  0  0  0  0
  -23.7194  -37.6466   23.6716 H   0  0  0  0  0  0
  -26.0476  -31.5868   20.5929 H   0  0  0  0  0  0
  -26.8208  -30.8756   21.9822 H   0  0  0  0  0  0
  -28.1027  -29.0892   21.1522 H   0  0  0  0  0  0
  -26.0212  -25.9325   19.0587 H   0  0  0  0  0  0
  -23.9710  -27.2640   19.0703 H   0  0  0  0  0  0
  -23.7027  -30.5764   19.3987 H   0  0  0  0  0  0
  -22.7356  -29.2176   19.8881 H   0  0  0  0  0  0
  -25.1270  -36.1935   25.0820 H   0  0  0  0  0  0
  -20.9938  -28.3218   24.1456 H   0  0  0  0  0  0
  -20.5642  -26.2271   23.3613 H   0  0  0  0  0  0
  -21.6620  -26.7431   22.1225 H   0  0  0  0  0  0
  -19.6876  -25.6289   21.1254 H   0  0  0  0  0  0
  -19.6672  -27.3183   20.6752 H   0  0  0  0  0  0
  -17.4183  -26.6712   21.4012 H   0  0  0  0  0  0
  -18.0266  -26.0058   22.9003 H   0  0  0  0  0  0
  -19.7909  -30.7256   24.2303 H   0  0  0  0  0  0
  -17.4989  -31.6273   24.5154 H   0  0  0  0  0  0
  -15.5320  -30.2970   23.7671 H   0  0  0  0  0  0
  -15.8650  -28.0798   22.7087 H   0  0  0  0  0  0
  -24.5914  -30.7042   25.7816 H   0  0  0  0  0  0
  -24.8880  -32.2869   26.4906 H   0  0  0  0  0  0
  -25.8069  -30.8917   27.0251 H   0  0  0  0  0  0
  -26.2890  -29.6815   24.1193 H   0  0  0  0  0  0
  -27.4086  -29.7328   25.4634 H   0  0  0  0  0  0
  -27.8726  -30.4404   23.9322 H   0  0  0  0  0  0
  -27.2624  -33.3666   26.2084 H   0  0  0  0  0  0
  -28.3843  -32.6917   25.0358 H   0  0  0  0  0  0
  -28.0678  -31.8501   26.5457 H   0  0  0  0  0  0
  -28.2505  -38.0172   24.7649 H   0  0  0  0  0  0
  -28.1197  -36.2726   24.6059 H   0  0  0  0  0  0
  -27.2340  -37.1162   25.8835 H   0  0  0  0  0  0
  -20.9289  -29.8780   21.6998 H   0  0  0  0  0  0
  -26.0151  -38.2855   24.1529 H   0  0  0  0  0  0
  -31.2406  -17.8495   23.2016 H   0  0  0  0  0  0
  -31.8488  -16.1929   22.8590 H   0  0  0  0  0  0
  -32.7462  -16.8973   20.7061 H   0  0  0  0  0  0
  -32.6812  -18.5375   21.3973 H   0  0  0  0  0  0
  -28.5818  -21.4204   21.1851 H   0  0  0  0  0  0
  -27.4244  -21.0551   19.9284 H   0  0  0  0  0  0
  -31.3405  -22.1513   18.9267 H   0  0  0  0  0  0
  -30.8650  -22.0493   20.6081 H   0  0  0  0  0  0
  -28.6437  -19.0243   19.2317 H   0  0  0  0  0  0
  -28.2539  -18.9520   20.9312 H   0  0  0  0  0  0
  -32.1920  -20.0559   19.8790 H   0  0  0  0  0  0
  -31.0711  -19.7247   18.5904 H   0  0  0  0  0  0
  -29.2563  -17.2748   22.0701 H   0  0  0  0  0  0
  -30.7146  -17.3879   19.4789 H   0  0  0  0  0  0
  -27.3532  -23.7470   17.3326 H   0  0  0  0  0  0
  -26.7384  -22.5729   18.4784 H   0  0  0  0  0  0
  -27.7629  -22.0571   17.1397 H   0  0  0  0  0  0
  -27.7171  -24.0152   20.3462 H   0  0  0  0  0  0
  -29.4423  -24.1281   20.5667 H   0  0  0  0  0  0
  -28.0144  -25.6686   18.3147 H   0  0  0  0  0  0
  -29.6598  -25.7743   18.7741 H   0  0  0  0  0  0
  -29.6500  -23.3881   18.0772 H   0  0  0  0  0  0
  -29.0802  -15.0499   21.5851 H   0  0  0  0  0  0
  -30.4558  -19.6029   21.4500 H   0  0  0  0  0  0
  1 25  1  0  0  0
  1 30  2  0  0  0
  1 84  1  0  0  0
  2  3  1  0  0  0
  2 25  1  0  0  0
  2 86  1  0  0  0
  2 87  1  0  0  0
  3  4  1  0  0  0
  3 88  1  0  0  0
  3 89  1  0  0  0
  4  5  1  0  0  0
  4 90  1  0  0  0
  4 91  1  0  0  0
  5  6  1  0  0  0
  5 26  1  0  0  0
  5 92  1  0  0  0
  6 25  1  0  0  0
  6 93  1  0  0  0
  6 94  1  0  0  0
  7  8  2  0  0  0
  7 26  1  0  0  0
  7 29  1  0  0  0
  8  9  1  0  0  0
  8 22  1  0  0  0
  9 10  1  0  0  0
  9 27  2  0  0  0
 10 11  2  0  0  0
 10 15  1  0  0  0
 11 12  1  0  0  0
 11 95  1  0  0  0
 12 13  2  0  0  0
 12 96  1  0  0  0
 13 14  1  0  0  0
 13 31  1  0  0  0
 14 15  2  0  0  0
 14 97  1  0  0  0
 15 98  1  0  0  0
 16 17  2  0  0  0
 16 21  1  0  0  0
 16 31  1  0  0  0
 17 18  1  0  0  0
 17 99  1  0  0  0
 18 19  2  0  0  0
 18100  1  0  0  0
 19 20  1  0  0  0
 19 24  1  0  0  0
 20 21  2  0  0  0
 20101  1  0  0  0
 21 23  1  0  0  0
 22 28  1  0  0  0
 22 32  2  0  0  0
 26 27  1  0  0  0
 28102  1  0  0  0
 28103  1  0  0  0
 29104  1  0  0  0
 29105  1  0  0  0
 33 34  1  0  0  0
 33 66  1  0  0  0
 33 70  2  0  0  0
 34 36  1  0  0  0
 34 59  1  0  0  0
 34106  1  0  0  0
 35 44  2  0  0  0
 35 45  1  0  0  0
 35 68  1  0  0  0
 36 56  1  0  0  0
 36107  1  0  0  0
 37 39  1  0  0  0
 37 47  1  0  0  0
 37 66  1  0  0  0
 37108  1  0  0  0
 38 43  2  0  0  0
 38 46  1  0  0  0
 38 47  1  0  0  0
 39 64  1  0  0  0
 39 67  2  0  0  0
 40 52  1  0  0  0
 40 53  2  0  0  0
 40 58  1  0  0  0
 41109  1  0  0  0
 41110  1  0  0  0
 41111  1  0  0  0
 41 48  1  0  0  0
 42 43  1  0  0  0
 42 66  1  0  0  0
 42112  1  0  0  0
 42113  1  0  0  0
 43 44  1  0  0  0
 44114  1  0  0  0
 45 46  2  0  0  0
 45115  1  0  0  0
 46116  1  0  0  0
 47117  1  0  0  0
 47118  1  0  0  0
 48 56  1  0  0  0
 48 65  1  0  0  0
 48119  1  0  0  0
 49 50  1  0  0  0
 49 53  1  0  0  0
 49 64  1  0  0  0
 49120  1  0  0  0
 50 51  1  0  0  0
 50121  1  0  0  0
 50122  1  0  0  0
 51 52  1  0  0  0
 51123  1  0  0  0
 51124  1  0  0  0
 52125  1  0  0  0
 52126  1  0  0  0
 53 54  1  0  0  0
 54 55  2  0  0  0
 54127  1  0  0  0
 55 57  1  0  0  0
 55128  1  0  0  0
 56 69  2  0  0  0
 57 58  2  0  0  0
 57129  1  0  0  0
 58130  1  0  0  0
 59 60  1  0  0  0
 59 61  1  0  0  0
 59 62  1  0  0  0
 60131  1  0  0  0
 60132  1  0  0  0
 60133  1  0  0  0
 61134  1  0  0  0
 61135  1  0  0  0
 61136  1  0  0  0
 62137  1  0  0  0
 62138  1  0  0  0
 62139  1  0  0  0
 63 65  1  0  0  0
 63140  1  0  0  0
 63141  1  0  0  0
 63142  1  0  0  0
 64143  1  0  0  0
 65144  1  0  0  0
 68 81  1  0  0  0
 71 72  1  0  0  0
 71 77  1  0  0  0
 71145  1  0  0  0
 71146  1  0  0  0
 72147  1  0  0  0
 72148  1  0  0  0
 72 78  1  0  0  0
 73 75  1  0  0  0
 73 83  1  0  0  0
 73149  1  0  0  0
 73150  1  0  0  0
 74 76  1  0  0  0
 74 83  1  0  0  0
 74151  1  0  0  0
 74152  1  0  0  0
 75153  1  0  0  0
 75154  1  0  0  0
 75 85  1  0  0  0
 76 85  1  0  0  0
 76155  1  0  0  0
 76156  1  0  0  0
 77 78  1  0  0  0
 77 84  1  0  0  0
 77157  1  0  0  0
 78 85  1  0  0  0
 78158  1  0  0  0
 79159  1  0  0  0
 79160  1  0  0  0
 79161  1  0  0  0
 79 82  1  0  0  0
 80 81  1  0  0  0
 80 82  1  0  0  0
 80162  1  0  0  0
 80163  1  0  0  0
 81164  1  0  0  0
 81165  1  0  0  0
 82 83  1  0  0  0
 82166  1  0  0  0
 84167  1  0  0  0
 85168  1  0  0  0
M  CHG  1  85   1
M  ISO  4   1 100  68 101  81 101  84 100
M  END
> <chiral flag>
0

> <version>
0

> <s_m_source_file>
/data/baiqing/PycharmProjects/Reinvent-master-3.2/result/LINK_invent/BTK/process_docking_weight1_custom_sum_contain_oxygen_bond_distance_aromatic_linkinvent_7_9_3/rearranged_h_0190.sdf

> <i_m_source_file_index>
2

> <r_mmod_Potential_Energy-OPLS-2005>
-69.4371948242188

> <r_mmod_Stretch_Energy-OPLS-2005>
49.1334228515625

> <r_mmod_Bend_Energy-OPLS-2005>
158.597869873047

> <r_mmod_Torsional_Energy-OPLS-2005>
264.655517578125

> <r_mmod_Improper_Torsional_Energy-OPLS-2005>
2.70650172233582

> <r_mmod_Van_der_Waal_Energy-OPLS-2005>
143.734634399414

> <r_mmod_Electrostatic_Energy-OPLS-2005>
-263.887329101562

> <r_mmod_Solvation_Energy-OPLS-2005>
-437.845153808594

> <b_mmod_Minimization_Converged-OPLS-2005>
0

> <r_mmod_RMS_Derivative-OPLS-2005>
2.14168071746826

$$$$
2
                    3D
 Structure written by MMmdl.
158167  0  0  1  0            999 V2000
  -30.5646  -14.7127   20.4878 C   0  0  0  0  0  0
  -30.4498  -12.4323   19.4562 C   0  0  0  0  0  0
  -29.5098  -12.5065   18.2291 C   0  0  0  0  0  0
  -28.0355  -12.3282   18.6430 C   0  0  0  0  0  0
  -27.6540  -13.2088   19.8614 C   0  0  2  0  0  0
  -28.6982  -13.0711   20.9918 C   0  0  0  0  0  0
  -25.2562  -13.8132   20.5592 C   0  0  0  0  0  0
  -24.1825  -13.0435   20.9170 C   0  0  0  0  0  0
  -24.6392  -11.6909   20.8760 C   0  0  0  0  0  0
  -23.9046  -10.4295   21.0408 C   0  0  0  0  0  0
  -24.3602   -9.4216   21.9189 C   0  0  0  0  0  0
  -23.6282   -8.2252   22.0752 C   0  0  0  0  0  0
  -22.4274   -8.0281   21.3536 C   0  0  0  0  0  0
  -21.9903   -9.0247   20.4641 C   0  0  0  0  0  0
  -22.7218  -10.2135   20.3050 C   0  0  0  0  0  0
  -21.6855   -6.0729   22.5270 C   0  0  0  0  0  0
  -21.4014   -6.5636   23.8204 C   0  0  0  0  0  0
  -21.3657   -5.6789   24.9170 C   0  0  0  0  0  0
  -21.6043   -4.3052   24.7219 C   0  0  0  0  0  0
  -21.8824   -3.8141   23.4342 C   0  0  0  0  0  0
  -21.9197   -4.6958   22.3395 C   0  0  0  0  0  0
  -22.7859  -13.5243   21.1837 C   0  0  0  0  0  0
  -22.1659   -4.2144   21.0972 F   0  0  0  0  0  0
  -21.5642   -3.4532   25.7731 F   0  0  0  0  0  0
  -30.0059  -13.4544   20.4311 N   0  0  0  0  0  0
  -26.2999  -12.9310   20.3311 N   0  0  0  0  0  0
  -25.9325  -11.6476   20.5774 N   0  0  0  0  0  0
  -22.0494  -12.8223   22.0399 N   0  0  0  0  0  0
  -25.4337  -15.1813   20.3798 N   0  0  0  0  0  0
  -31.7025  -14.9300   20.0642 O   0  0  0  0  0  0
  -21.6644   -6.8876   21.4234 O   0  0  0  0  0  0
  -22.3549  -14.5555   20.6713 O   0  0  0  0  0  0
  -24.6231  -31.8525   23.1918 C   0  0  0  0  0  0
  -25.9050  -32.4753   23.8270 C   0  0  1  0  0  0
  -27.2562  -27.3057   20.0976 C   0  0  0  0  0  0
  -25.5833  -33.8546   24.2213 N   0  0  0  0  0  0
  -23.4261  -30.4711   21.5317 C   0  0  2  0  0  0
  -24.8804  -28.9157   20.1004 C   0  0  0  0  0  0
  -22.7470  -29.4588   22.4830 C   0  0  0  0  0  0
  -18.0291  -28.1435   22.8528 C   0  0  0  0  0  0
  -24.1471  -36.7257   23.2670 C   0  0  0  0  0  0
  -25.9639  -30.7802   21.3622 C   0  0  0  0  0  0
  -26.0439  -29.4022   20.7085 C   0  0  0  0  0  0
  -27.2254  -28.6052   20.7051 C   0  0  0  0  0  0
  -26.0709  -26.8674   19.4692 C   0  0  0  0  0  0
  -24.8958  -27.6541   19.4743 C   0  0  0  0  0  0
  -23.6460  -29.7974   20.1497 C   0  0  0  0  0  0
  -25.4105  -36.3061   24.0354 C   0  0  1  0  0  0
  -20.5892  -28.3702   23.1257 C   0  0  2  0  0  0
  -20.6761  -26.9394   22.5420 C   0  0  0  0  0  0
  -19.5729  -26.6391   21.5233 C   0  0  0  0  0  0
  -18.1911  -26.7989   22.1629 C   0  0  0  0  0  0
  -19.1559  -28.8883   23.2919 C   0  0  0  0  0  0
  -18.9492  -30.1492   23.8917 C   0  0  0  0  0  0
  -17.6497  -30.6639   24.0603 C   0  0  0  0  0  0
  -25.9016  -34.9438   23.5103 C   0  0  0  0  0  0
  -16.5375  -29.9161   23.6354 C   0  0  0  0  0  0
  -16.7283  -28.6584   23.0370 C   0  0  0  0  0  0
  -26.4442  -31.6586   25.0658 C   0  0  0  0  0  0
  -25.3688  -31.3755   26.1392 C   0  0  0  0  0  0
  -27.0292  -30.3033   24.6091 C   0  0  0  0  0  0
  -27.6002  -32.4315   25.7421 C   0  0  0  0  0  0
  -27.5564  -37.1778   24.8492 C   0  0  0  0  0  0
  -21.4179  -29.3060   22.3626 N   0  0  0  0  0  0
  -26.4276  -37.3768   23.9431 N   0  0  0  0  0  0
  -24.6922  -31.0518   22.0866 N   0  0  0  0  0  0
  -23.4179  -28.8083   23.2893 O   0  0  0  0  0  0
  -28.4058  -26.5014   20.2006 O   0  0  0  0  0  0
  -26.5645  -34.8921   22.4689 O   0  0  0  0  0  0
  -23.5387  -32.1252   23.7243 O   0  0  0  0  0  0
  -30.1572  -18.0153   19.7788 C   0  0  0  0  0  0
  -29.6636  -17.1903   20.8298 C   0  0  0  0  0  0
  -28.9008  -17.9273   21.7662 C   0  0  0  0  0  0
  -29.0594  -19.9502   20.5688 C   0  0  0  0  0  0
  -30.1018  -24.7309   19.9110 C   0  0  0  0  0  0
  -30.0290  -23.2677   20.4425 C   0  0  0  0  0  0
  -27.8797  -23.8447   19.7767 C   0  0  0  0  0  0
  -28.6701  -25.1946   19.5288 C   0  0  2  0  0  0
  -28.2783  -17.2453   22.9739 C   0  0  0  0  0  0
  -28.2942  -21.3418   20.3436 C   0  0  0  0  0  0
  -29.8333  -19.3522   19.6401 N   0  0  0  0  0  0
  -28.6301  -19.2535   21.6323 N   0  0  0  0  0  0
  -29.7367  -15.7116   20.9496 N   0  0  0  0  0  0
  -28.8495  -22.6654   19.8009 N   0  3  2  0  0  0
  -31.4870  -12.5836   19.1494 H   0  0  0  0  0  0
  -30.4146  -11.4385   19.9071 H   0  0  0  0  0  0
  -29.7833  -11.7486   17.4946 H   0  0  0  0  0  0
  -29.6335  -13.4682   17.7308 H   0  0  0  0  0  0
  -27.8840  -11.2765   18.8889 H   0  0  0  0  0  0
  -27.3747  -12.5363   17.8009 H   0  0  0  0  0  0
  -27.6692  -14.2407   19.5121 H   0  0  0  0  0  0
  -28.7318  -12.0410   21.3528 H   0  0  0  0  0  0
  -28.4278  -13.6770   21.8587 H   0  0  0  0  0  0
  -25.2754   -9.5702   22.4757 H   0  0  0  0  0  0
  -24.0001   -7.4638   22.7463 H   0  0  0  0  0  0
  -21.0854   -8.8763   19.8924 H   0  0  0  0  0  0
  -22.3685  -10.9679   19.6151 H   0  0  0  0  0  0
  -21.2005   -7.6148   23.9699 H   0  0  0  0  0  0
  -21.1465   -6.0524   25.9069 H   0  0  0  0  0  0
  -22.0606   -2.7605   23.2835 H   0  0  0  0  0  0
  -22.4096  -11.9870   22.4773 H   0  0  0  0  0  0
  -21.1120  -13.1258   22.2627 H   0  0  0  0  0  0
  -24.6419  -15.8151   20.3746 H   0  0  0  0  0  0
  -26.2381  -15.5566   19.8930 H   0  0  0  0  0  0
  -26.7117  -32.5414   23.1013 H   0  0  0  0  0  0
  -24.9923  -33.9679   25.0339 H   0  0  0  0  0  0
  -22.7290  -31.2981   21.3796 H   0  0  0  0  0  0
  -23.3731  -35.9578   23.3337 H   0  0  0  0  0  0
  -24.3580  -36.8847   22.2079 H   0  0  0  0  0  0
  -23.7183  -37.6455   23.6668 H   0  0  0  0  0  0
  -26.0916  -31.5384   20.5877 H   0  0  0  0  0  0
  -26.8449  -30.8347   21.9897 H   0  0  0  0  0  0
  -28.1137  -28.9779   21.1970 H   0  0  0  0  0  0
  -26.0344  -25.8986   18.9964 H   0  0  0  0  0  0
  -24.0003  -27.2767   18.9995 H   0  0  0  0  0  0
  -23.7643  -30.5664   19.3844 H   0  0  0  0  0  0
  -22.7665  -29.2256   19.8508 H   0  0  0  0  0  0
  -25.1287  -36.1899   25.0846 H   0  0  0  0  0  0
  -21.0071  -28.3268   24.1350 H   0  0  0  0  0  0
  -20.5630  -26.2296   23.3627 H   0  0  0  0  0  0
  -21.6619  -26.7400   22.1206 H   0  0  0  0  0  0
  -19.6865  -25.6317   21.1236 H   0  0  0  0  0  0
  -19.6675  -27.3243   20.6791 H   0  0  0  0  0  0
  -17.4175  -26.6762   21.4033 H   0  0  0  0  0  0
  -18.0289  -26.0175   22.9054 H   0  0  0  0  0  0
  -19.7982  -30.7341   24.2238 H   0  0  0  0  0  0
  -17.5074  -31.6326   24.5210 H   0  0  0  0  0  0
  -15.5386  -30.3101   23.7711 H   0  0  0  0  0  0
  -15.8665  -28.0954   22.7033 H   0  0  0  0  0  0
  -24.5872  -30.7096   25.7731 H   0  0  0  0  0  0
  -24.8877  -32.2943   26.4756 H   0  0  0  0  0  0
  -25.7997  -30.8981   27.0199 H   0  0  0  0  0  0
  -26.2866  -29.6773   24.1152 H   0  0  0  0  0  0
  -27.4088  -29.7290   25.4538 H   0  0  0  0  0  0
  -27.8661  -30.4373   23.9238 H   0  0  0  0  0  0
  -27.2644  -33.3664   26.1915 H   0  0  0  0  0  0
  -28.3852  -32.6761   25.0257 H   0  0  0  0  0  0
  -28.0609  -31.8479   26.5401 H   0  0  0  0  0  0
  -28.2592  -38.0075   24.7533 H   0  0  0  0  0  0
  -28.1034  -36.2584   24.6308 H   0  0  0  0  0  0
  -27.2298  -37.1445   25.8913 H   0  0  0  0  0  0
  -20.9299  -29.8846   21.6931 H   0  0  0  0  0  0
  -26.0133  -38.2819   24.1479 H   0  0  0  0  0  0
  -30.7478  -17.5820   18.9852 H   0  0  0  0  0  0
  -30.7426  -24.7773   19.0275 H   0  0  0  0  0  0
  -30.5567  -25.3878   20.6522 H   0  0  0  0  0  0
  -29.8769  -23.2894   21.5232 H   0  0  0  0  0  0
  -30.9382  -22.7008   20.2422 H   0  0  0  0  0  0
  -27.1185  -23.6913   19.0104 H   0  0  0  0  0  0
  -27.3665  -23.9044   20.7371 H   0  0  0  0  0  0
  -28.6645  -25.3943   18.4546 H   0  0  0  0  0  0
  -27.6536  -16.4092   22.6577 H   0  0  0  0  0  0
  -27.6482  -17.9234   23.5526 H   0  0  0  0  0  0
  -29.0545  -16.8587   23.6364 H   0  0  0  0  0  0
  -27.8070  -21.5855   21.2877 H   0  0  0  0  0  0
  -27.4785  -21.0917   19.6668 H   0  0  0  0  0  0
  -28.9293  -15.3085   21.4002 H   0  0  0  0  0  0
  -29.1276  -22.4605   18.8521 H   0  0  0  0  0  0
  1 25  1  0  0  0
  1 30  2  0  0  0
  1 83  1  0  0  0
  2  3  1  0  0  0
  2 25  1  0  0  0
  2 85  1  0  0  0
  2 86  1  0  0  0
  3  4  1  0  0  0
  3 87  1  0  0  0
  3 88  1  0  0  0
  4  5  1  0  0  0
  4 89  1  0  0  0
  4 90  1  0  0  0
  5  6  1  0  0  0
  5 26  1  0  0  0
  5 91  1  0  0  0
  6 25  1  0  0  0
  6 92  1  0  0  0
  6 93  1  0  0  0
  7  8  2  0  0  0
  7 26  1  0  0  0
  7 29  1  0  0  0
  8  9  1  0  0  0
  8 22  1  0  0  0
  9 10  1  0  0  0
  9 27  2  0  0  0
 10 11  2  0  0  0
 10 15  1  0  0  0
 11 12  1  0  0  0
 11 94  1  0  0  0
 12 13  2  0  0  0
 12 95  1  0  0  0
 13 14  1  0  0  0
 13 31  1  0  0  0
 14 15  2  0  0  0
 14 96  1  0  0  0
 15 97  1  0  0  0
 16 17  2  0  0  0
 16 21  1  0  0  0
 16 31  1  0  0  0
 17 18  1  0  0  0
 17 98  1  0  0  0
 18 19  2  0  0  0
 18 99  1  0  0  0
 19 20  1  0  0  0
 19 24  1  0  0  0
 20 21  2  0  0  0
 20100  1  0  0  0
 21 23  1  0  0  0
 22 28  1  0  0  0
 22 32  2  0  0  0
 26 27  1  0  0  0
 28101  1  0  0  0
 28102  1  0  0  0
 29103  1  0  0  0
 29104  1  0  0  0
 33 34  1  0  0  0
 33 66  1  0  0  0
 33 70  2  0  0  0
 34 36  1  0  0  0
 34 59  1  0  0  0
 34105  1  0  0  0
 35 44  2  0  0  0
 35 45  1  0  0  0
 35 68  1  0  0  0
 36 56  1  0  0  0
 36106  1  0  0  0
 37 39  1  0  0  0
 37 47  1  0  0  0
 37 66  1  0  0  0
 37107  1  0  0  0
 38 43  2  0  0  0
 38 46  1  0  0  0
 38 47  1  0  0  0
 39 64  1  0  0  0
 39 67  2  0  0  0
 40 52  1  0  0  0
 40 53  2  0  0  0
 40 58  1  0  0  0
 41108  1  0  0  0
 41109  1  0  0  0
 41110  1  0  0  0
 41 48  1  0  0  0
 42 43  1  0  0  0
 42 66  1  0  0  0
 42111  1  0  0  0
 42112  1  0  0  0
 43 44  1  0  0  0
 44113  1  0  0  0
 45 46  2  0  0  0
 45114  1  0  0  0
 46115  1  0  0  0
 47116  1  0  0  0
 47117  1  0  0  0
 48 56  1  0  0  0
 48 65  1  0  0  0
 48118  1  0  0  0
 49 50  1  0  0  0
 49 53  1  0  0  0
 49 64  1  0  0  0
 49119  1  0  0  0
 50 51  1  0  0  0
 50120  1  0  0  0
 50121  1  0  0  0
 51 52  1  0  0  0
 51122  1  0  0  0
 51123  1  0  0  0
 52124  1  0  0  0
 52125  1  0  0  0
 53 54  1  0  0  0
 54 55  2  0  0  0
 54126  1  0  0  0
 55 57  1  0  0  0
 55127  1  0  0  0
 56 69  2  0  0  0
 57 58  2  0  0  0
 57128  1  0  0  0
 58129  1  0  0  0
 59 60  1  0  0  0
 59 61  1  0  0  0
 59 62  1  0  0  0
 60130  1  0  0  0
 60131  1  0  0  0
 60132  1  0  0  0
 61133  1  0  0  0
 61134  1  0  0  0
 61135  1  0  0  0
 62136  1  0  0  0
 62137  1  0  0  0
 62138  1  0  0  0
 63 65  1  0  0  0
 63139  1  0  0  0
 63140  1  0  0  0
 63141  1  0  0  0
 64142  1  0  0  0
 65143  1  0  0  0
 68 78  1  0  0  0
 71 72  2  0  0  0
 71 81  1  0  0  0
 71144  1  0  0  0
 72 73  1  0  0  0
 72 83  1  0  0  0
 73 79  1  0  0  0
 73 82  2  0  0  0
 74 80  1  0  0  0
 74 81  2  0  0  0
 74 82  1  0  0  0
 75 76  1  0  0  0
 75 78  1  0  0  0
 75145  1  0  0  0
 75146  1  0  0  0
 76 84  1  0  0  0
 76147  1  0  0  0
 76148  1  0  0  0
 77 78  1  0  0  0
 77 84  1  0  0  0
 77149  1  0  0  0
 77150  1  0  0  0
 78151  1  0  0  0
 79152  1  0  0  0
 79153  1  0  0  0
 79154  1  0  0  0
 80155  1  0  0  0
 80156  1  0  0  0
 80 84  1  0  0  0
 83157  1  0  0  0
 84158  1  0  0  0
M  CHG  1  84   1
M  ISO  4   1 100  68 101  78 101  83 100
M  END
> <chiral flag>
0

> <version>
0

> <s_m_source_file>
/data/baiqing/PycharmProjects/Reinvent-master-3.2/result/LINK_invent/BTK/process_docking_weight1_custom_sum_contain_oxygen_bond_distance_aromatic_linkinvent_7_9_3/rearranged_h_0190.sdf

> <i_m_source_file_index>
3

> <r_mmod_Potential_Energy-OPLS-2005>
-393.302307128906

> <r_mmod_Stretch_Energy-OPLS-2005>
99.6996765136719

> <r_mmod_Bend_Energy-OPLS-2005>
246.457458496094

> <r_mmod_Torsional_Energy-OPLS-2005>
279.739593505859

> <r_mmod_Improper_Torsional_Energy-OPLS-2005>
7.22564840316772

> <r_mmod_Van_der_Waal_Energy-OPLS-2005>
133.881591796875

> <r_mmod_Electrostatic_Energy-OPLS-2005>
-771.408752441406

> <r_mmod_Solvation_Energy-OPLS-2005>
-455.910095214844

> <b_mmod_Minimization_Converged-OPLS-2005>
0

> <r_mmod_RMS_Derivative-OPLS-2005>
4.42303895950317

$$$$
3
                    3D
 Structure written by MMmdl.
165175  0  0  1  0            999 V2000
  -30.6036  -14.6218   20.4607 C   0  0  0  0  0  0
  -30.4541  -12.3772   19.4400 C   0  0  0  0  0  0
  -29.5157  -12.4783   18.2174 C   0  0  0  0  0  0
  -28.0293  -12.3445   18.6172 C   0  0  0  0  0  0
  -27.6488  -13.1982   19.8605 C   0  0  2  0  0  0
  -28.7017  -13.0579   20.9824 C   0  0  0  0  0  0
  -25.2552  -13.8063   20.5691 C   0  0  0  0  0  0
  -24.1807  -13.0367   20.9188 C   0  0  0  0  0  0
  -24.6379  -11.6838   20.8758 C   0  0  0  0  0  0
  -23.9037  -10.4258   21.0416 C   0  0  0  0  0  0
  -24.3593   -9.4171   21.9173 C   0  0  0  0  0  0
  -23.6263   -8.2214   22.0741 C   0  0  0  0  0  0
  -22.4265   -8.0250   21.3517 C   0  0  0  0  0  0
  -21.9904   -9.0244   20.4646 C   0  0  0  0  0  0
  -22.7237  -10.2114   20.3040 C   0  0  0  0  0  0
  -21.6864   -6.0715   22.5266 C   0  0  0  0  0  0
  -21.4034   -6.5616   23.8196 C   0  0  0  0  0  0
  -21.3666   -5.6764   24.9159 C   0  0  0  0  0  0
  -21.6056   -4.3018   24.7203 C   0  0  0  0  0  0
  -21.8833   -3.8123   23.4319 C   0  0  0  0  0  0
  -21.9207   -4.6944   22.3378 C   0  0  0  0  0  0
  -22.7825  -13.5187   21.1871 C   0  0  0  0  0  0
  -22.1647   -4.2121   21.0959 F   0  0  0  0  0  0
  -21.5636   -3.4491   25.7704 F   0  0  0  0  0  0
  -30.0177  -13.3904   20.4120 N   0  0  0  0  0  0
  -26.2960  -12.9210   20.3307 N   0  0  0  0  0  0
  -25.9303  -11.6382   20.5741 N   0  0  0  0  0  0
  -22.0443  -12.8198   22.0425 N   0  0  0  0  0  0
  -25.4285  -15.1766   20.4183 N   0  0  0  0  0  0
  -31.8065  -14.7981   20.2485 O   0  0  0  0  0  0
  -21.6624   -6.8845   21.4215 O   0  0  0  0  0  0
  -22.3501  -14.5489   20.6710 O   0  0  0  0  0  0
  -24.6232  -31.8599   23.2084 C   0  0  0  0  0  0
  -25.9093  -32.4769   23.8394 C   0  0  1  0  0  0
  -27.2295  -27.3603   20.0872 C   0  0  0  0  0  0
  -25.5913  -33.8577   24.2280 N   0  0  0  0  0  0
  -23.4153  -30.4898   21.5474 C   0  0  2  0  0  0
  -24.8575  -28.9464   20.1130 C   0  0  0  0  0  0
  -22.7432  -29.4679   22.4949 C   0  0  0  0  0  0
  -18.0282  -28.1407   22.8470 C   0  0  0  0  0  0
  -24.1484  -36.7299   23.2644 C   0  0  0  0  0  0
  -25.9596  -30.7871   21.3914 C   0  0  0  0  0  0
  -26.0256  -29.4258   20.7223 C   0  0  0  0  0  0
  -27.2085  -28.6396   20.7110 C   0  0  0  0  0  0
  -26.0391  -26.9297   19.4489 C   0  0  0  0  0  0
  -24.8639  -27.6977   19.4766 C   0  0  0  0  0  0
  -23.6262  -29.8222   20.1633 C   0  0  0  0  0  0
  -25.4113  -36.3088   24.0320 C   0  0  1  0  0  0
  -20.5880  -28.3717   23.1244 C   0  0  2  0  0  0
  -20.6782  -26.9444   22.5388 C   0  0  0  0  0  0
  -19.5768  -26.6396   21.5190 C   0  0  0  0  0  0
  -18.1945  -26.7947   22.1605 C   0  0  0  0  0  0
  -19.1542  -28.8870   23.2858 C   0  0  0  0  0  0
  -18.9480  -30.1476   23.8866 C   0  0  0  0  0  0
  -17.6487  -30.6610   24.0564 C   0  0  0  0  0  0
  -25.9044  -34.9451   23.5099 C   0  0  0  0  0  0
  -16.5366  -29.9105   23.6357 C   0  0  0  0  0  0
  -16.7272  -28.6533   23.0344 C   0  0  0  0  0  0
  -26.4463  -31.6617   25.0803 C   0  0  0  0  0  0
  -25.3694  -31.3796   26.1541 C   0  0  0  0  0  0
  -27.0335  -30.3009   24.6383 C   0  0  0  0  0  0
  -27.6002  -32.4400   25.7565 C   0  0  0  0  0  0
  -27.5576  -37.1813   24.8451 C   0  0  0  0  0  0
  -21.4158  -29.3063   22.3614 N   0  0  0  0  0  0
  -26.4282  -37.3781   23.9406 N   0  0  0  0  0  0
  -24.6840  -31.0628   22.1045 N   0  0  0  0  0  0
  -23.4139  -28.8211   23.3040 O   0  0  0  0  0  0
  -28.3686  -26.5564   20.1354 O   0  0  0  0  0  0
  -26.5624  -34.8895   22.4675 O   0  0  0  0  0  0
  -23.5385  -32.1433   23.7402 O   0  0  0  0  0  0
  -30.9290  -22.3741   21.5919 C   0  0  0  0  0  0
  -31.1003  -23.7703   21.6788 C   0  0  0  0  0  0
  -29.8249  -21.8976   20.8538 C   0  0  0  0  0  0
  -29.2221  -24.1245   20.4071 C   0  0  0  0  0  0
  -32.9522  -23.8717   23.6189 C   0  0  0  0  0  0
  -31.8396  -24.8587   23.8861 C   0  0  0  0  0  0
  -28.5341  -17.1701   19.6058 C   0  0  0  0  0  0
  -29.4559  -16.1672   18.9340 C   0  0  0  0  0  0
  -32.1715  -24.4650   22.4669 C   0  0  0  0  0  0
  -29.4370  -17.0215   20.8292 C   0  0  2  0  0  0
  -29.5465  -20.3777   20.6147 C   0  0  0  0  0  0
  -28.2397  -25.1414   19.7635 C   0  0  0  0  0  0
  -30.6338  -18.0197   20.9622 C   0  0  0  0  0  0
  -30.2444  -24.6209   21.0868 N   0  0  0  0  0  0
  -28.9818  -22.8020   20.2766 N   0  0  0  0  0  0
  -29.7049  -15.6407   20.2825 N   0  0  0  0  0  0
  -30.3077  -19.4097   21.4727 N   0  3  0  0  0  0
  -31.4888  -12.5287   19.1279 H   0  0  0  0  0  0
  -30.4192  -11.3835   19.8864 H   0  0  0  0  0  0
  -29.7772  -11.7114   17.4883 H   0  0  0  0  0  0
  -29.6796  -13.4324   17.7117 H   0  0  0  0  0  0
  -27.8348  -11.2894   18.8148 H   0  0  0  0  0  0
  -27.3948  -12.6118   17.7710 H   0  0  0  0  0  0
  -27.6438  -14.2325   19.5330 H   0  0  0  0  0  0
  -28.7133  -12.0463   21.3915 H   0  0  0  0  0  0
  -28.4591  -13.7253   21.8126 H   0  0  0  0  0  0
  -25.2757   -9.5634   22.4700 H   0  0  0  0  0  0
  -24.0002   -7.4616   22.7448 H   0  0  0  0  0  0
  -21.0827   -8.8772   19.8967 H   0  0  0  0  0  0
  -22.3724  -10.9629   19.6104 H   0  0  0  0  0  0
  -21.2021   -7.6131   23.9677 H   0  0  0  0  0  0
  -21.1468   -6.0491   25.9053 H   0  0  0  0  0  0
  -22.0617   -2.7587   23.2817 H   0  0  0  0  0  0
  -22.4070  -11.9897   22.4889 H   0  0  0  0  0  0
  -21.1053  -13.1236   22.2581 H   0  0  0  0  0  0
  -24.6729  -15.8369   20.5599 H   0  0  0  0  0  0
  -26.3028  -15.6123   20.1564 H   0  0  0  0  0  0
  -26.7169  -32.5400   23.1138 H   0  0  0  0  0  0
  -25.0043  -33.9721   25.0409 H   0  0  0  0  0  0
  -22.7142  -31.3159   21.4056 H   0  0  0  0  0  0
  -23.3734  -35.9643   23.3315 H   0  0  0  0  0  0
  -24.3565  -36.8917   22.2058 H   0  0  0  0  0  0
  -23.7238  -37.6500   23.6661 H   0  0  0  0  0  0
  -26.1210  -31.5565   20.6365 H   0  0  0  0  0  0
  -26.8269  -30.8044   22.0393 H   0  0  0  0  0  0
  -28.0988  -29.0007   21.2072 H   0  0  0  0  0  0
  -25.9790  -25.9903   18.9198 H   0  0  0  0  0  0
  -23.9702  -27.3212   18.9943 H   0  0  0  0  0  0
  -23.7410  -30.5970   19.4045 H   0  0  0  0  0  0
  -22.7472  -29.2457   19.8666 H   0  0  0  0  0  0
  -25.1304  -36.1943   25.0810 H   0  0  0  0  0  0
  -20.9991  -28.3330   24.1355 H   0  0  0  0  0  0
  -20.5696  -26.2354   23.3604 H   0  0  0  0  0  0
  -21.6655  -26.7497   22.1188 H   0  0  0  0  0  0
  -19.6945  -25.6295   21.1252 H   0  0  0  0  0  0
  -19.6708  -27.3176   20.6697 H   0  0  0  0  0  0
  -17.4218  -26.6675   21.4008 H   0  0  0  0  0  0
  -18.0374  -26.0093   22.9013 H   0  0  0  0  0  0
  -19.7958  -30.7297   24.2220 H   0  0  0  0  0  0
  -17.5046  -31.6284   24.5181 H   0  0  0  0  0  0
  -15.5374  -30.3001   23.7703 H   0  0  0  0  0  0
  -15.8668  -28.0844   22.7069 H   0  0  0  0  0  0
  -24.5812  -30.7200   25.7892 H   0  0  0  0  0  0
  -24.8943  -32.2984   26.4995 H   0  0  0  0  0  0
  -25.8000  -30.8951   27.0315 H   0  0  0  0  0  0
  -26.2986  -29.6764   24.1287 H   0  0  0  0  0  0
  -27.3826  -29.7277   25.4990 H   0  0  0  0  0  0
  -27.8937  -30.4252   23.9797 H   0  0  0  0  0  0
  -27.2559  -33.3678   26.2151 H   0  0  0  0  0  0
  -28.3778  -32.7019   25.0381 H   0  0  0  0  0  0
  -28.0711  -31.8553   26.5479 H   0  0  0  0  0  0
  -28.2600  -38.0108   24.7495 H   0  0  0  0  0  0
  -28.1066  -36.2638   24.6284 H   0  0  0  0  0  0
  -27.2290  -37.1466   25.8850 H   0  0  0  0  0  0
  -20.9353  -29.8726   21.6760 H   0  0  0  0  0  0
  -26.0166  -38.2858   24.1386 H   0  0  0  0  0  0
  -31.6290  -21.7147   22.0846 H   0  0  0  0  0  0
  -32.7910  -22.8286   23.8733 H   0  0  0  0  0  0
  -33.9635  -24.2383   23.7857 H   0  0  0  0  0  0
  -32.0978  -25.8698   24.1893 H   0  0  0  0  0  0
  -30.9219  -24.4594   24.3146 H   0  0  0  0  0  0
  -27.5251  -16.7870   19.7468 H   0  0  0  0  0  0
  -28.5234  -18.1509   19.1295 H   0  0  0  0  0  0
  -30.3287  -16.6089   18.4500 H   0  0  0  0  0  0
  -28.9386  -15.4989   18.2493 H   0  0  0  0  0  0
  -32.6816  -25.2087   21.8560 H   0  0  0  0  0  0
  -28.8350  -16.9792   21.7366 H   0  0  0  0  0  0
  -29.7615  -20.1786   19.5674 H   0  0  0  0  0  0
  -28.4787  -20.1962   20.7437 H   0  0  0  0  0  0
  -27.2614  -24.7582   20.0467 H   0  0  0  0  0  0
  -28.3243  -25.0616   18.6776 H   0  0  0  0  0  0
  -31.1546  -18.1263   20.0115 H   0  0  0  0  0  0
  -31.3656  -17.5817   21.6444 H   0  0  0  0  0  0
  -29.8670  -19.3637   22.3765 H   0  0  0  0  0  0
  -31.1896  -19.8730   21.6119 H   0  0  0  0  0  0
  1 25  1  0  0  0
  1 30  2  0  0  0
  1 86  1  0  0  0
  2  3  1  0  0  0
  2 25  1  0  0  0
  2 88  1  0  0  0
  2 89  1  0  0  0
  3  4  1  0  0  0
  3 90  1  0  0  0
  3 91  1  0  0  0
  4  5  1  0  0  0
  4 92  1  0  0  0
  4 93  1  0  0  0
  5  6  1  0  0  0
  5 26  1  0  0  0
  5 94  1  0  0  0
  6 25  1  0  0  0
  6 95  1  0  0  0
  6 96  1  0  0  0
  7  8  2  0  0  0
  7 26  1  0  0  0
  7 29  1  0  0  0
  8  9  1  0  0  0
  8 22  1  0  0  0
  9 10  1  0  0  0
  9 27  2  0  0  0
 10 11  2  0  0  0
 10 15  1  0  0  0
 11 12  1  0  0  0
 11 97  1  0  0  0
 12 13  2  0  0  0
 12 98  1  0  0  0
 13 14  1  0  0  0
 13 31  1  0  0  0
 14 15  2  0  0  0
 14 99  1  0  0  0
 15100  1  0  0  0
 16 17  2  0  0  0
 16 21  1  0  0  0
 16 31  1  0  0  0
 17 18  1  0  0  0
 17101  1  0  0  0
 18 19  2  0  0  0
 18102  1  0  0  0
 19 20  1  0  0  0
 19 24  1  0  0  0
 20 21  2  0  0  0
 20103  1  0  0  0
 21 23  1  0  0  0
 22 28  1  0  0  0
 22 32  2  0  0  0
 26 27  1  0  0  0
 28104  1  0  0  0
 28105  1  0  0  0
 29106  1  0  0  0
 29107  1  0  0  0
 33 34  1  0  0  0
 33 66  1  0  0  0
 33 70  2  0  0  0
 34 36  1  0  0  0
 34 59  1  0  0  0
 34108  1  0  0  0
 35 44  2  0  0  0
 35 45  1  0  0  0
 35 68  1  0  0  0
 36 56  1  0  0  0
 36109  1  0  0  0
 37 39  1  0  0  0
 37 47  1  0  0  0
 37 66  1  0  0  0
 37110  1  0  0  0
 38 43  2  0  0  0
 38 46  1  0  0  0
 38 47  1  0  0  0
 39 64  1  0  0  0
 39 67  2  0  0  0
 40 52  1  0  0  0
 40 53  2  0  0  0
 40 58  1  0  0  0
 41111  1  0  0  0
 41112  1  0  0  0
 41113  1  0  0  0
 41 48  1  0  0  0
 42 43  1  0  0  0
 42 66  1  0  0  0
 42114  1  0  0  0
 42115  1  0  0  0
 43 44  1  0  0  0
 44116  1  0  0  0
 45 46  2  0  0  0
 45117  1  0  0  0
 46118  1  0  0  0
 47119  1  0  0  0
 47120  1  0  0  0
 48 56  1  0  0  0
 48 65  1  0  0  0
 48121  1  0  0  0
 49 50  1  0  0  0
 49 53  1  0  0  0
 49 64  1  0  0  0
 49122  1  0  0  0
 50 51  1  0  0  0
 50123  1  0  0  0
 50124  1  0  0  0
 51 52  1  0  0  0
 51125  1  0  0  0
 51126  1  0  0  0
 52127  1  0  0  0
 52128  1  0  0  0
 53 54  1  0  0  0
 54 55  2  0  0  0
 54129  1  0  0  0
 55 57  1  0  0  0
 55130  1  0  0  0
 56 69  2  0  0  0
 57 58  2  0  0  0
 57131  1  0  0  0
 58132  1  0  0  0
 59 60  1  0  0  0
 59 61  1  0  0  0
 59 62  1  0  0  0
 60133  1  0  0  0
 60134  1  0  0  0
 60135  1  0  0  0
 61136  1  0  0  0
 61137  1  0  0  0
 61138  1  0  0  0
 62139  1  0  0  0
 62140  1  0  0  0
 62141  1  0  0  0
 63 65  1  0  0  0
 63142  1  0  0  0
 63143  1  0  0  0
 63144  1  0  0  0
 64145  1  0  0  0
 65146  1  0  0  0
 68 82  1  0  0  0
 71 72  2  0  0  0
 71 73  1  0  0  0
 71147  1  0  0  0
 72 84  1  0  0  0
 72 79  1  0  0  0
 73 81  1  0  0  0
 73 85  2  0  0  0
 74 82  1  0  0  0
 74 84  2  0  0  0
 74 85  1  0  0  0
 75 76  1  0  0  0
 75 79  1  0  0  0
 75148  1  0  0  0
 75149  1  0  0  0
 76 79  1  0  0  0
 76150  1  0  0  0
 76151  1  0  0  0
 77 78  1  0  0  0
 77 80  1  0  0  0
 77152  1  0  0  0
 77153  1  0  0  0
 78 86  1  0  0  0
 78154  1  0  0  0
 78155  1  0  0  0
 79156  1  0  0  0
 80 83  1  0  0  0
 80 86  1  0  0  0
 80157  1  0  0  0
 81 87  1  0  0  0
 81158  1  0  0  0
 81159  1  0  0  0
 82160  1  0  0  0
 82161  1  0  0  0
 83 87  1  0  0  0
 83162  1  0  0  0
 83163  1  0  0  0
 87164  1  0  0  0
 87165  1  0  0  0
M  CHG  1  87   1
M  ISO  4   1 100  68 101  82 101  86 100
M  END
> <chiral flag>
0

> <version>
0

> <s_m_source_file>
/data/baiqing/PycharmProjects/Reinvent-master-3.2/result/LINK_invent/BTK/process_docking_weight1_custom_sum_contain_oxygen_bond_distance_aromatic_linkinvent_7_9_3/rearranged_h_0190.sdf

> <i_m_source_file_index>
4

> <r_mmod_Potential_Energy-OPLS-2005>
-501.24072265625

> <r_mmod_Stretch_Energy-OPLS-2005>
62.7905731201172

> <r_mmod_Bend_Energy-OPLS-2005>
154.895034790039

> <r_mmod_Torsional_Energy-OPLS-2005>
324.826110839844

> <r_mmod_Improper_Torsional_Energy-OPLS-2005>
19.3676414489746

> <r_mmod_Van_der_Waal_Energy-OPLS-2005>
149.644271850586

> <r_mmod_Electrostatic_Energy-OPLS-2005>
-743.514770507812

> <r_mmod_Solvation_Energy-OPLS-2005>
-514.290283203125

> <b_mmod_Minimization_Converged-OPLS-2005>
0

> <r_mmod_RMS_Derivative-OPLS-2005>
5.52071571350098

$$$$
4
                    3D
 Structure written by MMmdl.
160169  0  0  1  0            999 V2000
  -30.6457  -14.8586   20.4312 C   0  0  0  0  0  0
  -30.4169  -12.5408   19.4829 C   0  0  0  0  0  0
  -29.5043  -12.5099   18.2406 C   0  0  0  0  0  0
  -28.0382  -12.3088   18.6643 C   0  0  0  0  0  0
  -27.6246  -13.2382   19.8352 C   0  0  2  0  0  0
  -28.6752  -13.2645   20.9683 C   0  0  0  0  0  0
  -25.2422  -13.8184   20.5691 C   0  0  0  0  0  0
  -24.1748  -13.0425   20.9251 C   0  0  0  0  0  0
  -24.6361  -11.6919   20.8791 C   0  0  0  0  0  0
  -23.9043  -10.4295   21.0442 C   0  0  0  0  0  0
  -24.3599   -9.4210   21.9210 C   0  0  0  0  0  0
  -23.6281   -8.2240   22.0763 C   0  0  0  0  0  0
  -22.4262   -8.0276   21.3551 C   0  0  0  0  0  0
  -21.9900   -9.0256   20.4659 C   0  0  0  0  0  0
  -22.7222  -10.2139   20.3085 C   0  0  0  0  0  0
  -21.6853   -6.0729   22.5275 C   0  0  0  0  0  0
  -21.4015   -6.5632   23.8207 C   0  0  0  0  0  0
  -21.3664   -5.6784   24.9166 C   0  0  0  0  0  0
  -21.6040   -4.3044   24.7223 C   0  0  0  0  0  0
  -21.8815   -3.8143   23.4344 C   0  0  0  0  0  0
  -21.9195   -4.6961   22.3402 C   0  0  0  0  0  0
  -22.7776  -13.5219   21.1884 C   0  0  0  0  0  0
  -22.1663   -4.2148   21.0980 F   0  0  0  0  0  0
  -21.5630   -3.4528   25.7738 F   0  0  0  0  0  0
  -29.9475  -13.6582   20.3517 N   0  0  0  0  0  0
  -26.2849  -12.9410   20.3253 N   0  0  0  0  0  0
  -25.9290  -11.6551   20.5772 N   0  0  0  0  0  0
  -22.0403  -12.8244   22.0438 N   0  0  0  0  0  0
  -25.4028  -15.1905   20.4008 N   0  0  0  0  0  0
  -31.8594  -14.7926   20.2117 O   0  0  0  0  0  0
  -21.6630   -6.8872   21.4237 O   0  0  0  0  0  0
  -22.3493  -14.5530   20.6717 O   0  0  0  0  0  0
  -24.6348  -31.8503   23.1930 C   0  0  0  0  0  0
  -25.9157  -32.4721   23.8285 C   0  0  1  0  0  0
  -27.2184  -27.2059   20.1514 C   0  0  0  0  0  0
  -25.5935  -33.8525   24.2212 N   0  0  0  0  0  0
  -23.4343  -30.4695   21.5368 C   0  0  2  0  0  0
  -24.8819  -28.8980   20.1186 C   0  0  0  0  0  0
  -22.7515  -29.4571   22.4888 C   0  0  0  0  0  0
  -18.0294  -28.1388   22.8477 C   0  0  0  0  0  0
  -24.1498  -36.7276   23.2641 C   0  0  0  0  0  0
  -25.9832  -30.7442   21.3822 C   0  0  0  0  0  0
  -26.0531  -29.3571   20.7339 C   0  0  0  0  0  0
  -27.2224  -28.5241   20.7377 C   0  0  0  0  0  0
  -26.0250  -26.8247   19.5019 C   0  0  0  0  0  0
  -24.8741  -27.6405   19.4930 C   0  0  0  0  0  0
  -23.6576  -29.7951   20.1564 C   0  0  0  0  0  0
  -25.4125  -36.3047   24.0318 C   0  0  1  0  0  0
  -20.5900  -28.3699   23.1261 C   0  0  2  0  0  0
  -20.6776  -26.9408   22.5418 C   0  0  0  0  0  0
  -19.5762  -26.6376   21.5210 C   0  0  0  0  0  0
  -18.1935  -26.7932   22.1609 C   0  0  0  0  0  0
  -19.1550  -28.8858   23.2865 C   0  0  0  0  0  0
  -18.9467  -30.1457   23.8887 C   0  0  0  0  0  0
  -17.6466  -30.6583   24.0559 C   0  0  0  0  0  0
  -25.9064  -34.9422   23.5069 C   0  0  0  0  0  0
  -16.5359  -29.9082   23.6330 C   0  0  0  0  0  0
  -16.7281  -28.6502   23.0345 C   0  0  0  0  0  0
  -26.4504  -31.6564   25.0699 C   0  0  0  0  0  0
  -25.3703  -31.3763   26.1408 C   0  0  0  0  0  0
  -27.0336  -30.2954   24.6241 C   0  0  0  0  0  0
  -27.6055  -32.4315   25.7474 C   0  0  0  0  0  0
  -27.5587  -37.1789   24.8457 C   0  0  0  0  0  0
  -21.4219  -29.3039   22.3643 N   0  0  0  0  0  0
  -26.4295  -37.3751   23.9400 N   0  0  0  0  0  0
  -24.7030  -31.0419   22.0925 N   0  0  0  0  0  0
  -23.4200  -28.8111   23.3002 O   0  0  0  0  0  0
  -28.3384  -26.3285   20.1095 O   0  0  0  0  0  0
  -26.5644  -34.8908   22.4645 O   0  0  0  0  0  0
  -23.5487  -32.1347   23.7191 O   0  0  0  0  0  0
  -27.7077  -23.0822   21.6301 C   0  0  0  0  0  0
  -28.4666  -22.1560   20.8212 C   0  0  0  0  0  0
  -28.2567  -24.9256   20.3031 C   0  0  0  0  0  0
  -28.6529  -16.6139   20.3479 C   0  0  0  0  0  0
  -30.9212  -17.3827   20.2964 C   0  0  0  0  0  0
  -28.2205  -18.0852   20.8324 C   0  0  0  0  0  0
  -30.4753  -18.8183   20.8457 C   0  0  0  0  0  0
  -27.9815  -22.7860   24.1341 C   0  0  0  0  0  0
  -27.0313  -22.6740   22.9332 C   0  0  0  0  0  0
  -28.6169  -20.5869   21.2667 C   0  0  0  0  0  0
  -27.6081  -24.4318   21.3680 N   0  0  0  0  0  0
  -29.1014  -22.7428   19.7530 N   0  0  0  0  0  0
  -29.0109  -24.0997   19.5137 N   0  0  0  0  0  0
  -30.0641  -16.1608   20.5218 N   0  0  0  0  0  0
  -29.0881  -19.2903   20.5165 N   0  3  0  0  0  0
  -31.4549  -12.6556   19.1674 H   0  0  0  0  0  0
  -30.3787  -11.5908   20.0185 H   0  0  0  0  0  0
  -29.8126  -11.7125   17.5630 H   0  0  0  0  0  0
  -29.6053  -13.4436   17.6847 H   0  0  0  0  0  0
  -27.9223  -11.2666   18.9628 H   0  0  0  0  0  0
  -27.3745  -12.4564   17.8112 H   0  0  0  0  0  0
  -27.5845  -14.2318   19.3946 H   0  0  0  0  0  0
  -28.7579  -12.2870   21.4458 H   0  0  0  0  0  0
  -28.3952  -13.9597   21.7593 H   0  0  0  0  0  0
  -25.2748   -9.5692   22.4777 H   0  0  0  0  0  0
  -23.9997   -7.4630   22.7479 H   0  0  0  0  0  0
  -21.0831   -8.8776   19.8969 H   0  0  0  0  0  0
  -22.3679  -10.9678   19.6193 H   0  0  0  0  0  0
  -21.2006   -7.6139   23.9706 H   0  0  0  0  0  0
  -21.1489   -6.0515   25.9064 H   0  0  0  0  0  0
  -22.0597   -2.7609   23.2838 H   0  0  0  0  0  0
  -22.3991  -11.9914   22.4861 H   0  0  0  0  0  0
  -21.1027  -13.1313   22.2626 H   0  0  0  0  0  0
  -24.6141  -15.8233   20.4774 H   0  0  0  0  0  0
  -26.2048  -15.6075   19.9507 H   0  0  0  0  0  0
  -26.7213  -32.5353   23.1010 H   0  0  0  0  0  0
  -25.0055  -33.9647   25.0339 H   0  0  0  0  0  0
  -22.7325  -31.2922   21.3834 H   0  0  0  0  0  0
  -23.3756  -35.9613   23.3297 H   0  0  0  0  0  0
  -24.3587  -36.8912   22.2058 H   0  0  0  0  0  0
  -23.7266  -37.6476   23.6680 H   0  0  0  0  0  0
  -26.1292  -31.4979   20.6072 H   0  0  0  0  0  0
  -26.8581  -30.7960   22.0185 H   0  0  0  0  0  0
  -28.1250  -28.8795   21.2142 H   0  0  0  0  0  0
  -25.9719  -25.8663   19.0042 H   0  0  0  0  0  0
  -23.9782  -27.2860   19.0008 H   0  0  0  0  0  0
  -23.7915  -30.5664   19.3972 H   0  0  0  0  0  0
  -22.7745  -29.2323   19.8492 H   0  0  0  0  0  0
  -25.1317  -36.1878   25.0812 H   0  0  0  0  0  0
  -20.9991  -28.3288   24.1384 H   0  0  0  0  0  0
  -20.5643  -26.2316   23.3633 H   0  0  0  0  0  0
  -21.6652  -26.7404   22.1240 H   0  0  0  0  0  0
  -19.6922  -25.6277   21.1260 H   0  0  0  0  0  0
  -19.6714  -27.3169   20.6726 H   0  0  0  0  0  0
  -17.4212  -26.6681   21.4001 H   0  0  0  0  0  0
  -18.0323  -26.0075   22.9005 H   0  0  0  0  0  0
  -19.7943  -30.7273   24.2260 H   0  0  0  0  0  0
  -17.5019  -31.6264   24.5157 H   0  0  0  0  0  0
  -15.5356  -30.2977   23.7653 H   0  0  0  0  0  0
  -15.8683  -28.0814   22.7062 H   0  0  0  0  0  0
  -24.5893  -30.7086   25.7748 H   0  0  0  0  0  0
  -24.8872  -32.2948   26.4750 H   0  0  0  0  0  0
  -25.7997  -30.9004   27.0231 H   0  0  0  0  0  0
  -26.2915  -29.6701   24.1257 H   0  0  0  0  0  0
  -27.3954  -29.7236   25.4797 H   0  0  0  0  0  0
  -27.8835  -30.4180   23.9524 H   0  0  0  0  0  0
  -27.2651  -33.3619   26.2032 H   0  0  0  0  0  0
  -28.3869  -32.6865   25.0304 H   0  0  0  0  0  0
  -28.0713  -31.8449   26.5403 H   0  0  0  0  0  0
  -28.2598  -38.0089   24.7488 H   0  0  0  0  0  0
  -28.1085  -36.2617   24.6289 H   0  0  0  0  0  0
  -27.2307  -37.1453   25.8860 H   0  0  0  0  0  0
  -20.9407  -29.8774   21.6857 H   0  0  0  0  0  0
  -26.0171  -38.2825   24.1385 H   0  0  0  0  0  0
  -28.4190  -16.5166   19.2866 H   0  0  0  0  0  0
  -28.0005  -15.9217   20.8704 H   0  0  0  0  0  0
  -31.9190  -17.2040   20.7000 H   0  0  0  0  0  0
  -31.0649  -17.4646   19.2179 H   0  0  0  0  0  0
  -28.1318  -18.0380   21.9196 H   0  0  0  0  0  0
  -27.2100  -18.2827   20.4703 H   0  0  0  0  0  0
  -31.1844  -19.5727   20.4997 H   0  0  0  0  0  0
  -30.5773  -18.7975   21.9318 H   0  0  0  0  0  0
  -27.4802  -22.4933   25.0567 H   0  0  0  0  0  0
  -28.3357  -23.8094   24.2606 H   0  0  0  0  0  0
  -28.8561  -22.1467   24.0174 H   0  0  0  0  0  0
  -26.6052  -21.6748   22.8717 H   0  0  0  0  0  0
  -26.1770  -23.3299   23.1056 H   0  0  0  0  0  0
  -27.5861  -20.3442   21.5137 H   0  0  0  0  0  0
  -29.1240  -20.5981   22.2310 H   0  0  0  0  0  0
  -29.0292  -19.4679   19.5249 H   0  0  0  0  0  0
  1 25  1  0  0  0
  1 30  2  0  0  0
  1 84  1  0  0  0
  2  3  1  0  0  0
  2 25  1  0  0  0
  2 86  1  0  0  0
  2 87  1  0  0  0
  3  4  1  0  0  0
  3 88  1  0  0  0
  3 89  1  0  0  0
  4  5  1  0  0  0
  4 90  1  0  0  0
  4 91  1  0  0  0
  5  6  1  0  0  0
  5 26  1  0  0  0
  5 92  1  0  0  0
  6 25  1  0  0  0
  6 93  1  0  0  0
  6 94  1  0  0  0
  7  8  2  0  0  0
  7 26  1  0  0  0
  7 29  1  0  0  0
  8  9  1  0  0  0
  8 22  1  0  0  0
  9 10  1  0  0  0
  9 27  2  0  0  0
 10 11  2  0  0  0
 10 15  1  0  0  0
 11 12  1  0  0  0
 11 95  1  0  0  0
 12 13  2  0  0  0
 12 96  1  0  0  0
 13 14  1  0  0  0
 13 31  1  0  0  0
 14 15  2  0  0  0
 14 97  1  0  0  0
 15 98  1  0  0  0
 16 17  2  0  0  0
 16 21  1  0  0  0
 16 31  1  0  0  0
 17 18  1  0  0  0
 17 99  1  0  0  0
 18 19  2  0  0  0
 18100  1  0  0  0
 19 20  1  0  0  0
 19 24  1  0  0  0
 20 21  2  0  0  0
 20101  1  0  0  0
 21 23  1  0  0  0
 22 28  1  0  0  0
 22 32  2  0  0  0
 26 27  1  0  0  0
 28102  1  0  0  0
 28103  1  0  0  0
 29104  1  0  0  0
 29105  1  0  0  0
 33 34  1  0  0  0
 33 66  1  0  0  0
 33 70  2  0  0  0
 34 36  1  0  0  0
 34 59  1  0  0  0
 34106  1  0  0  0
 35 44  2  0  0  0
 35 45  1  0  0  0
 35 68  1  0  0  0
 36 56  1  0  0  0
 36107  1  0  0  0
 37 39  1  0  0  0
 37 47  1  0  0  0
 37 66  1  0  0  0
 37108  1  0  0  0
 38 43  2  0  0  0
 38 46  1  0  0  0
 38 47  1  0  0  0
 39 64  1  0  0  0
 39 67  2  0  0  0
 40 52  1  0  0  0
 40 53  2  0  0  0
 40 58  1  0  0  0
 41109  1  0  0  0
 41110  1  0  0  0
 41111  1  0  0  0
 41 48  1  0  0  0
 42 43  1  0  0  0
 42 66  1  0  0  0
 42112  1  0  0  0
 42113  1  0  0  0
 43 44  1  0  0  0
 44114  1  0  0  0
 45 46  2  0  0  0
 45115  1  0  0  0
 46116  1  0  0  0
 47117  1  0  0  0
 47118  1  0  0  0
 48 56  1  0  0  0
 48 65  1  0  0  0
 48119  1  0  0  0
 49 50  1  0  0  0
 49 53  1  0  0  0
 49 64  1  0  0  0
 49120  1  0  0  0
 50 51  1  0  0  0
 50121  1  0  0  0
 50122  1  0  0  0
 51 52  1  0  0  0
 51123  1  0  0  0
 51124  1  0  0  0
 52125  1  0  0  0
 52126  1  0  0  0
 53 54  1  0  0  0
 54 55  2  0  0  0
 54127  1  0  0  0
 55 57  1  0  0  0
 55128  1  0  0  0
 56 69  2  0  0  0
 57 58  2  0  0  0
 57129  1  0  0  0
 58130  1  0  0  0
 59 60  1  0  0  0
 59 61  1  0  0  0
 59 62  1  0  0  0
 60131  1  0  0  0
 60132  1  0  0  0
 60133  1  0  0  0
 61134  1  0  0  0
 61135  1  0  0  0
 61136  1  0  0  0
 62137  1  0  0  0
 62138  1  0  0  0
 62139  1  0  0  0
 63 65  1  0  0  0
 63140  1  0  0  0
 63141  1  0  0  0
 63142  1  0  0  0
 64143  1  0  0  0
 65144  1  0  0  0
 68 73  1  0  0  0
 71 72  2  0  0  0
 71 79  1  0  0  0
 71 81  1  0  0  0
 72 80  1  0  0  0
 72 82  1  0  0  0
 73 81  2  0  0  0
 73 83  1  0  0  0
 74 76  1  0  0  0
 74 84  1  0  0  0
 74145  1  0  0  0
 74146  1  0  0  0
 75 77  1  0  0  0
 75 84  1  0  0  0
 75147  1  0  0  0
 75148  1  0  0  0
 76 85  1  0  0  0
 76149  1  0  0  0
 76150  1  0  0  0
 77 85  1  0  0  0
 77151  1  0  0  0
 77152  1  0  0  0
 78 79  1  0  0  0
 78153  1  0  0  0
 78154  1  0  0  0
 78155  1  0  0  0
 79156  1  0  0  0
 79157  1  0  0  0
 80158  1  0  0  0
 80159  1  0  0  0
 80 85  1  0  0  0
 82 83  2  0  0  0
 85160  1  0  0  0
M  CHG  1  85   1
M  ISO  4   1 100  68 101  73 101  84 100
M  END
> <chiral flag>
0

> <version>
0

> <s_m_source_file>
/data/baiqing/PycharmProjects/Reinvent-master-3.2/result/LINK_invent/BTK/process_docking_weight1_custom_sum_contain_oxygen_bond_distance_aromatic_linkinvent_7_9_3/rearranged_h_0190.sdf

> <i_m_source_file_index>
5

> <r_mmod_Potential_Energy-OPLS-2005>
418.752777099609

> <r_mmod_Stretch_Energy-OPLS-2005>
166.293121337891

> <r_mmod_Bend_Energy-OPLS-2005>
292.020843505859

> <r_mmod_Torsional_Energy-OPLS-2005>
366.356414794922

> <r_mmod_Improper_Torsional_Energy-OPLS-2005>
8.33740615844727

> <r_mmod_Van_der_Waal_Energy-OPLS-2005>
150.932540893555

> <r_mmod_Electrostatic_Energy-OPLS-2005>
-208.703338623047

> <r_mmod_Solvation_Energy-OPLS-2005>
-485.535949707031

> <b_mmod_Minimization_Converged-OPLS-2005>
0

> <r_mmod_RMS_Derivative-OPLS-2005>
1.31681644916534

$$$$
5
                    3D
 Structure written by MMmdl.
161170  0  0  1  0            999 V2000
  -30.5927  -14.7769   20.4748 C   0  0  0  0  0  0
  -30.4329  -12.4819   19.4740 C   0  0  0  0  0  0
  -29.5098  -12.5191   18.2364 C   0  0  0  0  0  0
  -28.0372  -12.3339   18.6506 C   0  0  0  0  0  0
  -27.6384  -13.2344   19.8502 C   0  0  2  0  0  0
  -28.6811  -13.1773   20.9856 C   0  0  0  0  0  0
  -25.2488  -13.8201   20.5697 C   0  0  0  0  0  0
  -24.1784  -13.0444   20.9204 C   0  0  0  0  0  0
  -24.6381  -11.6922   20.8751 C   0  0  0  0  0  0
  -23.9062  -10.4300   21.0419 C   0  0  0  0  0  0
  -24.3613   -9.4214   21.9195 C   0  0  0  0  0  0
  -23.6285   -8.2252   22.0765 C   0  0  0  0  0  0
  -22.4269   -8.0290   21.3551 C   0  0  0  0  0  0
  -21.9904   -9.0267   20.4655 C   0  0  0  0  0  0
  -22.7235  -10.2146   20.3066 C   0  0  0  0  0  0
  -21.6854   -6.0736   22.5279 C   0  0  0  0  0  0
  -21.4017   -6.5639   23.8212 C   0  0  0  0  0  0
  -21.3658   -5.6790   24.9172 C   0  0  0  0  0  0
  -21.6043   -4.3053   24.7224 C   0  0  0  0  0  0
  -21.8819   -3.8144   23.4345 C   0  0  0  0  0  0
  -21.9189   -4.6962   22.3400 C   0  0  0  0  0  0
  -22.7812  -13.5240   21.1861 C   0  0  0  0  0  0
  -22.1661   -4.2148   21.0979 F   0  0  0  0  0  0
  -21.5624   -3.4534   25.7736 F   0  0  0  0  0  0
  -29.9766  -13.5446   20.4023 N   0  0  0  0  0  0
  -26.2914  -12.9410   20.3276 N   0  0  0  0  0  0
  -25.9313  -11.6548   20.5753 N   0  0  0  0  0  0
  -22.0445  -12.8245   22.0417 N   0  0  0  0  0  0
  -25.4179  -15.1924   20.4130 N   0  0  0  0  0  0
  -31.7777  -14.8804   20.1455 O   0  0  0  0  0  0
  -21.6638   -6.8881   21.4243 O   0  0  0  0  0  0
  -22.3514  -14.5550   20.6699 O   0  0  0  0  0  0
  -24.6309  -31.8522   23.1936 C   0  0  0  0  0  0
  -25.9129  -32.4736   23.8287 C   0  0  1  0  0  0
  -27.2245  -27.2279   20.1450 C   0  0  0  0  0  0
  -25.5916  -33.8539   24.2212 N   0  0  0  0  0  0
  -23.4292  -30.4699   21.5382 C   0  0  2  0  0  0
  -24.8759  -28.9006   20.1168 C   0  0  0  0  0  0
  -22.7502  -29.4575   22.4917 C   0  0  0  0  0  0
  -18.0289  -28.1387   22.8485 C   0  0  0  0  0  0
  -24.1485  -36.7277   23.2642 C   0  0  0  0  0  0
  -25.9744  -30.7520   21.3791 C   0  0  0  0  0  0
  -26.0438  -29.3672   20.7313 C   0  0  0  0  0  0
  -27.2144  -28.5424   20.7341 C   0  0  0  0  0  0
  -26.0353  -26.8357   19.4918 C   0  0  0  0  0  0
  -24.8766  -27.6437   19.4886 C   0  0  0  0  0  0
  -23.6486  -29.7935   20.1581 C   0  0  0  0  0  0
  -25.4116  -36.3056   24.0317 C   0  0  1  0  0  0
  -20.5893  -28.3695   23.1273 C   0  0  2  0  0  0
  -20.6776  -26.9411   22.5413 C   0  0  0  0  0  0
  -19.5751  -26.6380   21.5215 C   0  0  0  0  0  0
  -18.1933  -26.7931   22.1626 C   0  0  0  0  0  0
  -19.1543  -28.8860   23.2872 C   0  0  0  0  0  0
  -18.9467  -30.1464   23.8886 C   0  0  0  0  0  0
  -17.6466  -30.6589   24.0562 C   0  0  0  0  0  0
  -25.9060  -34.9430   23.5073 C   0  0  0  0  0  0
  -16.5355  -29.9086   23.6333 C   0  0  0  0  0  0
  -16.7277  -28.6505   23.0353 C   0  0  0  0  0  0
  -26.4486  -31.6581   25.0695 C   0  0  0  0  0  0
  -25.3696  -31.3758   26.1410 C   0  0  0  0  0  0
  -27.0345  -30.2989   24.6219 C   0  0  0  0  0  0
  -27.6031  -32.4339   25.7471 C   0  0  0  0  0  0
  -27.5572  -37.1791   24.8463 C   0  0  0  0  0  0
  -21.4208  -29.3035   22.3658 N   0  0  0  0  0  0
  -26.4286  -37.3763   23.9403 N   0  0  0  0  0  0
  -24.6971  -31.0457   22.0926 N   0  0  0  0  0  0
  -23.4196  -28.8132   23.3035 O   0  0  0  0  0  0
  -28.3857  -26.4105   20.1325 O   0  0  0  0  0  0
  -26.5650  -34.8916   22.4655 O   0  0  0  0  0  0
  -23.5458  -32.1360   23.7218 O   0  0  0  0  0  0
  -29.8847  -23.1321   19.9760 C   0  0  0  0  0  0
  -28.8602  -22.1623   20.1293 C   0  0  0  0  0  0
  -27.5973  -22.8088   20.3209 C   0  0  0  0  0  0
  -28.4642  -24.9973   20.1579 C   0  0  0  0  0  0
  -30.2894  -17.0675   21.6887 C   0  0  0  0  0  0
  -29.0206  -16.8782   20.0625 C   0  0  0  0  0  0
  -29.8913  -18.0767   20.5631 C   0  0  0  0  0  0
  -26.0041  -21.8388   22.0188 C   0  0  0  0  0  0
  -29.9956  -20.0513   22.1211 C   0  0  0  0  0  0
  -29.1368  -20.5767   19.8592 C   0  0  0  0  0  0
  -26.3274  -22.0044   20.5293 C   0  0  0  0  0  0
  -29.6915  -24.4887   19.9921 N   0  0  0  0  0  0
  -27.4173  -24.1784   20.3518 N   0  0  0  0  0  0
  -29.8529  -15.9022   20.8573 N   0  0  0  0  0  0
  -29.2972  -19.4814   20.9446 N   0  3  1  0  0  0
  -31.4722  -12.6188   19.1711 H   0  0  0  0  0  0
  -30.3904  -11.5065   19.9617 H   0  0  0  0  0  0
  -29.7989  -11.7471   17.5221 H   0  0  0  0  0  0
  -29.6272  -13.4733   17.7197 H   0  0  0  0  0  0
  -27.8995  -11.2842   18.9146 H   0  0  0  0  0  0
  -27.3801  -12.5232   17.8009 H   0  0  0  0  0  0
  -27.6296  -14.2556   19.4691 H   0  0  0  0  0  0
  -28.7256  -12.1804   21.4256 H   0  0  0  0  0  0
  -28.4085  -13.8588   21.7930 H   0  0  0  0  0  0
  -25.2759   -9.5688   22.4769 H   0  0  0  0  0  0
  -23.9985   -7.4649   22.7495 H   0  0  0  0  0  0
  -21.0825   -8.8790   19.8974 H   0  0  0  0  0  0
  -22.3688  -10.9685   19.6175 H   0  0  0  0  0  0
  -21.2016   -7.6149   23.9713 H   0  0  0  0  0  0
  -21.1479   -6.0523   25.9075 H   0  0  0  0  0  0
  -22.0596   -2.7605   23.2845 H   0  0  0  0  0  0
  -22.4039  -11.9894   22.4797 H   0  0  0  0  0  0
  -21.1082  -13.1317   22.2640 H   0  0  0  0  0  0
  -24.6487  -15.8458   20.5147 H   0  0  0  0  0  0
  -26.2667  -15.6249   20.0753 H   0  0  0  0  0  0
  -26.7189  -32.5372   23.1022 H   0  0  0  0  0  0
  -25.0024  -33.9673   25.0326 H   0  0  0  0  0  0
  -22.7262  -31.2917   21.3864 H   0  0  0  0  0  0
  -23.3746  -35.9612   23.3309 H   0  0  0  0  0  0
  -24.3565  -36.8905   22.2056 H   0  0  0  0  0  0
  -23.7246  -37.6475   23.6678 H   0  0  0  0  0  0
  -26.1173  -31.5061   20.6042 H   0  0  0  0  0  0
  -26.8505  -30.8046   22.0138 H   0  0  0  0  0  0
  -28.1146  -28.9039   21.2103 H   0  0  0  0  0  0
  -25.9879  -25.8819   18.9862 H   0  0  0  0  0  0
  -23.9837  -27.2848   18.9950 H   0  0  0  0  0  0
  -23.7753  -30.5631   19.3964 H   0  0  0  0  0  0
  -22.7667  -29.2264   19.8556 H   0  0  0  0  0  0
  -25.1305  -36.1890   25.0809 H   0  0  0  0  0  0
  -20.9981  -28.3276   24.1397 H   0  0  0  0  0  0
  -20.5671  -26.2306   23.3620 H   0  0  0  0  0  0
  -21.6644  -26.7430   22.1209 H   0  0  0  0  0  0
  -19.6911  -25.6289   21.1250 H   0  0  0  0  0  0
  -19.6688  -27.3187   20.6743 H   0  0  0  0  0  0
  -17.4199  -26.6675   21.4032 H   0  0  0  0  0  0
  -18.0332  -26.0074   22.9023 H   0  0  0  0  0  0
  -19.7943  -30.7285   24.2246 H   0  0  0  0  0  0
  -17.5019  -31.6268   24.5170 H   0  0  0  0  0  0
  -15.5357  -30.2984   23.7667 H   0  0  0  0  0  0
  -15.8675  -28.0823   22.7072 H   0  0  0  0  0  0
  -24.5849  -30.7140   25.7726 H   0  0  0  0  0  0
  -24.8914  -32.2945   26.4820 H   0  0  0  0  0  0
  -25.7984  -30.8923   27.0196 H   0  0  0  0  0  0
  -26.2943  -29.6727   24.1229 H   0  0  0  0  0  0
  -27.3993  -29.7272   25.4762 H   0  0  0  0  0  0
  -27.8833  -30.4252   23.9496 H   0  0  0  0  0  0
  -27.2623  -33.3644   26.2028 H   0  0  0  0  0  0
  -28.3846  -32.6900   25.0305 H   0  0  0  0  0  0
  -28.0695  -31.8483   26.5405 H   0  0  0  0  0  0
  -28.2592  -38.0085   24.7501 H   0  0  0  0  0  0
  -28.1064  -36.2615   24.6301 H   0  0  0  0  0  0
  -27.2290  -37.1458   25.8867 H   0  0  0  0  0  0
  -20.9402  -29.8741   21.6842 H   0  0  0  0  0  0
  -26.0158  -38.2830   24.1405 H   0  0  0  0  0  0
  -30.8998  -22.8141   19.7858 H   0  0  0  0  0  0
  -29.6976  -17.1606   22.6014 H   0  0  0  0  0  0
  -31.3543  -17.0861   21.9271 H   0  0  0  0  0  0
  -29.0674  -16.7378   18.9811 H   0  0  0  0  0  0
  -27.9832  -16.9245   20.3959 H   0  0  0  0  0  0
  -30.7492  -18.2189   19.9032 H   0  0  0  0  0  0
  -25.0873  -21.2659   22.1583 H   0  0  0  0  0  0
  -25.8690  -22.8090   22.4970 H   0  0  0  0  0  0
  -26.8076  -21.3194   22.5405 H   0  0  0  0  0  0
  -29.9564  -19.3860   22.9815 H   0  0  0  0  0  0
  -29.5379  -20.9876   22.4389 H   0  0  0  0  0  0
  -31.0429  -20.2489   21.8919 H   0  0  0  0  0  0
  -30.0638  -20.5437   19.2847 H   0  0  0  0  0  0
  -28.3846  -20.2187   19.1559 H   0  0  0  0  0  0
  -26.4048  -21.0317   20.0471 H   0  0  0  0  0  0
  -25.5008  -22.5119   20.0300 H   0  0  0  0  0  0
  -28.3640  -19.2918   21.2785 H   0  0  0  0  0  0
  1 25  1  0  0  0
  1 30  2  0  0  0
  1 84  1  0  0  0
  2  3  1  0  0  0
  2 25  1  0  0  0
  2 86  1  0  0  0
  2 87  1  0  0  0
  3  4  1  0  0  0
  3 88  1  0  0  0
  3 89  1  0  0  0
  4  5  1  0  0  0
  4 90  1  0  0  0
  4 91  1  0  0  0
  5  6  1  0  0  0
  5 26  1  0  0  0
  5 92  1  0  0  0
  6 25  1  0  0  0
  6 93  1  0  0  0
  6 94  1  0  0  0
  7  8  2  0  0  0
  7 26  1  0  0  0
  7 29  1  0  0  0
  8  9  1  0  0  0
  8 22  1  0  0  0
  9 10  1  0  0  0
  9 27  2  0  0  0
 10 11  2  0  0  0
 10 15  1  0  0  0
 11 12  1  0  0  0
 11 95  1  0  0  0
 12 13  2  0  0  0
 12 96  1  0  0  0
 13 14  1  0  0  0
 13 31  1  0  0  0
 14 15  2  0  0  0
 14 97  1  0  0  0
 15 98  1  0  0  0
 16 17  2  0  0  0
 16 21  1  0  0  0
 16 31  1  0  0  0
 17 18  1  0  0  0
 17 99  1  0  0  0
 18 19  2  0  0  0
 18100  1  0  0  0
 19 20  1  0  0  0
 19 24  1  0  0  0
 20 21  2  0  0  0
 20101  1  0  0  0
 21 23  1  0  0  0
 22 28  1  0  0  0
 22 32  2  0  0  0
 26 27  1  0  0  0
 28102  1  0  0  0
 28103  1  0  0  0
 29104  1  0  0  0
 29105  1  0  0  0
 33 34  1  0  0  0
 33 66  1  0  0  0
 33 70  2  0  0  0
 34 36  1  0  0  0
 34 59  1  0  0  0
 34106  1  0  0  0
 35 44  2  0  0  0
 35 45  1  0  0  0
 35 68  1  0  0  0
 36 56  1  0  0  0
 36107  1  0  0  0
 37 39  1  0  0  0
 37 47  1  0  0  0
 37 66  1  0  0  0
 37108  1  0  0  0
 38 43  2  0  0  0
 38 46  1  0  0  0
 38 47  1  0  0  0
 39 64  1  0  0  0
 39 67  2  0  0  0
 40 52  1  0  0  0
 40 53  2  0  0  0
 40 58  1  0  0  0
 41109  1  0  0  0
 41110  1  0  0  0
 41111  1  0  0  0
 41 48  1  0  0  0
 42 43  1  0  0  0
 42 66  1  0  0  0
 42112  1  0  0  0
 42113  1  0  0  0
 43 44  1  0  0  0
 44114  1  0  0  0
 45 46  2  0  0  0
 45115  1  0  0  0
 46116  1  0  0  0
 47117  1  0  0  0
 47118  1  0  0  0
 48 56  1  0  0  0
 48 65  1  0  0  0
 48119  1  0  0  0
 49 50  1  0  0  0
 49 53  1  0  0  0
 49 64  1  0  0  0
 49120  1  0  0  0
 50 51  1  0  0  0
 50121  1  0  0  0
 50122  1  0  0  0
 51 52  1  0  0  0
 51123  1  0  0  0
 51124  1  0  0  0
 52125  1  0  0  0
 52126  1  0  0  0
 53 54  1  0  0  0
 54 55  2  0  0  0
 54127  1  0  0  0
 55 57  1  0  0  0
 55128  1  0  0  0
 56 69  2  0  0  0
 57 58  2  0  0  0
 57129  1  0  0  0
 58130  1  0  0  0
 59 60  1  0  0  0
 59 61  1  0  0  0
 59 62  1  0  0  0
 60131  1  0  0  0
 60132  1  0  0  0
 60133  1  0  0  0
 61134  1  0  0  0
 61135  1  0  0  0
 61136  1  0  0  0
 62137  1  0  0  0
 62138  1  0  0  0
 62139  1  0  0  0
 63 65  1  0  0  0
 63140  1  0  0  0
 63141  1  0  0  0
 63142  1  0  0  0
 64143  1  0  0  0
 65144  1  0  0  0
 68 74  1  0  0  0
 71 72  2  0  0  0
 71 82  1  0  0  0
 71145  1  0  0  0
 72 73  1  0  0  0
 72 80  1  0  0  0
 73 81  1  0  0  0
 73 83  2  0  0  0
 74 82  2  0  0  0
 74 83  1  0  0  0
 75 84  1  0  0  0
 75146  1  0  0  0
 75147  1  0  0  0
 75 77  1  0  0  0
 76 77  1  0  0  0
 76 84  1  0  0  0
 76148  1  0  0  0
 76149  1  0  0  0
 77 85  1  0  0  0
 77150  1  0  0  0
 78 81  1  0  0  0
 78151  1  0  0  0
 78152  1  0  0  0
 78153  1  0  0  0
 79154  1  0  0  0
 79155  1  0  0  0
 79156  1  0  0  0
 79 85  1  0  0  0
 80 85  1  0  0  0
 80157  1  0  0  0
 80158  1  0  0  0
 81159  1  0  0  0
 81160  1  0  0  0
 85161  1  0  0  0
M  CHG  1  85   1
M  ISO  4   1 100  68 101  74 101  84 100
M  END
> <chiral flag>
0

> <version>
0

> <s_m_source_file>
/data/baiqing/PycharmProjects/Reinvent-master-3.2/result/LINK_invent/BTK/process_docking_weight1_custom_sum_contain_oxygen_bond_distance_aromatic_linkinvent_7_9_3/rearranged_h_0190.sdf

> <i_m_source_file_index>
6

> <r_mmod_Potential_Energy-OPLS-2005>
-198.172882080078

> <r_mmod_Stretch_Energy-OPLS-2005>
132.002685546875

> <r_mmod_Bend_Energy-OPLS-2005>
236.005386352539

> <r_mmod_Torsional_Energy-OPLS-2005>
289.418884277344

> <r_mmod_Improper_Torsional_Energy-OPLS-2005>
8.45555305480957

> <r_mmod_Van_der_Waal_Energy-OPLS-2005>
133.314361572266

> <r_mmod_Electrostatic_Energy-OPLS-2005>
-600.729675292969

> <r_mmod_Solvation_Energy-OPLS-2005>
-489.582397460938

> <b_mmod_Minimization_Converged-OPLS-2005>
0

> <r_mmod_RMS_Derivative-OPLS-2005>
1.18538916110992

$$$$
6
                    3D
 Structure written by MMmdl.
157165  0  0  1  0            999 V2000
  -30.6749  -14.5740   20.5180 C   0  0  0  0  0  0
  -30.4356  -12.3601   19.4295 C   0  0  0  0  0  0
  -29.5002  -12.4722   18.2082 C   0  0  0  0  0  0
  -28.0252  -12.3151   18.6344 C   0  0  0  0  0  0
  -27.6530  -13.2062   19.8503 C   0  0  2  0  0  0
  -28.7011  -13.0722   20.9774 C   0  0  0  0  0  0
  -25.2583  -13.8157   20.5682 C   0  0  0  0  0  0
  -24.1825  -13.0429   20.9147 C   0  0  0  0  0  0
  -24.6373  -11.6902   20.8722 C   0  0  0  0  0  0
  -23.9024  -10.4300   21.0411 C   0  0  0  0  0  0
  -24.3585   -9.4220   21.9194 C   0  0  0  0  0  0
  -23.6270   -8.2241   22.0751 C   0  0  0  0  0  0
  -22.4251   -8.0274   21.3550 C   0  0  0  0  0  0
  -21.9873   -9.0252   20.4654 C   0  0  0  0  0  0
  -22.7185  -10.2138   20.3077 C   0  0  0  0  0  0
  -21.6857   -6.0713   22.5261 C   0  0  0  0  0  0
  -21.4010   -6.5614   23.8198 C   0  0  0  0  0  0
  -21.3670   -5.6764   24.9163 C   0  0  0  0  0  0
  -21.6055   -4.3028   24.7217 C   0  0  0  0  0  0
  -21.8822   -3.8117   23.4332 C   0  0  0  0  0  0
  -21.9187   -4.6934   22.3394 C   0  0  0  0  0  0
  -22.7860  -13.5248   21.1797 C   0  0  0  0  0  0
  -22.1665   -4.2115   21.0978 F   0  0  0  0  0  0
  -21.5642   -3.4533   25.7729 F   0  0  0  0  0  0
  -30.0145  -13.3848   20.3991 N   0  0  0  0  0  0
  -26.2991  -12.9316   20.3281 N   0  0  0  0  0  0
  -25.9291  -11.6484   20.5707 N   0  0  0  0  0  0
  -22.0474  -12.8331   22.0390 N   0  0  0  0  0  0
  -25.4301  -15.1880   20.4150 N   0  0  0  0  0  0
  -31.8508  -14.6999   20.1681 O   0  0  0  0  0  0
  -21.6632   -6.8865   21.4239 O   0  0  0  0  0  0
  -22.3566  -14.5551   20.6604 O   0  0  0  0  0  0
  -24.6170  -31.8640   23.2054 C   0  0  0  0  0  0
  -25.9046  -32.4803   23.8360 C   0  0  1  0  0  0
  -27.2245  -27.3862   20.1068 C   0  0  0  0  0  0
  -25.5874  -33.8607   24.2282 N   0  0  0  0  0  0
  -23.4080  -30.4866   21.5465 C   0  0  2  0  0  0
  -24.8553  -28.9428   20.1167 C   0  0  0  0  0  0
  -22.7411  -29.4627   22.4944 C   0  0  0  0  0  0
  -18.0275  -28.1367   22.8466 C   0  0  0  0  0  0
  -24.1499  -36.7299   23.2652 C   0  0  0  0  0  0
  -25.9432  -30.8130   21.3694 C   0  0  0  0  0  0
  -26.0194  -29.4448   20.7126 C   0  0  0  0  0  0
  -27.2125  -28.6783   20.6955 C   0  0  0  0  0  0
  -26.0446  -26.9050   19.5081 C   0  0  0  0  0  0
  -24.8650  -27.6739   19.5102 C   0  0  0  0  0  0
  -23.6211  -29.8176   20.1618 C   0  0  0  0  0  0
  -25.4126  -36.3105   24.0336 C   0  0  1  0  0  0
  -20.5869  -28.3660   23.1293 C   0  0  2  0  0  0
  -20.6735  -26.9379   22.5424 C   0  0  0  0  0  0
  -19.5742  -26.6369   21.5182 C   0  0  0  0  0  0
  -18.1916  -26.7911   22.1585 C   0  0  0  0  0  0
  -19.1523  -28.8821   23.2875 C   0  0  0  0  0  0
  -18.9439  -30.1419   23.8911 C   0  0  0  0  0  0
  -17.6450  -30.6578   24.0560 C   0  0  0  0  0  0
  -25.9037  -34.9475   23.5118 C   0  0  0  0  0  0
  -16.5344  -29.9085   23.6328 C   0  0  0  0  0  0
  -16.7264  -28.6495   23.0345 C   0  0  0  0  0  0
  -26.4474  -31.6629   25.0733 C   0  0  0  0  0  0
  -25.3731  -31.3776   26.1488 C   0  0  0  0  0  0
  -27.0297  -30.3062   24.6164 C   0  0  0  0  0  0
  -27.6064  -32.4368   25.7447 C   0  0  0  0  0  0
  -27.5595  -37.1793   24.8462 C   0  0  0  0  0  0
  -21.4131  -29.3033   22.3692 N   0  0  0  0  0  0
  -26.4315  -37.3784   23.9401 N   0  0  0  0  0  0
  -24.6743  -31.0700   22.0982 N   0  0  0  0  0  0
  -23.4179  -28.8157   23.2984 O   0  0  0  0  0  0
  -28.3664  -26.6070   20.0581 O   0  0  0  0  0  0
  -26.5601  -34.8924   22.4686 O   0  0  0  0  0  0
  -23.5346  -32.1406   23.7426 O   0  0  0  0  0  0
  -31.3930  -19.1899   22.4469 C   0  0  0  0  0  0
  -31.3040  -16.8997   22.3494 C   0  0  0  0  0  0
  -30.5057  -19.3036   21.3451 C   0  0  0  0  0  0
  -30.3859  -16.9424   21.2667 C   0  0  0  0  0  0
  -30.7784  -20.7157   19.2322 C   0  0  0  0  0  0
  -28.3015  -24.0091   20.2950 C   0  0  0  0  0  0
  -29.0181  -21.5507   20.9186 C   0  0  0  0  0  0
  -28.4090  -25.4467   20.9304 C   0  0  0  0  0  0
  -30.3408  -20.7219   20.7090 C   0  0  1  0  0  0
  -31.7906  -18.0036   22.9511 N   0  0  0  0  0  0
  -29.9670  -18.1677   20.7814 N   0  0  0  0  0  0
  -29.9122  -15.6677   20.7991 N   0  0  0  0  0  0
  -29.2820  -23.0360   20.8972 N   0  3  0  0  0  0
  -31.4750  -12.4788   19.1198 H   0  0  0  0  0  0
  -30.3702  -11.3711   19.8802 H   0  0  0  0  0  0
  -29.7547  -11.7098   17.4690 H   0  0  0  0  0  0
  -29.6427  -13.4347   17.7143 H   0  0  0  0  0  0
  -27.8750  -11.2659   18.8942 H   0  0  0  0  0  0
  -27.3624  -12.5156   17.7913 H   0  0  0  0  0  0
  -27.6689  -14.2334   19.4864 H   0  0  0  0  0  0
  -28.7053  -12.0613   21.3846 H   0  0  0  0  0  0
  -28.4600  -13.7306   21.8129 H   0  0  0  0  0  0
  -25.2750   -9.5703   22.4725 H   0  0  0  0  0  0
  -23.9983   -7.4654   22.7509 H   0  0  0  0  0  0
  -21.0781   -8.8787   19.9005 H   0  0  0  0  0  0
  -22.3656  -10.9666   19.6172 H   0  0  0  0  0  0
  -21.2011   -7.6116   23.9687 H   0  0  0  0  0  0
  -21.1494   -6.0496   25.9056 H   0  0  0  0  0  0
  -22.0592   -2.7578   23.2836 H   0  0  0  0  0  0
  -22.4048  -12.0026   22.4881 H   0  0  0  0  0  0
  -21.1114  -13.1448   22.2550 H   0  0  0  0  0  0
  -24.6599  -15.8383   20.5359 H   0  0  0  0  0  0
  -26.2725  -15.6371   20.0804 H   0  0  0  0  0  0
  -26.7101  -32.5492   23.1081 H   0  0  0  0  0  0
  -25.0025  -33.9774   25.0427 H   0  0  0  0  0  0
  -22.7001  -31.3059   21.4033 H   0  0  0  0  0  0
  -23.3757  -35.9639   23.3352 H   0  0  0  0  0  0
  -24.3575  -36.8884   22.2060 H   0  0  0  0  0  0
  -23.7258  -37.6518   23.6639 H   0  0  0  0  0  0
  -26.0736  -31.5797   20.6053 H   0  0  0  0  0  0
  -26.8233  -30.8548   21.9990 H   0  0  0  0  0  0
  -28.1169  -29.0690   21.1402 H   0  0  0  0  0  0
  -26.0386  -25.9344   19.0317 H   0  0  0  0  0  0
  -23.9705  -27.2864   19.0457 H   0  0  0  0  0  0
  -23.7348  -30.5920   19.4013 H   0  0  0  0  0  0
  -22.7452  -29.2403   19.8637 H   0  0  0  0  0  0
  -25.1309  -36.1970   25.0825 H   0  0  0  0  0  0
  -20.9952  -28.3218   24.1417 H   0  0  0  0  0  0
  -20.5557  -26.2254   23.3610 H   0  0  0  0  0  0
  -21.6618  -26.7359   22.1276 H   0  0  0  0  0  0
  -19.6895  -25.6268   21.1228 H   0  0  0  0  0  0
  -19.6727  -27.3165   20.6701 H   0  0  0  0  0  0
  -17.4181  -26.6652   21.3993 H   0  0  0  0  0  0
  -18.0335  -26.0059   22.8995 H   0  0  0  0  0  0
  -19.7931  -30.7205   24.2316 H   0  0  0  0  0  0
  -17.5026  -31.6278   24.5134 H   0  0  0  0  0  0
  -15.5345  -30.2992   23.7652 H   0  0  0  0  0  0
  -15.8649  -28.0825   22.7059 H   0  0  0  0  0  0
  -24.5847  -30.7189   25.7813 H   0  0  0  0  0  0
  -24.8992  -32.2967   26.4965 H   0  0  0  0  0  0
  -25.8077  -30.8900   27.0225 H   0  0  0  0  0  0
  -26.2840  -29.6805   24.1242 H   0  0  0  0  0  0
  -27.4060  -29.7343   25.4652 H   0  0  0  0  0  0
  -27.8692  -30.4369   23.9327 H   0  0  0  0  0  0
  -27.2677  -33.3622   26.2113 H   0  0  0  0  0  0
  -28.3779  -32.7014   25.0203 H   0  0  0  0  0  0
  -28.0836  -31.8459   26.5270 H   0  0  0  0  0  0
  -28.2641  -38.0066   24.7478 H   0  0  0  0  0  0
  -28.1057  -36.2591   24.6313 H   0  0  0  0  0  0
  -27.2303  -37.1492   25.8867 H   0  0  0  0  0  0
  -20.9248  -29.8810   21.6981 H   0  0  0  0  0  0
  -26.0210  -38.2866   24.1399 H   0  0  0  0  0  0
  -31.8463  -20.0620   22.8980 H   0  0  0  0  0  0
  -31.6443  -15.9581   22.7560 H   0  0  0  0  0  0
  -31.7535  -20.2408   19.1197 H   0  0  0  0  0  0
  -30.8674  -21.7255   18.8326 H   0  0  0  0  0  0
  -30.0696  -20.1749   18.6067 H   0  0  0  0  0  0
  -28.5012  -24.0611   19.2256 H   0  0  0  0  0  0
  -27.2762  -23.6484   20.3990 H   0  0  0  0  0  0
  -28.5965  -21.3235   21.8988 H   0  0  0  0  0  0
  -28.2661  -21.2572   20.1847 H   0  0  0  0  0  0
  -29.3751  -25.5328   21.4286 H   0  0  0  0  0  0
  -27.6728  -25.5408   21.7320 H   0  0  0  0  0  0
  -31.1094  -21.3046   21.2174 H   0  0  0  0  0  0
  -28.9125  -15.5434   20.7890 H   0  0  0  0  0  0
  -29.4081  -23.2985   21.8625 H   0  0  0  0  0  0
  -30.1715  -23.1905   20.4470 H   0  0  0  0  0  0
  1 25  1  0  0  0
  1 30  2  0  0  0
  1 82  1  0  0  0
  2  3  1  0  0  0
  2 25  1  0  0  0
  2 84  1  0  0  0
  2 85  1  0  0  0
  3  4  1  0  0  0
  3 86  1  0  0  0
  3 87  1  0  0  0
  4  5  1  0  0  0
  4 88  1  0  0  0
  4 89  1  0  0  0
  5  6  1  0  0  0
  5 26  1  0  0  0
  5 90  1  0  0  0
  6 25  1  0  0  0
  6 91  1  0  0  0
  6 92  1  0  0  0
  7  8  2  0  0  0
  7 26  1  0  0  0
  7 29  1  0  0  0
  8  9  1  0  0  0
  8 22  1  0  0  0
  9 10  1  0  0  0
  9 27  2  0  0  0
 10 11  2  0  0  0
 10 15  1  0  0  0
 11 12  1  0  0  0
 11 93  1  0  0  0
 12 13  2  0  0  0
 12 94  1  0  0  0
 13 14  1  0  0  0
 13 31  1  0  0  0
 14 15  2  0  0  0
 14 95  1  0  0  0
 15 96  1  0  0  0
 16 17  2  0  0  0
 16 21  1  0  0  0
 16 31  1  0  0  0
 17 18  1  0  0  0
 17 97  1  0  0  0
 18 19  2  0  0  0
 18 98  1  0  0  0
 19 20  1  0  0  0
 19 24  1  0  0  0
 20 21  2  0  0  0
 20 99  1  0  0  0
 21 23  1  0  0  0
 22 28  1  0  0  0
 22 32  2  0  0  0
 26 27  1  0  0  0
 28100  1  0  0  0
 28101  1  0  0  0
 29102  1  0  0  0
 29103  1  0  0  0
 33 34  1  0  0  0
 33 66  1  0  0  0
 33 70  2  0  0  0
 34 36  1  0  0  0
 34 59  1  0  0  0
 34104  1  0  0  0
 35 44  2  0  0  0
 35 45  1  0  0  0
 35 68  1  0  0  0
 36 56  1  0  0  0
 36105  1  0  0  0
 37 39  1  0  0  0
 37 47  1  0  0  0
 37 66  1  0  0  0
 37106  1  0  0  0
 38 43  2  0  0  0
 38 46  1  0  0  0
 38 47  1  0  0  0
 39 64  1  0  0  0
 39 67  2  0  0  0
 40 52  1  0  0  0
 40 53  2  0  0  0
 40 58  1  0  0  0
 41107  1  0  0  0
 41108  1  0  0  0
 41109  1  0  0  0
 41 48  1  0  0  0
 42 43  1  0  0  0
 42 66  1  0  0  0
 42110  1  0  0  0
 42111  1  0  0  0
 43 44  1  0  0  0
 44112  1  0  0  0
 45 46  2  0  0  0
 45113  1  0  0  0
 46114  1  0  0  0
 47115  1  0  0  0
 47116  1  0  0  0
 48 56  1  0  0  0
 48 65  1  0  0  0
 48117  1  0  0  0
 49 50  1  0  0  0
 49 53  1  0  0  0
 49 64  1  0  0  0
 49118  1  0  0  0
 50 51  1  0  0  0
 50119  1  0  0  0
 50120  1  0  0  0
 51 52  1  0  0  0
 51121  1  0  0  0
 51122  1  0  0  0
 52123  1  0  0  0
 52124  1  0  0  0
 53 54  1  0  0  0
 54 55  2  0  0  0
 54125  1  0  0  0
 55 57  1  0  0  0
 55126  1  0  0  0
 56 69  2  0  0  0
 57 58  2  0  0  0
 57127  1  0  0  0
 58128  1  0  0  0
 59 60  1  0  0  0
 59 61  1  0  0  0
 59 62  1  0  0  0
 60129  1  0  0  0
 60130  1  0  0  0
 60131  1  0  0  0
 61132  1  0  0  0
 61133  1  0  0  0
 61134  1  0  0  0
 62135  1  0  0  0
 62136  1  0  0  0
 62137  1  0  0  0
 63 65  1  0  0  0
 63138  1  0  0  0
 63139  1  0  0  0
 63140  1  0  0  0
 64141  1  0  0  0
 65142  1  0  0  0
 68 78  1  0  0  0
 71 73  2  0  0  0
 71 80  1  0  0  0
 71143  1  0  0  0
 72 74  1  0  0  0
 72 80  2  0  0  0
 72144  1  0  0  0
 73 79  1  0  0  0
 73 81  1  0  0  0
 74 81  2  0  0  0
 74 82  1  0  0  0
 75145  1  0  0  0
 75146  1  0  0  0
 75147  1  0  0  0
 75 79  1  0  0  0
 76 78  1  0  0  0
 76 83  1  0  0  0
 76148  1  0  0  0
 76149  1  0  0  0
 77 79  1  0  0  0
 77 83  1  0  0  0
 77150  1  0  0  0
 77151  1  0  0  0
 78152  1  0  0  0
 78153  1  0  0  0
 79154  1  0  0  0
 82155  1  0  0  0
 83156  1  0  0  0
 83157  1  0  0  0
M  CHG  1  83   1
M  ISO  4   1 100  68 101  78 101  82 100
M  END
> <chiral flag>
0

> <version>
0

> <s_m_source_file>
/data/baiqing/PycharmProjects/Reinvent-master-3.2/result/LINK_invent/BTK/process_docking_weight1_custom_sum_contain_oxygen_bond_distance_aromatic_linkinvent_7_9_3/rearranged_h_0190.sdf

> <i_m_source_file_index>
7

> <r_mmod_Potential_Energy-OPLS-2005>
-79.8253326416016

> <r_mmod_Stretch_Energy-OPLS-2005>
58.8648300170898

> <r_mmod_Bend_Energy-OPLS-2005>
125.903694152832

> <r_mmod_Torsional_Energy-OPLS-2005>
278.746398925781

> <r_mmod_Improper_Torsional_Energy-OPLS-2005>
6.47446870803833

> <r_mmod_Van_der_Waal_Energy-OPLS-2005>
148.320938110352

> <r_mmod_Electrostatic_Energy-OPLS-2005>
-244.380035400391

> <r_mmod_Solvation_Energy-OPLS-2005>
-482.851501464844

> <b_mmod_Minimization_Converged-OPLS-2005>
0

> <r_mmod_RMS_Derivative-OPLS-2005>
4.15960550308228

$$$$
7
                    3D
 Structure written by MMmdl.
159168  0  0  1  0            999 V2000
  -30.6078  -14.7348   20.4638 C   0  0  0  0  0  0
  -30.4307  -12.4483   19.4664 C   0  0  0  0  0  0
  -29.5069  -12.5010   18.2299 C   0  0  0  0  0  0
  -28.0340  -12.3204   18.6463 C   0  0  0  0  0  0
  -27.6383  -13.2242   19.8445 C   0  0  2  0  0  0
  -28.6821  -13.1571   20.9801 C   0  0  0  0  0  0
  -25.2503  -13.8176   20.5663 C   0  0  0  0  0  0
  -24.1790  -13.0429   20.9192 C   0  0  0  0  0  0
  -24.6370  -11.6901   20.8728 C   0  0  0  0  0  0
  -23.9047  -10.4279   21.0390 C   0  0  0  0  0  0
  -24.3601   -9.4201   21.9178 C   0  0  0  0  0  0
  -23.6273   -8.2240   22.0763 C   0  0  0  0  0  0
  -22.4264   -8.0268   21.3544 C   0  0  0  0  0  0
  -21.9889   -9.0238   20.4648 C   0  0  0  0  0  0
  -22.7214  -10.2117   20.3047 C   0  0  0  0  0  0
  -21.6857   -6.0718   22.5271 C   0  0  0  0  0  0
  -21.4015   -6.5628   23.8200 C   0  0  0  0  0  0
  -21.3657   -5.6784   24.9166 C   0  0  0  0  0  0
  -21.6043   -4.3046   24.7220 C   0  0  0  0  0  0
  -21.8825   -3.8133   23.4343 C   0  0  0  0  0  0
  -21.9191   -4.6946   22.3394 C   0  0  0  0  0  0
  -22.7818  -13.5219   21.1852 C   0  0  0  0  0  0
  -22.1662   -4.2132   21.0973 F   0  0  0  0  0  0
  -21.5625   -3.4533   25.7736 F   0  0  0  0  0  0
  -29.9824  -13.5091   20.3969 N   0  0  0  0  0  0
  -26.2915  -12.9363   20.3240 N   0  0  0  0  0  0
  -25.9296  -11.6514   20.5724 N   0  0  0  0  0  0
  -22.0457  -12.8211   22.0405 N   0  0  0  0  0  0
  -25.4176  -15.1901   20.4062 N   0  0  0  0  0  0
  -31.8065  -14.8080   20.1676 O   0  0  0  0  0  0
  -21.6639   -6.8859   21.4234 O   0  0  0  0  0  0
  -22.3501  -14.5524   20.6696 O   0  0  0  0  0  0
  -24.6305  -31.8554   23.1953 C   0  0  0  0  0  0
  -25.9140  -32.4759   23.8293 C   0  0  1  0  0  0
  -27.2255  -27.2688   20.1358 C   0  0  0  0  0  0
  -25.5958  -33.8557   24.2245 N   0  0  0  0  0  0
  -23.4261  -30.4729   21.5413 C   0  0  2  0  0  0
  -24.8726  -28.9111   20.1167 C   0  0  0  0  0  0
  -22.7503  -29.4588   22.4953 C   0  0  0  0  0  0
  -18.0294  -28.1362   22.8482 C   0  0  0  0  0  0
  -24.1497  -36.7274   23.2640 C   0  0  0  0  0  0
  -25.9677  -30.7722   21.3678 C   0  0  0  0  0  0
  -26.0438  -29.3903   20.7171 C   0  0  0  0  0  0
  -27.2260  -28.5856   20.7047 C   0  0  0  0  0  0
  -26.0302  -26.8390   19.5243 C   0  0  0  0  0  0
  -24.8695  -27.6436   19.5090 C   0  0  0  0  0  0
  -23.6421  -29.7988   20.1594 C   0  0  0  0  0  0
  -25.4125  -36.3064   24.0324 C   0  0  1  0  0  0
  -20.5895  -28.3664   23.1297 C   0  0  2  0  0  0
  -20.6783  -26.9390   22.5416 C   0  0  0  0  0  0
  -19.5761  -26.6372   21.5208 C   0  0  0  0  0  0
  -18.1937  -26.7914   22.1616 C   0  0  0  0  0  0
  -19.1545  -28.8835   23.2872 C   0  0  0  0  0  0
  -18.9472  -30.1441   23.8884 C   0  0  0  0  0  0
  -17.6475  -30.6577   24.0547 C   0  0  0  0  0  0
  -25.9074  -34.9443   23.5091 C   0  0  0  0  0  0
  -16.5365  -29.9067   23.6327 C   0  0  0  0  0  0
  -16.7282  -28.6476   23.0357 C   0  0  0  0  0  0
  -26.4503  -31.6580   25.0686 C   0  0  0  0  0  0
  -25.3720  -31.3714   26.1405 C   0  0  0  0  0  0
  -27.0356  -30.3017   24.6123 C   0  0  0  0  0  0
  -27.6060  -32.4301   25.7472 C   0  0  0  0  0  0
  -27.5576  -37.1789   24.8463 C   0  0  0  0  0  0
  -21.4217  -29.3017   22.3707 N   0  0  0  0  0  0
  -26.4291  -37.3769   23.9407 N   0  0  0  0  0  0
  -24.6939  -31.0516   22.0921 N   0  0  0  0  0  0
  -23.4215  -28.8149   23.3054 O   0  0  0  0  0  0
  -28.3535  -26.4263   20.1024 O   0  0  0  0  0  0
  -26.5629  -34.8925   22.4650 O   0  0  0  0  0  0
  -23.5465  -32.1380   23.7266 O   0  0  0  0  0  0
  -29.1993  -18.3652   20.4126 C   0  0  0  0  0  0
  -31.7106  -18.9914   21.2279 C   0  0  0  0  0  0
  -29.5247  -19.7815   20.5123 C   0  0  0  0  0  0
  -30.8345  -20.0588   20.9512 C   0  0  0  0  0  0
  -30.1528  -17.3063   20.7012 C   0  0  0  0  0  0
  -31.3261  -21.4954   21.0993 C   0  0  0  0  0  0
  -30.2039  -22.5437   21.2613 C   0  0  0  0  0  0
  -28.5580  -21.0090   20.1716 C   0  0  2  0  0  0
  -27.8489  -20.7368   18.8308 C   0  0  0  0  0  0
  -28.4091  -23.6968   19.7725 C   0  0  0  0  0  0
  -28.3245  -25.0406   20.6836 C   0  0  0  0  0  0
  -31.3851  -17.6855   21.1095 N   0  0  0  0  0  0
  -29.8120  -15.8673   20.6072 N   0  0  0  0  0  0
  -29.2043  -22.4125   20.1747 N   0  3  1  0  0  0
  -31.4702  -12.5759   19.1600 H   0  0  0  0  0  0
  -30.3798  -11.4696   19.9467 H   0  0  0  0  0  0
  -29.7891  -11.7291   17.5124 H   0  0  0  0  0  0
  -29.6310  -13.4566   17.7167 H   0  0  0  0  0  0
  -27.8972  -11.2724   18.9161 H   0  0  0  0  0  0
  -27.3736  -12.5027   17.7975 H   0  0  0  0  0  0
  -27.6306  -14.2433   19.4588 H   0  0  0  0  0  0
  -28.7163  -12.1588   21.4178 H   0  0  0  0  0  0
  -28.4175  -13.8361   21.7920 H   0  0  0  0  0  0
  -25.2746   -9.5688   22.4754 H   0  0  0  0  0  0
  -23.9976   -7.4643   22.7505 H   0  0  0  0  0  0
  -21.0811   -8.8746   19.8964 H   0  0  0  0  0  0
  -22.3659  -10.9649   19.6153 H   0  0  0  0  0  0
  -21.2020   -7.6138   23.9695 H   0  0  0  0  0  0
  -21.1473   -6.0518   25.9064 H   0  0  0  0  0  0
  -22.0608   -2.7596   23.2848 H   0  0  0  0  0  0
  -22.4054  -11.9856   22.4776 H   0  0  0  0  0  0
  -21.1086  -13.1259   22.2627 H   0  0  0  0  0  0
  -24.6420  -15.8362   20.5065 H   0  0  0  0  0  0
  -26.2488  -15.6297   20.0351 H   0  0  0  0  0  0
  -26.7215  -32.5420   23.1037 H   0  0  0  0  0  0
  -25.0098  -33.9677   25.0386 H   0  0  0  0  0  0
  -22.7221  -31.2937   21.3935 H   0  0  0  0  0  0
  -23.3768  -35.9595   23.3291 H   0  0  0  0  0  0
  -24.3586  -36.8913   22.2055 H   0  0  0  0  0  0
  -23.7243  -37.6470   23.6676 H   0  0  0  0  0  0
  -26.0959  -31.5310   20.5947 H   0  0  0  0  0  0
  -26.8498  -30.8296   21.9942 H   0  0  0  0  0  0
  -28.1333  -28.9590   21.1587 H   0  0  0  0  0  0
  -25.9885  -25.8668   19.0526 H   0  0  0  0  0  0
  -23.9719  -27.2710   19.0354 H   0  0  0  0  0  0
  -23.7622  -30.5718   19.3989 H   0  0  0  0  0  0
  -22.7598  -29.2299   19.8617 H   0  0  0  0  0  0
  -25.1300  -36.1895   25.0815 H   0  0  0  0  0  0
  -20.9959  -28.3223   24.1424 H   0  0  0  0  0  0
  -20.5707  -26.2262   23.3606 H   0  0  0  0  0  0
  -21.6645  -26.7432   22.1195 H   0  0  0  0  0  0
  -19.6933  -25.6283   21.1229 H   0  0  0  0  0  0
  -19.6707  -27.3197   20.6746 H   0  0  0  0  0  0
  -17.4214  -26.6676   21.4007 H   0  0  0  0  0  0
  -18.0306  -26.0052   22.9002 H   0  0  0  0  0  0
  -19.7958  -30.7233   24.2267 H   0  0  0  0  0  0
  -17.5037  -31.6267   24.5125 H   0  0  0  0  0  0
  -15.5365  -30.2954   23.7667 H   0  0  0  0  0  0
  -15.8681  -28.0787   22.7080 H   0  0  0  0  0  0
  -24.5912  -30.7050   25.7715 H   0  0  0  0  0  0
  -24.8882  -32.2881   26.4796 H   0  0  0  0  0  0
  -25.8026  -30.8910   27.0200 H   0  0  0  0  0  0
  -26.2919  -29.6767   24.1168 H   0  0  0  0  0  0
  -27.4118  -29.7271   25.4595 H   0  0  0  0  0  0
  -27.8761  -30.4340   23.9303 H   0  0  0  0  0  0
  -27.2691  -33.3633   26.1987 H   0  0  0  0  0  0
  -28.3910  -32.6794   25.0323 H   0  0  0  0  0  0
  -28.0674  -31.8449   26.5437 H   0  0  0  0  0  0
  -28.2563  -38.0109   24.7523 H   0  0  0  0  0  0
  -28.1095  -36.2639   24.6268 H   0  0  0  0  0  0
  -27.2287  -37.1406   25.8862 H   0  0  0  0  0  0
  -20.9415  -29.8728   21.6899 H   0  0  0  0  0  0
  -26.0168  -38.2838   24.1427 H   0  0  0  0  0  0
  -28.2025  -18.0868   20.0998 H   0  0  0  0  0  0
  -32.7210  -19.1891   21.5562 H   0  0  0  0  0  0
  -31.9387  -21.7348   20.2279 H   0  0  0  0  0  0
  -31.9971  -21.5571   21.9576 H   0  0  0  0  0  0
  -30.6800  -23.5226   21.2390 H   0  0  0  0  0  0
  -29.7120  -22.4419   22.2295 H   0  0  0  0  0  0
  -27.8001  -21.0169   20.9557 H   0  0  0  0  0  0
  -28.5676  -20.6762   18.0145 H   0  0  0  0  0  0
  -27.1175  -21.5001   18.5756 H   0  0  0  0  0  0
  -27.3049  -19.7933   18.8580 H   0  0  0  0  0  0
  -28.8575  -23.9974   18.8254 H   0  0  0  0  0  0
  -27.3863  -23.4304   19.5144 H   0  0  0  0  0  0
  -29.1668  -25.0528   21.3703 H   0  0  0  0  0  0
  -27.4573  -24.9529   21.3386 H   0  0  0  0  0  0
  -28.8270  -15.6666   20.6515 H   0  0  0  0  0  0
  -29.8193  -22.3174   19.3813 H   0  0  0  0  0  0
  1 25  1  0  0  0
  1 30  2  0  0  0
  1 83  1  0  0  0
  2  3  1  0  0  0
  2 25  1  0  0  0
  2 85  1  0  0  0
  2 86  1  0  0  0
  3  4  1  0  0  0
  3 87  1  0  0  0
  3 88  1  0  0  0
  4  5  1  0  0  0
  4 89  1  0  0  0
  4 90  1  0  0  0
  5  6  1  0  0  0
  5 26  1  0  0  0
  5 91  1  0  0  0
  6 25  1  0  0  0
  6 92  1  0  0  0
  6 93  1  0  0  0
  7  8  2  0  0  0
  7 26  1  0  0  0
  7 29  1  0  0  0
  8  9  1  0  0  0
  8 22  1  0  0  0
  9 10  1  0  0  0
  9 27  2  0  0  0
 10 11  2  0  0  0
 10 15  1  0  0  0
 11 12  1  0  0  0
 11 94  1  0  0  0
 12 13  2  0  0  0
 12 95  1  0  0  0
 13 14  1  0  0  0
 13 31  1  0  0  0
 14 15  2  0  0  0
 14 96  1  0  0  0
 15 97  1  0  0  0
 16 17  2  0  0  0
 16 21  1  0  0  0
 16 31  1  0  0  0
 17 18  1  0  0  0
 17 98  1  0  0  0
 18 19  2  0  0  0
 18 99  1  0  0  0
 19 20  1  0  0  0
 19 24  1  0  0  0
 20 21  2  0  0  0
 20100  1  0  0  0
 21 23  1  0  0  0
 22 28  1  0  0  0
 22 32  2  0  0  0
 26 27  1  0  0  0
 28101  1  0  0  0
 28102  1  0  0  0
 29103  1  0  0  0
 29104  1  0  0  0
 33 34  1  0  0  0
 33 66  1  0  0  0
 33 70  2  0  0  0
 34 36  1  0  0  0
 34 59  1  0  0  0
 34105  1  0  0  0
 35 44  2  0  0  0
 35 45  1  0  0  0
 35 68  1  0  0  0
 36 56  1  0  0  0
 36106  1  0  0  0
 37 39  1  0  0  0
 37 47  1  0  0  0
 37 66  1  0  0  0
 37107  1  0  0  0
 38 43  2  0  0  0
 38 46  1  0  0  0
 38 47  1  0  0  0
 39 64  1  0  0  0
 39 67  2  0  0  0
 40 52  1  0  0  0
 40 53  2  0  0  0
 40 58  1  0  0  0
 41108  1  0  0  0
 41109  1  0  0  0
 41110  1  0  0  0
 41 48  1  0  0  0
 42 43  1  0  0  0
 42 66  1  0  0  0
 42111  1  0  0  0
 42112  1  0  0  0
 43 44  1  0  0  0
 44113  1  0  0  0
 45 46  2  0  0  0
 45114  1  0  0  0
 46115  1  0  0  0
 47116  1  0  0  0
 47117  1  0  0  0
 48 56  1  0  0  0
 48 65  1  0  0  0
 48118  1  0  0  0
 49 50  1  0  0  0
 49 53  1  0  0  0
 49 64  1  0  0  0
 49119  1  0  0  0
 50 51  1  0  0  0
 50120  1  0  0  0
 50121  1  0  0  0
 51 52  1  0  0  0
 51122  1  0  0  0
 51123  1  0  0  0
 52124  1  0  0  0
 52125  1  0  0  0
 53 54  1  0  0  0
 54 55  2  0  0  0
 54126  1  0  0  0
 55 57  1  0  0  0
 55127  1  0  0  0
 56 69  2  0  0  0
 57 58  2  0  0  0
 57128  1  0  0  0
 58129  1  0  0  0
 59 60  1  0  0  0
 59 61  1  0  0  0
 59 62  1  0  0  0
 60130  1  0  0  0
 60131  1  0  0  0
 60132  1  0  0  0
 61133  1  0  0  0
 61134  1  0  0  0
 61135  1  0  0  0
 62136  1  0  0  0
 62137  1  0  0  0
 62138  1  0  0  0
 63 65  1  0  0  0
 63139  1  0  0  0
 63140  1  0  0  0
 63141  1  0  0  0
 64142  1  0  0  0
 65143  1  0  0  0
 68 81  1  0  0  0
 71 73  2  0  0  0
 71 75  1  0  0  0
 71144  1  0  0  0
 72 74  2  0  0  0
 72 82  1  0  0  0
 72145  1  0  0  0
 73 74  1  0  0  0
 73 78  1  0  0  0
 74 76  1  0  0  0
 75 82  2  0  0  0
 75 83  1  0  0  0
 76 77  1  0  0  0
 76146  1  0  0  0
 76147  1  0  0  0
 77 84  1  0  0  0
 77148  1  0  0  0
 77149  1  0  0  0
 78 79  1  0  0  0
 78 84  1  0  0  0
 78150  1  0  0  0
 79151  1  0  0  0
 79152  1  0  0  0
 79153  1  0  0  0
 80 81  1  0  0  0
 80154  1  0  0  0
 80155  1  0  0  0
 80 84  1  0  0  0
 81156  1  0  0  0
 81157  1  0  0  0
 83158  1  0  0  0
 84159  1  0  0  0
M  CHG  1  84   1
M  ISO  4   1 100  68 101  81 101  83 100
M  END
> <chiral flag>
0

> <version>
0

> <s_m_source_file>
/data/baiqing/PycharmProjects/Reinvent-master-3.2/result/LINK_invent/BTK/process_docking_weight1_custom_sum_contain_oxygen_bond_distance_aromatic_linkinvent_7_9_3/rearranged_h_0190.sdf

> <i_m_source_file_index>
8

> <r_mmod_Potential_Energy-OPLS-2005>
-89.1131057739258

> <r_mmod_Stretch_Energy-OPLS-2005>
124.826568603516

> <r_mmod_Bend_Energy-OPLS-2005>
187.062072753906

> <r_mmod_Torsional_Energy-OPLS-2005>
261.406341552734

> <r_mmod_Improper_Torsional_Energy-OPLS-2005>
6.24156808853149

> <r_mmod_Van_der_Waal_Energy-OPLS-2005>
142.726577758789

> <r_mmod_Electrostatic_Energy-OPLS-2005>
-407.142150878906

> <r_mmod_Solvation_Energy-OPLS-2005>
-480.129699707031

> <b_mmod_Minimization_Converged-OPLS-2005>
0

> <r_mmod_RMS_Derivative-OPLS-2005>
1.77729082107544

$$$$
8
                    3D
 Structure written by MMmdl.
154163  0  0  1  0            999 V2000
  -30.5753  -14.8803   20.4382 C   0  0  0  0  0  0
  -30.4386  -12.5431   19.4929 C   0  0  0  0  0  0
  -29.5260  -12.5433   18.2458 C   0  0  0  0  0  0
  -28.0518  -12.3415   18.6495 C   0  0  0  0  0  0
  -27.6407  -13.2445   19.8419 C   0  0  2  0  0  0
  -28.6804  -13.2335   20.9835 C   0  0  0  0  0  0
  -25.2539  -13.8175   20.5667 C   0  0  0  0  0  0
  -24.1818  -13.0416   20.9181 C   0  0  0  0  0  0
  -24.6417  -11.6898   20.8715 C   0  0  0  0  0  0
  -23.9059  -10.4271   21.0327 C   0  0  0  0  0  0
  -24.3580   -9.4199   21.9104 C   0  0  0  0  0  0
  -23.6295   -8.2207   22.0701 C   0  0  0  0  0  0
  -22.4277   -8.0252   21.3490 C   0  0  0  0  0  0
  -21.9919   -9.0239   20.4585 C   0  0  0  0  0  0
  -22.7211  -10.2114   20.2975 C   0  0  0  0  0  0
  -21.6868   -6.0727   22.5263 C   0  0  0  0  0  0
  -21.4005   -6.5631   23.8214 C   0  0  0  0  0  0
  -21.3675   -5.6772   24.9166 C   0  0  0  0  0  0
  -21.6080   -4.3035   24.7211 C   0  0  0  0  0  0
  -21.8827   -3.8134   23.4324 C   0  0  0  0  0  0
  -21.9183   -4.6969   22.3382 C   0  0  0  0  0  0
  -22.7840  -13.5251   21.1861 C   0  0  0  0  0  0
  -22.1661   -4.2133   21.0969 F   0  0  0  0  0  0
  -21.5657   -3.4525   25.7722 F   0  0  0  0  0  0
  -29.9634  -13.6324   20.3883 N   0  0  0  0  0  0
  -26.2961  -12.9414   20.3213 N   0  0  0  0  0  0
  -25.9374  -11.6537   20.5717 N   0  0  0  0  0  0
  -22.0429  -12.8273   22.0385 N   0  0  0  0  0  0
  -25.4298  -15.1888   20.4067 N   0  0  0  0  0  0
  -31.7736  -14.9433   20.1469 O   0  0  0  0  0  0
  -21.6619   -6.8865   21.4217 O   0  0  0  0  0  0
  -22.3565  -14.5555   20.6691 O   0  0  0  0  0  0
  -24.6467  -31.8406   23.1862 C   0  0  0  0  0  0
  -25.9240  -32.4664   23.8253 C   0  0  1  0  0  0
  -27.2093  -27.1409   20.1442 C   0  0  0  0  0  0
  -25.5988  -33.8459   24.2187 N   0  0  0  0  0  0
  -23.4511  -30.4611   21.5308 C   0  0  2  0  0  0
  -24.8959  -28.8794   20.1152 C   0  0  0  0  0  0
  -22.7576  -29.4519   22.4819 C   0  0  0  0  0  0
  -18.0308  -28.1380   22.8447 C   0  0  0  0  0  0
  -24.1502  -36.7229   23.2637 C   0  0  0  0  0  0
  -26.0068  -30.7164   21.3819 C   0  0  0  0  0  0
  -26.0752  -29.3251   20.7255 C   0  0  0  0  0  0
  -27.2375  -28.4726   20.7172 C   0  0  0  0  0  0
  -26.0046  -26.7835   19.5066 C   0  0  0  0  0  0
  -24.8692  -27.6210   19.4922 C   0  0  0  0  0  0
  -23.6765  -29.7852   20.1514 C   0  0  0  0  0  0
  -25.4130  -36.2981   24.0311 C   0  0  1  0  0  0
  -20.5915  -28.3699   23.1211 C   0  0  2  0  0  0
  -20.6761  -26.9389   22.5386 C   0  0  0  0  0  0
  -19.5740  -26.6369   21.5193 C   0  0  0  0  0  0
  -18.1927  -26.7924   22.1598 C   0  0  0  0  0  0
  -19.1562  -28.8862   23.2822 C   0  0  0  0  0  0
  -18.9468  -30.1462   23.8834 C   0  0  0  0  0  0
  -17.6473  -30.6572   24.0548 C   0  0  0  0  0  0
  -25.9093  -34.9381   23.5060 C   0  0  0  0  0  0
  -16.5365  -29.9053   23.6345 C   0  0  0  0  0  0
  -16.7298  -28.6486   23.0348 C   0  0  0  0  0  0
  -26.4568  -31.6520   25.0703 C   0  0  0  0  0  0
  -25.3765  -31.3690   26.1417 C   0  0  0  0  0  0
  -27.0420  -30.2904   24.6282 C   0  0  0  0  0  0
  -27.6133  -32.4251   25.7474 C   0  0  0  0  0  0
  -27.5586  -37.1764   24.8456 C   0  0  0  0  0  0
  -21.4260  -29.3050   22.3601 N   0  0  0  0  0  0
  -26.4279  -37.3711   23.9409 N   0  0  0  0  0  0
  -24.7221  -31.0263   22.0893 N   0  0  0  0  0  0
  -23.4211  -28.8061   23.2963 O   0  0  0  0  0  0
  -28.2653  -26.1727   20.1133 O   0  0  0  0  0  0
  -26.5642  -34.8883   22.4610 O   0  0  0  0  0  0
  -23.5589  -32.1260   23.7096 O   0  0  0  0  0  0
  -28.0496  -20.7058   19.0090 C   0  0  0  0  0  0
  -27.4609  -21.8308   18.4048 C   0  0  0  0  0  0
  -28.8421  -20.8820   20.1440 C   0  0  0  0  0  0
  -28.3033  -23.2878   20.0101 C   0  0  0  0  0  0
  -29.8436  -17.2332   19.5689 C   0  0  0  0  0  0
  -29.9841  -17.1701   21.5569 C   0  0  0  0  0  0
  -29.2016  -18.1915   20.6393 C   0  0  0  0  0  0
  -26.5987  -21.6616   17.1659 C   0  0  0  0  0  0
  -28.0830  -24.7598   20.7207 C   0  0  0  0  0  0
  -27.5916  -23.0883   18.8976 N   0  0  0  0  0  0
  -28.9359  -22.1990   20.6298 N   0  0  0  0  0  0
  -29.8008  -16.0658   20.5431 N   0  0  0  0  0  0
  -29.5280  -19.7131   20.7231 N   0  0  0  0  0  0
  -31.4813  -12.6832   19.1978 H   0  0  0  0  0  0
  -30.3977  -11.5825   20.0106 H   0  0  0  0  0  0
  -29.8449  -11.7631   17.5526 H   0  0  0  0  0  0
  -29.6264  -13.4951   17.7196 H   0  0  0  0  0  0
  -27.9234  -11.2944   18.9239 H   0  0  0  0  0  0
  -27.3908  -12.5185   17.7986 H   0  0  0  0  0  0
  -27.6213  -14.2579   19.4402 H   0  0  0  0  0  0
  -28.7519  -12.2465   21.4453 H   0  0  0  0  0  0
  -28.3834  -13.9185   21.7783 H   0  0  0  0  0  0
  -25.2672   -9.5779   22.4715 H   0  0  0  0  0  0
  -24.0035   -7.4644   22.7453 H   0  0  0  0  0  0
  -21.0850   -8.8770   19.8902 H   0  0  0  0  0  0
  -22.3636  -10.9685   19.6125 H   0  0  0  0  0  0
  -21.1959   -7.6124   23.9750 H   0  0  0  0  0  0
  -21.1524   -6.0445   25.9095 H   0  0  0  0  0  0
  -22.0585   -2.7604   23.2790 H   0  0  0  0  0  0
  -22.4007  -11.9951   22.4856 H   0  0  0  0  0  0
  -21.1026  -13.1351   22.2413 H   0  0  0  0  0  0
  -24.6757  -15.8527   20.5360 H   0  0  0  0  0  0
  -26.3007  -15.6248   20.1325 H   0  0  0  0  0  0
  -26.7292  -32.5257   23.0961 H   0  0  0  0  0  0
  -25.0177  -33.9547   25.0376 H   0  0  0  0  0  0
  -22.7571  -31.2874   21.3760 H   0  0  0  0  0  0
  -23.3764  -35.9555   23.3248 H   0  0  0  0  0  0
  -24.3631  -36.8907   22.2064 H   0  0  0  0  0  0
  -23.7268  -37.6421   23.6708 H   0  0  0  0  0  0
  -26.1649  -31.4692   20.6076 H   0  0  0  0  0  0
  -26.8740  -30.7623   22.0272 H   0  0  0  0  0  0
  -28.1460  -28.8107   21.1944 H   0  0  0  0  0  0
  -25.9337  -25.8206   19.0201 H   0  0  0  0  0  0
  -23.9668  -27.2717   19.0071 H   0  0  0  0  0  0
  -23.8139  -30.5549   19.3897 H   0  0  0  0  0  0
  -22.7909  -29.2243   19.8484 H   0  0  0  0  0  0
  -25.1328  -36.1776   25.0807 H   0  0  0  0  0  0
  -21.0047  -28.3256   24.1314 H   0  0  0  0  0  0
  -20.5600  -26.2309   23.3590 H   0  0  0  0  0  0
  -21.6632  -26.7338   22.1247 H   0  0  0  0  0  0
  -19.6893  -25.6275   21.1234 H   0  0  0  0  0  0
  -19.6707  -27.3146   20.6684 H   0  0  0  0  0  0
  -17.4216  -26.6669   21.3990 H   0  0  0  0  0  0
  -18.0326  -26.0082   22.9004 H   0  0  0  0  0  0
  -19.7953  -30.7297   24.2154 H   0  0  0  0  0  0
  -17.5030  -31.6253   24.5131 H   0  0  0  0  0  0
  -15.5359  -30.2929   23.7711 H   0  0  0  0  0  0
  -15.8701  -28.0811   22.7049 H   0  0  0  0  0  0
  -24.5995  -30.6954   25.7773 H   0  0  0  0  0  0
  -24.8884  -32.2844   26.4754 H   0  0  0  0  0  0
  -25.8090  -30.8966   27.0239 H   0  0  0  0  0  0
  -26.3018  -29.6609   24.1318 H   0  0  0  0  0  0
  -27.4058  -29.7224   25.4852 H   0  0  0  0  0  0
  -27.8924  -30.4128   23.9567 H   0  0  0  0  0  0
  -27.2775  -33.3577   26.1993 H   0  0  0  0  0  0
  -28.3970  -32.6723   25.0310 H   0  0  0  0  0  0
  -28.0757  -31.8389   26.5420 H   0  0  0  0  0  0
  -28.2553  -38.0105   24.7547 H   0  0  0  0  0  0
  -28.1125  -36.2646   24.6210 H   0  0  0  0  0  0
  -27.2321  -37.1318   25.8857 H   0  0  0  0  0  0
  -20.9431  -29.8788   21.6817 H   0  0  0  0  0  0
  -26.0127  -38.2760   24.1438 H   0  0  0  0  0  0
  -27.9148  -19.7231   18.5809 H   0  0  0  0  0  0
  -30.8551  -17.5239   19.2662 H   0  0  0  0  0  0
  -29.2146  -17.1022   18.6845 H   0  0  0  0  0  0
  -29.5069  -16.9805   22.5213 H   0  0  0  0  0  0
  -31.0353  -17.4371   21.7186 H   0  0  0  0  0  0
  -28.1234  -18.0250   20.7206 H   0  0  0  0  0  0
  -26.9016  -20.7838   16.5874 H   0  0  0  0  0  0
  -26.6576  -22.5267   16.5057 H   0  0  0  0  0  0
  -25.5572  -21.5198   17.4516 H   0  0  0  0  0  0
  -28.7393  -24.7500   21.5898 H   0  0  0  0  0  0
  -27.0791  -24.7179   21.1450 H   0  0  0  0  0  0
  -30.1447  -19.9514   21.4905 H   0  0  0  0  0  0
  1 25  1  0  0  0
  1 30  2  0  0  0
  1 82  1  0  0  0
  2  3  1  0  0  0
  2 25  1  0  0  0
  2 84  1  0  0  0
  2 85  1  0  0  0
  3  4  1  0  0  0
  3 86  1  0  0  0
  3 87  1  0  0  0
  4  5  1  0  0  0
  4 88  1  0  0  0
  4 89  1  0  0  0
  5  6  1  0  0  0
  5 26  1  0  0  0
  5 90  1  0  0  0
  6 25  1  0  0  0
  6 91  1  0  0  0
  6 92  1  0  0  0
  7  8  2  0  0  0
  7 26  1  0  0  0
  7 29  1  0  0  0
  8  9  1  0  0  0
  8 22  1  0  0  0
  9 10  1  0  0  0
  9 27  2  0  0  0
 10 11  2  0  0  0
 10 15  1  0  0  0
 11 12  1  0  0  0
 11 93  1  0  0  0
 12 13  2  0  0  0
 12 94  1  0  0  0
 13 14  1  0  0  0
 13 31  1  0  0  0
 14 15  2  0  0  0
 14 95  1  0  0  0
 15 96  1  0  0  0
 16 17  2  0  0  0
 16 21  1  0  0  0
 16 31  1  0  0  0
 17 18  1  0  0  0
 17 97  1  0  0  0
 18 19  2  0  0  0
 18 98  1  0  0  0
 19 20  1  0  0  0
 19 24  1  0  0  0
 20 21  2  0  0  0
 20 99  1  0  0  0
 21 23  1  0  0  0
 22 28  1  0  0  0
 22 32  2  0  0  0
 26 27  1  0  0  0
 28100  1  0  0  0
 28101  1  0  0  0
 29102  1  0  0  0
 29103  1  0  0  0
 33 34  1  0  0  0
 33 66  1  0  0  0
 33 70  2  0  0  0
 34 36  1  0  0  0
 34 59  1  0  0  0
 34104  1  0  0  0
 35 44  2  0  0  0
 35 45  1  0  0  0
 35 68  1  0  0  0
 36 56  1  0  0  0
 36105  1  0  0  0
 37 39  1  0  0  0
 37 47  1  0  0  0
 37 66  1  0  0  0
 37106  1  0  0  0
 38 43  2  0  0  0
 38 46  1  0  0  0
 38 47  1  0  0  0
 39 64  1  0  0  0
 39 67  2  0  0  0
 40 52  1  0  0  0
 40 53  2  0  0  0
 40 58  1  0  0  0
 41107  1  0  0  0
 41108  1  0  0  0
 41109  1  0  0  0
 41 48  1  0  0  0
 42 43  1  0  0  0
 42 66  1  0  0  0
 42110  1  0  0  0
 42111  1  0  0  0
 43 44  1  0  0  0
 44112  1  0  0  0
 45 46  2  0  0  0
 45113  1  0  0  0
 46114  1  0  0  0
 47115  1  0  0  0
 47116  1  0  0  0
 48 56  1  0  0  0
 48 65  1  0  0  0
 48117  1  0  0  0
 49 50  1  0  0  0
 49 53  1  0  0  0
 49 64  1  0  0  0
 49118  1  0  0  0
 50 51  1  0  0  0
 50119  1  0  0  0
 50120  1  0  0  0
 51 52  1  0  0  0
 51121  1  0  0  0
 51122  1  0  0  0
 52123  1  0  0  0
 52124  1  0  0  0
 53 54  1  0  0  0
 54 55  2  0  0  0
 54125  1  0  0  0
 55 57  1  0  0  0
 55126  1  0  0  0
 56 69  2  0  0  0
 57 58  2  0  0  0
 57127  1  0  0  0
 58128  1  0  0  0
 59 60  1  0  0  0
 59 61  1  0  0  0
 59 62  1  0  0  0
 60129  1  0  0  0
 60130  1  0  0  0
 60131  1  0  0  0
 61132  1  0  0  0
 61133  1  0  0  0
 61134  1  0  0  0
 62135  1  0  0  0
 62136  1  0  0  0
 62137  1  0  0  0
 63 65  1  0  0  0
 63138  1  0  0  0
 63139  1  0  0  0
 63140  1  0  0  0
 64141  1  0  0  0
 65142  1  0  0  0
 68 79  1  0  0  0
 71 72  2  0  0  0
 71 73  1  0  0  0
 71143  1  0  0  0
 72 78  1  0  0  0
 72 80  1  0  0  0
 73 81  2  0  0  0
 73 83  1  0  0  0
 74 79  1  0  0  0
 74 80  2  0  0  0
 74 81  1  0  0  0
 75 77  1  0  0  0
 75 82  1  0  0  0
 75144  1  0  0  0
 75145  1  0  0  0
 76 77  1  0  0  0
 76 82  1  0  0  0
 76146  1  0  0  0
 76147  1  0  0  0
 77 83  1  0  0  0
 77148  1  0  0  0
 78149  1  0  0  0
 78150  1  0  0  0
 78151  1  0  0  0
 79152  1  0  0  0
 79153  1  0  0  0
 83154  1  0  0  0
M  ISO  4   1 100  68 101  79 101  82 100
M  END
> <chiral flag>
0

> <version>
0

> <s_m_source_file>
/data/baiqing/PycharmProjects/Reinvent-master-3.2/result/LINK_invent/BTK/process_docking_weight1_custom_sum_contain_oxygen_bond_distance_aromatic_linkinvent_7_9_3/rearranged_h_0190.sdf

> <i_m_source_file_index>
9

> <r_mmod_Potential_Energy-OPLS-2005>
-16.674768447876

> <r_mmod_Stretch_Energy-OPLS-2005>
197.674789428711

> <r_mmod_Bend_Energy-OPLS-2005>
255.892547607422

> <r_mmod_Torsional_Energy-OPLS-2005>
276.998962402344

> <r_mmod_Improper_Torsional_Energy-OPLS-2005>
16.4620609283447

> <r_mmod_Van_der_Waal_Energy-OPLS-2005>
130.433959960938

> <r_mmod_Electrostatic_Energy-OPLS-2005>
-824.22705078125

> <r_mmod_Solvation_Energy-OPLS-2005>
-231.715789794922

> <b_mmod_Minimization_Converged-OPLS-2005>
0

> <r_mmod_RMS_Derivative-OPLS-2005>
6.76459074020386

$$$$
9
                    3D
 Structure written by MMmdl.
160169  0  0  1  0            999 V2000
  -30.4230  -14.8219   20.2314 C   0  0  0  0  0  0
  -30.4547  -12.4530   19.4887 C   0  0  0  0  0  0
  -29.5164  -12.3329   18.2667 C   0  0  0  0  0  0
  -28.0331  -12.2134   18.6815 C   0  0  0  0  0  0
  -27.6279  -13.1426   19.8637 C   0  0  2  0  0  0
  -28.6722  -13.1418   20.9853 C   0  0  0  0  0  0
  -25.2430  -13.7995   20.5764 C   0  0  0  0  0  0
  -24.1644  -13.0387   20.9236 C   0  0  0  0  0  0
  -24.6166  -11.6824   20.8854 C   0  0  0  0  0  0
  -23.8901  -10.4257   21.0494 C   0  0  0  0  0  0
  -24.3541   -9.4154   21.9228 C   0  0  0  0  0  0
  -23.6251   -8.2193   22.0742 C   0  0  0  0  0  0
  -22.4229   -8.0260   21.3535 C   0  0  0  0  0  0
  -21.9839   -9.0245   20.4637 C   0  0  0  0  0  0
  -22.7111  -10.2137   20.3072 C   0  0  0  0  0  0
  -21.6850   -6.0702   22.5294 C   0  0  0  0  0  0
  -21.3993   -6.5605   23.8203 C   0  0  0  0  0  0
  -21.3644   -5.6737   24.9182 C   0  0  0  0  0  0
  -21.6042   -4.3011   24.7231 C   0  0  0  0  0  0
  -21.8800   -3.8101   23.4368 C   0  0  0  0  0  0
  -21.9170   -4.6936   22.3402 C   0  0  0  0  0  0
  -22.7667  -13.5216   21.1923 C   0  0  0  0  0  0
  -22.1624   -4.2095   21.0983 F   0  0  0  0  0  0
  -21.5663   -3.4509   25.7762 F   0  0  0  0  0  0
  -29.9408  -13.5364   20.3546 N   0  0  0  0  0  0
  -26.2789  -12.9015   20.3425 N   0  0  0  0  0  0
  -25.9056  -11.6270   20.5924 N   0  0  0  0  0  0
  -22.0216  -12.8293   22.0450 N   0  0  0  0  0  0
  -25.4198  -15.1767   20.4360 N   0  0  0  0  0  0
  -31.6498  -14.9955   20.1590 O   0  0  0  0  0  0
  -21.6603   -6.8880   21.4254 O   0  0  0  0  0  0
  -22.3409  -14.5543   20.6725 O   0  0  0  0  0  0
  -24.6289  -31.8565   23.1962 C   0  0  0  0  0  0
  -25.9110  -32.4797   23.8328 C   0  0  1  0  0  0
  -27.2561  -27.2538   20.1621 C   0  0  0  0  0  0
  -25.5924  -33.8591   24.2294 N   0  0  0  0  0  0
  -23.4321  -30.4680   21.5389 C   0  0  2  0  0  0
  -24.8922  -28.9111   20.1120 C   0  0  0  0  0  0
  -22.7527  -29.4562   22.4941 C   0  0  0  0  0  0
  -18.0288  -28.1345   22.8497 C   0  0  0  0  0  0
  -24.1487  -36.7290   23.2632 C   0  0  0  0  0  0
  -25.9725  -30.7670   21.3757 C   0  0  0  0  0  0
  -26.0562  -29.3827   20.7331 C   0  0  0  0  0  0
  -27.2322  -28.5659   20.7517 C   0  0  0  0  0  0
  -26.0704  -26.8596   19.4947 C   0  0  0  0  0  0
  -24.9074  -27.6574   19.4794 C   0  0  0  0  0  0
  -23.6581  -29.7944   20.1574 C   0  0  0  0  0  0
  -25.4120  -36.3136   24.0358 C   0  0  1  0  0  0
  -20.5891  -28.3670   23.1278 C   0  0  2  0  0  0
  -20.6779  -26.9397   22.5393 C   0  0  0  0  0  0
  -19.5765  -26.6384   21.5185 C   0  0  0  0  0  0
  -18.1939  -26.7899   22.1598 C   0  0  0  0  0  0
  -19.1537  -28.8832   23.2881 C   0  0  0  0  0  0
  -18.9468  -30.1420   23.8928 C   0  0  0  0  0  0
  -17.6476  -30.6568   24.0558 C   0  0  0  0  0  0
  -25.9044  -34.9482   23.5127 C   0  0  0  0  0  0
  -16.5367  -29.9081   23.6303 C   0  0  0  0  0  0
  -16.7279  -28.6462   23.0392 C   0  0  0  0  0  0
  -26.4466  -31.6624   25.0716 C   0  0  0  0  0  0
  -25.3727  -31.3735   26.1473 C   0  0  0  0  0  0
  -27.0269  -30.3081   24.6088 C   0  0  0  0  0  0
  -27.6054  -32.4345   25.7457 C   0  0  0  0  0  0
  -27.5593  -37.1805   24.8475 C   0  0  0  0  0  0
  -21.4231  -29.3024   22.3697 N   0  0  0  0  0  0
  -26.4312  -37.3843   23.9404 N   0  0  0  0  0  0
  -24.6971  -31.0507   22.0943 N   0  0  0  0  0  0
  -23.4228  -28.8120   23.3045 O   0  0  0  0  0  0
  -28.3726  -26.3815   20.2741 O   0  0  0  0  0  0
  -26.5603  -34.8965   22.4683 O   0  0  0  0  0  0
  -23.5422  -32.1389   23.7236 O   0  0  0  0  0  0
  -29.3990  -19.8692   19.8964 C   0  0  0  0  0  0
  -29.4008  -18.5690   20.5081 C   0  0  0  0  0  0
  -29.2874  -21.0633   20.6688 C   0  0  0  0  0  0
  -29.1255  -19.6685   22.5031 C   0  0  0  0  0  0
  -29.9185  -17.2459   18.2756 C   0  0  0  0  0  0
  -29.2223  -17.2882   19.6056 C   0  0  1  0  0  0
  -29.4021  -15.8205   18.2063 C   0  0  2  0  0  0
  -28.8320  -19.5574   23.9820 C   0  0  0  0  0  0
  -27.9931  -15.6370   17.5720 C   0  0  0  0  0  0
  -29.0712  -23.7354   20.7675 C   0  0  0  0  0  0
  -28.3145  -24.9105   19.9309 C   0  0  0  0  0  0
  -29.2520  -18.5042   21.8439 N   0  0  0  0  0  0
  -29.1539  -20.9126   21.9950 N   0  0  0  0  0  0
  -29.4994  -15.7616   19.7253 N   0  0  0  0  0  0
  -29.2612  -22.3908   20.0931 N   0  0  0  0  0  0
  -31.4582  -12.6681   19.1252 H   0  0  0  0  0  0
  -30.5369  -11.5051   20.0279 H   0  0  0  0  0  0
  -29.7933  -11.4408   17.7011 H   0  0  0  0  0  0
  -29.6680  -13.1478   17.5654 H   0  0  0  0  0  0
  -27.8849  -11.1706   18.9729 H   0  0  0  0  0  0
  -27.3791  -12.3554   17.8223 H   0  0  0  0  0  0
  -27.6121  -14.1486   19.5046 H   0  0  0  0  0  0
  -28.7401  -12.1607   21.4587 H   0  0  0  0  0  0
  -28.3826  -13.8450   21.7684 H   0  0  0  0  0  0
  -25.2721   -9.5624   22.4776 H   0  0  0  0  0  0
  -23.9950   -7.4525   22.7425 H   0  0  0  0  0  0
  -21.0770   -8.8777   19.8964 H   0  0  0  0  0  0
  -22.3576  -10.9721   19.6177 H   0  0  0  0  0  0
  -21.1957   -7.6091   23.9724 H   0  0  0  0  0  0
  -21.1485   -6.0470   25.9085 H   0  0  0  0  0  0
  -22.0602   -2.7582   23.2881 H   0  0  0  0  0  0
  -22.3732  -11.9968   22.4907 H   0  0  0  0  0  0
  -21.0783  -13.1333   22.2542 H   0  0  0  0  0  0
  -24.6647  -15.8234   20.6393 H   0  0  0  0  0  0
  -26.3150  -15.6401   20.3700 H   0  0  0  0  0  0
  -26.7180  -32.5488   23.1061 H   0  0  0  0  0  0
  -25.0223  -33.9717   25.0556 H   0  0  0  0  0  0
  -22.7295  -31.2894   21.3844 H   0  0  0  0  0  0
  -23.3802  -35.9566   23.3318 H   0  0  0  0  0  0
  -24.3595  -36.8875   22.2039 H   0  0  0  0  0  0
  -23.7161  -37.6476   23.6617 H   0  0  0  0  0  0
  -26.0951  -31.5206   20.5959 H   0  0  0  0  0  0
  -26.8526  -30.8390   22.0011 H   0  0  0  0  0  0
  -28.1105  -28.9242   21.2678 H   0  0  0  0  0  0
  -26.0108  -25.9074   18.9939 H   0  0  0  0  0  0
  -24.0257  -27.2921   18.9709 H   0  0  0  0  0  0
  -23.7850  -30.5649   19.3943 H   0  0  0  0  0  0
  -22.7805  -29.2221   19.8503 H   0  0  0  0  0  0
  -25.1288  -36.2010   25.0862 H   0  0  0  0  0  0
  -20.9957  -28.3197   24.1421 H   0  0  0  0  0  0
  -20.5644  -26.2285   23.3594 H   0  0  0  0  0  0
  -21.6649  -26.7425   22.1209 H   0  0  0  0  0  0
  -19.6936  -25.6309   21.1202 H   0  0  0  0  0  0
  -19.6667  -27.3205   20.6724 H   0  0  0  0  0  0
  -17.4211  -26.6670   21.3993 H   0  0  0  0  0  0
  -18.0327  -26.0017   22.8960 H   0  0  0  0  0  0
  -19.7954  -30.7185   24.2354 H   0  0  0  0  0  0
  -17.5045  -31.6250   24.5134 H   0  0  0  0  0  0
  -15.5367  -30.2991   23.7602 H   0  0  0  0  0  0
  -15.8680  -28.0750   22.7173 H   0  0  0  0  0  0
  -24.5866  -30.7120   25.7800 H   0  0  0  0  0  0
  -24.8948  -32.2881   26.4990 H   0  0  0  0  0  0
  -25.8093  -30.8848   27.0190 H   0  0  0  0  0  0
  -26.2778  -29.6882   24.1133 H   0  0  0  0  0  0
  -27.4047  -29.7278   25.4495 H   0  0  0  0  0  0
  -27.8636  -30.4437   23.9241 H   0  0  0  0  0  0
  -27.2713  -33.3665   26.2015 H   0  0  0  0  0  0
  -28.3852  -32.6854   25.0266 H   0  0  0  0  0  0
  -28.0726  -31.8480   26.5364 H   0  0  0  0  0  0
  -28.2656  -38.0072   24.7577 H   0  0  0  0  0  0
  -28.1066  -36.2612   24.6279 H   0  0  0  0  0  0
  -27.2319  -37.1449   25.8890 H   0  0  0  0  0  0
  -20.9440  -29.8826   21.6946 H   0  0  0  0  0  0
  -26.0218  -38.2932   24.1434 H   0  0  0  0  0  0
  -29.4091  -19.9389   18.8191 H   0  0  0  0  0  0
  -29.4863  -17.9496   17.5637 H   0  0  0  0  0  0
  -31.0028  -17.3429   18.3284 H   0  0  0  0  0  0
  -28.1530  -17.4084   19.4096 H   0  0  0  0  0  0
  -30.1401  -15.2135   17.6843 H   0  0  0  0  0  0
  -29.7128  -19.2106   24.5189 H   0  0  0  0  0  0
  -28.0046  -18.8604   24.1347 H   0  0  0  0  0  0
  -28.5194  -20.5109   24.4065 H   0  0  0  0  0  0
  -27.1646  -15.7114   18.2750 H   0  0  0  0  0  0
  -27.9255  -14.7005   17.0168 H   0  0  0  0  0  0
  -27.7678  -16.4175   16.8414 H   0  0  0  0  0  0
  -28.5377  -23.5654   21.7022 H   0  0  0  0  0  0
  -30.0674  -24.0776   21.0594 H   0  0  0  0  0  0
  -27.2812  -24.5797   19.9278 H   0  0  0  0  0  0
  -28.6566  -24.8492   18.8963 H   0  0  0  0  0  0
  -29.6931  -22.4648   19.1758 H   0  0  0  0  0  0
  1 25  1  0  0  0
  1 30  2  0  0  0
  1 84  1  0  0  0
  2  3  1  0  0  0
  2 25  1  0  0  0
  2 86  1  0  0  0
  2 87  1  0  0  0
  3  4  1  0  0  0
  3 88  1  0  0  0
  3 89  1  0  0  0
  4  5  1  0  0  0
  4 90  1  0  0  0
  4 91  1  0  0  0
  5  6  1  0  0  0
  5 26  1  0  0  0
  5 92  1  0  0  0
  6 25  1  0  0  0
  6 93  1  0  0  0
  6 94  1  0  0  0
  7  8  2  0  0  0
  7 26  1  0  0  0
  7 29  1  0  0  0
  8  9  1  0  0  0
  8 22  1  0  0  0
  9 10  1  0  0  0
  9 27  2  0  0  0
 10 11  2  0  0  0
 10 15  1  0  0  0
 11 12  1  0  0  0
 11 95  1  0  0  0
 12 13  2  0  0  0
 12 96  1  0  0  0
 13 14  1  0  0  0
 13 31  1  0  0  0
 14 15  2  0  0  0
 14 97  1  0  0  0
 15 98  1  0  0  0
 16 17  2  0  0  0
 16 21  1  0  0  0
 16 31  1  0  0  0
 17 18  1  0  0  0
 17 99  1  0  0  0
 18 19  2  0  0  0
 18100  1  0  0  0
 19 20  1  0  0  0
 19 24  1  0  0  0
 20 21  2  0  0  0
 20101  1  0  0  0
 21 23  1  0  0  0
 22 28  1  0  0  0
 22 32  2  0  0  0
 26 27  1  0  0  0
 28102  1  0  0  0
 28103  1  0  0  0
 29104  1  0  0  0
 29105  1  0  0  0
 33 34  1  0  0  0
 33 66  1  0  0  0
 33 70  2  0  0  0
 34 36  1  0  0  0
 34 59  1  0  0  0
 34106  1  0  0  0
 35 44  2  0  0  0
 35 45  1  0  0  0
 35 68  1  0  0  0
 36 56  1  0  0  0
 36107  1  0  0  0
 37 39  1  0  0  0
 37 47  1  0  0  0
 37 66  1  0  0  0
 37108  1  0  0  0
 38 43  2  0  0  0
 38 46  1  0  0  0
 38 47  1  0  0  0
 39 64  1  0  0  0
 39 67  2  0  0  0
 40 52  1  0  0  0
 40 53  2  0  0  0
 40 58  1  0  0  0
 41109  1  0  0  0
 41110  1  0  0  0
 41111  1  0  0  0
 41 48  1  0  0  0
 42 43  1  0  0  0
 42 66  1  0  0  0
 42112  1  0  0  0
 42113  1  0  0  0
 43 44  1  0  0  0
 44114  1  0  0  0
 45 46  2  0  0  0
 45115  1  0  0  0
 46116  1  0  0  0
 47117  1  0  0  0
 47118  1  0  0  0
 48 56  1  0  0  0
 48 65  1  0  0  0
 48119  1  0  0  0
 49 50  1  0  0  0
 49 53  1  0  0  0
 49 64  1  0  0  0
 49120  1  0  0  0
 50 51  1  0  0  0
 50121  1  0  0  0
 50122  1  0  0  0
 51 52  1  0  0  0
 51123  1  0  0  0
 51124  1  0  0  0
 52125  1  0  0  0
 52126  1  0  0  0
 53 54  1  0  0  0
 54 55  2  0  0  0
 54127  1  0  0  0
 55 57  1  0  0  0
 55128  1  0  0  0
 56 69  2  0  0  0
 57 58  2  0  0  0
 57129  1  0  0  0
 58130  1  0  0  0
 59 60  1  0  0  0
 59 61  1  0  0  0
 59 62  1  0  0  0
 60131  1  0  0  0
 60132  1  0  0  0
 60133  1  0  0  0
 61134  1  0  0  0
 61135  1  0  0  0
 61136  1  0  0  0
 62137  1  0  0  0
 62138  1  0  0  0
 62139  1  0  0  0
 63 65  1  0  0  0
 63140  1  0  0  0
 63141  1  0  0  0
 63142  1  0  0  0
 64143  1  0  0  0
 65144  1  0  0  0
 68 81  1  0  0  0
 71 72  2  0  0  0
 71 73  1  0  0  0
 71145  1  0  0  0
 72 82  1  0  0  0
 72 76  1  0  0  0
 73 83  2  0  0  0
 73 85  1  0  0  0
 74 78  1  0  0  0
 74 82  2  0  0  0
 74 83  1  0  0  0
 75 76  1  0  0  0
 75 77  1  0  0  0
 75146  1  0  0  0
 75147  1  0  0  0
 76 84  1  0  0  0
 76148  1  0  0  0
 77 79  1  0  0  0
 77 84  1  0  0  0
 77149  1  0  0  0
 78150  1  0  0  0
 78151  1  0  0  0
 78152  1  0  0  0
 79153  1  0  0  0
 79154  1  0  0  0
 79155  1  0  0  0
 80 81  1  0  0  0
 80 85  1  0  0  0
 80156  1  0  0  0
 80157  1  0  0  0
 81158  1  0  0  0
 81159  1  0  0  0
 85160  1  0  0  0
M  ISO  4   1 100  68 101  81 101  84 100
M  END
> <chiral flag>
0

> <version>
0

> <s_m_source_file>
/data/baiqing/PycharmProjects/Reinvent-master-3.2/result/LINK_invent/BTK/process_docking_weight1_custom_sum_contain_oxygen_bond_distance_aromatic_linkinvent_7_9_3/rearranged_h_0190.sdf

> <i_m_source_file_index>
10

> <r_mmod_Potential_Energy-OPLS-2005>
-142.470397949219

> <r_mmod_Stretch_Energy-OPLS-2005>
135.325057983398

> <r_mmod_Bend_Energy-OPLS-2005>
287.16845703125

> <r_mmod_Torsional_Energy-OPLS-2005>
291.045471191406

> <r_mmod_Improper_Torsional_Energy-OPLS-2005>
26.3632164001465

> <r_mmod_Van_der_Waal_Energy-OPLS-2005>
162.149337768555

> <r_mmod_Electrostatic_Energy-OPLS-2005>
-943.186767578125

> <r_mmod_Solvation_Energy-OPLS-2005>
-241.447814941406

> <b_mmod_Minimization_Converged-OPLS-2005>
0

> <r_mmod_RMS_Derivative-OPLS-2005>
9.29849433898926

$$$$
10
                    3D
 Structure written by MMmdl.
162171  0  0  1  0            999 V2000
  -30.5478  -15.0314   20.4047 C   0  0  0  0  0  0
  -30.4361  -12.6537   19.4840 C   0  0  0  0  0  0
  -29.5138  -12.5424   18.2480 C   0  0  0  0  0  0
  -28.0520  -12.3078   18.6751 C   0  0  0  0  0  0
  -27.6218  -13.2435   19.8341 C   0  0  2  0  0  0
  -28.6771  -13.2985   20.9606 C   0  0  0  0  0  0
  -25.2411  -13.8164   20.5707 C   0  0  0  0  0  0
  -24.1742  -13.0392   20.9243 C   0  0  0  0  0  0
  -24.6379  -11.6889   20.8780 C   0  0  0  0  0  0
  -23.9064  -10.4271   21.0418 C   0  0  0  0  0  0
  -24.3618   -9.4183   21.9197 C   0  0  0  0  0  0
  -23.6294   -8.2219   22.0756 C   0  0  0  0  0  0
  -22.4275   -8.0266   21.3546 C   0  0  0  0  0  0
  -21.9916   -9.0234   20.4641 C   0  0  0  0  0  0
  -22.7243  -10.2115   20.3055 C   0  0  0  0  0  0
  -21.6844   -6.0730   22.5280 C   0  0  0  0  0  0
  -21.4005   -6.5635   23.8213 C   0  0  0  0  0  0
  -21.3655   -5.6790   24.9176 C   0  0  0  0  0  0
  -21.6045   -4.3054   24.7224 C   0  0  0  0  0  0
  -21.8814   -3.8146   23.4344 C   0  0  0  0  0  0
  -21.9190   -4.6962   22.3401 C   0  0  0  0  0  0
  -22.7765  -13.5175   21.1885 C   0  0  0  0  0  0
  -22.1659   -4.2154   21.0979 F   0  0  0  0  0  0
  -21.5635   -3.4534   25.7734 F   0  0  0  0  0  0
  -29.9230  -13.7728   20.3380 N   0  0  0  0  0  0
  -26.2856  -12.9406   20.3281 N   0  0  0  0  0  0
  -25.9317  -11.6540   20.5781 N   0  0  0  0  0  0
  -22.0414  -12.8173   22.0438 N   0  0  0  0  0  0
  -25.3969  -15.1887   20.4078 N   0  0  0  0  0  0
  -31.7659  -15.0175   20.1866 O   0  0  0  0  0  0
  -21.6629   -6.8869   21.4244 O   0  0  0  0  0  0
  -22.3455  -14.5483   20.6727 O   0  0  0  0  0  0
  -24.6482  -31.8404   23.1840 C   0  0  0  0  0  0
  -25.9231  -32.4680   23.8253 C   0  0  1  0  0  0
  -27.2180  -27.0915   20.1533 C   0  0  0  0  0  0
  -25.5967  -33.8488   24.2166 N   0  0  0  0  0  0
  -23.4546  -30.4581   21.5304 C   0  0  2  0  0  0
  -24.9051  -28.8782   20.1080 C   0  0  0  0  0  0
  -22.7596  -29.4529   22.4841 C   0  0  0  0  0  0
  -18.0308  -28.1407   22.8483 C   0  0  0  0  0  0
  -24.1481  -36.7231   23.2647 C   0  0  0  0  0  0
  -26.0140  -30.6990   21.3900 C   0  0  0  0  0  0
  -26.0834  -29.3053   20.7323 C   0  0  0  0  0  0
  -27.2388  -28.4283   20.7387 C   0  0  0  0  0  0
  -26.0151  -26.7820   19.4808 C   0  0  0  0  0  0
  -24.8863  -27.6316   19.4656 C   0  0  0  0  0  0
  -23.6828  -29.7847   20.1507 C   0  0  0  0  0  0
  -25.4116  -36.3018   24.0317 C   0  0  1  0  0  0
  -20.5932  -28.3731   23.1232 C   0  0  2  0  0  0
  -20.6792  -26.9429   22.5407 C   0  0  0  0  0  0
  -19.5759  -26.6387   21.5222 C   0  0  0  0  0  0
  -18.1938  -26.7950   22.1619 C   0  0  0  0  0  0
  -19.1572  -28.8884   23.2854 C   0  0  0  0  0  0
  -18.9487  -30.1484   23.8875 C   0  0  0  0  0  0
  -17.6484  -30.6602   24.0565 C   0  0  0  0  0  0
  -25.9077  -34.9401   23.5048 C   0  0  0  0  0  0
  -16.5372  -29.9093   23.6349 C   0  0  0  0  0  0
  -16.7293  -28.6514   23.0364 C   0  0  0  0  0  0
  -26.4525  -31.6568   25.0714 C   0  0  0  0  0  0
  -25.3689  -31.3768   26.1396 C   0  0  0  0  0  0
  -27.0406  -30.2968   24.6318 C   0  0  0  0  0  0
  -27.6052  -32.4336   25.7499 C   0  0  0  0  0  0
  -27.5563  -37.1780   24.8470 C   0  0  0  0  0  0
  -21.4283  -29.3057   22.3601 N   0  0  0  0  0  0
  -26.4273  -37.3743   23.9412 N   0  0  0  0  0  0
  -24.7258  -31.0215   22.0898 N   0  0  0  0  0  0
  -23.4215  -28.8088   23.3017 O   0  0  0  0  0  0
  -28.2478  -26.0677   20.2436 O   0  0  0  0  0  0
  -26.5675  -34.8912   22.4634 O   0  0  0  0  0  0
  -23.5587  -32.1292   23.7031 O   0  0  0  0  0  0
  -28.6720  -21.7827   20.0140 C   0  0  0  0  0  0
  -30.4502  -22.1165   21.9859 C   0  0  0  0  0  0
  -28.8297  -23.1971   20.4844 C   0  0  0  0  0  0
  -29.7898  -23.2959   21.5315 C   0  0  0  0  0  0
  -29.4015  -20.5911   20.5389 C   0  0  0  0  0  0
  -28.1981  -18.1531   20.9503 C   0  0  0  0  0  0
  -28.4332  -16.6137   20.6815 C   0  0  0  0  0  0
  -30.4057  -17.7777   20.3053 C   0  0  0  0  0  0
  -29.2496  -18.9615   20.1768 C   0  0  2  0  0  0
  -30.6646  -24.5655   23.6249 C   0  0  0  0  0  0
  -27.9497  -24.5361   19.9932 C   0  0  0  0  0  0
  -30.0807  -24.6556   22.2001 C   0  0  1  0  0  0
  -30.2641  -20.8451   21.5415 N   0  0  0  0  0  0
  -29.8635  -16.3148   20.4562 N   0  0  0  0  0  0
  -30.9321  -25.5061   21.3451 N   0  3  0  0  0  0
  -31.4628  -12.8206   19.1553 H   0  0  0  0  0  0
  -30.4572  -11.7126   20.0363 H   0  0  0  0  0  0
  -29.8487  -11.7388   17.5906 H   0  0  0  0  0  0
  -29.5771  -13.4611   17.6628 H   0  0  0  0  0  0
  -27.9626  -11.2678   18.9905 H   0  0  0  0  0  0
  -27.3816  -12.4258   17.8222 H   0  0  0  0  0  0
  -27.5656  -14.2292   19.3810 H   0  0  0  0  0  0
  -28.8092  -12.3137   21.4133 H   0  0  0  0  0  0
  -28.3700  -13.9494   21.7759 H   0  0  0  0  0  0
  -25.2756   -9.5670   22.4778 H   0  0  0  0  0  0
  -23.9999   -7.4609   22.7474 H   0  0  0  0  0  0
  -21.0847   -8.8743   19.8944 H   0  0  0  0  0  0
  -22.3696  -10.9653   19.6164 H   0  0  0  0  0  0
  -21.1986   -7.6143   23.9724 H   0  0  0  0  0  0
  -21.1486   -6.0515   25.9082 H   0  0  0  0  0  0
  -22.0598   -2.7609   23.2834 H   0  0  0  0  0  0
  -22.4033  -11.9835   22.4828 H   0  0  0  0  0  0
  -21.1025  -13.1193   22.2630 H   0  0  0  0  0  0
  -24.6184  -15.8297   20.5111 H   0  0  0  0  0  0
  -26.2353  -15.6364   20.0661 H   0  0  0  0  0  0
  -26.7297  -32.5268   23.0985 H   0  0  0  0  0  0
  -25.0105  -33.9593   25.0314 H   0  0  0  0  0  0
  -22.7607  -31.2868   21.3740 H   0  0  0  0  0  0
  -23.3769  -35.9539   23.3289 H   0  0  0  0  0  0
  -24.3565  -36.8874   22.2066 H   0  0  0  0  0  0
  -23.7200  -37.6406   23.6697 H   0  0  0  0  0  0
  -26.1757  -31.4509   20.6160 H   0  0  0  0  0  0
  -26.8824  -30.7508   22.0347 H   0  0  0  0  0  0
  -28.1319  -28.7498   21.2553 H   0  0  0  0  0  0
  -25.9082  -25.8327   18.9780 H   0  0  0  0  0  0
  -23.9895  -27.2999   18.9596 H   0  0  0  0  0  0
  -23.8224  -30.5591   19.3959 H   0  0  0  0  0  0
  -22.7960  -29.2293   19.8392 H   0  0  0  0  0  0
  -25.1308  -36.1835   25.0814 H   0  0  0  0  0  0
  -21.0030  -28.3318   24.1348 H   0  0  0  0  0  0
  -20.5685  -26.2346   23.3634 H   0  0  0  0  0  0
  -21.6655  -26.7429   22.1199 H   0  0  0  0  0  0
  -19.6920  -25.6291   21.1262 H   0  0  0  0  0  0
  -19.6698  -27.3195   20.6754 H   0  0  0  0  0  0
  -17.4215  -26.6724   21.4012 H   0  0  0  0  0  0
  -18.0312  -26.0090   22.9010 H   0  0  0  0  0  0
  -19.7961  -30.7321   24.2220 H   0  0  0  0  0  0
  -17.5031  -31.6281   24.5171 H   0  0  0  0  0  0
  -15.5370  -30.2989   23.7699 H   0  0  0  0  0  0
  -15.8688  -28.0833   22.7089 H   0  0  0  0  0  0
  -24.5881  -30.7110   25.7708 H   0  0  0  0  0  0
  -24.8874  -32.2956   26.4751 H   0  0  0  0  0  0
  -25.7952  -30.8978   27.0220 H   0  0  0  0  0  0
  -26.3045  -29.6680   24.1299 H   0  0  0  0  0  0
  -27.4003  -29.7268   25.4893 H   0  0  0  0  0  0
  -27.8949  -30.4223   23.9663 H   0  0  0  0  0  0
  -27.2665  -33.3691   26.1963 H   0  0  0  0  0  0
  -28.3925  -32.6791   25.0361 H   0  0  0  0  0  0
  -28.0650  -31.8523   26.5501 H   0  0  0  0  0  0
  -28.2580  -38.0081   24.7515 H   0  0  0  0  0  0
  -28.1056  -36.2608   24.6294 H   0  0  0  0  0  0
  -27.2287  -37.1422   25.8877 H   0  0  0  0  0  0
  -20.9498  -29.8763   21.6771 H   0  0  0  0  0  0
  -26.0128  -38.2806   24.1423 H   0  0  0  0  0  0
  -27.9416  -21.6029   19.2366 H   0  0  0  0  0  0
  -31.1777  -22.1702   22.7806 H   0  0  0  0  0  0
  -28.3227  -18.3494   22.0154 H   0  0  0  0  0  0
  -27.1852  -18.4626   20.6883 H   0  0  0  0  0  0
  -27.9020  -16.3480   19.7692 H   0  0  0  0  0  0
  -28.0165  -16.0341   21.5027 H   0  0  0  0  0  0
  -30.9970  -17.9728   21.2014 H   0  0  0  0  0  0
  -31.1031  -17.8374   19.4690 H   0  0  0  0  0  0
  -28.9403  -18.9554   19.1307 H   0  0  0  0  0  0
  -30.0214  -23.9727   24.2754 H   0  0  0  0  0  0
  -30.7463  -25.5547   24.0772 H   0  0  0  0  0  0
  -31.6629  -24.1272   23.6403 H   0  0  0  0  0  0
  -26.9608  -24.3526   20.4129 H   0  0  0  0  0  0
  -27.8271  -24.4241   18.9158 H   0  0  0  0  0  0
  -29.1250  -25.1638   22.3293 H   0  0  0  0  0  0
  -31.8288  -25.0869   21.1753 H   0  0  0  0  0  0
  -31.0802  -26.3978   21.7845 H   0  0  0  0  0  0
  -30.4845  -25.6818   20.4621 H   0  0  0  0  0  0
  1 25  1  0  0  0
  1 30  2  0  0  0
  1 84  1  0  0  0
  2  3  1  0  0  0
  2 25  1  0  0  0
  2 86  1  0  0  0
  2 87  1  0  0  0
  3  4  1  0  0  0
  3 88  1  0  0  0
  3 89  1  0  0  0
  4  5  1  0  0  0
  4 90  1  0  0  0
  4 91  1  0  0  0
  5  6  1  0  0  0
  5 26  1  0  0  0
  5 92  1  0  0  0
  6 25  1  0  0  0
  6 93  1  0  0  0
  6 94  1  0  0  0
  7  8  2  0  0  0
  7 26  1  0  0  0
  7 29  1  0  0  0
  8  9  1  0  0  0
  8 22  1  0  0  0
  9 10  1  0  0  0
  9 27  2  0  0  0
 10 11  2  0  0  0
 10 15  1  0  0  0
 11 12  1  0  0  0
 11 95  1  0  0  0
 12 13  2  0  0  0
 12 96  1  0  0  0
 13 14  1  0  0  0
 13 31  1  0  0  0
 14 15  2  0  0  0
 14 97  1  0  0  0
 15 98  1  0  0  0
 16 17  2  0  0  0
 16 21  1  0  0  0
 16 31  1  0  0  0
 17 18  1  0  0  0
 17 99  1  0  0  0
 18 19  2  0  0  0
 18100  1  0  0  0
 19 20  1  0  0  0
 19 24  1  0  0  0
 20 21  2  0  0  0
 20101  1  0  0  0
 21 23  1  0  0  0
 22 28  1  0  0  0
 22 32  2  0  0  0
 26 27  1  0  0  0
 28102  1  0  0  0
 28103  1  0  0  0
 29104  1  0  0  0
 29105  1  0  0  0
 33 34  1  0  0  0
 33 66  1  0  0  0
 33 70  2  0  0  0
 34 36  1  0  0  0
 34 59  1  0  0  0
 34106  1  0  0  0
 35 44  2  0  0  0
 35 45  1  0  0  0
 35 68  1  0  0  0
 36 56  1  0  0  0
 36107  1  0  0  0
 37 39  1  0  0  0
 37 47  1  0  0  0
 37 66  1  0  0  0
 37108  1  0  0  0
 38 43  2  0  0  0
 38 46  1  0  0  0
 38 47  1  0  0  0
 39 64  1  0  0  0
 39 67  2  0  0  0
 40 52  1  0  0  0
 40 53  2  0  0  0
 40 58  1  0  0  0
 41109  1  0  0  0
 41110  1  0  0  0
 41111  1  0  0  0
 41 48  1  0  0  0
 42 43  1  0  0  0
 42 66  1  0  0  0
 42112  1  0  0  0
 42113  1  0  0  0
 43 44  1  0  0  0
 44114  1  0  0  0
 45 46  2  0  0  0
 45115  1  0  0  0
 46116  1  0  0  0
 47117  1  0  0  0
 47118  1  0  0  0
 48 56  1  0  0  0
 48 65  1  0  0  0
 48119  1  0  0  0
 49 50  1  0  0  0
 49 53  1  0  0  0
 49 64  1  0  0  0
 49120  1  0  0  0
 50 51  1  0  0  0
 50121  1  0  0  0
 50122  1  0  0  0
 51 52  1  0  0  0
 51123  1  0  0  0
 51124  1  0  0  0
 52125  1  0  0  0
 52126  1  0  0  0
 53 54  1  0  0  0
 54 55  2  0  0  0
 54127  1  0  0  0
 55 57  1  0  0  0
 55128  1  0  0  0
 56 69  2  0  0  0
 57 58  2  0  0  0
 57129  1  0  0  0
 58130  1  0  0  0
 59 60  1  0  0  0
 59 61  1  0  0  0
 59 62  1  0  0  0
 60131  1  0  0  0
 60132  1  0  0  0
 60133  1  0  0  0
 61134  1  0  0  0
 61135  1  0  0  0
 61136  1  0  0  0
 62137  1  0  0  0
 62138  1  0  0  0
 62139  1  0  0  0
 63 65  1  0  0  0
 63140  1  0  0  0
 63141  1  0  0  0
 63142  1  0  0  0
 64143  1  0  0  0
 65144  1  0  0  0
 68 81  1  0  0  0
 71 73  2  0  0  0
 71 75  1  0  0  0
 71145  1  0  0  0
 72 74  2  0  0  0
 72 83  1  0  0  0
 72146  1  0  0  0
 73 74  1  0  0  0
 73 81  1  0  0  0
 74 82  1  0  0  0
 75 83  2  0  0  0
 75 79  1  0  0  0
 76 77  1  0  0  0
 76 79  1  0  0  0
 76147  1  0  0  0
 76148  1  0  0  0
 77 84  1  0  0  0
 77149  1  0  0  0
 77150  1  0  0  0
 78 79  1  0  0  0
 78 84  1  0  0  0
 78151  1  0  0  0
 78152  1  0  0  0
 79153  1  0  0  0
 80154  1  0  0  0
 80155  1  0  0  0
 80156  1  0  0  0
 80 82  1  0  0  0
 81157  1  0  0  0
 81158  1  0  0  0
 82 85  1  0  0  0
 82159  1  0  0  0
 85160  1  0  0  0
 85161  1  0  0  0
 85162  1  0  0  0
M  CHG  1  85   1
M  ISO  4   1 100  68 101  81 101  84 100
M  END
> <chiral flag>
0

> <version>
0

> <s_m_source_file>
/data/baiqing/PycharmProjects/Reinvent-master-3.2/result/LINK_invent/BTK/process_docking_weight1_custom_sum_contain_oxygen_bond_distance_aromatic_linkinvent_7_9_3/rearranged_h_0190.sdf

> <i_m_source_file_index>
11

> <r_mmod_Potential_Energy-OPLS-2005>
430.862243652344

> <r_mmod_Stretch_Energy-OPLS-2005>
299.183258056641

> <r_mmod_Bend_Energy-OPLS-2005>
309.217254638672

> <r_mmod_Torsional_Energy-OPLS-2005>
296.460021972656

> <r_mmod_Improper_Torsional_Energy-OPLS-2005>
6.12417650222778

> <r_mmod_Van_der_Waal_Energy-OPLS-2005>
133.733673095703

> <r_mmod_Electrostatic_Energy-OPLS-2005>
-379.367584228516

> <r_mmod_Solvation_Energy-OPLS-2005>
-477.824340820312

> <b_mmod_Minimization_Converged-OPLS-2005>
0

> <r_mmod_RMS_Derivative-OPLS-2005>
1.53128111362457

$$$$
11
                    3D
 Structure written by MMmdl.
156165  0  0  1  0            999 V2000
  -30.6085  -14.8123   20.4636 C   0  0  0  0  0  0
  -30.4264  -12.5045   19.4767 C   0  0  0  0  0  0
  -29.5089  -12.5285   18.2352 C   0  0  0  0  0  0
  -28.0354  -12.3409   18.6425 C   0  0  0  0  0  0
  -27.6362  -13.2361   19.8476 C   0  0  2  0  0  0
  -28.6833  -13.1777   20.9794 C   0  0  0  0  0  0
  -25.2481  -13.8197   20.5662 C   0  0  0  0  0  0
  -24.1796  -13.0438   20.9205 C   0  0  0  0  0  0
  -24.6396  -11.6919   20.8744 C   0  0  0  0  0  0
  -23.9077  -10.4300   21.0401 C   0  0  0  0  0  0
  -24.3638   -9.4220   21.9181 C   0  0  0  0  0  0
  -23.6309   -8.2254   22.0748 C   0  0  0  0  0  0
  -22.4285   -8.0292   21.3543 C   0  0  0  0  0  0
  -21.9925   -9.0260   20.4634 C   0  0  0  0  0  0
  -22.7251  -10.2141   20.3052 C   0  0  0  0  0  0
  -21.6859   -6.0743   22.5276 C   0  0  0  0  0  0
  -21.4018   -6.5638   23.8214 C   0  0  0  0  0  0
  -21.3671   -5.6787   24.9173 C   0  0  0  0  0  0
  -21.6054   -4.3052   24.7214 C   0  0  0  0  0  0
  -21.8821   -3.8148   23.4329 C   0  0  0  0  0  0
  -21.9196   -4.6974   22.3394 C   0  0  0  0  0  0
  -22.7820  -13.5228   21.1847 C   0  0  0  0  0  0
  -22.1660   -4.2168   21.0965 F   0  0  0  0  0  0
  -21.5636   -3.4527   25.7716 F   0  0  0  0  0  0
  -29.9662  -13.5828   20.3915 N   0  0  0  0  0  0
  -26.2917  -12.9411   20.3276 N   0  0  0  0  0  0
  -25.9329  -11.6549   20.5753 N   0  0  0  0  0  0
  -22.0461  -12.8241   22.0412 N   0  0  0  0  0  0
  -25.4111  -15.1913   20.3985 N   0  0  0  0  0  0
  -31.7965  -14.8537   20.1219 O   0  0  0  0  0  0
  -21.6650   -6.8887   21.4236 O   0  0  0  0  0  0
  -22.3495  -14.5514   20.6665 O   0  0  0  0  0  0
  -24.6382  -31.8495   23.1937 C   0  0  0  0  0  0
  -25.9183  -32.4719   23.8316 C   0  0  1  0  0  0
  -27.2159  -27.2091   20.1300 C   0  0  0  0  0  0
  -25.5954  -33.8521   24.2227 N   0  0  0  0  0  0
  -23.4368  -30.4708   21.5392 C   0  0  2  0  0  0
  -24.8835  -28.9116   20.1075 C   0  0  0  0  0  0
  -22.7535  -29.4568   22.4900 C   0  0  0  0  0  0
  -18.0295  -28.1388   22.8467 C   0  0  0  0  0  0
  -24.1473  -36.7258   23.2640 C   0  0  0  0  0  0
  -25.9880  -30.7468   21.3800 C   0  0  0  0  0  0
  -26.0591  -29.3665   20.7173 C   0  0  0  0  0  0
  -27.2287  -28.5298   20.7121 C   0  0  0  0  0  0
  -26.0132  -26.8348   19.4907 C   0  0  0  0  0  0
  -24.8686  -27.6571   19.4809 C   0  0  0  0  0  0
  -23.6564  -29.8037   20.1563 C   0  0  0  0  0  0
  -25.4098  -36.3039   24.0323 C   0  0  1  0  0  0
  -20.5903  -28.3694   23.1249 C   0  0  2  0  0  0
  -20.6783  -26.9406   22.5396 C   0  0  0  0  0  0
  -19.5761  -26.6373   21.5200 C   0  0  0  0  0  0
  -18.1941  -26.7925   22.1616 C   0  0  0  0  0  0
  -19.1550  -28.8858   23.2854 C   0  0  0  0  0  0
  -18.9475  -30.1456   23.8877 C   0  0  0  0  0  0
  -17.6474  -30.6588   24.0545 C   0  0  0  0  0  0
  -25.9061  -34.9416   23.5076 C   0  0  0  0  0  0
  -16.5362  -29.9078   23.6332 C   0  0  0  0  0  0
  -16.7281  -28.6497   23.0351 C   0  0  0  0  0  0
  -26.4523  -31.6578   25.0741 C   0  0  0  0  0  0
  -25.3709  -31.3774   26.1444 C   0  0  0  0  0  0
  -27.0401  -30.2988   24.6294 C   0  0  0  0  0  0
  -27.6077  -32.4310   25.7531 C   0  0  0  0  0  0
  -27.5561  -37.1767   24.8457 C   0  0  0  0  0  0
  -21.4235  -29.3032   22.3642 N   0  0  0  0  0  0
  -26.4259  -37.3751   23.9419 N   0  0  0  0  0  0
  -24.7075  -31.0408   22.0936 N   0  0  0  0  0  0
  -23.4214  -28.8106   23.3015 O   0  0  0  0  0  0
  -28.2932  -26.2772   20.1994 O   0  0  0  0  0  0
  -26.5640  -34.8912   22.4653 O   0  0  0  0  0  0
  -23.5513  -32.1356   23.7181 O   0  0  0  0  0  0
  -30.5358  -24.0410   20.4586 C   0  0  0  0  0  0
  -29.1862  -23.6482   20.2651 C   0  0  0  0  0  0
  -29.9884  -21.3872   20.5012 C   0  0  0  0  0  0
  -28.8297  -17.9552   21.6971 C   0  0  0  0  0  0
  -28.8625  -16.3979   21.5281 C   0  0  0  0  0  0
  -30.3040  -17.3696   19.9575 C   0  0  0  0  0  0
  -29.3681  -18.6044   20.4077 C   0  0  2  0  0  0
  -31.0117  -25.4834   20.4353 C   0  0  0  0  0  0
  -28.0628  -24.7803   19.9770 C   0  0  0  0  0  0
  -28.9253  -22.2480   20.2829 N   0  0  0  0  0  0
  -31.5155  -23.1333   20.6678 N   0  0  0  0  0  0
  -31.2359  -21.8277   20.6908 N   0  0  0  0  0  0
  -29.8894  -16.0264   20.5430 N   0  0  0  0  0  0
  -30.0667  -19.9437   20.6092 N   0  0  0  0  0  0
  -31.4652  -12.6295   19.1681 H   0  0  0  0  0  0
  -30.3819  -11.5319   19.9701 H   0  0  0  0  0  0
  -29.8068  -11.7563   17.5251 H   0  0  0  0  0  0
  -29.6257  -13.4813   17.7174 H   0  0  0  0  0  0
  -27.8963  -11.2902   18.8991 H   0  0  0  0  0  0
  -27.3816  -12.5345   17.7902 H   0  0  0  0  0  0
  -27.6265  -14.2580   19.4691 H   0  0  0  0  0  0
  -28.7484  -12.1689   21.3897 H   0  0  0  0  0  0
  -28.3988  -13.8143   21.8145 H   0  0  0  0  0  0
  -25.2787   -9.5710   22.4755 H   0  0  0  0  0  0
  -24.0031   -7.4651   22.7471 H   0  0  0  0  0  0
  -21.0864   -8.8769   19.8937 H   0  0  0  0  0  0
  -22.3709  -10.9674   19.6161 H   0  0  0  0  0  0
  -21.2005   -7.6144   23.9720 H   0  0  0  0  0  0
  -21.1495   -6.0512   25.9080 H   0  0  0  0  0  0
  -22.0588   -2.7611   23.2813 H   0  0  0  0  0  0
  -22.4058  -11.9926   22.4856 H   0  0  0  0  0  0
  -21.1073  -13.1260   22.2572 H   0  0  0  0  0  0
  -24.6403  -15.8414   20.5000 H   0  0  0  0  0  0
  -26.2544  -15.6262   20.0469 H   0  0  0  0  0  0
  -26.7255  -32.5351   23.1066 H   0  0  0  0  0  0
  -25.0049  -33.9640   25.0335 H   0  0  0  0  0  0
  -22.7365  -31.2956   21.3895 H   0  0  0  0  0  0
  -23.3750  -35.9576   23.3269 H   0  0  0  0  0  0
  -24.3580  -36.8920   22.2064 H   0  0  0  0  0  0
  -23.7209  -37.6436   23.6698 H   0  0  0  0  0  0
  -26.1331  -31.5075   20.6120 H   0  0  0  0  0  0
  -26.8622  -30.7948   22.0175 H   0  0  0  0  0  0
  -28.1286  -28.8723   21.2023 H   0  0  0  0  0  0
  -25.9195  -25.8734   19.0081 H   0  0  0  0  0  0
  -23.9684  -27.2999   19.0003 H   0  0  0  0  0  0
  -23.7847  -30.5803   19.4018 H   0  0  0  0  0  0
  -22.7735  -29.2404   19.8481 H   0  0  0  0  0  0
  -25.1278  -36.1869   25.0813 H   0  0  0  0  0  0
  -20.9983  -28.3266   24.1374 H   0  0  0  0  0  0
  -20.5659  -26.2302   23.3603 H   0  0  0  0  0  0
  -21.6653  -26.7412   22.1199 H   0  0  0  0  0  0
  -19.6917  -25.6274   21.1246 H   0  0  0  0  0  0
  -19.6710  -27.3166   20.6717 H   0  0  0  0  0  0
  -17.4201  -26.6642   21.4029 H   0  0  0  0  0  0
  -18.0363  -26.0079   22.9029 H   0  0  0  0  0  0
  -19.7957  -30.7269   24.2239 H   0  0  0  0  0  0
  -17.5035  -31.6274   24.5139 H   0  0  0  0  0  0
  -15.5361  -30.2976   23.7672 H   0  0  0  0  0  0
  -15.8683  -28.0811   22.7079 H   0  0  0  0  0  0
  -24.5864  -30.7156   25.7762 H   0  0  0  0  0  0
  -24.8931  -32.2965   26.4845 H   0  0  0  0  0  0
  -25.7981  -30.8954   27.0245 H   0  0  0  0  0  0
  -26.3032  -29.6700   24.1283 H   0  0  0  0  0  0
  -27.4024  -29.7303   25.4873 H   0  0  0  0  0  0
  -27.8929  -30.4266   23.9621 H   0  0  0  0  0  0
  -27.2699  -33.3602   26.2139 H   0  0  0  0  0  0
  -28.3900  -32.6865   25.0369 H   0  0  0  0  0  0
  -28.0745  -31.8407   26.5430 H   0  0  0  0  0  0
  -28.2544  -38.0092   24.7542 H   0  0  0  0  0  0
  -28.1089  -36.2630   24.6228 H   0  0  0  0  0  0
  -27.2302  -37.1343   25.8863 H   0  0  0  0  0  0
  -20.9430  -29.8778   21.6865 H   0  0  0  0  0  0
  -26.0130  -38.2809   24.1473 H   0  0  0  0  0  0
  -29.4749  -18.2118   22.5391 H   0  0  0  0  0  0
  -27.8300  -18.3134   21.9501 H   0  0  0  0  0  0
  -27.8975  -16.0449   21.1691 H   0  0  0  0  0  0
  -29.0550  -15.9195   22.4903 H   0  0  0  0  0  0
  -31.3343  -17.5554   20.2647 H   0  0  0  0  0  0
  -30.3268  -17.2927   18.8684 H   0  0  0  0  0  0
  -28.5507  -18.7240   19.6943 H   0  0  0  0  0  0
  -30.6709  -25.9943   19.5342 H   0  0  0  0  0  0
  -32.1005  -25.5430   20.4399 H   0  0  0  0  0  0
  -30.6457  -26.0222   21.3106 H   0  0  0  0  0  0
  -27.1752  -24.4861   20.5375 H   0  0  0  0  0  0
  -27.8110  -24.6598   18.9222 H   0  0  0  0  0  0
  -31.0327  -19.7444   20.8359 H   0  0  0  0  0  0
  1 25  1  0  0  0
  1 30  2  0  0  0
  1 83  1  0  0  0
  2  3  1  0  0  0
  2 25  1  0  0  0
  2 85  1  0  0  0
  2 86  1  0  0  0
  3  4  1  0  0  0
  3 87  1  0  0  0
  3 88  1  0  0  0
  4  5  1  0  0  0
  4 89  1  0  0  0
  4 90  1  0  0  0
  5  6  1  0  0  0
  5 26  1  0  0  0
  5 91  1  0  0  0
  6 25  1  0  0  0
  6 92  1  0  0  0
  6 93  1  0  0  0
  7  8  2  0  0  0
  7 26  1  0  0  0
  7 29  1  0  0  0
  8  9  1  0  0  0
  8 22  1  0  0  0
  9 10  1  0  0  0
  9 27  2  0  0  0
 10 11  2  0  0  0
 10 15  1  0  0  0
 11 12  1  0  0  0
 11 94  1  0  0  0
 12 13  2  0  0  0
 12 95  1  0  0  0
 13 14  1  0  0  0
 13 31  1  0  0  0
 14 15  2  0  0  0
 14 96  1  0  0  0
 15 97  1  0  0  0
 16 17  2  0  0  0
 16 21  1  0  0  0
 16 31  1  0  0  0
 17 18  1  0  0  0
 17 98  1  0  0  0
 18 19  2  0  0  0
 18 99  1  0  0  0
 19 20  1  0  0  0
 19 24  1  0  0  0
 20 21  2  0  0  0
 20100  1  0  0  0
 21 23  1  0  0  0
 22 28  1  0  0  0
 22 32  2  0  0  0
 26 27  1  0  0  0
 28101  1  0  0  0
 28102  1  0  0  0
 29103  1  0  0  0
 29104  1  0  0  0
 33 34  1  0  0  0
 33 66  1  0  0  0
 33 70  2  0  0  0
 34 36  1  0  0  0
 34 59  1  0  0  0
 34105  1  0  0  0
 35 44  2  0  0  0
 35 45  1  0  0  0
 35 68  1  0  0  0
 36 56  1  0  0  0
 36106  1  0  0  0
 37 39  1  0  0  0
 37 47  1  0  0  0
 37 66  1  0  0  0
 37107  1  0  0  0
 38 43  2  0  0  0
 38 46  1  0  0  0
 38 47  1  0  0  0
 39 64  1  0  0  0
 39 67  2  0  0  0
 40 52  1  0  0  0
 40 53  2  0  0  0
 40 58  1  0  0  0
 41108  1  0  0  0
 41109  1  0  0  0
 41110  1  0  0  0
 41 48  1  0  0  0
 42 43  1  0  0  0
 42 66  1  0  0  0
 42111  1  0  0  0
 42112  1  0  0  0
 43 44  1  0  0  0
 44113  1  0  0  0
 45 46  2  0  0  0
 45114  1  0  0  0
 46115  1  0  0  0
 47116  1  0  0  0
 47117  1  0  0  0
 48 56  1  0  0  0
 48 65  1  0  0  0
 48118  1  0  0  0
 49 50  1  0  0  0
 49 53  1  0  0  0
 49 64  1  0  0  0
 49119  1  0  0  0
 50 51  1  0  0  0
 50120  1  0  0  0
 50121  1  0  0  0
 51 52  1  0  0  0
 51122  1  0  0  0
 51123  1  0  0  0
 52124  1  0  0  0
 52125  1  0  0  0
 53 54  1  0  0  0
 54 55  2  0  0  0
 54126  1  0  0  0
 55 57  1  0  0  0
 55127  1  0  0  0
 56 69  2  0  0  0
 57 58  2  0  0  0
 57128  1  0  0  0
 58129  1  0  0  0
 59 60  1  0  0  0
 59 61  1  0  0  0
 59 62  1  0  0  0
 60130  1  0  0  0
 60131  1  0  0  0
 60132  1  0  0  0
 61133  1  0  0  0
 61134  1  0  0  0
 61135  1  0  0  0
 62136  1  0  0  0
 62137  1  0  0  0
 62138  1  0  0  0
 63 65  1  0  0  0
 63139  1  0  0  0
 63140  1  0  0  0
 63141  1  0  0  0
 64142  1  0  0  0
 65143  1  0  0  0
 68 79  1  0  0  0
 71 72  2  0  0  0
 71 78  1  0  0  0
 71 81  1  0  0  0
 72 79  1  0  0  0
 72 80  1  0  0  0
 73 80  2  0  0  0
 73 82  1  0  0  0
 73 84  1  0  0  0
 74 75  1  0  0  0
 74 77  1  0  0  0
 74144  1  0  0  0
 74145  1  0  0  0
 75 83  1  0  0  0
 75146  1  0  0  0
 75147  1  0  0  0
 76 77  1  0  0  0
 76 83  1  0  0  0
 76148  1  0  0  0
 76149  1  0  0  0
 77 84  1  0  0  0
 77150  1  0  0  0
 78151  1  0  0  0
 78152  1  0  0  0
 78153  1  0  0  0
 79154  1  0  0  0
 79155  1  0  0  0
 81 82  2  0  0  0
 84156  1  0  0  0
M  ISO  4   1 100  68 101  79 101  83 100
M  END
> <chiral flag>
0

> <version>
0

> <s_m_source_file>
/data/baiqing/PycharmProjects/Reinvent-master-3.2/result/LINK_invent/BTK/process_docking_weight1_custom_sum_contain_oxygen_bond_distance_aromatic_linkinvent_7_9_3/rearranged_h_0190.sdf

> <i_m_source_file_index>
12

> <r_mmod_Potential_Energy-OPLS-2005>
334.0341796875

> <r_mmod_Stretch_Energy-OPLS-2005>
160.801406860352

> <r_mmod_Bend_Energy-OPLS-2005>
309.064636230469

> <r_mmod_Torsional_Energy-OPLS-2005>
307.243621826172

> <r_mmod_Improper_Torsional_Energy-OPLS-2005>
11.5520629882812

> <r_mmod_Van_der_Waal_Energy-OPLS-2005>
141.646987915039

> <r_mmod_Electrostatic_Energy-OPLS-2005>
-483.256134033203

> <r_mmod_Solvation_Energy-OPLS-2005>
-228.444961547852

> <b_mmod_Minimization_Converged-OPLS-2005>
0

> <r_mmod_RMS_Derivative-OPLS-2005>
2.32418155670166

$$$$
12
                    3D
 Structure written by MMmdl.
166175  0  0  1  0            999 V2000
  -30.5159  -15.0400   20.3954 C   0  0  0  0  0  0
  -30.4395  -12.6470   19.5238 C   0  0  0  0  0  0
  -29.5362  -12.5301   18.2752 C   0  0  0  0  0  0
  -28.0714  -12.2970   18.6965 C   0  0  0  0  0  0
  -27.6258  -13.2575   19.8339 C   0  0  2  0  0  0
  -28.6576  -13.3342   20.9767 C   0  0  0  0  0  0
  -25.2439  -13.8262   20.5698 C   0  0  0  0  0  0
  -24.1758  -13.0471   20.9197 C   0  0  0  0  0  0
  -24.6376  -11.6946   20.8747 C   0  0  0  0  0  0
  -23.9077  -10.4302   21.0418 C   0  0  0  0  0  0
  -24.3652   -9.4225   21.9206 C   0  0  0  0  0  0
  -23.6309   -8.2259   22.0774 C   0  0  0  0  0  0
  -22.4288   -8.0301   21.3556 C   0  0  0  0  0  0
  -21.9899   -9.0291   20.4666 C   0  0  0  0  0  0
  -22.7258  -10.2146   20.3068 C   0  0  0  0  0  0
  -21.6849   -6.0735   22.5270 C   0  0  0  0  0  0
  -21.4032   -6.5623   23.8207 C   0  0  0  0  0  0
  -21.3674   -5.6783   24.9167 C   0  0  0  0  0  0
  -21.6034   -4.3042   24.7214 C   0  0  0  0  0  0
  -21.8834   -3.8140   23.4328 C   0  0  0  0  0  0
  -21.9189   -4.6962   22.3384 C   0  0  0  0  0  0
  -22.7778  -13.5256   21.1819 C   0  0  0  0  0  0
  -22.1652   -4.2147   21.0970 F   0  0  0  0  0  0
  -21.5625   -3.4543   25.7732 F   0  0  0  0  0  0
  -29.9216  -13.7692   20.3688 N   0  0  0  0  0  0
  -26.2873  -12.9494   20.3250 N   0  0  0  0  0  0
  -25.9304  -11.6624   20.5745 N   0  0  0  0  0  0
  -22.0364  -12.8318   22.0368 N   0  0  0  0  0  0
  -25.4101  -15.1995   20.4082 N   0  0  0  0  0  0
  -31.7249  -15.0636   20.1427 O   0  0  0  0  0  0
  -21.6638   -6.8900   21.4230 O   0  0  0  0  0  0
  -22.3487  -14.5545   20.6635 O   0  0  0  0  0  0
  -24.6490  -31.8344   23.1798 C   0  0  0  0  0  0
  -25.9232  -32.4635   23.8236 C   0  0  1  0  0  0
  -27.2172  -27.0474   20.1807 C   0  0  0  0  0  0
  -25.5955  -33.8448   24.2149 N   0  0  0  0  0  0
  -23.4581  -30.4516   21.5226 C   0  0  2  0  0  0
  -24.9130  -28.8598   20.1146 C   0  0  0  0  0  0
  -22.7603  -29.4506   22.4772 C   0  0  0  0  0  0
  -18.0324  -28.1392   22.8442 C   0  0  0  0  0  0
  -24.1491  -36.7241   23.2639 C   0  0  0  0  0  0
  -26.0199  -30.6812   21.3946 C   0  0  0  0  0  0
  -26.0909  -29.2832   20.7415 C   0  0  0  0  0  0
  -27.2437  -28.3960   20.7527 C   0  0  0  0  0  0
  -26.0143  -26.7495   19.5039 C   0  0  0  0  0  0
  -24.8922  -27.6093   19.4787 C   0  0  0  0  0  0
  -23.6940  -29.7732   20.1466 C   0  0  0  0  0  0
  -25.4120  -36.2999   24.0308 C   0  0  1  0  0  0
  -20.5935  -28.3744   23.1169 C   0  0  2  0  0  0
  -20.6793  -26.9421   22.5383 C   0  0  0  0  0  0
  -19.5788  -26.6360   21.5173 C   0  0  0  0  0  0
  -18.1965  -26.7925   22.1583 C   0  0  0  0  0  0
  -19.1572  -28.8880   23.2802 C   0  0  0  0  0  0
  -18.9485  -30.1463   23.8859 C   0  0  0  0  0  0
  -17.6479  -30.6576   24.0557 C   0  0  0  0  0  0
  -25.9073  -34.9370   23.5046 C   0  0  0  0  0  0
  -16.5375  -29.9073   23.6329 C   0  0  0  0  0  0
  -16.7299  -28.6489   23.0340 C   0  0  0  0  0  0
  -26.4549  -31.6537   25.0717 C   0  0  0  0  0  0
  -25.3697  -31.3761   26.1397 C   0  0  0  0  0  0
  -27.0428  -30.2907   24.6380 C   0  0  0  0  0  0
  -27.6062  -32.4314   25.7501 C   0  0  0  0  0  0
  -27.5582  -37.1762   24.8449 C   0  0  0  0  0  0
  -21.4272  -29.3062   22.3529 N   0  0  0  0  0  0
  -26.4282  -37.3716   23.9409 N   0  0  0  0  0  0
  -24.7291  -31.0127   22.0875 N   0  0  0  0  0  0
  -23.4203  -28.8043   23.2959 O   0  0  0  0  0  0
  -28.2615  -26.0219   20.2184 O   0  0  0  0  0  0
  -26.5653  -34.8884   22.4617 O   0  0  0  0  0  0
  -23.5588  -32.1264   23.6960 O   0  0  0  0  0  0
  -31.6319  -22.5145   20.2165 C   0  0  0  0  0  0
  -30.3028  -17.5970   21.1586 C   0  0  0  0  0  0
  -29.2916  -17.2470   19.4914 C   0  0  0  0  0  0
  -32.9202  -23.3279   20.3929 C   0  0  0  0  0  0
  -31.0477  -24.8097   20.2454 C   0  0  0  0  0  0
  -30.4926  -23.4377   20.6820 C   0  0  1  0  0  0
  -29.1808  -18.5222   20.4705 C   0  0  0  0  0  0
  -33.2900  -25.6304   19.5290 C   0  0  0  0  0  0
  -29.2629  -20.1748   19.9248 C   0  0  0  0  0  0
  -28.0164  -24.4502   20.4274 C   0  0  0  0  0  0
  -29.0588  -23.0756   20.1562 C   0  0  2  0  0  0
  -29.7770  -16.2816   20.5690 N   0  0  0  0  0  0
  -32.5160  -24.7480   20.4295 N   0  3  2  0  0  0
  -28.7165  -21.5415   20.6121 N   0  3  0  0  0  0
  -31.4754  -12.8087   19.2188 H   0  0  0  0  0  0
  -30.4454  -11.7156   20.0904 H   0  0  0  0  0  0
  -29.8871  -11.7154   17.6370 H   0  0  0  0  0  0
  -29.6121  -13.4385   17.6758 H   0  0  0  0  0  0
  -27.9925  -11.2659   19.0430 H   0  0  0  0  0  0
  -27.4089  -12.3801   17.8355 H   0  0  0  0  0  0
  -27.5825  -14.2512   19.3843 H   0  0  0  0  0  0
  -28.7589  -12.3724   21.4868 H   0  0  0  0  0  0
  -28.3395  -14.0580   21.7295 H   0  0  0  0  0  0
  -25.2802   -9.5700   22.4781 H   0  0  0  0  0  0
  -23.9995   -7.4660   22.7505 H   0  0  0  0  0  0
  -21.0822   -8.8864   19.8986 H   0  0  0  0  0  0
  -22.3769  -10.9698   19.6184 H   0  0  0  0  0  0
  -21.2036   -7.6138   23.9725 H   0  0  0  0  0  0
  -21.1479   -6.0490   25.9077 H   0  0  0  0  0  0
  -22.0590   -2.7588   23.2824 H   0  0  0  0  0  0
  -22.3954  -12.0066   22.4899 H   0  0  0  0  0  0
  -21.0979  -13.1394   22.2511 H   0  0  0  0  0  0
  -24.6400  -15.8509   20.5193 H   0  0  0  0  0  0
  -26.2672  -15.6416   20.1046 H   0  0  0  0  0  0
  -26.7290  -32.5237   23.0955 H   0  0  0  0  0  0
  -25.0104  -33.9543   25.0308 H   0  0  0  0  0  0
  -22.7663  -31.2807   21.3563 H   0  0  0  0  0  0
  -23.3765  -35.9557   23.3248 H   0  0  0  0  0  0
  -24.3598  -36.8940   22.2072 H   0  0  0  0  0  0
  -23.7235  -37.6413   23.6722 H   0  0  0  0  0  0
  -26.1820  -31.4295   20.6189 H   0  0  0  0  0  0
  -26.8864  -30.7378   22.0422 H   0  0  0  0  0  0
  -28.1417  -28.7148   21.2633 H   0  0  0  0  0  0
  -25.9129  -25.8043   18.9903 H   0  0  0  0  0  0
  -23.9969  -27.2821   18.9691 H   0  0  0  0  0  0
  -23.8438  -30.5415   19.3862 H   0  0  0  0  0  0
  -22.8089  -29.2167   19.8323 H   0  0  0  0  0  0
  -25.1301  -36.1817   25.0796 H   0  0  0  0  0  0
  -21.0028  -28.3353   24.1290 H   0  0  0  0  0  0
  -20.5623  -26.2357   23.3617 H   0  0  0  0  0  0
  -21.6670  -26.7377   22.1231 H   0  0  0  0  0  0
  -19.6950  -25.6248   21.1256 H   0  0  0  0  0  0
  -19.6747  -27.3119   20.6661 H   0  0  0  0  0  0
  -17.4223  -26.6629   21.4002 H   0  0  0  0  0  0
  -18.0406  -26.0082   22.9003 H   0  0  0  0  0  0
  -19.7964  -30.7269   24.2224 H   0  0  0  0  0  0
  -17.5043  -31.6259   24.5165 H   0  0  0  0  0  0
  -15.5371  -30.2964   23.7673 H   0  0  0  0  0  0
  -15.8702  -28.0795   22.7081 H   0  0  0  0  0  0
  -24.5827  -30.7185   25.7695 H   0  0  0  0  0  0
  -24.8962  -32.2975   26.4805 H   0  0  0  0  0  0
  -25.7950  -30.8905   27.0194 H   0  0  0  0  0  0
  -26.3072  -29.6580   24.1399 H   0  0  0  0  0  0
  -27.4005  -29.7275   25.5020 H   0  0  0  0  0  0
  -27.9007  -30.4111   23.9751 H   0  0  0  0  0  0
  -27.2635  -33.3603   26.2076 H   0  0  0  0  0  0
  -28.3885  -32.6893   25.0343 H   0  0  0  0  0  0
  -28.0736  -31.8448   26.5433 H   0  0  0  0  0  0
  -28.2535  -38.0115   24.7532 H   0  0  0  0  0  0
  -28.1138  -36.2642   24.6211 H   0  0  0  0  0  0
  -27.2310  -37.1337   25.8852 H   0  0  0  0  0  0
  -20.9466  -29.8803   21.6733 H   0  0  0  0  0  0
  -26.0142  -38.2769   24.1450 H   0  0  0  0  0  0
  -31.6878  -21.5820   20.7798 H   0  0  0  0  0  0
  -31.5151  -22.2692   19.1582 H   0  0  0  0  0  0
  -30.2679  -17.6306   22.2486 H   0  0  0  0  0  0
  -31.3179  -17.8433   20.8360 H   0  0  0  0  0  0
  -30.0228  -17.3967   18.6908 H   0  0  0  0  0  0
  -28.3402  -16.9675   19.0372 H   0  0  0  0  0  0
  -33.6309  -23.1057   19.5917 H   0  0  0  0  0  0
  -33.4036  -23.0826   21.3397 H   0  0  0  0  0  0
  -30.6437  -25.6355   20.8312 H   0  0  0  0  0  0
  -30.8096  -24.9929   19.1938 H   0  0  0  0  0  0
  -30.4759  -23.4268   21.7754 H   0  0  0  0  0  0
  -28.2547  -18.3898   21.0360 H   0  0  0  0  0  0
  -34.3518  -25.5842   19.7707 H   0  0  0  0  0  0
  -32.9759  -26.6692   19.6382 H   0  0  0  0  0  0
  -33.1666  -25.3422   18.4823 H   0  0  0  0  0  0
  -28.7135  -20.1833   18.9823 H   0  0  0  0  0  0
  -30.2800  -20.3487   19.5943 H   0  0  0  0  0  0
  -27.7204  -24.3831   21.4759 H   0  0  0  0  0  0
  -27.1035  -24.2177   19.8858 H   0  0  0  0  0  0
  -29.1180  -23.0135   19.0696 H   0  0  0  0  0  0
  -32.7036  -25.0659   21.3680 H   0  0  0  0  0  0
  -28.9523  -21.4743   21.5894 H   0  0  0  0  0  0
  -27.7117  -21.4561   20.5890 H   0  0  0  0  0  0
  1 25  1  0  0  0
  1 30  2  0  0  0
  1 82  1  0  0  0
  2  3  1  0  0  0
  2 25  1  0  0  0
  2 85  1  0  0  0
  2 86  1  0  0  0
  3  4  1  0  0  0
  3 87  1  0  0  0
  3 88  1  0  0  0
  4  5  1  0  0  0
  4 89  1  0  0  0
  4 90  1  0  0  0
  5  6  1  0  0  0
  5 26  1  0  0  0
  5 91  1  0  0  0
  6 25  1  0  0  0
  6 92  1  0  0  0
  6 93  1  0  0  0
  7  8  2  0  0  0
  7 26  1  0  0  0
  7 29  1  0  0  0
  8  9  1  0  0  0
  8 22  1  0  0  0
  9 10  1  0  0  0
  9 27  2  0  0  0
 10 11  2  0  0  0
 10 15  1  0  0  0
 11 12  1  0  0  0
 11 94  1  0  0  0
 12 13  2  0  0  0
 12 95  1  0  0  0
 13 14  1  0  0  0
 13 31  1  0  0  0
 14 15  2  0  0  0
 14 96  1  0  0  0
 15 97  1  0  0  0
 16 17  2  0  0  0
 16 21  1  0  0  0
 16 31  1  0  0  0
 17 18  1  0  0  0
 17 98  1  0  0  0
 18 19  2  0  0  0
 18 99  1  0  0  0
 19 20  1  0  0  0
 19 24  1  0  0  0
 20 21  2  0  0  0
 20100  1  0  0  0
 21 23  1  0  0  0
 22 28  1  0  0  0
 22 32  2  0  0  0
 26 27  1  0  0  0
 28101  1  0  0  0
 28102  1  0  0  0
 29103  1  0  0  0
 29104  1  0  0  0
 33 34  1  0  0  0
 33 66  1  0  0  0
 33 70  2  0  0  0
 34 36  1  0  0  0
 34 59  1  0  0  0
 34105  1  0  0  0
 35 44  2  0  0  0
 35 45  1  0  0  0
 35 68  1  0  0  0
 36 56  1  0  0  0
 36106  1  0  0  0
 37 39  1  0  0  0
 37 47  1  0  0  0
 37 66  1  0  0  0
 37107  1  0  0  0
 38 43  2  0  0  0
 38 46  1  0  0  0
 38 47  1  0  0  0
 39 64  1  0  0  0
 39 67  2  0  0  0
 40 52  1  0  0  0
 40 53  2  0  0  0
 40 58  1  0  0  0
 41108  1  0  0  0
 41109  1  0  0  0
 41110  1  0  0  0
 41 48  1  0  0  0
 42 43  1  0  0  0
 42 66  1  0  0  0
 42111  1  0  0  0
 42112  1  0  0  0
 43 44  1  0  0  0
 44113  1  0  0  0
 45 46  2  0  0  0
 45114  1  0  0  0
 46115  1  0  0  0
 47116  1  0  0  0
 47117  1  0  0  0
 48 56  1  0  0  0
 48 65  1  0  0  0
 48118  1  0  0  0
 49 50  1  0  0  0
 49 53  1  0  0  0
 49 64  1  0  0  0
 49119  1  0  0  0
 50 51  1  0  0  0
 50120  1  0  0  0
 50121  1  0  0  0
 51 52  1  0  0  0
 51122  1  0  0  0
 51123  1  0  0  0
 52124  1  0  0  0
 52125  1  0  0  0
 53 54  1  0  0  0
 54 55  2  0  0  0
 54126  1  0  0  0
 55 57  1  0  0  0
 55127  1  0  0  0
 56 69  2  0  0  0
 57 58  2  0  0  0
 57128  1  0  0  0
 58129  1  0  0  0
 59 60  1  0  0  0
 59 61  1  0  0  0
 59 62  1  0  0  0
 60130  1  0  0  0
 60131  1  0  0  0
 60132  1  0  0  0
 61133  1  0  0  0
 61134  1  0  0  0
 61135  1  0  0  0
 62136  1  0  0  0
 62137  1  0  0  0
 62138  1  0  0  0
 63 65  1  0  0  0
 63139  1  0  0  0
 63140  1  0  0  0
 63141  1  0  0  0
 64142  1  0  0  0
 65143  1  0  0  0
 68 80  1  0  0  0
 71 74  1  0  0  0
 71144  1  0  0  0
 71145  1  0  0  0
 71 76  1  0  0  0
 72 77  1  0  0  0
 72 82  1  0  0  0
 72146  1  0  0  0
 72147  1  0  0  0
 73 77  1  0  0  0
 73 82  1  0  0  0
 73148  1  0  0  0
 73149  1  0  0  0
 74 83  1  0  0  0
 74150  1  0  0  0
 74151  1  0  0  0
 75 76  1  0  0  0
 75 83  1  0  0  0
 75152  1  0  0  0
 75153  1  0  0  0
 76 81  1  0  0  0
 76154  1  0  0  0
 77 79  1  0  0  0
 77155  1  0  0  0
 78156  1  0  0  0
 78157  1  0  0  0
 78158  1  0  0  0
 78 83  1  0  0  0
 79 84  1  0  0  0
 79159  1  0  0  0
 79160  1  0  0  0
 80161  1  0  0  0
 80162  1  0  0  0
 80 81  1  0  0  0
 81 84  1  0  0  0
 81163  1  0  0  0
 83164  1  0  0  0
 84165  1  0  0  0
 84166  1  0  0  0
M  CHG  2  83   1  84   1
M  ISO  4   1 100  68 101  80 101  82 100
M  END
> <chiral flag>
0

> <version>
0

> <s_m_source_file>
/data/baiqing/PycharmProjects/Reinvent-master-3.2/result/LINK_invent/BTK/process_docking_weight1_custom_sum_contain_oxygen_bond_distance_aromatic_linkinvent_7_9_3/rearranged_h_0190.sdf

> <i_m_source_file_index>
13

> <r_mmod_Potential_Energy-OPLS-2005>
699.549377441406

> <r_mmod_Stretch_Energy-OPLS-2005>
380.568328857422

> <r_mmod_Bend_Energy-OPLS-2005>
362.814239501953

> <r_mmod_Torsional_Energy-OPLS-2005>
364.439025878906

> <r_mmod_Improper_Torsional_Energy-OPLS-2005>
9.87796211242676

> <r_mmod_Van_der_Waal_Energy-OPLS-2005>
109.045837402344

> <r_mmod_Electrostatic_Energy-OPLS-2005>
153.974655151367

> <r_mmod_Solvation_Energy-OPLS-2005>
-949.818786621094

> <b_mmod_Minimization_Converged-OPLS-2005>
0

> <r_mmod_RMS_Derivative-OPLS-2005>
5.12461805343628

$$$$
13
                    3D
 Structure written by MMmdl.
176186  0  0  1  0            999 V2000
  -30.7818  -14.4489   20.7325 C   0  0  0  0  0  0
  -30.4285  -12.3583   19.4182 C   0  0  0  0  0  0
  -29.4946  -12.5278   18.2044 C   0  0  0  0  0  0
  -28.0215  -12.3537   18.6151 C   0  0  0  0  0  0
  -27.6578  -13.2076   19.8500 C   0  0  2  0  0  0
  -28.6880  -13.0260   20.9782 C   0  0  0  0  0  0
  -25.2576  -13.8161   20.5627 C   0  0  0  0  0  0
  -24.1830  -13.0448   20.9126 C   0  0  0  0  0  0
  -24.6381  -11.6906   20.8670 C   0  0  0  0  0  0
  -23.9040  -10.4304   21.0363 C   0  0  0  0  0  0
  -24.3596   -9.4230   21.9148 C   0  0  0  0  0  0
  -23.6276   -8.2263   22.0753 C   0  0  0  0  0  0
  -22.4248   -8.0303   21.3569 C   0  0  0  0  0  0
  -21.9875   -9.0251   20.4653 C   0  0  0  0  0  0
  -22.7201  -10.2127   20.3036 C   0  0  0  0  0  0
  -21.6855   -6.0732   22.5281 C   0  0  0  0  0  0
  -21.4022   -6.5628   23.8215 C   0  0  0  0  0  0
  -21.3669   -5.6792   24.9178 C   0  0  0  0  0  0
  -21.6045   -4.3054   24.7236 C   0  0  0  0  0  0
  -21.8817   -3.8140   23.4359 C   0  0  0  0  0  0
  -21.9178   -4.6950   22.3417 C   0  0  0  0  0  0
  -22.7858  -13.5241   21.1809 C   0  0  0  0  0  0
  -22.1651   -4.2145   21.0981 F   0  0  0  0  0  0
  -21.5628   -3.4537   25.7741 F   0  0  0  0  0  0
  -30.0468  -13.3189   20.4743 N   0  0  0  0  0  0
  -26.2994  -12.9336   20.3191 N   0  0  0  0  0  0
  -25.9300  -11.6498   20.5638 N   0  0  0  0  0  0
  -22.0506  -12.8293   22.0400 N   0  0  0  0  0  0
  -25.4290  -15.1901   20.4077 N   0  0  0  0  0  0
  -31.7106  -14.7949   19.9939 O   0  0  0  0  0  0
  -21.6640   -6.8882   21.4254 O   0  0  0  0  0  0
  -22.3550  -14.5551   20.6653 O   0  0  0  0  0  0
  -24.6212  -31.8618   23.2016 C   0  0  0  0  0  0
  -25.9088  -32.4777   23.8319 C   0  0  1  0  0  0
  -27.2419  -27.3772   20.1052 C   0  0  0  0  0  0
  -25.5900  -33.8578   24.2244 N   0  0  0  0  0  0
  -23.4118  -30.4828   21.5441 C   0  0  2  0  0  0
  -24.8587  -28.9348   20.1176 C   0  0  0  0  0  0
  -22.7447  -29.4613   22.4940 C   0  0  0  0  0  0
  -18.0283  -28.1391   22.8503 C   0  0  0  0  0  0
  -24.1486  -36.7289   23.2637 C   0  0  0  0  0  0
  -25.9458  -30.8120   21.3603 C   0  0  0  0  0  0
  -26.0233  -29.4420   20.7042 C   0  0  0  0  0  0
  -27.2174  -28.6761   20.6819 C   0  0  0  0  0  0
  -26.0498  -26.8861   19.5270 C   0  0  0  0  0  0
  -24.8678  -27.6563   19.5304 C   0  0  0  0  0  0
  -23.6228  -29.8096   20.1623 C   0  0  0  0  0  0
  -25.4122  -36.3074   24.0306 C   0  0  1  0  0  0
  -20.5886  -28.3651   23.1325 C   0  0  2  0  0  0
  -20.6777  -26.9377   22.5438 C   0  0  0  0  0  0
  -19.5728  -26.6381   21.5257 C   0  0  0  0  0  0
  -18.1914  -26.7932   22.1660 C   0  0  0  0  0  0
  -19.1546  -28.8846   23.2901 C   0  0  0  0  0  0
  -18.9461  -30.1467   23.8877 C   0  0  0  0  0  0
  -17.6457  -30.6588   24.0577 C   0  0  0  0  0  0
  -25.9040  -34.9451   23.5072 C   0  0  0  0  0  0
  -16.5346  -29.9079   23.6346 C   0  0  0  0  0  0
  -16.7270  -28.6515   23.0332 C   0  0  0  0  0  0
  -26.4486  -31.6603   25.0695 C   0  0  0  0  0  0
  -25.3710  -31.3791   26.1417 C   0  0  0  0  0  0
  -27.0336  -30.3006   24.6187 C   0  0  0  0  0  0
  -27.6007  -32.4362   25.7488 C   0  0  0  0  0  0
  -27.5572  -37.1804   24.8460 C   0  0  0  0  0  0
  -21.4169  -29.2997   22.3690 N   0  0  0  0  0  0
  -26.4296  -37.3771   23.9383 N   0  0  0  0  0  0
  -24.6776  -31.0699   22.0920 N   0  0  0  0  0  0
  -23.4191  -28.8171   23.3017 O   0  0  0  0  0  0
  -28.4264  -26.6497   20.0699 O   0  0  0  0  0  0
  -26.5625  -34.8924   22.4644 O   0  0  0  0  0  0
  -23.5391  -32.1369   23.7386 O   0  0  0  0  0  0
  -30.5066  -15.1529   24.4835 C   0  0  0  0  0  0
  -29.1113  -14.8735   23.9941 C   0  0  0  0  0  0
  -32.0565  -17.2045   22.1670 C   0  0  0  0  0  0
  -28.9936  -20.4980   20.0361 C   0  0  0  0  0  0
  -30.9638  -21.5040   21.2338 C   0  0  0  0  0  0
  -31.9354  -18.7304   21.9424 C   0  0  0  0  0  0
  -28.5317  -21.9959   20.0062 C   0  0  0  0  0  0
  -30.8353  -22.8359   20.4327 C   0  0  0  0  0  0
  -30.1452  -17.6576   20.8268 C   0  0  0  0  0  0
  -30.3011  -14.5125   23.1141 C   0  0  0  0  0  0
  -30.6281  -16.6914   21.9393 C   0  0  1  0  0  0
  -30.4572  -20.2289   20.5038 C   0  0  1  0  0  0
  -30.3398  -25.1612   18.5989 C   0  0  0  0  0  0
  -28.4339  -25.2118   20.3245 C   0  0  0  0  0  0
  -29.1671  -24.3632   19.2178 C   0  0  2  0  0  0
  -30.4425  -15.1999   21.8283 N   0  0  0  0  0  0
  -30.5914  -18.9855   21.3536 N   0  3  2  0  0  0
  -29.6014  -22.9506   19.5922 N   0  3  2  0  0  0
  -31.4646  -12.4822   19.1019 H   0  0  0  0  0  0
  -30.3651  -11.3434   19.8125 H   0  0  0  0  0  0
  -29.7474  -11.8036   17.4273 H   0  0  0  0  0  0
  -29.6416  -13.5131   17.7613 H   0  0  0  0  0  0
  -27.8530  -11.2991   18.8319 H   0  0  0  0  0  0
  -27.3648  -12.6065   17.7798 H   0  0  0  0  0  0
  -27.6930  -14.2510   19.5291 H   0  0  0  0  0  0
  -28.6547  -12.0156   21.3858 H   0  0  0  0  0  0
  -28.3638  -13.6874   21.7756 H   0  0  0  0  0  0
  -25.2747   -9.5726   22.4700 H   0  0  0  0  0  0
  -23.9988   -7.4675   22.7493 H   0  0  0  0  0  0
  -21.0800   -8.8767   19.8968 H   0  0  0  0  0  0
  -22.3644  -10.9657   19.6135 H   0  0  0  0  0  0
  -21.2028   -7.6136   23.9736 H   0  0  0  0  0  0
  -21.1489   -6.0504   25.9081 H   0  0  0  0  0  0
  -22.0571   -2.7606   23.2853 H   0  0  0  0  0  0
  -22.4112  -11.9954   22.4820 H   0  0  0  0  0  0
  -21.1146  -13.1379   22.2631 H   0  0  0  0  0  0
  -24.6594  -15.8432   20.5128 H   0  0  0  0  0  0
  -26.2878  -15.6337   20.1126 H   0  0  0  0  0  0
  -26.7157  -32.5460   23.1079 H   0  0  0  0  0  0
  -25.0057  -33.9710   25.0388 H   0  0  0  0  0  0
  -22.7024  -31.3022   21.4030 H   0  0  0  0  0  0
  -23.3731  -35.9638   23.3325 H   0  0  0  0  0  0
  -24.3560  -36.8887   22.2047 H   0  0  0  0  0  0
  -23.7278  -37.6511   23.6649 H   0  0  0  0  0  0
  -26.0800  -31.5844   20.6009 H   0  0  0  0  0  0
  -26.8239  -30.8516   21.9946 H   0  0  0  0  0  0
  -28.1234  -29.0765   21.1161 H   0  0  0  0  0  0
  -26.0224  -25.9115   19.0602 H   0  0  0  0  0  0
  -23.9668  -27.2555   19.0880 H   0  0  0  0  0  0
  -23.7339  -30.5843   19.4023 H   0  0  0  0  0  0
  -22.7450  -29.2344   19.8660 H   0  0  0  0  0  0
  -25.1329  -36.1923   25.0802 H   0  0  0  0  0  0
  -20.9989  -28.3235   24.1443 H   0  0  0  0  0  0
  -20.5757  -26.2238   23.3623 H   0  0  0  0  0  0
  -21.6634  -26.7445   22.1190 H   0  0  0  0  0  0
  -19.6876  -25.6316   21.1236 H   0  0  0  0  0  0
  -19.6680  -27.3247   20.6838 H   0  0  0  0  0  0
  -17.4205  -26.6716   21.4043 H   0  0  0  0  0  0
  -18.0253  -26.0096   22.9069 H   0  0  0  0  0  0
  -19.7941  -30.7316   24.2195 H   0  0  0  0  0  0
  -17.5005  -31.6263   24.5189 H   0  0  0  0  0  0
  -15.5338  -30.2960   23.7691 H   0  0  0  0  0  0
  -15.8684  -28.0849   22.6986 H   0  0  0  0  0  0
  -24.5839  -30.7194   25.7765 H   0  0  0  0  0  0
  -24.8972  -32.3003   26.4821 H   0  0  0  0  0  0
  -25.8005  -30.8983   27.0213 H   0  0  0  0  0  0
  -26.2945  -29.6756   24.1171 H   0  0  0  0  0  0
  -27.3968  -29.7276   25.4738 H   0  0  0  0  0  0
  -27.8826  -30.4257   23.9455 H   0  0  0  0  0  0
  -27.2547  -33.3632   26.2071 H   0  0  0  0  0  0
  -28.3817  -32.6985   25.0342 H   0  0  0  0  0  0
  -28.0675  -31.8514   26.5424 H   0  0  0  0  0  0
  -28.2615  -38.0073   24.7480 H   0  0  0  0  0  0
  -28.1039  -36.2611   24.6340 H   0  0  0  0  0  0
  -27.2260  -37.1515   25.8850 H   0  0  0  0  0  0
  -20.9336  -29.8644   21.6856 H   0  0  0  0  0  0
  -26.0172  -38.2834   24.1396 H   0  0  0  0  0  0
  -30.8719  -14.5107   25.2808 H   0  0  0  0  0  0
  -30.8185  -16.1883   24.5771 H   0  0  0  0  0  0
  -28.4918  -15.7229   23.7107 H   0  0  0  0  0  0
  -28.5705  -14.0660   24.4847 H   0  0  0  0  0  0
  -32.4509  -16.9684   23.1549 H   0  0  0  0  0  0
  -32.7496  -16.7840   21.4396 H   0  0  0  0  0  0
  -28.8573  -20.0467   19.0529 H   0  0  0  0  0  0
  -28.2923  -19.9710   20.6838 H   0  0  0  0  0  0
  -30.4197  -21.6108   22.1737 H   0  0  0  0  0  0
  -32.0108  -21.3894   21.5133 H   0  0  0  0  0  0
  -32.7349  -19.0743   21.2863 H   0  0  0  0  0  0
  -32.0288  -19.2737   22.8844 H   0  0  0  0  0  0
  -28.1673  -22.2870   20.9921 H   0  0  0  0  0  0
  -27.6752  -22.0791   19.3352 H   0  0  0  0  0  0
  -31.7017  -22.9427   19.7781 H   0  0  0  0  0  0
  -30.8913  -23.6671   21.1362 H   0  0  0  0  0  0
  -29.0645  -17.6079   20.6900 H   0  0  0  0  0  0
  -30.6264  -17.4476   19.8699 H   0  0  0  0  0  0
  -30.5627  -13.4522   23.1077 H   0  0  0  0  0  0
  -30.0299  -17.0161   22.7868 H   0  0  0  0  0  0
  -31.0843  -20.0844   19.6215 H   0  0  0  0  0  0
  -30.8965  -24.5803   17.8624 H   0  0  0  0  0  0
  -31.0405  -25.5099   19.3577 H   0  0  0  0  0  0
  -29.9704  -26.0458   18.0791 H   0  0  0  0  0  0
  -28.9637  -25.0861   21.2674 H   0  0  0  0  0  0
  -27.4374  -24.8073   20.5043 H   0  0  0  0  0  0
  -28.4472  -24.2412   18.4080 H   0  0  0  0  0  0
  -29.9964  -19.1425   22.1556 H   0  0  0  0  0  0
  -29.8939  -22.5668   18.7035 H   0  0  0  0  0  0
  1 25  1  0  0  0
  1 30  2  0  0  0
  1 86  1  0  0  0
  2  3  1  0  0  0
  2 25  1  0  0  0
  2 89  1  0  0  0
  2 90  1  0  0  0
  3  4  1  0  0  0
  3 91  1  0  0  0
  3 92  1  0  0  0
  4  5  1  0  0  0
  4 93  1  0  0  0
  4 94  1  0  0  0
  5  6  1  0  0  0
  5 26  1  0  0  0
  5 95  1  0  0  0
  6 25  1  0  0  0
  6 96  1  0  0  0
  6 97  1  0  0  0
  7  8  2  0  0  0
  7 26  1  0  0  0
  7 29  1  0  0  0
  8  9  1  0  0  0
  8 22  1  0  0  0
  9 10  1  0  0  0
  9 27  2  0  0  0
 10 11  2  0  0  0
 10 15  1  0  0  0
 11 12  1  0  0  0
 11 98  1  0  0  0
 12 13  2  0  0  0
 12 99  1  0  0  0
 13 14  1  0  0  0
 13 31  1  0  0  0
 14 15  2  0  0  0
 14100  1  0  0  0
 15101  1  0  0  0
 16 17  2  0  0  0
 16 21  1  0  0  0
 16 31  1  0  0  0
 17 18  1  0  0  0
 17102  1  0  0  0
 18 19  2  0  0  0
 18103  1  0  0  0
 19 20  1  0  0  0
 19 24  1  0  0  0
 20 21  2  0  0  0
 20104  1  0  0  0
 21 23  1  0  0  0
 22 28  1  0  0  0
 22 32  2  0  0  0
 26 27  1  0  0  0
 28105  1  0  0  0
 28106  1  0  0  0
 29107  1  0  0  0
 29108  1  0  0  0
 33 34  1  0  0  0
 33 66  1  0  0  0
 33 70  2  0  0  0
 34 36  1  0  0  0
 34 59  1  0  0  0
 34109  1  0  0  0
 35 44  2  0  0  0
 35 45  1  0  0  0
 35 68  1  0  0  0
 36 56  1  0  0  0
 36110  1  0  0  0
 37 39  1  0  0  0
 37 47  1  0  0  0
 37 66  1  0  0  0
 37111  1  0  0  0
 38 43  2  0  0  0
 38 46  1  0  0  0
 38 47  1  0  0  0
 39 64  1  0  0  0
 39 67  2  0  0  0
 40 52  1  0  0  0
 40 53  2  0  0  0
 40 58  1  0  0  0
 41112  1  0  0  0
 41113  1  0  0  0
 41114  1  0  0  0
 41 48  1  0  0  0
 42 43  1  0  0  0
 42 66  1  0  0  0
 42115  1  0  0  0
 42116  1  0  0  0
 43 44  1  0  0  0
 44117  1  0  0  0
 45 46  2  0  0  0
 45118  1  0  0  0
 46119  1  0  0  0
 47120  1  0  0  0
 47121  1  0  0  0
 48 56  1  0  0  0
 48 65  1  0  0  0
 48122  1  0  0  0
 49 50  1  0  0  0
 49 53  1  0  0  0
 49 64  1  0  0  0
 49123  1  0  0  0
 50 51  1  0  0  0
 50124  1  0  0  0
 50125  1  0  0  0
 51 52  1  0  0  0
 51126  1  0  0  0
 51127  1  0  0  0
 52128  1  0  0  0
 52129  1  0  0  0
 53 54  1  0  0  0
 54 55  2  0  0  0
 54130  1  0  0  0
 55 57  1  0  0  0
 55131  1  0  0  0
 56 69  2  0  0  0
 57 58  2  0  0  0
 57132  1  0  0  0
 58133  1  0  0  0
 59 60  1  0  0  0
 59 61  1  0  0  0
 59 62  1  0  0  0
 60134  1  0  0  0
 60135  1  0  0  0
 60136  1  0  0  0
 61137  1  0  0  0
 61138  1  0  0  0
 61139  1  0  0  0
 62140  1  0  0  0
 62141  1  0  0  0
 62142  1  0  0  0
 63 65  1  0  0  0
 63143  1  0  0  0
 63144  1  0  0  0
 63145  1  0  0  0
 64146  1  0  0  0
 65147  1  0  0  0
 68 84  1  0  0  0
 71 72  1  0  0  0
 71 80  1  0  0  0
 71148  1  0  0  0
 71149  1  0  0  0
 72 80  1  0  0  0
 72150  1  0  0  0
 72151  1  0  0  0
 73 76  1  0  0  0
 73 81  1  0  0  0
 73152  1  0  0  0
 73153  1  0  0  0
 74 77  1  0  0  0
 74154  1  0  0  0
 74155  1  0  0  0
 74 82  1  0  0  0
 75 78  1  0  0  0
 75 82  1  0  0  0
 75156  1  0  0  0
 75157  1  0  0  0
 76158  1  0  0  0
 76159  1  0  0  0
 76 87  1  0  0  0
 77160  1  0  0  0
 77161  1  0  0  0
 77 88  1  0  0  0
 78 88  1  0  0  0
 78162  1  0  0  0
 78163  1  0  0  0
 79 81  1  0  0  0
 79 87  1  0  0  0
 79164  1  0  0  0
 79165  1  0  0  0
 80 86  1  0  0  0
 80166  1  0  0  0
 81 86  1  0  0  0
 81167  1  0  0  0
 82 87  1  0  0  0
 82168  1  0  0  0
 83169  1  0  0  0
 83170  1  0  0  0
 83171  1  0  0  0
 83 85  1  0  0  0
 84 85  1  0  0  0
 84172  1  0  0  0
 84173  1  0  0  0
 85 88  1  0  0  0
 85174  1  0  0  0
 87175  1  0  0  0
 88176  1  0  0  0
M  CHG  2  87   1  88   1
M  ISO  4   1 100  68 101  84 101  86 100
M  END
> <chiral flag>
0

> <version>
0

> <s_m_source_file>
/data/baiqing/PycharmProjects/Reinvent-master-3.2/result/LINK_invent/BTK/process_docking_weight1_custom_sum_contain_oxygen_bond_distance_aromatic_linkinvent_7_9_3/rearranged_h_0190.sdf

> <i_m_source_file_index>
14

> <r_mmod_Potential_Energy-OPLS-2005>
226.674926757812

> <r_mmod_Stretch_Energy-OPLS-2005>
67.0950088500977

> <r_mmod_Bend_Energy-OPLS-2005>
195.971496582031

> <r_mmod_Torsional_Energy-OPLS-2005>
482.295471191406

> <r_mmod_Improper_Torsional_Energy-OPLS-2005>
2.74307656288147

> <r_mmod_Van_der_Waal_Energy-OPLS-2005>
141.392974853516

> <r_mmod_Electrostatic_Energy-OPLS-2005>
216.706695556641

> <r_mmod_Solvation_Energy-OPLS-2005>
-899.001892089844

> <b_mmod_Minimization_Converged-OPLS-2005>
0

> <r_mmod_RMS_Derivative-OPLS-2005>
4.04537439346313

$$$$
14
                    3D
 Structure written by MMmdl.
154163  0  0  1  0            999 V2000
  -30.6660  -14.6505   20.5310 C   0  0  0  0  0  0
  -30.4260  -12.4186   19.4366 C   0  0  0  0  0  0
  -29.5042  -12.5308   18.2026 C   0  0  0  0  0  0
  -28.0232  -12.3731   18.6065 C   0  0  0  0  0  0
  -27.6435  -13.2323   19.8453 C   0  0  2  0  0  0
  -28.6874  -13.0989   20.9722 C   0  0  0  0  0  0
  -25.2528  -13.8224   20.5696 C   0  0  0  0  0  0
  -24.1821  -13.0461   20.9226 C   0  0  0  0  0  0
  -24.6402  -11.6929   20.8698 C   0  0  0  0  0  0
  -23.9077  -10.4301   21.0366 C   0  0  0  0  0  0
  -24.3640   -9.4215   21.9143 C   0  0  0  0  0  0
  -23.6339   -8.2238   22.0717 C   0  0  0  0  0  0
  -22.4314   -8.0278   21.3530 C   0  0  0  0  0  0
  -21.9936   -9.0215   20.4618 C   0  0  0  0  0  0
  -22.7245  -10.2097   20.3016 C   0  0  0  0  0  0
  -21.6860   -6.0753   22.5295 C   0  0  0  0  0  0
  -21.3991   -6.5661   23.8219 C   0  0  0  0  0  0
  -21.3649   -5.6805   24.9194 C   0  0  0  0  0  0
  -21.6036   -4.3060   24.7245 C   0  0  0  0  0  0
  -21.8816   -3.8158   23.4354 C   0  0  0  0  0  0
  -21.9195   -4.6978   22.3422 C   0  0  0  0  0  0
  -22.7842  -13.5221   21.1895 C   0  0  0  0  0  0
  -22.1682   -4.2170   21.1002 F   0  0  0  0  0  0
  -21.5628   -3.4532   25.7755 F   0  0  0  0  0  0
  -29.9984  -13.4547   20.4081 N   0  0  0  0  0  0
  -26.2943  -12.9404   20.3205 N   0  0  0  0  0  0
  -25.9301  -11.6532   20.5654 N   0  0  0  0  0  0
  -22.0475  -12.8199   22.0428 N   0  0  0  0  0  0
  -25.4259  -15.1962   20.4209 N   0  0  0  0  0  0
  -31.8138  -14.7617   20.0876 O   0  0  0  0  0  0
  -21.6667   -6.8878   21.4239 O   0  0  0  0  0  0
  -22.3515  -14.5488   20.6705 O   0  0  0  0  0  0
  -24.6321  -31.8549   23.2059 C   0  0  0  0  0  0
  -25.9167  -32.4727   23.8360 C   0  0  1  0  0  0
  -27.2081  -27.2965   20.1207 C   0  0  0  0  0  0
  -25.5989  -33.8536   24.2277 N   0  0  0  0  0  0
  -23.4220  -30.4836   21.5480 C   0  0  2  0  0  0
  -24.8662  -28.9381   20.1038 C   0  0  0  0  0  0
  -22.7472  -29.4624   22.4939 C   0  0  0  0  0  0
  -18.0279  -28.1403   22.8483 C   0  0  0  0  0  0
  -24.1490  -36.7268   23.2648 C   0  0  0  0  0  0
  -25.9672  -30.7789   21.3777 C   0  0  0  0  0  0
  -26.0385  -29.4089   20.7130 C   0  0  0  0  0  0
  -27.2176  -28.6008   20.7122 C   0  0  0  0  0  0
  -26.0216  -26.8936   19.4713 C   0  0  0  0  0  0
  -24.8614  -27.6875   19.4707 C   0  0  0  0  0  0
  -23.6322  -29.8195   20.1625 C   0  0  0  0  0  0
  -25.4103  -36.3035   24.0331 C   0  0  1  0  0  0
  -20.5884  -28.3693   23.1278 C   0  0  2  0  0  0
  -20.6752  -26.9407   22.5415 C   0  0  0  0  0  0
  -19.5733  -26.6374   21.5221 C   0  0  0  0  0  0
  -18.1914  -26.7954   22.1613 C   0  0  0  0  0  0
  -19.1542  -28.8857   23.2871 C   0  0  0  0  0  0
  -18.9469  -30.1477   23.8861 C   0  0  0  0  0  0
  -17.6465  -30.6595   24.0565 C   0  0  0  0  0  0
  -25.9053  -34.9409   23.5087 C   0  0  0  0  0  0
  -16.5352  -29.9080   23.6380 C   0  0  0  0  0  0
  -16.7266  -28.6517   23.0364 C   0  0  0  0  0  0
  -26.4572  -31.6566   25.0754 C   0  0  0  0  0  0
  -25.3804  -31.3750   26.1489 C   0  0  0  0  0  0
  -27.0374  -30.2942   24.6267 C   0  0  0  0  0  0
  -27.6084  -32.4334   25.7549 C   0  0  0  0  0  0
  -27.5580  -37.1782   24.8456 C   0  0  0  0  0  0
  -21.4181  -29.3042   22.3673 N   0  0  0  0  0  0
  -26.4263  -37.3752   23.9439 N   0  0  0  0  0  0
  -24.6922  -31.0539   22.1017 N   0  0  0  0  0  0
  -23.4189  -28.8149   23.3012 O   0  0  0  0  0  0
  -28.2611  -26.3694   20.1771 O   0  0  0  0  0  0
  -26.5582  -34.8920   22.4646 O   0  0  0  0  0  0
  -23.5483  -32.1352   23.7394 O   0  0  0  0  0  0
  -29.6400  -23.3486   19.8505 C   0  0  0  0  0  0
  -28.3822  -21.3851   21.2561 C   0  0  0  0  0  0
  -28.5251  -23.6889   20.6732 C   0  0  0  0  0  0
  -29.4954  -21.0426   20.4314 C   0  0  0  0  0  0
  -30.8493  -17.0114   22.3881 C   0  0  0  0  0  0
  -29.7419  -15.9599   22.4131 C   0  0  0  0  0  0
  -30.4858  -17.2241   20.9235 C   0  0  2  0  0  0
  -27.9243  -25.1348   20.9428 C   0  0  0  0  0  0
  -29.4553  -18.3986   20.5868 C   0  0  0  0  0  0
  -27.9203  -22.6734   21.3723 N   0  0  0  0  0  0
  -30.1053  -22.0540   19.7387 N   0  0  0  0  0  0
  -29.9825  -15.7790   20.9704 N   0  0  0  0  0  0
  -30.0785  -19.7335   20.2993 N   0  0  0  0  0  0
  -31.4666  -12.5403   19.1290 H   0  0  0  0  0  0
  -30.3624  -11.4220   19.8758 H   0  0  0  0  0  0
  -29.7729  -11.7764   17.4595 H   0  0  0  0  0  0
  -29.6544  -13.4990   17.7190 H   0  0  0  0  0  0
  -27.8423  -11.3182   18.8107 H   0  0  0  0  0  0
  -27.3791  -12.6317   17.7646 H   0  0  0  0  0  0
  -27.6537  -14.2711   19.5146 H   0  0  0  0  0  0
  -28.7075  -12.0812   21.3611 H   0  0  0  0  0  0
  -28.4122  -13.7361   21.8113 H   0  0  0  0  0  0
  -25.2793   -9.5740   22.4695 H   0  0  0  0  0  0
  -24.0100   -7.4624   22.7405 H   0  0  0  0  0  0
  -21.0878   -8.8673   19.8911 H   0  0  0  0  0  0
  -22.3688  -10.9597   19.6104 H   0  0  0  0  0  0
  -21.1955   -7.6162   23.9747 H   0  0  0  0  0  0
  -21.1475   -6.0530   25.9100 H   0  0  0  0  0  0
  -22.0599   -2.7624   23.2849 H   0  0  0  0  0  0
  -22.4116  -11.9952   22.4959 H   0  0  0  0  0  0
  -21.0993  -13.1096   22.2412 H   0  0  0  0  0  0
  -24.6723  -15.8627   20.5629 H   0  0  0  0  0  0
  -26.2970  -15.6307   20.1385 H   0  0  0  0  0  0
  -26.7230  -32.5371   23.1111 H   0  0  0  0  0  0
  -25.0207  -33.9669   25.0469 H   0  0  0  0  0  0
  -22.7202  -31.3097   21.4093 H   0  0  0  0  0  0
  -23.3753  -35.9591   23.3231 H   0  0  0  0  0  0
  -24.3607  -36.8963   22.2079 H   0  0  0  0  0  0
  -23.7232  -37.6447   23.6720 H   0  0  0  0  0  0
  -26.1014  -31.5439   20.6118 H   0  0  0  0  0  0
  -26.8473  -30.8196   22.0093 H   0  0  0  0  0  0
  -28.1118  -28.9480   21.2077 H   0  0  0  0  0  0
  -25.9749  -25.9306   18.9844 H   0  0  0  0  0  0
  -23.9633  -27.3250   18.9886 H   0  0  0  0  0  0
  -23.7399  -30.5976   19.4055 H   0  0  0  0  0  0
  -22.7499  -29.2456   19.8679 H   0  0  0  0  0  0
  -25.1297  -36.1846   25.0808 H   0  0  0  0  0  0
  -20.9994  -28.3256   24.1399 H   0  0  0  0  0  0
  -20.5640  -26.2312   23.3624 H   0  0  0  0  0  0
  -21.6616  -26.7423   22.1214 H   0  0  0  0  0  0
  -19.6877  -25.6272   21.1287 H   0  0  0  0  0  0
  -19.6710  -27.3171   20.6745 H   0  0  0  0  0  0
  -17.4221  -26.6766   21.3975 H   0  0  0  0  0  0
  -18.0256  -26.0072   22.8970 H   0  0  0  0  0  0
  -19.7944  -30.7326   24.2162 H   0  0  0  0  0  0
  -17.5025  -31.6286   24.5143 H   0  0  0  0  0  0
  -15.5349  -30.2956   23.7748 H   0  0  0  0  0  0
  -15.8667  -28.0834   22.7064 H   0  0  0  0  0  0
  -24.5994  -30.7051   25.7935 H   0  0  0  0  0  0
  -24.8987  -32.2906   26.4896 H   0  0  0  0  0  0
  -25.8151  -30.9018   27.0302 H   0  0  0  0  0  0
  -26.2944  -29.6691   24.1300 H   0  0  0  0  0  0
  -27.4015  -29.7237   25.4845 H   0  0  0  0  0  0
  -27.8874  -30.4173   23.9542 H   0  0  0  0  0  0
  -27.2634  -33.3649   26.2087 H   0  0  0  0  0  0
  -28.3941  -32.6873   25.0408 H   0  0  0  0  0  0
  -28.0707  -31.8475   26.5531 H   0  0  0  0  0  0
  -28.2552  -38.0133   24.7529 H   0  0  0  0  0  0
  -28.1123  -36.2655   24.6206 H   0  0  0  0  0  0
  -27.2319  -37.1313   25.8867 H   0  0  0  0  0  0
  -20.9374  -29.8764   21.6877 H   0  0  0  0  0  0
  -26.0116  -38.2809   24.1475 H   0  0  0  0  0  0
  -30.1771  -24.1032   19.2841 H   0  0  0  0  0  0
  -27.8655  -20.6453   21.8568 H   0  0  0  0  0  0
  -31.8469  -16.5904   22.5258 H   0  0  0  0  0  0
  -30.6858  -17.8734   23.0362 H   0  0  0  0  0  0
  -28.7592  -16.3699   22.6521 H   0  0  0  0  0  0
  -29.9677  -15.1009   23.0511 H   0  0  0  0  0  0
  -31.3944  -17.3180   20.3269 H   0  0  0  0  0  0
  -28.1570  -25.3627   21.9853 H   0  0  0  0  0  0
  -26.8439  -24.9816   20.9501 H   0  0  0  0  0  0
  -28.7378  -18.5171   21.3980 H   0  0  0  0  0  0
  -28.8665  -18.1247   19.7110 H   0  0  0  0  0  0
  -30.8907  -19.6932   19.6877 H   0  0  0  0  0  0
  1 25  1  0  0  0
  1 30  2  0  0  0
  1 82  1  0  0  0
  2  3  1  0  0  0
  2 25  1  0  0  0
  2 84  1  0  0  0
  2 85  1  0  0  0
  3  4  1  0  0  0
  3 86  1  0  0  0
  3 87  1  0  0  0
  4  5  1  0  0  0
  4 88  1  0  0  0
  4 89  1  0  0  0
  5  6  1  0  0  0
  5 26  1  0  0  0
  5 90  1  0  0  0
  6 25  1  0  0  0
  6 91  1  0  0  0
  6 92  1  0  0  0
  7  8  2  0  0  0
  7 26  1  0  0  0
  7 29  1  0  0  0
  8  9  1  0  0  0
  8 22  1  0  0  0
  9 10  1  0  0  0
  9 27  2  0  0  0
 10 11  2  0  0  0
 10 15  1  0  0  0
 11 12  1  0  0  0
 11 93  1  0  0  0
 12 13  2  0  0  0
 12 94  1  0  0  0
 13 14  1  0  0  0
 13 31  1  0  0  0
 14 15  2  0  0  0
 14 95  1  0  0  0
 15 96  1  0  0  0
 16 17  2  0  0  0
 16 21  1  0  0  0
 16 31  1  0  0  0
 17 18  1  0  0  0
 17 97  1  0  0  0
 18 19  2  0  0  0
 18 98  1  0  0  0
 19 20  1  0  0  0
 19 24  1  0  0  0
 20 21  2  0  0  0
 20 99  1  0  0  0
 21 23  1  0  0  0
 22 28  1  0  0  0
 22 32  2  0  0  0
 26 27  1  0  0  0
 28100  1  0  0  0
 28101  1  0  0  0
 29102  1  0  0  0
 29103  1  0  0  0
 33 34  1  0  0  0
 33 66  1  0  0  0
 33 70  2  0  0  0
 34 36  1  0  0  0
 34 59  1  0  0  0
 34104  1  0  0  0
 35 44  2  0  0  0
 35 45  1  0  0  0
 35 68  1  0  0  0
 36 56  1  0  0  0
 36105  1  0  0  0
 37 39  1  0  0  0
 37 47  1  0  0  0
 37 66  1  0  0  0
 37106  1  0  0  0
 38 43  2  0  0  0
 38 46  1  0  0  0
 38 47  1  0  0  0
 39 64  1  0  0  0
 39 67  2  0  0  0
 40 52  1  0  0  0
 40 53  2  0  0  0
 40 58  1  0  0  0
 41107  1  0  0  0
 41108  1  0  0  0
 41109  1  0  0  0
 41 48  1  0  0  0
 42 43  1  0  0  0
 42 66  1  0  0  0
 42110  1  0  0  0
 42111  1  0  0  0
 43 44  1  0  0  0
 44112  1  0  0  0
 45 46  2  0  0  0
 45113  1  0  0  0
 46114  1  0  0  0
 47115  1  0  0  0
 47116  1  0  0  0
 48 56  1  0  0  0
 48 65  1  0  0  0
 48117  1  0  0  0
 49 50  1  0  0  0
 49 53  1  0  0  0
 49 64  1  0  0  0
 49118  1  0  0  0
 50 51  1  0  0  0
 50119  1  0  0  0
 50120  1  0  0  0
 51 52  1  0  0  0
 51121  1  0  0  0
 51122  1  0  0  0
 52123  1  0  0  0
 52124  1  0  0  0
 53 54  1  0  0  0
 54 55  2  0  0  0
 54125  1  0  0  0
 55 57  1  0  0  0
 55126  1  0  0  0
 56 69  2  0  0  0
 57 58  2  0  0  0
 57127  1  0  0  0
 58128  1  0  0  0
 59 60  1  0  0  0
 59 61  1  0  0  0
 59 62  1  0  0  0
 60129  1  0  0  0
 60130  1  0  0  0
 60131  1  0  0  0
 61132  1  0  0  0
 61133  1  0  0  0
 61134  1  0  0  0
 62135  1  0  0  0
 62136  1  0  0  0
 62137  1  0  0  0
 63 65  1  0  0  0
 63138  1  0  0  0
 63139  1  0  0  0
 63140  1  0  0  0
 64141  1  0  0  0
 65142  1  0  0  0
 68 78  1  0  0  0
 71 73  2  0  0  0
 71 81  1  0  0  0
 71143  1  0  0  0
 72 74  1  0  0  0
 72 80  2  0  0  0
 72144  1  0  0  0
 73 78  1  0  0  0
 73 80  1  0  0  0
 74 81  2  0  0  0
 74 83  1  0  0  0
 75 76  1  0  0  0
 75 77  1  0  0  0
 75145  1  0  0  0
 75146  1  0  0  0
 76 82  1  0  0  0
 76147  1  0  0  0
 76148  1  0  0  0
 77 79  1  0  0  0
 77 82  1  0  0  0
 77149  1  0  0  0
 78150  1  0  0  0
 78151  1  0  0  0
 79 83  1  0  0  0
 79152  1  0  0  0
 79153  1  0  0  0
 83154  1  0  0  0
M  ISO  4   1 100  68 101  78 101  82 100
M  END
> <chiral flag>
0

> <version>
0

> <s_m_source_file>
/data/baiqing/PycharmProjects/Reinvent-master-3.2/result/LINK_invent/BTK/process_docking_weight1_custom_sum_contain_oxygen_bond_distance_aromatic_linkinvent_7_9_3/rearranged_h_0190.sdf

> <i_m_source_file_index>
15

> <r_mmod_Potential_Energy-OPLS-2005>
279.107788085938

> <r_mmod_Stretch_Energy-OPLS-2005>
102.279197692871

> <r_mmod_Bend_Energy-OPLS-2005>
177.159149169922

> <r_mmod_Torsional_Energy-OPLS-2005>
291.284027099609

> <r_mmod_Improper_Torsional_Energy-OPLS-2005>
12.3259649276733

> <r_mmod_Van_der_Waal_Energy-OPLS-2005>
146.83479309082

> <r_mmod_Electrostatic_Energy-OPLS-2005>
-292.430023193359

> <r_mmod_Solvation_Energy-OPLS-2005>
-219.053344726562

> <b_mmod_Minimization_Converged-OPLS-2005>
0

> <r_mmod_RMS_Derivative-OPLS-2005>
5.31261777877808

$$$$
15
                    3D
 Structure written by MMmdl.
158167  0  0  1  0            999 V2000
  -30.6174  -14.7312   20.4506 C   0  0  0  0  0  0
  -30.4295  -12.4413   19.4840 C   0  0  0  0  0  0
  -29.5129  -12.5086   18.2422 C   0  0  0  0  0  0
  -28.0370  -12.3387   18.6501 C   0  0  0  0  0  0
  -27.6443  -13.2333   19.8562 C   0  0  2  0  0  0
  -28.6862  -13.1597   20.9949 C   0  0  0  0  0  0
  -25.2513  -13.8202   20.5702 C   0  0  0  0  0  0
  -24.1803  -13.0444   20.9205 C   0  0  0  0  0  0
  -24.6395  -11.6922   20.8747 C   0  0  0  0  0  0
  -23.9072  -10.4296   21.0405 C   0  0  0  0  0  0
  -24.3622   -9.4211   21.9182 C   0  0  0  0  0  0
  -23.6296   -8.2247   22.0753 C   0  0  0  0  0  0
  -22.4276   -8.0284   21.3546 C   0  0  0  0  0  0
  -21.9911   -9.0259   20.4647 C   0  0  0  0  0  0
  -22.7244  -10.2137   20.3056 C   0  0  0  0  0  0
  -21.6853   -6.0738   22.5279 C   0  0  0  0  0  0
  -21.4016   -6.5641   23.8214 C   0  0  0  0  0  0
  -21.3660   -5.6793   24.9175 C   0  0  0  0  0  0
  -21.6041   -4.3056   24.7225 C   0  0  0  0  0  0
  -21.8819   -3.8149   23.4346 C   0  0  0  0  0  0
  -21.9193   -4.6966   22.3403 C   0  0  0  0  0  0
  -22.7824  -13.5225   21.1863 C   0  0  0  0  0  0
  -22.1662   -4.2153   21.0981 F   0  0  0  0  0  0
  -21.5627   -3.4539   25.7737 F   0  0  0  0  0  0
  -29.9937  -13.5032   20.4221 N   0  0  0  0  0  0
  -26.2945  -12.9414   20.3299 N   0  0  0  0  0  0
  -25.9328  -11.6553   20.5756 N   0  0  0  0  0  0
  -22.0469  -12.8216   22.0418 N   0  0  0  0  0  0
  -25.4202  -15.1928   20.4131 N   0  0  0  0  0  0
  -31.7991  -14.8179   20.1024 O   0  0  0  0  0  0
  -21.6641   -6.8880   21.4241 O   0  0  0  0  0  0
  -22.3508  -14.5533   20.6713 O   0  0  0  0  0  0
  -24.6315  -31.8553   23.1990 C   0  0  0  0  0  0
  -25.9139  -32.4755   23.8335 C   0  0  1  0  0  0
  -27.2154  -27.2571   20.1271 C   0  0  0  0  0  0
  -25.5934  -33.8558   24.2255 N   0  0  0  0  0  0
  -23.4281  -30.4792   21.5425 C   0  0  2  0  0  0
  -24.8749  -28.9294   20.1080 C   0  0  0  0  0  0
  -22.7505  -29.4601   22.4905 C   0  0  0  0  0  0
  -18.0293  -28.1386   22.8482 C   0  0  0  0  0  0
  -24.1490  -36.7285   23.2639 C   0  0  0  0  0  0
  -25.9752  -30.7664   21.3808 C   0  0  0  0  0  0
  -26.0467  -29.3896   20.7217 C   0  0  0  0  0  0
  -27.2188  -28.5655   20.7222 C   0  0  0  0  0  0
  -26.0228  -26.8769   19.4679 C   0  0  0  0  0  0
  -24.8688  -27.6817   19.4698 C   0  0  0  0  0  0
  -23.6464  -29.8166   20.1576 C   0  0  0  0  0  0
  -25.4116  -36.3069   24.0324 C   0  0  1  0  0  0
  -20.5897  -28.3698   23.1266 C   0  0  2  0  0  0
  -20.6780  -26.9415   22.5406 C   0  0  0  0  0  0
  -19.5755  -26.6382   21.5209 C   0  0  0  0  0  0
  -18.1937  -26.7927   22.1623 C   0  0  0  0  0  0
  -19.1546  -28.8860   23.2869 C   0  0  0  0  0  0
  -18.9467  -30.1459   23.8891 C   0  0  0  0  0  0
  -17.6465  -30.6586   24.0561 C   0  0  0  0  0  0
  -25.9058  -34.9439   23.5092 C   0  0  0  0  0  0
  -16.5357  -29.9082   23.6331 C   0  0  0  0  0  0
  -16.7279  -28.6501   23.0352 C   0  0  0  0  0  0
  -26.4503  -31.6583   25.0727 C   0  0  0  0  0  0
  -25.3722  -31.3734   26.1444 C   0  0  0  0  0  0
  -27.0354  -30.2999   24.6219 C   0  0  0  0  0  0
  -27.6054  -32.4326   25.7502 C   0  0  0  0  0  0
  -27.5577  -37.1799   24.8465 C   0  0  0  0  0  0
  -21.4210  -29.3045   22.3654 N   0  0  0  0  0  0
  -26.4290  -37.3768   23.9405 N   0  0  0  0  0  0
  -24.6974  -31.0516   22.0968 N   0  0  0  0  0  0
  -23.4206  -28.8134   23.2998 O   0  0  0  0  0  0
  -28.3005  -26.3483   20.2086 O   0  0  0  0  0  0
  -26.5632  -34.8913   22.4663 O   0  0  0  0  0  0
  -23.5464  -32.1375   23.7283 O   0  0  0  0  0  0
  -30.5753  -17.3241   18.8511 C   0  0  0  0  0  0
  -30.2991  -19.6361   18.7526 C   0  0  0  0  0  0
  -29.7190  -19.6614   20.0516 C   0  0  0  0  0  0
  -30.0111  -17.2351   20.1482 C   0  0  0  0  0  0
  -29.4810  -21.5729   17.1751 C   0  0  0  0  0  0
  -30.5519  -20.8418   16.4168 C   0  0  0  0  0  0
  -30.5897  -20.8676   17.9353 C   0  0  0  0  0  0
  -29.4650  -21.0655   20.7872 C   0  0  0  0  0  0
  -29.0201  -23.7006   20.5333 C   0  0  0  0  0  0
  -28.0565  -24.8774   19.9676 C   0  0  0  0  0  0
  -30.7153  -18.4843   18.1732 N   0  0  0  0  0  0
  -29.5748  -18.4378   20.7251 N   0  0  0  0  0  0
  -29.8682  -15.8708   20.7151 N   0  0  0  0  0  0
  -28.7401  -22.2392   20.1008 N   0  3  0  0  0  0
  -31.4735  -12.5514   19.1856 H   0  0  0  0  0  0
  -30.3612  -11.4624   19.9611 H   0  0  0  0  0  0
  -29.7927  -11.7375   17.5229 H   0  0  0  0  0  0
  -29.6481  -13.4648   17.7338 H   0  0  0  0  0  0
  -27.8868  -11.2889   18.9050 H   0  0  0  0  0  0
  -27.3837  -12.5409   17.8006 H   0  0  0  0  0  0
  -27.6418  -14.2573   19.4819 H   0  0  0  0  0  0
  -28.7131  -12.1608   21.4335 H   0  0  0  0  0  0
  -28.4213  -13.8400   21.8057 H   0  0  0  0  0  0
  -25.2767   -9.5687   22.4756 H   0  0  0  0  0  0
  -24.0008   -7.4635   22.7469 H   0  0  0  0  0  0
  -21.0844   -8.8777   19.8952 H   0  0  0  0  0  0
  -22.3701  -10.9675   19.6166 H   0  0  0  0  0  0
  -21.2011   -7.6149   23.9718 H   0  0  0  0  0  0
  -21.1481   -6.0523   25.9078 H   0  0  0  0  0  0
  -22.0597   -2.7610   23.2845 H   0  0  0  0  0  0
  -22.4088  -11.9884   22.4816 H   0  0  0  0  0  0
  -21.1084  -13.1238   22.2618 H   0  0  0  0  0  0
  -24.6505  -15.8443   20.5239 H   0  0  0  0  0  0
  -26.2662  -15.6355   20.0780 H   0  0  0  0  0  0
  -26.7204  -32.5404   23.1074 H   0  0  0  0  0  0
  -25.0073  -33.9697   25.0395 H   0  0  0  0  0  0
  -22.7244  -31.3015   21.3979 H   0  0  0  0  0  0
  -23.3751  -35.9618   23.3300 H   0  0  0  0  0  0
  -24.3580  -36.8911   22.2054 H   0  0  0  0  0  0
  -23.7245  -37.6484   23.6668 H   0  0  0  0  0  0
  -26.1155  -31.5268   20.6113 H   0  0  0  0  0  0
  -26.8523  -30.8148   22.0143 H   0  0  0  0  0  0
  -28.1121  -28.9095   21.2245 H   0  0  0  0  0  0
  -25.9428  -25.9315   18.9529 H   0  0  0  0  0  0
  -23.9740  -27.3280   18.9760 H   0  0  0  0  0  0
  -23.7719  -30.5943   19.4034 H   0  0  0  0  0  0
  -22.7644  -29.2511   19.8515 H   0  0  0  0  0  0
  -25.1299  -36.1915   25.0817 H   0  0  0  0  0  0
  -20.9991  -28.3278   24.1386 H   0  0  0  0  0  0
  -20.5676  -26.2310   23.3611 H   0  0  0  0  0  0
  -21.6648  -26.7434   22.1203 H   0  0  0  0  0  0
  -19.6916  -25.6290   21.1245 H   0  0  0  0  0  0
  -19.6691  -27.3187   20.6735 H   0  0  0  0  0  0
  -17.4202  -26.6669   21.4029 H   0  0  0  0  0  0
  -18.0341  -26.0073   22.9025 H   0  0  0  0  0  0
  -19.7942  -30.7276   24.2258 H   0  0  0  0  0  0
  -17.5019  -31.6267   24.5161 H   0  0  0  0  0  0
  -15.5356  -30.2982   23.7656 H   0  0  0  0  0  0
  -15.8680  -28.0816   22.7071 H   0  0  0  0  0  0
  -24.5903  -30.7077   25.7770 H   0  0  0  0  0  0
  -24.8907  -32.2905   26.4849 H   0  0  0  0  0  0
  -25.8035  -30.8925   27.0233 H   0  0  0  0  0  0
  -26.2943  -29.6742   24.1232 H   0  0  0  0  0  0
  -27.4022  -29.7266   25.4742 H   0  0  0  0  0  0
  -27.8826  -30.4271   23.9476 H   0  0  0  0  0  0
  -27.2661  -33.3633   26.2060 H   0  0  0  0  0  0
  -28.3876  -32.6873   25.0338 H   0  0  0  0  0  0
  -28.0709  -31.8463   26.5435 H   0  0  0  0  0  0
  -28.2592  -38.0097   24.7508 H   0  0  0  0  0  0
  -28.1075  -36.2627   24.6296 H   0  0  0  0  0  0
  -27.2295  -37.1453   25.8868 H   0  0  0  0  0  0
  -20.9393  -29.8780   21.6871 H   0  0  0  0  0  0
  -26.0167  -38.2842   24.1405 H   0  0  0  0  0  0
  -30.8994  -16.4464   18.3117 H   0  0  0  0  0  0
  -28.4895  -21.1226   17.1606 H   0  0  0  0  0  0
  -29.5058  -22.6590   17.1041 H   0  0  0  0  0  0
  -31.2782  -21.4504   15.8818 H   0  0  0  0  0  0
  -30.2610  -19.9199   15.9160 H   0  0  0  0  0  0
  -31.3654  -21.4745   18.3999 H   0  0  0  0  0  0
  -30.4553  -21.4262   21.0668 H   0  0  0  0  0  0
  -28.9581  -20.8681   21.7320 H   0  0  0  0  0  0
  -28.9914  -23.7403   21.6226 H   0  0  0  0  0  0
  -30.0477  -23.9352   20.2544 H   0  0  0  0  0  0
  -27.0679  -24.6364   20.3591 H   0  0  0  0  0  0
  -27.9893  -24.7538   18.8863 H   0  0  0  0  0  0
  -29.0031  -15.7057   21.2041 H   0  0  0  0  0  0
  -27.7547  -22.0532   20.2077 H   0  0  0  0  0  0
  -28.9366  -22.1739   19.1149 H   0  0  0  0  0  0
  1 25  1  0  0  0
  1 30  2  0  0  0
  1 83  1  0  0  0
  2  3  1  0  0  0
  2 25  1  0  0  0
  2 85  1  0  0  0
  2 86  1  0  0  0
  3  4  1  0  0  0
  3 87  1  0  0  0
  3 88  1  0  0  0
  4  5  1  0  0  0
  4 89  1  0  0  0
  4 90  1  0  0  0
  5  6  1  0  0  0
  5 26  1  0  0  0
  5 91  1  0  0  0
  6 25  1  0  0  0
  6 92  1  0  0  0
  6 93  1  0  0  0
  7  8  2  0  0  0
  7 26  1  0  0  0
  7 29  1  0  0  0
  8  9  1  0  0  0
  8 22  1  0  0  0
  9 10  1  0  0  0
  9 27  2  0  0  0
 10 11  2  0  0  0
 10 15  1  0  0  0
 11 12  1  0  0  0
 11 94  1  0  0  0
 12 13  2  0  0  0
 12 95  1  0  0  0
 13 14  1  0  0  0
 13 31  1  0  0  0
 14 15  2  0  0  0
 14 96  1  0  0  0
 15 97  1  0  0  0
 16 17  2  0  0  0
 16 21  1  0  0  0
 16 31  1  0  0  0
 17 18  1  0  0  0
 17 98  1  0  0  0
 18 19  2  0  0  0
 18 99  1  0  0  0
 19 20  1  0  0  0
 19 24  1  0  0  0
 20 21  2  0  0  0
 20100  1  0  0  0
 21 23  1  0  0  0
 22 28  1  0  0  0
 22 32  2  0  0  0
 26 27  1  0  0  0
 28101  1  0  0  0
 28102  1  0  0  0
 29103  1  0  0  0
 29104  1  0  0  0
 33 34  1  0  0  0
 33 66  1  0  0  0
 33 70  2  0  0  0
 34 36  1  0  0  0
 34 59  1  0  0  0
 34105  1  0  0  0
 35 44  2  0  0  0
 35 45  1  0  0  0
 35 68  1  0  0  0
 36 56  1  0  0  0
 36106  1  0  0  0
 37 39  1  0  0  0
 37 47  1  0  0  0
 37 66  1  0  0  0
 37107  1  0  0  0
 38 43  2  0  0  0
 38 46  1  0  0  0
 38 47  1  0  0  0
 39 64  1  0  0  0
 39 67  2  0  0  0
 40 52  1  0  0  0
 40 53  2  0  0  0
 40 58  1  0  0  0
 41108  1  0  0  0
 41109  1  0  0  0
 41110  1  0  0  0
 41 48  1  0  0  0
 42 43  1  0  0  0
 42 66  1  0  0  0
 42111  1  0  0  0
 42112  1  0  0  0
 43 44  1  0  0  0
 44113  1  0  0  0
 45 46  2  0  0  0
 45114  1  0  0  0
 46115  1  0  0  0
 47116  1  0  0  0
 47117  1  0  0  0
 48 56  1  0  0  0
 48 65  1  0  0  0
 48118  1  0  0  0
 49 50  1  0  0  0
 49 53  1  0  0  0
 49 64  1  0  0  0
 49119  1  0  0  0
 50 51  1  0  0  0
 50120  1  0  0  0
 50121  1  0  0  0
 51 52  1  0  0  0
 51122  1  0  0  0
 51123  1  0  0  0
 52124  1  0  0  0
 52125  1  0  0  0
 53 54  1  0  0  0
 54 55  2  0  0  0
 54126  1  0  0  0
 55 57  1  0  0  0
 55127  1  0  0  0
 56 69  2  0  0  0
 57 58  2  0  0  0
 57128  1  0  0  0
 58129  1  0  0  0
 59 60  1  0  0  0
 59 61  1  0  0  0
 59 62  1  0  0  0
 60130  1  0  0  0
 60131  1  0  0  0
 60132  1  0  0  0
 61133  1  0  0  0
 61134  1  0  0  0
 61135  1  0  0  0
 62136  1  0  0  0
 62137  1  0  0  0
 62138  1  0  0  0
 63 65  1  0  0  0
 63139  1  0  0  0
 63140  1  0  0  0
 63141  1  0  0  0
 64142  1  0  0  0
 65143  1  0  0  0
 68 80  1  0  0  0
 71 74  2  0  0  0
 71 81  1  0  0  0
 71144  1  0  0  0
 72 73  1  0  0  0
 72 81  2  0  0  0
 72 77  1  0  0  0
 73 78  1  0  0  0
 73 82  2  0  0  0
 74 82  1  0  0  0
 74 83  1  0  0  0
 75 76  1  0  0  0
 75 77  1  0  0  0
 75145  1  0  0  0
 75146  1  0  0  0
 76 77  1  0  0  0
 76147  1  0  0  0
 76148  1  0  0  0
 77149  1  0  0  0
 78 84  1  0  0  0
 78150  1  0  0  0
 78151  1  0  0  0
 79 80  1  0  0  0
 79 84  1  0  0  0
 79152  1  0  0  0
 79153  1  0  0  0
 80154  1  0  0  0
 80155  1  0  0  0
 83156  1  0  0  0
 84157  1  0  0  0
 84158  1  0  0  0
M  CHG  1  84   1
M  ISO  4   1 100  68 101  80 101  83 100
M  END
> <chiral flag>
0

> <version>
0

> <s_m_source_file>
/data/baiqing/PycharmProjects/Reinvent-master-3.2/result/LINK_invent/BTK/process_docking_weight1_custom_sum_contain_oxygen_bond_distance_aromatic_linkinvent_7_9_3/rearranged_h_0190.sdf

> <i_m_source_file_index>
16

> <r_mmod_Potential_Energy-OPLS-2005>
21.0493297576904

> <r_mmod_Stretch_Energy-OPLS-2005>
131.762954711914

> <r_mmod_Bend_Energy-OPLS-2005>
164.036666870117

> <r_mmod_Torsional_Energy-OPLS-2005>
255.094818115234

> <r_mmod_Improper_Torsional_Energy-OPLS-2005>
5.30672693252563

> <r_mmod_Van_der_Waal_Energy-OPLS-2005>
145.556655883789

> <r_mmod_Electrostatic_Energy-OPLS-2005>
-274.526885986328

> <r_mmod_Solvation_Energy-OPLS-2005>
-490.760650634766

> <b_mmod_Minimization_Converged-OPLS-2005>
0

> <r_mmod_RMS_Derivative-OPLS-2005>
0.430936306715012

$$$$
16
                    3D
 Structure written by MMmdl.
158168  0  0  1  0            999 V2000
  -30.0800  -13.0204   18.4594 C   0  0  0  0  0  0
  -30.3275  -14.2823   20.1132 C   0  0  0  0  0  0
  -29.2026  -15.0515   19.4562 C   0  0  0  0  0  0
  -27.9584  -14.3563   20.0085 C   0  0  0  0  0  0
  -27.6768  -13.0281   20.5969 C   0  0  2  0  0  0
  -28.7764  -12.1128   20.3588 C   0  0  0  0  0  0
  -25.1547  -13.7253   20.5838 C   0  0  0  0  0  0
  -24.0577  -12.9535   20.9075 C   0  0  0  0  0  0
  -24.5167  -11.6114   20.8744 C   0  0  0  0  0  0
  -23.8220  -10.3895   21.0929 C   0  0  0  0  0  0
  -24.3498   -9.3755   21.9402 C   0  0  0  0  0  0
  -23.6234   -8.2062   22.0679 C   0  0  0  0  0  0
  -22.4171   -8.0064   21.3973 C   0  0  0  0  0  0
  -21.9792   -8.9674   20.4638 C   0  0  0  0  0  0
  -22.7143  -10.1287   20.2743 C   0  0  0  0  0  0
  -21.6576   -6.0631   22.5238 C   0  0  0  0  0  0
  -21.3900   -6.5464   23.8313 C   0  0  0  0  0  0
  -21.3914   -5.6722   24.9388 C   0  0  0  0  0  0
  -21.6084   -4.2954   24.7351 C   0  0  0  0  0  0
  -21.8622   -3.7919   23.4505 C   0  0  0  0  0  0
  -21.8917   -4.6810   22.3462 C   0  0  0  0  0  0
  -22.6935  -13.4816   21.2105 C   0  0  0  0  0  0
  -22.1488   -4.2028   21.1097 F   0  0  0  0  0  0
  -21.5915   -3.4391   25.7940 F   0  0  0  0  0  0
  -29.8869  -12.9036   19.7593 N   0  0  0  0  0  0
  -26.2201  -12.8026   20.5142 N   0  0  0  0  0  0
  -25.8115  -11.5354   20.5693 N   0  0  0  0  0  0
  -22.0279  -12.7894   22.1440 N   0  0  0  0  0  0
  -25.2053  -15.1085   20.5522 N   0  0  0  0  0  0
  -31.2241  -13.3284   18.1940 O   0  0  0  0  0  0
  -21.6347   -6.8689   21.4374 O   0  0  0  0  0  0
  -22.2849  -14.5242   20.6587 O   0  0  0  0  0  0
  -24.7084  -31.7801   23.1411 C   0  0  0  0  0  0
  -25.9638  -32.4342   23.7907 C   0  0  1  0  0  0
  -26.8358  -26.5161   20.0765 C   0  0  0  0  0  0
  -25.6126  -33.8205   24.1777 N   0  0  0  0  0  0
  -23.5016  -30.4247   21.5109 C   0  0  2  0  0  0
  -24.8526  -28.7435   20.0777 C   0  0  0  0  0  0
  -22.7776  -29.4309   22.4712 C   0  0  0  0  0  0
  -18.0319  -28.1386   22.8445 C   0  0  0  0  0  0
  -24.1592  -36.7130   23.2654 C   0  0  0  0  0  0
  -26.0906  -30.4240   21.3953 C   0  0  0  0  0  0
  -26.0695  -28.9959   20.7242 C   0  0  0  0  0  0
  -27.0701  -27.8884   20.7181 C   0  0  0  0  0  0
  -25.6311  -26.5335   19.3678 C   0  0  0  0  0  0
  -24.6798  -27.5636   19.3797 C   0  0  0  0  0  0
  -23.7126  -29.7598   20.1300 C   0  0  0  0  0  0
  -25.4223  -36.2769   24.0240 C   0  0  1  0  0  0
  -20.5978  -28.3745   23.1084 C   0  0  2  0  0  0
  -20.6813  -26.9380   22.5309 C   0  0  0  0  0  0
  -19.5717  -26.6383   21.5193 C   0  0  0  0  0  0
  -18.1960  -26.7916   22.1671 C   0  0  0  0  0  0
  -19.1570  -28.8888   23.2814 C   0  0  0  0  0  0
  -18.9486  -30.1533   23.8811 C   0  0  0  0  0  0
  -17.6460  -30.6579   24.0567 C   0  0  0  0  0  0
  -25.9168  -34.9230   23.4802 C   0  0  0  0  0  0
  -16.5370  -29.9048   23.6338 C   0  0  0  0  0  0
  -16.7326  -28.6483   23.0347 C   0  0  0  0  0  0
  -26.4638  -31.6323   25.0511 C   0  0  0  0  0  0
  -25.3671  -31.3704   26.1093 C   0  0  0  0  0  0
  -27.0597  -30.2689   24.6348 C   0  0  0  0  0  0
  -27.6125  -32.4188   25.7372 C   0  0  0  0  0  0
  -27.5596  -37.1701   24.8459 C   0  0  0  0  0  0
  -21.4388  -29.3062   22.3423 N   0  0  0  0  0  0
  -26.4300  -37.3541   23.9400 N   0  0  0  0  0  0
  -24.8052  -30.9208   22.0647 N   0  0  0  0  0  0
  -23.4240  -28.7691   23.2965 O   0  0  0  0  0  0
  -27.5373  -25.1676   19.9643 O   0  0  0  0  0  0
  -26.5800  -34.8824   22.4416 O   0  0  0  0  0  0
  -23.6126  -32.1063   23.6248 O   0  0  0  0  0  0
  -26.4649  -18.1471   16.4116 C   0  0  0  0  0  0
  -26.1887  -19.5054   16.2942 C   0  0  0  0  0  0
  -26.8568  -17.6517   17.6683 C   0  0  0  0  0  0
  -26.8101  -20.1262   18.5295 C   0  0  0  0  0  0
  -26.9353  -22.7659   18.4895 C   0  0  0  0  0  0
  -28.7688  -14.2721   16.3198 C   0  0  0  0  0  0
  -27.3189  -13.3473   17.4041 C   0  0  0  0  0  0
  -27.2014  -21.6789   19.4827 C   0  0  1  0  0  0
  -27.2911  -14.8429   16.7577 C   0  0  0  0  0  0
  -26.8259  -23.5251   19.7587 C   0  0  1  0  0  0
  -25.5182  -20.1857   15.1053 C   0  0  0  0  0  0
  -26.3935  -20.3990   17.3099 N   0  0  0  0  0  0
  -27.0640  -18.6908   18.7111 N   0  0  0  0  0  0
  -28.8913  -13.3362   17.5321 N   0  0  0  0  0  0
  -27.0055  -16.1550   17.6980 N   0  0  0  0  0  0
  -30.5526  -14.4888   21.1416 H   0  0  0  0  0  0
  -31.2182  -14.7771   19.6970 H   0  0  0  0  0  0
  -29.4129  -15.2956   18.3786 H   0  0  0  0  0  0
  -29.1899  -16.0979   19.7626 H   0  0  0  0  0  0
  -27.2528  -15.0720   19.8827 H   0  0  0  0  0  0
  -28.1751  -14.8548   20.9766 H   0  0  0  0  0  0
  -27.6354  -12.7513   21.6723 H   0  0  0  0  0  0
  -29.1819  -12.1862   21.3195 H   0  0  0  0  0  0
  -28.6104  -10.9943   20.1493 H   0  0  0  0  0  0
  -25.2615   -9.5318   22.5256 H   0  0  0  0  0  0
  -23.9989   -7.4237   22.7317 H   0  0  0  0  0  0
  -21.1052   -8.8612   19.8782 H   0  0  0  0  0  0
  -22.4543  -10.8878   19.5173 H   0  0  0  0  0  0
  -21.1839   -7.5948   23.9940 H   0  0  0  0  0  0
  -21.2228   -6.0380   25.9371 H   0  0  0  0  0  0
  -22.0123   -2.7317   23.3064 H   0  0  0  0  0  0
  -22.3503  -11.8530   22.4477 H   0  0  0  0  0  0
  -21.1523  -13.1628   22.5090 H   0  0  0  0  0  0
  -24.4293  -15.7543   20.3226 H   0  0  0  0  0  0
  -26.0627  -15.6542   20.7513 H   0  0  0  0  0  0
  -26.7646  -32.4691   23.0506 H   0  0  0  0  0  0
  -25.0224  -33.9086   24.9893 H   0  0  0  0  0  0
  -22.8420  -31.2774   21.3469 H   0  0  0  0  0  0
  -23.3763  -35.9528   23.3153 H   0  0  0  0  0  0
  -24.3652  -36.8963   22.2081 H   0  0  0  0  0  0
  -23.7395  -37.6309   23.6816 H   0  0  0  0  0  0
  -26.3357  -31.1395   20.6092 H   0  0  0  0  0  0
  -26.9349  -30.4419   22.0528 H   0  0  0  0  0  0
  -27.9769  -28.0232   21.2616 H   0  0  0  0  0  0
  -25.3789  -25.6531   18.8003 H   0  0  0  0  0  0
  -23.7606  -27.3784   18.8632 H   0  0  0  0  0  0
  -23.9169  -30.5222   19.3835 H   0  0  0  0  0  0
  -22.7890  -29.2743   19.8069 H   0  0  0  0  0  0
  -25.1415  -36.1443   25.0708 H   0  0  0  0  0  0
  -21.0165  -28.3438   24.1225 H   0  0  0  0  0  0
  -20.5739  -26.2402   23.3643 H   0  0  0  0  0  0
  -21.6660  -26.7397   22.1070 H   0  0  0  0  0  0
  -19.6870  -25.6319   21.1233 H   0  0  0  0  0  0
  -19.6615  -27.3218   20.6739 H   0  0  0  0  0  0
  -17.4220  -26.6693   21.4145 H   0  0  0  0  0  0
  -18.0368  -26.0123   22.9105 H   0  0  0  0  0  0
  -19.7957  -30.7399   24.2189 H   0  0  0  0  0  0
  -17.4958  -31.6215   24.5163 H   0  0  0  0  0  0
  -15.5332  -30.2873   23.7652 H   0  0  0  0  0  0
  -15.8802  -28.0757   22.7045 H   0  0  0  0  0  0
  -24.5781  -30.7142   25.7227 H   0  0  0  0  0  0
  -24.8981  -32.3039   26.4332 H   0  0  0  0  0  0
  -25.7831  -30.8850   26.9918 H   0  0  0  0  0  0
  -26.3333  -29.6432   24.1117 H   0  0  0  0  0  0
  -27.3815  -29.6925   25.4987 H   0  0  0  0  0  0
  -27.9381  -30.3874   24.0011 H   0  0  0  0  0  0
  -27.2562  -33.3494   26.1811 H   0  0  0  0  0  0
  -28.4004  -32.6714   25.0250 H   0  0  0  0  0  0
  -28.0639  -31.8347   26.5375 H   0  0  0  0  0  0
  -28.2484  -38.0095   24.7493 H   0  0  0  0  0  0
  -28.1191  -36.2605   24.6271 H   0  0  0  0  0  0
  -27.2304  -37.1319   25.8848 H   0  0  0  0  0  0
  -20.9676  -29.8891   21.6618 H   0  0  0  0  0  0
  -26.0078  -38.2592   24.1312 H   0  0  0  0  0  0
  -26.3124  -17.4651   15.5703 H   0  0  0  0  0  0
  -25.9486  -22.6898   18.0235 H   0  0  0  0  0  0
  -27.7720  -22.8290   17.7948 H   0  0  0  0  0  0
  -29.5926  -14.9589   16.2647 H   0  0  0  0  0  0
  -28.7874  -13.6990   15.3709 H   0  0  0  0  0  0
  -27.0307  -12.5836   16.6766 H   0  0  0  0  0  0
  -26.6970  -13.1618   18.2580 H   0  0  0  0  0  0
  -28.1977  -21.4768   19.8971 H   0  0  0  0  0  0
  -26.5222  -14.7858   15.9692 H   0  0  0  0  0  0
  -25.8014  -23.6458   20.0754 H   0  0  0  0  0  0
  -25.9694  -19.9323   14.1513 H   0  0  0  0  0  0
  -25.4722  -21.2442   15.2790 H   0  0  0  0  0  0
  -24.5038  -19.7371   15.0570 H   0  0  0  0  0  0
  -26.0218  -15.9241   17.8005 H   0  0  0  0  0  0
  1 25  1  0  0  0
  1 30  2  0  0  0
  1 84  1  0  0  0
  2  3  1  0  0  0
  2 25  1  0  0  0
  2 86  1  0  0  0
  2 87  1  0  0  0
  3  4  1  0  0  0
  3 88  1  0  0  0
  3 89  1  0  0  0
  4  5  1  0  0  0
  4 90  1  0  0  0
  4 91  1  0  0  0
  5  6  1  0  0  0
  5 26  1  0  0  0
  5 92  1  0  0  0
  6 25  1  0  0  0
  6 93  1  0  0  0
  6 94  1  0  0  0
  7  8  2  0  0  0
  7 26  1  0  0  0
  7 29  1  0  0  0
  8  9  1  0  0  0
  8 22  1  0  0  0
  9 10  1  0  0  0
  9 27  2  0  0  0
 10 11  2  0  0  0
 10 15  1  0  0  0
 11 12  1  0  0  0
 11 95  1  0  0  0
 12 13  2  0  0  0
 12 96  1  0  0  0
 13 14  1  0  0  0
 13 31  1  0  0  0
 14 15  2  0  0  0
 14 97  1  0  0  0
 15 98  1  0  0  0
 16 17  2  0  0  0
 16 21  1  0  0  0
 16 31  1  0  0  0
 17 18  1  0  0  0
 17 99  1  0  0  0
 18 19  2  0  0  0
 18100  1  0  0  0
 19 20  1  0  0  0
 19 24  1  0  0  0
 20 21  2  0  0  0
 20101  1  0  0  0
 21 23  1  0  0  0
 22 28  1  0  0  0
 22 32  2  0  0  0
 26 27  1  0  0  0
 28102  1  0  0  0
 28103  1  0  0  0
 29104  1  0  0  0
 29105  1  0  0  0
 33 34  1  0  0  0
 33 66  1  0  0  0
 33 70  2  0  0  0
 34 36  1  0  0  0
 34 59  1  0  0  0
 34106  1  0  0  0
 35 44  2  0  0  0
 35 45  1  0  0  0
 35 68  1  0  0  0
 36 56  1  0  0  0
 36107  1  0  0  0
 37 39  1  0  0  0
 37 47  1  0  0  0
 37 66  1  0  0  0
 37108  1  0  0  0
 38 43  2  0  0  0
 38 46  1  0  0  0
 38 47  1  0  0  0
 39 64  1  0  0  0
 39 67  2  0  0  0
 40 52  1  0  0  0
 40 53  2  0  0  0
 40 58  1  0  0  0
 41109  1  0  0  0
 41110  1  0  0  0
 41111  1  0  0  0
 41 48  1  0  0  0
 42 43  1  0  0  0
 42 66  1  0  0  0
 42112  1  0  0  0
 42113  1  0  0  0
 43 44  1  0  0  0
 44114  1  0  0  0
 45 46  2  0  0  0
 45115  1  0  0  0
 46116  1  0  0  0
 47117  1  0  0  0
 47118  1  0  0  0
 48 56  1  0  0  0
 48 65  1  0  0  0
 48119  1  0  0  0
 49 50  1  0  0  0
 49 53  1  0  0  0
 49 64  1  0  0  0
 49120  1  0  0  0
 50 51  1  0  0  0
 50121  1  0  0  0
 50122  1  0  0  0
 51 52  1  0  0  0
 51123  1  0  0  0
 51124  1  0  0  0
 52125  1  0  0  0
 52126  1  0  0  0
 53 54  1  0  0  0
 54 55  2  0  0  0
 54127  1  0  0  0
 55 57  1  0  0  0
 55128  1  0  0  0
 56 69  2  0  0  0
 57 58  2  0  0  0
 57129  1  0  0  0
 58130  1  0  0  0
 59 60  1  0  0  0
 59 61  1  0  0  0
 59 62  1  0  0  0
 60131  1  0  0  0
 60132  1  0  0  0
 60133  1  0  0  0
 61134  1  0  0  0
 61135  1  0  0  0
 61136  1  0  0  0
 62137  1  0  0  0
 62138  1  0  0  0
 62139  1  0  0  0
 63 65  1  0  0  0
 63140  1  0  0  0
 63141  1  0  0  0
 63142  1  0  0  0
 64143  1  0  0  0
 65144  1  0  0  0
 68 80  1  0  0  0
 71 72  2  0  0  0
 71 73  1  0  0  0
 71145  1  0  0  0
 72 81  1  0  0  0
 72 82  1  0  0  0
 73 83  2  0  0  0
 73 85  1  0  0  0
 74 82  2  0  0  0
 74 83  1  0  0  0
 74 78  1  0  0  0
 75 78  1  0  0  0
 75 80  1  0  0  0
 75146  1  0  0  0
 75147  1  0  0  0
 76 79  1  0  0  0
 76 84  1  0  0  0
 76148  1  0  0  0
 76149  1  0  0  0
 77 79  1  0  0  0
 77 84  1  0  0  0
 77150  1  0  0  0
 77151  1  0  0  0
 78 80  1  0  0  0
 78152  1  0  0  0
 79 85  1  0  0  0
 79153  1  0  0  0
 80154  1  0  0  0
 81155  1  0  0  0
 81156  1  0  0  0
 81157  1  0  0  0
 85158  1  0  0  0
M  ISO  4   1 100  68 101  80 101  84 100
M  END
> <chiral flag>
0

> <version>
0

> <s_m_source_file>
/data/baiqing/PycharmProjects/Reinvent-master-3.2/result/LINK_invent/BTK/process_docking_weight1_custom_sum_contain_oxygen_bond_distance_aromatic_linkinvent_7_9_3/rearranged_h_0190.sdf

> <i_m_source_file_index>
17

> <r_mmod_Potential_Energy-OPLS-2005>
6064.0654296875

> <r_mmod_Stretch_Energy-OPLS-2005>
1060.63293457031

> <r_mmod_Bend_Energy-OPLS-2005>
1110.90551757812

> <r_mmod_Torsional_Energy-OPLS-2005>
397.446685791016

> <r_mmod_Improper_Torsional_Energy-OPLS-2005>
37.1965827941895

> <r_mmod_Van_der_Waal_Energy-OPLS-2005>
525.282836914062

> <r_mmod_Electrostatic_Energy-OPLS-2005>
-834.454711914062

> <r_mmod_Solvation_Energy-OPLS-2005>
-252.27165222168

> <b_mmod_Minimization_Converged-OPLS-2005>
0

> <r_mmod_RMS_Derivative-OPLS-2005>
99.9990005493164

$$$$
17
                    3D
 Structure written by MMmdl.
150159  0  0  1  0            999 V2000
  -30.5168  -15.1155   20.4086 C   0  0  0  0  0  0
  -30.4349  -12.7121   19.5055 C   0  0  0  0  0  0
  -29.5220  -12.5574   18.2665 C   0  0  0  0  0  0
  -28.0657  -12.3021   18.6939 C   0  0  0  0  0  0
  -27.6170  -13.2545   19.8304 C   0  0  2  0  0  0
  -28.6614  -13.3535   20.9629 C   0  0  0  0  0  0
  -25.2388  -13.8187   20.5730 C   0  0  0  0  0  0
  -24.1732  -13.0397   20.9251 C   0  0  0  0  0  0
  -24.6380  -11.6897   20.8769 C   0  0  0  0  0  0
  -23.9075  -10.4269   21.0411 C   0  0  0  0  0  0
  -24.3626   -9.4188   21.9186 C   0  0  0  0  0  0
  -23.6292   -8.2228   22.0758 C   0  0  0  0  0  0
  -22.4274   -8.0274   21.3546 C   0  0  0  0  0  0
  -21.9917   -9.0246   20.4644 C   0  0  0  0  0  0
  -22.7251  -10.2118   20.3052 C   0  0  0  0  0  0
  -21.6850   -6.0733   22.5282 C   0  0  0  0  0  0
  -21.4014   -6.5641   23.8216 C   0  0  0  0  0  0
  -21.3654   -5.6795   24.9179 C   0  0  0  0  0  0
  -21.6044   -4.3058   24.7225 C   0  0  0  0  0  0
  -21.8818   -3.8145   23.4346 C   0  0  0  0  0  0
  -21.9194   -4.6961   22.3403 C   0  0  0  0  0  0
  -22.7758  -13.5171   21.1891 C   0  0  0  0  0  0
  -22.1666   -4.2147   21.0979 F   0  0  0  0  0  0
  -21.5624   -3.4539   25.7735 F   0  0  0  0  0  0
  -29.9035  -13.8428   20.3420 N   0  0  0  0  0  0
  -26.2827  -12.9442   20.3246 N   0  0  0  0  0  0
  -25.9314  -11.6568   20.5748 N   0  0  0  0  0  0
  -22.0414  -12.8157   22.0447 N   0  0  0  0  0  0
  -25.3959  -15.1913   20.4155 N   0  0  0  0  0  0
  -31.7341  -15.0931   20.1792 O   0  0  0  0  0  0
  -21.6630   -6.8876   21.4244 O   0  0  0  0  0  0
  -22.3437  -14.5473   20.6736 O   0  0  0  0  0  0
  -24.6525  -31.8351   23.1817 C   0  0  0  0  0  0
  -25.9259  -32.4648   23.8231 C   0  0  1  0  0  0
  -27.2116  -27.0359   20.1640 C   0  0  0  0  0  0
  -25.5980  -33.8458   24.2141 N   0  0  0  0  0  0
  -23.4608  -30.4530   21.5287 C   0  0  2  0  0  0
  -24.9127  -28.8667   20.1086 C   0  0  0  0  0  0
  -22.7614  -29.4498   22.4822 C   0  0  0  0  0  0
  -18.0315  -28.1407   22.8471 C   0  0  0  0  0  0
  -24.1495  -36.7230   23.2641 C   0  0  0  0  0  0
  -26.0247  -30.6759   21.3973 C   0  0  0  0  0  0
  -26.0937  -29.2781   20.7387 C   0  0  0  0  0  0
  -27.2416  -28.3808   20.7488 C   0  0  0  0  0  0
  -26.0046  -26.7593   19.4809 C   0  0  0  0  0  0
  -24.8878  -27.6246   19.4606 C   0  0  0  0  0  0
  -23.6936  -29.7803   20.1498 C   0  0  0  0  0  0
  -25.4133  -36.3002   24.0304 C   0  0  1  0  0  0
  -20.5930  -28.3738   23.1218 C   0  0  2  0  0  0
  -20.6796  -26.9431   22.5406 C   0  0  0  0  0  0
  -19.5771  -26.6381   21.5216 C   0  0  0  0  0  0
  -18.1950  -26.7945   22.1620 C   0  0  0  0  0  0
  -19.1572  -28.8894   23.2833 C   0  0  0  0  0  0
  -18.9485  -30.1489   23.8861 C   0  0  0  0  0  0
  -17.6478  -30.6597   24.0560 C   0  0  0  0  0  0
  -25.9090  -34.9382   23.5036 C   0  0  0  0  0  0
  -16.5370  -29.9085   23.6344 C   0  0  0  0  0  0
  -16.7296  -28.6506   23.0360 C   0  0  0  0  0  0
  -26.4549  -31.6549   25.0712 C   0  0  0  0  0  0
  -25.3705  -31.3777   26.1387 C   0  0  0  0  0  0
  -27.0422  -30.2927   24.6367 C   0  0  0  0  0  0
  -27.6061  -32.4332   25.7508 C   0  0  0  0  0  0
  -27.5578  -37.1772   24.8459 C   0  0  0  0  0  0
  -21.4293  -29.3048   22.3576 N   0  0  0  0  0  0
  -26.4283  -37.3730   23.9407 N   0  0  0  0  0  0
  -24.7328  -31.0119   22.0899 N   0  0  0  0  0  0
  -23.4217  -28.8047   23.3005 O   0  0  0  0  0  0
  -28.2156  -25.9669   20.2536 O   0  0  0  0  0  0
  -26.5673  -34.8892   22.4614 O   0  0  0  0  0  0
  -23.5622  -32.1272   23.6982 O   0  0  0  0  0  0
  -29.8417  -22.6505   21.0730 C   0  0  0  0  0  0
  -28.6685  -22.9685   20.3039 C   0  0  0  0  0  0
  -28.1474  -18.2636   20.9904 C   0  0  0  0  0  0
  -28.4105  -16.7091   20.7797 C   0  0  0  0  0  0
  -30.3342  -17.9045   20.2925 C   0  0  0  0  0  0
  -29.1448  -19.0736   20.1424 C   0  0  2  0  0  0
  -27.8435  -24.4283   20.0193 C   0  0  0  0  0  0
  -30.1503  -21.3436   21.1199 N   0  0  0  0  0  0
  -28.2934  -21.7087   19.8918 N   0  0  0  0  0  0
  -29.2049  -20.6939   20.3747 N   0  0  0  0  0  0
  -29.8307  -16.4137   20.4766 N   0  0  0  0  0  0
  -31.4610  -12.8879   19.1792 H   0  0  0  0  0  0
  -30.4709  -11.7849   20.0795 H   0  0  0  0  0  0
  -29.8757  -11.7464   17.6290 H   0  0  0  0  0  0
  -29.5716  -13.4667   17.6646 H   0  0  0  0  0  0
  -28.0000  -11.2689   19.0371 H   0  0  0  0  0  0
  -27.3961  -12.3839   17.8371 H   0  0  0  0  0  0
  -27.5509  -14.2323   19.3572 H   0  0  0  0  0  0
  -28.8057  -12.3852   21.4445 H   0  0  0  0  0  0
  -28.3282  -14.0262   21.7511 H   0  0  0  0  0  0
  -25.2773   -9.5665   22.4760 H   0  0  0  0  0  0
  -23.9999   -7.4618   22.7481 H   0  0  0  0  0  0
  -21.0852   -8.8766   19.8944 H   0  0  0  0  0  0
  -22.3716  -10.9659   19.6160 H   0  0  0  0  0  0
  -21.2011   -7.6151   23.9715 H   0  0  0  0  0  0
  -21.1477   -6.0527   25.9081 H   0  0  0  0  0  0
  -22.0602   -2.7607   23.2843 H   0  0  0  0  0  0
  -22.4056  -11.9834   22.4845 H   0  0  0  0  0  0
  -21.1023  -13.1156   22.2647 H   0  0  0  0  0  0
  -24.6214  -15.8364   20.5281 H   0  0  0  0  0  0
  -26.2386  -15.6380   20.0808 H   0  0  0  0  0  0
  -26.7324  -32.5222   23.0947 H   0  0  0  0  0  0
  -25.0118  -33.9555   25.0285 H   0  0  0  0  0  0
  -22.7674  -31.2814   21.3691 H   0  0  0  0  0  0
  -23.3774  -35.9544   23.3269 H   0  0  0  0  0  0
  -24.3578  -36.8906   22.2063 H   0  0  0  0  0  0
  -23.7232  -37.6402   23.6713 H   0  0  0  0  0  0
  -26.1946  -31.4245   20.6225 H   0  0  0  0  0  0
  -26.8894  -30.7274   22.0470 H   0  0  0  0  0  0
  -28.1336  -28.6890   21.2761 H   0  0  0  0  0  0
  -25.8764  -25.8156   18.9738 H   0  0  0  0  0  0
  -23.9898  -27.3074   18.9482 H   0  0  0  0  0  0
  -23.8382  -30.5535   19.3942 H   0  0  0  0  0  0
  -22.8056  -29.2284   19.8363 H   0  0  0  0  0  0
  -25.1329  -36.1812   25.0796 H   0  0  0  0  0  0
  -21.0021  -28.3343   24.1340 H   0  0  0  0  0  0
  -20.5691  -26.2351   23.3634 H   0  0  0  0  0  0
  -21.6661  -26.7426   22.1206 H   0  0  0  0  0  0
  -19.6927  -25.6283   21.1267 H   0  0  0  0  0  0
  -19.6712  -27.3174   20.6736 H   0  0  0  0  0  0
  -17.4221  -26.6696   21.4020 H   0  0  0  0  0  0
  -18.0335  -26.0094   22.9022 H   0  0  0  0  0  0
  -19.7960  -30.7320   24.2205 H   0  0  0  0  0  0
  -17.5031  -31.6273   24.5169 H   0  0  0  0  0  0
  -15.5369  -30.2975   23.7690 H   0  0  0  0  0  0
  -15.8696  -28.0813   22.7095 H   0  0  0  0  0  0
  -24.5895  -30.7112   25.7708 H   0  0  0  0  0  0
  -24.8880  -32.2971   26.4712 H   0  0  0  0  0  0
  -25.7962  -30.9014   27.0227 H   0  0  0  0  0  0
  -26.3065  -29.6633   24.1348 H   0  0  0  0  0  0
  -27.3966  -29.7256   25.4983 H   0  0  0  0  0  0
  -27.9007  -30.4131   23.9756 H   0  0  0  0  0  0
  -27.2649  -33.3673   26.1981 H   0  0  0  0  0  0
  -28.3931  -32.6819   25.0378 H   0  0  0  0  0  0
  -28.0658  -31.8518   26.5507 H   0  0  0  0  0  0
  -28.2565  -38.0098   24.7531 H   0  0  0  0  0  0
  -28.1105  -36.2625   24.6260 H   0  0  0  0  0  0
  -27.2293  -37.1388   25.8858 H   0  0  0  0  0  0
  -20.9520  -29.8760   21.6743 H   0  0  0  0  0  0
  -26.0138  -38.2787   24.1433 H   0  0  0  0  0  0
  -30.4554  -23.3612   21.6104 H   0  0  0  0  0  0
  -28.3014  -18.5153   22.0409 H   0  0  0  0  0  0
  -27.1164  -18.5313   20.7560 H   0  0  0  0  0  0
  -27.8296  -16.3765   19.9229 H   0  0  0  0  0  0
  -28.0658  -16.1616   21.6550 H   0  0  0  0  0  0
  -30.9471  -18.1436   21.1619 H   0  0  0  0  0  0
  -31.0045  -17.9515   19.4343 H   0  0  0  0  0  0
  -28.8020  -18.9805   19.1113 H   0  0  0  0  0  0
  -26.8895  -24.3178   20.5370 H   0  0  0  0  0  0
  -27.5760  -24.3944   18.9635 H   0  0  0  0  0  0
  1 25  1  0  0  0
  1 30  2  0  0  0
  1 81  1  0  0  0
  2  3  1  0  0  0
  2 25  1  0  0  0
  2 82  1  0  0  0
  2 83  1  0  0  0
  3  4  1  0  0  0
  3 84  1  0  0  0
  3 85  1  0  0  0
  4  5  1  0  0  0
  4 86  1  0  0  0
  4 87  1  0  0  0
  5  6  1  0  0  0
  5 26  1  0  0  0
  5 88  1  0  0  0
  6 25  1  0  0  0
  6 89  1  0  0  0
  6 90  1  0  0  0
  7  8  2  0  0  0
  7 26  1  0  0  0
  7 29  1  0  0  0
  8  9  1  0  0  0
  8 22  1  0  0  0
  9 10  1  0  0  0
  9 27  2  0  0  0
 10 11  2  0  0  0
 10 15  1  0  0  0
 11 12  1  0  0  0
 11 91  1  0  0  0
 12 13  2  0  0  0
 12 92  1  0  0  0
 13 14  1  0  0  0
 13 31  1  0  0  0
 14 15  2  0  0  0
 14 93  1  0  0  0
 15 94  1  0  0  0
 16 17  2  0  0  0
 16 21  1  0  0  0
 16 31  1  0  0  0
 17 18  1  0  0  0
 17 95  1  0  0  0
 18 19  2  0  0  0
 18 96  1  0  0  0
 19 20  1  0  0  0
 19 24  1  0  0  0
 20 21  2  0  0  0
 20 97  1  0  0  0
 21 23  1  0  0  0
 22 28  1  0  0  0
 22 32  2  0  0  0
 26 27  1  0  0  0
 28 98  1  0  0  0
 28 99  1  0  0  0
 29100  1  0  0  0
 29101  1  0  0  0
 33 34  1  0  0  0
 33 66  1  0  0  0
 33 70  2  0  0  0
 34 36  1  0  0  0
 34 59  1  0  0  0
 34102  1  0  0  0
 35 44  2  0  0  0
 35 45  1  0  0  0
 35 68  1  0  0  0
 36 56  1  0  0  0
 36103  1  0  0  0
 37 39  1  0  0  0
 37 47  1  0  0  0
 37 66  1  0  0  0
 37104  1  0  0  0
 38 43  2  0  0  0
 38 46  1  0  0  0
 38 47  1  0  0  0
 39 64  1  0  0  0
 39 67  2  0  0  0
 40 52  1  0  0  0
 40 53  2  0  0  0
 40 58  1  0  0  0
 41105  1  0  0  0
 41106  1  0  0  0
 41107  1  0  0  0
 41 48  1  0  0  0
 42 43  1  0  0  0
 42 66  1  0  0  0
 42108  1  0  0  0
 42109  1  0  0  0
 43 44  1  0  0  0
 44110  1  0  0  0
 45 46  2  0  0  0
 45111  1  0  0  0
 46112  1  0  0  0
 47113  1  0  0  0
 47114  1  0  0  0
 48 56  1  0  0  0
 48 65  1  0  0  0
 48115  1  0  0  0
 49 50  1  0  0  0
 49 53  1  0  0  0
 49 64  1  0  0  0
 49116  1  0  0  0
 50 51  1  0  0  0
 50117  1  0  0  0
 50118  1  0  0  0
 51 52  1  0  0  0
 51119  1  0  0  0
 51120  1  0  0  0
 52121  1  0  0  0
 52122  1  0  0  0
 53 54  1  0  0  0
 54 55  2  0  0  0
 54123  1  0  0  0
 55 57  1  0  0  0
 55124  1  0  0  0
 56 69  2  0  0  0
 57 58  2  0  0  0
 57125  1  0  0  0
 58126  1  0  0  0
 59 60  1  0  0  0
 59 61  1  0  0  0
 59 62  1  0  0  0
 60127  1  0  0  0
 60128  1  0  0  0
 60129  1  0  0  0
 61130  1  0  0  0
 61131  1  0  0  0
 61132  1  0  0  0
 62133  1  0  0  0
 62134  1  0  0  0
 62135  1  0  0  0
 63 65  1  0  0  0
 63136  1  0  0  0
 63137  1  0  0  0
 63138  1  0  0  0
 64139  1  0  0  0
 65140  1  0  0  0
 68 77  1  0  0  0
 71 72  1  0  0  0
 71 78  2  0  0  0
 71141  1  0  0  0
 72 77  1  0  0  0
 72 79  2  0  0  0
 73 74  1  0  0  0
 73 76  1  0  0  0
 73142  1  0  0  0
 73143  1  0  0  0
 74 81  1  0  0  0
 74144  1  0  0  0
 74145  1  0  0  0
 75 76  1  0  0  0
 75 81  1  0  0  0
 75146  1  0  0  0
 75147  1  0  0  0
 76 80  1  0  0  0
 76148  1  0  0  0
 77149  1  0  0  0
 77150  1  0  0  0
 78 80  1  0  0  0
 79 80  1  0  0  0
M  ISO  4   1 100  68 101  77 101  81 100
M  END
> <chiral flag>
0

> <version>
0

> <s_m_source_file>
/data/baiqing/PycharmProjects/Reinvent-master-3.2/result/LINK_invent/BTK/process_docking_weight1_custom_sum_contain_oxygen_bond_distance_aromatic_linkinvent_7_9_3/rearranged_h_0190.sdf

> <i_m_source_file_index>
18

> <r_mmod_Potential_Energy-OPLS-2005>
1001.74975585938

> <r_mmod_Stretch_Energy-OPLS-2005>
361.158721923828

> <r_mmod_Bend_Energy-OPLS-2005>
377.40625

> <r_mmod_Torsional_Energy-OPLS-2005>
321.664703369141

> <r_mmod_Improper_Torsional_Energy-OPLS-2005>
5.50104475021362

> <r_mmod_Van_der_Waal_Energy-OPLS-2005>
106.940872192383

> <r_mmod_Electrostatic_Energy-OPLS-2005>
-257.77734375

> <r_mmod_Solvation_Energy-OPLS-2005>
-224.847396850586

> <b_mmod_Minimization_Converged-OPLS-2005>
0

> <r_mmod_RMS_Derivative-OPLS-2005>
1.01575231552124

$$$$
18
                    3D
 Structure written by MMmdl.
159168  0  0  1  0            999 V2000
  -30.6899  -14.6340   20.4721 C   0  0  0  0  0  0
  -30.4174  -12.3880   19.4581 C   0  0  0  0  0  0
  -29.5008  -12.4921   18.2226 C   0  0  0  0  0  0
  -28.0252  -12.3408   18.6383 C   0  0  0  0  0  0
  -27.6450  -13.2321   19.8521 C   0  0  2  0  0  0
  -28.6926  -13.1497   20.9836 C   0  0  0  0  0  0
  -25.2533  -13.8208   20.5715 C   0  0  0  0  0  0
  -24.1812  -13.0448   20.9195 C   0  0  0  0  0  0
  -24.6399  -11.6925   20.8735 C   0  0  0  0  0  0
  -23.9074  -10.4299   21.0397 C   0  0  0  0  0  0
  -24.3622   -9.4213   21.9174 C   0  0  0  0  0  0
  -23.6298   -8.2248   22.0747 C   0  0  0  0  0  0
  -22.4279   -8.0285   21.3542 C   0  0  0  0  0  0
  -21.9914   -9.0261   20.4646 C   0  0  0  0  0  0
  -22.7243  -10.2140   20.3051 C   0  0  0  0  0  0
  -21.6859   -6.0736   22.5276 C   0  0  0  0  0  0
  -21.4020   -6.5634   23.8212 C   0  0  0  0  0  0
  -21.3660   -5.6787   24.9174 C   0  0  0  0  0  0
  -21.6044   -4.3051   24.7222 C   0  0  0  0  0  0
  -21.8819   -3.8146   23.4342 C   0  0  0  0  0  0
  -21.9195   -4.6963   22.3399 C   0  0  0  0  0  0
  -22.7834  -13.5228   21.1855 C   0  0  0  0  0  0
  -22.1664   -4.2150   21.0976 F   0  0  0  0  0  0
  -21.5626   -3.4533   25.7735 F   0  0  0  0  0  0
  -30.0019  -13.4518   20.3945 N   0  0  0  0  0  0
  -26.2967  -12.9418   20.3313 N   0  0  0  0  0  0
  -25.9337  -11.6556   20.5761 N   0  0  0  0  0  0
  -22.0479  -12.8224   22.0415 N   0  0  0  0  0  0
  -25.4248  -15.1932   20.4166 N   0  0  0  0  0  0
  -31.8878  -14.6790   20.1753 O   0  0  0  0  0  0
  -21.6641   -6.8884   21.4240 O   0  0  0  0  0  0
  -22.3515  -14.5529   20.6697 O   0  0  0  0  0  0
  -24.6277  -31.8616   23.2064 C   0  0  0  0  0  0
  -25.9128  -32.4783   23.8380 C   0  0  1  0  0  0
  -27.2090  -27.3121   20.1072 C   0  0  0  0  0  0
  -25.5944  -33.8587   24.2297 N   0  0  0  0  0  0
  -23.4199  -30.4908   21.5495 C   0  0  2  0  0  0
  -24.8626  -28.9557   20.1093 C   0  0  0  0  0  0
  -22.7485  -29.4640   22.4933 C   0  0  0  0  0  0
  -18.0290  -28.1389   22.8484 C   0  0  0  0  0  0
  -24.1489  -36.7291   23.2632 C   0  0  0  0  0  0
  -25.9655  -30.7892   21.3823 C   0  0  0  0  0  0
  -26.0358  -29.4202   20.7171 C   0  0  0  0  0  0
  -27.2130  -28.6104   20.7092 C   0  0  0  0  0  0
  -26.0088  -26.9172   19.4640 C   0  0  0  0  0  0
  -24.8517  -27.7094   19.4748 C   0  0  0  0  0  0
  -23.6337  -29.8372   20.1617 C   0  0  0  0  0  0
  -25.4111  -36.3083   24.0327 C   0  0  1  0  0  0
  -20.5893  -28.3694   23.1276 C   0  0  2  0  0  0
  -20.6780  -26.9414   22.5408 C   0  0  0  0  0  0
  -19.5754  -26.6385   21.5211 C   0  0  0  0  0  0
  -18.1934  -26.7932   22.1623 C   0  0  0  0  0  0
  -19.1545  -28.8859   23.2874 C   0  0  0  0  0  0
  -18.9465  -30.1463   23.8887 C   0  0  0  0  0  0
  -17.6464  -30.6587   24.0565 C   0  0  0  0  0  0
  -25.9056  -34.9454   23.5107 C   0  0  0  0  0  0
  -16.5355  -29.9086   23.6332 C   0  0  0  0  0  0
  -16.7278  -28.6506   23.0345 C   0  0  0  0  0  0
  -26.4501  -31.6595   25.0754 C   0  0  0  0  0  0
  -25.3728  -31.3758   26.1481 C   0  0  0  0  0  0
  -27.0336  -30.3004   24.6238 C   0  0  0  0  0  0
  -27.6063  -32.4332   25.7517 C   0  0  0  0  0  0
  -27.5591  -37.1783   24.8448 C   0  0  0  0  0  0
  -21.4199  -29.3049   22.3671 N   0  0  0  0  0  0
  -26.4282  -37.3785   23.9423 N   0  0  0  0  0  0
  -24.6898  -31.0634   22.1018 N   0  0  0  0  0  0
  -23.4213  -28.8161   23.2994 O   0  0  0  0  0  0
  -28.2995  -26.4226   20.1723 O   0  0  0  0  0  0
  -26.5616  -34.8918   22.4669 O   0  0  0  0  0  0
  -23.5438  -32.1417   23.7389 O   0  0  0  0  0  0
  -31.0439  -23.0571   20.5673 C   0  0  0  0  0  0
  -28.9712  -23.8188   20.2819 C   0  0  0  0  0  0
  -29.3840  -21.5864   20.4635 C   0  0  0  0  0  0
  -29.0445  -17.9491   19.4194 C   0  0  0  0  0  0
  -29.6972  -18.1530   21.7486 C   0  0  0  0  0  0
  -29.8040  -16.5809   19.3284 C   0  0  0  0  0  0
  -30.4481  -16.7733   21.6502 C   0  0  0  0  0  0
  -29.6613  -18.9568   20.4225 C   0  0  0  0  0  0
  -32.5259  -23.3312   20.7114 C   0  0  0  0  0  0
  -27.9658  -24.9841   19.9797 C   0  0  0  0  0  0
  -30.2590  -24.1228   20.4146 N   0  0  0  0  0  0
  -30.6841  -21.7731   20.5937 N   0  0  0  0  0  0
  -28.4761  -22.5566   20.3074 N   0  0  0  0  0  0
  -29.9897  -15.8215   20.5978 N   0  0  0  0  0  0
  -28.9138  -20.2560   20.4897 N   0  0  0  0  0  0
  -31.4634  -12.4729   19.1587 H   0  0  0  0  0  0
  -30.3209  -11.4090   19.9299 H   0  0  0  0  0  0
  -29.7635  -11.7265   17.4912 H   0  0  0  0  0  0
  -29.6506  -13.4531   17.7277 H   0  0  0  0  0  0
  -27.8641  -11.2913   18.8872 H   0  0  0  0  0  0
  -27.3704  -12.5559   17.7925 H   0  0  0  0  0  0
  -27.6458  -14.2585   19.4850 H   0  0  0  0  0  0
  -28.7006  -12.1586   21.4390 H   0  0  0  0  0  0
  -28.4530  -13.8566   21.7796 H   0  0  0  0  0  0
  -25.2771   -9.5691   22.4742 H   0  0  0  0  0  0
  -24.0012   -7.4639   22.7464 H   0  0  0  0  0  0
  -21.0845   -8.8783   19.8956 H   0  0  0  0  0  0
  -22.3702  -10.9677   19.6159 H   0  0  0  0  0  0
  -21.2016   -7.6140   23.9715 H   0  0  0  0  0  0
  -21.1481   -6.0515   25.9077 H   0  0  0  0  0  0
  -22.0596   -2.7610   23.2836 H   0  0  0  0  0  0
  -22.4102  -11.9897   22.4820 H   0  0  0  0  0  0
  -21.1094  -13.1253   22.2609 H   0  0  0  0  0  0
  -24.6647  -15.8532   20.5399 H   0  0  0  0  0  0
  -26.2921  -15.6340   20.1367 H   0  0  0  0  0  0
  -26.7195  -32.5443   23.1124 H   0  0  0  0  0  0
  -25.0097  -33.9736   25.0444 H   0  0  0  0  0  0
  -22.7132  -31.3122   21.4127 H   0  0  0  0  0  0
  -23.3761  -35.9610   23.3268 H   0  0  0  0  0  0
  -24.3593  -36.8940   22.2053 H   0  0  0  0  0  0
  -23.7226  -37.6479   23.6670 H   0  0  0  0  0  0
  -26.1071  -31.5572   20.6207 H   0  0  0  0  0  0
  -26.8424  -30.8277   22.0170 H   0  0  0  0  0  0
  -28.1087  -28.9596   21.2034 H   0  0  0  0  0  0
  -25.9097  -25.9741   18.9503 H   0  0  0  0  0  0
  -23.9538  -27.3501   18.9911 H   0  0  0  0  0  0
  -23.7561  -30.6188   19.4107 H   0  0  0  0  0  0
  -22.7519  -29.2717   19.8548 H   0  0  0  0  0  0
  -25.1281  -36.1929   25.0817 H   0  0  0  0  0  0
  -20.9990  -28.3270   24.1395 H   0  0  0  0  0  0
  -20.5685  -26.2302   23.3609 H   0  0  0  0  0  0
  -21.6648  -26.7446   22.1198 H   0  0  0  0  0  0
  -19.6913  -25.6296   21.1243 H   0  0  0  0  0  0
  -19.6690  -27.3192   20.6737 H   0  0  0  0  0  0
  -17.4204  -26.6683   21.4024 H   0  0  0  0  0  0
  -18.0329  -26.0079   22.9025 H   0  0  0  0  0  0
  -19.7942  -30.7287   24.2245 H   0  0  0  0  0  0
  -17.5017  -31.6264   24.5174 H   0  0  0  0  0  0
  -15.5354  -30.2980   23.7664 H   0  0  0  0  0  0
  -15.8680  -28.0827   22.7052 H   0  0  0  0  0  0
  -24.5894  -30.7112   25.7820 H   0  0  0  0  0  0
  -24.8929  -32.2937   26.4887 H   0  0  0  0  0  0
  -25.8046  -30.8952   27.0268 H   0  0  0  0  0  0
  -26.2920  -29.6765   24.1236 H   0  0  0  0  0  0
  -27.3976  -29.7260   25.4767 H   0  0  0  0  0  0
  -27.8821  -30.4263   23.9508 H   0  0  0  0  0  0
  -27.2668  -33.3623   26.2108 H   0  0  0  0  0  0
  -28.3859  -32.6914   25.0337 H   0  0  0  0  0  0
  -28.0748  -31.8457   26.5421 H   0  0  0  0  0  0
  -28.2554  -38.0134   24.7575 H   0  0  0  0  0  0
  -28.1142  -36.2671   24.6161 H   0  0  0  0  0  0
  -27.2331  -37.1303   25.8853 H   0  0  0  0  0  0
  -20.9376  -29.8784   21.6894 H   0  0  0  0  0  0
  -26.0160  -38.2846   24.1477 H   0  0  0  0  0  0
  -28.0038  -17.7550   19.6843 H   0  0  0  0  0  0
  -29.0184  -18.4001   18.4263 H   0  0  0  0  0  0
  -30.1727  -18.7573   22.5222 H   0  0  0  0  0  0
  -28.6785  -17.9736   22.0969 H   0  0  0  0  0  0
  -30.7856  -16.7697   18.8879 H   0  0  0  0  0  0
  -29.2810  -15.9422   18.6142 H   0  0  0  0  0  0
  -30.3839  -16.2706   22.6166 H   0  0  0  0  0  0
  -31.5098  -16.9773   21.4941 H   0  0  0  0  0  0
  -30.6856  -19.1715   20.1137 H   0  0  0  0  0  0
  -32.7346  -24.3992   20.7852 H   0  0  0  0  0  0
  -33.0677  -22.9413   19.8499 H   0  0  0  0  0  0
  -32.9175  -22.8512   21.6080 H   0  0  0  0  0  0
  -27.0748  -24.7561   20.5676 H   0  0  0  0  0  0
  -27.7043  -24.8424   18.9309 H   0  0  0  0  0  0
  -27.9082  -20.1867   20.3969 H   0  0  0  0  0  0
  1 25  1  0  0  0
  1 30  2  0  0  0
  1 84  1  0  0  0
  2  3  1  0  0  0
  2 25  1  0  0  0
  2 86  1  0  0  0
  2 87  1  0  0  0
  3  4  1  0  0  0
  3 88  1  0  0  0
  3 89  1  0  0  0
  4  5  1  0  0  0
  4 90  1  0  0  0
  4 91  1  0  0  0
  5  6  1  0  0  0
  5 26  1  0  0  0
  5 92  1  0  0  0
  6 25  1  0  0  0
  6 93  1  0  0  0
  6 94  1  0  0  0
  7  8  2  0  0  0
  7 26  1  0  0  0
  7 29  1  0  0  0
  8  9  1  0  0  0
  8 22  1  0  0  0
  9 10  1  0  0  0
  9 27  2  0  0  0
 10 11  2  0  0  0
 10 15  1  0  0  0
 11 12  1  0  0  0
 11 95  1  0  0  0
 12 13  2  0  0  0
 12 96  1  0  0  0
 13 14  1  0  0  0
 13 31  1  0  0  0
 14 15  2  0  0  0
 14 97  1  0  0  0
 15 98  1  0  0  0
 16 17  2  0  0  0
 16 21  1  0  0  0
 16 31  1  0  0  0
 17 18  1  0  0  0
 17 99  1  0  0  0
 18 19  2  0  0  0
 18100  1  0  0  0
 19 20  1  0  0  0
 19 24  1  0  0  0
 20 21  2  0  0  0
 20101  1  0  0  0
 21 23  1  0  0  0
 22 28  1  0  0  0
 22 32  2  0  0  0
 26 27  1  0  0  0
 28102  1  0  0  0
 28103  1  0  0  0
 29104  1  0  0  0
 29105  1  0  0  0
 33 34  1  0  0  0
 33 66  1  0  0  0
 33 70  2  0  0  0
 34 36  1  0  0  0
 34 59  1  0  0  0
 34106  1  0  0  0
 35 44  2  0  0  0
 35 45  1  0  0  0
 35 68  1  0  0  0
 36 56  1  0  0  0
 36107  1  0  0  0
 37 39  1  0  0  0
 37 47  1  0  0  0
 37 66  1  0  0  0
 37108  1  0  0  0
 38 43  2  0  0  0
 38 46  1  0  0  0
 38 47  1  0  0  0
 39 64  1  0  0  0
 39 67  2  0  0  0
 40 52  1  0  0  0
 40 53  2  0  0  0
 40 58  1  0  0  0
 41109  1  0  0  0
 41110  1  0  0  0
 41111  1  0  0  0
 41 48  1  0  0  0
 42 43  1  0  0  0
 42 66  1  0  0  0
 42112  1  0  0  0
 42113  1  0  0  0
 43 44  1  0  0  0
 44114  1  0  0  0
 45 46  2  0  0  0
 45115  1  0  0  0
 46116  1  0  0  0
 47117  1  0  0  0
 47118  1  0  0  0
 48 56  1  0  0  0
 48 65  1  0  0  0
 48119  1  0  0  0
 49 50  1  0  0  0
 49 53  1  0  0  0
 49 64  1  0  0  0
 49120  1  0  0  0
 50 51  1  0  0  0
 50121  1  0  0  0
 50122  1  0  0  0
 51 52  1  0  0  0
 51123  1  0  0  0
 51124  1  0  0  0
 52125  1  0  0  0
 52126  1  0  0  0
 53 54  1  0  0  0
 54 55  2  0  0  0
 54127  1  0  0  0
 55 57  1  0  0  0
 55128  1  0  0  0
 56 69  2  0  0  0
 57 58  2  0  0  0
 57129  1  0  0  0
 58130  1  0  0  0
 59 60  1  0  0  0
 59 61  1  0  0  0
 59 62  1  0  0  0
 60131  1  0  0  0
 60132  1  0  0  0
 60133  1  0  0  0
 61134  1  0  0  0
 61135  1  0  0  0
 61136  1  0  0  0
 62137  1  0  0  0
 62138  1  0  0  0
 62139  1  0  0  0
 63 65  1  0  0  0
 63140  1  0  0  0
 63141  1  0  0  0
 63142  1  0  0  0
 64143  1  0  0  0
 65144  1  0  0  0
 68 80  1  0  0  0
 71 79  1  0  0  0
 71 81  2  0  0  0
 71 82  1  0  0  0
 72 80  1  0  0  0
 72 81  1  0  0  0
 72 83  2  0  0  0
 73 82  2  0  0  0
 73 83  1  0  0  0
 73 85  1  0  0  0
 74 76  1  0  0  0
 74 78  1  0  0  0
 74145  1  0  0  0
 74146  1  0  0  0
 75 77  1  0  0  0
 75 78  1  0  0  0
 75147  1  0  0  0
 75148  1  0  0  0
 76 84  1  0  0  0
 76149  1  0  0  0
 76150  1  0  0  0
 77 84  1  0  0  0
 77151  1  0  0  0
 77152  1  0  0  0
 78 85  1  0  0  0
 78153  1  0  0  0
 79154  1  0  0  0
 79155  1  0  0  0
 79156  1  0  0  0
 80157  1  0  0  0
 80158  1  0  0  0
 85159  1  0  0  0
M  ISO  4   1 100  68 101  80 101  84 100
M  END
> <chiral flag>
0

> <version>
0

> <s_m_source_file>
/data/baiqing/PycharmProjects/Reinvent-master-3.2/result/LINK_invent/BTK/process_docking_weight1_custom_sum_contain_oxygen_bond_distance_aromatic_linkinvent_7_9_3/rearranged_h_0190.sdf

> <i_m_source_file_index>
19

> <r_mmod_Potential_Energy-OPLS-2005>
-467.391723632812

> <r_mmod_Stretch_Energy-OPLS-2005>
75.6690063476562

> <r_mmod_Bend_Energy-OPLS-2005>
158.303955078125

> <r_mmod_Torsional_Energy-OPLS-2005>
312.409759521484

> <r_mmod_Improper_Torsional_Energy-OPLS-2005>
12.0642433166504

> <r_mmod_Van_der_Waal_Energy-OPLS-2005>
172.486831665039

> <r_mmod_Electrostatic_Energy-OPLS-2005>
-1026.41003417969

> <r_mmod_Solvation_Energy-OPLS-2005>
-229.942138671875

> <b_mmod_Minimization_Converged-OPLS-2005>
0

> <r_mmod_RMS_Derivative-OPLS-2005>
0.697551548480988

$$$$
19
                    3D
 Structure written by MMmdl.
170180  0  0  1  0            999 V2000
  -30.7418  -14.4208   20.5674 C   0  0  0  0  0  0
  -30.4115  -12.2805   19.4109 C   0  0  0  0  0  0
  -29.4882  -12.5001   18.1963 C   0  0  0  0  0  0
  -28.0077  -12.3754   18.6050 C   0  0  0  0  0  0
  -27.6596  -13.2086   19.8671 C   0  0  2  0  0  0
  -28.7010  -12.9824   20.9836 C   0  0  0  0  0  0
  -25.2576  -13.8161   20.5611 C   0  0  0  0  0  0
  -24.1847  -13.0448   20.9160 C   0  0  0  0  0  0
  -24.6405  -11.6913   20.8733 C   0  0  0  0  0  0
  -23.9074  -10.4299   21.0400 C   0  0  0  0  0  0
  -24.3628   -9.4218   21.9186 C   0  0  0  0  0  0
  -23.6309   -8.2248   22.0753 C   0  0  0  0  0  0
  -22.4295   -8.0280   21.3532 C   0  0  0  0  0  0
  -21.9917   -9.0260   20.4646 C   0  0  0  0  0  0
  -22.7242  -10.2144   20.3054 C   0  0  0  0  0  0
  -21.6860   -6.0748   22.5277 C   0  0  0  0  0  0
  -21.4010   -6.5644   23.8211 C   0  0  0  0  0  0
  -21.3655   -5.6794   24.9170 C   0  0  0  0  0  0
  -21.6046   -4.3058   24.7216 C   0  0  0  0  0  0
  -21.8825   -3.8156   23.4335 C   0  0  0  0  0  0
  -21.9193   -4.6975   22.3398 C   0  0  0  0  0  0
  -22.7870  -13.5244   21.1831 C   0  0  0  0  0  0
  -22.1667   -4.2166   21.0973 F   0  0  0  0  0  0
  -21.5631   -3.4535   25.7726 F   0  0  0  0  0  0
  -30.0316  -13.2702   20.4291 N   0  0  0  0  0  0
  -26.3023  -12.9341   20.3331 N   0  0  0  0  0  0
  -25.9329  -11.6502   20.5763 N   0  0  0  0  0  0
  -22.0512  -12.8245   22.0389 N   0  0  0  0  0  0
  -25.4273  -15.1866   20.3888 N   0  0  0  0  0  0
  -31.9067  -14.5280   20.1688 O   0  0  0  0  0  0
  -21.6644   -6.8887   21.4239 O   0  0  0  0  0  0
  -22.3554  -14.5548   20.6675 O   0  0  0  0  0  0
  -24.6105  -31.8706   23.2128 C   0  0  0  0  0  0
  -25.9008  -32.4838   23.8411 C   0  0  1  0  0  0
  -27.2422  -27.4852   20.0733 C   0  0  0  0  0  0
  -25.5885  -33.8634   24.2352 N   0  0  0  0  0  0
  -23.3986  -30.4944   21.5526 C   0  0  2  0  0  0
  -24.8485  -28.9693   20.1147 C   0  0  0  0  0  0
  -22.7403  -29.4669   22.5008 C   0  0  0  0  0  0
  -18.0273  -28.1379   22.8498 C   0  0  0  0  0  0
  -24.1495  -36.7319   23.2643 C   0  0  0  0  0  0
  -25.9240  -30.8516   21.3614 C   0  0  0  0  0  0
  -26.0083  -29.4925   20.7031 C   0  0  0  0  0  0
  -27.2140  -28.7587   20.6819 C   0  0  0  0  0  0
  -26.0653  -26.9589   19.5072 C   0  0  0  0  0  0
  -24.8705  -27.6994   19.5127 C   0  0  0  0  0  0
  -23.6061  -29.8279   20.1668 C   0  0  0  0  0  0
  -25.4114  -36.3118   24.0347 C   0  0  1  0  0  0
  -20.5865  -28.3654   23.1337 C   0  0  2  0  0  0
  -20.6763  -26.9392   22.5429 C   0  0  0  0  0  0
  -19.5748  -26.6388   21.5218 C   0  0  0  0  0  0
  -18.1926  -26.7927   22.1622 C   0  0  0  0  0  0
  -19.1524  -28.8833   23.2923 C   0  0  0  0  0  0
  -18.9443  -30.1440   23.8935 C   0  0  0  0  0  0
  -17.6442  -30.6584   24.0568 C   0  0  0  0  0  0
  -25.9029  -34.9483   23.5151 C   0  0  0  0  0  0
  -16.5336  -29.9090   23.6318 C   0  0  0  0  0  0
  -16.7260  -28.6506   23.0344 C   0  0  0  0  0  0
  -26.4459  -31.6591   25.0708 C   0  0  0  0  0  0
  -25.3747  -31.3695   26.1473 C   0  0  0  0  0  0
  -27.0262  -30.3031   24.6046 C   0  0  0  0  0  0
  -27.6052  -32.4293   25.7464 C   0  0  0  0  0  0
  -27.5588  -37.1816   24.8467 C   0  0  0  0  0  0
  -21.4133  -29.3025   22.3743 N   0  0  0  0  0  0
  -26.4304  -37.3790   23.9406 N   0  0  0  0  0  0
  -24.6619  -31.0847   22.1011 N   0  0  0  0  0  0
  -23.4190  -28.8211   23.3040 O   0  0  0  0  0  0
  -28.3534  -26.6859   20.0475 O   0  0  0  0  0  0
  -26.5587  -34.8924   22.4711 O   0  0  0  0  0  0
  -23.5310  -32.1433   23.7556 O   0  0  0  0  0  0
  -27.3289  -22.1192   19.0689 C   0  0  0  0  0  0
  -28.5760  -22.7525   19.1935 C   0  0  0  0  0  0
  -29.5276  -22.1035   19.9927 C   0  0  0  0  0  0
  -28.0363  -20.4248   20.4179 C   0  0  0  0  0  0
  -28.8866  -24.0793   18.5122 C   0  0  0  0  0  0
  -30.8718  -22.7480   20.2888 C   0  0  0  0  0  0
  -29.1335  -17.6239   19.6781 C   0  0  0  0  0  0
  -28.4865  -17.0318   22.0236 C   0  0  0  0  0  0
  -30.2947  -16.6349   19.7773 C   0  0  0  0  0  0
  -29.6755  -16.0448   22.0697 C   0  0  0  0  0  0
  -31.1732  -23.9508   19.3716 C   0  0  0  0  0  0
  -28.8132  -18.1917   21.0674 C   0  0  0  0  0  0
  -30.2207  -26.1754   18.6825 C   0  0  0  0  0  0
  -29.5886  -27.2373   19.6079 C   0  0  0  0  0  0
  -27.0636  -20.9512   19.6939 N   0  0  0  0  0  0
  -29.2459  -20.9391   20.6048 N   0  0  0  0  0  0
  -30.0017  -15.5425   20.7233 N   0  0  0  0  0  0
  -27.7652  -19.2046   20.9905 N   0  0  0  0  0  0
  -29.9713  -24.8095   19.2206 N   0  3  1  0  0  0
  -31.4563  -12.3612   19.1056 H   0  0  0  0  0  0
  -30.2959  -11.2708   19.8072 H   0  0  0  0  0  0
  -29.7229  -11.7806   17.4116 H   0  0  0  0  0  0
  -29.6690  -13.4873   17.7677 H   0  0  0  0  0  0
  -27.8039  -11.3203   18.7888 H   0  0  0  0  0  0
  -27.3630  -12.6666   17.7747 H   0  0  0  0  0  0
  -27.7044  -14.2589   19.5762 H   0  0  0  0  0  0
  -28.6696  -11.9495   21.3315 H   0  0  0  0  0  0
  -28.4600  -13.5909   21.8521 H   0  0  0  0  0  0
  -25.2774   -9.5700   22.4762 H   0  0  0  0  0  0
  -24.0030   -7.4633   22.7461 H   0  0  0  0  0  0
  -21.0850   -8.8770   19.8948 H   0  0  0  0  0  0
  -22.3697  -10.9682   19.6162 H   0  0  0  0  0  0
  -21.1994   -7.6151   23.9723 H   0  0  0  0  0  0
  -21.1475   -6.0515   25.9076 H   0  0  0  0  0  0
  -22.0610   -2.7618   23.2824 H   0  0  0  0  0  0
  -22.4127  -11.9903   22.4782 H   0  0  0  0  0  0
  -21.1126  -13.1262   22.2579 H   0  0  0  0  0  0
  -24.6549  -15.8393   20.4625 H   0  0  0  0  0  0
  -26.2785  -15.6110   20.0429 H   0  0  0  0  0  0
  -26.7088  -32.5576   23.1196 H   0  0  0  0  0  0
  -25.0013  -33.9799   25.0477 H   0  0  0  0  0  0
  -22.6845  -31.3093   21.4148 H   0  0  0  0  0  0
  -23.3738  -35.9668   23.3330 H   0  0  0  0  0  0
  -24.3593  -36.8901   22.2050 H   0  0  0  0  0  0
  -23.7259  -37.6544   23.6625 H   0  0  0  0  0  0
  -26.0338  -31.6228   20.5981 H   0  0  0  0  0  0
  -26.8117  -30.9031   21.9798 H   0  0  0  0  0  0
  -28.1052  -29.1617   21.1436 H   0  0  0  0  0  0
  -26.0749  -25.9786   19.0539 H   0  0  0  0  0  0
  -23.9768  -27.2892   19.0620 H   0  0  0  0  0  0
  -23.7082  -30.6032   19.4065 H   0  0  0  0  0  0
  -22.7339  -29.2418   19.8721 H   0  0  0  0  0  0
  -25.1290  -36.1992   25.0833 H   0  0  0  0  0  0
  -20.9958  -28.3206   24.1458 H   0  0  0  0  0  0
  -20.5667  -26.2259   23.3614 H   0  0  0  0  0  0
  -21.6630  -26.7440   22.1210 H   0  0  0  0  0  0
  -19.6900  -25.6308   21.1236 H   0  0  0  0  0  0
  -19.6700  -27.3208   20.6759 H   0  0  0  0  0  0
  -17.4205  -26.6699   21.4012 H   0  0  0  0  0  0
  -18.0304  -26.0064   22.9010 H   0  0  0  0  0  0
  -19.7919  -30.7254   24.2321 H   0  0  0  0  0  0
  -17.4995  -31.6269   24.5163 H   0  0  0  0  0  0
  -15.5343  -30.3006   23.7617 H   0  0  0  0  0  0
  -15.8656  -28.0838   22.7036 H   0  0  0  0  0  0
  -24.5895  -30.7072   25.7814 H   0  0  0  0  0  0
  -24.8974  -32.2860   26.4945 H   0  0  0  0  0  0
  -25.8110  -30.8833   27.0205 H   0  0  0  0  0  0
  -26.2771  -29.6816   24.1126 H   0  0  0  0  0  0
  -27.4062  -29.7243   25.4470 H   0  0  0  0  0  0
  -27.8605  -30.4344   23.9156 H   0  0  0  0  0  0
  -27.2670  -33.3572   26.2088 H   0  0  0  0  0  0
  -28.3837  -32.6881   25.0273 H   0  0  0  0  0  0
  -28.0736  -31.8372   26.5335 H   0  0  0  0  0  0
  -28.2621  -38.0097   24.7479 H   0  0  0  0  0  0
  -28.1074  -36.2625   24.6334 H   0  0  0  0  0  0
  -27.2308  -37.1522   25.8873 H   0  0  0  0  0  0
  -20.9286  -29.8740   21.6958 H   0  0  0  0  0  0
  -26.0205  -38.2878   24.1376 H   0  0  0  0  0  0
  -26.5366  -22.5459   18.4720 H   0  0  0  0  0  0
  -27.9816  -24.6841   18.4712 H   0  0  0  0  0  0
  -29.1787  -23.8828   17.4790 H   0  0  0  0  0  0
  -31.6629  -22.0029   20.2011 H   0  0  0  0  0  0
  -30.8642  -23.0735   21.3295 H   0  0  0  0  0  0
  -28.2582  -17.1322   19.2492 H   0  0  0  0  0  0
  -29.4107  -18.4226   18.9885 H   0  0  0  0  0  0
  -28.2827  -17.4122   23.0254 H   0  0  0  0  0  0
  -27.5845  -16.5093   21.7024 H   0  0  0  0  0  0
  -31.2032  -17.1556   20.0889 H   0  0  0  0  0  0
  -30.4896  -16.2388   18.7774 H   0  0  0  0  0  0
  -29.4629  -15.2356   22.7674 H   0  0  0  0  0  0
  -30.5537  -16.5488   22.4764 H   0  0  0  0  0  0
  -31.4885  -23.6045   18.3865 H   0  0  0  0  0  0
  -32.0076  -24.5158   19.7856 H   0  0  0  0  0  0
  -29.7124  -18.6691   21.4606 H   0  0  0  0  0  0
  -31.2875  -26.3792   18.5804 H   0  0  0  0  0  0
  -29.8031  -26.2638   17.6784 H   0  0  0  0  0  0
  -29.4724  -28.1863   19.0821 H   0  0  0  0  0  0
  -30.2220  -27.4182   20.4763 H   0  0  0  0  0  0
  -26.8349  -18.8642   20.7840 H   0  0  0  0  0  0
  -29.6207  -24.9973   20.1510 H   0  0  0  0  0  0
  1 25  1  0  0  0
  1 30  2  0  0  0
  1 87  1  0  0  0
  2  3  1  0  0  0
  2 25  1  0  0  0
  2 90  1  0  0  0
  2 91  1  0  0  0
  3  4  1  0  0  0
  3 92  1  0  0  0
  3 93  1  0  0  0
  4  5  1  0  0  0
  4 94  1  0  0  0
  4 95  1  0  0  0
  5  6  1  0  0  0
  5 26  1  0  0  0
  5 96  1  0  0  0
  6 25  1  0  0  0
  6 97  1  0  0  0
  6 98  1  0  0  0
  7  8  2  0  0  0
  7 26  1  0  0  0
  7 29  1  0  0  0
  8  9  1  0  0  0
  8 22  1  0  0  0
  9 10  1  0  0  0
  9 27  2  0  0  0
 10 11  2  0  0  0
 10 15  1  0  0  0
 11 12  1  0  0  0
 11 99  1  0  0  0
 12 13  2  0  0  0
 12100  1  0  0  0
 13 14  1  0  0  0
 13 31  1  0  0  0
 14 15  2  0  0  0
 14101  1  0  0  0
 15102  1  0  0  0
 16 17  2  0  0  0
 16 21  1  0  0  0
 16 31  1  0  0  0
 17 18  1  0  0  0
 17103  1  0  0  0
 18 19  2  0  0  0
 18104  1  0  0  0
 19 20  1  0  0  0
 19 24  1  0  0  0
 20 21  2  0  0  0
 20105  1  0  0  0
 21 23  1  0  0  0
 22 28  1  0  0  0
 22 32  2  0  0  0
 26 27  1  0  0  0
 28106  1  0  0  0
 28107  1  0  0  0
 29108  1  0  0  0
 29109  1  0  0  0
 33 34  1  0  0  0
 33 66  1  0  0  0
 33 70  2  0  0  0
 34 36  1  0  0  0
 34 59  1  0  0  0
 34110  1  0  0  0
 35 44  2  0  0  0
 35 45  1  0  0  0
 35 68  1  0  0  0
 36 56  1  0  0  0
 36111  1  0  0  0
 37 39  1  0  0  0
 37 47  1  0  0  0
 37 66  1  0  0  0
 37112  1  0  0  0
 38 43  2  0  0  0
 38 46  1  0  0  0
 38 47  1  0  0  0
 39 64  1  0  0  0
 39 67  2  0  0  0
 40 52  1  0  0  0
 40 53  2  0  0  0
 40 58  1  0  0  0
 41113  1  0  0  0
 41114  1  0  0  0
 41115  1  0  0  0
 41 48  1  0  0  0
 42 43  1  0  0  0
 42 66  1  0  0  0
 42116  1  0  0  0
 42117  1  0  0  0
 43 44  1  0  0  0
 44118  1  0  0  0
 45 46  2  0  0  0
 45119  1  0  0  0
 46120  1  0  0  0
 47121  1  0  0  0
 47122  1  0  0  0
 48 56  1  0  0  0
 48 65  1  0  0  0
 48123  1  0  0  0
 49 50  1  0  0  0
 49 53  1  0  0  0
 49 64  1  0  0  0
 49124  1  0  0  0
 50 51  1  0  0  0
 50125  1  0  0  0
 50126  1  0  0  0
 51 52  1  0  0  0
 51127  1  0  0  0
 51128  1  0  0  0
 52129  1  0  0  0
 52130  1  0  0  0
 53 54  1  0  0  0
 54 55  2  0  0  0
 54131  1  0  0  0
 55 57  1  0  0  0
 55132  1  0  0  0
 56 69  2  0  0  0
 57 58  2  0  0  0
 57133  1  0  0  0
 58134  1  0  0  0
 59 60  1  0  0  0
 59 61  1  0  0  0
 59 62  1  0  0  0
 60135  1  0  0  0
 60136  1  0  0  0
 60137  1  0  0  0
 61138  1  0  0  0
 61139  1  0  0  0
 61140  1  0  0  0
 62141  1  0  0  0
 62142  1  0  0  0
 62143  1  0  0  0
 63 65  1  0  0  0
 63144  1  0  0  0
 63145  1  0  0  0
 63146  1  0  0  0
 64147  1  0  0  0
 65148  1  0  0  0
 68 84  1  0  0  0
 71 72  2  0  0  0
 71 85  1  0  0  0
 71149  1  0  0  0
 72 73  1  0  0  0
 72 75  1  0  0  0
 73 76  1  0  0  0
 73 86  2  0  0  0
 74 85  2  0  0  0
 74 86  1  0  0  0
 74 88  1  0  0  0
 75 89  1  0  0  0
 75150  1  0  0  0
 75151  1  0  0  0
 76 81  1  0  0  0
 76152  1  0  0  0
 76153  1  0  0  0
 77 79  1  0  0  0
 77 82  1  0  0  0
 77154  1  0  0  0
 77155  1  0  0  0
 78 80  1  0  0  0
 78 82  1  0  0  0
 78156  1  0  0  0
 78157  1  0  0  0
 79 87  1  0  0  0
 79158  1  0  0  0
 79159  1  0  0  0
 80 87  1  0  0  0
 80160  1  0  0  0
 80161  1  0  0  0
 81 89  1  0  0  0
 81162  1  0  0  0
 81163  1  0  0  0
 82 88  1  0  0  0
 82164  1  0  0  0
 83 84  1  0  0  0
 83165  1  0  0  0
 83166  1  0  0  0
 83 89  1  0  0  0
 84167  1  0  0  0
 84168  1  0  0  0
 88169  1  0  0  0
 89170  1  0  0  0
M  CHG  1  89   1
M  ISO  4   1 100  68 101  84 101  87 100
M  END
> <chiral flag>
0

> <version>
0

> <s_m_source_file>
/data/baiqing/PycharmProjects/Reinvent-master-3.2/result/LINK_invent/BTK/process_docking_weight1_custom_sum_contain_oxygen_bond_distance_aromatic_linkinvent_7_9_3/rearranged_h_0190.sdf

> <i_m_source_file_index>
20

> <r_mmod_Potential_Energy-OPLS-2005>
-455.289642333984

> <r_mmod_Stretch_Energy-OPLS-2005>
33.5648422241211

> <r_mmod_Bend_Energy-OPLS-2005>
110.020881652832

> <r_mmod_Torsional_Energy-OPLS-2005>
359.493133544922

> <r_mmod_Improper_Torsional_Energy-OPLS-2005>
20.2932167053223

> <r_mmod_Van_der_Waal_Energy-OPLS-2005>
176.912002563477

> <r_mmod_Electrostatic_Energy-OPLS-2005>
-723.816162109375

> <r_mmod_Solvation_Energy-OPLS-2005>
-445.360260009766

> <b_mmod_Minimization_Converged-OPLS-2005>
0

> <r_mmod_RMS_Derivative-OPLS-2005>
2.06590056419373

$$$$
20
                    3D
 Structure written by MMmdl.
174184  0  0  1  0            999 V2000
  -30.7174  -14.3877   20.6212 C   0  0  0  0  0  0
  -30.4207  -12.2779   19.3827 C   0  0  0  0  0  0
  -29.4821  -12.5090   18.1817 C   0  0  0  0  0  0
  -28.0070  -12.3524   18.6044 C   0  0  0  0  0  0
  -27.6607  -13.1748   19.8717 C   0  0  2  0  0  0
  -28.7034  -12.9130   20.9828 C   0  0  0  0  0  0
  -25.2630  -13.8081   20.5650 C   0  0  0  0  0  0
  -24.1857  -13.0397   20.9182 C   0  0  0  0  0  0
  -24.6364  -11.6856   20.8738 C   0  0  0  0  0  0
  -23.9025  -10.4261   21.0426 C   0  0  0  0  0  0
  -24.3594   -9.4179   21.9198 C   0  0  0  0  0  0
  -23.6268   -8.2209   22.0744 C   0  0  0  0  0  0
  -22.4252   -8.0256   21.3524 C   0  0  0  0  0  0
  -21.9890   -9.0236   20.4646 C   0  0  0  0  0  0
  -22.7209  -10.2119   20.3066 C   0  0  0  0  0  0
  -21.6855   -6.0719   22.5266 C   0  0  0  0  0  0
  -21.4022   -6.5623   23.8207 C   0  0  0  0  0  0
  -21.3660   -5.6775   24.9167 C   0  0  0  0  0  0
  -21.6043   -4.3033   24.7216 C   0  0  0  0  0  0
  -21.8826   -3.8130   23.4335 C   0  0  0  0  0  0
  -21.9190   -4.6943   22.3396 C   0  0  0  0  0  0
  -22.7894  -13.5228   21.1840 C   0  0  0  0  0  0
  -22.1660   -4.2139   21.0969 F   0  0  0  0  0  0
  -21.5624   -3.4516   25.7726 F   0  0  0  0  0  0
  -30.0400  -13.2257   20.4364 N   0  0  0  0  0  0
  -26.3014  -12.9181   20.3338 N   0  0  0  0  0  0
  -25.9270  -11.6379   20.5752 N   0  0  0  0  0  0
  -22.0511  -12.8246   22.0411 N   0  0  0  0  0  0
  -25.4376  -15.1788   20.3979 N   0  0  0  0  0  0
  -31.8187  -14.6374   20.1213 O   0  0  0  0  0  0
  -21.6617   -6.8850   21.4226 O   0  0  0  0  0  0
  -22.3613  -14.5536   20.6669 O   0  0  0  0  0  0
  -24.6055  -31.8740   23.2175 C   0  0  0  0  0  0
  -25.9000  -32.4842   23.8409 C   0  0  1  0  0  0
  -27.2260  -27.4842   20.0666 C   0  0  0  0  0  0
  -25.5883  -33.8640   24.2329 N   0  0  0  0  0  0
  -23.3846  -30.5008   21.5600 C   0  0  2  0  0  0
  -24.8261  -28.9769   20.1144 C   0  0  0  0  0  0
  -22.7337  -29.4689   22.5053 C   0  0  0  0  0  0
  -18.0260  -28.1357   22.8511 C   0  0  0  0  0  0
  -24.1481  -36.7309   23.2635 C   0  0  0  0  0  0
  -25.9105  -30.8523   21.3633 C   0  0  0  0  0  0
  -25.9869  -29.4938   20.7022 C   0  0  0  0  0  0
  -27.1868  -28.7551   20.6758 C   0  0  0  0  0  0
  -26.0454  -26.9775   19.4706 C   0  0  0  0  0  0
  -24.8484  -27.7137   19.5022 C   0  0  0  0  0  0
  -23.5849  -29.8360   20.1734 C   0  0  0  0  0  0
  -25.4105  -36.3108   24.0332 C   0  0  1  0  0  0
  -20.5835  -28.3620   23.1369 C   0  0  2  0  0  0
  -20.6748  -26.9370   22.5430 C   0  0  0  0  0  0
  -19.5732  -26.6374   21.5217 C   0  0  0  0  0  0
  -18.1906  -26.7914   22.1629 C   0  0  0  0  0  0
  -19.1505  -28.8812   23.2931 C   0  0  0  0  0  0
  -18.9445  -30.1429   23.8908 C   0  0  0  0  0  0
  -17.6451  -30.6579   24.0563 C   0  0  0  0  0  0
  -25.9039  -34.9487   23.5115 C   0  0  0  0  0  0
  -16.5333  -29.9075   23.6343 C   0  0  0  0  0  0
  -16.7251  -28.6494   23.0358 C   0  0  0  0  0  0
  -26.4455  -31.6620   25.0726 C   0  0  0  0  0  0
  -25.3753  -31.3741   26.1501 C   0  0  0  0  0  0
  -27.0275  -30.3065   24.6087 C   0  0  0  0  0  0
  -27.6019  -32.4347   25.7491 C   0  0  0  0  0  0
  -27.5567  -37.1800   24.8464 C   0  0  0  0  0  0
  -21.4070  -29.3009   22.3793 N   0  0  0  0  0  0
  -26.4282  -37.3795   23.9411 N   0  0  0  0  0  0
  -24.6518  -31.0881   22.1050 N   0  0  0  0  0  0
  -23.4164  -28.8250   23.3059 O   0  0  0  0  0  0
  -28.4213  -26.8004   20.0750 O   0  0  0  0  0  0
  -26.5583  -34.8934   22.4676 O   0  0  0  0  0  0
  -23.5281  -32.1479   23.7615 O   0  0  0  0  0  0
  -27.9701  -18.7078   21.9791 C   0  0  0  0  0  0
  -27.3165  -19.9182   22.2248 C   0  0  0  0  0  0
  -29.3189  -18.6949   21.5477 C   0  0  0  0  0  0
  -29.9919  -19.9517   21.4475 C   0  0  0  0  0  0
  -28.0249  -21.1024   22.0220 C   0  0  0  0  0  0
  -34.3147  -20.4660   21.5474 C   0  0  0  0  0  0
  -30.6276  -16.4126   22.1370 C   0  0  0  0  0  0
  -29.0335  -16.1489   20.8134 C   0  0  0  0  0  0
  -32.1150  -21.3725   21.8032 C   0  0  0  0  0  0
  -33.7318  -19.2799   20.7544 C   0  0  0  0  0  0
  -29.9175  -17.3448   21.1512 C   0  0  0  0  0  0
  -31.4626  -20.1900   21.0141 C   0  0  1  0  0  0
  -27.3650  -22.4597   22.1307 C   0  0  0  0  0  0
  -27.7098  -24.6900   21.0791 C   0  0  0  0  0  0
  -28.4027  -25.3879   19.8926 C   0  0  0  0  0  0
  -29.3160  -21.1111   21.6286 N   0  0  0  0  0  0
  -33.4885  -21.6612   21.3644 N   0  0  0  0  0  0
  -30.0702  -15.2865   21.3805 N   0  0  0  0  0  0
  -32.3439  -19.0204   21.1892 N   0  3  0  0  0  0
  -27.7708  -23.2209   20.9442 N   0  3  0  0  0  0
  -31.4639  -12.3846   19.0793 H   0  0  0  0  0  0
  -30.3195  -11.2549   19.7493 H   0  0  0  0  0  0
  -29.7167  -11.8029   17.3839 H   0  0  0  0  0  0
  -29.6454  -13.5060   17.7692 H   0  0  0  0  0  0
  -27.8294  -11.2942   18.7964 H   0  0  0  0  0  0
  -27.3460  -12.6286   17.7824 H   0  0  0  0  0  0
  -27.7030  -14.2183   19.5781 H   0  0  0  0  0  0
  -28.6760  -11.8649   21.2870 H   0  0  0  0  0  0
  -28.4566  -13.4759   21.8849 H   0  0  0  0  0  0
  -25.2734   -9.5655   22.4788 H   0  0  0  0  0  0
  -23.9981   -7.4601   22.7460 H   0  0  0  0  0  0
  -21.0819   -8.8755   19.8961 H   0  0  0  0  0  0
  -22.3664  -10.9663   19.6187 H   0  0  0  0  0  0
  -21.2033   -7.6137   23.9715 H   0  0  0  0  0  0
  -21.1479   -6.0498   25.9074 H   0  0  0  0  0  0
  -22.0615   -2.7591   23.2827 H   0  0  0  0  0  0
  -22.4069  -11.9886   22.4811 H   0  0  0  0  0  0
  -21.1150  -13.1330   22.2615 H   0  0  0  0  0  0
  -24.6612  -15.8254   20.4736 H   0  0  0  0  0  0
  -26.2725  -15.6023   20.0139 H   0  0  0  0  0  0
  -26.7055  -32.5570   23.1157 H   0  0  0  0  0  0
  -25.0032  -33.9808   25.0464 H   0  0  0  0  0  0
  -22.6686  -31.3164   21.4292 H   0  0  0  0  0  0
  -23.3739  -35.9647   23.3315 H   0  0  0  0  0  0
  -24.3566  -36.8906   22.2044 H   0  0  0  0  0  0
  -23.7253  -37.6528   23.6645 H   0  0  0  0  0  0
  -26.0191  -31.6285   20.6052 H   0  0  0  0  0  0
  -26.7987  -30.8950   21.9817 H   0  0  0  0  0  0
  -28.0861  -29.1571   21.1235 H   0  0  0  0  0  0
  -26.0196  -26.0237   18.9679 H   0  0  0  0  0  0
  -23.9549  -27.3050   19.0490 H   0  0  0  0  0  0
  -23.6829  -30.6140   19.4164 H   0  0  0  0  0  0
  -22.7069  -29.2543   19.8838 H   0  0  0  0  0  0
  -25.1284  -36.1950   25.0824 H   0  0  0  0  0  0
  -20.9912  -28.3160   24.1496 H   0  0  0  0  0  0
  -20.5658  -26.2201   23.3585 H   0  0  0  0  0  0
  -21.6624  -26.7437   22.1213 H   0  0  0  0  0  0
  -19.6884  -25.6295   21.1222 H   0  0  0  0  0  0
  -19.6687  -27.3214   20.6777 H   0  0  0  0  0  0
  -17.4171  -26.6670   21.4029 H   0  0  0  0  0  0
  -18.0310  -26.0041   22.9016 H   0  0  0  0  0  0
  -19.7922  -30.7249   24.2252 H   0  0  0  0  0  0
  -17.5015  -31.6275   24.5139 H   0  0  0  0  0  0
  -15.5336  -30.2976   23.7689 H   0  0  0  0  0  0
  -15.8645  -28.0827   22.7058 H   0  0  0  0  0  0
  -24.5895  -30.7101   25.7884 H   0  0  0  0  0  0
  -24.8987  -32.2912   26.4983 H   0  0  0  0  0  0
  -25.8151  -30.8910   27.0235 H   0  0  0  0  0  0
  -26.2813  -29.6845   24.1135 H   0  0  0  0  0  0
  -27.4032  -29.7292   25.4544 H   0  0  0  0  0  0
  -27.8656  -30.4380   23.9239 H   0  0  0  0  0  0
  -27.2608  -33.3617   26.2121 H   0  0  0  0  0  0
  -28.3823  -32.6967   25.0331 H   0  0  0  0  0  0
  -28.0697  -31.8448   26.5382 H   0  0  0  0  0  0
  -28.2593  -38.0086   24.7499 H   0  0  0  0  0  0
  -28.1044  -36.2618   24.6296 H   0  0  0  0  0  0
  -27.2271  -37.1459   25.8860 H   0  0  0  0  0  0
  -20.9182  -29.8696   21.7023 H   0  0  0  0  0  0
  -26.0159  -38.2857   24.1455 H   0  0  0  0  0  0
  -27.3920  -17.8077   22.1042 H   0  0  0  0  0  0
  -26.2782  -19.9257   22.5263 H   0  0  0  0  0  0
  -35.3309  -20.6711   21.2078 H   0  0  0  0  0  0
  -34.3846  -20.2181   22.6074 H   0  0  0  0  0  0
  -30.2380  -16.4691   23.1561 H   0  0  0  0  0  0
  -31.7155  -16.4767   22.1359 H   0  0  0  0  0  0
  -28.8691  -16.0576   19.7384 H   0  0  0  0  0  0
  -28.0989  -16.0436   21.3612 H   0  0  0  0  0  0
  -32.0910  -21.1700   22.8764 H   0  0  0  0  0  0
  -31.5319  -22.2838   21.6625 H   0  0  0  0  0  0
  -34.3378  -18.3867   20.9157 H   0  0  0  0  0  0
  -33.7533  -19.4761   19.6810 H   0  0  0  0  0  0
  -30.5257  -17.5086   20.2594 H   0  0  0  0  0  0
  -31.4282  -20.4330   19.9508 H   0  0  0  0  0  0
  -27.7240  -22.9418   23.0399 H   0  0  0  0  0  0
  -26.2790  -22.3831   22.1924 H   0  0  0  0  0  0
  -26.6634  -24.9829   21.1641 H   0  0  0  0  0  0
  -28.1999  -24.9960   22.0059 H   0  0  0  0  0  0
  -29.4431  -25.0654   19.8546 H   0  0  0  0  0  0
  -27.9675  -25.1093   18.9327 H   0  0  0  0  0  0
  -33.4809  -21.9337   20.3829 H   0  0  0  0  0  0
  -32.3481  -18.7815   22.1659 H   0  0  0  0  0  0
  -31.9729  -18.2552   20.6532 H   0  0  0  0  0  0
  -27.2376  -22.8929   20.1545 H   0  0  0  0  0  0
  -28.7245  -22.9039   20.8199 H   0  0  0  0  0  0
  1 25  1  0  0  0
  1 30  2  0  0  0
  1 88  1  0  0  0
  2  3  1  0  0  0
  2 25  1  0  0  0
  2 91  1  0  0  0
  2 92  1  0  0  0
  3  4  1  0  0  0
  3 93  1  0  0  0
  3 94  1  0  0  0
  4  5  1  0  0  0
  4 95  1  0  0  0
  4 96  1  0  0  0
  5  6  1  0  0  0
  5 26  1  0  0  0
  5 97  1  0  0  0
  6 25  1  0  0  0
  6 98  1  0  0  0
  6 99  1  0  0  0
  7  8  2  0  0  0
  7 26  1  0  0  0
  7 29  1  0  0  0
  8  9  1  0  0  0
  8 22  1  0  0  0
  9 10  1  0  0  0
  9 27  2  0  0  0
 10 11  2  0  0  0
 10 15  1  0  0  0
 11 12  1  0  0  0
 11100  1  0  0  0
 12 13  2  0  0  0
 12101  1  0  0  0
 13 14  1  0  0  0
 13 31  1  0  0  0
 14 15  2  0  0  0
 14102  1  0  0  0
 15103  1  0  0  0
 16 17  2  0  0  0
 16 21  1  0  0  0
 16 31  1  0  0  0
 17 18  1  0  0  0
 17104  1  0  0  0
 18 19  2  0  0  0
 18105  1  0  0  0
 19 20  1  0  0  0
 19 24  1  0  0  0
 20 21  2  0  0  0
 20106  1  0  0  0
 21 23  1  0  0  0
 22 28  1  0  0  0
 22 32  2  0  0  0
 26 27  1  0  0  0
 28107  1  0  0  0
 28108  1  0  0  0
 29109  1  0  0  0
 29110  1  0  0  0
 33 34  1  0  0  0
 33 66  1  0  0  0
 33 70  2  0  0  0
 34 36  1  0  0  0
 34 59  1  0  0  0
 34111  1  0  0  0
 35 44  2  0  0  0
 35 45  1  0  0  0
 35 68  1  0  0  0
 36 56  1  0  0  0
 36112  1  0  0  0
 37 39  1  0  0  0
 37 47  1  0  0  0
 37 66  1  0  0  0
 37113  1  0  0  0
 38 43  2  0  0  0
 38 46  1  0  0  0
 38 47  1  0  0  0
 39 64  1  0  0  0
 39 67  2  0  0  0
 40 52  1  0  0  0
 40 53  2  0  0  0
 40 58  1  0  0  0
 41114  1  0  0  0
 41115  1  0  0  0
 41116  1  0  0  0
 41 48  1  0  0  0
 42 43  1  0  0  0
 42 66  1  0  0  0
 42117  1  0  0  0
 42118  1  0  0  0
 43 44  1  0  0  0
 44119  1  0  0  0
 45 46  2  0  0  0
 45120  1  0  0  0
 46121  1  0  0  0
 47122  1  0  0  0
 47123  1  0  0  0
 48 56  1  0  0  0
 48 65  1  0  0  0
 48124  1  0  0  0
 49 50  1  0  0  0
 49 53  1  0  0  0
 49 64  1  0  0  0
 49125  1  0  0  0
 50 51  1  0  0  0
 50126  1  0  0  0
 50127  1  0  0  0
 51 52  1  0  0  0
 51128  1  0  0  0
 51129  1  0  0  0
 52130  1  0  0  0
 52131  1  0  0  0
 53 54  1  0  0  0
 54 55  2  0  0  0
 54132  1  0  0  0
 55 57  1  0  0  0
 55133  1  0  0  0
 56 69  2  0  0  0
 57 58  2  0  0  0
 57134  1  0  0  0
 58135  1  0  0  0
 59 60  1  0  0  0
 59 61  1  0  0  0
 59 62  1  0  0  0
 60136  1  0  0  0
 60137  1  0  0  0
 60138  1  0  0  0
 61139  1  0  0  0
 61140  1  0  0  0
 61141  1  0  0  0
 62142  1  0  0  0
 62143  1  0  0  0
 62144  1  0  0  0
 63 65  1  0  0  0
 63145  1  0  0  0
 63146  1  0  0  0
 63147  1  0  0  0
 64148  1  0  0  0
 65149  1  0  0  0
 68 85  1  0  0  0
 71 72  2  0  0  0
 71 73  1  0  0  0
 71150  1  0  0  0
 72 75  1  0  0  0
 72151  1  0  0  0
 73 74  2  0  0  0
 73 81  1  0  0  0
 74 86  1  0  0  0
 74 82  1  0  0  0
 75 83  1  0  0  0
 75 86  2  0  0  0
 76 80  1  0  0  0
 76 87  1  0  0  0
 76152  1  0  0  0
 76153  1  0  0  0
 77 81  1  0  0  0
 77 88  1  0  0  0
 77154  1  0  0  0
 77155  1  0  0  0
 78 81  1  0  0  0
 78 88  1  0  0  0
 78156  1  0  0  0
 78157  1  0  0  0
 79 82  1  0  0  0
 79 87  1  0  0  0
 79158  1  0  0  0
 79159  1  0  0  0
 80 89  1  0  0  0
 80160  1  0  0  0
 80161  1  0  0  0
 81162  1  0  0  0
 82 89  1  0  0  0
 82163  1  0  0  0
 83 90  1  0  0  0
 83164  1  0  0  0
 83165  1  0  0  0
 84 85  1  0  0  0
 84 90  1  0  0  0
 84166  1  0  0  0
 84167  1  0  0  0
 85168  1  0  0  0
 85169  1  0  0  0
 87170  1  0  0  0
 89171  1  0  0  0
 89172  1  0  0  0
 90173  1  0  0  0
 90174  1  0  0  0
M  CHG  2  89   1  90   1
M  ISO  4   1 100  68 101  85 101  88 100
M  END
> <chiral flag>
0

> <version>
0

> <s_m_source_file>
/data/baiqing/PycharmProjects/Reinvent-master-3.2/result/LINK_invent/BTK/process_docking_weight1_custom_sum_contain_oxygen_bond_distance_aromatic_linkinvent_7_9_3/rearranged_h_0190.sdf

> <i_m_source_file_index>
21

> <r_mmod_Potential_Energy-OPLS-2005>
-436.311431884766

> <r_mmod_Stretch_Energy-OPLS-2005>
38.1257820129395

> <r_mmod_Bend_Energy-OPLS-2005>
124.76651763916

> <r_mmod_Torsional_Energy-OPLS-2005>
261.140167236328

> <r_mmod_Improper_Torsional_Energy-OPLS-2005>
9.13480281829834

> <r_mmod_Van_der_Waal_Energy-OPLS-2005>
188.017913818359

> <r_mmod_Electrostatic_Energy-OPLS-2005>
-148.336898803711

> <r_mmod_Solvation_Energy-OPLS-2005>
-918.960632324219

> <b_mmod_Minimization_Converged-OPLS-2005>
0

> <r_mmod_RMS_Derivative-OPLS-2005>
3.11491942405701

$$$$
21
                    3D
 Structure written by MMmdl.
166175  0  0  1  0            999 V2000
  -30.7203  -14.4370   20.7125 C   0  0  0  0  0  0
  -30.4404  -12.3387   19.3966 C   0  0  0  0  0  0
  -29.4949  -12.5294   18.1908 C   0  0  0  0  0  0
  -28.0189  -12.3469   18.6064 C   0  0  0  0  0  0
  -27.6646  -13.1707   19.8686 C   0  0  2  0  0  0
  -28.7071  -12.8717   20.9689 C   0  0  0  0  0  0
  -25.2626  -13.8079   20.5598 C   0  0  0  0  0  0
  -24.1862  -13.0421   20.9117 C   0  0  0  0  0  0
  -24.6356  -11.6862   20.8691 C   0  0  0  0  0  0
  -23.9004  -10.4276   21.0396 C   0  0  0  0  0  0
  -24.3558   -9.4197   21.9174 C   0  0  0  0  0  0
  -23.6229   -8.2236   22.0764 C   0  0  0  0  0  0
  -22.4223   -8.0256   21.3536 C   0  0  0  0  0  0
  -21.9837   -9.0236   20.4655 C   0  0  0  0  0  0
  -22.7179  -10.2108   20.3050 C   0  0  0  0  0  0
  -21.6845   -6.0701   22.5268 C   0  0  0  0  0  0
  -21.4026   -6.5610   23.8212 C   0  0  0  0  0  0
  -21.3657   -5.6774   24.9161 C   0  0  0  0  0  0
  -21.6035   -4.3029   24.7238 C   0  0  0  0  0  0
  -21.8821   -3.8117   23.4360 C   0  0  0  0  0  0
  -21.9190   -4.6921   22.3410 C   0  0  0  0  0  0
  -22.7891  -13.5251   21.1772 C   0  0  0  0  0  0
  -22.1654   -4.2094   21.0995 F   0  0  0  0  0  0
  -21.5610   -3.4528   25.7760 F   0  0  0  0  0  0
  -30.0321  -13.2764   20.4656 N   0  0  0  0  0  0
  -26.3030  -12.9173   20.3297 N   0  0  0  0  0  0
  -25.9261  -11.6353   20.5688 N   0  0  0  0  0  0
  -22.0495  -12.8335   22.0361 N   0  0  0  0  0  0
  -25.4399  -15.1785   20.3962 N   0  0  0  0  0  0
  -31.7797  -14.6799   20.1171 O   0  0  0  0  0  0
  -21.6606   -6.8828   21.4235 O   0  0  0  0  0  0
  -22.3624  -14.5572   20.6598 O   0  0  0  0  0  0
  -24.6056  -31.8706   23.2050 C   0  0  0  0  0  0
  -25.8971  -32.4841   23.8281 C   0  0  1  0  0  0
  -27.2394  -27.4978   20.0975 C   0  0  0  0  0  0
  -25.5822  -33.8618   24.2262 N   0  0  0  0  0  0
  -23.3812  -30.4951   21.5499 C   0  0  2  0  0  0
  -24.8314  -28.9688   20.1063 C   0  0  0  0  0  0
  -22.7308  -29.4655   22.5015 C   0  0  0  0  0  0
  -18.0236  -28.1338   22.8563 C   0  0  0  0  0  0
  -24.1487  -36.7403   23.2629 C   0  0  0  0  0  0
  -25.8932  -30.8792   21.3179 C   0  0  0  0  0  0
  -25.9860  -29.5076   20.6867 C   0  0  0  0  0  0
  -27.1997  -28.7938   20.6566 C   0  0  0  0  0  0
  -26.0714  -26.9717   19.4996 C   0  0  0  0  0  0
  -24.8695  -27.7022   19.5004 C   0  0  0  0  0  0
  -23.5786  -29.8131   20.1663 C   0  0  0  0  0  0
  -25.4047  -36.3093   24.0344 C   0  0  1  0  0  0
  -20.5821  -28.3603   23.1396 C   0  0  2  0  0  0
  -20.6719  -26.9359   22.5453 C   0  0  0  0  0  0
  -19.5694  -26.6390   21.5250 C   0  0  0  0  0  0
  -18.1868  -26.7881   22.1678 C   0  0  0  0  0  0
  -19.1485  -28.8798   23.2974 C   0  0  0  0  0  0
  -18.9414  -30.1423   23.8941 C   0  0  0  0  0  0
  -17.6410  -30.6572   24.0599 C   0  0  0  0  0  0
  -25.8967  -34.9485   23.5096 C   0  0  0  0  0  0
  -16.5310  -29.9073   23.6357 C   0  0  0  0  0  0
  -16.7213  -28.6499   23.0353 C   0  0  0  0  0  0
  -26.4539  -31.6642   25.0567 C   0  0  0  0  0  0
  -25.3820  -31.3832   26.1411 C   0  0  0  0  0  0
  -27.0293  -30.3086   24.5786 C   0  0  0  0  0  0
  -27.6265  -32.4394   25.7029 C   0  0  0  0  0  0
  -27.5545  -37.1835   24.8431 C   0  0  0  0  0  0
  -21.4048  -29.2963   22.3767 N   0  0  0  0  0  0
  -26.4216  -37.3790   23.9419 N   0  0  0  0  0  0
  -24.6466  -31.0891   22.0903 N   0  0  0  0  0  0
  -23.4135  -28.8203   23.3021 O   0  0  0  0  0  0
  -28.3448  -26.6827   20.0888 O   0  0  0  0  0  0
  -26.5609  -34.8971   22.4710 O   0  0  0  0  0  0
  -23.5316  -32.1416   23.7570 O   0  0  0  0  0  0
  -30.8303  -21.5104   22.3151 C   0  0  0  0  0  0
  -28.5578  -20.0643   22.1860 C   0  0  0  0  0  0
  -29.5572  -22.1222   22.4478 C   0  0  0  0  0  0
  -29.8299  -19.4194   22.0997 C   0  0  0  0  0  0
  -28.8278  -17.1976   22.3770 C   0  0  0  0  0  0
  -31.2841  -17.4672   22.4495 C   0  0  0  0  0  0
  -28.9518  -15.7213   21.9654 C   0  0  0  0  0  0
  -31.3044  -15.9240   22.6095 C   0  0  0  0  0  0
  -28.9500  -27.1622   22.5262 C   0  0  0  0  0  0
  -29.3786  -23.5944   22.7857 C   0  0  0  0  0  0
  -29.9605  -25.3597   21.0875 C   0  0  0  0  0  0
  -29.3773  -26.7858   21.0818 C   0  0  2  0  0  0
  -28.4173  -21.3989   22.3545 N   0  0  0  0  0  0
  -30.9635  -20.1719   22.1324 N   0  0  0  0  0  0
  -29.9896  -18.0077   22.0134 N   0  0  0  0  0  0
  -30.3242  -15.2154   21.7651 N   0  0  0  0  0  0
  -28.9553  -24.3971   21.6205 N   0  3  0  0  0  0
  -31.4743  -12.4843   19.0832 H   0  0  0  0  0  0
  -30.3924  -11.3101   19.7605 H   0  0  0  0  0  0
  -29.7429  -11.8220   17.4004 H   0  0  0  0  0  0
  -29.6379  -13.5254   17.7624 H   0  0  0  0  0  0
  -27.8571  -11.2860   18.7987 H   0  0  0  0  0  0
  -27.3548  -12.5990   17.7797 H   0  0  0  0  0  0
  -27.7203  -14.2157   19.5687 H   0  0  0  0  0  0
  -28.7167  -11.7964   21.1519 H   0  0  0  0  0  0
  -28.4404  -13.2631   21.9401 H   0  0  0  0  0  0
  -25.2685   -9.5662   22.4774 H   0  0  0  0  0  0
  -23.9895   -7.4634   22.7507 H   0  0  0  0  0  0
  -21.0738   -8.8774   19.8995 H   0  0  0  0  0  0
  -22.3617  -10.9641   19.6167 H   0  0  0  0  0  0
  -21.2054   -7.6131   23.9688 H   0  0  0  0  0  0
  -21.1453   -6.0510   25.9060 H   0  0  0  0  0  0
  -22.0604   -2.7572   23.2889 H   0  0  0  0  0  0
  -22.4006  -11.9992   22.4809 H   0  0  0  0  0  0
  -21.1139  -13.1458   22.2516 H   0  0  0  0  0  0
  -24.6673  -15.8291   20.4726 H   0  0  0  0  0  0
  -26.2821  -15.6061   20.0373 H   0  0  0  0  0  0
  -26.6958  -32.5671   23.0992 H   0  0  0  0  0  0
  -24.9879  -33.9754   25.0342 H   0  0  0  0  0  0
  -22.6664  -31.3103   21.4101 H   0  0  0  0  0  0
  -23.3633  -35.9843   23.3248 H   0  0  0  0  0  0
  -24.3630  -36.9051   22.2048 H   0  0  0  0  0  0
  -23.7396  -37.6679   23.6670 H   0  0  0  0  0  0
  -25.9246  -31.6258   20.5243 H   0  0  0  0  0  0
  -26.8090  -30.9872   21.8852 H   0  0  0  0  0  0
  -28.0906  -29.2575   21.0519 H   0  0  0  0  0  0
  -26.0829  -25.9906   19.0449 H   0  0  0  0  0  0
  -23.9840  -27.2810   19.0430 H   0  0  0  0  0  0
  -23.6383  -30.5767   19.3887 H   0  0  0  0  0  0
  -22.7176  -29.1957   19.9070 H   0  0  0  0  0  0
  -25.1190  -36.1865   25.0826 H   0  0  0  0  0  0
  -20.9929  -28.3153   24.1514 H   0  0  0  0  0  0
  -20.5704  -26.2153   23.3598 H   0  0  0  0  0  0
  -21.6574  -26.7459   22.1198 H   0  0  0  0  0  0
  -19.6867  -25.6330   21.1203 H   0  0  0  0  0  0
  -19.6631  -27.3281   20.6852 H   0  0  0  0  0  0
  -17.4151  -26.6707   21.4044 H   0  0  0  0  0  0
  -18.0243  -25.9938   22.9004 H   0  0  0  0  0  0
  -19.7878  -30.7272   24.2243 H   0  0  0  0  0  0
  -17.4971  -31.6265   24.5183 H   0  0  0  0  0  0
  -15.5320  -30.3029   23.7617 H   0  0  0  0  0  0
  -15.8595  -28.0896   22.6972 H   0  0  0  0  0  0
  -24.6003  -30.7107   25.7826 H   0  0  0  0  0  0
  -24.8968  -32.3035   26.4766 H   0  0  0  0  0  0
  -25.8176  -30.9072   27.0222 H   0  0  0  0  0  0
  -26.2756  -29.6988   24.0784 H   0  0  0  0  0  0
  -27.4123  -29.7299   25.4179 H   0  0  0  0  0  0
  -27.8636  -30.4448   23.8868 H   0  0  0  0  0  0
  -27.3053  -33.3795   26.1563 H   0  0  0  0  0  0
  -28.1352  -31.8571   26.4750 H   0  0  0  0  0  0
  -28.3745  -32.6897   24.9490 H   0  0  0  0  0  0
  -28.2579  -38.0109   24.7380 H   0  0  0  0  0  0
  -28.1012  -36.2659   24.6268 H   0  0  0  0  0  0
  -27.2332  -37.1548   25.8865 H   0  0  0  0  0  0
  -20.9160  -29.8610   21.6971 H   0  0  0  0  0  0
  -26.0103  -38.2869   24.1394 H   0  0  0  0  0  0
  -31.7474  -22.0801   22.3961 H   0  0  0  0  0  0
  -27.6184  -19.5384   22.1662 H   0  0  0  0  0  0
  -28.6858  -17.2646   23.4586 H   0  0  0  0  0  0
  -27.9105  -17.5624   21.9163 H   0  0  0  0  0  0
  -32.0399  -17.7651   21.7191 H   0  0  0  0  0  0
  -31.5756  -17.9232   23.3956 H   0  0  0  0  0  0
  -28.3888  -15.6092   21.0407 H   0  0  0  0  0  0
  -28.4417  -15.1475   22.7366 H   0  0  0  0  0  0
  -31.0490  -15.6778   23.6408 H   0  0  0  0  0  0
  -32.3203  -15.5479   22.4796 H   0  0  0  0  0  0
  -27.9711  -26.7516   22.7785 H   0  0  0  0  0  0
  -28.9273  -28.2379   22.6956 H   0  0  0  0  0  0
  -29.6644  -26.7833   23.2547 H   0  0  0  0  0  0
  -30.2626  -23.9972   23.2765 H   0  0  0  0  0  0
  -28.5819  -23.6698   23.5303 H   0  0  0  0  0  0
  -30.8850  -25.3509   21.6636 H   0  0  0  0  0  0
  -30.2416  -25.0520   20.0806 H   0  0  0  0  0  0
  -30.1325  -27.4924   20.7289 H   0  0  0  0  0  0
  -28.1660  -24.9456   21.9295 H   0  0  0  0  0  0
  -28.6007  -23.7886   20.9002 H   0  0  0  0  0  0
  1 25  1  0  0  0
  1 30  2  0  0  0
  1 86  1  0  0  0
  2  3  1  0  0  0
  2 25  1  0  0  0
  2 88  1  0  0  0
  2 89  1  0  0  0
  3  4  1  0  0  0
  3 90  1  0  0  0
  3 91  1  0  0  0
  4  5  1  0  0  0
  4 92  1  0  0  0
  4 93  1  0  0  0
  5  6  1  0  0  0
  5 26  1  0  0  0
  5 94  1  0  0  0
  6 25  1  0  0  0
  6 95  1  0  0  0
  6 96  1  0  0  0
  7  8  2  0  0  0
  7 26  1  0  0  0
  7 29  1  0  0  0
  8  9  1  0  0  0
  8 22  1  0  0  0
  9 10  1  0  0  0
  9 27  2  0  0  0
 10 11  2  0  0  0
 10 15  1  0  0  0
 11 12  1  0  0  0
 11 97  1  0  0  0
 12 13  2  0  0  0
 12 98  1  0  0  0
 13 14  1  0  0  0
 13 31  1  0  0  0
 14 15  2  0  0  0
 14 99  1  0  0  0
 15100  1  0  0  0
 16 17  2  0  0  0
 16 21  1  0  0  0
 16 31  1  0  0  0
 17 18  1  0  0  0
 17101  1  0  0  0
 18 19  2  0  0  0
 18102  1  0  0  0
 19 20  1  0  0  0
 19 24  1  0  0  0
 20 21  2  0  0  0
 20103  1  0  0  0
 21 23  1  0  0  0
 22 28  1  0  0  0
 22 32  2  0  0  0
 26 27  1  0  0  0
 28104  1  0  0  0
 28105  1  0  0  0
 29106  1  0  0  0
 29107  1  0  0  0
 33 34  1  0  0  0
 33 66  1  0  0  0
 33 70  2  0  0  0
 34 36  1  0  0  0
 34 59  1  0  0  0
 34108  1  0  0  0
 35 44  2  0  0  0
 35 45  1  0  0  0
 35 68  1  0  0  0
 36 56  1  0  0  0
 36109  1  0  0  0
 37 39  1  0  0  0
 37 47  1  0  0  0
 37 66  1  0  0  0
 37110  1  0  0  0
 38 43  2  0  0  0
 38 46  1  0  0  0
 38 47  1  0  0  0
 39 64  1  0  0  0
 39 67  2  0  0  0
 40 52  1  0  0  0
 40 53  2  0  0  0
 40 58  1  0  0  0
 41111  1  0  0  0
 41112  1  0  0  0
 41113  1  0  0  0
 41 48  1  0  0  0
 42 43  1  0  0  0
 42 66  1  0  0  0
 42114  1  0  0  0
 42115  1  0  0  0
 43 44  1  0  0  0
 44116  1  0  0  0
 45 46  2  0  0  0
 45117  1  0  0  0
 46118  1  0  0  0
 47119  1  0  0  0
 47120  1  0  0  0
 48 56  1  0  0  0
 48 65  1  0  0  0
 48121  1  0  0  0
 49 50  1  0  0  0
 49 53  1  0  0  0
 49 64  1  0  0  0
 49122  1  0  0  0
 50 51  1  0  0  0
 50123  1  0  0  0
 50124  1  0  0  0
 51 52  1  0  0  0
 51125  1  0  0  0
 51126  1  0  0  0
 52127  1  0  0  0
 52128  1  0  0  0
 53 54  1  0  0  0
 54 55  2  0  0  0
 54129  1  0  0  0
 55 57  1  0  0  0
 55130  1  0  0  0
 56 69  2  0  0  0
 57 58  2  0  0  0
 57131  1  0  0  0
 58132  1  0  0  0
 59 60  1  0  0  0
 59 61  1  0  0  0
 59 62  1  0  0  0
 60133  1  0  0  0
 60134  1  0  0  0
 60135  1  0  0  0
 61136  1  0  0  0
 61137  1  0  0  0
 61138  1  0  0  0
 62139  1  0  0  0
 62140  1  0  0  0
 62141  1  0  0  0
 63 65  1  0  0  0
 63142  1  0  0  0
 63143  1  0  0  0
 63144  1  0  0  0
 64145  1  0  0  0
 65146  1  0  0  0
 68 82  1  0  0  0
 71 73  2  0  0  0
 71 84  1  0  0  0
 71147  1  0  0  0
 72 74  1  0  0  0
 72 83  2  0  0  0
 72148  1  0  0  0
 73 80  1  0  0  0
 73 83  1  0  0  0
 74 84  2  0  0  0
 74 85  1  0  0  0
 75 77  1  0  0  0
 75 85  1  0  0  0
 75149  1  0  0  0
 75150  1  0  0  0
 76 78  1  0  0  0
 76 85  1  0  0  0
 76151  1  0  0  0
 76152  1  0  0  0
 77 86  1  0  0  0
 77153  1  0  0  0
 77154  1  0  0  0
 78 86  1  0  0  0
 78155  1  0  0  0
 78156  1  0  0  0
 79157  1  0  0  0
 79158  1  0  0  0
 79159  1  0  0  0
 79 82  1  0  0  0
 80 87  1  0  0  0
 80160  1  0  0  0
 80161  1  0  0  0
 81 82  1  0  0  0
 81 87  1  0  0  0
 81162  1  0  0  0
 81163  1  0  0  0
 82164  1  0  0  0
 87165  1  0  0  0
 87166  1  0  0  0
M  CHG  1  87   1
M  ISO  4   1 100  68 101  82 101  86 100
M  END
> <chiral flag>
0

> <version>
0

> <s_m_source_file>
/data/baiqing/PycharmProjects/Reinvent-master-3.2/result/LINK_invent/BTK/process_docking_weight1_custom_sum_contain_oxygen_bond_distance_aromatic_linkinvent_7_9_3/rearranged_h_0190.sdf

> <i_m_source_file_index>
22

> <r_mmod_Potential_Energy-OPLS-2005>
38.310546875

> <r_mmod_Stretch_Energy-OPLS-2005>
46.3307037353516

> <r_mmod_Bend_Energy-OPLS-2005>
142.589874267578

> <r_mmod_Torsional_Energy-OPLS-2005>
352.422760009766

> <r_mmod_Improper_Torsional_Energy-OPLS-2005>
8.71565818786621

> <r_mmod_Van_der_Waal_Energy-OPLS-2005>
194.641250610352

> <r_mmod_Electrostatic_Energy-OPLS-2005>
-252.583419799805

> <r_mmod_Solvation_Energy-OPLS-2005>
-466.170776367188

> <b_mmod_Minimization_Converged-OPLS-2005>
0

> <r_mmod_RMS_Derivative-OPLS-2005>
6.15711259841919

$$$$
22
                    3D
 Structure written by MMmdl.
163172  0  0  1  0            999 V2000
  -30.6833  -14.6247   20.4059 C   0  0  0  0  0  0
  -30.4339  -12.3595   19.4516 C   0  0  0  0  0  0
  -29.5125  -12.4028   18.2157 C   0  0  0  0  0  0
  -28.0305  -12.2954   18.6379 C   0  0  0  0  0  0
  -27.6468  -13.2067   19.8376 C   0  0  2  0  0  0
  -28.7017  -13.1525   20.9644 C   0  0  0  0  0  0
  -25.2596  -13.8161   20.5681 C   0  0  0  0  0  0
  -24.1852  -13.0426   20.9170 C   0  0  0  0  0  0
  -24.6418  -11.6901   20.8738 C   0  0  0  0  0  0
  -23.9095  -10.4283   21.0423 C   0  0  0  0  0  0
  -24.3647   -9.4195   21.9191 C   0  0  0  0  0  0
  -23.6309   -8.2244   22.0765 C   0  0  0  0  0  0
  -22.4288   -8.0293   21.3561 C   0  0  0  0  0  0
  -21.9932   -9.0277   20.4664 C   0  0  0  0  0  0
  -22.7279  -10.2140   20.3061 C   0  0  0  0  0  0
  -21.6852   -6.0748   22.5288 C   0  0  0  0  0  0
  -21.4012   -6.5634   23.8224 C   0  0  0  0  0  0
  -21.3651   -5.6791   24.9178 C   0  0  0  0  0  0
  -21.6043   -4.3061   24.7237 C   0  0  0  0  0  0
  -21.8820   -3.8156   23.4352 C   0  0  0  0  0  0
  -21.9186   -4.6974   22.3402 C   0  0  0  0  0  0
  -22.7870  -13.5213   21.1845 C   0  0  0  0  0  0
  -22.1643   -4.2151   21.0985 F   0  0  0  0  0  0
  -21.5640   -3.4540   25.7750 F   0  0  0  0  0  0
  -30.0064  -13.4385   20.3596 N   0  0  0  0  0  0
  -26.3001  -12.9312   20.3270 N   0  0  0  0  0  0
  -25.9345  -11.6486   20.5768 N   0  0  0  0  0  0
  -22.0500  -12.8203   22.0384 N   0  0  0  0  0  0
  -25.4343  -15.1887   20.4127 N   0  0  0  0  0  0
  -31.9069  -14.6576   20.2541 O   0  0  0  0  0  0
  -21.6628   -6.8907   21.4263 O   0  0  0  0  0  0
  -22.3555  -14.5524   20.6701 O   0  0  0  0  0  0
  -24.6184  -31.8660   23.2056 C   0  0  0  0  0  0
  -25.9081  -32.4792   23.8373 C   0  0  1  0  0  0
  -27.2213  -27.3958   20.1394 C   0  0  0  0  0  0
  -25.5939  -33.8587   24.2309 N   0  0  0  0  0  0
  -23.4078  -30.4909   21.5432 C   0  0  2  0  0  0
  -24.8561  -28.9545   20.1086 C   0  0  0  0  0  0
  -22.7434  -29.4667   22.4922 C   0  0  0  0  0  0
  -18.0303  -28.1362   22.8482 C   0  0  0  0  0  0
  -24.1492  -36.7281   23.2627 C   0  0  0  0  0  0
  -25.9385  -30.8244   21.3639 C   0  0  0  0  0  0
  -26.0156  -29.4561   20.7149 C   0  0  0  0  0  0
  -27.2032  -28.6851   20.7267 C   0  0  0  0  0  0
  -26.0548  -26.9282   19.4968 C   0  0  0  0  0  0
  -24.8716  -27.6907   19.4929 C   0  0  0  0  0  0
  -23.6192  -29.8233   20.1572 C   0  0  0  0  0  0
  -25.4108  -36.3071   24.0328 C   0  0  1  0  0  0
  -20.5889  -28.3657   23.1275 C   0  0  2  0  0  0
  -20.6776  -26.9384   22.5401 C   0  0  0  0  0  0
  -19.5765  -26.6371   21.5190 C   0  0  0  0  0  0
  -18.1937  -26.7919   22.1602 C   0  0  0  0  0  0
  -19.1545  -28.8837   23.2877 C   0  0  0  0  0  0
  -18.9473  -30.1435   23.8876 C   0  0  0  0  0  0
  -17.6468  -30.6576   24.0560 C   0  0  0  0  0  0
  -25.9056  -34.9452   23.5114 C   0  0  0  0  0  0
  -16.5365  -29.9067   23.6324 C   0  0  0  0  0  0
  -16.7283  -28.6495   23.0339 C   0  0  0  0  0  0
  -26.4504  -31.6561   25.0702 C   0  0  0  0  0  0
  -25.3757  -31.3672   26.1440 C   0  0  0  0  0  0
  -27.0321  -30.2988   24.6098 C   0  0  0  0  0  0
  -27.6077  -32.4271   25.7493 C   0  0  0  0  0  0
  -27.5602  -37.1765   24.8435 C   0  0  0  0  0  0
  -21.4166  -29.3020   22.3662 N   0  0  0  0  0  0
  -26.4270  -37.3785   23.9450 N   0  0  0  0  0  0
  -24.6728  -31.0769   22.0951 N   0  0  0  0  0  0
  -23.4196  -28.8204   23.2974 O   0  0  0  0  0  0
  -28.3392  -26.5725   20.1918 O   0  0  0  0  0  0
  -26.5611  -34.8918   22.4662 O   0  0  0  0  0  0
  -23.5372  -32.1419   23.7431 O   0  0  0  0  0  0
  -27.4462  -24.3007   22.6976 C   0  0  0  0  0  0
  -28.8673  -23.2996   21.3119 C   0  0  0  0  0  0
  -28.2511  -25.4293   20.9516 C   0  0  0  0  0  0
  -30.1391  -17.2484   18.3372 C   0  0  0  0  0  0
  -31.1873  -17.6063   19.3698 C   0  0  0  0  0  0
  -29.3761  -16.0758   18.9708 C   0  0  0  0  0  0
  -30.5344  -17.1315   20.6816 C   0  0  1  0  0  0
  -26.5846  -24.2548   23.9449 C   0  0  0  0  0  0
  -29.7342  -22.0694   20.9922 C   0  0  0  0  0  0
  -29.4754  -18.1967   21.1864 C   0  0  0  0  0  0
  -30.0470  -19.6189   21.5605 C   0  0  0  0  0  0
  -28.0941  -23.1814   22.3886 N   0  0  0  0  0  0
  -27.4826  -25.4511   22.0385 N   0  0  0  0  0  0
  -28.9914  -24.3937   20.5449 N   0  0  0  0  0  0
  -29.9547  -15.7961   20.3071 N   0  0  0  0  0  0
  -29.1092  -20.7841   21.4199 N   0  3  0  0  0  0
  -31.4756  -12.4639   19.1436 H   0  0  0  0  0  0
  -30.3624  -11.3941   19.9555 H   0  0  0  0  0  0
  -29.7635  -11.5828   17.5415 H   0  0  0  0  0  0
  -29.6942  -13.2988   17.6274 H   0  0  0  0  0  0
  -27.8588  -11.2536   18.9103 H   0  0  0  0  0  0
  -27.3789  -12.4944   17.7858 H   0  0  0  0  0  0
  -27.6263  -14.2153   19.4406 H   0  0  0  0  0  0
  -28.7144  -12.1746   21.4491 H   0  0  0  0  0  0
  -28.4722  -13.8865   21.7385 H   0  0  0  0  0  0
  -25.2822   -9.5660   22.4724 H   0  0  0  0  0  0
  -24.0012   -7.4642   22.7495 H   0  0  0  0  0  0
  -21.0848   -8.8826   19.8990 H   0  0  0  0  0  0
  -22.3773  -10.9673   19.6140 H   0  0  0  0  0  0
  -21.1996   -7.6140   23.9730 H   0  0  0  0  0  0
  -21.1466   -6.0514   25.9082 H   0  0  0  0  0  0
  -22.0603   -2.7626   23.2854 H   0  0  0  0  0  0
  -22.4061  -11.9824   22.4758 H   0  0  0  0  0  0
  -21.1148  -13.1309   22.2610 H   0  0  0  0  0  0
  -24.6842  -15.8601   20.5383 H   0  0  0  0  0  0
  -26.3096  -15.6223   20.1488 H   0  0  0  0  0  0
  -26.7156  -32.5496   23.1140 H   0  0  0  0  0  0
  -25.0152  -33.9743   25.0504 H   0  0  0  0  0  0
  -22.6985  -31.3082   21.4020 H   0  0  0  0  0  0
  -23.3784  -35.9574   23.3195 H   0  0  0  0  0  0
  -24.3626  -36.8989   22.2060 H   0  0  0  0  0  0
  -23.7187  -37.6433   23.6709 H   0  0  0  0  0  0
  -26.0632  -31.5883   20.5942 H   0  0  0  0  0  0
  -26.8225  -30.8743   21.9880 H   0  0  0  0  0  0
  -28.0905  -29.0580   21.2173 H   0  0  0  0  0  0
  -26.0484  -25.9538   19.0284 H   0  0  0  0  0  0
  -23.9791  -27.3003   19.0233 H   0  0  0  0  0  0
  -23.7289  -30.5969   19.3953 H   0  0  0  0  0  0
  -22.7436  -29.2405   19.8628 H   0  0  0  0  0  0
  -25.1263  -36.1910   25.0818 H   0  0  0  0  0  0
  -21.0018  -28.3234   24.1377 H   0  0  0  0  0  0
  -20.5655  -26.2258   23.3590 H   0  0  0  0  0  0
  -21.6651  -26.7407   22.1207 H   0  0  0  0  0  0
  -19.6914  -25.6281   21.1226 H   0  0  0  0  0  0
  -19.6719  -27.3177   20.6709 H   0  0  0  0  0  0
  -17.4216  -26.6670   21.3987 H   0  0  0  0  0  0
  -18.0341  -26.0054   22.9001 H   0  0  0  0  0  0
  -19.7951  -30.7259   24.2223 H   0  0  0  0  0  0
  -17.5033  -31.6252   24.5166 H   0  0  0  0  0  0
  -15.5355  -30.2964   23.7661 H   0  0  0  0  0  0
  -15.8694  -28.0814   22.7035 H   0  0  0  0  0  0
  -24.5926  -30.7029   25.7763 H   0  0  0  0  0  0
  -24.8940  -32.2819   26.4906 H   0  0  0  0  0  0
  -25.8099  -30.8825   27.0195 H   0  0  0  0  0  0
  -26.2852  -29.6747   24.1172 H   0  0  0  0  0  0
  -27.4088  -29.7239   25.4571 H   0  0  0  0  0  0
  -27.8703  -30.4286   23.9245 H   0  0  0  0  0  0
  -27.2723  -33.3598   26.2052 H   0  0  0  0  0  0
  -28.3920  -32.6779   25.0335 H   0  0  0  0  0  0
  -28.0707  -31.8376   26.5424 H   0  0  0  0  0  0
  -28.2485  -38.0193   24.7682 H   0  0  0  0  0  0
  -28.1224  -36.2732   24.6006 H   0  0  0  0  0  0
  -27.2360  -37.1109   25.8835 H   0  0  0  0  0  0
  -20.9314  -29.8718   21.6872 H   0  0  0  0  0  0
  -26.0131  -38.2831   24.1543 H   0  0  0  0  0  0
  -30.5842  -17.0015   17.3730 H   0  0  0  0  0  0
  -29.4681  -18.0929   18.1735 H   0  0  0  0  0  0
  -31.4665  -18.6563   19.3135 H   0  0  0  0  0  0
  -32.1016  -17.0403   19.1844 H   0  0  0  0  0  0
  -29.4200  -15.2351   18.2877 H   0  0  0  0  0  0
  -28.3215  -16.3315   19.0717 H   0  0  0  0  0  0
  -31.2949  -17.0096   21.4549 H   0  0  0  0  0  0
  -25.7913  -23.5164   23.8324 H   0  0  0  0  0  0
  -26.1189  -25.2177   24.1564 H   0  0  0  0  0  0
  -27.1853  -23.9763   24.8104 H   0  0  0  0  0  0
  -30.6738  -22.2087   21.5276 H   0  0  0  0  0  0
  -29.9732  -22.0372   19.9290 H   0  0  0  0  0  0
  -28.9554  -17.7940   22.0558 H   0  0  0  0  0  0
  -28.7026  -18.3201   20.4282 H   0  0  0  0  0  0
  -30.9280  -19.8330   20.9612 H   0  0  0  0  0  0
  -30.4133  -19.5912   22.5882 H   0  0  0  0  0  0
  -28.3651  -20.5928   20.7700 H   0  0  0  0  0  0
  -28.6755  -21.0207   22.3019 H   0  0  0  0  0  0
  1 25  1  0  0  0
  1 30  2  0  0  0
  1 85  1  0  0  0
  2  3  1  0  0  0
  2 25  1  0  0  0
  2 87  1  0  0  0
  2 88  1  0  0  0
  3  4  1  0  0  0
  3 89  1  0  0  0
  3 90  1  0  0  0
  4  5  1  0  0  0
  4 91  1  0  0  0
  4 92  1  0  0  0
  5  6  1  0  0  0
  5 26  1  0  0  0
  5 93  1  0  0  0
  6 25  1  0  0  0
  6 94  1  0  0  0
  6 95  1  0  0  0
  7  8  2  0  0  0
  7 26  1  0  0  0
  7 29  1  0  0  0
  8  9  1  0  0  0
  8 22  1  0  0  0
  9 10  1  0  0  0
  9 27  2  0  0  0
 10 11  2  0  0  0
 10 15  1  0  0  0
 11 12  1  0  0  0
 11 96  1  0  0  0
 12 13  2  0  0  0
 12 97  1  0  0  0
 13 14  1  0  0  0
 13 31  1  0  0  0
 14 15  2  0  0  0
 14 98  1  0  0  0
 15 99  1  0  0  0
 16 17  2  0  0  0
 16 21  1  0  0  0
 16 31  1  0  0  0
 17 18  1  0  0  0
 17100  1  0  0  0
 18 19  2  0  0  0
 18101  1  0  0  0
 19 20  1  0  0  0
 19 24  1  0  0  0
 20 21  2  0  0  0
 20102  1  0  0  0
 21 23  1  0  0  0
 22 28  1  0  0  0
 22 32  2  0  0  0
 26 27  1  0  0  0
 28103  1  0  0  0
 28104  1  0  0  0
 29105  1  0  0  0
 29106  1  0  0  0
 33 34  1  0  0  0
 33 66  1  0  0  0
 33 70  2  0  0  0
 34 36  1  0  0  0
 34 59  1  0  0  0
 34107  1  0  0  0
 35 44  2  0  0  0
 35 45  1  0  0  0
 35 68  1  0  0  0
 36 56  1  0  0  0
 36108  1  0  0  0
 37 39  1  0  0  0
 37 47  1  0  0  0
 37 66  1  0  0  0
 37109  1  0  0  0
 38 43  2  0  0  0
 38 46  1  0  0  0
 38 47  1  0  0  0
 39 64  1  0  0  0
 39 67  2  0  0  0
 40 52  1  0  0  0
 40 53  2  0  0  0
 40 58  1  0  0  0
 41110  1  0  0  0
 41111  1  0  0  0
 41112  1  0  0  0
 41 48  1  0  0  0
 42 43  1  0  0  0
 42 66  1  0  0  0
 42113  1  0  0  0
 42114  1  0  0  0
 43 44  1  0  0  0
 44115  1  0  0  0
 45 46  2  0  0  0
 45116  1  0  0  0
 46117  1  0  0  0
 47118  1  0  0  0
 47119  1  0  0  0
 48 56  1  0  0  0
 48 65  1  0  0  0
 48120  1  0  0  0
 49 50  1  0  0  0
 49 53  1  0  0  0
 49 64  1  0  0  0
 49121  1  0  0  0
 50 51  1  0  0  0
 50122  1  0  0  0
 50123  1  0  0  0
 51 52  1  0  0  0
 51124  1  0  0  0
 51125  1  0  0  0
 52126  1  0  0  0
 52127  1  0  0  0
 53 54  1  0  0  0
 54 55  2  0  0  0
 54128  1  0  0  0
 55 57  1  0  0  0
 55129  1  0  0  0
 56 69  2  0  0  0
 57 58  2  0  0  0
 57130  1  0  0  0
 58131  1  0  0  0
 59 60  1  0  0  0
 59 61  1  0  0  0
 59 62  1  0  0  0
 60132  1  0  0  0
 60133  1  0  0  0
 60134  1  0  0  0
 61135  1  0  0  0
 61136  1  0  0  0
 61137  1  0  0  0
 62138  1  0  0  0
 62139  1  0  0  0
 62140  1  0  0  0
 63 65  1  0  0  0
 63141  1  0  0  0
 63142  1  0  0  0
 63143  1  0  0  0
 64144  1  0  0  0
 65145  1  0  0  0
 68 73  1  0  0  0
 71 78  1  0  0  0
 71 82  2  0  0  0
 71 83  1  0  0  0
 72 79  1  0  0  0
 72 82  1  0  0  0
 72 84  2  0  0  0
 73 83  2  0  0  0
 73 84  1  0  0  0
 74 75  1  0  0  0
 74 76  1  0  0  0
 74146  1  0  0  0
 74147  1  0  0  0
 75 77  1  0  0  0
 75148  1  0  0  0
 75149  1  0  0  0
 76 85  1  0  0  0
 76150  1  0  0  0
 76151  1  0  0  0
 77 80  1  0  0  0
 77 85  1  0  0  0
 77152  1  0  0  0
 78153  1  0  0  0
 78154  1  0  0  0
 78155  1  0  0  0
 79 86  1  0  0  0
 79156  1  0  0  0
 79157  1  0  0  0
 80 81  1  0  0  0
 80158  1  0  0  0
 80159  1  0  0  0
 81 86  1  0  0  0
 81160  1  0  0  0
 81161  1  0  0  0
 86162  1  0  0  0
 86163  1  0  0  0
M  CHG  1  86   1
M  ISO  4   1 100  68 101  73 101  85 100
M  END
> <chiral flag>
0

> <version>
0

> <s_m_source_file>
/data/baiqing/PycharmProjects/Reinvent-master-3.2/result/LINK_invent/BTK/process_docking_weight1_custom_sum_contain_oxygen_bond_distance_aromatic_linkinvent_7_9_3/rearranged_h_0190.sdf

> <i_m_source_file_index>
23

> <r_mmod_Potential_Energy-OPLS-2005>
-633.263427734375

> <r_mmod_Stretch_Energy-OPLS-2005>
56.0511169433594

> <r_mmod_Bend_Energy-OPLS-2005>
147.039215087891

> <r_mmod_Torsional_Energy-OPLS-2005>
370.503173828125

> <r_mmod_Improper_Torsional_Energy-OPLS-2005>
13.0680923461914

> <r_mmod_Van_der_Waal_Energy-OPLS-2005>
178.929077148438

> <r_mmod_Electrostatic_Energy-OPLS-2005>
-982.439880371094

> <r_mmod_Solvation_Energy-OPLS-2005>
-466.806335449219

> <b_mmod_Minimization_Converged-OPLS-2005>
0

> <r_mmod_RMS_Derivative-OPLS-2005>
3.07519698143005

$$$$
23
                    3D
 Structure written by MMmdl.
169178  0  0  1  0            999 V2000
  -29.6826  -15.8742   20.9077 C   0  0  0  0  0  0
  -30.2945  -13.3830   19.7706 C   0  0  0  0  0  0
  -29.5570  -12.8276   18.4922 C   0  0  0  0  0  0
  -28.1456  -12.3346   18.8320 C   0  0  0  0  0  0
  -27.5277  -13.2931   19.8652 C   0  0  2  0  0  0
  -28.3993  -13.5652   21.0957 C   0  0  0  0  0  0
  -25.1880  -13.8188   20.5663 C   0  0  0  0  0  0
  -24.1343  -13.0338   20.9239 C   0  0  0  0  0  0
  -24.6078  -11.6858   20.8720 C   0  0  0  0  0  0
  -23.8892  -10.4228   21.0414 C   0  0  0  0  0  0
  -24.3535   -9.4183   21.9180 C   0  0  0  0  0  0
  -23.6256   -8.2196   22.0743 C   0  0  0  0  0  0
  -22.4232   -8.0223   21.3540 C   0  0  0  0  0  0
  -21.9828   -9.0162   20.4631 C   0  0  0  0  0  0
  -22.7100  -10.2054   20.3042 C   0  0  0  0  0  0
  -21.6841   -6.0696   22.5284 C   0  0  0  0  0  0
  -21.4000   -6.5617   23.8213 C   0  0  0  0  0  0
  -21.3659   -5.6775   24.9179 C   0  0  0  0  0  0
  -21.6046   -4.3039   24.7231 C   0  0  0  0  0  0
  -21.8823   -3.8124   23.4358 C   0  0  0  0  0  0
  -21.9189   -4.6929   22.3411 C   0  0  0  0  0  0
  -22.7441  -13.5129   21.1974 C   0  0  0  0  0  0
  -22.1663   -4.2125   21.0987 F   0  0  0  0  0  0
  -21.5634   -3.4533   25.7748 F   0  0  0  0  0  0
  -29.4631  -14.4252   20.6137 N   0  0  0  0  0  0
  -26.2123  -12.9396   20.2977 N   0  0  0  0  0  0
  -25.8940  -11.6509   20.5532 N   0  0  0  0  0  0
  -22.0170  -12.8092   22.0567 N   0  0  0  0  0  0
  -25.3640  -15.1929   20.4264 N   0  0  0  0  0  0
  -30.9190  -15.9607   20.6247 O   0  0  0  0  0  0
  -21.6609   -6.8819   21.4238 O   0  0  0  0  0  0
  -22.3153  -14.5460   20.6859 O   0  0  0  0  0  0
  -24.8158  -31.8345   23.2863 C   0  0  0  0  0  0
  -26.0294  -32.5153   23.9146 C   0  0  1  0  0  0
  -25.9440  -27.3462   20.2178 C   0  0  0  0  0  0
  -25.6436  -33.8834   24.2726 N   0  0  0  0  0  0
  -24.0270  -30.0468   21.7871 C   0  0  2  0  0  0
  -25.2142  -29.6587   19.6448 C   0  0  0  0  0  0
  -23.9734  -28.3995   22.4796 C   0  0  0  0  0  0
  -18.1691  -27.8349   22.8036 C   0  0  0  0  0  0
  -24.1508  -36.7311   23.2556 C   0  0  0  0  0  0
  -26.3229  -30.7628   21.5875 C   0  0  0  0  0  0
  -26.2448  -29.6312   20.5834 C   0  0  0  0  0  0
  -26.7420  -28.3596   20.8401 C   0  0  0  0  0  0
  -25.9460  -27.4680   18.8641 C   0  0  0  0  0  0
  -25.1783  -28.6366   18.6353 C   0  0  0  0  0  0
  -24.0617  -30.4373   20.2177 C   0  0  0  0  0  0
  -25.4116  -36.3193   24.0303 C   0  0  1  0  0  0
  -20.9173  -27.1112   22.7602 C   0  0  2  0  0  0
  -20.4721  -26.0438   21.9042 C   0  0  0  0  0  0
  -19.2692  -26.4299   21.1116 C   0  0  0  0  0  0
  -18.0649  -26.5680   22.0318 C   0  0  0  0  0  0
  -19.4992  -28.2406   23.1768 C   0  0  0  0  0  0
  -19.3491  -29.6070   23.7627 C   0  0  0  0  0  0
  -18.1189  -30.3370   23.9672 C   0  0  0  0  0  0
  -25.9133  -34.9574   23.5212 C   0  0  0  0  0  0
  -16.8815  -29.7871   23.6188 C   0  0  0  0  0  0
  -16.9301  -28.5222   23.0265 C   0  0  0  0  0  0
  -26.5144  -31.6914   25.1624 C   0  0  0  0  0  0
  -25.3970  -31.3827   26.1904 C   0  0  0  0  0  0
  -27.1548  -30.3389   24.7678 C   0  0  0  0  0  0
  -27.6351  -32.4860   25.8568 C   0  0  0  0  0  0
  -27.5584  -37.1838   24.8453 C   0  0  0  0  0  0
  -22.7729  -27.2377   22.3716 N   0  0  0  0  0  0
  -26.4308  -37.3850   23.9380 N   0  0  0  0  0  0
  -25.0587  -30.8924   22.3343 N   0  0  0  0  0  0
  -24.6973  -28.3640   23.4273 O   0  0  0  0  0  0
  -24.4646  -27.2453   20.3529 O   0  0  0  0  0  0
  -26.5527  -34.8937   22.4674 O   0  0  0  0  0  0
  -23.6898  -32.1046   23.7438 O   0  0  0  0  0  0
  -24.4626  -23.4692   23.6823 C   0  0  0  0  0  0
  -23.2002  -22.9709   24.1581 C   0  0  0  0  0  0
  -25.3872  -22.0320   23.1665 C   0  0  0  0  0  0
  -23.4940  -20.7577   23.6428 C   0  0  0  0  0  0
  -27.5605  -18.2238   20.9675 C   0  0  0  0  0  0
  -28.8412  -18.5145   22.3604 C   0  0  0  0  0  0
  -27.2765  -19.3379   22.3154 C   0  0  0  0  0  0
  -22.1475  -23.8371   24.8288 C   0  0  0  0  0  0
  -22.8921  -19.3768   23.5090 C   0  0  0  0  0  0
  -24.1846  -25.4574   23.9636 C   0  0  0  0  0  0
  -22.8959  -27.0841   24.7138 C   0  0  0  0  0  0
  -21.6989  -29.2486   21.9592 C   0  0  0  0  0  0
  -22.7939  -28.2294   20.2682 C   0  0  0  0  0  0
  -22.7422  -21.7152   24.1022 N   0  0  0  0  0  0
  -24.7244  -20.8787   23.2512 N   0  0  0  0  0  0
  -28.7049  -17.1145   21.4677 N   0  0  0  0  0  0
  -26.6902  -21.1058   22.5607 N   0  0  0  0  0  0
  -22.0760  -28.7894   23.9750 N   0  3  0  0  0  0
  -31.2235  -13.8474   19.4393 H   0  0  0  0  0  0
  -30.6154  -12.5569   20.4087 H   0  0  0  0  0  0
  -30.1416  -12.0377   18.0207 H   0  0  0  0  0  0
  -29.4830  -13.6328   17.7600 H   0  0  0  0  0  0
  -28.2143  -11.3315   19.2522 H   0  0  0  0  0  0
  -27.5296  -12.2594   17.9352 H   0  0  0  0  0  0
  -27.4171  -14.2296   19.3173 H   0  0  0  0  0  0
  -28.7437  -12.6496   21.5792 H   0  0  0  0  0  0
  -27.8352  -14.1149   21.8525 H   0  0  0  0  0  0
  -25.2687   -9.5688   22.4737 H   0  0  0  0  0  0
  -23.9984   -7.4587   22.7455 H   0  0  0  0  0  0
  -21.0767   -8.8641   19.8945 H   0  0  0  0  0  0
  -22.3549  -10.9577   19.6148 H   0  0  0  0  0  0
  -21.1985   -7.6130   23.9708 H   0  0  0  0  0  0
  -21.1484   -6.0511   25.9081 H   0  0  0  0  0  0
  -22.0607   -2.7592   23.2860 H   0  0  0  0  0  0
  -22.3837  -11.9740   22.4881 H   0  0  0  0  0  0
  -21.0807  -13.1085   22.2881 H   0  0  0  0  0  0
  -24.6079  -15.8541   20.5634 H   0  0  0  0  0  0
  -26.2166  -15.6255   20.0972 H   0  0  0  0  0  0
  -26.8623  -32.5776   23.2164 H   0  0  0  0  0  0
  -25.0621  -33.9990   25.0902 H   0  0  0  0  0  0
  -23.2692  -30.7285   22.0776 H   0  0  0  0  0  0
  -23.3801  -35.9614   23.3213 H   0  0  0  0  0  0
  -24.3617  -36.8898   22.1974 H   0  0  0  0  0  0
  -23.7202  -37.6502   23.6523 H   0  0  0  0  0  0
  -26.5445  -31.6892   21.0548 H   0  0  0  0  0  0
  -27.1834  -30.5733   22.2190 H   0  0  0  0  0  0
  -27.2799  -28.1694   21.7591 H   0  0  0  0  0  0
  -25.6762  -26.6375   18.2272 H   0  0  0  0  0  0
  -24.4681  -28.6630   17.8248 H   0  0  0  0  0  0
  -24.3386  -31.4897   20.1121 H   0  0  0  0  0  0
  -23.1279  -30.5058   19.6664 H   0  0  0  0  0  0
  -25.1251  -36.2115   25.0783 H   0  0  0  0  0  0
  -20.8306  -26.5768   23.6965 H   0  0  0  0  0  0
  -20.2095  -25.1529   22.4787 H   0  0  0  0  0  0
  -21.2636  -25.6971   21.2404 H   0  0  0  0  0  0
  -19.0608  -25.6452   20.3781 H   0  0  0  0  0  0
  -19.4321  -27.3294   20.5232 H   0  0  0  0  0  0
  -17.1528  -26.5620   21.4313 H   0  0  0  0  0  0
  -17.9776  -25.7273   22.7227 H   0  0  0  0  0  0
  -20.1948  -30.2052   24.0559 H   0  0  0  0  0  0
  -18.1438  -31.3365   24.3800 H   0  0  0  0  0  0
  -15.9489  -30.3147   23.7761 H   0  0  0  0  0  0
  -15.9949  -28.0815   22.7076 H   0  0  0  0  0  0
  -24.6655  -30.6708   25.8056 H   0  0  0  0  0  0
  -24.8583  -32.2821   26.4904 H   0  0  0  0  0  0
  -25.8063  -30.9372   27.0977 H   0  0  0  0  0  0
  -26.4787  -29.6790   24.2437 H   0  0  0  0  0  0
  -27.4678  -29.7891   25.6567 H   0  0  0  0  0  0
  -28.0546  -30.4699   24.1673 H   0  0  0  0  0  0
  -27.2694  -33.4160   26.2927 H   0  0  0  0  0  0
  -28.4310  -32.7461   25.1574 H   0  0  0  0  0  0
  -28.0888  -31.9179   26.6698 H   0  0  0  0  0  0
  -28.2605  -38.0140   24.7588 H   0  0  0  0  0  0
  -28.1112  -36.2700   24.6230 H   0  0  0  0  0  0
  -27.2292  -37.1381   25.8845 H   0  0  0  0  0  0
  -23.1869  -26.3186   22.4351 H   0  0  0  0  0  0
  -26.0230  -38.2951   24.1315 H   0  0  0  0  0  0
  -27.8981  -18.7692   20.0811 H   0  0  0  0  0  0
  -26.6202  -17.7514   20.6845 H   0  0  0  0  0  0
  -29.1190  -18.3121   23.3945 H   0  0  0  0  0  0
  -29.6316  -19.1601   21.9692 H   0  0  0  0  0  0
  -26.6378  -18.7939   23.0138 H   0  0  0  0  0  0
  -21.7514  -24.5690   24.1344 H   0  0  0  0  0  0
  -22.5571  -24.3169   25.7177 H   0  0  0  0  0  0
  -21.2803  -23.2581   25.1656 H   0  0  0  0  0  0
  -22.2617  -19.1285   24.3612 H   0  0  0  0  0  0
  -23.6661  -18.6113   23.4340 H   0  0  0  0  0  0
  -22.2910  -19.3197   22.6015 H   0  0  0  0  0  0
  -24.6600  -25.8164   23.0538 H   0  0  0  0  0  0
  -25.0092  -25.5986   24.6644 H   0  0  0  0  0  0
  -23.4885  -27.4904   25.5336 H   0  0  0  0  0  0
  -22.1176  -26.6096   25.3103 H   0  0  0  0  0  0
  -20.7271  -29.1035   21.5049 H   0  0  0  0  0  0
  -21.4625  -30.3086   21.8464 H   0  0  0  0  0  0
  -22.1360  -27.3887   20.0371 H   0  0  0  0  0  0
  -22.6045  -28.6486   19.2841 H   0  0  0  0  0  0
  -27.4178  -21.7559   22.2710 H   0  0  0  0  0  0
  -22.7039  -29.5102   24.3026 H   0  0  0  0  0  0
  -21.2144  -28.9368   24.4808 H   0  0  0  0  0  0
  1 25  1  0  0  0
  1 30  2  0  0  0
  1 86  1  0  0  0
  2  3  1  0  0  0
  2 25  1  0  0  0
  2 89  1  0  0  0
  2 90  1  0  0  0
  3  4  1  0  0  0
  3 91  1  0  0  0
  3 92  1  0  0  0
  4  5  1  0  0  0
  4 93  1  0  0  0
  4 94  1  0  0  0
  5  6  1  0  0  0
  5 26  1  0  0  0
  5 95  1  0  0  0
  6 25  1  0  0  0
  6 96  1  0  0  0
  6 97  1  0  0  0
  7  8  2  0  0  0
  7 26  1  0  0  0
  7 29  1  0  0  0
  8  9  1  0  0  0
  8 22  1  0  0  0
  9 10  1  0  0  0
  9 27  2  0  0  0
 10 11  2  0  0  0
 10 15  1  0  0  0
 11 12  1  0  0  0
 11 98  1  0  0  0
 12 13  2  0  0  0
 12 99  1  0  0  0
 13 14  1  0  0  0
 13 31  1  0  0  0
 14 15  2  0  0  0
 14100  1  0  0  0
 15101  1  0  0  0
 16 17  2  0  0  0
 16 21  1  0  0  0
 16 31  1  0  0  0
 17 18  1  0  0  0
 17102  1  0  0  0
 18 19  2  0  0  0
 18103  1  0  0  0
 19 20  1  0  0  0
 19 24  1  0  0  0
 20 21  2  0  0  0
 20104  1  0  0  0
 21 23  1  0  0  0
 22 28  1  0  0  0
 22 32  2  0  0  0
 26 27  1  0  0  0
 28105  1  0  0  0
 28106  1  0  0  0
 29107  1  0  0  0
 29108  1  0  0  0
 33 34  1  0  0  0
 33 66  1  0  0  0
 33 70  2  0  0  0
 34 36  1  0  0  0
 34 59  1  0  0  0
 34109  1  0  0  0
 35 44  2  0  0  0
 35 45  1  0  0  0
 35 68  1  0  0  0
 36 56  1  0  0  0
 36110  1  0  0  0
 37 39  1  0  0  0
 37 47  1  0  0  0
 37 66  1  0  0  0
 37111  1  0  0  0
 38 43  2  0  0  0
 38 46  1  0  0  0
 38 47  1  0  0  0
 39 64  1  0  0  0
 39 67  2  0  0  0
 40 52  1  0  0  0
 40 53  2  0  0  0
 40 58  1  0  0  0
 41112  1  0  0  0
 41113  1  0  0  0
 41114  1  0  0  0
 41 48  1  0  0  0
 42 43  1  0  0  0
 42 66  1  0  0  0
 42115  1  0  0  0
 42116  1  0  0  0
 43 44  1  0  0  0
 44117  1  0  0  0
 45 46  2  0  0  0
 45118  1  0  0  0
 46119  1  0  0  0
 47120  1  0  0  0
 47121  1  0  0  0
 48 56  1  0  0  0
 48 65  1  0  0  0
 48122  1  0  0  0
 49 50  1  0  0  0
 49 53  1  0  0  0
 49 64  1  0  0  0
 49123  1  0  0  0
 50 51  1  0  0  0
 50124  1  0  0  0
 50125  1  0  0  0
 51 52  1  0  0  0
 51126  1  0  0  0
 51127  1  0  0  0
 52128  1  0  0  0
 52129  1  0  0  0
 53 54  1  0  0  0
 54 55  2  0  0  0
 54130  1  0  0  0
 55 57  1  0  0  0
 55131  1  0  0  0
 56 69  2  0  0  0
 57 58  2  0  0  0
 57132  1  0  0  0
 58133  1  0  0  0
 59 60  1  0  0  0
 59 61  1  0  0  0
 59 62  1  0  0  0
 60134  1  0  0  0
 60135  1  0  0  0
 60136  1  0  0  0
 61137  1  0  0  0
 61138  1  0  0  0
 61139  1  0  0  0
 62140  1  0  0  0
 62141  1  0  0  0
 62142  1  0  0  0
 63 65  1  0  0  0
 63143  1  0  0  0
 63144  1  0  0  0
 63145  1  0  0  0
 64146  1  0  0  0
 65147  1  0  0  0
 68 83  1  0  0  0
 71 72  2  0  0  0
 71 73  1  0  0  0
 71 80  1  0  0  0
 72 78  1  0  0  0
 72 84  1  0  0  0
 73 85  2  0  0  0
 73 87  1  0  0  0
 74 79  1  0  0  0
 74 84  2  0  0  0
 74 85  1  0  0  0
 75 77  1  0  0  0
 75 86  1  0  0  0
 75148  1  0  0  0
 75149  1  0  0  0
 76 77  1  0  0  0
 76 86  1  0  0  0
 76150  1  0  0  0
 76151  1  0  0  0
 77 87  1  0  0  0
 77152  1  0  0  0
 78153  1  0  0  0
 78154  1  0  0  0
 78155  1  0  0  0
 79156  1  0  0  0
 79157  1  0  0  0
 79158  1  0  0  0
 80 81  1  0  0  0
 80159  1  0  0  0
 80160  1  0  0  0
 81 88  1  0  0  0
 81161  1  0  0  0
 81162  1  0  0  0
 82 83  1  0  0  0
 82 88  1  0  0  0
 82163  1  0  0  0
 82164  1  0  0  0
 83165  1  0  0  0
 83166  1  0  0  0
 87167  1  0  0  0
 88168  1  0  0  0
 88169  1  0  0  0
M  CHG  1  88   1
M  ISO  4   1 100  68 101  83 101  86 100
M  END
> <chiral flag>
0

> <version>
0

> <s_m_source_file>
/data/baiqing/PycharmProjects/Reinvent-master-3.2/result/LINK_invent/BTK/process_docking_weight1_custom_sum_contain_oxygen_bond_distance_aromatic_linkinvent_7_9_3/rearranged_h_0190.sdf

> <i_m_source_file_index>
24

> <r_mmod_Potential_Energy-OPLS-2005>
13423.96484375

> <r_mmod_Stretch_Energy-OPLS-2005>
5197.05078125

> <r_mmod_Bend_Energy-OPLS-2005>
1928.1669921875

> <r_mmod_Torsional_Energy-OPLS-2005>
675.874389648438

> <r_mmod_Improper_Torsional_Energy-OPLS-2005>
72.8788375854492

> <r_mmod_Van_der_Waal_Energy-OPLS-2005>
1815.9609375

> <r_mmod_Electrostatic_Energy-OPLS-2005>
-776.284606933594

> <r_mmod_Solvation_Energy-OPLS-2005>
-441.865447998047

> <b_mmod_Minimization_Converged-OPLS-2005>
0

> <r_mmod_RMS_Derivative-OPLS-2005>
7.59043598175049

$$$$
24
                    3D
 Structure written by MMmdl.
151160  0  0  1  0            999 V2000
  -30.6304  -14.7381   20.4729 C   0  0  0  0  0  0
  -30.4325  -12.4556   19.4710 C   0  0  0  0  0  0
  -29.5090  -12.5074   18.2344 C   0  0  0  0  0  0
  -28.0360  -12.3310   18.6503 C   0  0  0  0  0  0
  -27.6426  -13.2326   19.8509 C   0  0  2  0  0  0
  -28.6889  -13.1701   20.9853 C   0  0  0  0  0  0
  -25.2514  -13.8198   20.5699 C   0  0  0  0  0  0
  -24.1807  -13.0442   20.9212 C   0  0  0  0  0  0
  -24.6399  -11.6920   20.8752 C   0  0  0  0  0  0
  -23.9075  -10.4295   21.0408 C   0  0  0  0  0  0
  -24.3623   -9.4208   21.9185 C   0  0  0  0  0  0
  -23.6297   -8.2244   22.0754 C   0  0  0  0  0  0
  -22.4279   -8.0283   21.3544 C   0  0  0  0  0  0
  -21.9916   -9.0257   20.4646 C   0  0  0  0  0  0
  -22.7247  -10.2136   20.3057 C   0  0  0  0  0  0
  -21.6854   -6.0737   22.5279 C   0  0  0  0  0  0
  -21.4015   -6.5640   23.8212 C   0  0  0  0  0  0
  -21.3660   -5.6793   24.9174 C   0  0  0  0  0  0
  -21.6044   -4.3056   24.7224 C   0  0  0  0  0  0
  -21.8819   -3.8148   23.4345 C   0  0  0  0  0  0
  -21.9193   -4.6965   22.3402 C   0  0  0  0  0  0
  -22.7826  -13.5222   21.1868 C   0  0  0  0  0  0
  -22.1662   -4.2151   21.0979 F   0  0  0  0  0  0
  -21.5628   -3.4539   25.7737 F   0  0  0  0  0  0
  -29.9900  -13.5203   20.4012 N   0  0  0  0  0  0
  -26.2945  -12.9409   20.3290 N   0  0  0  0  0  0
  -25.9331  -11.6550   20.5760 N   0  0  0  0  0  0
  -22.0472  -12.8210   22.0423 N   0  0  0  0  0  0
  -25.4195  -15.1923   20.4104 N   0  0  0  0  0  0
  -31.8181  -14.8254   20.1512 O   0  0  0  0  0  0
  -21.6641   -6.8881   21.4241 O   0  0  0  0  0  0
  -22.3511  -14.5528   20.6714 O   0  0  0  0  0  0
  -24.6346  -31.8558   23.2013 C   0  0  0  0  0  0
  -25.9166  -32.4757   23.8353 C   0  0  1  0  0  0
  -27.2077  -27.2407   20.1182 C   0  0  0  0  0  0
  -25.5956  -33.8560   24.2268 N   0  0  0  0  0  0
  -23.4312  -30.4837   21.5460 C   0  0  2  0  0  0
  -24.8764  -28.9412   20.1075 C   0  0  0  0  0  0
  -22.7521  -29.4612   22.4903 C   0  0  0  0  0  0
  -18.0297  -28.1390   22.8483 C   0  0  0  0  0  0
  -24.1491  -36.7280   23.2638 C   0  0  0  0  0  0
  -25.9832  -30.7604   21.3894 C   0  0  0  0  0  0
  -26.0529  -29.3851   20.7248 C   0  0  0  0  0  0
  -27.2207  -28.5474   20.7243 C   0  0  0  0  0  0
  -26.0060  -26.8947   19.4487 C   0  0  0  0  0  0
  -24.8602  -27.7040   19.4584 C   0  0  0  0  0  0
  -23.6500  -29.8298   20.1592 C   0  0  0  0  0  0
  -25.4118  -36.3069   24.0325 C   0  0  1  0  0  0
  -20.5905  -28.3708   23.1255 C   0  0  2  0  0  0
  -20.6787  -26.9422   22.5400 C   0  0  0  0  0  0
  -19.5757  -26.6384   21.5210 C   0  0  0  0  0  0
  -18.1939  -26.7930   22.1625 C   0  0  0  0  0  0
  -19.1552  -28.8865   23.2863 C   0  0  0  0  0  0
  -18.9471  -30.1464   23.8885 C   0  0  0  0  0  0
  -17.6469  -30.6589   24.0561 C   0  0  0  0  0  0
  -25.9063  -34.9440   23.5095 C   0  0  0  0  0  0
  -16.5360  -29.9085   23.6334 C   0  0  0  0  0  0
  -16.7283  -28.6503   23.0355 C   0  0  0  0  0  0
  -26.4517  -31.6584   25.0749 C   0  0  0  0  0  0
  -25.3726  -31.3746   26.1459 C   0  0  0  0  0  0
  -27.0367  -30.2991   24.6266 C   0  0  0  0  0  0
  -27.6064  -32.4331   25.7523 C   0  0  0  0  0  0
  -27.5579  -37.1798   24.8465 C   0  0  0  0  0  0
  -21.4226  -29.3055   22.3644 N   0  0  0  0  0  0
  -26.4290  -37.3770   23.9409 N   0  0  0  0  0  0
  -24.7022  -31.0509   22.1008 N   0  0  0  0  0  0
  -23.4214  -28.8133   23.2993 O   0  0  0  0  0  0
  -28.2612  -26.2811   20.2009 O   0  0  0  0  0  0
  -26.5628  -34.8913   22.4660 O   0  0  0  0  0  0
  -23.5489  -32.1394   23.7290 O   0  0  0  0  0  0
  -29.2720  -22.7252   19.1610 C   0  0  0  0  0  0
  -28.5833  -22.7467   21.3812 C   0  0  0  0  0  0
  -28.6930  -23.5054   20.1904 C   0  0  0  0  0  0
  -29.4959  -20.7645   20.4609 C   0  0  0  0  0  0
  -29.5845  -18.3926   21.6095 C   0  0  0  0  0  0
  -29.9921  -18.3299   19.5867 C   0  0  0  0  0  0
  -30.3704  -17.3370   20.7459 C   0  0  0  0  0  0
  -27.8790  -24.8505   19.8955 C   0  0  0  0  0  0
  -29.6564  -21.4151   19.3035 N   0  0  0  0  0  0
  -28.9823  -21.4349   21.5010 N   0  0  0  0  0  0
  -30.0285  -19.3914   20.6164 N   0  0  0  0  0  0
  -29.8875  -15.8838   20.7120 N   0  0  0  0  0  0
  -31.4731  -12.5775   19.1657 H   0  0  0  0  0  0
  -30.3766  -11.4796   19.9557 H   0  0  0  0  0  0
  -29.7908  -11.7336   17.5190 H   0  0  0  0  0  0
  -29.6345  -13.4613   17.7198 H   0  0  0  0  0  0
  -27.8944  -11.2826   18.9152 H   0  0  0  0  0  0
  -27.3772  -12.5209   17.8021 H   0  0  0  0  0  0
  -27.6362  -14.2536   19.4689 H   0  0  0  0  0  0
  -28.7245  -12.1736   21.4279 H   0  0  0  0  0  0
  -28.4247  -13.8540   21.7935 H   0  0  0  0  0  0
  -25.2768   -9.5684   22.4762 H   0  0  0  0  0  0
  -24.0005   -7.4635   22.7473 H   0  0  0  0  0  0
  -21.0848   -8.8778   19.8952 H   0  0  0  0  0  0
  -22.3705  -10.9676   19.6167 H   0  0  0  0  0  0
  -21.2008   -7.6148   23.9716 H   0  0  0  0  0  0
  -21.1481   -6.0523   25.9077 H   0  0  0  0  0  0
  -22.0598   -2.7610   23.2845 H   0  0  0  0  0  0
  -22.4092  -11.9873   22.4811 H   0  0  0  0  0  0
  -21.1089  -13.1231   22.2628 H   0  0  0  0  0  0
  -24.6473  -15.8419   20.5137 H   0  0  0  0  0  0
  -26.2582  -15.6311   20.0533 H   0  0  0  0  0  0
  -26.7231  -32.5396   23.1090 H   0  0  0  0  0  0
  -25.0106  -33.9699   25.0415 H   0  0  0  0  0  0
  -22.7285  -31.3077   21.4048 H   0  0  0  0  0  0
  -23.3757  -35.9608   23.3297 H   0  0  0  0  0  0
  -24.3581  -36.8906   22.2053 H   0  0  0  0  0  0
  -23.7240  -37.6478   23.6665 H   0  0  0  0  0  0
  -26.1320  -31.5234   20.6240 H   0  0  0  0  0  0
  -26.8573  -30.8019   22.0275 H   0  0  0  0  0  0
  -28.1135  -28.8777   21.2367 H   0  0  0  0  0  0
  -25.8884  -25.9646   18.9160 H   0  0  0  0  0  0
  -23.9640  -27.3627   18.9585 H   0  0  0  0  0  0
  -23.7782  -30.6121   19.4101 H   0  0  0  0  0  0
  -22.7667  -29.2691   19.8482 H   0  0  0  0  0  0
  -25.1299  -36.1915   25.0818 H   0  0  0  0  0  0
  -20.9998  -28.3287   24.1375 H   0  0  0  0  0  0
  -20.5692  -26.2319   23.3608 H   0  0  0  0  0  0
  -21.6653  -26.7445   22.1189 H   0  0  0  0  0  0
  -19.6920  -25.6292   21.1246 H   0  0  0  0  0  0
  -19.6690  -27.3189   20.6734 H   0  0  0  0  0  0
  -17.4206  -26.6673   21.4031 H   0  0  0  0  0  0
  -18.0344  -26.0075   22.9026 H   0  0  0  0  0  0
  -19.7947  -30.7284   24.2248 H   0  0  0  0  0  0
  -17.5024  -31.6268   24.5165 H   0  0  0  0  0  0
  -15.5361  -30.2983   23.7666 H   0  0  0  0  0  0
  -15.8682  -28.0817   22.7079 H   0  0  0  0  0  0
  -24.5906  -30.7090   25.7785 H   0  0  0  0  0  0
  -24.8912  -32.2920   26.4857 H   0  0  0  0  0  0
  -25.8030  -30.8940   27.0253 H   0  0  0  0  0  0
  -26.2966  -29.6733   24.1265 H   0  0  0  0  0  0
  -27.4000  -29.7262   25.4808 H   0  0  0  0  0  0
  -27.8869  -30.4247   23.9557 H   0  0  0  0  0  0
  -27.2670  -33.3644   26.2069 H   0  0  0  0  0  0
  -28.3891  -32.6869   25.0362 H   0  0  0  0  0  0
  -28.0713  -31.8475   26.5465 H   0  0  0  0  0  0
  -28.2593  -38.0099   24.7515 H   0  0  0  0  0  0
  -28.1079  -36.2629   24.6290 H   0  0  0  0  0  0
  -27.2297  -37.1443   25.8868 H   0  0  0  0  0  0
  -20.9413  -29.8793   21.6860 H   0  0  0  0  0  0
  -26.0167  -38.2842   24.1411 H   0  0  0  0  0  0
  -29.3553  -23.1267   18.1617 H   0  0  0  0  0  0
  -28.0859  -23.1653   22.2437 H   0  0  0  0  0  0
  -29.9881  -18.5552   22.6095 H   0  0  0  0  0  0
  -28.5002  -18.2630   21.6181 H   0  0  0  0  0  0
  -28.9946  -18.1844   19.1669 H   0  0  0  0  0  0
  -30.7534  -18.4385   18.8134 H   0  0  0  0  0  0
  -31.4408  -17.3938   20.9628 H   0  0  0  0  0  0
  -26.9242  -24.6606   20.3891 H   0  0  0  0  0  0
  -27.6833  -24.8122   18.8231 H   0  0  0  0  0  0
  -28.9101  -15.7349   20.9105 H   0  0  0  0  0  0
  1 25  1  0  0  0
  1 30  2  0  0  0
  1 82  1  0  0  0
  2  3  1  0  0  0
  2 25  1  0  0  0
  2 83  1  0  0  0
  2 84  1  0  0  0
  3  4  1  0  0  0
  3 85  1  0  0  0
  3 86  1  0  0  0
  4  5  1  0  0  0
  4 87  1  0  0  0
  4 88  1  0  0  0
  5  6  1  0  0  0
  5 26  1  0  0  0
  5 89  1  0  0  0
  6 25  1  0  0  0
  6 90  1  0  0  0
  6 91  1  0  0  0
  7  8  2  0  0  0
  7 26  1  0  0  0
  7 29  1  0  0  0
  8  9  1  0  0  0
  8 22  1  0  0  0
  9 10  1  0  0  0
  9 27  2  0  0  0
 10 11  2  0  0  0
 10 15  1  0  0  0
 11 12  1  0  0  0
 11 92  1  0  0  0
 12 13  2  0  0  0
 12 93  1  0  0  0
 13 14  1  0  0  0
 13 31  1  0  0  0
 14 15  2  0  0  0
 14 94  1  0  0  0
 15 95  1  0  0  0
 16 17  2  0  0  0
 16 21  1  0  0  0
 16 31  1  0  0  0
 17 18  1  0  0  0
 17 96  1  0  0  0
 18 19  2  0  0  0
 18 97  1  0  0  0
 19 20  1  0  0  0
 19 24  1  0  0  0
 20 21  2  0  0  0
 20 98  1  0  0  0
 21 23  1  0  0  0
 22 28  1  0  0  0
 22 32  2  0  0  0
 26 27  1  0  0  0
 28 99  1  0  0  0
 28100  1  0  0  0
 29101  1  0  0  0
 29102  1  0  0  0
 33 34  1  0  0  0
 33 66  1  0  0  0
 33 70  2  0  0  0
 34 36  1  0  0  0
 34 59  1  0  0  0
 34103  1  0  0  0
 35 44  2  0  0  0
 35 45  1  0  0  0
 35 68  1  0  0  0
 36 56  1  0  0  0
 36104  1  0  0  0
 37 39  1  0  0  0
 37 47  1  0  0  0
 37 66  1  0  0  0
 37105  1  0  0  0
 38 43  2  0  0  0
 38 46  1  0  0  0
 38 47  1  0  0  0
 39 64  1  0  0  0
 39 67  2  0  0  0
 40 52  1  0  0  0
 40 53  2  0  0  0
 40 58  1  0  0  0
 41106  1  0  0  0
 41107  1  0  0  0
 41108  1  0  0  0
 41 48  1  0  0  0
 42 43  1  0  0  0
 42 66  1  0  0  0
 42109  1  0  0  0
 42110  1  0  0  0
 43 44  1  0  0  0
 44111  1  0  0  0
 45 46  2  0  0  0
 45112  1  0  0  0
 46113  1  0  0  0
 47114  1  0  0  0
 47115  1  0  0  0
 48 56  1  0  0  0
 48 65  1  0  0  0
 48116  1  0  0  0
 49 50  1  0  0  0
 49 53  1  0  0  0
 49 64  1  0  0  0
 49117  1  0  0  0
 50 51  1  0  0  0
 50118  1  0  0  0
 50119  1  0  0  0
 51 52  1  0  0  0
 51120  1  0  0  0
 51121  1  0  0  0
 52122  1  0  0  0
 52123  1  0  0  0
 53 54  1  0  0  0
 54 55  2  0  0  0
 54124  1  0  0  0
 55 57  1  0  0  0
 55125  1  0  0  0
 56 69  2  0  0  0
 57 58  2  0  0  0
 57126  1  0  0  0
 58127  1  0  0  0
 59 60  1  0  0  0
 59 61  1  0  0  0
 59 62  1  0  0  0
 60128  1  0  0  0
 60129  1  0  0  0
 60130  1  0  0  0
 61131  1  0  0  0
 61132  1  0  0  0
 61133  1  0  0  0
 62134  1  0  0  0
 62135  1  0  0  0
 62136  1  0  0  0
 63 65  1  0  0  0
 63137  1  0  0  0
 63138  1  0  0  0
 63139  1  0  0  0
 64140  1  0  0  0
 65141  1  0  0  0
 68 78  1  0  0  0
 71 73  2  0  0  0
 71 79  1  0  0  0
 71142  1  0  0  0
 72 73  1  0  0  0
 72 80  2  0  0  0
 72143  1  0  0  0
 73 78  1  0  0  0
 74 79  2  0  0  0
 74 80  1  0  0  0
 74 81  1  0  0  0
 75 77  1  0  0  0
 75 81  1  0  0  0
 75144  1  0  0  0
 75145  1  0  0  0
 76 77  1  0  0  0
 76 81  1  0  0  0
 76146  1  0  0  0
 76147  1  0  0  0
 77 82  1  0  0  0
 77148  1  0  0  0
 78149  1  0  0  0
 78150  1  0  0  0
 82151  1  0  0  0
M  ISO  4   1 100  68 101  78 101  82 100
M  END
> <chiral flag>
0

> <version>
0

> <s_m_source_file>
/data/baiqing/PycharmProjects/Reinvent-master-3.2/result/LINK_invent/BTK/process_docking_weight1_custom_sum_contain_oxygen_bond_distance_aromatic_linkinvent_7_9_3/rearranged_h_0190.sdf

> <i_m_source_file_index>
25

> <r_mmod_Potential_Energy-OPLS-2005>
-297.217926025391

> <r_mmod_Stretch_Energy-OPLS-2005>
109.412536621094

> <r_mmod_Bend_Energy-OPLS-2005>
237.786651611328

> <r_mmod_Torsional_Energy-OPLS-2005>
243.891204833984

> <r_mmod_Improper_Torsional_Energy-OPLS-2005>
15.4212522506714

> <r_mmod_Van_der_Waal_Energy-OPLS-2005>
157.79573059082

> <r_mmod_Electrostatic_Energy-OPLS-2005>
-895.6767578125

> <r_mmod_Solvation_Energy-OPLS-2005>
-261.799255371094

> <b_mmod_Minimization_Converged-OPLS-2005>
0

> <r_mmod_RMS_Derivative-OPLS-2005>
0.113247133791447

$$$$
25
                    3D
 Structure written by MMmdl.
153162  0  0  1  0            999 V2000
  -30.4610  -15.3363   20.3455 C   0  0  0  0  0  0
  -30.4211  -12.8703   19.5104 C   0  0  0  0  0  0
  -29.5219  -12.5643   18.2882 C   0  0  0  0  0  0
  -28.0904  -12.2618   18.7493 C   0  0  0  0  0  0
  -27.6018  -13.2772   19.8123 C   0  0  2  0  0  0
  -28.6334  -13.5246   20.9336 C   0  0  0  0  0  0
  -25.2385  -13.8240   20.5799 C   0  0  0  0  0  0
  -24.1724  -13.0436   20.9282 C   0  0  0  0  0  0
  -24.6395  -11.6935   20.8785 C   0  0  0  0  0  0
  -23.9102  -10.4282   21.0427 C   0  0  0  0  0  0
  -24.3645   -9.4181   21.9191 C   0  0  0  0  0  0
  -23.6317   -8.2219   22.0744 C   0  0  0  0  0  0
  -22.4300   -8.0263   21.3546 C   0  0  0  0  0  0
  -21.9946   -9.0241   20.4653 C   0  0  0  0  0  0
  -22.7272  -10.2126   20.3077 C   0  0  0  0  0  0
  -21.6842   -6.0745   22.5289 C   0  0  0  0  0  0
  -21.3992   -6.5650   23.8212 C   0  0  0  0  0  0
  -21.3659   -5.6804   24.9177 C   0  0  0  0  0  0
  -21.6065   -4.3068   24.7220 C   0  0  0  0  0  0
  -21.8826   -3.8168   23.4337 C   0  0  0  0  0  0
  -21.9184   -4.6984   22.3397 C   0  0  0  0  0  0
  -22.7747  -13.5176   21.1902 C   0  0  0  0  0  0
  -22.1665   -4.2169   21.0977 F   0  0  0  0  0  0
  -21.5643   -3.4550   25.7734 F   0  0  0  0  0  0
  -29.8398  -14.0494   20.2687 N   0  0  0  0  0  0
  -26.2794  -12.9523   20.3238 N   0  0  0  0  0  0
  -25.9326  -11.6632   20.5753 N   0  0  0  0  0  0
  -22.0433  -12.8122   22.0459 N   0  0  0  0  0  0
  -25.4096  -15.1956   20.4283 N   0  0  0  0  0  0
  -31.6924  -15.2265   20.2156 O   0  0  0  0  0  0
  -21.6661   -6.8866   21.4240 O   0  0  0  0  0  0
  -22.3421  -14.5463   20.6721 O   0  0  0  0  0  0
  -24.6642  -31.8189   23.1711 C   0  0  0  0  0  0
  -25.9311  -32.4558   23.8162 C   0  0  1  0  0  0
  -27.2007  -26.8673   20.1807 C   0  0  0  0  0  0
  -25.5963  -33.8362   24.2055 N   0  0  0  0  0  0
  -23.4802  -30.4283   21.5238 C   0  0  2  0  0  0
  -24.9322  -28.8112   20.1138 C   0  0  0  0  0  0
  -22.7673  -29.4394   22.4826 C   0  0  0  0  0  0
  -18.0310  -28.1407   22.8457 C   0  0  0  0  0  0
  -24.1483  -36.7186   23.2657 C   0  0  0  0  0  0
  -26.0535  -30.6001   21.4152 C   0  0  0  0  0  0
  -26.1175  -29.1841   20.7615 C   0  0  0  0  0  0
  -27.2443  -28.2333   20.7747 C   0  0  0  0  0  0
  -25.9964  -26.6833   19.4604 C   0  0  0  0  0  0
  -24.8984  -27.5790   19.4476 C   0  0  0  0  0  0
  -23.7220  -29.7465   20.1497 C   0  0  0  0  0  0
  -25.4134  -36.2941   24.0292 C   0  0  1  0  0  0
  -20.5939  -28.3726   23.1226 C   0  0  2  0  0  0
  -20.6785  -26.9395   22.5455 C   0  0  0  0  0  0
  -19.5780  -26.6349   21.5228 C   0  0  0  0  0  0
  -18.1937  -26.7977   22.1551 C   0  0  0  0  0  0
  -19.1576  -28.8879   23.2833 C   0  0  0  0  0  0
  -18.9495  -30.1478   23.8866 C   0  0  0  0  0  0
  -17.6491  -30.6576   24.0565 C   0  0  0  0  0  0
  -25.9094  -34.9324   23.5008 C   0  0  0  0  0  0
  -16.5384  -29.9080   23.6313 C   0  0  0  0  0  0
  -16.7290  -28.6503   23.0316 C   0  0  0  0  0  0
  -26.4548  -31.6532   25.0710 C   0  0  0  0  0  0
  -25.3656  -31.3804   26.1360 C   0  0  0  0  0  0
  -27.0465  -30.2889   24.6493 C   0  0  0  0  0  0
  -27.6019  -32.4373   25.7515 C   0  0  0  0  0  0
  -27.5549  -37.1759   24.8475 C   0  0  0  0  0  0
  -21.4349  -29.3016   22.3581 N   0  0  0  0  0  0
  -26.4282  -37.3679   23.9380 N   0  0  0  0  0  0
  -24.7547  -30.9780   22.0896 N   0  0  0  0  0  0
  -23.4204  -28.7961   23.3091 O   0  0  0  0  0  0
  -28.1834  -25.7192   20.1849 O   0  0  0  0  0  0
  -26.5720  -34.8870   22.4611 O   0  0  0  0  0  0
  -23.5710  -32.1210   23.6771 O   0  0  0  0  0  0
  -26.3404  -22.7787   21.1282 C   0  0  0  0  0  0
  -28.2494  -21.7226   20.4515 C   0  0  0  0  0  0
  -27.8885  -24.2401   20.3738 C   0  0  0  0  0  0
  -30.0487  -19.5676   19.7125 C   0  0  0  0  0  0
  -28.1658  -18.9680   20.8950 C   0  0  0  0  0  0
  -30.6565  -18.0734   20.2477 C   0  0  0  0  0  0
  -28.4743  -17.3692   20.4025 C   0  0  0  0  0  0
  -24.9438  -22.6244   21.6972 C   0  0  0  0  0  0
  -27.0241  -21.6445   20.9541 N   0  0  0  0  0  0
  -26.6836  -24.0375   20.8776 N   0  0  0  0  0  0
  -28.7283  -23.0608   20.1440 N   0  0  0  0  0  0
  -28.8436  -20.2489   20.3528 N   0  0  0  0  0  0
  -29.8695  -16.7299   20.3341 N   0  0  0  0  0  0
  -30.5075  -11.9927   20.1529 H   0  0  0  0  0  0
  -31.4327  -13.0719   19.1571 H   0  0  0  0  0  0
  -29.9209  -11.7208   17.7221 H   0  0  0  0  0  0
  -29.5186  -13.4194   17.6105 H   0  0  0  0  0  0
  -28.0970  -11.2609   19.1853 H   0  0  0  0  0  0
  -27.4045  -12.2148   17.9018 H   0  0  0  0  0  0
  -27.4960  -14.2186   19.2718 H   0  0  0  0  0  0
  -28.8366  -12.6151   21.5030 H   0  0  0  0  0  0
  -28.2580  -14.2611   21.6446 H   0  0  0  0  0  0
  -25.2770   -9.5680   22.4763 H   0  0  0  0  0  0
  -24.0052   -7.4617   22.7444 H   0  0  0  0  0  0
  -21.0886   -8.8756   19.8940 H   0  0  0  0  0  0
  -22.3711  -10.9680   19.6209 H   0  0  0  0  0  0
  -21.1962   -7.6150   23.9712 H   0  0  0  0  0  0
  -21.1487   -6.0535   25.9078 H   0  0  0  0  0  0
  -22.0606   -2.7626   23.2833 H   0  0  0  0  0  0
  -22.4123  -11.9775   22.4768 H   0  0  0  0  0  0
  -21.1065  -13.1099   22.2734 H   0  0  0  0  0  0
  -24.6521  -15.8568   20.5555 H   0  0  0  0  0  0
  -26.2634  -15.6252   20.0990 H   0  0  0  0  0  0
  -26.7372  -32.5079   23.0867 H   0  0  0  0  0  0
  -24.9982  -33.9422   25.0119 H   0  0  0  0  0  0
  -22.7945  -31.2615   21.3543 H   0  0  0  0  0  0
  -23.3739  -35.9526   23.3332 H   0  0  0  0  0  0
  -24.3549  -36.8824   22.2071 H   0  0  0  0  0  0
  -23.7269  -37.6385   23.6717 H   0  0  0  0  0  0
  -26.2455  -31.3365   20.6336 H   0  0  0  0  0  0
  -26.9109  -30.6580   22.0717 H   0  0  0  0  0  0
  -28.1404  -28.5155   21.3081 H   0  0  0  0  0  0
  -25.8614  -25.7549   18.9269 H   0  0  0  0  0  0
  -24.0017  -27.2900   18.9150 H   0  0  0  0  0  0
  -23.8844  -30.5153   19.3938 H   0  0  0  0  0  0
  -22.8281  -29.2057   19.8303 H   0  0  0  0  0  0
  -25.1353  -36.1736   25.0788 H   0  0  0  0  0  0
  -21.0030  -28.3328   24.1344 H   0  0  0  0  0  0
  -20.5651  -26.2374   23.3730 H   0  0  0  0  0  0
  -21.6653  -26.7304   22.1287 H   0  0  0  0  0  0
  -19.6895  -25.6258   21.1308 H   0  0  0  0  0  0
  -19.6814  -27.3117   20.6741 H   0  0  0  0  0  0
  -17.4323  -26.6932   21.3814 H   0  0  0  0  0  0
  -18.0154  -26.0030   22.8812 H   0  0  0  0  0  0
  -19.7990  -30.7293   24.2185 H   0  0  0  0  0  0
  -17.5026  -31.6223   24.5214 H   0  0  0  0  0  0
  -15.5381  -30.2997   23.7606 H   0  0  0  0  0  0
  -15.8685  -28.0866   22.6977 H   0  0  0  0  0  0
  -24.5822  -30.7181   25.7665 H   0  0  0  0  0  0
  -24.8866  -32.3019   26.4677 H   0  0  0  0  0  0
  -25.7861  -30.9030   27.0221 H   0  0  0  0  0  0
  -26.3156  -29.6537   24.1474 H   0  0  0  0  0  0
  -27.3946  -29.7279   25.5180 H   0  0  0  0  0  0
  -27.9126  -30.4058   23.9968 H   0  0  0  0  0  0
  -27.2552  -33.3707   26.1961 H   0  0  0  0  0  0
  -28.3890  -32.6887   25.0393 H   0  0  0  0  0  0
  -28.0620  -31.8597   26.5541 H   0  0  0  0  0  0
  -28.2607  -38.0010   24.7447 H   0  0  0  0  0  0
  -28.1002  -36.2536   24.6423 H   0  0  0  0  0  0
  -27.2238  -37.1560   25.8872 H   0  0  0  0  0  0
  -20.9642  -29.8620   21.6627 H   0  0  0  0  0  0
  -26.0118  -38.2733   24.1381 H   0  0  0  0  0  0
  -29.8130  -19.4713   18.6517 H   0  0  0  0  0  0
  -30.8634  -20.2901   19.7465 H   0  0  0  0  0  0
  -28.2959  -18.9986   21.9770 H   0  0  0  0  0  0
  -27.0926  -19.1042   20.7521 H   0  0  0  0  0  0
  -31.0781  -18.2340   21.2420 H   0  0  0  0  0  0
  -31.5302  -17.8691   19.6225 H   0  0  0  0  0  0
  -28.0391  -17.2393   19.4086 H   0  0  0  0  0  0
  -27.8853  -16.7175   21.0473 H   0  0  0  0  0  0
  -24.8116  -21.6650   22.1964 H   0  0  0  0  0  0
  -24.2002  -22.7062   20.9036 H   0  0  0  0  0  0
  -24.7388  -23.4052   22.4297 H   0  0  0  0  0  0
  1 25  1  0  0  0
  1 30  2  0  0  0
  1 83  1  0  0  0
  2  3  1  0  0  0
  2 25  1  0  0  0
  2 84  1  0  0  0
  2 85  1  0  0  0
  3  4  1  0  0  0
  3 86  1  0  0  0
  3 87  1  0  0  0
  4  5  1  0  0  0
  4 88  1  0  0  0
  4 89  1  0  0  0
  5  6  1  0  0  0
  5 26  1  0  0  0
  5 90  1  0  0  0
  6 25  1  0  0  0
  6 91  1  0  0  0
  6 92  1  0  0  0
  7  8  2  0  0  0
  7 26  1  0  0  0
  7 29  1  0  0  0
  8  9  1  0  0  0
  8 22  1  0  0  0
  9 10  1  0  0  0
  9 27  2  0  0  0
 10 11  2  0  0  0
 10 15  1  0  0  0
 11 12  1  0  0  0
 11 93  1  0  0  0
 12 13  2  0  0  0
 12 94  1  0  0  0
 13 14  1  0  0  0
 13 31  1  0  0  0
 14 15  2  0  0  0
 14 95  1  0  0  0
 15 96  1  0  0  0
 16 17  2  0  0  0
 16 21  1  0  0  0
 16 31  1  0  0  0
 17 18  1  0  0  0
 17 97  1  0  0  0
 18 19  2  0  0  0
 18 98  1  0  0  0
 19 20  1  0  0  0
 19 24  1  0  0  0
 20 21  2  0  0  0
 20 99  1  0  0  0
 21 23  1  0  0  0
 22 28  1  0  0  0
 22 32  2  0  0  0
 26 27  1  0  0  0
 28100  1  0  0  0
 28101  1  0  0  0
 29102  1  0  0  0
 29103  1  0  0  0
 33 34  1  0  0  0
 33 66  1  0  0  0
 33 70  2  0  0  0
 34 36  1  0  0  0
 34 59  1  0  0  0
 34104  1  0  0  0
 35 44  2  0  0  0
 35 45  1  0  0  0
 35 68  1  0  0  0
 36 56  1  0  0  0
 36105  1  0  0  0
 37 39  1  0  0  0
 37 47  1  0  0  0
 37 66  1  0  0  0
 37106  1  0  0  0
 38 43  2  0  0  0
 38 46  1  0  0  0
 38 47  1  0  0  0
 39 64  1  0  0  0
 39 67  2  0  0  0
 40 52  1  0  0  0
 40 53  2  0  0  0
 40 58  1  0  0  0
 41107  1  0  0  0
 41108  1  0  0  0
 41109  1  0  0  0
 41 48  1  0  0  0
 42 43  1  0  0  0
 42 66  1  0  0  0
 42110  1  0  0  0
 42111  1  0  0  0
 43 44  1  0  0  0
 44112  1  0  0  0
 45 46  2  0  0  0
 45113  1  0  0  0
 46114  1  0  0  0
 47115  1  0  0  0
 47116  1  0  0  0
 48 56  1  0  0  0
 48 65  1  0  0  0
 48117  1  0  0  0
 49 50  1  0  0  0
 49 53  1  0  0  0
 49 64  1  0  0  0
 49118  1  0  0  0
 50 51  1  0  0  0
 50119  1  0  0  0
 50120  1  0  0  0
 51 52  1  0  0  0
 51121  1  0  0  0
 51122  1  0  0  0
 52123  1  0  0  0
 52124  1  0  0  0
 53 54  1  0  0  0
 54 55  2  0  0  0
 54125  1  0  0  0
 55 57  1  0  0  0
 55126  1  0  0  0
 56 69  2  0  0  0
 57 58  2  0  0  0
 57127  1  0  0  0
 58128  1  0  0  0
 59 60  1  0  0  0
 59 61  1  0  0  0
 59 62  1  0  0  0
 60129  1  0  0  0
 60130  1  0  0  0
 60131  1  0  0  0
 61132  1  0  0  0
 61133  1  0  0  0
 61134  1  0  0  0
 62135  1  0  0  0
 62136  1  0  0  0
 62137  1  0  0  0
 63 65  1  0  0  0
 63138  1  0  0  0
 63139  1  0  0  0
 63140  1  0  0  0
 64141  1  0  0  0
 65142  1  0  0  0
 68 73  1  0  0  0
 71 78  1  0  0  0
 71 79  2  0  0  0
 71 80  1  0  0  0
 72 79  1  0  0  0
 72 81  2  0  0  0
 72 82  1  0  0  0
 73 80  2  0  0  0
 73 81  1  0  0  0
 74 76  1  0  0  0
 74 82  1  0  0  0
 74143  1  0  0  0
 74144  1  0  0  0
 75 77  1  0  0  0
 75 82  1  0  0  0
 75145  1  0  0  0
 75146  1  0  0  0
 76 83  1  0  0  0
 76147  1  0  0  0
 76148  1  0  0  0
 77 83  1  0  0  0
 77149  1  0  0  0
 77150  1  0  0  0
 78151  1  0  0  0
 78152  1  0  0  0
 78153  1  0  0  0
M  ISO  4   1 100  68 101  73 101  83 100
M  END
> <chiral flag>
0

> <version>
0

> <s_m_source_file>
/data/baiqing/PycharmProjects/Reinvent-master-3.2/result/LINK_invent/BTK/process_docking_weight1_custom_sum_contain_oxygen_bond_distance_aromatic_linkinvent_7_9_3/rearranged_h_0190.sdf

> <i_m_source_file_index>
26

> <r_mmod_Potential_Energy-OPLS-2005>
810.820251464844

> <r_mmod_Stretch_Energy-OPLS-2005>
540.760803222656

> <r_mmod_Bend_Energy-OPLS-2005>
530.830383300781

> <r_mmod_Torsional_Energy-OPLS-2005>
316.351684570312

> <r_mmod_Improper_Torsional_Energy-OPLS-2005>
5.05304622650146

> <r_mmod_Van_der_Waal_Energy-OPLS-2005>
155.130447387695

> <r_mmod_Electrostatic_Energy-OPLS-2005>
-1028.75512695312

> <r_mmod_Solvation_Energy-OPLS-2005>
-249.407333374023

> <b_mmod_Minimization_Converged-OPLS-2005>
0

> <r_mmod_RMS_Derivative-OPLS-2005>
4.15826225280762

$$$$
26
                    3D
 Structure written by MMmdl.
166175  0  0  1  0            999 V2000
  -30.5904  -14.9061   20.4227 C   0  0  0  0  0  0
  -30.4259  -12.5600   19.4964 C   0  0  0  0  0  0
  -29.5139  -12.5247   18.2505 C   0  0  0  0  0  0
  -28.0444  -12.3246   18.6671 C   0  0  0  0  0  0
  -27.6283  -13.2534   19.8390 C   0  0  2  0  0  0
  -28.6715  -13.2827   20.9758 C   0  0  0  0  0  0
  -25.2458  -13.8228   20.5719 C   0  0  0  0  0  0
  -24.1778  -13.0448   20.9229 C   0  0  0  0  0  0
  -24.6396  -11.6936   20.8749 C   0  0  0  0  0  0
  -23.9085  -10.4300   21.0396 C   0  0  0  0  0  0
  -24.3635   -9.4211   21.9176 C   0  0  0  0  0  0
  -23.6311   -8.2244   22.0746 C   0  0  0  0  0  0
  -22.4289   -8.0287   21.3540 C   0  0  0  0  0  0
  -21.9930   -9.0257   20.4640 C   0  0  0  0  0  0
  -22.7256  -10.2137   20.3045 C   0  0  0  0  0  0
  -21.6856   -6.0739   22.5280 C   0  0  0  0  0  0
  -21.4008   -6.5638   23.8216 C   0  0  0  0  0  0
  -21.3662   -5.6792   24.9179 C   0  0  0  0  0  0
  -21.6052   -4.3054   24.7221 C   0  0  0  0  0  0
  -21.8820   -3.8146   23.4339 C   0  0  0  0  0  0
  -21.9189   -4.6966   22.3398 C   0  0  0  0  0  0
  -22.7801  -13.5217   21.1887 C   0  0  0  0  0  0
  -22.1666   -4.2148   21.0975 F   0  0  0  0  0  0
  -21.5631   -3.4538   25.7733 F   0  0  0  0  0  0
  -29.9476  -13.6725   20.3667 N   0  0  0  0  0  0
  -26.2884  -12.9472   20.3266 N   0  0  0  0  0  0
  -25.9332  -11.6596   20.5748 N   0  0  0  0  0  0
  -22.0438  -12.8201   22.0429 N   0  0  0  0  0  0
  -25.4141  -15.1958   20.4144 N   0  0  0  0  0  0
  -31.7948  -14.9095   20.1423 O   0  0  0  0  0  0
  -21.6644   -6.8888   21.4245 O   0  0  0  0  0  0
  -22.3488  -14.5523   20.6737 O   0  0  0  0  0  0
  -24.6430  -31.8458   23.1912 C   0  0  0  0  0  0
  -25.9207  -32.4700   23.8295 C   0  0  1  0  0  0
  -27.2118  -27.1485   20.1360 C   0  0  0  0  0  0
  -25.5964  -33.8508   24.2206 N   0  0  0  0  0  0
  -23.4449  -30.4682   21.5372 C   0  0  2  0  0  0
  -24.8929  -28.9022   20.1089 C   0  0  0  0  0  0
  -22.7566  -29.4560   22.4866 C   0  0  0  0  0  0
  -18.0303  -28.1394   22.8477 C   0  0  0  0  0  0
  -24.1492  -36.7257   23.2642 C   0  0  0  0  0  0
  -26.0025  -30.7219   21.3907 C   0  0  0  0  0  0
  -26.0725  -29.3364   20.7277 C   0  0  0  0  0  0
  -27.2339  -28.4756   20.7267 C   0  0  0  0  0  0
  -26.0046  -26.8208   19.4760 C   0  0  0  0  0  0
  -24.8711  -27.6564   19.4694 C   0  0  0  0  0  0
  -23.6707  -29.8038   20.1548 C   0  0  0  0  0  0
  -25.4125  -36.3035   24.0317 C   0  0  1  0  0  0
  -20.5917  -28.3719   23.1233 C   0  0  2  0  0  0
  -20.6785  -26.9423   22.5400 C   0  0  0  0  0  0
  -19.5758  -26.6381   21.5209 C   0  0  0  0  0  0
  -18.1942  -26.7933   22.1622 C   0  0  0  0  0  0
  -19.1560  -28.8873   23.2848 C   0  0  0  0  0  0
  -18.9478  -30.1468   23.8873 C   0  0  0  0  0  0
  -17.6475  -30.6589   24.0558 C   0  0  0  0  0  0
  -25.9077  -34.9410   23.5069 C   0  0  0  0  0  0
  -16.5365  -29.9083   23.6337 C   0  0  0  0  0  0
  -16.7286  -28.6502   23.0357 C   0  0  0  0  0  0
  -26.4532  -31.6565   25.0732 C   0  0  0  0  0  0
  -25.3719  -31.3750   26.1429 C   0  0  0  0  0  0
  -27.0400  -30.2958   24.6313 C   0  0  0  0  0  0
  -27.6062  -32.4333   25.7517 C   0  0  0  0  0  0
  -27.5582  -37.1780   24.8461 C   0  0  0  0  0  0
  -21.4259  -29.3047   22.3608 N   0  0  0  0  0  0
  -26.4283  -37.3752   23.9416 N   0  0  0  0  0  0
  -24.7166  -31.0328   22.0945 N   0  0  0  0  0  0
  -23.4217  -28.8101   23.3005 O   0  0  0  0  0  0
  -28.2505  -26.1495   20.2054 O   0  0  0  0  0  0
  -26.5658  -34.8904   22.4644 O   0  0  0  0  0  0
  -23.5553  -32.1335   23.7132 O   0  0  0  0  0  0
  -28.4488  -21.8974   20.1778 C   0  0  0  0  0  0
  -28.8339  -23.3276   20.2570 C   0  0  0  0  0  0
  -29.4363  -20.8315   20.3769 C   0  0  0  0  0  0
  -30.9773  -22.5454   20.6544 C   0  0  0  0  0  0
  -30.2447  -18.6433   19.4099 C   0  0  0  0  0  0
  -29.2913  -18.5193   21.5047 C   0  0  0  0  0  0
  -30.0194  -17.0774   19.1588 C   0  0  0  0  0  0
  -29.1361  -16.9021   21.3855 C   0  0  0  0  0  0
  -32.4341  -22.8944   20.8688 C   0  0  0  0  0  0
  -25.3371  -20.6279   18.3016 C   0  0  0  0  0  0
  -26.9932  -21.4993   19.9219 C   0  0  0  0  0  0
  -27.8831  -24.6506   20.0200 C   0  0  0  0  0  0
  -30.1383  -23.5741   20.4952 N   0  0  0  0  0  0
  -30.6936  -21.2394   20.6121 N   0  0  0  0  0  0
  -29.2602  -19.3582   20.2663 N   0  0  0  0  0  0
  -29.8740  -16.1360   20.3209 N   0  0  0  0  0  0
  -26.7368  -21.0322   18.5404 N   0  3  0  0  0  0
  -31.4638  -12.6878   19.1871 H   0  0  0  0  0  0
  -30.3931  -11.6088   20.0309 H   0  0  0  0  0  0
  -29.8260  -11.7267   17.5752 H   0  0  0  0  0  0
  -29.6169  -13.4576   17.6926 H   0  0  0  0  0  0
  -27.9275  -11.2821   18.9654 H   0  0  0  0  0  0
  -27.3829  -12.4699   17.8120 H   0  0  0  0  0  0
  -27.5941  -14.2588   19.4181 H   0  0  0  0  0  0
  -28.7489  -12.3131   21.4700 H   0  0  0  0  0  0
  -28.3812  -14.0031   21.7417 H   0  0  0  0  0  0
  -25.2764   -9.5694   22.4771 H   0  0  0  0  0  0
  -24.0014   -7.4629   22.7463 H   0  0  0  0  0  0
  -21.0856   -8.8772   19.8951 H   0  0  0  0  0  0
  -22.3696  -10.9679   19.6164 H   0  0  0  0  0  0
  -21.2003   -7.6149   23.9723 H   0  0  0  0  0  0
  -21.1488   -6.0516   25.9086 H   0  0  0  0  0  0
  -22.0599   -2.7608   23.2830 H   0  0  0  0  0  0
  -22.4057  -11.9860   22.4821 H   0  0  0  0  0  0
  -21.1055  -13.1222   22.2624 H   0  0  0  0  0  0
  -24.6492  -15.8505   20.5324 H   0  0  0  0  0  0
  -26.2679  -15.6331   20.0919 H   0  0  0  0  0  0
  -26.7272  -32.5309   23.1026 H   0  0  0  0  0  0
  -25.0095  -33.9627   25.0340 H   0  0  0  0  0  0
  -22.7472  -31.2948   21.3861 H   0  0  0  0  0  0
  -23.3765  -35.9577   23.3276 H   0  0  0  0  0  0
  -24.3585  -36.8914   22.2062 H   0  0  0  0  0  0
  -23.7225  -37.6437   23.6694 H   0  0  0  0  0  0
  -26.1614  -31.4788   20.6215 H   0  0  0  0  0  0
  -26.8720  -30.7669   22.0351 H   0  0  0  0  0  0
  -28.1312  -28.8018   21.2339 H   0  0  0  0  0  0
  -25.8875  -25.8773   18.9672 H   0  0  0  0  0  0
  -23.9717  -27.3197   18.9729 H   0  0  0  0  0  0
  -23.8093  -30.5813   19.4027 H   0  0  0  0  0  0
  -22.7849  -29.2489   19.8414 H   0  0  0  0  0  0
  -25.1307  -36.1866   25.0807 H   0  0  0  0  0  0
  -21.0009  -28.3304   24.1355 H   0  0  0  0  0  0
  -20.5674  -26.2337   23.3621 H   0  0  0  0  0  0
  -21.6651  -26.7427   22.1200 H   0  0  0  0  0  0
  -19.6922  -25.6287   21.1252 H   0  0  0  0  0  0
  -19.6694  -27.3180   20.6730 H   0  0  0  0  0  0
  -17.4213  -26.6673   21.4025 H   0  0  0  0  0  0
  -18.0345  -26.0078   22.9021 H   0  0  0  0  0  0
  -19.7955  -30.7286   24.2234 H   0  0  0  0  0  0
  -17.5031  -31.6267   24.5163 H   0  0  0  0  0  0
  -15.5365  -30.2976   23.7672 H   0  0  0  0  0  0
  -15.8689  -28.0811   22.7086 H   0  0  0  0  0  0
  -24.5894  -30.7108   25.7744 H   0  0  0  0  0  0
  -24.8919  -32.2933   26.4819 H   0  0  0  0  0  0
  -25.8006  -30.8940   27.0230 H   0  0  0  0  0  0
  -26.3019  -29.6676   24.1313 H   0  0  0  0  0  0
  -27.4001  -29.7261   25.4890 H   0  0  0  0  0  0
  -27.8935  -30.4189   23.9642 H   0  0  0  0  0  0
  -27.2652  -33.3651   26.2040 H   0  0  0  0  0  0
  -28.3902  -32.6864   25.0368 H   0  0  0  0  0  0
  -28.0700  -31.8497   26.5478 H   0  0  0  0  0  0
  -28.2566  -38.0108   24.7542 H   0  0  0  0  0  0
  -28.1105  -36.2638   24.6241 H   0  0  0  0  0  0
  -27.2309  -37.1370   25.8863 H   0  0  0  0  0  0
  -20.9469  -29.8773   21.6798 H   0  0  0  0  0  0
  -26.0150  -38.2815   24.1436 H   0  0  0  0  0  0
  -30.2752  -19.1467   18.4419 H   0  0  0  0  0  0
  -31.2413  -18.7827   19.8341 H   0  0  0  0  0  0
  -30.2346  -18.7291   22.0131 H   0  0  0  0  0  0
  -28.5224  -18.8912   22.1834 H   0  0  0  0  0  0
  -30.8253  -16.7251   18.5136 H   0  0  0  0  0  0
  -29.1152  -16.9603   18.5611 H   0  0  0  0  0  0
  -28.0800  -16.6832   21.2280 H   0  0  0  0  0  0
  -29.3737  -16.4580   22.3539 H   0  0  0  0  0  0
  -32.5606  -23.9445   21.1333 H   0  0  0  0  0  0
  -33.0014  -22.7032   19.9576 H   0  0  0  0  0  0
  -32.8608  -22.2909   21.6698 H   0  0  0  0  0  0
  -25.2079  -20.2984   17.2705 H   0  0  0  0  0  0
  -24.6519  -21.4577   18.4777 H   0  0  0  0  0  0
  -25.0509  -19.8021   18.9540 H   0  0  0  0  0  0
  -26.3260  -22.3300   20.1517 H   0  0  0  0  0  0
  -26.7271  -20.7053   20.6226 H   0  0  0  0  0  0
  -26.9915  -24.4802   20.6231 H   0  0  0  0  0  0
  -27.5727  -24.5465   18.9807 H   0  0  0  0  0  0
  -26.9663  -21.7529   17.8748 H   0  0  0  0  0  0
  -27.3139  -20.2305   18.3407 H   0  0  0  0  0  0
  1 25  1  0  0  0
  1 30  2  0  0  0
  1 86  1  0  0  0
  2  3  1  0  0  0
  2 25  1  0  0  0
  2 88  1  0  0  0
  2 89  1  0  0  0
  3  4  1  0  0  0
  3 90  1  0  0  0
  3 91  1  0  0  0
  4  5  1  0  0  0
  4 92  1  0  0  0
  4 93  1  0  0  0
  5  6  1  0  0  0
  5 26  1  0  0  0
  5 94  1  0  0  0
  6 25  1  0  0  0
  6 95  1  0  0  0
  6 96  1  0  0  0
  7  8  2  0  0  0
  7 26  1  0  0  0
  7 29  1  0  0  0
  8  9  1  0  0  0
  8 22  1  0  0  0
  9 10  1  0  0  0
  9 27  2  0  0  0
 10 11  2  0  0  0
 10 15  1  0  0  0
 11 12  1  0  0  0
 11 97  1  0  0  0
 12 13  2  0  0  0
 12 98  1  0  0  0
 13 14  1  0  0  0
 13 31  1  0  0  0
 14 15  2  0  0  0
 14 99  1  0  0  0
 15100  1  0  0  0
 16 17  2  0  0  0
 16 21  1  0  0  0
 16 31  1  0  0  0
 17 18  1  0  0  0
 17101  1  0  0  0
 18 19  2  0  0  0
 18102  1  0  0  0
 19 20  1  0  0  0
 19 24  1  0  0  0
 20 21  2  0  0  0
 20103  1  0  0  0
 21 23  1  0  0  0
 22 28  1  0  0  0
 22 32  2  0  0  0
 26 27  1  0  0  0
 28104  1  0  0  0
 28105  1  0  0  0
 29106  1  0  0  0
 29107  1  0  0  0
 33 34  1  0  0  0
 33 66  1  0  0  0
 33 70  2  0  0  0
 34 36  1  0  0  0
 34 59  1  0  0  0
 34108  1  0  0  0
 35 44  2  0  0  0
 35 45  1  0  0  0
 35 68  1  0  0  0
 36 56  1  0  0  0
 36109  1  0  0  0
 37 39  1  0  0  0
 37 47  1  0  0  0
 37 66  1  0  0  0
 37110  1  0  0  0
 38 43  2  0  0  0
 38 46  1  0  0  0
 38 47  1  0  0  0
 39 64  1  0  0  0
 39 67  2  0  0  0
 40 52  1  0  0  0
 40 53  2  0  0  0
 40 58  1  0  0  0
 41111  1  0  0  0
 41112  1  0  0  0
 41113  1  0  0  0
 41 48  1  0  0  0
 42 43  1  0  0  0
 42 66  1  0  0  0
 42114  1  0  0  0
 42115  1  0  0  0
 43 44  1  0  0  0
 44116  1  0  0  0
 45 46  2  0  0  0
 45117  1  0  0  0
 46118  1  0  0  0
 47119  1  0  0  0
 47120  1  0  0  0
 48 56  1  0  0  0
 48 65  1  0  0  0
 48121  1  0  0  0
 49 50  1  0  0  0
 49 53  1  0  0  0
 49 64  1  0  0  0
 49122  1  0  0  0
 50 51  1  0  0  0
 50123  1  0  0  0
 50124  1  0  0  0
 51 52  1  0  0  0
 51125  1  0  0  0
 51126  1  0  0  0
 52127  1  0  0  0
 52128  1  0  0  0
 53 54  1  0  0  0
 54 55  2  0  0  0
 54129  1  0  0  0
 55 57  1  0  0  0
 55130  1  0  0  0
 56 69  2  0  0  0
 57 58  2  0  0  0
 57131  1  0  0  0
 58132  1  0  0  0
 59 60  1  0  0  0
 59 61  1  0  0  0
 59 62  1  0  0  0
 60133  1  0  0  0
 60134  1  0  0  0
 60135  1  0  0  0
 61136  1  0  0  0
 61137  1  0  0  0
 61138  1  0  0  0
 62139  1  0  0  0
 62140  1  0  0  0
 62141  1  0  0  0
 63 65  1  0  0  0
 63142  1  0  0  0
 63143  1  0  0  0
 63144  1  0  0  0
 64145  1  0  0  0
 65146  1  0  0  0
 68 82  1  0  0  0
 71 72  2  0  0  0
 71 73  1  0  0  0
 71 81  1  0  0  0
 72 82  1  0  0  0
 72 83  1  0  0  0
 73 84  2  0  0  0
 73 85  1  0  0  0
 74 79  1  0  0  0
 74 83  2  0  0  0
 74 84  1  0  0  0
 75 77  1  0  0  0
 75 85  1  0  0  0
 75147  1  0  0  0
 75148  1  0  0  0
 76 78  1  0  0  0
 76 85  1  0  0  0
 76149  1  0  0  0
 76150  1  0  0  0
 77 86  1  0  0  0
 77151  1  0  0  0
 77152  1  0  0  0
 78 86  1  0  0  0
 78153  1  0  0  0
 78154  1  0  0  0
 79155  1  0  0  0
 79156  1  0  0  0
 79157  1  0  0  0
 80 87  1  0  0  0
 80158  1  0  0  0
 80159  1  0  0  0
 80160  1  0  0  0
 81 87  1  0  0  0
 81161  1  0  0  0
 81162  1  0  0  0
 82163  1  0  0  0
 82164  1  0  0  0
 87165  1  0  0  0
 87166  1  0  0  0
M  CHG  1  87   1
M  ISO  4   1 100  68 101  82 101  86 100
M  END
> <chiral flag>
0

> <version>
0

> <s_m_source_file>
/data/baiqing/PycharmProjects/Reinvent-master-3.2/result/LINK_invent/BTK/process_docking_weight1_custom_sum_contain_oxygen_bond_distance_aromatic_linkinvent_7_9_3/rearranged_h_0190.sdf

> <i_m_source_file_index>
27

> <r_mmod_Potential_Energy-OPLS-2005>
-9.30988311767578

> <r_mmod_Stretch_Energy-OPLS-2005>
204.334014892578

> <r_mmod_Bend_Energy-OPLS-2005>
244.958892822266

> <r_mmod_Torsional_Energy-OPLS-2005>
355.259552001953

> <r_mmod_Improper_Torsional_Energy-OPLS-2005>
21.3643188476562

> <r_mmod_Van_der_Waal_Energy-OPLS-2005>
141.993087768555

> <r_mmod_Electrostatic_Energy-OPLS-2005>
-667.508178710938

> <r_mmod_Solvation_Energy-OPLS-2005>
-483.497039794922

> <b_mmod_Minimization_Converged-OPLS-2005>
0

> <r_mmod_RMS_Derivative-OPLS-2005>
1.35656094551086

$$$$
27
                    3D
 Structure written by MMmdl.
158167  0  0  1  0            999 V2000
  -30.6603  -14.7294   20.4695 C   0  0  0  0  0  0
  -30.4274  -12.4608   19.4502 C   0  0  0  0  0  0
  -29.4945  -12.4950   18.2216 C   0  0  0  0  0  0
  -28.0276  -12.2948   18.6497 C   0  0  0  0  0  0
  -27.6355  -13.1953   19.8480 C   0  0  2  0  0  0
  -28.6959  -13.1368   20.9740 C   0  0  0  0  0  0
  -25.2500  -13.8085   20.5683 C   0  0  0  0  0  0
  -24.1775  -13.0380   20.9225 C   0  0  0  0  0  0
  -24.6340  -11.6852   20.8793 C   0  0  0  0  0  0
  -23.9018  -10.4255   21.0443 C   0  0  0  0  0  0
  -24.3585   -9.4173   21.9209 C   0  0  0  0  0  0
  -23.6270   -8.2206   22.0761 C   0  0  0  0  0  0
  -22.4255   -8.0254   21.3544 C   0  0  0  0  0  0
  -21.9886   -9.0228   20.4650 C   0  0  0  0  0  0
  -22.7205  -10.2109   20.3074 C   0  0  0  0  0  0
  -21.6841   -6.0719   22.5279 C   0  0  0  0  0  0
  -21.4004   -6.5629   23.8210 C   0  0  0  0  0  0
  -21.3658   -5.6786   24.9176 C   0  0  0  0  0  0
  -21.6045   -4.3049   24.7230 C   0  0  0  0  0  0
  -21.8821   -3.8137   23.4353 C   0  0  0  0  0  0
  -21.9189   -4.6950   22.3406 C   0  0  0  0  0  0
  -22.7809  -13.5201   21.1874 C   0  0  0  0  0  0
  -22.1660   -4.2135   21.0984 F   0  0  0  0  0  0
  -21.5633   -3.4536   25.7745 F   0  0  0  0  0  0
  -29.9779  -13.5305   20.3746 N   0  0  0  0  0  0
  -26.2901  -12.9222   20.3323 N   0  0  0  0  0  0
  -25.9260  -11.6408   20.5822 N   0  0  0  0  0  0
  -22.0442  -12.8211   22.0434 N   0  0  0  0  0  0
  -25.4151  -15.1801   20.4021 N   0  0  0  0  0  0
  -31.8656  -14.7390   20.2010 O   0  0  0  0  0  0
  -21.6621   -6.8855   21.4238 O   0  0  0  0  0  0
  -22.3513  -14.5513   20.6714 O   0  0  0  0  0  0
  -24.6279  -31.8582   23.2009 C   0  0  0  0  0  0
  -25.9120  -32.4769   23.8344 C   0  0  1  0  0  0
  -27.2305  -27.3058   20.1050 C   0  0  0  0  0  0
  -25.5929  -33.8570   24.2270 N   0  0  0  0  0  0
  -23.4221  -30.4817   21.5440 C   0  0  2  0  0  0
  -24.8681  -28.9349   20.1097 C   0  0  0  0  0  0
  -22.7482  -29.4617   22.4928 C   0  0  0  0  0  0
  -18.0288  -28.1386   22.8486 C   0  0  0  0  0  0
  -24.1489  -36.7288   23.2639 C   0  0  0  0  0  0
  -25.9647  -30.7837   21.3742 C   0  0  0  0  0  0
  -26.0375  -29.4104   20.7142 C   0  0  0  0  0  0
  -27.2164  -28.6056   20.7061 C   0  0  0  0  0  0
  -26.0250  -26.8765   19.5005 C   0  0  0  0  0  0
  -24.8641  -27.6730   19.4978 C   0  0  0  0  0  0
  -23.6371  -29.8168   20.1592 C   0  0  0  0  0  0
  -25.4114  -36.3078   24.0329 C   0  0  1  0  0  0
  -20.5889  -28.3691   23.1280 C   0  0  2  0  0  0
  -20.6777  -26.9413   22.5409 C   0  0  0  0  0  0
  -19.5752  -26.6385   21.5211 C   0  0  0  0  0  0
  -18.1933  -26.7929   22.1625 C   0  0  0  0  0  0
  -19.1541  -28.8855   23.2879 C   0  0  0  0  0  0
  -18.9463  -30.1458   23.8896 C   0  0  0  0  0  0
  -17.6462  -30.6588   24.0563 C   0  0  0  0  0  0
  -25.9053  -34.9448   23.5101 C   0  0  0  0  0  0
  -16.5354  -29.9086   23.6331 C   0  0  0  0  0  0
  -16.7275  -28.6504   23.0352 C   0  0  0  0  0  0
  -26.4497  -31.6584   25.0720 C   0  0  0  0  0  0
  -25.3728  -31.3733   26.1448 C   0  0  0  0  0  0
  -27.0337  -30.3003   24.6185 C   0  0  0  0  0  0
  -27.6057  -32.4319   25.7491 C   0  0  0  0  0  0
  -27.5581  -37.1798   24.8464 C   0  0  0  0  0  0
  -21.4193  -29.3042   22.3671 N   0  0  0  0  0  0
  -26.4290  -37.3775   23.9411 N   0  0  0  0  0  0
  -24.6905  -31.0582   22.0965 N   0  0  0  0  0  0
  -23.4199  -28.8157   23.3015 O   0  0  0  0  0  0
  -28.3634  -26.4714   20.1805 O   0  0  0  0  0  0
  -26.5621  -34.8918   22.4667 O   0  0  0  0  0  0
  -23.5438  -32.1388   23.7327 O   0  0  0  0  0  0
  -29.9764  -22.2298   21.4665 C   0  0  0  0  0  0
  -28.4539  -22.6429   19.2641 C   0  0  0  0  0  0
  -29.6210  -23.5726   21.1272 C   0  0  0  0  0  0
  -28.8306  -23.8210   19.9754 C   0  0  0  0  0  0
  -29.5728  -21.1235   20.6769 C   0  0  0  0  0  0
  -28.4435  -17.8217   20.9567 C   0  0  0  0  0  0
  -28.5916  -16.3157   20.6436 C   0  0  0  0  0  0
  -30.7221  -17.2956   20.6360 C   0  0  0  0  0  0
  -29.6962  -18.4778   20.3942 C   0  0  2  0  0  0
  -30.1264  -24.7197   21.9812 C   0  0  0  0  0  0
  -28.5184  -25.2476   19.3571 C   0  0  0  0  0  0
  -28.8007  -21.3533   19.5899 N   0  0  0  0  0  0
  -30.0202  -15.9625   20.6522 N   0  0  0  0  0  0
  -30.0162  -19.8012   21.0206 N   0  0  0  0  0  0
  -31.4623  -12.5867   19.1281 H   0  0  0  0  0  0
  -30.3901  -11.4860   19.9391 H   0  0  0  0  0  0
  -29.7833  -11.7245   17.5055 H   0  0  0  0  0  0
  -29.6003  -13.4498   17.7039 H   0  0  0  0  0  0
  -27.9027  -11.2459   18.9220 H   0  0  0  0  0  0
  -27.3586  -12.4713   17.8065 H   0  0  0  0  0  0
  -27.6090  -14.1911   19.4268 H   0  0  0  0  0  0
  -28.7608  -12.1244   21.3756 H   0  0  0  0  0  0
  -28.4403  -13.7586   21.8294 H   0  0  0  0  0  0
  -25.2729   -9.5648   22.4786 H   0  0  0  0  0  0
  -23.9980   -7.4590   22.7472 H   0  0  0  0  0  0
  -21.0820   -8.8744   19.8952 H   0  0  0  0  0  0
  -22.3668  -10.9655   19.6187 H   0  0  0  0  0  0
  -21.1991   -7.6137   23.9708 H   0  0  0  0  0  0
  -21.1482   -6.0519   25.9078 H   0  0  0  0  0  0
  -22.0605   -2.7600   23.2857 H   0  0  0  0  0  0
  -22.4043  -11.9868   22.4826 H   0  0  0  0  0  0
  -21.1067  -13.1256   22.2642 H   0  0  0  0  0  0
  -24.6457  -15.8309   20.5156 H   0  0  0  0  0  0
  -26.2644  -15.6238   20.0805 H   0  0  0  0  0  0
  -26.7185  -32.5431   23.1089 H   0  0  0  0  0  0
  -25.0078  -33.9712   25.0417 H   0  0  0  0  0  0
  -22.7170  -31.3032   21.4005 H   0  0  0  0  0  0
  -23.3753  -35.9618   23.3298 H   0  0  0  0  0  0
  -24.3583  -36.8911   22.2054 H   0  0  0  0  0  0
  -23.7238  -37.6487   23.6662 H   0  0  0  0  0  0
  -26.0995  -31.5475   20.6070 H   0  0  0  0  0  0
  -26.8440  -30.8308   22.0050 H   0  0  0  0  0  0
  -28.1132  -28.9671   21.1894 H   0  0  0  0  0  0
  -25.9216  -25.8990   19.0589 H   0  0  0  0  0  0
  -23.9615  -27.2945   19.0380 H   0  0  0  0  0  0
  -23.7585  -30.5936   19.4034 H   0  0  0  0  0  0
  -22.7565  -29.2480   19.8556 H   0  0  0  0  0  0
  -25.1294  -36.1929   25.0821 H   0  0  0  0  0  0
  -20.9984  -28.3268   24.1400 H   0  0  0  0  0  0
  -20.5678  -26.2300   23.3610 H   0  0  0  0  0  0
  -21.6645  -26.7445   22.1203 H   0  0  0  0  0  0
  -19.6915  -25.6296   21.1241 H   0  0  0  0  0  0
  -19.6690  -27.3196   20.6741 H   0  0  0  0  0  0
  -17.4202  -26.6676   21.4028 H   0  0  0  0  0  0
  -18.0336  -26.0072   22.9024 H   0  0  0  0  0  0
  -19.7939  -30.7272   24.2267 H   0  0  0  0  0  0
  -17.5018  -31.6268   24.5166 H   0  0  0  0  0  0
  -15.5354  -30.2987   23.7656 H   0  0  0  0  0  0
  -15.8676  -28.0822   22.7069 H   0  0  0  0  0  0
  -24.5895  -30.7090   25.7780 H   0  0  0  0  0  0
  -24.8930  -32.2904   26.4875 H   0  0  0  0  0  0
  -25.8050  -30.8908   27.0224 H   0  0  0  0  0  0
  -26.2911  -29.6755   24.1208 H   0  0  0  0  0  0
  -27.4026  -29.7261   25.4694 H   0  0  0  0  0  0
  -27.8786  -30.4282   23.9414 H   0  0  0  0  0  0
  -27.2671  -33.3625   26.2059 H   0  0  0  0  0  0
  -28.3873  -32.6869   25.0321 H   0  0  0  0  0  0
  -28.0717  -31.8448   26.5415 H   0  0  0  0  0  0
  -28.2593  -38.0100   24.7520 H   0  0  0  0  0  0
  -28.1081  -36.2632   24.6277 H   0  0  0  0  0  0
  -27.2302  -37.1434   25.8867 H   0  0  0  0  0  0
  -20.9373  -29.8762   21.6877 H   0  0  0  0  0  0
  -26.0170  -38.2849   24.1416 H   0  0  0  0  0  0
  -30.5945  -22.0588   22.3380 H   0  0  0  0  0  0
  -27.8778  -22.7372   18.3553 H   0  0  0  0  0  0
  -28.4024  -17.9579   22.0389 H   0  0  0  0  0  0
  -27.5288  -18.2469   20.5408 H   0  0  0  0  0  0
  -28.2167  -16.1611   19.6336 H   0  0  0  0  0  0
  -27.9946  -15.7452   21.3491 H   0  0  0  0  0  0
  -31.2139  -17.4115   21.6027 H   0  0  0  0  0  0
  -31.5077  -17.3184   19.8787 H   0  0  0  0  0  0
  -29.5686  -18.6189   19.3194 H   0  0  0  0  0  0
  -30.7663  -24.3665   22.7898 H   0  0  0  0  0  0
  -29.2904  -25.2583   22.4277 H   0  0  0  0  0  0
  -30.7050  -25.4206   21.3791 H   0  0  0  0  0  0
  -27.7401  -25.1295   18.6090 H   0  0  0  0  0  0
  -29.3950  -25.4635   18.7459 H   0  0  0  0  0  0
  -30.6125  -19.7477   21.8393 H   0  0  0  0  0  0
  1 25  1  0  0  0
  1 30  2  0  0  0
  1 83  1  0  0  0
  2  3  1  0  0  0
  2 25  1  0  0  0
  2 85  1  0  0  0
  2 86  1  0  0  0
  3  4  1  0  0  0
  3 87  1  0  0  0
  3 88  1  0  0  0
  4  5  1  0  0  0
  4 89  1  0  0  0
  4 90  1  0  0  0
  5  6  1  0  0  0
  5 26  1  0  0  0
  5 91  1  0  0  0
  6 25  1  0  0  0
  6 92  1  0  0  0
  6 93  1  0  0  0
  7  8  2  0  0  0
  7 26  1  0  0  0
  7 29  1  0  0  0
  8  9  1  0  0  0
  8 22  1  0  0  0
  9 10  1  0  0  0
  9 27  2  0  0  0
 10 11  2  0  0  0
 10 15  1  0  0  0
 11 12  1  0  0  0
 11 94  1  0  0  0
 12 13  2  0  0  0
 12 95  1  0  0  0
 13 14  1  0  0  0
 13 31  1  0  0  0
 14 15  2  0  0  0
 14 96  1  0  0  0
 15 97  1  0  0  0
 16 17  2  0  0  0
 16 21  1  0  0  0
 16 31  1  0  0  0
 17 18  1  0  0  0
 17 98  1  0  0  0
 18 19  2  0  0  0
 18 99  1  0  0  0
 19 20  1  0  0  0
 19 24  1  0  0  0
 20 21  2  0  0  0
 20100  1  0  0  0
 21 23  1  0  0  0
 22 28  1  0  0  0
 22 32  2  0  0  0
 26 27  1  0  0  0
 28101  1  0  0  0
 28102  1  0  0  0
 29103  1  0  0  0
 29104  1  0  0  0
 33 34  1  0  0  0
 33 66  1  0  0  0
 33 70  2  0  0  0
 34 36  1  0  0  0
 34 59  1  0  0  0
 34105  1  0  0  0
 35 44  2  0  0  0
 35 45  1  0  0  0
 35 68  1  0  0  0
 36 56  1  0  0  0
 36106  1  0  0  0
 37 39  1  0  0  0
 37 47  1  0  0  0
 37 66  1  0  0  0
 37107  1  0  0  0
 38 43  2  0  0  0
 38 46  1  0  0  0
 38 47  1  0  0  0
 39 64  1  0  0  0
 39 67  2  0  0  0
 40 52  1  0  0  0
 40 53  2  0  0  0
 40 58  1  0  0  0
 41108  1  0  0  0
 41109  1  0  0  0
 41110  1  0  0  0
 41 48  1  0  0  0
 42 43  1  0  0  0
 42 66  1  0  0  0
 42111  1  0  0  0
 42112  1  0  0  0
 43 44  1  0  0  0
 44113  1  0  0  0
 45 46  2  0  0  0
 45114  1  0  0  0
 46115  1  0  0  0
 47116  1  0  0  0
 47117  1  0  0  0
 48 56  1  0  0  0
 48 65  1  0  0  0
 48118  1  0  0  0
 49 50  1  0  0  0
 49 53  1  0  0  0
 49 64  1  0  0  0
 49119  1  0  0  0
 50 51  1  0  0  0
 50120  1  0  0  0
 50121  1  0  0  0
 51 52  1  0  0  0
 51122  1  0  0  0
 51123  1  0  0  0
 52124  1  0  0  0
 52125  1  0  0  0
 53 54  1  0  0  0
 54 55  2  0  0  0
 54126  1  0  0  0
 55 57  1  0  0  0
 55127  1  0  0  0
 56 69  2  0  0  0
 57 58  2  0  0  0
 57128  1  0  0  0
 58129  1  0  0  0
 59 60  1  0  0  0
 59 61  1  0  0  0
 59 62  1  0  0  0
 60130  1  0  0  0
 60131  1  0  0  0
 60132  1  0  0  0
 61133  1  0  0  0
 61134  1  0  0  0
 61135  1  0  0  0
 62136  1  0  0  0
 62137  1  0  0  0
 62138  1  0  0  0
 63 65  1  0  0  0
 63139  1  0  0  0
 63140  1  0  0  0
 63141  1  0  0  0
 64142  1  0  0  0
 65143  1  0  0  0
 68 81  1  0  0  0
 71 73  2  0  0  0
 71 75  1  0  0  0
 71144  1  0  0  0
 72 74  2  0  0  0
 72 82  1  0  0  0
 72145  1  0  0  0
 73 74  1  0  0  0
 73 80  1  0  0  0
 74 81  1  0  0  0
 75 82  2  0  0  0
 75 84  1  0  0  0
 76 77  1  0  0  0
 76 79  1  0  0  0
 76146  1  0  0  0
 76147  1  0  0  0
 77 83  1  0  0  0
 77148  1  0  0  0
 77149  1  0  0  0
 78 79  1  0  0  0
 78 83  1  0  0  0
 78150  1  0  0  0
 78151  1  0  0  0
 79 84  1  0  0  0
 79152  1  0  0  0
 80153  1  0  0  0
 80154  1  0  0  0
 80155  1  0  0  0
 81156  1  0  0  0
 81157  1  0  0  0
 84158  1  0  0  0
M  ISO  4   1 100  68 101  81 101  83 100
M  END
> <chiral flag>
0

> <version>
0

> <s_m_source_file>
/data/baiqing/PycharmProjects/Reinvent-master-3.2/result/LINK_invent/BTK/process_docking_weight1_custom_sum_contain_oxygen_bond_distance_aromatic_linkinvent_7_9_3/rearranged_h_0190.sdf

> <i_m_source_file_index>
28

> <r_mmod_Potential_Energy-OPLS-2005>
102.35245513916

> <r_mmod_Stretch_Energy-OPLS-2005>
89.396484375

> <r_mmod_Bend_Energy-OPLS-2005>
218.793182373047

> <r_mmod_Torsional_Energy-OPLS-2005>
299.673400878906

> <r_mmod_Improper_Torsional_Energy-OPLS-2005>
5.50185632705688

> <r_mmod_Van_der_Waal_Energy-OPLS-2005>
146.876449584961

> <r_mmod_Electrostatic_Energy-OPLS-2005>
-497.650421142578

> <r_mmod_Solvation_Energy-OPLS-2005>
-230.908264160156

> <b_mmod_Minimization_Converged-OPLS-2005>
0

> <r_mmod_RMS_Derivative-OPLS-2005>
0.252457916736603

$$$$
28
                    3D
 Structure written by MMmdl.
170179  0  0  1  0            999 V2000
  -30.4323  -15.2449   20.4838 C   0  0  0  0  0  0
  -30.4342  -12.8147   19.5427 C   0  0  0  0  0  0
  -29.5383  -12.6064   18.2902 C   0  0  0  0  0  0
  -28.0810  -12.3163   18.6905 C   0  0  0  0  0  0
  -27.6090  -13.2631   19.8192 C   0  0  2  0  0  0
  -28.6294  -13.3630   20.9675 C   0  0  0  0  0  0
  -25.2379  -13.8225   20.5686 C   0  0  0  0  0  0
  -24.1726  -13.0447   20.9222 C   0  0  0  0  0  0
  -24.6364  -11.6922   20.8724 C   0  0  0  0  0  0
  -23.9052  -10.4299   21.0400 C   0  0  0  0  0  0
  -24.3611   -9.4215   21.9167 C   0  0  0  0  0  0
  -23.6299   -8.2240   22.0741 C   0  0  0  0  0  0
  -22.4279   -8.0276   21.3540 C   0  0  0  0  0  0
  -21.9912   -9.0238   20.4628 C   0  0  0  0  0  0
  -22.7238  -10.2123   20.3035 C   0  0  0  0  0  0
  -21.6850   -6.0727   22.5283 C   0  0  0  0  0  0
  -21.4013   -6.5623   23.8221 C   0  0  0  0  0  0
  -21.3658   -5.6777   24.9180 C   0  0  0  0  0  0
  -21.6072   -4.3038   24.7235 C   0  0  0  0  0  0
  -21.8816   -3.8126   23.4348 C   0  0  0  0  0  0
  -21.9193   -4.6954   22.3403 C   0  0  0  0  0  0
  -22.7755  -13.5205   21.1909 C   0  0  0  0  0  0
  -22.1654   -4.2123   21.0987 F   0  0  0  0  0  0
  -21.5640   -3.4533   25.7752 F   0  0  0  0  0  0
  -29.8712  -13.9305   20.4005 N   0  0  0  0  0  0
  -26.2758  -12.9459   20.3081 N   0  0  0  0  0  0
  -25.9279  -11.6584   20.5624 N   0  0  0  0  0  0
  -22.0413  -12.8178   22.0464 N   0  0  0  0  0  0
  -25.4110  -15.1975   20.4195 N   0  0  0  0  0  0
  -31.6132  -15.2676   20.1005 O   0  0  0  0  0  0
  -21.6644   -6.8883   21.4245 O   0  0  0  0  0  0
  -22.3439  -14.5524   20.6794 O   0  0  0  0  0  0
  -24.6628  -31.8249   23.1667 C   0  0  0  0  0  0
  -25.9306  -32.4606   23.8150 C   0  0  1  0  0  0
  -27.2378  -26.9320   20.2182 C   0  0  0  0  0  0
  -25.5946  -33.8416   24.2040 N   0  0  0  0  0  0
  -23.4803  -30.4333   21.5165 C   0  0  2  0  0  0
  -24.9339  -28.8049   20.1289 C   0  0  0  0  0  0
  -22.7666  -29.4448   22.4774 C   0  0  0  0  0  0
  -18.0315  -28.1432   22.8462 C   0  0  0  0  0  0
  -24.1473  -36.7237   23.2654 C   0  0  0  0  0  0
  -26.0463  -30.6332   21.3994 C   0  0  0  0  0  0
  -26.1147  -29.2176   20.7573 C   0  0  0  0  0  0
  -27.2592  -28.3054   20.7736 C   0  0  0  0  0  0
  -26.0261  -26.6649   19.5391 C   0  0  0  0  0  0
  -24.9104  -27.5448   19.5063 C   0  0  0  0  0  0
  -23.7196  -29.7340   20.1488 C   0  0  0  0  0  0
  -25.4111  -36.2995   24.0293 C   0  0  1  0  0  0
  -20.5932  -28.3777   23.1155 C   0  0  2  0  0  0
  -20.6792  -26.9458   22.5385 C   0  0  0  0  0  0
  -19.5769  -26.6376   21.5214 C   0  0  0  0  0  0
  -18.1941  -26.7964   22.1603 C   0  0  0  0  0  0
  -19.1578  -28.8920   23.2806 C   0  0  0  0  0  0
  -18.9491  -30.1487   23.8871 C   0  0  0  0  0  0
  -17.6495  -30.6618   24.0542 C   0  0  0  0  0  0
  -25.9082  -34.9376   23.5018 C   0  0  0  0  0  0
  -16.5375  -29.9097   23.6363 C   0  0  0  0  0  0
  -16.7298  -28.6513   23.0394 C   0  0  0  0  0  0
  -26.4513  -31.6589   25.0712 C   0  0  0  0  0  0
  -25.3617  -31.3819   26.1367 C   0  0  0  0  0  0
  -27.0421  -30.2960   24.6468 C   0  0  0  0  0  0
  -27.5985  -32.4436   25.7515 C   0  0  0  0  0  0
  -27.5579  -37.1741   24.8444 C   0  0  0  0  0  0
  -21.4348  -29.3054   22.3502 N   0  0  0  0  0  0
  -26.4251  -37.3727   23.9438 N   0  0  0  0  0  0
  -24.7498  -30.9901   22.0818 N   0  0  0  0  0  0
  -23.4208  -28.8039   23.3031 O   0  0  0  0  0  0
  -28.3253  -25.9127   20.2146 O   0  0  0  0  0  0
  -26.5708  -34.8930   22.4615 O   0  0  0  0  0  0
  -23.5684  -32.1213   23.6743 O   0  0  0  0  0  0
  -29.4861  -22.2646   19.7563 C   0  0  0  0  0  0
  -28.7974  -21.3287   20.6328 C   0  0  0  0  0  0
  -27.8560  -22.2312   21.3361 C   0  0  0  0  0  0
  -28.3420  -24.4103   20.2792 C   0  0  0  0  0  0
  -29.3156  -16.5561   22.2393 C   0  0  0  0  0  0
  -30.5242  -16.9078   23.1349 C   0  0  0  0  0  0
  -31.2927  -18.4631   21.2888 C   0  0  0  0  0  0
  -29.9748  -18.1549   20.5402 C   0  0  2  0  0  0
  -32.5505  -18.2675   23.4121 C   0  0  0  0  0  0
  -26.2540  -24.8011   24.5480 C   0  0  0  0  0  0
  -28.8470  -19.5559   20.7374 C   0  0  0  0  0  0
  -26.8269  -22.5188   23.7012 C   0  0  0  0  0  0
  -26.9022  -21.6762   22.4049 C   0  0  1  0  0  0
  -29.2958  -23.6696   19.6287 N   0  0  0  0  0  0
  -27.6422  -23.6347   21.1523 N   0  0  0  0  0  0
  -29.7264  -16.5222   20.8302 N   0  0  0  0  0  0
  -31.2230  -18.1701   22.7553 N   0  3  2  0  0  0
  -26.0815  -23.7811   23.4943 N   0  3  0  0  0  0
  -25.6759  -21.5413   21.8877 F   0  0  0  0  0  0
  -31.4490  -13.0318   19.2120 H   0  0  0  0  0  0
  -30.5194  -11.8872   20.1146 H   0  0  0  0  0  0
  -29.9238  -11.7978   17.6697 H   0  0  0  0  0  0
  -29.5704  -13.5059   17.6741 H   0  0  0  0  0  0
  -28.0311  -11.2806   19.0310 H   0  0  0  0  0  0
  -27.4226  -12.3869   17.8226 H   0  0  0  0  0  0
  -27.5445  -14.2485   19.3563 H   0  0  0  0  0  0
  -28.7984  -12.3840   21.4214 H   0  0  0  0  0  0
  -28.2003  -13.9706   21.7522 H   0  0  0  0  0  0
  -25.2764   -9.5686   22.4721 H   0  0  0  0  0  0
  -24.0005   -7.4648   22.7467 H   0  0  0  0  0  0
  -21.0833   -8.8776   19.8937 H   0  0  0  0  0  0
  -22.3713  -10.9653   19.6121 H   0  0  0  0  0  0
  -21.1990   -7.6130   23.9717 H   0  0  0  0  0  0
  -21.1486   -6.0505   25.9086 H   0  0  0  0  0  0
  -22.0589   -2.7578   23.2874 H   0  0  0  0  0  0
  -22.4029  -11.9821   22.4823 H   0  0  0  0  0  0
  -21.1016  -13.1168   22.2672 H   0  0  0  0  0  0
  -24.6531  -15.8594   20.5477 H   0  0  0  0  0  0
  -26.2717  -15.6326   20.1159 H   0  0  0  0  0  0
  -26.7401  -32.5132   23.0900 H   0  0  0  0  0  0
  -25.0010  -33.9447   25.0126 H   0  0  0  0  0  0
  -22.7963  -31.2660   21.3349 H   0  0  0  0  0  0
  -23.3760  -35.9539   23.3244 H   0  0  0  0  0  0
  -24.3543  -36.8980   22.2090 H   0  0  0  0  0  0
  -23.7185  -37.6372   23.6765 H   0  0  0  0  0  0
  -26.2211  -31.3677   20.6098 H   0  0  0  0  0  0
  -26.9116  -30.6932   22.0504 H   0  0  0  0  0  0
  -28.1655  -28.6334   21.2616 H   0  0  0  0  0  0
  -25.9206  -25.7077   19.0450 H   0  0  0  0  0  0
  -24.0139  -27.2149   18.9995 H   0  0  0  0  0  0
  -23.8724  -30.4937   19.3794 H   0  0  0  0  0  0
  -22.8309  -29.1828   19.8386 H   0  0  0  0  0  0
  -25.1287  -36.1804   25.0763 H   0  0  0  0  0  0
  -20.9998  -28.3433   24.1294 H   0  0  0  0  0  0
  -20.5653  -26.2424   23.3620 H   0  0  0  0  0  0
  -21.6660  -26.7423   22.1215 H   0  0  0  0  0  0
  -19.6935  -25.6273   21.1290 H   0  0  0  0  0  0
  -19.6733  -27.3137   20.6705 H   0  0  0  0  0  0
  -17.4205  -26.6707   21.4007 H   0  0  0  0  0  0
  -18.0333  -26.0095   22.8986 H   0  0  0  0  0  0
  -19.7956  -30.7295   24.2259 H   0  0  0  0  0  0
  -17.5037  -31.6314   24.5148 H   0  0  0  0  0  0
  -15.5365  -30.2988   23.7728 H   0  0  0  0  0  0
  -15.8675  -28.0808   22.7172 H   0  0  0  0  0  0
  -24.5794  -30.7195   25.7644 H   0  0  0  0  0  0
  -24.8778  -32.2992   26.4726 H   0  0  0  0  0  0
  -25.7817  -30.9011   27.0221 H   0  0  0  0  0  0
  -26.3094  -29.6606   24.1477 H   0  0  0  0  0  0
  -27.3944  -29.7372   25.5150 H   0  0  0  0  0  0
  -27.9046  -30.4135   23.9906 H   0  0  0  0  0  0
  -27.2566  -33.3811   26.1939 H   0  0  0  0  0  0
  -28.3880  -32.6919   25.0403 H   0  0  0  0  0  0
  -28.0599  -31.8692   26.5566 H   0  0  0  0  0  0
  -28.2512  -38.0129   24.7617 H   0  0  0  0  0  0
  -28.1184  -36.2650   24.6132 H   0  0  0  0  0  0
  -27.2324  -37.1248   25.8855 H   0  0  0  0  0  0
  -20.9612  -29.8780   21.6648 H   0  0  0  0  0  0
  -26.0132  -38.2784   24.1491 H   0  0  0  0  0  0
  -30.2509  -21.8664   19.1065 H   0  0  0  0  0  0
  -28.4948  -17.2582   22.3850 H   0  0  0  0  0  0
  -28.9269  -15.6155   22.6081 H   0  0  0  0  0  0
  -31.2334  -16.0762   23.1171 H   0  0  0  0  0  0
  -30.1947  -16.9850   24.1719 H   0  0  0  0  0  0
  -31.5816  -19.5016   21.1302 H   0  0  0  0  0  0
  -32.0896  -17.8623   20.8528 H   0  0  0  0  0  0
  -30.2227  -18.1805   19.4798 H   0  0  0  0  0  0
  -32.4811  -18.0681   24.4813 H   0  0  0  0  0  0
  -32.9725  -19.2652   23.2910 H   0  0  0  0  0  0
  -33.2568  -17.5512   22.9868 H   0  0  0  0  0  0
  -25.6107  -25.6575   24.3467 H   0  0  0  0  0  0
  -27.2825  -25.1623   24.5871 H   0  0  0  0  0  0
  -25.9880  -24.4072   25.5284 H   0  0  0  0  0  0
  -27.9918  -19.2740   20.1257 H   0  0  0  0  0  0
  -28.5044  -19.3871   21.7518 H   0  0  0  0  0  0
  -27.8368  -22.7309   24.0572 H   0  0  0  0  0  0
  -26.3330  -21.9425   24.4851 H   0  0  0  0  0  0
  -27.2137  -20.6832   22.7083 H   0  0  0  0  0  0
  -30.6711  -18.9122   23.1600 H   0  0  0  0  0  0
  -26.4227  -24.1539   22.6128 H   0  0  0  0  0  0
  -25.1028  -23.5670   23.3828 H   0  0  0  0  0  0
  1 25  1  0  0  0
  1 30  2  0  0  0
  1 86  1  0  0  0
  2  3  1  0  0  0
  2 25  1  0  0  0
  2 90  1  0  0  0
  2 91  1  0  0  0
  3  4  1  0  0  0
  3 92  1  0  0  0
  3 93  1  0  0  0
  4  5  1  0  0  0
  4 94  1  0  0  0
  4 95  1  0  0  0
  5  6  1  0  0  0
  5 26  1  0  0  0
  5 96  1  0  0  0
  6 25  1  0  0  0
  6 97  1  0  0  0
  6 98  1  0  0  0
  7  8  2  0  0  0
  7 26  1  0  0  0
  7 29  1  0  0  0
  8  9  1  0  0  0
  8 22  1  0  0  0
  9 10  1  0  0  0
  9 27  2  0  0  0
 10 11  2  0  0  0
 10 15  1  0  0  0
 11 12  1  0  0  0
 11 99  1  0  0  0
 12 13  2  0  0  0
 12100  1  0  0  0
 13 14  1  0  0  0
 13 31  1  0  0  0
 14 15  2  0  0  0
 14101  1  0  0  0
 15102  1  0  0  0
 16 17  2  0  0  0
 16 21  1  0  0  0
 16 31  1  0  0  0
 17 18  1  0  0  0
 17103  1  0  0  0
 18 19  2  0  0  0
 18104  1  0  0  0
 19 20  1  0  0  0
 19 24  1  0  0  0
 20 21  2  0  0  0
 20105  1  0  0  0
 21 23  1  0  0  0
 22 28  1  0  0  0
 22 32  2  0  0  0
 26 27  1  0  0  0
 28106  1  0  0  0
 28107  1  0  0  0
 29108  1  0  0  0
 29109  1  0  0  0
 33 34  1  0  0  0
 33 66  1  0  0  0
 33 70  2  0  0  0
 34 36  1  0  0  0
 34 59  1  0  0  0
 34110  1  0  0  0
 35 44  2  0  0  0
 35 45  1  0  0  0
 35 68  1  0  0  0
 36 56  1  0  0  0
 36111  1  0  0  0
 37 39  1  0  0  0
 37 47  1  0  0  0
 37 66  1  0  0  0
 37112  1  0  0  0
 38 43  2  0  0  0
 38 46  1  0  0  0
 38 47  1  0  0  0
 39 64  1  0  0  0
 39 67  2  0  0  0
 40 52  1  0  0  0
 40 53  2  0  0  0
 40 58  1  0  0  0
 41113  1  0  0  0
 41114  1  0  0  0
 41115  1  0  0  0
 41 48  1  0  0  0
 42 43  1  0  0  0
 42 66  1  0  0  0
 42116  1  0  0  0
 42117  1  0  0  0
 43 44  1  0  0  0
 44118  1  0  0  0
 45 46  2  0  0  0
 45119  1  0  0  0
 46120  1  0  0  0
 47121  1  0  0  0
 47122  1  0  0  0
 48 56  1  0  0  0
 48 65  1  0  0  0
 48123  1  0  0  0
 49 50  1  0  0  0
 49 53  1  0  0  0
 49 64  1  0  0  0
 49124  1  0  0  0
 50 51  1  0  0  0
 50125  1  0  0  0
 50126  1  0  0  0
 51 52  1  0  0  0
 51127  1  0  0  0
 51128  1  0  0  0
 52129  1  0  0  0
 52130  1  0  0  0
 53 54  1  0  0  0
 54 55  2  0  0  0
 54131  1  0  0  0
 55 57  1  0  0  0
 55132  1  0  0  0
 56 69  2  0  0  0
 57 58  2  0  0  0
 57133  1  0  0  0
 58134  1  0  0  0
 59 60  1  0  0  0
 59 61  1  0  0  0
 59 62  1  0  0  0
 60135  1  0  0  0
 60136  1  0  0  0
 60137  1  0  0  0
 61138  1  0  0  0
 61139  1  0  0  0
 61140  1  0  0  0
 62141  1  0  0  0
 62142  1  0  0  0
 62143  1  0  0  0
 63 65  1  0  0  0
 63144  1  0  0  0
 63145  1  0  0  0
 63146  1  0  0  0
 64147  1  0  0  0
 65148  1  0  0  0
 68 74  1  0  0  0
 71 72  2  0  0  0
 71 84  1  0  0  0
 71149  1  0  0  0
 72 73  1  0  0  0
 72 81  1  0  0  0
 73 83  1  0  0  0
 73 85  2  0  0  0
 74 84  2  0  0  0
 74 85  1  0  0  0
 75 76  1  0  0  0
 75 86  1  0  0  0
 75150  1  0  0  0
 75151  1  0  0  0
 76 87  1  0  0  0
 76152  1  0  0  0
 76153  1  0  0  0
 77 78  1  0  0  0
 77 87  1  0  0  0
 77154  1  0  0  0
 77155  1  0  0  0
 78 81  1  0  0  0
 78 86  1  0  0  0
 78156  1  0  0  0
 79157  1  0  0  0
 79158  1  0  0  0
 79159  1  0  0  0
 79 87  1  0  0  0
 80 88  1  0  0  0
 80160  1  0  0  0
 80161  1  0  0  0
 80162  1  0  0  0
 81163  1  0  0  0
 81164  1  0  0  0
 82 83  1  0  0  0
 82 88  1  0  0  0
 82165  1  0  0  0
 82166  1  0  0  0
 83 89  1  0  0  0
 83167  1  0  0  0
 87168  1  0  0  0
 88169  1  0  0  0
 88170  1  0  0  0
M  CHG  2  87   1  88   1
M  ISO  4   1 100  68 101  74 101  86 100
M  END
> <chiral flag>
0

> <version>
0

> <s_m_source_file>
/data/baiqing/PycharmProjects/Reinvent-master-3.2/result/LINK_invent/BTK/process_docking_weight1_custom_sum_contain_oxygen_bond_distance_aromatic_linkinvent_7_9_3/rearranged_h_0190.sdf

> <i_m_source_file_index>
29

> <r_mmod_Potential_Energy-OPLS-2005>
768.49609375

> <r_mmod_Stretch_Energy-OPLS-2005>
543.458618164062

> <r_mmod_Bend_Energy-OPLS-2005>
509.395599365234

> <r_mmod_Torsional_Energy-OPLS-2005>
397.545227050781

> <r_mmod_Improper_Torsional_Energy-OPLS-2005>
9.63307189941406

> <r_mmod_Van_der_Waal_Energy-OPLS-2005>
147.959548950195

> <r_mmod_Electrostatic_Energy-OPLS-2005>
-390.295257568359

> <r_mmod_Solvation_Energy-OPLS-2005>
-868.72900390625

> <b_mmod_Minimization_Converged-OPLS-2005>
0

> <r_mmod_RMS_Derivative-OPLS-2005>
4.34309816360474

$$$$
29
                    3D
 Structure written by MMmdl.
164174  0  0  1  0            999 V2000
  -30.6654  -14.8005   20.4477 C   0  0  0  0  0  0
  -30.4180  -12.5023   19.4727 C   0  0  0  0  0  0
  -29.5006  -12.5063   18.2333 C   0  0  0  0  0  0
  -28.0323  -12.3214   18.6561 C   0  0  0  0  0  0
  -27.6307  -13.2442   19.8380 C   0  0  2  0  0  0
  -28.6811  -13.2425   20.9686 C   0  0  0  0  0  0
  -25.2459  -13.8206   20.5701 C   0  0  0  0  0  0
  -24.1774  -13.0434   20.9224 C   0  0  0  0  0  0
  -24.6387  -11.6917   20.8759 C   0  0  0  0  0  0
  -23.9074  -10.4287   21.0406 C   0  0  0  0  0  0
  -24.3618   -9.4202   21.9186 C   0  0  0  0  0  0
  -23.6296   -8.2236   22.0752 C   0  0  0  0  0  0
  -22.4281   -8.0272   21.3539 C   0  0  0  0  0  0
  -21.9916   -9.0248   20.4653 C   0  0  0  0  0  0
  -22.7245  -10.2126   20.3062 C   0  0  0  0  0  0
  -21.6854   -6.0727   22.5275 C   0  0  0  0  0  0
  -21.4014   -6.5629   23.8208 C   0  0  0  0  0  0
  -21.3658   -5.6786   24.9170 C   0  0  0  0  0  0
  -21.6050   -4.3049   24.7226 C   0  0  0  0  0  0
  -21.8816   -3.8139   23.4347 C   0  0  0  0  0  0
  -21.9192   -4.6953   22.3399 C   0  0  0  0  0  0
  -22.7795  -13.5217   21.1875 C   0  0  0  0  0  0
  -22.1664   -4.2131   21.0981 F   0  0  0  0  0  0
  -21.5632   -3.4539   25.7741 F   0  0  0  0  0  0
  -29.9650  -13.6079   20.3586 N   0  0  0  0  0  0
  -26.2891  -12.9447   20.3268 N   0  0  0  0  0  0
  -25.9325  -11.6573   20.5765 N   0  0  0  0  0  0
  -22.0440  -12.8220   22.0435 N   0  0  0  0  0  0
  -25.4093  -15.1929   20.4080 N   0  0  0  0  0  0
  -31.8757  -14.7532   20.2052 O   0  0  0  0  0  0
  -21.6643   -6.8874   21.4238 O   0  0  0  0  0  0
  -22.3482  -14.5522   20.6715 O   0  0  0  0  0  0
  -24.6347  -31.8528   23.1961 C   0  0  0  0  0  0
  -25.9157  -32.4741   23.8322 C   0  0  1  0  0  0
  -27.2153  -27.2241   20.1480 C   0  0  0  0  0  0
  -25.5941  -33.8543   24.2240 N   0  0  0  0  0  0
  -23.4345  -30.4756   21.5392 C   0  0  2  0  0  0
  -24.8852  -28.9193   20.1089 C   0  0  0  0  0  0
  -22.7527  -29.4593   22.4886 C   0  0  0  0  0  0
  -18.0299  -28.1393   22.8488 C   0  0  0  0  0  0
  -24.1489  -36.7278   23.2638 C   0  0  0  0  0  0
  -25.9843  -30.7544   21.3837 C   0  0  0  0  0  0
  -26.0581  -29.3732   20.7273 C   0  0  0  0  0  0
  -27.2286  -28.5396   20.7352 C   0  0  0  0  0  0
  -26.0286  -26.8616   19.4740 C   0  0  0  0  0  0
  -24.8786  -27.6730   19.4665 C   0  0  0  0  0  0
  -23.6569  -29.8099   20.1558 C   0  0  0  0  0  0
  -25.4113  -36.3059   24.0324 C   0  0  1  0  0  0
  -20.5907  -28.3712   23.1254 C   0  0  2  0  0  0
  -20.6785  -26.9426   22.5406 C   0  0  0  0  0  0
  -19.5758  -26.6386   21.5217 C   0  0  0  0  0  0
  -18.1940  -26.7935   22.1628 C   0  0  0  0  0  0
  -19.1552  -28.8868   23.2865 C   0  0  0  0  0  0
  -18.9472  -30.1469   23.8884 C   0  0  0  0  0  0
  -17.6469  -30.6592   24.0561 C   0  0  0  0  0  0
  -25.9062  -34.9433   23.5088 C   0  0  0  0  0  0
  -16.5363  -29.9086   23.6334 C   0  0  0  0  0  0
  -16.7284  -28.6504   23.0356 C   0  0  0  0  0  0
  -26.4510  -31.6574   25.0723 C   0  0  0  0  0  0
  -25.3718  -31.3744   26.1434 C   0  0  0  0  0  0
  -27.0359  -30.2976   24.6249 C   0  0  0  0  0  0
  -27.6060  -32.4320   25.7497 C   0  0  0  0  0  0
  -27.5583  -37.1784   24.8458 C   0  0  0  0  0  0
  -21.4230  -29.3052   22.3630 N   0  0  0  0  0  0
  -26.4282  -37.3764   23.9420 N   0  0  0  0  0  0
  -24.7035  -31.0464   22.0953 N   0  0  0  0  0  0
  -23.4208  -28.8135   23.3001 O   0  0  0  0  0  0
  -28.2593  -26.2593   20.2043 O   0  0  0  0  0  0
  -26.5641  -34.8917   22.4661 O   0  0  0  0  0  0
  -23.5484  -32.1367   23.7237 O   0  0  0  0  0  0
  -29.2009  -22.9353   19.3621 C   0  0  0  0  0  0
  -29.4828  -21.5098   19.2654 C   0  0  0  0  0  0
  -28.5775  -23.4496   20.5427 C   0  0  0  0  0  0
  -29.2079  -20.6178   20.3644 C   0  0  0  0  0  0
  -30.9252  -23.9609   17.6696 C   0  0  0  0  0  0
  -30.3340  -25.1255   18.4157 C   0  0  0  0  0  0
  -30.7170  -18.5654   19.9915 C   0  0  0  0  0  0
  -28.8157  -18.2442   21.3607 C   0  0  0  0  0  0
  -30.5735  -17.1115   19.4074 C   0  0  0  0  0  0
  -28.8946  -16.6490   21.1038 C   0  0  0  0  0  0
  -29.5157  -23.8658   18.2222 C   0  0  0  0  0  0
  -29.9959  -20.9460   17.9440 C   0  0  0  0  0  0
  -27.8762  -24.8978   20.7661 C   0  0  0  0  0  0
  -28.3456  -22.5318   21.5423 N   0  0  0  0  0  0
  -28.6524  -21.2054   21.4678 N   0  0  0  0  0  0
  -29.4221  -19.1598   20.3586 N   0  0  0  0  0  0
  -30.0332  -16.0579   20.3257 N   0  0  0  0  0  0
  -31.4574  -12.6086   19.1574 H   0  0  0  0  0  0
  -30.3645  -11.5440   19.9915 H   0  0  0  0  0  0
  -29.7940  -11.7147   17.5415 H   0  0  0  0  0  0
  -29.6123  -13.4472   17.6923 H   0  0  0  0  0  0
  -27.9044  -11.2780   18.9446 H   0  0  0  0  0  0
  -27.3683  -12.4818   17.8062 H   0  0  0  0  0  0
  -27.6056  -14.2520   19.4240 H   0  0  0  0  0  0
  -28.7422  -12.2655   21.4488 H   0  0  0  0  0  0
  -28.4042  -13.9481   21.7506 H   0  0  0  0  0  0
  -25.2748   -9.5694   22.4774 H   0  0  0  0  0  0
  -23.9992   -7.4634   22.7480 H   0  0  0  0  0  0
  -21.0837   -8.8783   19.8973 H   0  0  0  0  0  0
  -22.3693  -10.9666   19.6184 H   0  0  0  0  0  0
  -21.2006   -7.6137   23.9706 H   0  0  0  0  0  0
  -21.1490   -6.0518   25.9077 H   0  0  0  0  0  0
  -22.0601   -2.7599   23.2850 H   0  0  0  0  0  0
  -22.4045  -11.9883   22.4832 H   0  0  0  0  0  0
  -21.1066  -13.1269   22.2636 H   0  0  0  0  0  0
  -24.6367  -15.8425   20.5137 H   0  0  0  0  0  0
  -26.2497  -15.6303   20.0538 H   0  0  0  0  0  0
  -26.7226  -32.5382   23.1062 H   0  0  0  0  0  0
  -25.0058  -33.9668   25.0365 H   0  0  0  0  0  0
  -22.7330  -31.2988   21.3912 H   0  0  0  0  0  0
  -23.3758  -35.9602   23.3276 H   0  0  0  0  0  0
  -24.3583  -36.8927   22.2060 H   0  0  0  0  0  0
  -23.7234  -37.6468   23.6677 H   0  0  0  0  0  0
  -26.1288  -31.5122   20.6122 H   0  0  0  0  0  0
  -26.8592  -30.8034   22.0208 H   0  0  0  0  0  0
  -28.1212  -28.8788   21.2420 H   0  0  0  0  0  0
  -25.9714  -25.9119   18.9616 H   0  0  0  0  0  0
  -23.9862  -27.3246   18.9648 H   0  0  0  0  0  0
  -23.7833  -30.5862   19.4001 H   0  0  0  0  0  0
  -22.7746  -29.2449   19.8500 H   0  0  0  0  0  0
  -25.1291  -36.1894   25.0814 H   0  0  0  0  0  0
  -21.0008  -28.3299   24.1369 H   0  0  0  0  0  0
  -20.5696  -26.2325   23.3616 H   0  0  0  0  0  0
  -21.6651  -26.7445   22.1195 H   0  0  0  0  0  0
  -19.6920  -25.6294   21.1252 H   0  0  0  0  0  0
  -19.6693  -27.3187   20.6741 H   0  0  0  0  0  0
  -17.4212  -26.6685   21.4030 H   0  0  0  0  0  0
  -18.0339  -26.0078   22.9026 H   0  0  0  0  0  0
  -19.7947  -30.7291   24.2246 H   0  0  0  0  0  0
  -17.5023  -31.6272   24.5168 H   0  0  0  0  0  0
  -15.5361  -30.2983   23.7665 H   0  0  0  0  0  0
  -15.8685  -28.0817   22.7072 H   0  0  0  0  0  0
  -24.5881  -30.7112   25.7753 H   0  0  0  0  0  0
  -24.8925  -32.2923   26.4848 H   0  0  0  0  0  0
  -25.8015  -30.8915   27.0221 H   0  0  0  0  0  0
  -26.2954  -29.6716   24.1260 H   0  0  0  0  0  0
  -27.3996  -29.7253   25.4796 H   0  0  0  0  0  0
  -27.8854  -30.4223   23.9530 H   0  0  0  0  0  0
  -27.2663  -33.3624   26.2059 H   0  0  0  0  0  0
  -28.3878  -32.6878   25.0330 H   0  0  0  0  0  0
  -28.0725  -31.8458   26.5427 H   0  0  0  0  0  0
  -28.2567  -38.0115   24.7548 H   0  0  0  0  0  0
  -28.1110  -36.2648   24.6214 H   0  0  0  0  0  0
  -27.2313  -37.1349   25.8862 H   0  0  0  0  0  0
  -20.9418  -29.8762   21.6819 H   0  0  0  0  0  0
  -26.0156  -38.2828   24.1447 H   0  0  0  0  0  0
  -31.7185  -23.4121   18.1733 H   0  0  0  0  0  0
  -31.0441  -24.0730   16.5941 H   0  0  0  0  0  0
  -30.0659  -25.9999   17.8249 H   0  0  0  0  0  0
  -30.7280  -25.3360   19.4084 H   0  0  0  0  0  0
  -31.2554  -19.1903   19.2823 H   0  0  0  0  0  0
  -31.3541  -18.5357   20.8779 H   0  0  0  0  0  0
  -29.3051  -18.4558   22.3137 H   0  0  0  0  0  0
  -27.7734  -18.5278   21.5105 H   0  0  0  0  0  0
  -31.5445  -16.8249   19.0023 H   0  0  0  0  0  0
  -29.9179  -17.1453   18.5356 H   0  0  0  0  0  0
  -27.9957  -16.3648   20.5594 H   0  0  0  0  0  0
  -28.8216  -16.1466   22.0685 H   0  0  0  0  0  0
  -28.6937  -23.9007   17.5096 H   0  0  0  0  0  0
  -29.6009  -21.4933   17.0893 H   0  0  0  0  0  0
  -29.6870  -19.9106   17.8024 H   0  0  0  0  0  0
  -31.0844  -20.9932   17.9047 H   0  0  0  0  0  0
  -27.9099  -25.0551   21.8440 H   0  0  0  0  0  0
  -26.8240  -24.6982   20.5738 H   0  0  0  0  0  0
  1 25  1  0  0  0
  1 30  2  0  0  0
  1 87  1  0  0  0
  2  3  1  0  0  0
  2 25  1  0  0  0
  2 88  1  0  0  0
  2 89  1  0  0  0
  3  4  1  0  0  0
  3 90  1  0  0  0
  3 91  1  0  0  0
  4  5  1  0  0  0
  4 92  1  0  0  0
  4 93  1  0  0  0
  5  6  1  0  0  0
  5 26  1  0  0  0
  5 94  1  0  0  0
  6 25  1  0  0  0
  6 95  1  0  0  0
  6 96  1  0  0  0
  7  8  2  0  0  0
  7 26  1  0  0  0
  7 29  1  0  0  0
  8  9  1  0  0  0
  8 22  1  0  0  0
  9 10  1  0  0  0
  9 27  2  0  0  0
 10 11  2  0  0  0
 10 15  1  0  0  0
 11 12  1  0  0  0
 11 97  1  0  0  0
 12 13  2  0  0  0
 12 98  1  0  0  0
 13 14  1  0  0  0
 13 31  1  0  0  0
 14 15  2  0  0  0
 14 99  1  0  0  0
 15100  1  0  0  0
 16 17  2  0  0  0
 16 21  1  0  0  0
 16 31  1  0  0  0
 17 18  1  0  0  0
 17101  1  0  0  0
 18 19  2  0  0  0
 18102  1  0  0  0
 19 20  1  0  0  0
 19 24  1  0  0  0
 20 21  2  0  0  0
 20103  1  0  0  0
 21 23  1  0  0  0
 22 28  1  0  0  0
 22 32  2  0  0  0
 26 27  1  0  0  0
 28104  1  0  0  0
 28105  1  0  0  0
 29106  1  0  0  0
 29107  1  0  0  0
 33 34  1  0  0  0
 33 66  1  0  0  0
 33 70  2  0  0  0
 34 36  1  0  0  0
 34 59  1  0  0  0
 34108  1  0  0  0
 35 44  2  0  0  0
 35 45  1  0  0  0
 35 68  1  0  0  0
 36 56  1  0  0  0
 36109  1  0  0  0
 37 39  1  0  0  0
 37 47  1  0  0  0
 37 66  1  0  0  0
 37110  1  0  0  0
 38 43  2  0  0  0
 38 46  1  0  0  0
 38 47  1  0  0  0
 39 64  1  0  0  0
 39 67  2  0  0  0
 40 52  1  0  0  0
 40 53  2  0  0  0
 40 58  1  0  0  0
 41111  1  0  0  0
 41112  1  0  0  0
 41113  1  0  0  0
 41 48  1  0  0  0
 42 43  1  0  0  0
 42 66  1  0  0  0
 42114  1  0  0  0
 42115  1  0  0  0
 43 44  1  0  0  0
 44116  1  0  0  0
 45 46  2  0  0  0
 45117  1  0  0  0
 46118  1  0  0  0
 47119  1  0  0  0
 47120  1  0  0  0
 48 56  1  0  0  0
 48 65  1  0  0  0
 48121  1  0  0  0
 49 50  1  0  0  0
 49 53  1  0  0  0
 49 64  1  0  0  0
 49122  1  0  0  0
 50 51  1  0  0  0
 50123  1  0  0  0
 50124  1  0  0  0
 51 52  1  0  0  0
 51125  1  0  0  0
 51126  1  0  0  0
 52127  1  0  0  0
 52128  1  0  0  0
 53 54  1  0  0  0
 54 55  2  0  0  0
 54129  1  0  0  0
 55 57  1  0  0  0
 55130  1  0  0  0
 56 69  2  0  0  0
 57 58  2  0  0  0
 57131  1  0  0  0
 58132  1  0  0  0
 59 60  1  0  0  0
 59 61  1  0  0  0
 59 62  1  0  0  0
 60133  1  0  0  0
 60134  1  0  0  0
 60135  1  0  0  0
 61136  1  0  0  0
 61137  1  0  0  0
 61138  1  0  0  0
 62139  1  0  0  0
 62140  1  0  0  0
 62141  1  0  0  0
 63 65  1  0  0  0
 63142  1  0  0  0
 63143  1  0  0  0
 63144  1  0  0  0
 64145  1  0  0  0
 65146  1  0  0  0
 68 83  1  0  0  0
 71 72  2  0  0  0
 71 73  1  0  0  0
 71 81  1  0  0  0
 72 74  1  0  0  0
 72 82  1  0  0  0
 73 83  1  0  0  0
 73 84  2  0  0  0
 74 85  2  0  0  0
 74 86  1  0  0  0
 75 76  1  0  0  0
 75 81  1  0  0  0
 75147  1  0  0  0
 75148  1  0  0  0
 76 81  1  0  0  0
 76149  1  0  0  0
 76150  1  0  0  0
 77 79  1  0  0  0
 77 86  1  0  0  0
 77151  1  0  0  0
 77152  1  0  0  0
 78 80  1  0  0  0
 78 86  1  0  0  0
 78153  1  0  0  0
 78154  1  0  0  0
 79 87  1  0  0  0
 79155  1  0  0  0
 79156  1  0  0  0
 80 87  1  0  0  0
 80157  1  0  0  0
 80158  1  0  0  0
 81159  1  0  0  0
 82160  1  0  0  0
 82161  1  0  0  0
 82162  1  0  0  0
 83163  1  0  0  0
 83164  1  0  0  0
 84 85  1  0  0  0
M  ISO  4   1 100  68 101  83 101  87 100
M  END
> <chiral flag>
0

> <version>
0

> <s_m_source_file>
/data/baiqing/PycharmProjects/Reinvent-master-3.2/result/LINK_invent/BTK/process_docking_weight1_custom_sum_contain_oxygen_bond_distance_aromatic_linkinvent_7_9_3/rearranged_h_0190.sdf

> <i_m_source_file_index>
30

> <r_mmod_Potential_Energy-OPLS-2005>
552.395751953125

> <r_mmod_Stretch_Energy-OPLS-2005>
149.93586730957

> <r_mmod_Bend_Energy-OPLS-2005>
241.528594970703

> <r_mmod_Torsional_Energy-OPLS-2005>
392.262268066406

> <r_mmod_Improper_Torsional_Energy-OPLS-2005>
19.2726039886475

> <r_mmod_Van_der_Waal_Energy-OPLS-2005>
149.841537475586

> <r_mmod_Electrostatic_Energy-OPLS-2005>
-292.294158935547

> <r_mmod_Solvation_Energy-OPLS-2005>
-227.746734619141

> <b_mmod_Minimization_Converged-OPLS-2005>
0

> <r_mmod_RMS_Derivative-OPLS-2005>
1.64726948738098

$$$$
30
                    3D
 Structure written by MMmdl.
153162  0  0  1  0            999 V2000
  -30.5721  -14.7775   20.4383 C   0  0  0  0  0  0
  -30.4359  -12.4689   19.4779 C   0  0  0  0  0  0
  -29.5144  -12.5046   18.2380 C   0  0  0  0  0  0
  -28.0435  -12.3129   18.6526 C   0  0  0  0  0  0
  -27.6403  -13.2233   19.8431 C   0  0  2  0  0  0
  -28.6797  -13.1698   20.9821 C   0  0  0  0  0  0
  -25.2533  -13.8167   20.5677 C   0  0  0  0  0  0
  -24.1814  -13.0428   20.9195 C   0  0  0  0  0  0
  -24.6388  -11.6904   20.8739 C   0  0  0  0  0  0
  -23.9084  -10.4285   21.0429 C   0  0  0  0  0  0
  -24.3638   -9.4199   21.9203 C   0  0  0  0  0  0
  -23.6306   -8.2236   22.0763 C   0  0  0  0  0  0
  -22.4284   -8.0285   21.3552 C   0  0  0  0  0  0
  -21.9930   -9.0265   20.4654 C   0  0  0  0  0  0
  -22.7264  -10.2137   20.3069 C   0  0  0  0  0  0
  -21.6845   -6.0751   22.5294 C   0  0  0  0  0  0
  -21.4006   -6.5653   23.8229 C   0  0  0  0  0  0
  -21.3651   -5.6800   24.9191 C   0  0  0  0  0  0
  -21.6042   -4.3065   24.7234 C   0  0  0  0  0  0
  -21.8819   -3.8160   23.4355 C   0  0  0  0  0  0
  -21.9187   -4.6980   22.3411 C   0  0  0  0  0  0
  -22.7835  -13.5237   21.1854 C   0  0  0  0  0  0
  -22.1660   -4.2169   21.0990 F   0  0  0  0  0  0
  -21.5618   -3.4546   25.7749 F   0  0  0  0  0  0
  -29.9786  -13.5328   20.4044 N   0  0  0  0  0  0
  -26.2931  -12.9357   20.3223 N   0  0  0  0  0  0
  -25.9313  -11.6513   20.5713 N   0  0  0  0  0  0
  -22.0473  -12.8233   22.0407 N   0  0  0  0  0  0
  -25.4228  -15.1900   20.4100 N   0  0  0  0  0  0
  -31.7621  -14.8898   20.1263 O   0  0  0  0  0  0
  -21.6627   -6.8892   21.4253 O   0  0  0  0  0  0
  -22.3543  -14.5548   20.6712 O   0  0  0  0  0  0
  -24.6344  -31.8516   23.1919 C   0  0  0  0  0  0
  -25.9146  -32.4735   23.8293 C   0  0  1  0  0  0
  -27.2249  -27.2322   20.1260 C   0  0  0  0  0  0
  -25.5938  -33.8540   24.2230 N   0  0  0  0  0  0
  -23.4331  -30.4694   21.5354 C   0  0  2  0  0  0
  -24.8787  -28.9023   20.1068 C   0  0  0  0  0  0
  -22.7513  -29.4591   22.4895 C   0  0  0  0  0  0
  -18.0314  -28.1349   22.8569 C   0  0  0  0  0  0
  -24.1490  -36.7277   23.2642 C   0  0  0  0  0  0
  -25.9795  -30.7503   21.3756 C   0  0  0  0  0  0
  -26.0476  -29.3681   20.7200 C   0  0  0  0  0  0
  -27.2169  -28.5416   20.7223 C   0  0  0  0  0  0
  -26.0307  -26.8287   19.4923 C   0  0  0  0  0  0
  -24.8753  -27.6409   19.4852 C   0  0  0  0  0  0
  -23.6520  -29.7945   20.1541 C   0  0  0  0  0  0
  -25.4118  -36.3060   24.0328 C   0  0  1  0  0  0
  -20.5913  -28.3698   23.1272 C   0  0  2  0  0  0
  -20.6836  -26.9432   22.5356 C   0  0  0  0  0  0
  -19.5698  -26.6246   21.5303 C   0  0  0  0  0  0
  -18.1942  -26.7826   22.1831 C   0  0  0  0  0  0
  -19.1569  -28.8847   23.2906 C   0  0  0  0  0  0
  -18.9490  -30.1463   23.8911 C   0  0  0  0  0  0
  -17.6498  -30.6605   24.0552 C   0  0  0  0  0  0
  -25.9062  -34.9433   23.5088 C   0  0  0  0  0  0
  -16.5391  -29.9083   23.6358 C   0  0  0  0  0  0
  -16.7304  -28.6474   23.0436 C   0  0  0  0  0  0
  -26.4497  -31.6588   25.0711 C   0  0  0  0  0  0
  -25.3706  -31.3750   26.1425 C   0  0  0  0  0  0
  -27.0367  -30.3010   24.6231 C   0  0  0  0  0  0
  -27.6055  -32.4337   25.7484 C   0  0  0  0  0  0
  -27.5576  -37.1794   24.8469 C   0  0  0  0  0  0
  -21.4209  -29.3081   22.3673 N   0  0  0  0  0  0
  -26.4294  -37.3758   23.9407 N   0  0  0  0  0  0
  -24.7014  -31.0440   22.0904 N   0  0  0  0  0  0
  -23.4193  -28.8117   23.3001 O   0  0  0  0  0  0
  -28.3365  -26.3621   20.2265 O   0  0  0  0  0  0
  -26.5640  -34.8925   22.4656 O   0  0  0  0  0  0
  -23.5487  -32.1351   23.7197 O   0  0  0  0  0  0
  -26.5714  -22.1794   20.8256 C   0  0  0  0  0  0
  -28.1709  -23.5906   20.1422 C   0  0  0  0  0  0
  -28.5745  -21.3072   20.3841 C   0  0  0  0  0  0
  -29.1153  -17.8930   19.1449 C   0  0  0  0  0  0
  -29.0698  -18.6530   20.4387 C   0  0  1  0  0  0
  -30.0238  -17.3495   20.2326 C   0  0  1  0  0  0
  -25.1231  -21.9732   21.2212 C   0  0  0  0  0  0
  -28.5049  -25.0363   19.5179 C   0  0  0  0  0  0
  -26.9149  -23.4346   20.5475 N   0  0  0  0  0  0
  -27.3301  -21.0853   20.7677 N   0  0  0  0  0  0
  -29.0553  -22.5382   20.0508 N   0  0  0  0  0  0
  -29.4168  -20.1386   20.3319 N   0  0  0  0  0  0
  -29.7531  -15.8994   20.5719 N   0  0  0  0  0  0
  -31.4754  -12.6059   19.1736 H   0  0  0  0  0  0
  -30.3916  -11.4923   19.9641 H   0  0  0  0  0  0
  -29.8065  -11.7338   17.5243 H   0  0  0  0  0  0
  -29.6301  -13.4587   17.7211 H   0  0  0  0  0  0
  -27.9187  -11.2653   18.9312 H   0  0  0  0  0  0
  -27.3827  -12.4797   17.8001 H   0  0  0  0  0  0
  -27.6320  -14.2398   19.4477 H   0  0  0  0  0  0
  -28.7202  -12.1743   21.4287 H   0  0  0  0  0  0
  -28.4029  -13.8554   21.7850 H   0  0  0  0  0  0
  -25.2787   -9.5666   22.4784 H   0  0  0  0  0  0
  -24.0004   -7.4625   22.7496 H   0  0  0  0  0  0
  -21.0848   -8.8811   19.8965 H   0  0  0  0  0  0
  -22.3747  -10.9693   19.6179 H   0  0  0  0  0  0
  -21.1999   -7.6159   23.9748 H   0  0  0  0  0  0
  -21.1464   -6.0523   25.9096 H   0  0  0  0  0  0
  -22.0599   -2.7623   23.2856 H   0  0  0  0  0  0
  -22.4052  -11.9865   22.4772 H   0  0  0  0  0  0
  -21.1114  -13.1304   22.2642 H   0  0  0  0  0  0
  -24.6510  -15.8392   20.5186 H   0  0  0  0  0  0
  -26.2623  -15.6332   20.0621 H   0  0  0  0  0  0
  -26.7216  -32.5359   23.1034 H   0  0  0  0  0  0
  -25.0096  -33.9665   25.0387 H   0  0  0  0  0  0
  -22.7335  -31.2928   21.3822 H   0  0  0  0  0  0
  -23.3755  -35.9607   23.3308 H   0  0  0  0  0  0
  -24.3585  -36.8890   22.2053 H   0  0  0  0  0  0
  -23.7237  -37.6480   23.6666 H   0  0  0  0  0  0
  -26.1220  -31.5032   20.5981 H   0  0  0  0  0  0
  -26.8575  -30.8025   22.0089 H   0  0  0  0  0  0
  -28.1113  -28.8880   21.2217 H   0  0  0  0  0  0
  -25.9564  -25.8507   19.0392 H   0  0  0  0  0  0
  -23.9753  -27.2724   19.0135 H   0  0  0  0  0  0
  -23.7788  -30.5658   19.3939 H   0  0  0  0  0  0
  -22.7704  -29.2272   19.8507 H   0  0  0  0  0  0
  -25.1298  -36.1913   25.0822 H   0  0  0  0  0  0
  -21.0016  -28.3241   24.1379 H   0  0  0  0  0  0
  -20.5979  -26.2298   23.3566 H   0  0  0  0  0  0
  -21.6668  -26.7580   22.1008 H   0  0  0  0  0  0
  -19.6807  -25.6102   21.1464 H   0  0  0  0  0  0
  -19.6499  -27.2953   20.6736 H   0  0  0  0  0  0
  -17.4107  -26.6439   21.4363 H   0  0  0  0  0  0
  -18.0433  -26.0078   22.9373 H   0  0  0  0  0  0
  -19.7941  -30.7291   24.2320 H   0  0  0  0  0  0
  -17.5072  -31.6287   24.5157 H   0  0  0  0  0  0
  -15.5398  -30.3000   23.7697 H   0  0  0  0  0  0
  -15.8715  -28.0729   22.7235 H   0  0  0  0  0  0
  -24.5880  -30.7108   25.7732 H   0  0  0  0  0  0
  -24.8898  -32.2928   26.4831 H   0  0  0  0  0  0
  -25.7999  -30.8924   27.0216 H   0  0  0  0  0  0
  -26.2967  -29.6734   24.1256 H   0  0  0  0  0  0
  -27.4043  -29.7298   25.4763 H   0  0  0  0  0  0
  -27.8840  -30.4289   23.9495 H   0  0  0  0  0  0
  -27.2677  -33.3647   26.2057 H   0  0  0  0  0  0
  -28.3871  -32.6886   25.0310 H   0  0  0  0  0  0
  -28.0741  -31.8473   26.5401 H   0  0  0  0  0  0
  -28.2604  -38.0079   24.7501 H   0  0  0  0  0  0
  -28.1063  -36.2611   24.6318 H   0  0  0  0  0  0
  -27.2307  -37.1471   25.8877 H   0  0  0  0  0  0
  -20.9381  -29.8786   21.6878 H   0  0  0  0  0  0
  -26.0177  -38.2843   24.1373 H   0  0  0  0  0  0
  -29.6101  -18.3621   18.2952 H   0  0  0  0  0  0
  -28.2173  -17.3344   18.8844 H   0  0  0  0  0  0
  -28.1898  -18.5212   21.0682 H   0  0  0  0  0  0
  -31.0823  -17.5975   20.1571 H   0  0  0  0  0  0
  -24.4567  -22.5006   20.5371 H   0  0  0  0  0  0
  -24.9501  -22.3586   22.2253 H   0  0  0  0  0  0
  -24.8424  -20.9203   21.2003 H   0  0  0  0  0  0
  -28.0215  -25.0923   18.5411 H   0  0  0  0  0  0
  -29.5669  -24.9965   19.2739 H   0  0  0  0  0  0
  -30.3789  -20.3479   20.0950 H   0  0  0  0  0  0
  -28.7982  -15.6867   20.8149 H   0  0  0  0  0  0
  1 25  1  0  0  0
  1 30  2  0  0  0
  1 83  1  0  0  0
  2  3  1  0  0  0
  2 25  1  0  0  0
  2 84  1  0  0  0
  2 85  1  0  0  0
  3  4  1  0  0  0
  3 86  1  0  0  0
  3 87  1  0  0  0
  4  5  1  0  0  0
  4 88  1  0  0  0
  4 89  1  0  0  0
  5  6  1  0  0  0
  5 26  1  0  0  0
  5 90  1  0  0  0
  6 25  1  0  0  0
  6 91  1  0  0  0
  6 92  1  0  0  0
  7  8  2  0  0  0
  7 26  1  0  0  0
  7 29  1  0  0  0
  8  9  1  0  0  0
  8 22  1  0  0  0
  9 10  1  0  0  0
  9 27  2  0  0  0
 10 11  2  0  0  0
 10 15  1  0  0  0
 11 12  1  0  0  0
 11 93  1  0  0  0
 12 13  2  0  0  0
 12 94  1  0  0  0
 13 14  1  0  0  0
 13 31  1  0  0  0
 14 15  2  0  0  0
 14 95  1  0  0  0
 15 96  1  0  0  0
 16 17  2  0  0  0
 16 21  1  0  0  0
 16 31  1  0  0  0
 17 18  1  0  0  0
 17 97  1  0  0  0
 18 19  2  0  0  0
 18 98  1  0  0  0
 19 20  1  0  0  0
 19 24  1  0  0  0
 20 21  2  0  0  0
 20 99  1  0  0  0
 21 23  1  0  0  0
 22 28  1  0  0  0
 22 32  2  0  0  0
 26 27  1  0  0  0
 28100  1  0  0  0
 28101  1  0  0  0
 29102  1  0  0  0
 29103  1  0  0  0
 33 34  1  0  0  0
 33 66  1  0  0  0
 33 70  2  0  0  0
 34 36  1  0  0  0
 34 59  1  0  0  0
 34104  1  0  0  0
 35 44  2  0  0  0
 35 45  1  0  0  0
 35 68  1  0  0  0
 36 56  1  0  0  0
 36105  1  0  0  0
 37 39  1  0  0  0
 37 47  1  0  0  0
 37 66  1  0  0  0
 37106  1  0  0  0
 38 43  2  0  0  0
 38 46  1  0  0  0
 38 47  1  0  0  0
 39 64  1  0  0  0
 39 67  2  0  0  0
 40 52  1  0  0  0
 40 53  2  0  0  0
 40 58  1  0  0  0
 41107  1  0  0  0
 41108  1  0  0  0
 41109  1  0  0  0
 41 48  1  0  0  0
 42 43  1  0  0  0
 42 66  1  0  0  0
 42110  1  0  0  0
 42111  1  0  0  0
 43 44  1  0  0  0
 44112  1  0  0  0
 45 46  2  0  0  0
 45113  1  0  0  0
 46114  1  0  0  0
 47115  1  0  0  0
 47116  1  0  0  0
 48 56  1  0  0  0
 48 65  1  0  0  0
 48117  1  0  0  0
 49 50  1  0  0  0
 49 53  1  0  0  0
 49 64  1  0  0  0
 49118  1  0  0  0
 50 51  1  0  0  0
 50119  1  0  0  0
 50120  1  0  0  0
 51 52  1  0  0  0
 51121  1  0  0  0
 51122  1  0  0  0
 52123  1  0  0  0
 52124  1  0  0  0
 53 54  1  0  0  0
 54 55  2  0  0  0
 54125  1  0  0  0
 55 57  1  0  0  0
 55126  1  0  0  0
 56 69  2  0  0  0
 57 58  2  0  0  0
 57127  1  0  0  0
 58128  1  0  0  0
 59 60  1  0  0  0
 59 61  1  0  0  0
 59 62  1  0  0  0
 60129  1  0  0  0
 60130  1  0  0  0
 60131  1  0  0  0
 61132  1  0  0  0
 61133  1  0  0  0
 61134  1  0  0  0
 62135  1  0  0  0
 62136  1  0  0  0
 62137  1  0  0  0
 63 65  1  0  0  0
 63138  1  0  0  0
 63139  1  0  0  0
 63140  1  0  0  0
 64141  1  0  0  0
 65142  1  0  0  0
 68 78  1  0  0  0
 71 77  1  0  0  0
 71 79  2  0  0  0
 71 80  1  0  0  0
 72 78  1  0  0  0
 72 79  1  0  0  0
 72 81  2  0  0  0
 73 80  2  0  0  0
 73 81  1  0  0  0
 73 82  1  0  0  0
 74 75  1  0  0  0
 74 76  1  0  0  0
 74143  1  0  0  0
 74144  1  0  0  0
 75 76  1  0  0  0
 75 82  1  0  0  0
 75145  1  0  0  0
 76 83  1  0  0  0
 76146  1  0  0  0
 77147  1  0  0  0
 77148  1  0  0  0
 77149  1  0  0  0
 78150  1  0  0  0
 78151  1  0  0  0
 82152  1  0  0  0
 83153  1  0  0  0
M  ISO  4   1 100  68 101  78 101  83 100
M  END
> <chiral flag>
0

> <version>
0

> <s_m_source_file>
/data/baiqing/PycharmProjects/Reinvent-master-3.2/result/LINK_invent/BTK/process_docking_weight1_custom_sum_contain_oxygen_bond_distance_aromatic_linkinvent_7_9_3/rearranged_h_0190.sdf

> <i_m_source_file_index>
31

> <r_mmod_Potential_Energy-OPLS-2005>
-547.504699707031

> <r_mmod_Stretch_Energy-OPLS-2005>
135.070404052734

> <r_mmod_Bend_Energy-OPLS-2005>
196.212600708008

> <r_mmod_Torsional_Energy-OPLS-2005>
256.159454345703

> <r_mmod_Improper_Torsional_Energy-OPLS-2005>
7.7548303604126

> <r_mmod_Van_der_Waal_Energy-OPLS-2005>
146.774124145508

> <r_mmod_Electrostatic_Energy-OPLS-2005>
-1144.00231933594

> <r_mmod_Solvation_Energy-OPLS-2005>
-247.036773681641

> <b_mmod_Minimization_Converged-OPLS-2005>
0

> <r_mmod_RMS_Derivative-OPLS-2005>
2.7089478969574

$$$$
31
                    3D
 Structure written by MMmdl.
158166  0  0  1  0            999 V2000
  -30.5166  -15.1339   20.4106 C   0  0  0  0  0  0
  -30.4318  -12.7273   19.5137 C   0  0  0  0  0  0
  -29.5265  -12.5678   18.2718 C   0  0  0  0  0  0
  -28.0722  -12.3089   18.7006 C   0  0  0  0  0  0
  -27.6155  -13.2724   19.8263 C   0  0  2  0  0  0
  -28.6512  -13.4101   20.9611 C   0  0  0  0  0  0
  -25.2409  -13.8260   20.5757 C   0  0  0  0  0  0
  -24.1757  -13.0445   20.9258 C   0  0  0  0  0  0
  -24.6411  -11.6942   20.8778 C   0  0  0  0  0  0
  -23.9112  -10.4302   21.0415 C   0  0  0  0  0  0
  -24.3655   -9.4215   21.9191 C   0  0  0  0  0  0
  -23.6318   -8.2252   22.0755 C   0  0  0  0  0  0
  -22.4301   -8.0295   21.3541 C   0  0  0  0  0  0
  -21.9949   -9.0279   20.4649 C   0  0  0  0  0  0
  -22.7289  -10.2146   20.3059 C   0  0  0  0  0  0
  -21.6853   -6.0763   22.5286 C   0  0  0  0  0  0
  -21.4012   -6.5659   23.8225 C   0  0  0  0  0  0
  -21.3664   -5.6800   24.9182 C   0  0  0  0  0  0
  -21.6046   -4.3068   24.7217 C   0  0  0  0  0  0
  -21.8816   -3.8167   23.4334 C   0  0  0  0  0  0
  -21.9187   -4.6988   22.3397 C   0  0  0  0  0  0
  -22.7770  -13.5194   21.1911 C   0  0  0  0  0  0
  -22.1658   -4.2180   21.0970 F   0  0  0  0  0  0
  -21.5630   -3.4542   25.7727 F   0  0  0  0  0  0
  -29.8986  -13.8678   20.3350 N   0  0  0  0  0  0
  -26.2833  -12.9524   20.3235 N   0  0  0  0  0  0
  -25.9344  -11.6639   20.5742 N   0  0  0  0  0  0
  -22.0434  -12.8165   22.0457 N   0  0  0  0  0  0
  -25.4066  -15.1988   20.4228 N   0  0  0  0  0  0
  -31.7411  -15.1019   20.2221 O   0  0  0  0  0  0
  -21.6644   -6.8901   21.4247 O   0  0  0  0  0  0
  -22.3438  -14.5504   20.6768 O   0  0  0  0  0  0
  -24.6528  -31.8318   23.1755 C   0  0  0  0  0  0
  -25.9242  -32.4623   23.8201 C   0  0  1  0  0  0
  -27.2212  -27.0155   20.1864 C   0  0  0  0  0  0
  -25.5969  -33.8437   24.2122 N   0  0  0  0  0  0
  -23.4630  -30.4472   21.5228 C   0  0  2  0  0  0
  -24.9144  -28.8405   20.1217 C   0  0  0  0  0  0
  -22.7616  -29.4492   22.4786 C   0  0  0  0  0  0
  -18.0314  -28.1402   22.8460 C   0  0  0  0  0  0
  -24.1496  -36.7218   23.2651 C   0  0  0  0  0  0
  -26.0260  -30.6683   21.3898 C   0  0  0  0  0  0
  -26.0977  -29.2635   20.7425 C   0  0  0  0  0  0
  -27.2502  -28.3746   20.7434 C   0  0  0  0  0  0
  -26.0059  -26.7113   19.5361 C   0  0  0  0  0  0
  -24.8866  -27.5797   19.5038 C   0  0  0  0  0  0
  -23.7002  -29.7631   20.1491 C   0  0  0  0  0  0
  -25.4119  -36.2972   24.0318 C   0  0  1  0  0  0
  -20.5932  -28.3737   23.1187 C   0  0  2  0  0  0
  -20.6799  -26.9418   22.5389 C   0  0  0  0  0  0
  -19.5778  -26.6343   21.5208 C   0  0  0  0  0  0
  -18.1947  -26.7930   22.1592 C   0  0  0  0  0  0
  -19.1576  -28.8883   23.2821 C   0  0  0  0  0  0
  -18.9493  -30.1468   23.8858 C   0  0  0  0  0  0
  -17.6496  -30.6595   24.0557 C   0  0  0  0  0  0
  -25.9070  -34.9360   23.5032 C   0  0  0  0  0  0
  -16.5385  -29.9090   23.6340 C   0  0  0  0  0  0
  -16.7293  -28.6510   23.0347 C   0  0  0  0  0  0
  -26.4534  -31.6538   25.0696 C   0  0  0  0  0  0
  -25.3702  -31.3781   26.1386 C   0  0  0  0  0  0
  -27.0436  -30.2927   24.6347 C   0  0  0  0  0  0
  -27.6038  -32.4340   25.7492 C   0  0  0  0  0  0
  -27.5570  -37.1743   24.8453 C   0  0  0  0  0  0
  -21.4283  -29.3062   22.3560 N   0  0  0  0  0  0
  -26.4261  -37.3701   23.9438 N   0  0  0  0  0  0
  -24.7353  -31.0071   22.0837 N   0  0  0  0  0  0
  -23.4219  -28.8031   23.2961 O   0  0  0  0  0  0
  -28.2818  -26.0021   20.1481 O   0  0  0  0  0  0
  -26.5652  -34.8891   22.4604 O   0  0  0  0  0  0
  -23.5623  -32.1218   23.6903 O   0  0  0  0  0  0
  -30.1558  -17.4721   21.6383 C   0  0  0  0  0  0
  -30.1754  -19.0931   21.3533 C   0  0  0  0  0  0
  -29.0003  -17.2454   19.6072 C   0  0  0  0  0  0
  -29.1064  -18.9049   19.4154 C   0  0  1  0  0  0
  -27.9471  -19.3448   18.5103 C   0  0  0  0  0  0
  -29.2628  -21.4607   20.6615 C   0  0  0  0  0  0
  -28.2468  -24.4782   20.6800 C   0  0  0  0  0  0
  -28.4907  -22.8823   19.9730 C   0  0  1  0  0  0
  -29.8410  -16.4253   20.5844 N   0  0  0  0  0  0
  -29.0934  -19.8433   20.6078 N   0  0  0  0  0  0
  -29.1076  -23.0926   18.6472 N   0  3  0  0  0  0
  -31.4600  -12.9001   19.1933 H   0  0  0  0  0  0
  -30.4566  -11.8055   20.0961 H   0  0  0  0  0  0
  -29.8863  -11.7577   17.6368 H   0  0  0  0  0  0
  -29.5749  -13.4761   17.6681 H   0  0  0  0  0  0
  -28.0162  -11.2793   19.0536 H   0  0  0  0  0  0
  -27.4013  -12.3753   17.8443 H   0  0  0  0  0  0
  -27.5423  -14.2519   19.3509 H   0  0  0  0  0  0
  -28.7879  -12.4739   21.5044 H   0  0  0  0  0  0
  -28.3135  -14.1484   21.6916 H   0  0  0  0  0  0
  -25.2801   -9.5676   22.4777 H   0  0  0  0  0  0
  -24.0035   -7.4621   22.7462 H   0  0  0  0  0  0
  -21.0892   -8.8807   19.8933 H   0  0  0  0  0  0
  -22.3775  -10.9691   19.6172 H   0  0  0  0  0  0
  -21.2008   -7.6168   23.9742 H   0  0  0  0  0  0
  -21.1487   -6.0527   25.9087 H   0  0  0  0  0  0
  -22.0587   -2.7627   23.2820 H   0  0  0  0  0  0
  -22.4059  -11.9820   22.4829 H   0  0  0  0  0  0
  -21.1041  -13.1155   22.2680 H   0  0  0  0  0  0
  -24.6418  -15.8533   20.5474 H   0  0  0  0  0  0
  -26.2703  -15.6435   20.1396 H   0  0  0  0  0  0
  -26.7310  -32.5192   23.0925 H   0  0  0  0  0  0
  -25.0175  -33.9552   25.0313 H   0  0  0  0  0  0
  -22.7729  -31.2768   21.3540 H   0  0  0  0  0  0
  -23.3768  -35.9532   23.3225 H   0  0  0  0  0  0
  -24.3608  -36.8924   22.2084 H   0  0  0  0  0  0
  -23.7223  -37.6382   23.6739 H   0  0  0  0  0  0
  -26.1894  -31.4097   20.6069 H   0  0  0  0  0  0
  -26.8948  -30.7318   22.0332 H   0  0  0  0  0  0
  -28.1591  -28.7051   21.2270 H   0  0  0  0  0  0
  -25.9088  -25.7499   19.0533 H   0  0  0  0  0  0
  -23.9815  -27.2479   19.0120 H   0  0  0  0  0  0
  -23.8593  -30.5331   19.3938 H   0  0  0  0  0  0
  -22.8096  -29.2203   19.8276 H   0  0  0  0  0  0
  -25.1297  -36.1770   25.0803 H   0  0  0  0  0  0
  -21.0018  -28.3325   24.1307 H   0  0  0  0  0  0
  -20.5663  -26.2347   23.3620 H   0  0  0  0  0  0
  -21.6666  -26.7391   22.1206 H   0  0  0  0  0  0
  -19.6958  -25.6241   21.1258 H   0  0  0  0  0  0
  -19.6748  -27.3141   20.6737 H   0  0  0  0  0  0
  -17.4220  -26.6659   21.3992 H   0  0  0  0  0  0
  -18.0352  -26.0105   22.9011 H   0  0  0  0  0  0
  -19.7990  -30.7282   24.2185 H   0  0  0  0  0  0
  -17.5072  -31.6277   24.5159 H   0  0  0  0  0  0
  -15.5382  -30.2997   23.7702 H   0  0  0  0  0  0
  -15.8679  -28.0840   22.7062 H   0  0  0  0  0  0
  -24.5905  -30.7094   25.7721 H   0  0  0  0  0  0
  -24.8882  -32.3001   26.4660 H   0  0  0  0  0  0
  -25.7975  -30.9068   27.0250 H   0  0  0  0  0  0
  -26.3108  -29.6606   24.1328 H   0  0  0  0  0  0
  -27.4018  -29.7260   25.4945 H   0  0  0  0  0  0
  -27.9004  -30.4148   23.9719 H   0  0  0  0  0  0
  -27.2613  -33.3694   26.1929 H   0  0  0  0  0  0
  -28.3931  -32.6794   25.0377 H   0  0  0  0  0  0
  -28.0621  -31.8563   26.5529 H   0  0  0  0  0  0
  -28.2473  -38.0142   24.7564 H   0  0  0  0  0  0
  -28.1155  -36.2653   24.6150 H   0  0  0  0  0  0
  -27.2312  -37.1242   25.8859 H   0  0  0  0  0  0
  -20.9471  -29.8831   21.6817 H   0  0  0  0  0  0
  -26.0085  -38.2731   24.1526 H   0  0  0  0  0  0
  -29.4373  -17.2945   22.4398 H   0  0  0  0  0  0
  -31.1208  -17.2120   22.0763 H   0  0  0  0  0  0
  -31.1175  -19.3109   20.8446 H   0  0  0  0  0  0
  -30.2850  -19.5796   22.3248 H   0  0  0  0  0  0
  -29.1249  -16.7863   18.6250 H   0  0  0  0  0  0
  -27.9700  -17.0211   19.8853 H   0  0  0  0  0  0
  -30.0325  -19.0987   18.8702 H   0  0  0  0  0  0
  -26.9857  -19.1904   19.0031 H   0  0  0  0  0  0
  -27.9319  -18.7653   17.5862 H   0  0  0  0  0  0
  -28.0108  -20.3950   18.2324 H   0  0  0  0  0  0
  -29.1538  -21.6455   21.7308 H   0  0  0  0  0  0
  -30.3294  -21.6223   20.4935 H   0  0  0  0  0  0
  -29.0131  -24.5139   21.4551 H   0  0  0  0  0  0
  -27.3250  -24.4083   21.2590 H   0  0  0  0  0  0
  -27.4749  -22.5543   19.7520 H   0  0  0  0  0  0
  -30.0303  -23.4838   18.7348 H   0  0  0  0  0  0
  -28.5528  -23.7235   18.0953 H   0  0  0  0  0  0
  -29.1799  -22.2251   18.1472 H   0  0  0  0  0  0
  1 25  1  0  0  0
  1 30  2  0  0  0
  1 79  1  0  0  0
  2  3  1  0  0  0
  2 25  1  0  0  0
  2 82  1  0  0  0
  2 83  1  0  0  0
  3  4  1  0  0  0
  3 84  1  0  0  0
  3 85  1  0  0  0
  4  5  1  0  0  0
  4 86  1  0  0  0
  4 87  1  0  0  0
  5  6  1  0  0  0
  5 26  1  0  0  0
  5 88  1  0  0  0
  6 25  1  0  0  0
  6 89  1  0  0  0
  6 90  1  0  0  0
  7  8  2  0  0  0
  7 26  1  0  0  0
  7 29  1  0  0  0
  8  9  1  0  0  0
  8 22  1  0  0  0
  9 10  1  0  0  0
  9 27  2  0  0  0
 10 11  2  0  0  0
 10 15  1  0  0  0
 11 12  1  0  0  0
 11 91  1  0  0  0
 12 13  2  0  0  0
 12 92  1  0  0  0
 13 14  1  0  0  0
 13 31  1  0  0  0
 14 15  2  0  0  0
 14 93  1  0  0  0
 15 94  1  0  0  0
 16 17  2  0  0  0
 16 21  1  0  0  0
 16 31  1  0  0  0
 17 18  1  0  0  0
 17 95  1  0  0  0
 18 19  2  0  0  0
 18 96  1  0  0  0
 19 20  1  0  0  0
 19 24  1  0  0  0
 20 21  2  0  0  0
 20 97  1  0  0  0
 21 23  1  0  0  0
 22 28  1  0  0  0
 22 32  2  0  0  0
 26 27  1  0  0  0
 28 98  1  0  0  0
 28 99  1  0  0  0
 29100  1  0  0  0
 29101  1  0  0  0
 33 34  1  0  0  0
 33 66  1  0  0  0
 33 70  2  0  0  0
 34 36  1  0  0  0
 34 59  1  0  0  0
 34102  1  0  0  0
 35 44  2  0  0  0
 35 45  1  0  0  0
 35 68  1  0  0  0
 36 56  1  0  0  0
 36103  1  0  0  0
 37 39  1  0  0  0
 37 47  1  0  0  0
 37 66  1  0  0  0
 37104  1  0  0  0
 38 43  2  0  0  0
 38 46  1  0  0  0
 38 47  1  0  0  0
 39 64  1  0  0  0
 39 67  2  0  0  0
 40 52  1  0  0  0
 40 53  2  0  0  0
 40 58  1  0  0  0
 41105  1  0  0  0
 41106  1  0  0  0
 41107  1  0  0  0
 41 48  1  0  0  0
 42 43  1  0  0  0
 42 66  1  0  0  0
 42108  1  0  0  0
 42109  1  0  0  0
 43 44  1  0  0  0
 44110  1  0  0  0
 45 46  2  0  0  0
 45111  1  0  0  0
 46112  1  0  0  0
 47113  1  0  0  0
 47114  1  0  0  0
 48 56  1  0  0  0
 48 65  1  0  0  0
 48115  1  0  0  0
 49 50  1  0  0  0
 49 53  1  0  0  0
 49 64  1  0  0  0
 49116  1  0  0  0
 50 51  1  0  0  0
 50117  1  0  0  0
 50118  1  0  0  0
 51 52  1  0  0  0
 51119  1  0  0  0
 51120  1  0  0  0
 52121  1  0  0  0
 52122  1  0  0  0
 53 54  1  0  0  0
 54 55  2  0  0  0
 54123  1  0  0  0
 55 57  1  0  0  0
 55124  1  0  0  0
 56 69  2  0  0  0
 57 58  2  0  0  0
 57125  1  0  0  0
 58126  1  0  0  0
 59 60  1  0  0  0
 59 61  1  0  0  0
 59 62  1  0  0  0
 60127  1  0  0  0
 60128  1  0  0  0
 60129  1  0  0  0
 61130  1  0  0  0
 61131  1  0  0  0
 61132  1  0  0  0
 62133  1  0  0  0
 62134  1  0  0  0
 62135  1  0  0  0
 63 65  1  0  0  0
 63136  1  0  0  0
 63137  1  0  0  0
 63138  1  0  0  0
 64139  1  0  0  0
 65140  1  0  0  0
 68 77  1  0  0  0
 71 72  1  0  0  0
 71 79  1  0  0  0
 71141  1  0  0  0
 71142  1  0  0  0
 72 80  1  0  0  0
 72143  1  0  0  0
 72144  1  0  0  0
 73 74  1  0  0  0
 73 79  1  0  0  0
 73145  1  0  0  0
 73146  1  0  0  0
 74 75  1  0  0  0
 74 80  1  0  0  0
 74147  1  0  0  0
 75148  1  0  0  0
 75149  1  0  0  0
 75150  1  0  0  0
 76 78  1  0  0  0
 76 80  1  0  0  0
 76151  1  0  0  0
 76152  1  0  0  0
 77 78  1  0  0  0
 77153  1  0  0  0
 77154  1  0  0  0
 78 81  1  0  0  0
 78155  1  0  0  0
 81156  1  0  0  0
 81157  1  0  0  0
 81158  1  0  0  0
M  CHG  1  81   1
M  ISO  4   1 100  68 101  77 101  79 100
M  END
> <chiral flag>
0

> <version>
0

> <s_m_source_file>
/data/baiqing/PycharmProjects/Reinvent-master-3.2/result/LINK_invent/BTK/process_docking_weight1_custom_sum_contain_oxygen_bond_distance_aromatic_linkinvent_7_9_3/rearranged_h_0190.sdf

> <i_m_source_file_index>
32

> <r_mmod_Potential_Energy-OPLS-2005>
958.550537109375

> <r_mmod_Stretch_Energy-OPLS-2005>
417.303558349609

> <r_mmod_Bend_Energy-OPLS-2005>
469.976837158203

> <r_mmod_Torsional_Energy-OPLS-2005>
403.000030517578

> <r_mmod_Improper_Torsional_Energy-OPLS-2005>
3.01023197174072

> <r_mmod_Van_der_Waal_Energy-OPLS-2005>
110.555541992188

> <r_mmod_Electrostatic_Energy-OPLS-2005>
-291.50146484375

> <r_mmod_Solvation_Energy-OPLS-2005>
-477.266906738281

> <b_mmod_Minimization_Converged-OPLS-2005>
0

> <r_mmod_RMS_Derivative-OPLS-2005>
2.73382043838501

$$$$
32
                    3D
 Structure written by MMmdl.
149158  0  0  1  0            999 V2000
  -30.5003  -15.1483   20.3801 C   0  0  0  0  0  0
  -30.4352  -12.7242   19.5144 C   0  0  0  0  0  0
  -29.5281  -12.5512   18.2738 C   0  0  0  0  0  0
  -28.0689  -12.3063   18.6972 C   0  0  0  0  0  0
  -27.6174  -13.2681   19.8254 C   0  0  2  0  0  0
  -28.6568  -13.4068   20.9576 C   0  0  0  0  0  0
  -25.2434  -13.8251   20.5744 C   0  0  0  0  0  0
  -24.1769  -13.0448   20.9237 C   0  0  0  0  0  0
  -24.6405  -11.6939   20.8752 C   0  0  0  0  0  0
  -23.9094  -10.4306   21.0396 C   0  0  0  0  0  0
  -24.3642   -9.4222   21.9178 C   0  0  0  0  0  0
  -23.6325   -8.2252   22.0746 C   0  0  0  0  0  0
  -22.4298   -8.0286   21.3544 C   0  0  0  0  0  0
  -21.9940   -9.0257   20.4645 C   0  0  0  0  0  0
  -22.7263  -10.2141   20.3056 C   0  0  0  0  0  0
  -21.6863   -6.0740   22.5270 C   0  0  0  0  0  0
  -21.4021   -6.5637   23.8206 C   0  0  0  0  0  0
  -21.3669   -5.6791   24.9171 C   0  0  0  0  0  0
  -21.6048   -4.3056   24.7218 C   0  0  0  0  0  0
  -21.8823   -3.8145   23.4341 C   0  0  0  0  0  0
  -21.9205   -4.6966   22.3399 C   0  0  0  0  0  0
  -22.7786  -13.5194   21.1904 C   0  0  0  0  0  0
  -22.1667   -4.2149   21.0977 F   0  0  0  0  0  0
  -21.5641   -3.4545   25.7728 F   0  0  0  0  0  0
  -29.9009  -13.8697   20.3265 N   0  0  0  0  0  0
  -26.2854  -12.9510   20.3244 N   0  0  0  0  0  0
  -25.9340  -11.6617   20.5725 N   0  0  0  0  0  0
  -22.0463  -12.8166   22.0457 N   0  0  0  0  0  0
  -25.4135  -15.1991   20.4199 N   0  0  0  0  0  0
  -31.7210  -15.1383   20.1702 O   0  0  0  0  0  0
  -21.6658   -6.8881   21.4226 O   0  0  0  0  0  0
  -22.3455  -14.5500   20.6756 O   0  0  0  0  0  0
  -24.6566  -31.8309   23.1761 C   0  0  0  0  0  0
  -25.9271  -32.4626   23.8219 C   0  0  1  0  0  0
  -27.2187  -26.9969   20.1677 C   0  0  0  0  0  0
  -25.5963  -33.8439   24.2126 N   0  0  0  0  0  0
  -23.4683  -30.4431   21.5260 C   0  0  2  0  0  0
  -24.9212  -28.8450   20.1104 C   0  0  0  0  0  0
  -22.7635  -29.4458   22.4823 C   0  0  0  0  0  0
  -18.0315  -28.1392   22.8466 C   0  0  0  0  0  0
  -24.1496  -36.7224   23.2652 C   0  0  0  0  0  0
  -26.0336  -30.6579   21.3967 C   0  0  0  0  0  0
  -26.1036  -29.2556   20.7379 C   0  0  0  0  0  0
  -27.2499  -28.3510   20.7447 C   0  0  0  0  0  0
  -26.0072  -26.7220   19.4951 C   0  0  0  0  0  0
  -24.8940  -27.5962   19.4707 C   0  0  0  0  0  0
  -23.7038  -29.7632   20.1501 C   0  0  0  0  0  0
  -25.4128  -36.3001   24.0319 C   0  0  1  0  0  0
  -20.5935  -28.3731   23.1221 C   0  0  2  0  0  0
  -20.6796  -26.9423   22.5413 C   0  0  0  0  0  0
  -19.5772  -26.6368   21.5223 C   0  0  0  0  0  0
  -18.1952  -26.7924   22.1624 C   0  0  0  0  0  0
  -19.1572  -28.8879   23.2822 C   0  0  0  0  0  0
  -18.9487  -30.1474   23.8851 C   0  0  0  0  0  0
  -17.6486  -30.6585   24.0556 C   0  0  0  0  0  0
  -25.9083  -34.9371   23.5041 C   0  0  0  0  0  0
  -16.5376  -29.9075   23.6342 C   0  0  0  0  0  0
  -16.7301  -28.6495   23.0359 C   0  0  0  0  0  0
  -26.4536  -31.6541   25.0712 C   0  0  0  0  0  0
  -25.3680  -31.3762   26.1380 C   0  0  0  0  0  0
  -27.0434  -30.2928   24.6385 C   0  0  0  0  0  0
  -27.6045  -32.4332   25.7495 C   0  0  0  0  0  0
  -27.5576  -37.1764   24.8470 C   0  0  0  0  0  0
  -21.4314  -29.3026   22.3571 N   0  0  0  0  0  0
  -26.4291  -37.3724   23.9410 N   0  0  0  0  0  0
  -24.7402  -31.0018   22.0871 N   0  0  0  0  0  0
  -23.4213  -28.8035   23.3046 O   0  0  0  0  0  0
  -28.2297  -25.9253   20.2508 O   0  0  0  0  0  0
  -26.5697  -34.8901   22.4637 O   0  0  0  0  0  0
  -23.5647  -32.1262   23.6878 O   0  0  0  0  0  0
  -30.7141  -20.9044   20.9805 C   0  0  0  0  0  0
  -30.9643  -22.2792   21.1604 C   0  0  0  0  0  0
  -29.4921  -20.4537   20.4642 C   0  0  0  0  0  0
  -28.9009  -22.9652   20.3532 C   0  0  0  0  0  0
  -30.0140  -17.6279   19.4213 C   0  0  0  0  0  0
  -29.7502  -17.5728   21.3835 C   0  0  0  0  0  0
  -29.3033  -18.7414   20.3516 C   0  0  0  0  0  0
  -27.9306  -24.3458   20.0300 C   0  0  0  0  0  0
  -30.0916  -23.2673   20.8595 N   0  0  0  0  0  0
  -28.6021  -21.5667   20.1552 N   0  0  0  0  0  0
  -29.7643  -16.4210   20.3585 N   0  0  0  0  0  0
  -31.4619  -12.9009   19.1890 H   0  0  0  0  0  0
  -30.4668  -11.8084   20.1074 H   0  0  0  0  0  0
  -29.8834  -11.7256   17.6557 H   0  0  0  0  0  0
  -29.5840  -13.4470   17.6535 H   0  0  0  0  0  0
  -27.9958  -11.2734   19.0395 H   0  0  0  0  0  0
  -27.4034  -12.3866   17.8370 H   0  0  0  0  0  0
  -27.5458  -14.2461   19.3471 H   0  0  0  0  0  0
  -28.7965  -12.4667   21.4934 H   0  0  0  0  0  0
  -28.3230  -14.1402   21.6929 H   0  0  0  0  0  0
  -25.2785   -9.5701   22.4741 H   0  0  0  0  0  0
  -24.0039   -7.4645   22.7455 H   0  0  0  0  0  0
  -21.0878   -8.8769   19.8945 H   0  0  0  0  0  0
  -22.3710  -10.9676   19.6162 H   0  0  0  0  0  0
  -21.1992   -7.6143   23.9702 H   0  0  0  0  0  0
  -21.1498   -6.0523   25.9070 H   0  0  0  0  0  0
  -22.0596   -2.7605   23.2836 H   0  0  0  0  0  0
  -22.4118  -11.9838   22.4823 H   0  0  0  0  0  0
  -21.1064  -13.1131   22.2665 H   0  0  0  0  0  0
  -24.6548  -15.8604   20.5476 H   0  0  0  0  0  0
  -26.2778  -15.6375   20.1256 H   0  0  0  0  0  0
  -26.7338  -32.5173   23.0937 H   0  0  0  0  0  0
  -25.0065  -33.9541   25.0248 H   0  0  0  0  0  0
  -22.7765  -31.2713   21.3588 H   0  0  0  0  0  0
  -23.3776  -35.9541   23.3313 H   0  0  0  0  0  0
  -24.3585  -36.8865   22.2070 H   0  0  0  0  0  0
  -23.7238  -37.6413   23.6691 H   0  0  0  0  0  0
  -26.2047  -31.4031   20.6192 H   0  0  0  0  0  0
  -26.8973  -30.7118   22.0473 H   0  0  0  0  0  0
  -28.1458  -28.6590   21.2656 H   0  0  0  0  0  0
  -25.8810  -25.7672   19.0067 H   0  0  0  0  0  0
  -23.9919  -27.2727   18.9688 H   0  0  0  0  0  0
  -23.8527  -30.5345   19.3944 H   0  0  0  0  0  0
  -22.8133  -29.2145   19.8368 H   0  0  0  0  0  0
  -25.1316  -36.1828   25.0815 H   0  0  0  0  0  0
  -21.0006  -28.3334   24.1353 H   0  0  0  0  0  0
  -20.5699  -26.2345   23.3641 H   0  0  0  0  0  0
  -21.6660  -26.7418   22.1204 H   0  0  0  0  0  0
  -19.6941  -25.6266   21.1275 H   0  0  0  0  0  0
  -19.6720  -27.3162   20.6740 H   0  0  0  0  0  0
  -17.4224  -26.6683   21.4024 H   0  0  0  0  0  0
  -18.0335  -26.0070   22.9022 H   0  0  0  0  0  0
  -19.7966  -30.7292   24.2208 H   0  0  0  0  0  0
  -17.5042  -31.6269   24.5152 H   0  0  0  0  0  0
  -15.5369  -30.2965   23.7684 H   0  0  0  0  0  0
  -15.8706  -28.0801   22.7097 H   0  0  0  0  0  0
  -24.5876  -30.7092   25.7698 H   0  0  0  0  0  0
  -24.8835  -32.2940   26.4710 H   0  0  0  0  0  0
  -25.7921  -30.8999   27.0228 H   0  0  0  0  0  0
  -26.3097  -29.6604   24.1370 H   0  0  0  0  0  0
  -27.4000  -29.7276   25.5008 H   0  0  0  0  0  0
  -27.9016  -30.4169   23.9782 H   0  0  0  0  0  0
  -27.2646  -33.3684   26.1964 H   0  0  0  0  0  0
  -28.3894  -32.6813   25.0334 H   0  0  0  0  0  0
  -28.0670  -31.8526   26.5492 H   0  0  0  0  0  0
  -28.2570  -38.0084   24.7511 H   0  0  0  0  0  0
  -28.1092  -36.2599   24.6289 H   0  0  0  0  0  0
  -27.2291  -37.1397   25.8877 H   0  0  0  0  0  0
  -20.9560  -29.8731   21.6719 H   0  0  0  0  0  0
  -26.0154  -38.2797   24.1408 H   0  0  0  0  0  0
  -31.4810  -20.1944   21.2590 H   0  0  0  0  0  0
  -31.9075  -22.6019   21.5755 H   0  0  0  0  0  0
  -29.5355  -17.5405   18.4441 H   0  0  0  0  0  0
  -31.0770  -17.8318   19.2700 H   0  0  0  0  0  0
  -30.7351  -17.7625   21.8180 H   0  0  0  0  0  0
  -29.0341  -17.4404   22.1951 H   0  0  0  0  0  0
  -28.2303  -18.6253   20.1952 H   0  0  0  0  0  0
  -26.9906  -24.1475   20.5464 H   0  0  0  0  0  0
  -27.6866  -24.2555   18.9704 H   0  0  0  0  0  0
  1 25  1  0  0  0
  1 30  2  0  0  0
  1 81  1  0  0  0
  2  3  1  0  0  0
  2 25  1  0  0  0
  2 82  1  0  0  0
  2 83  1  0  0  0
  3  4  1  0  0  0
  3 84  1  0  0  0
  3 85  1  0  0  0
  4  5  1  0  0  0
  4 86  1  0  0  0
  4 87  1  0  0  0
  5  6  1  0  0  0
  5 26  1  0  0  0
  5 88  1  0  0  0
  6 25  1  0  0  0
  6 89  1  0  0  0
  6 90  1  0  0  0
  7  8  2  0  0  0
  7 26  1  0  0  0
  7 29  1  0  0  0
  8  9  1  0  0  0
  8 22  1  0  0  0
  9 10  1  0  0  0
  9 27  2  0  0  0
 10 11  2  0  0  0
 10 15  1  0  0  0
 11 12  1  0  0  0
 11 91  1  0  0  0
 12 13  2  0  0  0
 12 92  1  0  0  0
 13 14  1  0  0  0
 13 31  1  0  0  0
 14 15  2  0  0  0
 14 93  1  0  0  0
 15 94  1  0  0  0
 16 17  2  0  0  0
 16 21  1  0  0  0
 16 31  1  0  0  0
 17 18  1  0  0  0
 17 95  1  0  0  0
 18 19  2  0  0  0
 18 96  1  0  0  0
 19 20  1  0  0  0
 19 24  1  0  0  0
 20 21  2  0  0  0
 20 97  1  0  0  0
 21 23  1  0  0  0
 22 28  1  0  0  0
 22 32  2  0  0  0
 26 27  1  0  0  0
 28 98  1  0  0  0
 28 99  1  0  0  0
 29100  1  0  0  0
 29101  1  0  0  0
 33 34  1  0  0  0
 33 66  1  0  0  0
 33 70  2  0  0  0
 34 36  1  0  0  0
 34 59  1  0  0  0
 34102  1  0  0  0
 35 44  2  0  0  0
 35 45  1  0  0  0
 35 68  1  0  0  0
 36 56  1  0  0  0
 36103  1  0  0  0
 37 39  1  0  0  0
 37 47  1  0  0  0
 37 66  1  0  0  0
 37104  1  0  0  0
 38 43  2  0  0  0
 38 46  1  0  0  0
 38 47  1  0  0  0
 39 64  1  0  0  0
 39 67  2  0  0  0
 40 52  1  0  0  0
 40 53  2  0  0  0
 40 58  1  0  0  0
 41105  1  0  0  0
 41106  1  0  0  0
 41107  1  0  0  0
 41 48  1  0  0  0
 42 43  1  0  0  0
 42 66  1  0  0  0
 42108  1  0  0  0
 42109  1  0  0  0
 43 44  1  0  0  0
 44110  1  0  0  0
 45 46  2  0  0  0
 45111  1  0  0  0
 46112  1  0  0  0
 47113  1  0  0  0
 47114  1  0  0  0
 48 56  1  0  0  0
 48 65  1  0  0  0
 48115  1  0  0  0
 49 50  1  0  0  0
 49 53  1  0  0  0
 49 64  1  0  0  0
 49116  1  0  0  0
 50 51  1  0  0  0
 50117  1  0  0  0
 50118  1  0  0  0
 51 52  1  0  0  0
 51119  1  0  0  0
 51120  1  0  0  0
 52121  1  0  0  0
 52122  1  0  0  0
 53 54  1  0  0  0
 54 55  2  0  0  0
 54123  1  0  0  0
 55 57  1  0  0  0
 55124  1  0  0  0
 56 69  2  0  0  0
 57 58  2  0  0  0
 57125  1  0  0  0
 58126  1  0  0  0
 59 60  1  0  0  0
 59 61  1  0  0  0
 59 62  1  0  0  0
 60127  1  0  0  0
 60128  1  0  0  0
 60129  1  0  0  0
 61130  1  0  0  0
 61131  1  0  0  0
 61132  1  0  0  0
 62133  1  0  0  0
 62134  1  0  0  0
 62135  1  0  0  0
 63 65  1  0  0  0
 63136  1  0  0  0
 63137  1  0  0  0
 63138  1  0  0  0
 64139  1  0  0  0
 65140  1  0  0  0
 68 78  1  0  0  0
 71 72  2  0  0  0
 71 73  1  0  0  0
 71141  1  0  0  0
 72 79  1  0  0  0
 72142  1  0  0  0
 73 80  2  0  0  0
 73 77  1  0  0  0
 74 78  1  0  0  0
 74 79  2  0  0  0
 74 80  1  0  0  0
 75 77  1  0  0  0
 75 81  1  0  0  0
 75143  1  0  0  0
 75144  1  0  0  0
 76 77  1  0  0  0
 76 81  1  0  0  0
 76145  1  0  0  0
 76146  1  0  0  0
 77147  1  0  0  0
 78148  1  0  0  0
 78149  1  0  0  0
M  ISO  4   1 100  68 101  78 101  81 100
M  END
> <chiral flag>
0

> <version>
0

> <s_m_source_file>
/data/baiqing/PycharmProjects/Reinvent-master-3.2/result/LINK_invent/BTK/process_docking_weight1_custom_sum_contain_oxygen_bond_distance_aromatic_linkinvent_7_9_3/rearranged_h_0190.sdf

> <i_m_source_file_index>
33

> <r_mmod_Potential_Energy-OPLS-2005>
603.646118164062

> <r_mmod_Stretch_Energy-OPLS-2005>
412.617462158203

> <r_mmod_Bend_Energy-OPLS-2005>
356.086944580078

> <r_mmod_Torsional_Energy-OPLS-2005>
260.675842285156

> <r_mmod_Improper_Torsional_Energy-OPLS-2005>
14.6308641433716

> <r_mmod_Van_der_Waal_Energy-OPLS-2005>
130.250503540039

> <r_mmod_Electrostatic_Energy-OPLS-2005>
-679.556823730469

> <r_mmod_Solvation_Energy-OPLS-2005>
-242.560974121094

> <b_mmod_Minimization_Converged-OPLS-2005>
0

> <r_mmod_RMS_Derivative-OPLS-2005>
2.02899599075317

$$$$
33
                    3D
 Structure written by MMmdl.
159168  0  0  1  0            999 V2000
  -30.5984  -14.7785   20.4561 C   0  0  0  0  0  0
  -30.4263  -12.4765   19.4733 C   0  0  0  0  0  0
  -29.5055  -12.5086   18.2341 C   0  0  0  0  0  0
  -28.0330  -12.3236   18.6501 C   0  0  0  0  0  0
  -27.6329  -13.2330   19.8437 C   0  0  2  0  0  0
  -28.6784  -13.1889   20.9779 C   0  0  0  0  0  0
  -25.2469  -13.8194   20.5698 C   0  0  0  0  0  0
  -24.1770  -13.0436   20.9228 C   0  0  0  0  0  0
  -24.6364  -11.6917   20.8758 C   0  0  0  0  0  0
  -23.9047  -10.4291   21.0406 C   0  0  0  0  0  0
  -24.3611   -9.4212   21.9180 C   0  0  0  0  0  0
  -23.6300   -8.2238   22.0745 C   0  0  0  0  0  0
  -22.4284   -8.0266   21.3539 C   0  0  0  0  0  0
  -21.9912   -9.0230   20.4637 C   0  0  0  0  0  0
  -22.7222  -10.2116   20.3051 C   0  0  0  0  0  0
  -21.6851   -6.0736   22.5286 C   0  0  0  0  0  0
  -21.4012   -6.5638   23.8222 C   0  0  0  0  0  0
  -21.3663   -5.6790   24.9183 C   0  0  0  0  0  0
  -21.6048   -4.3052   24.7229 C   0  0  0  0  0  0
  -21.8815   -3.8147   23.4350 C   0  0  0  0  0  0
  -21.9190   -4.6966   22.3409 C   0  0  0  0  0  0
  -22.7795  -13.5213   21.1893 C   0  0  0  0  0  0
  -22.1656   -4.2152   21.0987 F   0  0  0  0  0  0
  -21.5635   -3.4538   25.7742 F   0  0  0  0  0  0
  -29.9695  -13.5531   20.3835 N   0  0  0  0  0  0
  -26.2885  -12.9401   20.3265 N   0  0  0  0  0  0
  -25.9294  -11.6544   20.5754 N   0  0  0  0  0  0
  -22.0449  -12.8194   22.0445 N   0  0  0  0  0  0
  -25.4131  -15.1921   20.4101 N   0  0  0  0  0  0
  -31.8053  -14.8359   20.2095 O   0  0  0  0  0  0
  -21.6643   -6.8871   21.4244 O   0  0  0  0  0  0
  -22.3479  -14.5519   20.6733 O   0  0  0  0  0  0
  -24.6331  -31.8531   23.1952 C   0  0  0  0  0  0
  -25.9145  -32.4743   23.8317 C   0  0  1  0  0  0
  -27.2199  -27.2418   20.1453 C   0  0  0  0  0  0
  -25.5942  -33.8546   24.2242 N   0  0  0  0  0  0
  -23.4311  -30.4737   21.5391 C   0  0  2  0  0  0
  -24.8791  -28.9104   20.1156 C   0  0  0  0  0  0
  -22.7512  -29.4593   22.4907 C   0  0  0  0  0  0
  -18.0292  -28.1376   22.8479 C   0  0  0  0  0  0
  -24.1488  -36.7274   23.2637 C   0  0  0  0  0  0
  -25.9781  -30.7597   21.3769 C   0  0  0  0  0  0
  -26.0515  -29.3780   20.7236 C   0  0  0  0  0  0
  -27.2286  -28.5589   20.7206 C   0  0  0  0  0  0
  -26.0265  -26.8410   19.5094 C   0  0  0  0  0  0
  -24.8730  -27.6508   19.4947 C   0  0  0  0  0  0
  -23.6507  -29.8011   20.1577 C   0  0  0  0  0  0
  -25.4109  -36.3064   24.0331 C   0  0  1  0  0  0
  -20.5898  -28.3688   23.1257 C   0  0  2  0  0  0
  -20.6773  -26.9404   22.5400 C   0  0  0  0  0  0
  -19.5754  -26.6372   21.5199 C   0  0  0  0  0  0
  -18.1932  -26.7918   22.1613 C   0  0  0  0  0  0
  -19.1548  -28.8849   23.2861 C   0  0  0  0  0  0
  -18.9472  -30.1450   23.8876 C   0  0  0  0  0  0
  -17.6471  -30.6575   24.0553 C   0  0  0  0  0  0
  -25.9065  -34.9436   23.5092 C   0  0  0  0  0  0
  -16.5359  -29.9070   23.6332 C   0  0  0  0  0  0
  -16.7278  -28.6490   23.0348 C   0  0  0  0  0  0
  -26.4501  -31.6572   25.0716 C   0  0  0  0  0  0
  -25.3728  -31.3723   26.1442 C   0  0  0  0  0  0
  -27.0347  -30.2989   24.6206 C   0  0  0  0  0  0
  -27.6050  -32.4324   25.7487 C   0  0  0  0  0  0
  -27.5591  -37.1772   24.8447 C   0  0  0  0  0  0
  -21.4216  -29.3041   22.3653 N   0  0  0  0  0  0
  -26.4272  -37.3780   23.9443 N   0  0  0  0  0  0
  -24.6999  -31.0484   22.0928 N   0  0  0  0  0  0
  -23.4209  -28.8144   23.3018 O   0  0  0  0  0  0
  -28.3040  -26.3333   20.1529 O   0  0  0  0  0  0
  -26.5642  -34.8923   22.4664 O   0  0  0  0  0  0
  -23.5476  -32.1354   23.7239 O   0  0  0  0  0  0
  -29.1277  -22.5412   18.1406 C   0  0  0  0  0  0
  -28.5980  -23.6013   20.0332 C   0  0  0  0  0  0
  -29.0633  -21.3174   20.0046 C   0  0  0  0  0  0
  -30.6248  -18.4939   19.0866 C   0  0  0  0  0  0
  -31.4489  -17.9311   20.2484 C   0  0  0  0  0  0
  -29.4245  -18.6279   20.0424 C   0  0  1  0  0  0
  -30.1418  -17.4240   20.8885 C   0  0  1  0  0  0
  -28.0786  -22.3152   15.8416 C   0  0  0  0  0  0
  -29.3557  -22.6008   16.6410 C   0  0  0  0  0  0
  -28.0934  -24.9521   20.7407 C   0  0  0  0  0  0
  -28.7955  -23.6891   18.7234 N   0  0  0  0  0  0
  -29.2379  -21.3377   18.6970 N   0  0  0  0  0  0
  -28.7379  -22.4225   20.7330 N   0  0  0  0  0  0
  -29.2775  -20.0362   20.6364 N   0  0  0  0  0  0
  -29.8219  -15.9318   20.6101 N   0  0  0  0  0  0
  -31.4674  -12.6029   19.1736 H   0  0  0  0  0  0
  -30.3713  -11.5057   19.9698 H   0  0  0  0  0  0
  -29.7980  -11.7343   17.5239 H   0  0  0  0  0  0
  -29.6213  -13.4613   17.7145 H   0  0  0  0  0  0
  -27.9018  -11.2764   18.9252 H   0  0  0  0  0  0
  -27.3706  -12.4963   17.8005 H   0  0  0  0  0  0
  -27.6181  -14.2495   19.4507 H   0  0  0  0  0  0
  -28.7266  -12.1955   21.4272 H   0  0  0  0  0  0
  -28.4083  -13.8779   21.7805 H   0  0  0  0  0  0
  -25.2746   -9.5712   22.4765 H   0  0  0  0  0  0
  -24.0020   -7.4635   22.7461 H   0  0  0  0  0  0
  -21.0848   -8.8726   19.8942 H   0  0  0  0  0  0
  -22.3657  -10.9653   19.6169 H   0  0  0  0  0  0
  -21.1997   -7.6143   23.9730 H   0  0  0  0  0  0
  -21.1496   -6.0518   25.9088 H   0  0  0  0  0  0
  -22.0593   -2.7610   23.2847 H   0  0  0  0  0  0
  -22.4055  -11.9838   22.4813 H   0  0  0  0  0  0
  -21.1065  -13.1210   22.2667 H   0  0  0  0  0  0
  -24.6400  -15.8403   20.5142 H   0  0  0  0  0  0
  -26.2533  -15.6351   20.0621 H   0  0  0  0  0  0
  -26.7210  -32.5382   23.1056 H   0  0  0  0  0  0
  -25.0100  -33.9681   25.0399 H   0  0  0  0  0  0
  -22.7293  -31.2966   21.3891 H   0  0  0  0  0  0
  -23.3787  -35.9565   23.3222 H   0  0  0  0  0  0
  -24.3604  -36.8972   22.2069 H   0  0  0  0  0  0
  -23.7182  -37.6427   23.6708 H   0  0  0  0  0  0
  -26.1200  -31.5156   20.6036 H   0  0  0  0  0  0
  -26.8551  -30.8108   22.0100 H   0  0  0  0  0  0
  -28.1299  -28.9162   21.1988 H   0  0  0  0  0  0
  -25.9802  -25.8737   19.0292 H   0  0  0  0  0  0
  -23.9769  -27.2882   19.0095 H   0  0  0  0  0  0
  -23.7781  -30.5736   19.3987 H   0  0  0  0  0  0
  -22.7686  -29.2355   19.8526 H   0  0  0  0  0  0
  -25.1279  -36.1889   25.0820 H   0  0  0  0  0  0
  -20.9991  -28.3255   24.1379 H   0  0  0  0  0  0
  -20.5634  -26.2311   23.3610 H   0  0  0  0  0  0
  -21.6643  -26.7394   22.1219 H   0  0  0  0  0  0
  -19.6913  -25.6279   21.1235 H   0  0  0  0  0  0
  -19.6689  -27.3175   20.6722 H   0  0  0  0  0  0
  -17.4203  -26.6662   21.4010 H   0  0  0  0  0  0
  -18.0334  -26.0046   22.8997 H   0  0  0  0  0  0
  -19.7951  -30.7267   24.2234 H   0  0  0  0  0  0
  -17.5026  -31.6256   24.5157 H   0  0  0  0  0  0
  -15.5359  -30.2963   23.7672 H   0  0  0  0  0  0
  -15.8678  -28.0802   22.7073 H   0  0  0  0  0  0
  -24.5905  -30.7065   25.7778 H   0  0  0  0  0  0
  -24.8927  -32.2893   26.4867 H   0  0  0  0  0  0
  -25.8059  -30.8905   27.0218 H   0  0  0  0  0  0
  -26.2925  -29.6735   24.1232 H   0  0  0  0  0  0
  -27.4027  -29.7247   25.4719 H   0  0  0  0  0  0
  -27.8806  -30.4266   23.9449 H   0  0  0  0  0  0
  -27.2649  -33.3629   26.2042 H   0  0  0  0  0  0
  -28.3866  -32.6873   25.0320 H   0  0  0  0  0  0
  -28.0708  -31.8466   26.5418 H   0  0  0  0  0  0
  -28.2526  -38.0152   24.7626 H   0  0  0  0  0  0
  -28.1175  -36.2697   24.6095 H   0  0  0  0  0  0
  -27.2351  -37.1193   25.8855 H   0  0  0  0  0  0
  -20.9407  -29.8787   21.6873 H   0  0  0  0  0  0
  -26.0139  -38.2835   24.1523 H   0  0  0  0  0  0
  -30.4594  -17.7485   18.3057 H   0  0  0  0  0  0
  -31.0267  -19.4131   18.6618 H   0  0  0  0  0  0
  -31.9085  -18.7238   20.8431 H   0  0  0  0  0  0
  -32.2006  -17.2060   19.9485 H   0  0  0  0  0  0
  -28.4885  -18.3184   19.5749 H   0  0  0  0  0  0
  -30.1233  -17.6325   21.9590 H   0  0  0  0  0  0
  -28.2642  -22.3999   14.7711 H   0  0  0  0  0  0
  -27.2897  -23.0206   16.1029 H   0  0  0  0  0  0
  -27.7116  -21.3082   16.0400 H   0  0  0  0  0  0
  -30.1335  -21.8871   16.3663 H   0  0  0  0  0  0
  -29.7453  -23.5839   16.3749 H   0  0  0  0  0  0
  -28.5815  -24.9754   21.7150 H   0  0  0  0  0  0
  -27.0366  -24.8110   20.9678 H   0  0  0  0  0  0
  -29.1528  -20.0631   21.6409 H   0  0  0  0  0  0
  -28.8395  -15.7179   20.6879 H   0  0  0  0  0  0
  1 25  1  0  0  0
  1 30  2  0  0  0
  1 85  1  0  0  0
  2  3  1  0  0  0
  2 25  1  0  0  0
  2 86  1  0  0  0
  2 87  1  0  0  0
  3  4  1  0  0  0
  3 88  1  0  0  0
  3 89  1  0  0  0
  4  5  1  0  0  0
  4 90  1  0  0  0
  4 91  1  0  0  0
  5  6  1  0  0  0
  5 26  1  0  0  0
  5 92  1  0  0  0
  6 25  1  0  0  0
  6 93  1  0  0  0
  6 94  1  0  0  0
  7  8  2  0  0  0
  7 26  1  0  0  0
  7 29  1  0  0  0
  8  9  1  0  0  0
  8 22  1  0  0  0
  9 10  1  0  0  0
  9 27  2  0  0  0
 10 11  2  0  0  0
 10 15  1  0  0  0
 11 12  1  0  0  0
 11 95  1  0  0  0
 12 13  2  0  0  0
 12 96  1  0  0  0
 13 14  1  0  0  0
 13 31  1  0  0  0
 14 15  2  0  0  0
 14 97  1  0  0  0
 15 98  1  0  0  0
 16 17  2  0  0  0
 16 21  1  0  0  0
 16 31  1  0  0  0
 17 18  1  0  0  0
 17 99  1  0  0  0
 18 19  2  0  0  0
 18100  1  0  0  0
 19 20  1  0  0  0
 19 24  1  0  0  0
 20 21  2  0  0  0
 20101  1  0  0  0
 21 23  1  0  0  0
 22 28  1  0  0  0
 22 32  2  0  0  0
 26 27  1  0  0  0
 28102  1  0  0  0
 28103  1  0  0  0
 29104  1  0  0  0
 29105  1  0  0  0
 33 34  1  0  0  0
 33 66  1  0  0  0
 33 70  2  0  0  0
 34 36  1  0  0  0
 34 59  1  0  0  0
 34106  1  0  0  0
 35 44  2  0  0  0
 35 45  1  0  0  0
 35 68  1  0  0  0
 36 56  1  0  0  0
 36107  1  0  0  0
 37 39  1  0  0  0
 37 47  1  0  0  0
 37 66  1  0  0  0
 37108  1  0  0  0
 38 43  2  0  0  0
 38 46  1  0  0  0
 38 47  1  0  0  0
 39 64  1  0  0  0
 39 67  2  0  0  0
 40 52  1  0  0  0
 40 53  2  0  0  0
 40 58  1  0  0  0
 41109  1  0  0  0
 41110  1  0  0  0
 41111  1  0  0  0
 41 48  1  0  0  0
 42 43  1  0  0  0
 42 66  1  0  0  0
 42112  1  0  0  0
 42113  1  0  0  0
 43 44  1  0  0  0
 44114  1  0  0  0
 45 46  2  0  0  0
 45115  1  0  0  0
 46116  1  0  0  0
 47117  1  0  0  0
 47118  1  0  0  0
 48 56  1  0  0  0
 48 65  1  0  0  0
 48119  1  0  0  0
 49 50  1  0  0  0
 49 53  1  0  0  0
 49 64  1  0  0  0
 49120  1  0  0  0
 50 51  1  0  0  0
 50121  1  0  0  0
 50122  1  0  0  0
 51 52  1  0  0  0
 51123  1  0  0  0
 51124  1  0  0  0
 52125  1  0  0  0
 52126  1  0  0  0
 53 54  1  0  0  0
 54 55  2  0  0  0
 54127  1  0  0  0
 55 57  1  0  0  0
 55128  1  0  0  0
 56 69  2  0  0  0
 57 58  2  0  0  0
 57129  1  0  0  0
 58130  1  0  0  0
 59 60  1  0  0  0
 59 61  1  0  0  0
 59 62  1  0  0  0
 60131  1  0  0  0
 60132  1  0  0  0
 60133  1  0  0  0
 61134  1  0  0  0
 61135  1  0  0  0
 61136  1  0  0  0
 62137  1  0  0  0
 62138  1  0  0  0
 62139  1  0  0  0
 63 65  1  0  0  0
 63140  1  0  0  0
 63141  1  0  0  0
 63142  1  0  0  0
 64143  1  0  0  0
 65144  1  0  0  0
 68 80  1  0  0  0
 71 79  1  0  0  0
 71 81  2  0  0  0
 71 82  1  0  0  0
 72 80  1  0  0  0
 72 81  1  0  0  0
 72 83  2  0  0  0
 73 82  2  0  0  0
 73 83  1  0  0  0
 73 84  1  0  0  0
 74 75  1  0  0  0
 74 76  1  0  0  0
 74145  1  0  0  0
 74146  1  0  0  0
 75 77  1  0  0  0
 75147  1  0  0  0
 75148  1  0  0  0
 76 77  1  0  0  0
 76 84  1  0  0  0
 76149  1  0  0  0
 77 85  1  0  0  0
 77150  1  0  0  0
 78 79  1  0  0  0
 78151  1  0  0  0
 78152  1  0  0  0
 78153  1  0  0  0
 79154  1  0  0  0
 79155  1  0  0  0
 80156  1  0  0  0
 80157  1  0  0  0
 84158  1  0  0  0
 85159  1  0  0  0
M  ISO  4   1 100  68 101  80 101  85 100
M  END
> <chiral flag>
0

> <version>
0

> <s_m_source_file>
/data/baiqing/PycharmProjects/Reinvent-master-3.2/result/LINK_invent/BTK/process_docking_weight1_custom_sum_contain_oxygen_bond_distance_aromatic_linkinvent_7_9_3/rearranged_h_0190.sdf

> <i_m_source_file_index>
34

> <r_mmod_Potential_Energy-OPLS-2005>
-569.545043945312

> <r_mmod_Stretch_Energy-OPLS-2005>
137.626861572266

> <r_mmod_Bend_Energy-OPLS-2005>
200.395217895508

> <r_mmod_Torsional_Energy-OPLS-2005>
246.340896606445

> <r_mmod_Improper_Torsional_Energy-OPLS-2005>
4.93053150177002

> <r_mmod_Van_der_Waal_Energy-OPLS-2005>
155.571090698242

> <r_mmod_Electrostatic_Energy-OPLS-2005>
-1172.03393554688

> <r_mmod_Solvation_Energy-OPLS-2005>
-242.473022460938

> <b_mmod_Minimization_Converged-OPLS-2005>
0

> <r_mmod_RMS_Derivative-OPLS-2005>
1.3820378780365

$$$$
34
                    3D
 Structure written by MMmdl.
166175  0  0  1  0            999 V2000
  -30.7128  -14.7965   20.4475 C   0  0  0  0  0  0
  -30.4202  -12.5037   19.4891 C   0  0  0  0  0  0
  -29.5169  -12.5331   18.2429 C   0  0  0  0  0  0
  -28.0501  -12.3253   18.6590 C   0  0  0  0  0  0
  -27.6362  -13.2422   19.8406 C   0  0  2  0  0  0
  -28.6870  -13.2830   20.9768 C   0  0  0  0  0  0
  -25.2508  -13.8181   20.5714 C   0  0  0  0  0  0
  -24.1801  -13.0419   20.9215 C   0  0  0  0  0  0
  -24.6407  -11.6901   20.8737 C   0  0  0  0  0  0
  -23.9069  -10.4267   21.0370 C   0  0  0  0  0  0
  -24.3591   -9.4203   21.9173 C   0  0  0  0  0  0
  -23.6283   -8.2233   22.0754 C   0  0  0  0  0  0
  -22.4284   -8.0249   21.3522 C   0  0  0  0  0  0
  -21.9898   -9.0229   20.4647 C   0  0  0  0  0  0
  -22.7203  -10.2114   20.3037 C   0  0  0  0  0  0
  -21.6878   -6.0697   22.5258 C   0  0  0  0  0  0
  -21.4016   -6.5612   23.8199 C   0  0  0  0  0  0
  -21.3670   -5.6774   24.9168 C   0  0  0  0  0  0
  -21.6067   -4.3035   24.7218 C   0  0  0  0  0  0
  -21.8821   -3.8112   23.4352 C   0  0  0  0  0  0
  -21.9182   -4.6923   22.3395 C   0  0  0  0  0  0
  -22.7819  -13.5207   21.1877 C   0  0  0  0  0  0
  -22.1664   -4.2097   21.0975 F   0  0  0  0  0  0
  -21.5640   -3.4521   25.7742 F   0  0  0  0  0  0
  -29.9792  -13.6216   20.3688 N   0  0  0  0  0  0
  -26.2945  -12.9403   20.3286 N   0  0  0  0  0  0
  -25.9335  -11.6531   20.5724 N   0  0  0  0  0  0
  -22.0448  -12.8209   22.0438 N   0  0  0  0  0  0
  -25.4096  -15.1916   20.4152 N   0  0  0  0  0  0
  -31.9163  -14.7197   20.1843 O   0  0  0  0  0  0
  -21.6653   -6.8846   21.4233 O   0  0  0  0  0  0
  -22.3509  -14.5521   20.6725 O   0  0  0  0  0  0
  -24.6327  -31.8547   23.2004 C   0  0  0  0  0  0
  -25.9144  -32.4745   23.8330 C   0  0  1  0  0  0
  -27.2355  -27.2543   20.1505 C   0  0  0  0  0  0
  -25.5947  -33.8542   24.2221 N   0  0  0  0  0  0
  -23.4294  -30.4722   21.5455 C   0  0  2  0  0  0
  -24.8835  -28.9099   20.1281 C   0  0  0  0  0  0
  -22.7498  -29.4583   22.4969 C   0  0  0  0  0  0
  -18.0283  -28.1368   22.8488 C   0  0  0  0  0  0
  -24.1484  -36.7272   23.2637 C   0  0  0  0  0  0
  -25.9772  -30.7546   21.3924 C   0  0  0  0  0  0
  -26.0537  -29.3712   20.7501 C   0  0  0  0  0  0
  -27.2333  -28.5508   20.7689 C   0  0  0  0  0  0
  -26.0455  -26.8610   19.5052 C   0  0  0  0  0  0
  -24.8809  -27.6541   19.5021 C   0  0  0  0  0  0
  -23.6510  -29.7954   20.1668 C   0  0  0  0  0  0
  -25.4117  -36.3044   24.0302 C   0  0  1  0  0  0
  -20.5885  -28.3668   23.1298 C   0  0  2  0  0  0
  -20.6778  -26.9398   22.5412 C   0  0  0  0  0  0
  -19.5760  -26.6370   21.5213 C   0  0  0  0  0  0
  -18.1937  -26.7911   22.1619 C   0  0  0  0  0  0
  -19.1536  -28.8842   23.2877 C   0  0  0  0  0  0
  -18.9456  -30.1446   23.8881 C   0  0  0  0  0  0
  -17.6459  -30.6582   24.0542 C   0  0  0  0  0  0
  -25.9060  -34.9436   23.5063 C   0  0  0  0  0  0
  -16.5347  -29.9062   23.6336 C   0  0  0  0  0  0
  -16.7273  -28.6476   23.0365 C   0  0  0  0  0  0
  -26.4488  -31.6593   25.0750 C   0  0  0  0  0  0
  -25.3688  -31.3818   26.1471 C   0  0  0  0  0  0
  -27.0317  -30.2975   24.6304 C   0  0  0  0  0  0
  -27.5992  -32.4378   25.7555 C   0  0  0  0  0  0
  -27.5567  -37.1797   24.8454 C   0  0  0  0  0  0
  -21.4215  -29.3028   22.3711 N   0  0  0  0  0  0
  -26.4276  -37.3759   23.9407 N   0  0  0  0  0  0
  -24.6967  -31.0461   22.1000 N   0  0  0  0  0  0
  -23.4187  -28.8157   23.3102 O   0  0  0  0  0  0
  -28.2884  -26.3160   20.0380 O   0  0  0  0  0  0
  -26.5642  -34.8910   22.4629 O   0  0  0  0  0  0
  -23.5464  -32.1400   23.7263 O   0  0  0  0  0  0
  -29.6698  -21.6164   22.4467 C   0  0  0  0  0  0
  -29.4926  -23.8854   22.9241 C   0  0  0  0  0  0
  -29.1480  -24.2087   21.5624 C   0  0  0  0  0  0
  -29.3642  -21.8244   21.0864 C   0  0  0  0  0  0
  -28.5581  -18.1843   20.2348 C   0  0  0  0  0  0
  -30.6639  -18.6718   21.3000 C   0  0  0  0  0  0
  -28.9425  -16.6407   20.0595 C   0  0  0  0  0  0
  -31.1532  -17.1839   21.0444 C   0  0  0  0  0  0
  -29.7096  -19.2293   20.2191 C   0  0  0  0  0  0
  -29.1867  -24.4690   25.4090 C   0  0  0  0  0  0
  -30.4842  -26.3197   20.9642 C   0  0  0  0  0  0
  -29.7455  -24.9104   24.0416 C   0  0  0  0  0  0
  -29.0567  -25.7784   21.1736 C   0  0  1  0  0  0
  -29.7502  -22.6214   23.3353 N   0  0  0  0  0  0
  -29.1091  -23.1378   20.6519 N   0  0  0  0  0  0
  -30.1770  -16.0828   20.7005 N   0  0  0  0  0  0
  -29.3075  -20.7103   20.1663 N   0  0  0  0  0  0
  -31.4676  -12.5773   19.1922 H   0  0  0  0  0  0
  -30.3342  -11.5478   20.0080 H   0  0  0  0  0  0
  -29.8296  -11.7675   17.5301 H   0  0  0  0  0  0
  -29.6314  -13.4924   17.7351 H   0  0  0  0  0  0
  -27.9379  -11.2784   18.9432 H   0  0  0  0  0  0
  -27.3904  -12.4804   17.8034 H   0  0  0  0  0  0
  -27.5919  -14.2370   19.4024 H   0  0  0  0  0  0
  -28.7493  -12.3307   21.5052 H   0  0  0  0  0  0
  -28.4180  -14.0348   21.7202 H   0  0  0  0  0  0
  -25.2720   -9.5692   22.4780 H   0  0  0  0  0  0
  -23.9988   -7.4621   22.7466 H   0  0  0  0  0  0
  -21.0835   -8.8735   19.8954 H   0  0  0  0  0  0
  -22.3656  -10.9645   19.6160 H   0  0  0  0  0  0
  -21.2030   -7.6116   23.9683 H   0  0  0  0  0  0
  -21.1514   -6.0505   25.9076 H   0  0  0  0  0  0
  -22.0596   -2.7558   23.2858 H   0  0  0  0  0  0
  -22.4031  -11.9881   22.4877 H   0  0  0  0  0  0
  -21.1029  -13.1230   22.2580 H   0  0  0  0  0  0
  -24.6417  -15.8367   20.5545 H   0  0  0  0  0  0
  -26.2605  -15.6473   20.1136 H   0  0  0  0  0  0
  -26.7221  -32.5385   23.1070 H   0  0  0  0  0  0
  -25.0089  -33.9690   25.0365 H   0  0  0  0  0  0
  -22.7261  -31.2942   21.3957 H   0  0  0  0  0  0
  -23.3736  -35.9614   23.3303 H   0  0  0  0  0  0
  -24.3559  -36.8903   22.2051 H   0  0  0  0  0  0
  -23.7260  -37.6476   23.6675 H   0  0  0  0  0  0
  -26.1216  -31.5016   20.6110 H   0  0  0  0  0  0
  -26.8543  -30.8074   22.0265 H   0  0  0  0  0  0
  -28.1288  -28.8998   21.2618 H   0  0  0  0  0  0
  -26.0050  -25.8934   19.0213 H   0  0  0  0  0  0
  -23.9849  -27.2856   19.0227 H   0  0  0  0  0  0
  -23.7676  -30.5641   19.4020 H   0  0  0  0  0  0
  -22.7702  -29.2207   19.8728 H   0  0  0  0  0  0
  -25.1307  -36.1858   25.0793 H   0  0  0  0  0  0
  -20.9948  -28.3225   24.1428 H   0  0  0  0  0  0
  -20.5676  -26.2279   23.3602 H   0  0  0  0  0  0
  -21.6652  -26.7438   22.1217 H   0  0  0  0  0  0
  -19.6928  -25.6282   21.1247 H   0  0  0  0  0  0
  -19.6705  -27.3174   20.6742 H   0  0  0  0  0  0
  -17.4216  -26.6657   21.4013 H   0  0  0  0  0  0
  -18.0339  -26.0037   22.9003 H   0  0  0  0  0  0
  -19.7936  -30.7264   24.2233 H   0  0  0  0  0  0
  -17.5015  -31.6261   24.5136 H   0  0  0  0  0  0
  -15.5349  -30.2951   23.7676 H   0  0  0  0  0  0
  -15.8672  -28.0781   22.7100 H   0  0  0  0  0  0
  -24.5848  -30.7157   25.7855 H   0  0  0  0  0  0
  -24.8893  -32.3017   26.4824 H   0  0  0  0  0  0
  -25.7984  -30.9075   27.0302 H   0  0  0  0  0  0
  -26.2920  -29.6770   24.1225 H   0  0  0  0  0  0
  -27.3825  -29.7217   25.4883 H   0  0  0  0  0  0
  -27.8885  -30.4205   23.9675 H   0  0  0  0  0  0
  -27.2521  -33.3680   26.2073 H   0  0  0  0  0  0
  -28.3838  -32.6945   25.0426 H   0  0  0  0  0  0
  -28.0610  -31.8558   26.5542 H   0  0  0  0  0  0
  -28.2570  -38.0107   24.7490 H   0  0  0  0  0  0
  -28.1069  -36.2629   24.6269 H   0  0  0  0  0  0
  -27.2291  -37.1443   25.8860 H   0  0  0  0  0  0
  -20.9416  -29.8699   21.6874 H   0  0  0  0  0  0
  -26.0129  -38.2819   24.1413 H   0  0  0  0  0  0
  -29.8629  -20.6442   22.8632 H   0  0  0  0  0  0
  -28.0209  -18.3026   21.1765 H   0  0  0  0  0  0
  -27.8295  -18.4438   19.4627 H   0  0  0  0  0  0
  -31.5330  -19.3264   21.3839 H   0  0  0  0  0  0
  -30.1747  -18.6812   22.2726 H   0  0  0  0  0  0
  -29.0200  -16.4285   18.9904 H   0  0  0  0  0  0
  -28.0954  -16.0720   20.4298 H   0  0  0  0  0  0
  -31.7080  -16.8577   21.9281 H   0  0  0  0  0  0
  -31.8895  -17.2409   20.2403 H   0  0  0  0  0  0
  -30.2341  -19.0895   19.2719 H   0  0  0  0  0  0
  -29.1343  -25.3083   26.1022 H   0  0  0  0  0  0
  -29.8087  -23.6980   25.8693 H   0  0  0  0  0  0
  -28.1789  -24.0671   25.3069 H   0  0  0  0  0  0
  -31.1210  -26.1208   21.8264 H   0  0  0  0  0  0
  -30.5023  -27.3954   20.7885 H   0  0  0  0  0  0
  -30.9490  -25.8353   20.1049 H   0  0  0  0  0  0
  -29.3165  -25.8826   23.8386 H   0  0  0  0  0  0
  -30.8214  -25.0809   24.1093 H   0  0  0  0  0  0
  -28.6034  -26.2952   22.0115 H   0  0  0  0  0  0
  -29.0087  -20.9937   19.2371 H   0  0  0  0  0  0
  1 25  1  0  0  0
  1 30  2  0  0  0
  1 86  1  0  0  0
  2  3  1  0  0  0
  2 25  1  0  0  0
  2 88  1  0  0  0
  2 89  1  0  0  0
  3  4  1  0  0  0
  3 90  1  0  0  0
  3 91  1  0  0  0
  4  5  1  0  0  0
  4 92  1  0  0  0
  4 93  1  0  0  0
  5  6  1  0  0  0
  5 26  1  0  0  0
  5 94  1  0  0  0
  6 25  1  0  0  0
  6 95  1  0  0  0
  6 96  1  0  0  0
  7  8  2  0  0  0
  7 26  1  0  0  0
  7 29  1  0  0  0
  8  9  1  0  0  0
  8 22  1  0  0  0
  9 10  1  0  0  0
  9 27  2  0  0  0
 10 11  2  0  0  0
 10 15  1  0  0  0
 11 12  1  0  0  0
 11 97  1  0  0  0
 12 13  2  0  0  0
 12 98  1  0  0  0
 13 14  1  0  0  0
 13 31  1  0  0  0
 14 15  2  0  0  0
 14 99  1  0  0  0
 15100  1  0  0  0
 16 17  2  0  0  0
 16 21  1  0  0  0
 16 31  1  0  0  0
 17 18  1  0  0  0
 17101  1  0  0  0
 18 19  2  0  0  0
 18102  1  0  0  0
 19 20  1  0  0  0
 19 24  1  0  0  0
 20 21  2  0  0  0
 20103  1  0  0  0
 21 23  1  0  0  0
 22 28  1  0  0  0
 22 32  2  0  0  0
 26 27  1  0  0  0
 28104  1  0  0  0
 28105  1  0  0  0
 29106  1  0  0  0
 29107  1  0  0  0
 33 34  1  0  0  0
 33 66  1  0  0  0
 33 70  2  0  0  0
 34 36  1  0  0  0
 34 59  1  0  0  0
 34108  1  0  0  0
 35 44  2  0  0  0
 35 45  1  0  0  0
 35 68  1  0  0  0
 36 56  1  0  0  0
 36109  1  0  0  0
 37 39  1  0  0  0
 37 47  1  0  0  0
 37 66  1  0  0  0
 37110  1  0  0  0
 38 43  2  0  0  0
 38 46  1  0  0  0
 38 47  1  0  0  0
 39 64  1  0  0  0
 39 67  2  0  0  0
 40 52  1  0  0  0
 40 53  2  0  0  0
 40 58  1  0  0  0
 41111  1  0  0  0
 41112  1  0  0  0
 41113  1  0  0  0
 41 48  1  0  0  0
 42 43  1  0  0  0
 42 66  1  0  0  0
 42114  1  0  0  0
 42115  1  0  0  0
 43 44  1  0  0  0
 44116  1  0  0  0
 45 46  2  0  0  0
 45117  1  0  0  0
 46118  1  0  0  0
 47119  1  0  0  0
 47120  1  0  0  0
 48 56  1  0  0  0
 48 65  1  0  0  0
 48121  1  0  0  0
 49 50  1  0  0  0
 49 53  1  0  0  0
 49 64  1  0  0  0
 49122  1  0  0  0
 50 51  1  0  0  0
 50123  1  0  0  0
 50124  1  0  0  0
 51 52  1  0  0  0
 51125  1  0  0  0
 51126  1  0  0  0
 52127  1  0  0  0
 52128  1  0  0  0
 53 54  1  0  0  0
 54 55  2  0  0  0
 54129  1  0  0  0
 55 57  1  0  0  0
 55130  1  0  0  0
 56 69  2  0  0  0
 57 58  2  0  0  0
 57131  1  0  0  0
 58132  1  0  0  0
 59 60  1  0  0  0
 59 61  1  0  0  0
 59 62  1  0  0  0
 60133  1  0  0  0
 60134  1  0  0  0
 60135  1  0  0  0
 61136  1  0  0  0
 61137  1  0  0  0
 61138  1  0  0  0
 62139  1  0  0  0
 62140  1  0  0  0
 62141  1  0  0  0
 63 65  1  0  0  0
 63142  1  0  0  0
 63143  1  0  0  0
 63144  1  0  0  0
 64145  1  0  0  0
 65146  1  0  0  0
 68 83  1  0  0  0
 71 74  2  0  0  0
 71 84  1  0  0  0
 71147  1  0  0  0
 72 73  1  0  0  0
 72 82  1  0  0  0
 72 84  2  0  0  0
 73 83  1  0  0  0
 73 85  2  0  0  0
 74 85  1  0  0  0
 74 87  1  0  0  0
 75 77  1  0  0  0
 75 79  1  0  0  0
 75148  1  0  0  0
 75149  1  0  0  0
 76 78  1  0  0  0
 76 79  1  0  0  0
 76150  1  0  0  0
 76151  1  0  0  0
 77 86  1  0  0  0
 77152  1  0  0  0
 77153  1  0  0  0
 78 86  1  0  0  0
 78154  1  0  0  0
 78155  1  0  0  0
 79 87  1  0  0  0
 79156  1  0  0  0
 80 82  1  0  0  0
 80157  1  0  0  0
 80158  1  0  0  0
 80159  1  0  0  0
 81160  1  0  0  0
 81161  1  0  0  0
 81162  1  0  0  0
 81 83  1  0  0  0
 82163  1  0  0  0
 82164  1  0  0  0
 83165  1  0  0  0
 87166  1  0  0  0
M  ISO  4   1 100  68 101  83 101  86 100
M  END
> <chiral flag>
0

> <version>
0

> <s_m_source_file>
/data/baiqing/PycharmProjects/Reinvent-master-3.2/result/LINK_invent/BTK/process_docking_weight1_custom_sum_contain_oxygen_bond_distance_aromatic_linkinvent_7_9_3/rearranged_h_0190.sdf

> <i_m_source_file_index>
35

> <r_mmod_Potential_Energy-OPLS-2005>
530.049255371094

> <r_mmod_Stretch_Energy-OPLS-2005>
141.94221496582

> <r_mmod_Bend_Energy-OPLS-2005>
292.343597412109

> <r_mmod_Torsional_Energy-OPLS-2005>
318.079559326172

> <r_mmod_Improper_Torsional_Energy-OPLS-2005>
5.68103265762329

> <r_mmod_Van_der_Waal_Energy-OPLS-2005>
149.165420532227

> <r_mmod_Electrostatic_Energy-OPLS-2005>
-263.238342285156

> <r_mmod_Solvation_Energy-OPLS-2005>
-223.924102783203

> <b_mmod_Minimization_Converged-OPLS-2005>
0

> <r_mmod_RMS_Derivative-OPLS-2005>
5.00399827957153

$$$$
35
                    3D
 Structure written by MMmdl.
166175  0  0  1  0            999 V2000
  -30.6971  -14.5214   20.3879 C   0  0  0  0  0  0
  -30.4133  -12.3025   19.4168 C   0  0  0  0  0  0
  -29.4795  -12.4393   18.1965 C   0  0  0  0  0  0
  -28.0073  -12.2900   18.6228 C   0  0  0  0  0  0
  -27.6412  -13.1843   19.8338 C   0  0  2  0  0  0
  -28.6985  -13.1064   20.9624 C   0  0  0  0  0  0
  -25.2561  -13.8089   20.5643 C   0  0  0  0  0  0
  -24.1818  -13.0402   20.9224 C   0  0  0  0  0  0
  -24.6367  -11.6871   20.8772 C   0  0  0  0  0  0
  -23.9050  -10.4275   21.0440 C   0  0  0  0  0  0
  -24.3634   -9.4193   21.9201 C   0  0  0  0  0  0
  -23.6313   -8.2226   22.0768 C   0  0  0  0  0  0
  -22.4284   -8.0290   21.3562 C   0  0  0  0  0  0
  -21.9923   -9.0250   20.4646 C   0  0  0  0  0  0
  -22.7250  -10.2120   20.3060 C   0  0  0  0  0  0
  -21.6834   -6.0757   22.5308 C   0  0  0  0  0  0
  -21.3985   -6.5664   23.8237 C   0  0  0  0  0  0
  -21.3645   -5.6819   24.9200 C   0  0  0  0  0  0
  -21.6041   -4.3077   24.7241 C   0  0  0  0  0  0
  -21.8811   -3.8177   23.4360 C   0  0  0  0  0  0
  -21.9189   -4.6992   22.3424 C   0  0  0  0  0  0
  -22.7864  -13.5234   21.1897 C   0  0  0  0  0  0
  -22.1663   -4.2191   21.0997 F   0  0  0  0  0  0
  -21.5617   -3.4566   25.7742 F   0  0  0  0  0  0
  -30.0209  -13.3443   20.3724 N   0  0  0  0  0  0
  -26.2940  -12.9205   20.3241 N   0  0  0  0  0  0
  -25.9264  -11.6413   20.5754 N   0  0  0  0  0  0
  -22.0507  -12.8210   22.0448 N   0  0  0  0  0  0
  -25.4271  -15.1784   20.3925 N   0  0  0  0  0  0
  -31.9251  -14.5718   20.3349 O   0  0  0  0  0  0
  -21.6636   -6.8895   21.4258 O   0  0  0  0  0  0
  -22.3567  -14.5562   20.6760 O   0  0  0  0  0  0
  -24.6078  -31.8745   23.2088 C   0  0  0  0  0  0
  -25.8992  -32.4856   23.8381 C   0  0  1  0  0  0
  -27.2413  -27.4752   20.0820 C   0  0  0  0  0  0
  -25.5924  -33.8649   24.2326 N   0  0  0  0  0  0
  -23.3928  -30.4974   21.5460 C   0  0  2  0  0  0
  -24.8417  -28.9627   20.1188 C   0  0  0  0  0  0
  -22.7360  -29.4693   22.4954 C   0  0  0  0  0  0
  -18.0280  -28.1371   22.8502 C   0  0  0  0  0  0
  -24.1488  -36.7269   23.2636 C   0  0  0  0  0  0
  -25.9207  -30.8459   21.3608 C   0  0  0  0  0  0
  -25.9951  -29.4819   20.7136 C   0  0  0  0  0  0
  -27.1936  -28.7428   20.6965 C   0  0  0  0  0  0
  -26.0610  -26.9472   19.5065 C   0  0  0  0  0  0
  -24.8654  -27.6917   19.5219 C   0  0  0  0  0  0
  -23.6030  -29.8265   20.1628 C   0  0  0  0  0  0
  -25.4121  -36.3108   24.0326 C   0  0  1  0  0  0
  -20.5860  -28.3665   23.1312 C   0  0  2  0  0  0
  -20.6771  -26.9404   22.5406 C   0  0  0  0  0  0
  -19.5749  -26.6385   21.5205 C   0  0  0  0  0  0
  -18.1926  -26.7919   22.1617 C   0  0  0  0  0  0
  -19.1524  -28.8818   23.2932 C   0  0  0  0  0  0
  -18.9480  -30.1419   23.8952 C   0  0  0  0  0  0
  -17.6489  -30.6599   24.0573 C   0  0  0  0  0  0
  -25.9046  -34.9485   23.5108 C   0  0  0  0  0  0
  -16.5380  -29.9098   23.6346 C   0  0  0  0  0  0
  -16.7267  -28.6507   23.0375 C   0  0  0  0  0  0
  -26.4447  -31.6621   25.0695 C   0  0  0  0  0  0
  -25.3721  -31.3742   26.1448 C   0  0  0  0  0  0
  -27.0286  -30.3081   24.6027 C   0  0  0  0  0  0
  -27.6037  -32.4341   25.7462 C   0  0  0  0  0  0
  -27.5575  -37.1790   24.8484 C   0  0  0  0  0  0
  -21.4090  -29.3054   22.3708 N   0  0  0  0  0  0
  -26.4305  -37.3795   23.9402 N   0  0  0  0  0  0
  -24.6569  -31.0877   22.0959 N   0  0  0  0  0  0
  -23.4150  -28.8236   23.2970 O   0  0  0  0  0  0
  -28.4665  -26.8461   20.0643 O   0  0  0  0  0  0
  -26.5592  -34.8940   22.4655 O   0  0  0  0  0  0
  -23.5281  -32.1484   23.7508 O   0  0  0  0  0  0
  -29.1694  -16.5651   18.2035 C   0  0  0  0  0  0
  -28.4790  -21.0187   19.0610 C   0  0  0  0  0  0
  -28.7103  -20.9231   21.5993 C   0  0  0  0  0  0
  -30.5922  -16.0420   18.3771 C   0  0  0  0  0  0
  -27.8898  -22.3989   19.4336 C   0  0  0  0  0  0
  -29.1701  -22.3940   21.5895 C   0  0  0  0  0  0
  -29.0184  -20.2073   20.2720 C   0  0  1  0  0  0
  -29.0543  -16.4883   19.7335 C   0  0  2  0  0  0
  -29.4722  -17.7210   20.5505 C   0  0  0  0  0  0
  -28.2588  -24.5199   20.6803 C   0  0  0  0  0  0
  -28.5927  -25.5240   19.5656 C   0  0  0  0  0  0
  -30.0765  -15.4324   19.6059 N   0  0  0  0  0  0
  -28.7671  -23.1561   20.3691 N   0  3  2  0  0  0
  -28.5014  -18.8121   20.2736 N   0  3  0  0  0  0
  -31.4511  -12.4068   19.0973 H   0  0  0  0  0  0
  -30.3279  -11.3132   19.8671 H   0  0  0  0  0  0
  -29.7295  -11.6919   17.4426 H   0  0  0  0  0  0
  -29.6202  -13.4055   17.7130 H   0  0  0  0  0  0
  -27.8365  -11.2391   18.8649 H   0  0  0  0  0  0
  -27.3505  -12.5160   17.7816 H   0  0  0  0  0  0
  -27.6307  -14.1849   19.4252 H   0  0  0  0  0  0
  -28.6812  -12.1285   21.4429 H   0  0  0  0  0  0
  -28.4811  -13.8423   21.7397 H   0  0  0  0  0  0
  -25.2762   -9.5673   22.4802 H   0  0  0  0  0  0
  -24.0027   -7.4601   22.7475 H   0  0  0  0  0  0
  -21.0865   -8.8768   19.8941 H   0  0  0  0  0  0
  -22.3724  -10.9679   19.6195 H   0  0  0  0  0  0
  -21.1972   -7.6174   23.9756 H   0  0  0  0  0  0
  -21.1455   -6.0544   25.9103 H   0  0  0  0  0  0
  -22.0595   -2.7654   23.2847 H   0  0  0  0  0  0
  -22.4107  -11.9838   22.4761 H   0  0  0  0  0  0
  -21.1129  -13.1218   22.2674 H   0  0  0  0  0  0
  -24.6418  -15.8179   20.4460 H   0  0  0  0  0  0
  -26.2531  -15.5903   19.9833 H   0  0  0  0  0  0
  -26.7058  -32.5590   23.1139 H   0  0  0  0  0  0
  -25.0204  -33.9845   25.0554 H   0  0  0  0  0  0
  -22.6811  -31.3161   21.4042 H   0  0  0  0  0  0
  -23.3789  -35.9579   23.3347 H   0  0  0  0  0  0
  -24.3587  -36.8832   22.2054 H   0  0  0  0  0  0
  -23.7211  -37.6465   23.6626 H   0  0  0  0  0  0
  -26.0358  -31.6098   20.5905 H   0  0  0  0  0  0
  -26.8062  -30.8949   21.9826 H   0  0  0  0  0  0
  -28.0889  -29.1507   21.1453 H   0  0  0  0  0  0
  -26.0300  -25.9792   19.0305 H   0  0  0  0  0  0
  -23.9746  -27.2776   19.0730 H   0  0  0  0  0  0
  -23.7094  -30.6025   19.4030 H   0  0  0  0  0  0
  -22.7298  -29.2429   19.8642 H   0  0  0  0  0  0
  -25.1289  -36.1988   25.0825 H   0  0  0  0  0  0
  -21.0000  -28.3234   24.1407 H   0  0  0  0  0  0
  -20.5708  -26.2251   23.3573 H   0  0  0  0  0  0
  -21.6637  -26.7462   22.1173 H   0  0  0  0  0  0
  -19.6939  -25.6300   21.1212 H   0  0  0  0  0  0
  -19.6709  -27.3223   20.6757 H   0  0  0  0  0  0
  -17.4199  -26.6708   21.4013 H   0  0  0  0  0  0
  -18.0345  -26.0017   22.8973 H   0  0  0  0  0  0
  -19.7980  -30.7220   24.2323 H   0  0  0  0  0  0
  -17.5080  -31.6294   24.5168 H   0  0  0  0  0  0
  -15.5398  -30.3057   23.7624 H   0  0  0  0  0  0
  -15.8657  -28.0856   22.7070 H   0  0  0  0  0  0
  -24.5937  -30.7024   25.7789 H   0  0  0  0  0  0
  -24.8855  -32.2911   26.4810 H   0  0  0  0  0  0
  -25.8075  -30.9004   27.0255 H   0  0  0  0  0  0
  -26.2848  -29.6917   24.0971 H   0  0  0  0  0  0
  -27.3994  -29.7232   25.4452 H   0  0  0  0  0  0
  -27.8683  -30.4431   23.9206 H   0  0  0  0  0  0
  -27.2671  -33.3676   26.1985 H   0  0  0  0  0  0
  -28.3866  -32.6856   25.0291 H   0  0  0  0  0  0
  -28.0663  -31.8493   26.5426 H   0  0  0  0  0  0
  -28.2597  -38.0078   24.7522 H   0  0  0  0  0  0
  -28.1059  -36.2607   24.6331 H   0  0  0  0  0  0
  -27.2278  -37.1433   25.8884 H   0  0  0  0  0  0
  -20.9199  -29.8806   21.6986 H   0  0  0  0  0  0
  -26.0203  -38.2869   24.1457 H   0  0  0  0  0  0
  -28.5194  -15.8579   17.6827 H   0  0  0  0  0  0
  -29.1048  -17.5607   17.7631 H   0  0  0  0  0  0
  -29.2920  -21.1654   18.3473 H   0  0  0  0  0  0
  -27.7234  -20.4590   18.5062 H   0  0  0  0  0  0
  -27.6422  -20.8819   21.8148 H   0  0  0  0  0  0
  -29.2093  -20.4095   22.4213 H   0  0  0  0  0  0
  -31.3496  -16.8112   18.5398 H   0  0  0  0  0  0
  -30.9097  -15.3370   17.6085 H   0  0  0  0  0  0
  -26.9031  -22.2717   19.8791 H   0  0  0  0  0  0
  -27.7304  -22.9780   18.5223 H   0  0  0  0  0  0
  -30.2558  -22.4411   21.6617 H   0  0  0  0  0  0
  -28.7937  -22.8723   22.4947 H   0  0  0  0  0  0
  -30.1058  -20.1800   20.1620 H   0  0  0  0  0  0
  -28.0795  -16.1231   20.0416 H   0  0  0  0  0  0
  -30.4831  -18.0332   20.2952 H   0  0  0  0  0  0
  -29.4801  -17.5018   21.6179 H   0  0  0  0  0  0
  -27.1891  -24.4997   20.8997 H   0  0  0  0  0  0
  -28.7471  -24.8842   21.5862 H   0  0  0  0  0  0
  -28.0285  -25.3528   18.6487 H   0  0  0  0  0  0
  -29.6401  -25.4158   19.2825 H   0  0  0  0  0  0
  -29.6349  -23.3133   19.8750 H   0  0  0  0  0  0
  -28.1565  -18.6318   19.3440 H   0  0  0  0  0  0
  -27.7108  -18.7307   20.8955 H   0  0  0  0  0  0
  1 25  1  0  0  0
  1 30  2  0  0  0
  1 82  1  0  0  0
  2  3  1  0  0  0
  2 25  1  0  0  0
  2 85  1  0  0  0
  2 86  1  0  0  0
  3  4  1  0  0  0
  3 87  1  0  0  0
  3 88  1  0  0  0
  4  5  1  0  0  0
  4 89  1  0  0  0
  4 90  1  0  0  0
  5  6  1  0  0  0
  5 26  1  0  0  0
  5 91  1  0  0  0
  6 25  1  0  0  0
  6 92  1  0  0  0
  6 93  1  0  0  0
  7  8  2  0  0  0
  7 26  1  0  0  0
  7 29  1  0  0  0
  8  9  1  0  0  0
  8 22  1  0  0  0
  9 10  1  0  0  0
  9 27  2  0  0  0
 10 11  2  0  0  0
 10 15  1  0  0  0
 11 12  1  0  0  0
 11 94  1  0  0  0
 12 13  2  0  0  0
 12 95  1  0  0  0
 13 14  1  0  0  0
 13 31  1  0  0  0
 14 15  2  0  0  0
 14 96  1  0  0  0
 15 97  1  0  0  0
 16 17  2  0  0  0
 16 21  1  0  0  0
 16 31  1  0  0  0
 17 18  1  0  0  0
 17 98  1  0  0  0
 18 19  2  0  0  0
 18 99  1  0  0  0
 19 20  1  0  0  0
 19 24  1  0  0  0
 20 21  2  0  0  0
 20100  1  0  0  0
 21 23  1  0  0  0
 22 28  1  0  0  0
 22 32  2  0  0  0
 26 27  1  0  0  0
 28101  1  0  0  0
 28102  1  0  0  0
 29103  1  0  0  0
 29104  1  0  0  0
 33 34  1  0  0  0
 33 66  1  0  0  0
 33 70  2  0  0  0
 34 36  1  0  0  0
 34 59  1  0  0  0
 34105  1  0  0  0
 35 44  2  0  0  0
 35 45  1  0  0  0
 35 68  1  0  0  0
 36 56  1  0  0  0
 36106  1  0  0  0
 37 39  1  0  0  0
 37 47  1  0  0  0
 37 66  1  0  0  0
 37107  1  0  0  0
 38 43  2  0  0  0
 38 46  1  0  0  0
 38 47  1  0  0  0
 39 64  1  0  0  0
 39 67  2  0  0  0
 40 52  1  0  0  0
 40 53  2  0  0  0
 40 58  1  0  0  0
 41108  1  0  0  0
 41109  1  0  0  0
 41110  1  0  0  0
 41 48  1  0  0  0
 42 43  1  0  0  0
 42 66  1  0  0  0
 42111  1  0  0  0
 42112  1  0  0  0
 43 44  1  0  0  0
 44113  1  0  0  0
 45 46  2  0  0  0
 45114  1  0  0  0
 46115  1  0  0  0
 47116  1  0  0  0
 47117  1  0  0  0
 48 56  1  0  0  0
 48 65  1  0  0  0
 48118  1  0  0  0
 49 50  1  0  0  0
 49 53  1  0  0  0
 49 64  1  0  0  0
 49119  1  0  0  0
 50 51  1  0  0  0
 50120  1  0  0  0
 50121  1  0  0  0
 51 52  1  0  0  0
 51122  1  0  0  0
 51123  1  0  0  0
 52124  1  0  0  0
 52125  1  0  0  0
 53 54  1  0  0  0
 54 55  2  0  0  0
 54126  1  0  0  0
 55 57  1  0  0  0
 55127  1  0  0  0
 56 69  2  0  0  0
 57 58  2  0  0  0
 57128  1  0  0  0
 58129  1  0  0  0
 59 60  1  0  0  0
 59 61  1  0  0  0
 59 62  1  0  0  0
 60130  1  0  0  0
 60131  1  0  0  0
 60132  1  0  0  0
 61133  1  0  0  0
 61134  1  0  0  0
 61135  1  0  0  0
 62136  1  0  0  0
 62137  1  0  0  0
 62138  1  0  0  0
 63 65  1  0  0  0
 63139  1  0  0  0
 63140  1  0  0  0
 63141  1  0  0  0
 64142  1  0  0  0
 65143  1  0  0  0
 68 81  1  0  0  0
 71 74  1  0  0  0
 71 78  1  0  0  0
 71144  1  0  0  0
 71145  1  0  0  0
 72 75  1  0  0  0
 72 77  1  0  0  0
 72146  1  0  0  0
 72147  1  0  0  0
 73 76  1  0  0  0
 73 77  1  0  0  0
 73148  1  0  0  0
 73149  1  0  0  0
 74 82  1  0  0  0
 74150  1  0  0  0
 74151  1  0  0  0
 75 83  1  0  0  0
 75152  1  0  0  0
 75153  1  0  0  0
 76 83  1  0  0  0
 76154  1  0  0  0
 76155  1  0  0  0
 77 84  1  0  0  0
 77156  1  0  0  0
 78 79  1  0  0  0
 78 82  1  0  0  0
 78157  1  0  0  0
 79 84  1  0  0  0
 79158  1  0  0  0
 79159  1  0  0  0
 80 81  1  0  0  0
 80160  1  0  0  0
 80161  1  0  0  0
 80 83  1  0  0  0
 81162  1  0  0  0
 81163  1  0  0  0
 83164  1  0  0  0
 84165  1  0  0  0
 84166  1  0  0  0
M  CHG  2  83   1  84   1
M  ISO  4   1 100  68 101  81 101  82 100
M  END
> <chiral flag>
0

> <version>
0

> <s_m_source_file>
/data/baiqing/PycharmProjects/Reinvent-master-3.2/result/LINK_invent/BTK/process_docking_weight1_custom_sum_contain_oxygen_bond_distance_aromatic_linkinvent_7_9_3/rearranged_h_0190.sdf

> <i_m_source_file_index>
36

> <r_mmod_Potential_Energy-OPLS-2005>
-50.8997764587402

> <r_mmod_Stretch_Energy-OPLS-2005>
34.3509521484375

> <r_mmod_Bend_Energy-OPLS-2005>
144.65397644043

> <r_mmod_Torsional_Energy-OPLS-2005>
370.973968505859

> <r_mmod_Improper_Torsional_Energy-OPLS-2005>
37.6697807312012

> <r_mmod_Van_der_Waal_Energy-OPLS-2005>
138.3486328125

> <r_mmod_Electrostatic_Energy-OPLS-2005>
172.189575195312

> <r_mmod_Solvation_Energy-OPLS-2005>
-986.736511230469

> <b_mmod_Minimization_Converged-OPLS-2005>
0

> <r_mmod_RMS_Derivative-OPLS-2005>
4.09163570404053

$$$$
36
                    3D
 Structure written by MMmdl.
161171  0  0  1  0            999 V2000
  -30.6842  -14.6711   20.5131 C   0  0  0  0  0  0
  -30.4246  -12.4259   19.4586 C   0  0  0  0  0  0
  -29.5006  -12.5112   18.2252 C   0  0  0  0  0  0
  -28.0257  -12.3456   18.6390 C   0  0  0  0  0  0
  -27.6465  -13.2257   19.8599 C   0  0  2  0  0  0
  -28.6961  -13.1047   20.9865 C   0  0  0  0  0  0
  -25.2508  -13.8182   20.5676 C   0  0  0  0  0  0
  -24.1801  -13.0433   20.9203 C   0  0  0  0  0  0
  -24.6393  -11.6912   20.8757 C   0  0  0  0  0  0
  -23.9070  -10.4290   21.0412 C   0  0  0  0  0  0
  -24.3620   -9.4203   21.9188 C   0  0  0  0  0  0
  -23.6294   -8.2240   22.0755 C   0  0  0  0  0  0
  -22.4276   -8.0280   21.3544 C   0  0  0  0  0  0
  -21.9913   -9.0254   20.4647 C   0  0  0  0  0  0
  -22.7243  -10.2133   20.3058 C   0  0  0  0  0  0
  -21.6853   -6.0735   22.5278 C   0  0  0  0  0  0
  -21.4014   -6.5639   23.8211 C   0  0  0  0  0  0
  -21.3659   -5.6792   24.9174 C   0  0  0  0  0  0
  -21.6044   -4.3055   24.7225 C   0  0  0  0  0  0
  -21.8819   -3.8146   23.4346 C   0  0  0  0  0  0
  -21.9192   -4.6963   22.3402 C   0  0  0  0  0  0
  -22.7821  -13.5216   21.1860 C   0  0  0  0  0  0
  -22.1661   -4.2148   21.0980 F   0  0  0  0  0  0
  -21.5629   -3.4539   25.7738 F   0  0  0  0  0  0
  -29.9952  -13.4797   20.4096 N   0  0  0  0  0  0
  -26.2957  -12.9390   20.3332 N   0  0  0  0  0  0
  -25.9327  -11.6535   20.5785 N   0  0  0  0  0  0
  -22.0470  -12.8209   22.0421 N   0  0  0  0  0  0
  -25.4149  -15.1900   20.4025 N   0  0  0  0  0  0
  -31.8607  -14.7126   20.1395 O   0  0  0  0  0  0
  -21.6639   -6.8878   21.4240 O   0  0  0  0  0  0
  -22.3503  -14.5521   20.6706 O   0  0  0  0  0  0
  -24.6301  -31.8603   23.2061 C   0  0  0  0  0  0
  -25.9143  -32.4780   23.8381 C   0  0  1  0  0  0
  -27.2060  -27.2890   20.1061 C   0  0  0  0  0  0
  -25.5953  -33.8582   24.2298 N   0  0  0  0  0  0
  -23.4237  -30.4904   21.5502 C   0  0  2  0  0  0
  -24.8672  -28.9576   20.1073 C   0  0  0  0  0  0
  -22.7497  -29.4635   22.4926 C   0  0  0  0  0  0
  -18.0293  -28.1386   22.8485 C   0  0  0  0  0  0
  -24.1492  -36.7291   23.2636 C   0  0  0  0  0  0
  -25.9725  -30.7791   21.3879 C   0  0  0  0  0  0
  -26.0420  -29.4087   20.7227 C   0  0  0  0  0  0
  -27.2139  -28.5850   20.7204 C   0  0  0  0  0  0
  -26.0076  -26.9281   19.4360 C   0  0  0  0  0  0
  -24.8542  -27.7226   19.4553 C   0  0  0  0  0  0
  -23.6390  -29.8404   20.1617 C   0  0  0  0  0  0
  -25.4116  -36.3083   24.0329 C   0  0  1  0  0  0
  -20.5898  -28.3698   23.1267 C   0  0  2  0  0  0
  -20.6784  -26.9418   22.5401 C   0  0  0  0  0  0
  -19.5755  -26.6385   21.5209 C   0  0  0  0  0  0
  -18.1937  -26.7928   22.1625 C   0  0  0  0  0  0
  -19.1547  -28.8858   23.2872 C   0  0  0  0  0  0
  -18.9467  -30.1459   23.8892 C   0  0  0  0  0  0
  -17.6466  -30.6587   24.0562 C   0  0  0  0  0  0
  -25.9058  -34.9452   23.5109 C   0  0  0  0  0  0
  -16.5357  -29.9083   23.6331 C   0  0  0  0  0  0
  -16.7279  -28.6501   23.0353 C   0  0  0  0  0  0
  -26.4511  -31.6587   25.0754 C   0  0  0  0  0  0
  -25.3733  -31.3732   26.1471 C   0  0  0  0  0  0
  -27.0357  -30.3001   24.6236 C   0  0  0  0  0  0
  -27.6067  -32.4324   25.7525 C   0  0  0  0  0  0
  -27.5581  -37.1803   24.8464 C   0  0  0  0  0  0
  -21.4207  -29.3054   22.3663 N   0  0  0  0  0  0
  -26.4292  -37.3779   23.9409 N   0  0  0  0  0  0
  -24.6945  -31.0595   22.1037 N   0  0  0  0  0  0
  -23.4211  -28.8152   23.2995 O   0  0  0  0  0  0
  -28.2730  -26.3595   20.1863 O   0  0  0  0  0  0
  -26.5616  -34.8916   22.4669 O   0  0  0  0  0  0
  -23.5457  -32.1420   23.7366 O   0  0  0  0  0  0
  -30.4322  -22.1665   21.1040 C   0  0  0  0  0  0
  -29.9199  -23.4906   20.9107 C   0  0  0  0  0  0
  -28.6921  -23.6209   20.2117 C   0  0  0  0  0  0
  -29.7185  -21.0278   20.6334 C   0  0  0  0  0  0
  -31.3870  -24.6707   22.7478 C   0  0  0  0  0  0
  -30.1257  -25.4857   22.5916 C   0  0  0  0  0  0
  -28.9459  -17.7663   21.8069 C   0  0  0  0  0  0
  -28.9379  -16.2282   21.6002 C   0  0  0  0  0  0
  -30.5565  -17.1932   20.1748 C   0  0  0  0  0  0
  -30.6582  -24.6905   21.4220 C   0  0  0  0  0  0
  -29.5938  -18.3766   20.5622 C   0  0  2  0  0  0
  -27.8973  -24.9460   19.8722 C   0  0  0  0  0  0
  -28.0603  -22.4778   19.7859 N   0  0  0  0  0  0
  -28.5411  -21.2284   19.9884 N   0  0  0  0  0  0
  -30.0143  -15.8815   20.6627 N   0  0  0  0  0  0
  -30.2434  -19.7047   20.8074 N   0  0  0  0  0  0
  -31.4655  -12.5304   19.1481 H   0  0  0  0  0  0
  -30.3586  -11.4404   19.9223 H   0  0  0  0  0  0
  -29.7720  -11.7477   17.4949 H   0  0  0  0  0  0
  -29.6371  -13.4730   17.7283 H   0  0  0  0  0  0
  -27.8687  -11.2936   18.8802 H   0  0  0  0  0  0
  -27.3688  -12.5642   17.7962 H   0  0  0  0  0  0
  -27.6559  -14.2563   19.5057 H   0  0  0  0  0  0
  -28.7311  -12.0809   21.3619 H   0  0  0  0  0  0
  -28.4300  -13.7090   21.8495 H   0  0  0  0  0  0
  -25.2764   -9.5679   22.4765 H   0  0  0  0  0  0
  -24.0002   -7.4630   22.7474 H   0  0  0  0  0  0
  -21.0845   -8.8774   19.8952 H   0  0  0  0  0  0
  -22.3702  -10.9673   19.6169 H   0  0  0  0  0  0
  -21.2006   -7.6148   23.9715 H   0  0  0  0  0  0
  -21.1482   -6.0523   25.9077 H   0  0  0  0  0  0
  -22.0599   -2.7609   23.2846 H   0  0  0  0  0  0
  -22.4091  -11.9873   22.4810 H   0  0  0  0  0  0
  -21.1088  -13.1231   22.2629 H   0  0  0  0  0  0
  -24.6437  -15.8402   20.5069 H   0  0  0  0  0  0
  -26.2596  -15.6295   20.0609 H   0  0  0  0  0  0
  -26.7208  -32.5436   23.1122 H   0  0  0  0  0  0
  -25.0108  -33.9731   25.0448 H   0  0  0  0  0  0
  -22.7187  -31.3131   21.4133 H   0  0  0  0  0  0
  -23.3755  -35.9623   23.3298 H   0  0  0  0  0  0
  -24.3585  -36.8910   22.2050 H   0  0  0  0  0  0
  -23.7243  -37.6493   23.6656 H   0  0  0  0  0  0
  -26.1155  -31.5448   20.6241 H   0  0  0  0  0  0
  -26.8491  -30.8193   22.0225 H   0  0  0  0  0  0
  -28.1062  -28.9194   21.2309 H   0  0  0  0  0  0
  -25.8976  -26.0033   18.8920 H   0  0  0  0  0  0
  -23.9592  -27.3771   18.9559 H   0  0  0  0  0  0
  -23.7632  -30.6242   19.4136 H   0  0  0  0  0  0
  -22.7569  -29.2770   19.8522 H   0  0  0  0  0  0
  -25.1294  -36.1937   25.0821 H   0  0  0  0  0  0
  -20.9991  -28.3272   24.1387 H   0  0  0  0  0  0
  -20.5690  -26.2308   23.3604 H   0  0  0  0  0  0
  -21.6651  -26.7448   22.1189 H   0  0  0  0  0  0
  -19.6918  -25.6295   21.1241 H   0  0  0  0  0  0
  -19.6688  -27.3193   20.6736 H   0  0  0  0  0  0
  -17.4204  -26.6671   21.4031 H   0  0  0  0  0  0
  -18.0343  -26.0071   22.9024 H   0  0  0  0  0  0
  -19.7942  -30.7277   24.2258 H   0  0  0  0  0  0
  -17.5020  -31.6267   24.5163 H   0  0  0  0  0  0
  -15.5357  -30.2983   23.7659 H   0  0  0  0  0  0
  -15.8679  -28.0818   22.7072 H   0  0  0  0  0  0
  -24.5918  -30.7070   25.7800 H   0  0  0  0  0  0
  -24.8914  -32.2899   26.4880 H   0  0  0  0  0  0
  -25.8052  -30.8923   27.0257 H   0  0  0  0  0  0
  -26.2945  -29.6753   24.1238 H   0  0  0  0  0  0
  -27.4011  -29.7258   25.4759 H   0  0  0  0  0  0
  -27.8839  -30.4270   23.9505 H   0  0  0  0  0  0
  -27.2676  -33.3626   26.2096 H   0  0  0  0  0  0
  -28.3882  -32.6880   25.0357 H   0  0  0  0  0  0
  -28.0730  -31.8453   26.5447 H   0  0  0  0  0  0
  -28.2593  -38.0106   24.7518 H   0  0  0  0  0  0
  -28.1083  -36.2638   24.6280 H   0  0  0  0  0  0
  -27.2301  -37.1439   25.8867 H   0  0  0  0  0  0
  -20.9383  -29.8797   21.6892 H   0  0  0  0  0  0
  -26.0172  -38.2853   24.1412 H   0  0  0  0  0  0
  -31.3732  -22.0300   21.6158 H   0  0  0  0  0  0
  -31.3228  -23.7771   23.3658 H   0  0  0  0  0  0
  -32.3216  -25.2233   22.8223 H   0  0  0  0  0  0
  -30.2360  -26.5681   22.5597 H   0  0  0  0  0  0
  -29.2287  -25.1220   23.0896 H   0  0  0  0  0  0
  -29.5485  -17.9947   22.6878 H   0  0  0  0  0  0
  -27.9468  -18.1638   21.9915 H   0  0  0  0  0  0
  -27.9840  -15.9228   21.1752 H   0  0  0  0  0  0
  -29.0621  -15.7200   22.5574 H   0  0  0  0  0  0
  -31.5342  -17.3410   20.6371 H   0  0  0  0  0  0
  -30.7185  -17.1609   19.0963 H   0  0  0  0  0  0
  -31.1139  -25.2449   20.6031 H   0  0  0  0  0  0
  -28.8354  -18.4804   19.7836 H   0  0  0  0  0  0
  -26.9375  -24.7494   20.3529 H   0  0  0  0  0  0
  -27.7399  -24.8972   18.7938 H   0  0  0  0  0  0
  -31.1441  -19.6692   21.2722 H   0  0  0  0  0  0
  1 25  1  0  0  0
  1 30  2  0  0  0
  1 85  1  0  0  0
  2  3  1  0  0  0
  2 25  1  0  0  0
  2 87  1  0  0  0
  2 88  1  0  0  0
  3  4  1  0  0  0
  3 89  1  0  0  0
  3 90  1  0  0  0
  4  5  1  0  0  0
  4 91  1  0  0  0
  4 92  1  0  0  0
  5  6  1  0  0  0
  5 26  1  0  0  0
  5 93  1  0  0  0
  6 25  1  0  0  0
  6 94  1  0  0  0
  6 95  1  0  0  0
  7  8  2  0  0  0
  7 26  1  0  0  0
  7 29  1  0  0  0
  8  9  1  0  0  0
  8 22  1  0  0  0
  9 10  1  0  0  0
  9 27  2  0  0  0
 10 11  2  0  0  0
 10 15  1  0  0  0
 11 12  1  0  0  0
 11 96  1  0  0  0
 12 13  2  0  0  0
 12 97  1  0  0  0
 13 14  1  0  0  0
 13 31  1  0  0  0
 14 15  2  0  0  0
 14 98  1  0  0  0
 15 99  1  0  0  0
 16 17  2  0  0  0
 16 21  1  0  0  0
 16 31  1  0  0  0
 17 18  1  0  0  0
 17100  1  0  0  0
 18 19  2  0  0  0
 18101  1  0  0  0
 19 20  1  0  0  0
 19 24  1  0  0  0
 20 21  2  0  0  0
 20102  1  0  0  0
 21 23  1  0  0  0
 22 28  1  0  0  0
 22 32  2  0  0  0
 26 27  1  0  0  0
 28103  1  0  0  0
 28104  1  0  0  0
 29105  1  0  0  0
 29106  1  0  0  0
 33 34  1  0  0  0
 33 66  1  0  0  0
 33 70  2  0  0  0
 34 36  1  0  0  0
 34 59  1  0  0  0
 34107  1  0  0  0
 35 44  2  0  0  0
 35 45  1  0  0  0
 35 68  1  0  0  0
 36 56  1  0  0  0
 36108  1  0  0  0
 37 39  1  0  0  0
 37 47  1  0  0  0
 37 66  1  0  0  0
 37109  1  0  0  0
 38 43  2  0  0  0
 38 46  1  0  0  0
 38 47  1  0  0  0
 39 64  1  0  0  0
 39 67  2  0  0  0
 40 52  1  0  0  0
 40 53  2  0  0  0
 40 58  1  0  0  0
 41110  1  0  0  0
 41111  1  0  0  0
 41112  1  0  0  0
 41 48  1  0  0  0
 42 43  1  0  0  0
 42 66  1  0  0  0
 42113  1  0  0  0
 42114  1  0  0  0
 43 44  1  0  0  0
 44115  1  0  0  0
 45 46  2  0  0  0
 45116  1  0  0  0
 46117  1  0  0  0
 47118  1  0  0  0
 47119  1  0  0  0
 48 56  1  0  0  0
 48 65  1  0  0  0
 48120  1  0  0  0
 49 50  1  0  0  0
 49 53  1  0  0  0
 49 64  1  0  0  0
 49121  1  0  0  0
 50 51  1  0  0  0
 50122  1  0  0  0
 50123  1  0  0  0
 51 52  1  0  0  0
 51124  1  0  0  0
 51125  1  0  0  0
 52126  1  0  0  0
 52127  1  0  0  0
 53 54  1  0  0  0
 54 55  2  0  0  0
 54128  1  0  0  0
 55 57  1  0  0  0
 55129  1  0  0  0
 56 69  2  0  0  0
 57 58  2  0  0  0
 57130  1  0  0  0
 58131  1  0  0  0
 59 60  1  0  0  0
 59 61  1  0  0  0
 59 62  1  0  0  0
 60132  1  0  0  0
 60133  1  0  0  0
 60134  1  0  0  0
 61135  1  0  0  0
 61136  1  0  0  0
 61137  1  0  0  0
 62138  1  0  0  0
 62139  1  0  0  0
 62140  1  0  0  0
 63 65  1  0  0  0
 63141  1  0  0  0
 63142  1  0  0  0
 63143  1  0  0  0
 64144  1  0  0  0
 65145  1  0  0  0
 68 82  1  0  0  0
 71 72  2  0  0  0
 71 74  1  0  0  0
 71146  1  0  0  0
 72 73  1  0  0  0
 72 80  1  0  0  0
 73 82  1  0  0  0
 73 83  2  0  0  0
 74 84  2  0  0  0
 74 86  1  0  0  0
 75 76  1  0  0  0
 75 80  1  0  0  0
 75147  1  0  0  0
 75148  1  0  0  0
 76 80  1  0  0  0
 76149  1  0  0  0
 76150  1  0  0  0
 77 78  1  0  0  0
 77 81  1  0  0  0
 77151  1  0  0  0
 77152  1  0  0  0
 78 85  1  0  0  0
 78153  1  0  0  0
 78154  1  0  0  0
 79 81  1  0  0  0
 79 85  1  0  0  0
 79155  1  0  0  0
 79156  1  0  0  0
 80157  1  0  0  0
 81 86  1  0  0  0
 81158  1  0  0  0
 82159  1  0  0  0
 82160  1  0  0  0
 83 84  1  0  0  0
 86161  1  0  0  0
M  ISO  4   1 100  68 101  82 101  85 100
M  END
> <chiral flag>
0

> <version>
0

> <s_m_source_file>
/data/baiqing/PycharmProjects/Reinvent-master-3.2/result/LINK_invent/BTK/process_docking_weight1_custom_sum_contain_oxygen_bond_distance_aromatic_linkinvent_7_9_3/rearranged_h_0190.sdf

> <i_m_source_file_index>
37

> <r_mmod_Potential_Energy-OPLS-2005>
307.610778808594

> <r_mmod_Stretch_Energy-OPLS-2005>
90.8010025024414

> <r_mmod_Bend_Energy-OPLS-2005>
215.720199584961

> <r_mmod_Torsional_Energy-OPLS-2005>
331.323822021484

> <r_mmod_Improper_Torsional_Energy-OPLS-2005>
11.2016868591309

> <r_mmod_Van_der_Waal_Energy-OPLS-2005>
148.506912231445

> <r_mmod_Electrostatic_Energy-OPLS-2005>
-327.684661865234

> <r_mmod_Solvation_Energy-OPLS-2005>
-229.32536315918

> <b_mmod_Minimization_Converged-OPLS-2005>
0

> <r_mmod_RMS_Derivative-OPLS-2005>
0.103783905506134

$$$$
37
                    3D
 Structure written by MMmdl.
159168  0  0  1  0            999 V2000
  -30.7777  -14.3262   20.7320 C   0  0  0  0  0  0
  -30.4205  -12.2934   19.3798 C   0  0  0  0  0  0
  -29.4792  -12.5355   18.1857 C   0  0  0  0  0  0
  -28.0056  -12.3829   18.6058 C   0  0  0  0  0  0
  -27.6671  -13.1972   19.8796 C   0  0  2  0  0  0
  -28.7025  -12.9227   20.9912 C   0  0  0  0  0  0
  -25.2607  -13.8152   20.5657 C   0  0  0  0  0  0
  -24.1843  -13.0438   20.9160 C   0  0  0  0  0  0
  -24.6385  -11.6905   20.8723 C   0  0  0  0  0  0
  -23.9052  -10.4295   21.0401 C   0  0  0  0  0  0
  -24.3607   -9.4215   21.9181 C   0  0  0  0  0  0
  -23.6285   -8.2248   22.0754 C   0  0  0  0  0  0
  -22.4267   -8.0281   21.3547 C   0  0  0  0  0  0
  -21.9903   -9.0250   20.4646 C   0  0  0  0  0  0
  -22.7226  -10.2134   20.3054 C   0  0  0  0  0  0
  -21.6849   -6.0735   22.5280 C   0  0  0  0  0  0
  -21.4010   -6.5639   23.8213 C   0  0  0  0  0  0
  -21.3659   -5.6794   24.9178 C   0  0  0  0  0  0
  -21.6043   -4.3054   24.7226 C   0  0  0  0  0  0
  -21.8822   -3.8146   23.4347 C   0  0  0  0  0  0
  -21.9191   -4.6964   22.3403 C   0  0  0  0  0  0
  -22.7872  -13.5249   21.1833 C   0  0  0  0  0  0
  -22.1664   -4.2149   21.0981 F   0  0  0  0  0  0
  -21.5628   -3.4537   25.7739 F   0  0  0  0  0  0
  -30.0516  -13.2129   20.4638 N   0  0  0  0  0  0
  -26.3041  -12.9303   20.3372 N   0  0  0  0  0  0
  -25.9306  -11.6469   20.5751 N   0  0  0  0  0  0
  -22.0511  -12.8233   22.0388 N   0  0  0  0  0  0
  -25.4356  -15.1862   20.4056 N   0  0  0  0  0  0
  -31.7578  -14.6857   20.0716 O   0  0  0  0  0  0
  -21.6636   -6.8876   21.4242 O   0  0  0  0  0  0
  -22.3562  -14.5557   20.6691 O   0  0  0  0  0  0
  -24.6131  -31.8690   23.2143 C   0  0  0  0  0  0
  -25.9044  -32.4821   23.8421 C   0  0  1  0  0  0
  -27.2388  -27.4750   20.0602 C   0  0  0  0  0  0
  -25.5900  -33.8619   24.2349 N   0  0  0  0  0  0
  -23.3975  -30.4951   21.5537 C   0  0  2  0  0  0
  -24.8389  -28.9623   20.1199 C   0  0  0  0  0  0
  -22.7387  -29.4683   22.5016 C   0  0  0  0  0  0
  -18.0266  -28.1394   22.8497 C   0  0  0  0  0  0
  -24.1482  -36.7323   23.2649 C   0  0  0  0  0  0
  -25.9240  -30.8431   21.3627 C   0  0  0  0  0  0
  -25.9972  -29.4801   20.7095 C   0  0  0  0  0  0
  -27.1956  -28.7398   20.6829 C   0  0  0  0  0  0
  -26.0489  -26.9445   19.5055 C   0  0  0  0  0  0
  -24.8556  -27.6899   19.5231 C   0  0  0  0  0  0
  -23.6016  -29.8259   20.1693 C   0  0  0  0  0  0
  -25.4099  -36.3106   24.0346 C   0  0  1  0  0  0
  -20.5850  -28.3687   23.1331 C   0  0  2  0  0  0
  -20.6765  -26.9431   22.5428 C   0  0  0  0  0  0
  -19.5752  -26.6407   21.5215 C   0  0  0  0  0  0
  -18.1913  -26.7956   22.1602 C   0  0  0  0  0  0
  -19.1512  -28.8860   23.2909 C   0  0  0  0  0  0
  -18.9439  -30.1463   23.8931 C   0  0  0  0  0  0
  -17.6441  -30.6602   24.0583 C   0  0  0  0  0  0
  -25.9025  -34.9469   23.5136 C   0  0  0  0  0  0
  -16.5334  -29.9104   23.6332 C   0  0  0  0  0  0
  -16.7254  -28.6517   23.0356 C   0  0  0  0  0  0
  -26.4491  -31.6603   25.0747 C   0  0  0  0  0  0
  -25.3769  -31.3639   26.1494 C   0  0  0  0  0  0
  -27.0383  -30.3065   24.6139 C   0  0  0  0  0  0
  -27.6058  -32.4357   25.7493 C   0  0  0  0  0  0
  -27.5579  -37.1807   24.8466 C   0  0  0  0  0  0
  -21.4125  -29.3038   22.3730 N   0  0  0  0  0  0
  -26.4289  -37.3786   23.9413 N   0  0  0  0  0  0
  -24.6630  -31.0830   22.1020 N   0  0  0  0  0  0
  -23.4171  -28.8228   23.3053 O   0  0  0  0  0  0
  -28.4593  -26.8395   20.0180 O   0  0  0  0  0  0
  -26.5565  -34.8917   22.4683 O   0  0  0  0  0  0
  -23.5330  -32.1420   23.7564 O   0  0  0  0  0  0
  -30.8885  -20.1351   20.3413 C   0  0  0  0  0  0
  -29.2047  -21.8926   21.7438 C   0  0  0  0  0  0
  -29.6551  -22.2117   20.4512 C   0  0  0  0  0  0
  -30.4915  -21.3477   19.7537 C   0  0  0  0  0  0
  -30.4209  -19.8348   21.6467 C   0  0  0  0  0  0
  -29.4676  -23.3976   19.6542 C   0  0  0  0  0  0
  -28.6908  -24.4532   19.9458 C   0  0  0  0  0  0
  -30.3726  -23.2201   18.4505 C   0  0  0  0  0  0
  -28.6527  -25.7336   19.1452 C   0  0  0  0  0  0
  -30.5803  -17.4317   21.5670 C   0  0  0  0  0  0
  -30.9854  -16.1929   22.3806 C   0  0  0  0  0  0
  -29.6135  -20.7200   22.2885 N   0  3  0  0  0  0
  -30.8753  -21.8416   18.4960 N   0  0  0  0  0  0
  -30.7589  -18.6596   22.3258 N   0  0  0  0  0  0
  -30.3922  -14.9791   21.8333 N   0  0  0  0  0  0
  -31.4596  -12.4183   19.0684 H   0  0  0  0  0  0
  -30.3387  -11.2629   19.7303 H   0  0  0  0  0  0
  -29.7102  -11.8418   17.3758 H   0  0  0  0  0  0
  -29.6441  -13.5376   17.7861 H   0  0  0  0  0  0
  -27.8134  -11.3238   18.7804 H   0  0  0  0  0  0
  -27.3494  -12.6809   17.7869 H   0  0  0  0  0  0
  -27.7320  -14.2535   19.6165 H   0  0  0  0  0  0
  -28.6596  -11.8766   21.2967 H   0  0  0  0  0  0
  -28.4378  -13.4906   21.8835 H   0  0  0  0  0  0
  -25.2754   -9.5696   22.4751 H   0  0  0  0  0  0
  -23.9998   -7.4646   22.7479 H   0  0  0  0  0  0
  -21.0833   -8.8768   19.8950 H   0  0  0  0  0  0
  -22.3680  -10.9673   19.6161 H   0  0  0  0  0  0
  -21.2001   -7.6146   23.9719 H   0  0  0  0  0  0
  -21.1477   -6.0521   25.9083 H   0  0  0  0  0  0
  -22.0599   -2.7608   23.2848 H   0  0  0  0  0  0
  -22.4120  -11.9888   22.4766 H   0  0  0  0  0  0
  -21.1132  -13.1262   22.2599 H   0  0  0  0  0  0
  -24.6729  -15.8473   20.5059 H   0  0  0  0  0  0
  -26.2978  -15.6194   20.0986 H   0  0  0  0  0  0
  -26.7115  -32.5534   23.1188 H   0  0  0  0  0  0
  -25.0101  -33.9784   25.0526 H   0  0  0  0  0  0
  -22.6851  -31.3111   21.4158 H   0  0  0  0  0  0
  -23.3734  -35.9668   23.3304 H   0  0  0  0  0  0
  -24.3575  -36.8947   22.2066 H   0  0  0  0  0  0
  -23.7243  -37.6525   23.6673 H   0  0  0  0  0  0
  -26.0370  -31.6115   20.5962 H   0  0  0  0  0  0
  -26.8121  -30.8906   21.9816 H   0  0  0  0  0  0
  -28.0981  -29.1475   21.1164 H   0  0  0  0  0  0
  -26.0117  -25.9646   19.0536 H   0  0  0  0  0  0
  -23.9594  -27.2813   19.0763 H   0  0  0  0  0  0
  -23.7080  -30.5979   19.4063 H   0  0  0  0  0  0
  -22.7264  -29.2415   19.8788 H   0  0  0  0  0  0
  -25.1262  -36.1974   25.0838 H   0  0  0  0  0  0
  -20.9939  -28.3278   24.1452 H   0  0  0  0  0  0
  -20.5685  -26.2303   23.3608 H   0  0  0  0  0  0
  -21.6633  -26.7492   22.1216 H   0  0  0  0  0  0
  -19.6918  -25.6321   21.1245 H   0  0  0  0  0  0
  -19.6708  -27.3225   20.6749 H   0  0  0  0  0  0
  -17.4203  -26.6760   21.3978 H   0  0  0  0  0  0
  -18.0262  -26.0084   22.8970 H   0  0  0  0  0  0
  -19.7910  -30.7274   24.2328 H   0  0  0  0  0  0
  -17.4988  -31.6280   24.5195 H   0  0  0  0  0  0
  -15.5327  -30.3007   23.7657 H   0  0  0  0  0  0
  -15.8650  -28.0844   22.7056 H   0  0  0  0  0  0
  -24.6063  -30.6838   25.7848 H   0  0  0  0  0  0
  -24.8803  -32.2737   26.4871 H   0  0  0  0  0  0
  -25.8175  -30.8928   27.0294 H   0  0  0  0  0  0
  -26.2947  -29.6724   24.1310 H   0  0  0  0  0  0
  -27.4292  -29.7396   25.4596 H   0  0  0  0  0  0
  -27.8689  -30.4393   23.9208 H   0  0  0  0  0  0
  -27.2679  -33.3664   26.2064 H   0  0  0  0  0  0
  -28.3850  -32.6921   25.0302 H   0  0  0  0  0  0
  -28.0762  -31.8508   26.5407 H   0  0  0  0  0  0
  -28.2584  -38.0116   24.7518 H   0  0  0  0  0  0
  -28.1090  -36.2644   24.6285 H   0  0  0  0  0  0
  -27.2312  -37.1451   25.8876 H   0  0  0  0  0  0
  -20.9308  -29.8712   21.6897 H   0  0  0  0  0  0
  -26.0181  -38.2867   24.1414 H   0  0  0  0  0  0
  -31.5489  -19.4681   19.8108 H   0  0  0  0  0  0
  -28.5771  -22.5318   22.3514 H   0  0  0  0  0  0
  -28.0710  -24.4381   20.8310 H   0  0  0  0  0  0
  -31.2082  -23.9205   18.5078 H   0  0  0  0  0  0
  -29.8277  -23.4159   17.5246 H   0  0  0  0  0  0
  -27.9483  -25.6671   18.3177 H   0  0  0  0  0  0
  -29.6242  -25.8768   18.6727 H   0  0  0  0  0  0
  -29.5278  -17.3674   21.2875 H   0  0  0  0  0  0
  -31.1546  -17.4571   20.6417 H   0  0  0  0  0  0
  -30.6276  -16.2838   23.4076 H   0  0  0  0  0  0
  -32.0719  -16.1040   22.4348 H   0  0  0  0  0  0
  -29.2894  -20.5048   23.2359 H   0  0  0  0  0  0
  -31.8366  -21.6669   18.2162 H   0  0  0  0  0  0
  -30.4376  -18.5996   23.2803 H   0  0  0  0  0  0
  -29.6160  -14.5783   22.3405 H   0  0  0  0  0  0
  1 25  1  0  0  0
  1 30  2  0  0  0
  1 85  1  0  0  0
  2  3  1  0  0  0
  2 25  1  0  0  0
  2 86  1  0  0  0
  2 87  1  0  0  0
  3  4  1  0  0  0
  3 88  1  0  0  0
  3 89  1  0  0  0
  4  5  1  0  0  0
  4 90  1  0  0  0
  4 91  1  0  0  0
  5  6  1  0  0  0
  5 26  1  0  0  0
  5 92  1  0  0  0
  6 25  1  0  0  0
  6 93  1  0  0  0
  6 94  1  0  0  0
  7  8  2  0  0  0
  7 26  1  0  0  0
  7 29  1  0  0  0
  8  9  1  0  0  0
  8 22  1  0  0  0
  9 10  1  0  0  0
  9 27  2  0  0  0
 10 11  2  0  0  0
 10 15  1  0  0  0
 11 12  1  0  0  0
 11 95  1  0  0  0
 12 13  2  0  0  0
 12 96  1  0  0  0
 13 14  1  0  0  0
 13 31  1  0  0  0
 14 15  2  0  0  0
 14 97  1  0  0  0
 15 98  1  0  0  0
 16 17  2  0  0  0
 16 21  1  0  0  0
 16 31  1  0  0  0
 17 18  1  0  0  0
 17 99  1  0  0  0
 18 19  2  0  0  0
 18100  1  0  0  0
 19 20  1  0  0  0
 19 24  1  0  0  0
 20 21  2  0  0  0
 20101  1  0  0  0
 21 23  1  0  0  0
 22 28  1  0  0  0
 22 32  2  0  0  0
 26 27  1  0  0  0
 28102  1  0  0  0
 28103  1  0  0  0
 29104  1  0  0  0
 29105  1  0  0  0
 33 34  1  0  0  0
 33 66  1  0  0  0
 33 70  2  0  0  0
 34 36  1  0  0  0
 34 59  1  0  0  0
 34106  1  0  0  0
 35 44  2  0  0  0
 35 45  1  0  0  0
 35 68  1  0  0  0
 36 56  1  0  0  0
 36107  1  0  0  0
 37 39  1  0  0  0
 37 47  1  0  0  0
 37 66  1  0  0  0
 37108  1  0  0  0
 38 43  2  0  0  0
 38 46  1  0  0  0
 38 47  1  0  0  0
 39 64  1  0  0  0
 39 67  2  0  0  0
 40 52  1  0  0  0
 40 53  2  0  0  0
 40 58  1  0  0  0
 41109  1  0  0  0
 41110  1  0  0  0
 41111  1  0  0  0
 41 48  1  0  0  0
 42 43  1  0  0  0
 42 66  1  0  0  0
 42112  1  0  0  0
 42113  1  0  0  0
 43 44  1  0  0  0
 44114  1  0  0  0
 45 46  2  0  0  0
 45115  1  0  0  0
 46116  1  0  0  0
 47117  1  0  0  0
 47118  1  0  0  0
 48 56  1  0  0  0
 48 65  1  0  0  0
 48119  1  0  0  0
 49 50  1  0  0  0
 49 53  1  0  0  0
 49 64  1  0  0  0
 49120  1  0  0  0
 50 51  1  0  0  0
 50121  1  0  0  0
 50122  1  0  0  0
 51 52  1  0  0  0
 51123  1  0  0  0
 51124  1  0  0  0
 52125  1  0  0  0
 52126  1  0  0  0
 53 54  1  0  0  0
 54 55  2  0  0  0
 54127  1  0  0  0
 55 57  1  0  0  0
 55128  1  0  0  0
 56 69  2  0  0  0
 57 58  2  0  0  0
 57129  1  0  0  0
 58130  1  0  0  0
 59 60  1  0  0  0
 59 61  1  0  0  0
 59 62  1  0  0  0
 60131  1  0  0  0
 60132  1  0  0  0
 60133  1  0  0  0
 61134  1  0  0  0
 61135  1  0  0  0
 61136  1  0  0  0
 62137  1  0  0  0
 62138  1  0  0  0
 62139  1  0  0  0
 63 65  1  0  0  0
 63140  1  0  0  0
 63141  1  0  0  0
 63142  1  0  0  0
 64143  1  0  0  0
 65144  1  0  0  0
 68 79  1  0  0  0
 71 74  2  0  0  0
 71 75  1  0  0  0
 71145  1  0  0  0
 72 73  2  0  0  0
 72 82  1  0  0  0
 72146  1  0  0  0
 73 74  1  0  0  0
 73 76  1  0  0  0
 74 83  1  0  0  0
 75 82  2  0  0  0
 75 84  1  0  0  0
 76 77  2  0  0  0
 76 78  1  0  0  0
 77 79  1  0  0  0
 77147  1  0  0  0
 78 83  1  0  0  0
 78148  1  0  0  0
 78149  1  0  0  0
 79150  1  0  0  0
 79151  1  0  0  0
 80 81  1  0  0  0
 80 84  1  0  0  0
 80152  1  0  0  0
 80153  1  0  0  0
 81 85  1  0  0  0
 81154  1  0  0  0
 81155  1  0  0  0
 82156  1  0  0  0
 83157  1  0  0  0
 84158  1  0  0  0
 85159  1  0  0  0
M  CHG  1  82   1
M  ISO  4   1 100  68 101  79 101  85 100
M  END
> <chiral flag>
0

> <version>
0

> <s_m_source_file>
/data/baiqing/PycharmProjects/Reinvent-master-3.2/result/LINK_invent/BTK/process_docking_weight1_custom_sum_contain_oxygen_bond_distance_aromatic_linkinvent_7_9_3/rearranged_h_0190.sdf

> <i_m_source_file_index>
38

> <r_mmod_Potential_Energy-OPLS-2005>
-161.903579711914

> <r_mmod_Stretch_Energy-OPLS-2005>
32.5060043334961

> <r_mmod_Bend_Energy-OPLS-2005>
148.242340087891

> <r_mmod_Torsional_Energy-OPLS-2005>
195.39826965332

> <r_mmod_Improper_Torsional_Energy-OPLS-2005>
10.5929136276245

> <r_mmod_Van_der_Waal_Energy-OPLS-2005>
158.533477783203

> <r_mmod_Electrostatic_Energy-OPLS-2005>
-270.70654296875

> <r_mmod_Solvation_Energy-OPLS-2005>
-445.389831542969

> <b_mmod_Minimization_Converged-OPLS-2005>
0

> <r_mmod_RMS_Derivative-OPLS-2005>
1.58649075031281

$$$$
38
                    3D
 Structure written by MMmdl.
155164  0  0  1  0            999 V2000
  -30.6014  -14.6442   20.4646 C   0  0  0  0  0  0
  -30.4347  -12.3868   19.4638 C   0  0  0  0  0  0
  -29.5118  -12.4962   18.2290 C   0  0  0  0  0  0
  -28.0315  -12.3372   18.6304 C   0  0  0  0  0  0
  -27.6467  -13.2149   19.8515 C   0  0  2  0  0  0
  -28.6860  -13.0855   20.9884 C   0  0  0  0  0  0
  -25.2535  -13.8206   20.5621 C   0  0  0  0  0  0
  -24.1813  -13.0461   20.9198 C   0  0  0  0  0  0
  -24.6377  -11.6933   20.8742 C   0  0  0  0  0  0
  -23.9055  -10.4307   21.0415 C   0  0  0  0  0  0
  -24.3626   -9.4230   21.9184 C   0  0  0  0  0  0
  -23.6314   -8.2254   22.0750 C   0  0  0  0  0  0
  -22.4281   -8.0297   21.3550 C   0  0  0  0  0  0
  -21.9907   -9.0265   20.4648 C   0  0  0  0  0  0
  -22.7232  -10.2147   20.3062 C   0  0  0  0  0  0
  -21.6865   -6.0740   22.5275 C   0  0  0  0  0  0
  -21.4018   -6.5626   23.8213 C   0  0  0  0  0  0
  -21.3662   -5.6784   24.9172 C   0  0  0  0  0  0
  -21.6062   -4.3057   24.7212 C   0  0  0  0  0  0
  -21.8828   -3.8138   23.4334 C   0  0  0  0  0  0
  -21.9188   -4.6966   22.3396 C   0  0  0  0  0  0
  -22.7831  -13.5247   21.1840 C   0  0  0  0  0  0
  -22.1662   -4.2155   21.0971 F   0  0  0  0  0  0
  -21.5637   -3.4532   25.7717 F   0  0  0  0  0  0
  -30.0004  -13.4169   20.4269 N   0  0  0  0  0  0
  -26.2936  -12.9358   20.3227 N   0  0  0  0  0  0
  -25.9303  -11.6523   20.5732 N   0  0  0  0  0  0
  -22.0431  -12.8286   22.0418 N   0  0  0  0  0  0
  -25.4212  -15.1920   20.3946 N   0  0  0  0  0  0
  -31.7746  -14.7933   20.1129 O   0  0  0  0  0  0
  -21.6663   -6.8887   21.4234 O   0  0  0  0  0  0
  -22.3517  -14.5518   20.6649 O   0  0  0  0  0  0
  -24.6272  -31.8630   23.2021 C   0  0  0  0  0  0
  -25.9104  -32.4816   23.8375 C   0  0  1  0  0  0
  -27.2363  -27.3370   20.1245 C   0  0  0  0  0  0
  -25.5933  -33.8621   24.2324 N   0  0  0  0  0  0
  -23.4222  -30.4816   21.5441 C   0  0  2  0  0  0
  -24.8706  -28.9315   20.1180 C   0  0  0  0  0  0
  -22.7495  -29.4616   22.4941 C   0  0  0  0  0  0
  -18.0291  -28.1375   22.8482 C   0  0  0  0  0  0
  -24.1486  -36.7299   23.2629 C   0  0  0  0  0  0
  -25.9603  -30.7981   21.3683 C   0  0  0  0  0  0
  -26.0378  -29.4241   20.7153 C   0  0  0  0  0  0
  -27.2266  -28.6402   20.7033 C   0  0  0  0  0  0
  -26.0498  -26.8862   19.5100 C   0  0  0  0  0  0
  -24.8758  -27.6660   19.5076 C   0  0  0  0  0  0
  -23.6416  -29.8135   20.1613 C   0  0  0  0  0  0
  -25.4117  -36.3112   24.0339 C   0  0  1  0  0  0
  -20.5894  -28.3684   23.1276 C   0  0  2  0  0  0
  -20.6782  -26.9402   22.5408 C   0  0  0  0  0  0
  -19.5754  -26.6364   21.5210 C   0  0  0  0  0  0
  -18.1932  -26.7915   22.1618 C   0  0  0  0  0  0
  -19.1540  -28.8852   23.2880 C   0  0  0  0  0  0
  -18.9454  -30.1450   23.8905 C   0  0  0  0  0  0
  -17.6455  -30.6578   24.0545 C   0  0  0  0  0  0
  -25.9056  -34.9487   23.5132 C   0  0  0  0  0  0
  -16.5351  -29.9073   23.6322 C   0  0  0  0  0  0
  -16.7270  -28.6491   23.0339 C   0  0  0  0  0  0
  -26.4486  -31.6619   25.0745 C   0  0  0  0  0  0
  -25.3721  -31.3720   26.1479 C   0  0  0  0  0  0
  -27.0332  -30.3061   24.6166 C   0  0  0  0  0  0
  -27.6101  -32.4295   25.7503 C   0  0  0  0  0  0
  -27.5594  -37.1804   24.8471 C   0  0  0  0  0  0
  -21.4205  -29.3047   22.3695 N   0  0  0  0  0  0
  -26.4308  -37.3806   23.9421 N   0  0  0  0  0  0
  -24.6889  -31.0653   22.0960 N   0  0  0  0  0  0
  -23.4218  -28.8155   23.3018 O   0  0  0  0  0  0
  -28.3668  -26.5150   20.1168 O   0  0  0  0  0  0
  -26.5604  -34.8936   22.4686 O   0  0  0  0  0  0
  -23.5439  -32.1415   23.7364 O   0  0  0  0  0  0
  -29.8995  -22.3202   21.5072 C   0  0  0  0  0  0
  -29.5096  -20.4868   20.5536 C   0  0  0  0  0  0
  -30.5452  -18.2024   21.0070 C   0  0  0  0  0  0
  -28.7857  -18.0772   19.9382 C   0  0  0  0  0  0
  -30.0029  -17.0977   20.0676 C   0  0  0  0  0  0
  -30.5380  -23.3434   22.3912 C   0  0  0  0  0  0
  -28.9109  -23.9652   19.7641 C   0  0  0  0  0  0
  -28.2326  -25.1277   20.6102 C   0  0  0  0  0  0
  -30.0879  -21.0062   21.6742 N   0  0  0  0  0  0
  -28.9153  -21.4212   19.7825 N   0  0  0  0  0  0
  -29.1768  -22.6289   20.4151 N   0  0  0  0  0  0
  -29.7973  -19.1264   20.1356 N   0  0  0  0  0  0
  -29.7769  -15.7259   20.6368 N   0  0  0  0  0  0
  -31.4748  -12.5192   19.1613 H   0  0  0  0  0  0
  -30.3747  -11.3972   19.9183 H   0  0  0  0  0  0
  -29.7822  -11.7396   17.4915 H   0  0  0  0  0  0
  -29.6601  -13.4638   17.7456 H   0  0  0  0  0  0
  -27.8621  -11.2840   18.8617 H   0  0  0  0  0  0
  -27.3849  -12.5667   17.7823 H   0  0  0  0  0  0
  -27.6574  -14.2455   19.5010 H   0  0  0  0  0  0
  -28.6952  -12.0707   21.3845 H   0  0  0  0  0  0
  -28.4322  -13.7339   21.8273 H   0  0  0  0  0  0
  -25.2766   -9.5725   22.4759 H   0  0  0  0  0  0
  -24.0038   -7.4643   22.7458 H   0  0  0  0  0  0
  -21.0826   -8.8778   19.8957 H   0  0  0  0  0  0
  -22.3674  -10.9690   19.6177 H   0  0  0  0  0  0
  -21.2010   -7.6125   23.9716 H   0  0  0  0  0  0
  -21.1482   -6.0502   25.9080 H   0  0  0  0  0  0
  -22.0598   -2.7597   23.2817 H   0  0  0  0  0  0
  -22.4045  -12.0004   22.4906 H   0  0  0  0  0  0
  -21.1030  -13.1344   22.2533 H   0  0  0  0  0  0
  -24.6430  -15.8370   20.4850 H   0  0  0  0  0  0
  -26.2453  -15.6218   19.9981 H   0  0  0  0  0  0
  -26.7198  -32.5504   23.1153 H   0  0  0  0  0  0
  -25.0153  -33.9764   25.0512 H   0  0  0  0  0  0
  -22.7150  -31.3009   21.3966 H   0  0  0  0  0  0
  -23.3780  -35.9596   23.3291 H   0  0  0  0  0  0
  -24.3585  -36.8920   22.2043 H   0  0  0  0  0  0
  -23.7213  -37.6493   23.6648 H   0  0  0  0  0  0
  -26.0855  -31.5559   20.5945 H   0  0  0  0  0  0
  -26.8447  -30.8566   21.9925 H   0  0  0  0  0  0
  -28.1267  -29.0210   21.1644 H   0  0  0  0  0  0
  -26.0277  -25.9176   19.0324 H   0  0  0  0  0  0
  -23.9813  -27.2783   19.0394 H   0  0  0  0  0  0
  -23.7691  -30.5877   19.4035 H   0  0  0  0  0  0
  -22.7630  -29.2434   19.8567 H   0  0  0  0  0  0
  -25.1284  -36.1978   25.0834 H   0  0  0  0  0  0
  -20.9974  -28.3224   24.1391 H   0  0  0  0  0  0
  -20.5657  -26.2283   23.3595 H   0  0  0  0  0  0
  -21.6652  -26.7415   22.1198 H   0  0  0  0  0  0
  -19.6893  -25.6260   21.1257 H   0  0  0  0  0  0
  -19.6682  -27.3165   20.6722 H   0  0  0  0  0  0
  -17.4196  -26.6658   21.4018 H   0  0  0  0  0  0
  -18.0317  -26.0062   22.9014 H   0  0  0  0  0  0
  -19.7942  -30.7262   24.2267 H   0  0  0  0  0  0
  -17.5012  -31.6254   24.5134 H   0  0  0  0  0  0
  -15.5353  -30.2961   23.7643 H   0  0  0  0  0  0
  -15.8674  -28.0804   22.7045 H   0  0  0  0  0  0
  -24.5866  -30.7122   25.7770 H   0  0  0  0  0  0
  -24.8936  -32.2872   26.4986 H   0  0  0  0  0  0
  -25.8030  -30.8815   27.0219 H   0  0  0  0  0  0
  -26.2903  -29.6804   24.1211 H   0  0  0  0  0  0
  -27.4088  -29.7328   25.4654 H   0  0  0  0  0  0
  -27.8747  -30.4395   23.9362 H   0  0  0  0  0  0
  -27.2792  -33.3587   26.2148 H   0  0  0  0  0  0
  -28.3885  -32.6848   25.0301 H   0  0  0  0  0  0
  -28.0805  -31.8361   26.5350 H   0  0  0  0  0  0
  -28.2609  -38.0090   24.7552 H   0  0  0  0  0  0
  -28.1082  -36.2649   24.6268 H   0  0  0  0  0  0
  -27.2314  -37.1437   25.8860 H   0  0  0  0  0  0
  -20.9372  -29.8829   21.6968 H   0  0  0  0  0  0
  -26.0195  -38.2888   24.1409 H   0  0  0  0  0  0
  -31.6279  -18.3379   20.9778 H   0  0  0  0  0  0
  -30.1589  -18.1523   22.0277 H   0  0  0  0  0  0
  -28.0523  -18.0170   20.7468 H   0  0  0  0  0  0
  -28.3132  -18.0934   18.9545 H   0  0  0  0  0  0
  -30.5678  -17.0539   19.1312 H   0  0  0  0  0  0
  -31.4169  -22.9230   22.8835 H   0  0  0  0  0  0
  -29.8374  -23.6738   23.1575 H   0  0  0  0  0  0
  -30.8661  -24.2050   21.8097 H   0  0  0  0  0  0
  -29.8797  -24.3320   19.4204 H   0  0  0  0  0  0
  -28.3280  -23.8023   18.8581 H   0  0  0  0  0  0
  -28.6837  -25.1476   21.5987 H   0  0  0  0  0  0
  -27.1906  -24.8640   20.7932 H   0  0  0  0  0  0
  -28.8380  -15.5109   20.9358 H   0  0  0  0  0  0
  1 25  1  0  0  0
  1 30  2  0  0  0
  1 83  1  0  0  0
  2  3  1  0  0  0
  2 25  1  0  0  0
  2 84  1  0  0  0
  2 85  1  0  0  0
  3  4  1  0  0  0
  3 86  1  0  0  0
  3 87  1  0  0  0
  4  5  1  0  0  0
  4 88  1  0  0  0
  4 89  1  0  0  0
  5  6  1  0  0  0
  5 26  1  0  0  0
  5 90  1  0  0  0
  6 25  1  0  0  0
  6 91  1  0  0  0
  6 92  1  0  0  0
  7  8  2  0  0  0
  7 26  1  0  0  0
  7 29  1  0  0  0
  8  9  1  0  0  0
  8 22  1  0  0  0
  9 10  1  0  0  0
  9 27  2  0  0  0
 10 11  2  0  0  0
 10 15  1  0  0  0
 11 12  1  0  0  0
 11 93  1  0  0  0
 12 13  2  0  0  0
 12 94  1  0  0  0
 13 14  1  0  0  0
 13 31  1  0  0  0
 14 15  2  0  0  0
 14 95  1  0  0  0
 15 96  1  0  0  0
 16 17  2  0  0  0
 16 21  1  0  0  0
 16 31  1  0  0  0
 17 18  1  0  0  0
 17 97  1  0  0  0
 18 19  2  0  0  0
 18 98  1  0  0  0
 19 20  1  0  0  0
 19 24  1  0  0  0
 20 21  2  0  0  0
 20 99  1  0  0  0
 21 23  1  0  0  0
 22 28  1  0  0  0
 22 32  2  0  0  0
 26 27  1  0  0  0
 28100  1  0  0  0
 28101  1  0  0  0
 29102  1  0  0  0
 29103  1  0  0  0
 33 34  1  0  0  0
 33 66  1  0  0  0
 33 70  2  0  0  0
 34 36  1  0  0  0
 34 59  1  0  0  0
 34104  1  0  0  0
 35 44  2  0  0  0
 35 45  1  0  0  0
 35 68  1  0  0  0
 36 56  1  0  0  0
 36105  1  0  0  0
 37 39  1  0  0  0
 37 47  1  0  0  0
 37 66  1  0  0  0
 37106  1  0  0  0
 38 43  2  0  0  0
 38 46  1  0  0  0
 38 47  1  0  0  0
 39 64  1  0  0  0
 39 67  2  0  0  0
 40 52  1  0  0  0
 40 53  2  0  0  0
 40 58  1  0  0  0
 41107  1  0  0  0
 41108  1  0  0  0
 41109  1  0  0  0
 41 48  1  0  0  0
 42 43  1  0  0  0
 42 66  1  0  0  0
 42110  1  0  0  0
 42111  1  0  0  0
 43 44  1  0  0  0
 44112  1  0  0  0
 45 46  2  0  0  0
 45113  1  0  0  0
 46114  1  0  0  0
 47115  1  0  0  0
 47116  1  0  0  0
 48 56  1  0  0  0
 48 65  1  0  0  0
 48117  1  0  0  0
 49 50  1  0  0  0
 49 53  1  0  0  0
 49 64  1  0  0  0
 49118  1  0  0  0
 50 51  1  0  0  0
 50119  1  0  0  0
 50120  1  0  0  0
 51 52  1  0  0  0
 51121  1  0  0  0
 51122  1  0  0  0
 52123  1  0  0  0
 52124  1  0  0  0
 53 54  1  0  0  0
 54 55  2  0  0  0
 54125  1  0  0  0
 55 57  1  0  0  0
 55126  1  0  0  0
 56 69  2  0  0  0
 57 58  2  0  0  0
 57127  1  0  0  0
 58128  1  0  0  0
 59 60  1  0  0  0
 59 61  1  0  0  0
 59 62  1  0  0  0
 60129  1  0  0  0
 60130  1  0  0  0
 60131  1  0  0  0
 61132  1  0  0  0
 61133  1  0  0  0
 61134  1  0  0  0
 62135  1  0  0  0
 62136  1  0  0  0
 62137  1  0  0  0
 63 65  1  0  0  0
 63138  1  0  0  0
 63139  1  0  0  0
 63140  1  0  0  0
 64141  1  0  0  0
 65142  1  0  0  0
 68 78  1  0  0  0
 71 76  1  0  0  0
 71 79  2  0  0  0
 71 81  1  0  0  0
 72 79  1  0  0  0
 72 80  2  0  0  0
 72 82  1  0  0  0
 73 75  1  0  0  0
 73 82  1  0  0  0
 73143  1  0  0  0
 73144  1  0  0  0
 74 75  1  0  0  0
 74 82  1  0  0  0
 74145  1  0  0  0
 74146  1  0  0  0
 75 83  1  0  0  0
 75147  1  0  0  0
 76148  1  0  0  0
 76149  1  0  0  0
 76150  1  0  0  0
 77 78  1  0  0  0
 77 81  1  0  0  0
 77151  1  0  0  0
 77152  1  0  0  0
 78153  1  0  0  0
 78154  1  0  0  0
 80 81  1  0  0  0
 83155  1  0  0  0
M  ISO  4   1 100  68 101  78 101  83 100
M  END
> <chiral flag>
0

> <version>
0

> <s_m_source_file>
/data/baiqing/PycharmProjects/Reinvent-master-3.2/result/LINK_invent/BTK/process_docking_weight1_custom_sum_contain_oxygen_bond_distance_aromatic_linkinvent_7_9_3/rearranged_h_0190.sdf

> <i_m_source_file_index>
39

> <r_mmod_Potential_Energy-OPLS-2005>
-58.0890502929688

> <r_mmod_Stretch_Energy-OPLS-2005>
69.954460144043

> <r_mmod_Bend_Energy-OPLS-2005>
178.204956054688

> <r_mmod_Torsional_Energy-OPLS-2005>
274.282287597656

> <r_mmod_Improper_Torsional_Energy-OPLS-2005>
18.5413436889648

> <r_mmod_Van_der_Waal_Energy-OPLS-2005>
121.572105407715

> <r_mmod_Electrostatic_Energy-OPLS-2005>
-510.077819824219

> <r_mmod_Solvation_Energy-OPLS-2005>
-256.892974853516

> <b_mmod_Minimization_Converged-OPLS-2005>
0

> <r_mmod_RMS_Derivative-OPLS-2005>
3.59705829620361

$$$$
39
                    3D
 Structure written by MMmdl.
162171  0  0  1  0            999 V2000
  -30.6838  -14.5498   20.6056 C   0  0  0  0  0  0
  -30.4323  -12.3668   19.4407 C   0  0  0  0  0  0
  -29.5031  -12.5037   18.2157 C   0  0  0  0  0  0
  -28.0233  -12.3501   18.6193 C   0  0  0  0  0  0
  -27.6554  -13.2043   19.8601 C   0  0  2  0  0  0
  -28.6910  -12.9977   20.9818 C   0  0  0  0  0  0
  -25.2585  -13.8161   20.5648 C   0  0  0  0  0  0
  -24.1841  -13.0443   20.9167 C   0  0  0  0  0  0
  -24.6386  -11.6911   20.8728 C   0  0  0  0  0  0
  -23.9053  -10.4299   21.0411 C   0  0  0  0  0  0
  -24.3617   -9.4210   21.9184 C   0  0  0  0  0  0
  -23.6295   -8.2244   22.0754 C   0  0  0  0  0  0
  -22.4274   -8.0285   21.3546 C   0  0  0  0  0  0
  -21.9901   -9.0262   20.4653 C   0  0  0  0  0  0
  -22.7230  -10.2140   20.3057 C   0  0  0  0  0  0
  -21.6846   -6.0739   22.5284 C   0  0  0  0  0  0
  -21.4020   -6.5646   23.8221 C   0  0  0  0  0  0
  -21.3653   -5.6793   24.9183 C   0  0  0  0  0  0
  -21.6032   -4.3055   24.7228 C   0  0  0  0  0  0
  -21.8816   -3.8149   23.4349 C   0  0  0  0  0  0
  -21.9198   -4.6969   22.3406 C   0  0  0  0  0  0
  -22.7864  -13.5254   21.1836 C   0  0  0  0  0  0
  -22.1658   -4.2156   21.0980 F   0  0  0  0  0  0
  -21.5619   -3.4539   25.7736 F   0  0  0  0  0  0
  -30.0128  -13.3644   20.4451 N   0  0  0  0  0  0
  -26.2986  -12.9307   20.3269 N   0  0  0  0  0  0
  -25.9300  -11.6478   20.5720 N   0  0  0  0  0  0
  -22.0501  -12.8267   22.0405 N   0  0  0  0  0  0
  -25.4349  -15.1887   20.4064 N   0  0  0  0  0  0
  -31.7969  -14.7251   20.1000 O   0  0  0  0  0  0
  -21.6633   -6.8886   21.4247 O   0  0  0  0  0  0
  -22.3552  -14.5558   20.6681 O   0  0  0  0  0  0
  -24.6189  -31.8649   23.2065 C   0  0  0  0  0  0
  -25.9061  -32.4810   23.8382 C   0  0  1  0  0  0
  -27.2331  -27.3905   20.1110 C   0  0  0  0  0  0
  -25.5896  -33.8610   24.2307 N   0  0  0  0  0  0
  -23.4095  -30.4855   21.5492 C   0  0  2  0  0  0
  -24.8571  -28.9399   20.1221 C   0  0  0  0  0  0
  -22.7433  -29.4636   22.4990 C   0  0  0  0  0  0
  -18.0273  -28.1379   22.8497 C   0  0  0  0  0  0
  -24.1479  -36.7306   23.2639 C   0  0  0  0  0  0
  -25.9422  -30.8156   21.3677 C   0  0  0  0  0  0
  -26.0199  -29.4445   20.7187 C   0  0  0  0  0  0
  -27.2144  -28.6790   20.7057 C   0  0  0  0  0  0
  -26.0538  -26.9065   19.5114 C   0  0  0  0  0  0
  -24.8702  -27.6712   19.5153 C   0  0  0  0  0  0
  -23.6216  -29.8133   20.1667 C   0  0  0  0  0  0
  -25.4106  -36.3105   24.0331 C   0  0  1  0  0  0
  -20.5867  -28.3664   23.1318 C   0  0  2  0  0  0
  -20.6765  -26.9396   22.5425 C   0  0  0  0  0  0
  -19.5740  -26.6384   21.5224 C   0  0  0  0  0  0
  -18.1919  -26.7929   22.1630 C   0  0  0  0  0  0
  -19.1525  -28.8839   23.2901 C   0  0  0  0  0  0
  -18.9454  -30.1448   23.8911 C   0  0  0  0  0  0
  -17.6455  -30.6582   24.0568 C   0  0  0  0  0  0
  -25.9037  -34.9470   23.5112 C   0  0  0  0  0  0
  -16.5345  -29.9085   23.6328 C   0  0  0  0  0  0
  -16.7266  -28.6501   23.0352 C   0  0  0  0  0  0
  -26.4478  -31.6602   25.0723 C   0  0  0  0  0  0
  -25.3734  -31.3734   26.1463 C   0  0  0  0  0  0
  -27.0311  -30.3037   24.6129 C   0  0  0  0  0  0
  -27.6047  -32.4339   25.7482 C   0  0  0  0  0  0
  -27.5580  -37.1803   24.8462 C   0  0  0  0  0  0
  -21.4155  -29.3024   22.3723 N   0  0  0  0  0  0
  -26.4294  -37.3792   23.9405 N   0  0  0  0  0  0
  -24.6751  -31.0712   22.0990 N   0  0  0  0  0  0
  -23.4181  -28.8180   23.3054 O   0  0  0  0  0  0
  -28.3851  -26.6263   20.0417 O   0  0  0  0  0  0
  -26.5609  -34.8924   22.4684 O   0  0  0  0  0  0
  -23.5368  -32.1426   23.7427 O   0  0  0  0  0  0
  -30.9395  -21.6705   20.9382 C   0  0  0  0  0  0
  -30.4277  -16.8301   22.7733 C   0  0  0  0  0  0
  -30.1466  -22.9140   21.3646 C   0  0  0  0  0  0
  -29.5089  -15.6478   22.5320 C   0  0  0  0  0  0
  -28.6776  -21.6401   20.1593 C   0  0  0  0  0  0
  -29.9233  -20.6997   20.3100 C   0  0  2  0  0  0
  -30.4594  -17.0406   21.2642 C   0  0  2  0  0  0
  -29.5320  -18.1248   20.6111 C   0  0  0  0  0  0
  -28.0973  -24.0667   20.4836 C   0  0  0  0  0  0
  -28.5117  -25.5152   20.9643 C   0  0  0  0  0  0
  -30.0024  -15.6112   21.1459 N   0  0  0  0  0  0
  -29.1614  -23.0377   20.2991 N   0  0  0  0  0  0
  -29.7682  -19.4926   21.1912 N   0  3  0  0  0  0
  -31.4724  -12.4896   19.1343 H   0  0  0  0  0  0
  -30.3718  -11.3616   19.8607 H   0  0  0  0  0  0
  -29.7658  -11.7563   17.4658 H   0  0  0  0  0  0
  -29.6572  -13.4764   17.7463 H   0  0  0  0  0  0
  -27.8453  -11.2959   18.8353 H   0  0  0  0  0  0
  -27.3757  -12.5992   17.7777 H   0  0  0  0  0  0
  -27.6970  -14.2493   19.5520 H   0  0  0  0  0  0
  -28.6982  -11.9539   21.3007 H   0  0  0  0  0  0
  -28.3948  -13.5511   21.8660 H   0  0  0  0  0  0
  -25.2761   -9.5688   22.4757 H   0  0  0  0  0  0
  -24.0008   -7.4627   22.7464 H   0  0  0  0  0  0
  -21.0823   -8.8785   19.8962 H   0  0  0  0  0  0
  -22.3692  -10.9681   19.6164 H   0  0  0  0  0  0
  -21.2019   -7.6150   23.9741 H   0  0  0  0  0  0
  -21.1468   -6.0513   25.9090 H   0  0  0  0  0  0
  -22.0602   -2.7609   23.2847 H   0  0  0  0  0  0
  -22.4090  -11.9933   22.4809 H   0  0  0  0  0  0
  -21.1124  -13.1325   22.2603 H   0  0  0  0  0  0
  -24.6773  -15.8521   20.5273 H   0  0  0  0  0  0
  -26.2934  -15.6208   20.0903 H   0  0  0  0  0  0
  -26.7124  -32.5515   23.1134 H   0  0  0  0  0  0
  -25.0036  -33.9774   25.0446 H   0  0  0  0  0  0
  -22.6997  -31.3023   21.4065 H   0  0  0  0  0  0
  -23.3740  -35.9638   23.3313 H   0  0  0  0  0  0
  -24.3568  -36.8923   22.2051 H   0  0  0  0  0  0
  -23.7226  -37.6507   23.6659 H   0  0  0  0  0  0
  -26.0634  -31.5783   20.5972 H   0  0  0  0  0  0
  -26.8270  -30.8692   21.9911 H   0  0  0  0  0  0
  -28.1174  -29.0725   21.1523 H   0  0  0  0  0  0
  -26.0528  -25.9394   19.0296 H   0  0  0  0  0  0
  -23.9775  -27.2790   19.0483 H   0  0  0  0  0  0
  -23.7344  -30.5855   19.4050 H   0  0  0  0  0  0
  -22.7449  -29.2353   19.8709 H   0  0  0  0  0  0
  -25.1288  -36.1967   25.0825 H   0  0  0  0  0  0
  -20.9963  -28.3229   24.1437 H   0  0  0  0  0  0
  -20.5678  -26.2269   23.3613 H   0  0  0  0  0  0
  -21.6636  -26.7441   22.1211 H   0  0  0  0  0  0
  -19.6896  -25.6300   21.1239 H   0  0  0  0  0  0
  -19.6681  -27.3211   20.6767 H   0  0  0  0  0  0
  -17.4196  -26.6689   21.4021 H   0  0  0  0  0  0
  -18.0299  -26.0068   22.9020 H   0  0  0  0  0  0
  -19.7931  -30.7261   24.2283 H   0  0  0  0  0  0
  -17.5010  -31.6267   24.5164 H   0  0  0  0  0  0
  -15.5347  -30.2990   23.7649 H   0  0  0  0  0  0
  -15.8666  -28.0828   22.7058 H   0  0  0  0  0  0
  -24.5869  -30.7134   25.7789 H   0  0  0  0  0  0
  -24.8975  -32.2907   26.4938 H   0  0  0  0  0  0
  -25.8053  -30.8861   27.0209 H   0  0  0  0  0  0
  -26.2858  -29.6790   24.1186 H   0  0  0  0  0  0
  -27.4067  -29.7286   25.4603 H   0  0  0  0  0  0
  -27.8705  -30.4343   23.9292 H   0  0  0  0  0  0
  -27.2656  -33.3629   26.2076 H   0  0  0  0  0  0
  -28.3836  -32.6923   25.0297 H   0  0  0  0  0  0
  -28.0731  -31.8460   26.5382 H   0  0  0  0  0  0
  -28.2601  -38.0099   24.7517 H   0  0  0  0  0  0
  -28.1072  -36.2629   24.6281 H   0  0  0  0  0  0
  -27.2302  -37.1453   25.8868 H   0  0  0  0  0  0
  -20.9321  -29.8738   21.6937 H   0  0  0  0  0  0
  -26.0176  -38.2864   24.1421 H   0  0  0  0  0  0
  -31.5003  -21.2470   21.7730 H   0  0  0  0  0  0
  -31.6756  -21.9586   20.1857 H   0  0  0  0  0  0
  -31.3944  -16.5357   23.1861 H   0  0  0  0  0  0
  -29.9781  -17.6370   23.3528 H   0  0  0  0  0  0
  -30.7983  -23.7841   21.4535 H   0  0  0  0  0  0
  -29.6565  -22.7554   22.3281 H   0  0  0  0  0  0
  -28.4483  -15.8941   22.6136 H   0  0  0  0  0  0
  -29.7675  -14.7903   23.1563 H   0  0  0  0  0  0
  -27.9498  -21.4284   20.9454 H   0  0  0  0  0  0
  -28.1699  -21.4876   19.2055 H   0  0  0  0  0  0
  -30.2955  -20.3963   19.3299 H   0  0  0  0  0  0
  -31.4957  -17.1767   20.9470 H   0  0  0  0  0  0
  -28.4792  -17.8750   20.7467 H   0  0  0  0  0  0
  -29.6974  -18.1445   19.5335 H   0  0  0  0  0  0
  -27.5208  -24.1423   19.5613 H   0  0  0  0  0  0
  -27.3983  -23.6787   21.2264 H   0  0  0  0  0  0
  -29.5444  -25.5276   21.3068 H   0  0  0  0  0  0
  -27.9320  -25.7495   21.8595 H   0  0  0  0  0  0
  -29.0756  -19.6761   21.8991 H   0  0  0  0  0  0
  -30.6485  -19.4159   21.6725 H   0  0  0  0  0  0
  1 25  1  0  0  0
  1 30  2  0  0  0
  1 81  1  0  0  0
  2  3  1  0  0  0
  2 25  1  0  0  0
  2 84  1  0  0  0
  2 85  1  0  0  0
  3  4  1  0  0  0
  3 86  1  0  0  0
  3 87  1  0  0  0
  4  5  1  0  0  0
  4 88  1  0  0  0
  4 89  1  0  0  0
  5  6  1  0  0  0
  5 26  1  0  0  0
  5 90  1  0  0  0
  6 25  1  0  0  0
  6 91  1  0  0  0
  6 92  1  0  0  0
  7  8  2  0  0  0
  7 26  1  0  0  0
  7 29  1  0  0  0
  8  9  1  0  0  0
  8 22  1  0  0  0
  9 10  1  0  0  0
  9 27  2  0  0  0
 10 11  2  0  0  0
 10 15  1  0  0  0
 11 12  1  0  0  0
 11 93  1  0  0  0
 12 13  2  0  0  0
 12 94  1  0  0  0
 13 14  1  0  0  0
 13 31  1  0  0  0
 14 15  2  0  0  0
 14 95  1  0  0  0
 15 96  1  0  0  0
 16 17  2  0  0  0
 16 21  1  0  0  0
 16 31  1  0  0  0
 17 18  1  0  0  0
 17 97  1  0  0  0
 18 19  2  0  0  0
 18 98  1  0  0  0
 19 20  1  0  0  0
 19 24  1  0  0  0
 20 21  2  0  0  0
 20 99  1  0  0  0
 21 23  1  0  0  0
 22 28  1  0  0  0
 22 32  2  0  0  0
 26 27  1  0  0  0
 28100  1  0  0  0
 28101  1  0  0  0
 29102  1  0  0  0
 29103  1  0  0  0
 33 34  1  0  0  0
 33 66  1  0  0  0
 33 70  2  0  0  0
 34 36  1  0  0  0
 34 59  1  0  0  0
 34104  1  0  0  0
 35 44  2  0  0  0
 35 45  1  0  0  0
 35 68  1  0  0  0
 36 56  1  0  0  0
 36105  1  0  0  0
 37 39  1  0  0  0
 37 47  1  0  0  0
 37 66  1  0  0  0
 37106  1  0  0  0
 38 43  2  0  0  0
 38 46  1  0  0  0
 38 47  1  0  0  0
 39 64  1  0  0  0
 39 67  2  0  0  0
 40 52  1  0  0  0
 40 53  2  0  0  0
 40 58  1  0  0  0
 41107  1  0  0  0
 41108  1  0  0  0
 41109  1  0  0  0
 41 48  1  0  0  0
 42 43  1  0  0  0
 42 66  1  0  0  0
 42110  1  0  0  0
 42111  1  0  0  0
 43 44  1  0  0  0
 44112  1  0  0  0
 45 46  2  0  0  0
 45113  1  0  0  0
 46114  1  0  0  0
 47115  1  0  0  0
 47116  1  0  0  0
 48 56  1  0  0  0
 48 65  1  0  0  0
 48117  1  0  0  0
 49 50  1  0  0  0
 49 53  1  0  0  0
 49 64  1  0  0  0
 49118  1  0  0  0
 50 51  1  0  0  0
 50119  1  0  0  0
 50120  1  0  0  0
 51 52  1  0  0  0
 51121  1  0  0  0
 51122  1  0  0  0
 52123  1  0  0  0
 52124  1  0  0  0
 53 54  1  0  0  0
 54 55  2  0  0  0
 54125  1  0  0  0
 55 57  1  0  0  0
 55126  1  0  0  0
 56 69  2  0  0  0
 57 58  2  0  0  0
 57127  1  0  0  0
 58128  1  0  0  0
 59 60  1  0  0  0
 59 61  1  0  0  0
 59 62  1  0  0  0
 60129  1  0  0  0
 60130  1  0  0  0
 60131  1  0  0  0
 61132  1  0  0  0
 61133  1  0  0  0
 61134  1  0  0  0
 62135  1  0  0  0
 62136  1  0  0  0
 62137  1  0  0  0
 63 65  1  0  0  0
 63138  1  0  0  0
 63139  1  0  0  0
 63140  1  0  0  0
 64141  1  0  0  0
 65142  1  0  0  0
 68 80  1  0  0  0
 71 73  1  0  0  0
 71 76  1  0  0  0
 71143  1  0  0  0
 71144  1  0  0  0
 72 74  1  0  0  0
 72 77  1  0  0  0
 72145  1  0  0  0
 72146  1  0  0  0
 73 82  1  0  0  0
 73147  1  0  0  0
 73148  1  0  0  0
 74 81  1  0  0  0
 74149  1  0  0  0
 74150  1  0  0  0
 75 76  1  0  0  0
 75 82  1  0  0  0
 75151  1  0  0  0
 75152  1  0  0  0
 76 83  1  0  0  0
 76153  1  0  0  0
 77 78  1  0  0  0
 77 81  1  0  0  0
 77154  1  0  0  0
 78 83  1  0  0  0
 78155  1  0  0  0
 78156  1  0  0  0
 79 80  1  0  0  0
 79 82  1  0  0  0
 79157  1  0  0  0
 79158  1  0  0  0
 80159  1  0  0  0
 80160  1  0  0  0
 83161  1  0  0  0
 83162  1  0  0  0
M  CHG  1  83   1
M  ISO  4   1 100  68 101  80 101  81 100
M  END
> <chiral flag>
0

> <version>
0

> <s_m_source_file>
/data/baiqing/PycharmProjects/Reinvent-master-3.2/result/LINK_invent/BTK/process_docking_weight1_custom_sum_contain_oxygen_bond_distance_aromatic_linkinvent_7_9_3/rearranged_h_0190.sdf

> <i_m_source_file_index>
40

> <r_mmod_Potential_Energy-OPLS-2005>
69.5807723999023

> <r_mmod_Stretch_Energy-OPLS-2005>
59.3116226196289

> <r_mmod_Bend_Energy-OPLS-2005>
162.581298828125

> <r_mmod_Torsional_Energy-OPLS-2005>
380.46923828125

> <r_mmod_Improper_Torsional_Energy-OPLS-2005>
10.7327947616577

> <r_mmod_Van_der_Waal_Energy-OPLS-2005>
126.98770904541

> <r_mmod_Electrostatic_Energy-OPLS-2005>
-215.082977294922

> <r_mmod_Solvation_Energy-OPLS-2005>
-476.316711425781

> <b_mmod_Minimization_Converged-OPLS-2005>
0

> <r_mmod_RMS_Derivative-OPLS-2005>
1.55160450935364

$$$$
40
                    3D
 Structure written by MMmdl.
156164  0  0  1  0            999 V2000
  -30.6870  -14.6322   20.4936 C   0  0  0  0  0  0
  -30.4219  -12.3918   19.4541 C   0  0  0  0  0  0
  -29.4963  -12.4960   18.2237 C   0  0  0  0  0  0
  -28.0237  -12.3352   18.6442 C   0  0  0  0  0  0
  -27.6482  -13.2265   19.8581 C   0  0  2  0  0  0
  -28.6975  -13.1275   20.9884 C   0  0  0  0  0  0
  -25.2534  -13.8197   20.5708 C   0  0  0  0  0  0
  -24.1815  -13.0445   20.9208 C   0  0  0  0  0  0
  -24.6398  -11.6915   20.8758 C   0  0  0  0  0  0
  -23.9072  -10.4292   21.0413 C   0  0  0  0  0  0
  -24.3622   -9.4203   21.9187 C   0  0  0  0  0  0
  -23.6296   -8.2237   22.0750 C   0  0  0  0  0  0
  -22.4277   -8.0280   21.3543 C   0  0  0  0  0  0
  -21.9915   -9.0253   20.4645 C   0  0  0  0  0  0
  -22.7244  -10.2134   20.3058 C   0  0  0  0  0  0
  -21.6852   -6.0731   22.5275 C   0  0  0  0  0  0
  -21.4012   -6.5637   23.8209 C   0  0  0  0  0  0
  -21.3660   -5.6792   24.9176 C   0  0  0  0  0  0
  -21.6043   -4.3055   24.7223 C   0  0  0  0  0  0
  -21.8819   -3.8144   23.4347 C   0  0  0  0  0  0
  -21.9191   -4.6959   22.3401 C   0  0  0  0  0  0
  -22.7834  -13.5226   21.1867 C   0  0  0  0  0  0
  -22.1660   -4.2144   21.0978 F   0  0  0  0  0  0
  -21.5632   -3.4539   25.7738 F   0  0  0  0  0  0
  -30.0089  -13.4431   20.4074 N   0  0  0  0  0  0
  -26.2977  -12.9402   20.3343 N   0  0  0  0  0  0
  -25.9336  -11.6548   20.5794 N   0  0  0  0  0  0
  -22.0486  -12.8203   22.0422 N   0  0  0  0  0  0
  -25.4230  -15.1915   20.4099 N   0  0  0  0  0  0
  -31.8645  -14.7133   20.1371 O   0  0  0  0  0  0
  -21.6639   -6.8876   21.4240 O   0  0  0  0  0  0
  -22.3509  -14.5531   20.6716 O   0  0  0  0  0  0
  -24.6290  -31.8619   23.2076 C   0  0  0  0  0  0
  -25.9135  -32.4797   23.8398 C   0  0  1  0  0  0
  -27.2053  -27.3000   20.1070 C   0  0  0  0  0  0
  -25.5954  -33.8603   24.2317 N   0  0  0  0  0  0
  -23.4225  -30.4940   21.5511 C   0  0  2  0  0  0
  -24.8670  -28.9679   20.1065 C   0  0  0  0  0  0
  -22.7497  -29.4648   22.4917 C   0  0  0  0  0  0
  -18.0300  -28.1382   22.8483 C   0  0  0  0  0  0
  -24.1490  -36.7289   23.2638 C   0  0  0  0  0  0
  -25.9718  -30.7861   21.3880 C   0  0  0  0  0  0
  -26.0431  -29.4182   20.7214 C   0  0  0  0  0  0
  -27.2160  -28.5963   20.7188 C   0  0  0  0  0  0
  -26.0064  -26.9436   19.4326 C   0  0  0  0  0  0
  -24.8534  -27.7353   19.4530 C   0  0  0  0  0  0
  -23.6370  -29.8465   20.1628 C   0  0  0  0  0  0
  -25.4112  -36.3097   24.0336 C   0  0  1  0  0  0
  -20.5903  -28.3702   23.1262 C   0  0  2  0  0  0
  -20.6786  -26.9418   22.5402 C   0  0  0  0  0  0
  -19.5760  -26.6381   21.5211 C   0  0  0  0  0  0
  -18.1940  -26.7926   22.1616 C   0  0  0  0  0  0
  -19.1552  -28.8859   23.2873 C   0  0  0  0  0  0
  -18.9471  -30.1457   23.8892 C   0  0  0  0  0  0
  -17.6467  -30.6584   24.0567 C   0  0  0  0  0  0
  -25.9056  -34.9466   23.5121 C   0  0  0  0  0  0
  -16.5359  -29.9077   23.6334 C   0  0  0  0  0  0
  -16.7286  -28.6498   23.0354 C   0  0  0  0  0  0
  -26.4498  -31.6599   25.0768 C   0  0  0  0  0  0
  -25.3721  -31.3750   26.1489 C   0  0  0  0  0  0
  -27.0337  -30.3014   24.6245 C   0  0  0  0  0  0
  -27.6070  -32.4327   25.7519 C   0  0  0  0  0  0
  -27.5584  -37.1801   24.8465 C   0  0  0  0  0  0
  -21.4206  -29.3061   22.3663 N   0  0  0  0  0  0
  -26.4291  -37.3786   23.9414 N   0  0  0  0  0  0
  -24.6934  -31.0630   22.1041 N   0  0  0  0  0  0
  -23.4225  -28.8160   23.2979 O   0  0  0  0  0  0
  -28.2580  -26.3546   20.2026 O   0  0  0  0  0  0
  -26.5603  -34.8919   22.4677 O   0  0  0  0  0  0
  -23.5445  -32.1421   23.7391 O   0  0  0  0  0  0
  -30.4529  -22.2527   20.4184 C   0  0  0  0  0  0
  -27.7861  -22.3875   20.6567 C   0  0  0  0  0  0
  -28.5363  -23.5988   20.4248 C   0  0  0  0  0  0
  -29.7032  -21.0524   20.6389 C   0  0  0  0  0  0
  -25.5869  -21.1000   20.2379 C   0  0  0  0  0  0
  -26.2607  -22.3604   20.8095 C   0  0  0  0  0  0
  -27.7741  -24.9456   20.1038 C   0  0  0  0  0  0
  -29.6045  -18.4351   20.7836 C   0  0  0  0  0  0
  -30.5697  -17.1695   20.7164 C   0  0  0  0  0  0
  -29.8914  -23.5041   20.3113 N   0  0  0  0  0  0
  -28.3680  -21.1555   20.7934 N   0  0  0  0  0  0
  -30.3054  -19.7545   20.6904 N   0  0  0  0  0  0
  -29.9928  -15.7780   20.7826 N   0  0  0  0  0  0
  -31.4647  -12.4876   19.1472 H   0  0  0  0  0  0
  -30.3376  -11.4080   19.9175 H   0  0  0  0  0  0
  -29.7577  -11.7342   17.4882 H   0  0  0  0  0  0
  -29.6371  -13.4595   17.7312 H   0  0  0  0  0  0
  -27.8694  -11.2857   18.8978 H   0  0  0  0  0  0
  -27.3623  -12.5441   17.8025 H   0  0  0  0  0  0
  -27.6554  -14.2539   19.4946 H   0  0  0  0  0  0
  -28.7099  -12.1247   21.4173 H   0  0  0  0  0  0
  -28.4539  -13.8054   21.8080 H   0  0  0  0  0  0
  -25.2769   -9.5670   22.4762 H   0  0  0  0  0  0
  -24.0001   -7.4624   22.7467 H   0  0  0  0  0  0
  -21.0846   -8.8776   19.8950 H   0  0  0  0  0  0
  -22.3707  -10.9675   19.6165 H   0  0  0  0  0  0
  -21.2003   -7.6144   23.9711 H   0  0  0  0  0  0
  -21.1484   -6.0524   25.9079 H   0  0  0  0  0  0
  -22.0598   -2.7605   23.2849 H   0  0  0  0  0  0
  -22.4109  -11.9857   22.4798 H   0  0  0  0  0  0
  -21.1105  -13.1218   22.2651 H   0  0  0  0  0  0
  -24.6572  -15.8478   20.5197 H   0  0  0  0  0  0
  -26.2710  -15.6279   20.0705 H   0  0  0  0  0  0
  -26.7205  -32.5457   23.1144 H   0  0  0  0  0  0
  -25.0143  -33.9754   25.0494 H   0  0  0  0  0  0
  -22.7175  -31.3171   21.4165 H   0  0  0  0  0  0
  -23.3763  -35.9611   23.3299 H   0  0  0  0  0  0
  -24.3586  -36.8897   22.2053 H   0  0  0  0  0  0
  -23.7224  -37.6489   23.6645 H   0  0  0  0  0  0
  -26.1140  -31.5529   20.6255 H   0  0  0  0  0  0
  -26.8482  -30.8257   22.0228 H   0  0  0  0  0  0
  -28.1063  -28.9311   21.2325 H   0  0  0  0  0  0
  -25.8879  -26.0218   18.8876 H   0  0  0  0  0  0
  -23.9579  -27.3898   18.9530 H   0  0  0  0  0  0
  -23.7570  -30.6308   19.4155 H   0  0  0  0  0  0
  -22.7554  -29.2813   19.8543 H   0  0  0  0  0  0
  -25.1282  -36.1960   25.0826 H   0  0  0  0  0  0
  -21.0002  -28.3274   24.1378 H   0  0  0  0  0  0
  -20.5689  -26.2307   23.3606 H   0  0  0  0  0  0
  -21.6652  -26.7437   22.1190 H   0  0  0  0  0  0
  -19.6918  -25.6293   21.1240 H   0  0  0  0  0  0
  -19.6690  -27.3195   20.6748 H   0  0  0  0  0  0
  -17.4204  -26.6691   21.4019 H   0  0  0  0  0  0
  -18.0329  -26.0063   22.9009 H   0  0  0  0  0  0
  -19.7948  -30.7286   24.2244 H   0  0  0  0  0  0
  -17.5022  -31.6262   24.5170 H   0  0  0  0  0  0
  -15.5360  -30.2980   23.7662 H   0  0  0  0  0  0
  -15.8682  -28.0821   22.7062 H   0  0  0  0  0  0
  -24.5943  -30.7025   25.7841 H   0  0  0  0  0  0
  -24.8851  -32.2914   26.4841 H   0  0  0  0  0  0
  -25.8049  -30.9013   27.0314 H   0  0  0  0  0  0
  -26.2926  -29.6773   24.1236 H   0  0  0  0  0  0
  -27.3979  -29.7258   25.4769 H   0  0  0  0  0  0
  -27.8822  -30.4277   23.9516 H   0  0  0  0  0  0
  -27.2707  -33.3652   26.2064 H   0  0  0  0  0  0
  -28.3891  -32.6843   25.0342 H   0  0  0  0  0  0
  -28.0725  -31.8469   26.5456 H   0  0  0  0  0  0
  -28.2600  -38.0104   24.7525 H   0  0  0  0  0  0
  -28.1078  -36.2635   24.6267 H   0  0  0  0  0  0
  -27.2304  -37.1424   25.8870 H   0  0  0  0  0  0
  -20.9377  -29.8816   21.6901 H   0  0  0  0  0  0
  -26.0178  -38.2860   24.1426 H   0  0  0  0  0  0
  -31.5265  -22.2084   20.3068 H   0  0  0  0  0  0
  -24.5037  -21.1625   20.3455 H   0  0  0  0  0  0
  -25.9074  -20.1971   20.7601 H   0  0  0  0  0  0
  -25.8128  -20.9747   19.1789 H   0  0  0  0  0  0
  -25.8003  -23.1977   20.2895 H   0  0  0  0  0  0
  -26.0138  -22.4744   21.8656 H   0  0  0  0  0  0
  -26.8965  -24.9183   20.7482 H   0  0  0  0  0  0
  -27.4705  -24.7735   19.0718 H   0  0  0  0  0  0
  -29.0385  -18.4134   21.7164 H   0  0  0  0  0  0
  -28.8707  -18.3774   19.9778 H   0  0  0  0  0  0
  -31.3009  -17.2482   21.5230 H   0  0  0  0  0  0
  -31.1451  -17.2410   19.7910 H   0  0  0  0  0  0
  -31.3109  -19.7282   20.5454 H   0  0  0  0  0  0
  -29.0148  -15.6837   21.0137 H   0  0  0  0  0  0
  1 25  1  0  0  0
  1 30  2  0  0  0
  1 83  1  0  0  0
  2  3  1  0  0  0
  2 25  1  0  0  0
  2 84  1  0  0  0
  2 85  1  0  0  0
  3  4  1  0  0  0
  3 86  1  0  0  0
  3 87  1  0  0  0
  4  5  1  0  0  0
  4 88  1  0  0  0
  4 89  1  0  0  0
  5  6  1  0  0  0
  5 26  1  0  0  0
  5 90  1  0  0  0
  6 25  1  0  0  0
  6 91  1  0  0  0
  6 92  1  0  0  0
  7  8  2  0  0  0
  7 26  1  0  0  0
  7 29  1  0  0  0
  8  9  1  0  0  0
  8 22  1  0  0  0
  9 10  1  0  0  0
  9 27  2  0  0  0
 10 11  2  0  0  0
 10 15  1  0  0  0
 11 12  1  0  0  0
 11 93  1  0  0  0
 12 13  2  0  0  0
 12 94  1  0  0  0
 13 14  1  0  0  0
 13 31  1  0  0  0
 14 15  2  0  0  0
 14 95  1  0  0  0
 15 96  1  0  0  0
 16 17  2  0  0  0
 16 21  1  0  0  0
 16 31  1  0  0  0
 17 18  1  0  0  0
 17 97  1  0  0  0
 18 19  2  0  0  0
 18 98  1  0  0  0
 19 20  1  0  0  0
 19 24  1  0  0  0
 20 21  2  0  0  0
 20 99  1  0  0  0
 21 23  1  0  0  0
 22 28  1  0  0  0
 22 32  2  0  0  0
 26 27  1  0  0  0
 28100  1  0  0  0
 28101  1  0  0  0
 29102  1  0  0  0
 29103  1  0  0  0
 33 34  1  0  0  0
 33 66  1  0  0  0
 33 70  2  0  0  0
 34 36  1  0  0  0
 34 59  1  0  0  0
 34104  1  0  0  0
 35 44  2  0  0  0
 35 45  1  0  0  0
 35 68  1  0  0  0
 36 56  1  0  0  0
 36105  1  0  0  0
 37 39  1  0  0  0
 37 47  1  0  0  0
 37 66  1  0  0  0
 37106  1  0  0  0
 38 43  2  0  0  0
 38 46  1  0  0  0
 38 47  1  0  0  0
 39 64  1  0  0  0
 39 67  2  0  0  0
 40 52  1  0  0  0
 40 53  2  0  0  0
 40 58  1  0  0  0
 41107  1  0  0  0
 41108  1  0  0  0
 41109  1  0  0  0
 41 48  1  0  0  0
 42 43  1  0  0  0
 42 66  1  0  0  0
 42110  1  0  0  0
 42111  1  0  0  0
 43 44  1  0  0  0
 44112  1  0  0  0
 45 46  2  0  0  0
 45113  1  0  0  0
 46114  1  0  0  0
 47115  1  0  0  0
 47116  1  0  0  0
 48 56  1  0  0  0
 48 65  1  0  0  0
 48117  1  0  0  0
 49 50  1  0  0  0
 49 53  1  0  0  0
 49 64  1  0  0  0
 49118  1  0  0  0
 50 51  1  0  0  0
 50119  1  0  0  0
 50120  1  0  0  0
 51 52  1  0  0  0
 51121  1  0  0  0
 51122  1  0  0  0
 52123  1  0  0  0
 52124  1  0  0  0
 53 54  1  0  0  0
 54 55  2  0  0  0
 54125  1  0  0  0
 55 57  1  0  0  0
 55126  1  0  0  0
 56 69  2  0  0  0
 57 58  2  0  0  0
 57127  1  0  0  0
 58128  1  0  0  0
 59 60  1  0  0  0
 59 61  1  0  0  0
 59 62  1  0  0  0
 60129  1  0  0  0
 60130  1  0  0  0
 60131  1  0  0  0
 61132  1  0  0  0
 61133  1  0  0  0
 61134  1  0  0  0
 62135  1  0  0  0
 62136  1  0  0  0
 62137  1  0  0  0
 63 65  1  0  0  0
 63138  1  0  0  0
 63139  1  0  0  0
 63140  1  0  0  0
 64141  1  0  0  0
 65142  1  0  0  0
 68 77  1  0  0  0
 71 74  2  0  0  0
 71 80  1  0  0  0
 71143  1  0  0  0
 72 73  1  0  0  0
 72 76  1  0  0  0
 72 81  2  0  0  0
 73 77  1  0  0  0
 73 80  2  0  0  0
 74 81  1  0  0  0
 74 82  1  0  0  0
 75 76  1  0  0  0
 75144  1  0  0  0
 75145  1  0  0  0
 75146  1  0  0  0
 76147  1  0  0  0
 76148  1  0  0  0
 77149  1  0  0  0
 77150  1  0  0  0
 78 79  1  0  0  0
 78 82  1  0  0  0
 78151  1  0  0  0
 78152  1  0  0  0
 79 83  1  0  0  0
 79153  1  0  0  0
 79154  1  0  0  0
 82155  1  0  0  0
 83156  1  0  0  0
M  ISO  4   1 100  68 101  77 101  83 100
M  END
> <chiral flag>
0

> <version>
0

> <s_m_source_file>
/data/baiqing/PycharmProjects/Reinvent-master-3.2/result/LINK_invent/BTK/process_docking_weight1_custom_sum_contain_oxygen_bond_distance_aromatic_linkinvent_7_9_3/rearranged_h_0190.sdf

> <i_m_source_file_index>
41

> <r_mmod_Potential_Energy-OPLS-2005>
92.457145690918

> <r_mmod_Stretch_Energy-OPLS-2005>
88.5713577270508

> <r_mmod_Bend_Energy-OPLS-2005>
174.108306884766

> <r_mmod_Torsional_Energy-OPLS-2005>
194.379486083984

> <r_mmod_Improper_Torsional_Energy-OPLS-2005>
5.41736793518066

> <r_mmod_Van_der_Waal_Energy-OPLS-2005>
169.640228271484

> <r_mmod_Electrostatic_Energy-OPLS-2005>
-360.563385009766

> <r_mmod_Solvation_Energy-OPLS-2005>
-242.593231201172

> <b_mmod_Minimization_Converged-OPLS-2005>
0

> <r_mmod_RMS_Derivative-OPLS-2005>
1.58056092262268

$$$$
41
                    3D
 Structure written by MMmdl.
153161  0  0  1  0            999 V2000
  -30.5198  -15.0284   20.4410 C   0  0  0  0  0  0
  -30.4351  -12.6670   19.5183 C   0  0  0  0  0  0
  -29.5223  -12.5704   18.2751 C   0  0  0  0  0  0
  -28.0549  -12.3267   18.6766 C   0  0  0  0  0  0
  -27.6140  -13.2407   19.8416 C   0  0  2  0  0  0
  -28.6526  -13.3095   20.9876 C   0  0  0  0  0  0
  -25.2259  -13.8160   20.5677 C   0  0  0  0  0  0
  -24.1631  -13.0375   20.9286 C   0  0  0  0  0  0
  -24.6320  -11.6922   20.8865 C   0  0  0  0  0  0
  -23.9038  -10.4295   21.0440 C   0  0  0  0  0  0
  -24.3661   -9.4212   21.9189 C   0  0  0  0  0  0
  -23.6365   -8.2232   22.0717 C   0  0  0  0  0  0
  -22.4332   -8.0261   21.3497 C   0  0  0  0  0  0
  -21.9964   -9.0228   20.4606 C   0  0  0  0  0  0
  -22.7265  -10.2122   20.3042 C   0  0  0  0  0  0
  -21.6858   -6.0773   22.5307 C   0  0  0  0  0  0
  -21.4053   -6.5660   23.8264 C   0  0  0  0  0  0
  -21.3689   -5.6779   24.9214 C   0  0  0  0  0  0
  -21.6044   -4.3045   24.7225 C   0  0  0  0  0  0
  -21.8795   -3.8160   23.4328 C   0  0  0  0  0  0
  -21.9191   -4.6999   22.3407 C   0  0  0  0  0  0
  -22.7645  -13.5147   21.1916 C   0  0  0  0  0  0
  -22.1626   -4.2189   21.0982 F   0  0  0  0  0  0
  -21.5618   -3.4526   25.7720 F   0  0  0  0  0  0
  -29.9082  -13.7683   20.3812 N   0  0  0  0  0  0
  -26.2735  -12.9428   20.3285 N   0  0  0  0  0  0
  -25.9256  -11.6573   20.5879 N   0  0  0  0  0  0
  -22.0329  -12.8220   22.0565 N   0  0  0  0  0  0
  -25.3590  -15.1870   20.4038 N   0  0  0  0  0  0
  -31.7353  -15.0287   20.2059 O   0  0  0  0  0  0
  -21.6620   -6.8909   21.4270 O   0  0  0  0  0  0
  -22.3369  -14.5417   20.6681 O   0  0  0  0  0  0
  -24.6417  -31.8430   23.1874 C   0  0  0  0  0  0
  -25.9200  -32.4677   23.8275 C   0  0  1  0  0  0
  -27.2344  -27.1492   20.1478 C   0  0  0  0  0  0
  -25.5967  -33.8482   24.2182 N   0  0  0  0  0  0
  -23.4465  -30.4601   21.5324 C   0  0  2  0  0  0
  -24.8958  -28.8784   20.1226 C   0  0  0  0  0  0
  -22.7555  -29.4533   22.4839 C   0  0  0  0  0  0
  -18.0316  -28.1380   22.8450 C   0  0  0  0  0  0
  -24.1457  -36.7212   23.2638 C   0  0  0  0  0  0
  -26.0035  -30.7192   21.3866 C   0  0  0  0  0  0
  -26.0770  -29.3302   20.7261 C   0  0  0  0  0  0
  -27.2494  -28.4867   20.7145 C   0  0  0  0  0  0
  -26.0242  -26.7893   19.5201 C   0  0  0  0  0  0
  -24.8792  -27.6137   19.5106 C   0  0  0  0  0  0
  -23.6756  -29.7817   20.1550 C   0  0  0  0  0  0
  -25.4085  -36.3017   24.0317 C   0  0  1  0  0  0
  -20.5928  -28.3717   23.1231 C   0  0  2  0  0  0
  -20.6796  -26.9425   22.5409 C   0  0  0  0  0  0
  -19.5778  -26.6354   21.5215 C   0  0  0  0  0  0
  -18.1946  -26.7908   22.1608 C   0  0  0  0  0  0
  -19.1570  -28.8864   23.2820 C   0  0  0  0  0  0
  -18.9480  -30.1447   23.8859 C   0  0  0  0  0  0
  -17.6487  -30.6593   24.0542 C   0  0  0  0  0  0
  -25.9056  -34.9414   23.5046 C   0  0  0  0  0  0
  -16.5371  -29.9085   23.6355 C   0  0  0  0  0  0
  -16.7306  -28.6505   23.0370 C   0  0  0  0  0  0
  -26.4551  -31.6559   25.0725 C   0  0  0  0  0  0
  -25.3758  -31.3821   26.1451 C   0  0  0  0  0  0
  -27.0432  -30.2950   24.6337 C   0  0  0  0  0  0
  -27.6029  -32.4387   25.7515 C   0  0  0  0  0  0
  -27.5543  -37.1760   24.8474 C   0  0  0  0  0  0
  -21.4256  -29.3056   22.3613 N   0  0  0  0  0  0
  -26.4254  -37.3732   23.9423 N   0  0  0  0  0  0
  -24.7166  -31.0272   22.0899 N   0  0  0  0  0  0
  -23.4184  -28.8077   23.2991 O   0  0  0  0  0  0
  -28.3054  -26.1872   20.1397 O   0  0  0  0  0  0
  -26.5623  -34.8944   22.4634 O   0  0  0  0  0  0
  -23.5559  -32.1305   23.7106 O   0  0  0  0  0  0
  -28.0385  -18.1113   20.4317 C   0  0  0  0  0  0
  -28.4163  -16.6216   20.8173 C   0  0  0  0  0  0
  -30.3357  -17.7361   20.1936 C   0  0  0  0  0  0
  -29.3057  -18.9793   20.5462 C   0  0  1  0  0  0
  -29.3359  -20.5187   19.8143 C   0  0  0  0  0  0
  -28.8033  -23.3099   19.8043 C   0  0  0  0  0  0
  -28.1025  -24.6811   20.5096 C   0  0  0  0  0  0
  -29.8202  -16.3004   20.4804 N   0  0  0  0  0  0
  -28.7111  -21.8434   20.4435 N   0  3  0  0  0  0
  -31.4557  -12.8556   19.1822 H   0  0  0  0  0  0
  -30.4796  -11.7229   20.0656 H   0  0  0  0  0  0
  -29.8798  -11.7724   17.6199 H   0  0  0  0  0  0
  -29.5941  -13.4980   17.7028 H   0  0  0  0  0  0
  -27.9486  -11.2826   18.9657 H   0  0  0  0  0  0
  -27.3943  -12.4873   17.8186 H   0  0  0  0  0  0
  -27.5549  -14.2077   19.3542 H   0  0  0  0  0  0
  -28.7747  -12.3334   21.4673 H   0  0  0  0  0  0
  -28.3271  -13.9912   21.7758 H   0  0  0  0  0  0
  -25.2814   -9.5697   22.4786 H   0  0  0  0  0  0
  -24.0071   -7.4616   22.7433 H   0  0  0  0  0  0
  -21.0876   -8.8751   19.8937 H   0  0  0  0  0  0
  -22.3718  -10.9655   19.6133 H   0  0  0  0  0  0
  -21.2078   -7.6168   23.9818 H   0  0  0  0  0  0
  -21.1517   -6.0484   25.9120 H   0  0  0  0  0  0
  -22.0558   -2.7629   23.2806 H   0  0  0  0  0  0
  -22.3982  -11.9970   22.5075 H   0  0  0  0  0  0
  -21.0916  -13.1212   22.2704 H   0  0  0  0  0  0
  -24.5815  -15.8253   20.5335 H   0  0  0  0  0  0
  -26.1858  -15.6466   20.0518 H   0  0  0  0  0  0
  -26.7236  -32.5256   23.0982 H   0  0  0  0  0  0
  -25.0214  -33.9575   25.0396 H   0  0  0  0  0  0
  -22.7499  -31.2839   21.3710 H   0  0  0  0  0  0
  -23.3754  -35.9513   23.3317 H   0  0  0  0  0  0
  -24.3561  -36.8824   22.2057 H   0  0  0  0  0  0
  -23.7184  -37.6391   23.6684 H   0  0  0  0  0  0
  -26.1696  -31.4787   20.6214 H   0  0  0  0  0  0
  -26.8660  -30.7538   22.0419 H   0  0  0  0  0  0
  -28.1517  -28.8395   21.1935 H   0  0  0  0  0  0
  -25.9549  -25.8248   19.0333 H   0  0  0  0  0  0
  -23.9769  -27.2509   19.0327 H   0  0  0  0  0  0
  -23.8257  -30.5533   19.4001 H   0  0  0  0  0  0
  -22.7909  -29.2286   19.8328 H   0  0  0  0  0  0
  -25.1288  -36.1811   25.0807 H   0  0  0  0  0  0
  -20.9974  -28.3296   24.1364 H   0  0  0  0  0  0
  -20.5664  -26.2332   23.3606 H   0  0  0  0  0  0
  -21.6652  -26.7419   22.1203 H   0  0  0  0  0  0
  -19.6932  -25.6250   21.1265 H   0  0  0  0  0  0
  -19.6699  -27.3141   20.6728 H   0  0  0  0  0  0
  -17.4191  -26.6621   21.4027 H   0  0  0  0  0  0
  -18.0377  -26.0057   22.9038 H   0  0  0  0  0  0
  -19.7971  -30.7268   24.2152 H   0  0  0  0  0  0
  -17.5082  -31.6270   24.5158 H   0  0  0  0  0  0
  -15.5378  -30.3004   23.7705 H   0  0  0  0  0  0
  -15.8689  -28.0844   22.7099 H   0  0  0  0  0  0
  -24.5801  -30.7308   25.7841 H   0  0  0  0  0  0
  -24.9128  -32.3057   26.4943 H   0  0  0  0  0  0
  -25.8046  -30.8932   27.0202 H   0  0  0  0  0  0
  -26.3094  -29.6640   24.1304 H   0  0  0  0  0  0
  -27.4011  -29.7291   25.4952 H   0  0  0  0  0  0
  -27.9034  -30.4218   23.9746 H   0  0  0  0  0  0
  -27.2524  -33.3665   26.2077 H   0  0  0  0  0  0
  -28.3845  -32.6979   25.0359 H   0  0  0  0  0  0
  -28.0702  -31.8539   26.5442 H   0  0  0  0  0  0
  -28.2561  -38.0062   24.7524 H   0  0  0  0  0  0
  -28.1027  -36.2583   24.6287 H   0  0  0  0  0  0
  -27.2279  -37.1401   25.8889 H   0  0  0  0  0  0
  -20.9439  -29.8799   21.6833 H   0  0  0  0  0  0
  -26.0101  -38.2782   24.1495 H   0  0  0  0  0  0
  -27.2193  -18.4972   21.0480 H   0  0  0  0  0  0
  -27.6806  -18.1363   19.3973 H   0  0  0  0  0  0
  -27.7477  -15.9693   20.2891 H   0  0  0  0  0  0
  -28.2669  -16.4596   21.8863 H   0  0  0  0  0  0
  -31.2696  -17.8918   20.7321 H   0  0  0  0  0  0
  -30.5854  -17.7603   19.1305 H   0  0  0  0  0  0
  -29.4318  -19.1795   21.6128 H   0  0  0  0  0  0
  -28.9347  -20.4206   18.8012 H   0  0  0  0  0  0
  -30.3929  -20.7302   19.6537 H   0  0  0  0  0  0
  -29.8643  -23.5204   19.6666 H   0  0  0  0  0  0
  -28.4058  -23.2580   18.7889 H   0  0  0  0  0  0
  -28.4120  -24.6511   21.5562 H   0  0  0  0  0  0
  -27.0266  -24.4983   20.5595 H   0  0  0  0  0  0
  -29.1088  -21.9156   21.3661 H   0  0  0  0  0  0
  -27.7317  -21.6536   20.5787 H   0  0  0  0  0  0
  1 25  1  0  0  0
  1 30  2  0  0  0
  1 78  1  0  0  0
  2  3  1  0  0  0
  2 25  1  0  0  0
  2 80  1  0  0  0
  2 81  1  0  0  0
  3  4  1  0  0  0
  3 82  1  0  0  0
  3 83  1  0  0  0
  4  5  1  0  0  0
  4 84  1  0  0  0
  4 85  1  0  0  0
  5  6  1  0  0  0
  5 26  1  0  0  0
  5 86  1  0  0  0
  6 25  1  0  0  0
  6 87  1  0  0  0
  6 88  1  0  0  0
  7  8  2  0  0  0
  7 26  1  0  0  0
  7 29  1  0  0  0
  8  9  1  0  0  0
  8 22  1  0  0  0
  9 10  1  0  0  0
  9 27  2  0  0  0
 10 11  2  0  0  0
 10 15  1  0  0  0
 11 12  1  0  0  0
 11 89  1  0  0  0
 12 13  2  0  0  0
 12 90  1  0  0  0
 13 14  1  0  0  0
 13 31  1  0  0  0
 14 15  2  0  0  0
 14 91  1  0  0  0
 15 92  1  0  0  0
 16 17  2  0  0  0
 16 21  1  0  0  0
 16 31  1  0  0  0
 17 18  1  0  0  0
 17 93  1  0  0  0
 18 19  2  0  0  0
 18 94  1  0  0  0
 19 20  1  0  0  0
 19 24  1  0  0  0
 20 21  2  0  0  0
 20 95  1  0  0  0
 21 23  1  0  0  0
 22 28  1  0  0  0
 22 32  2  0  0  0
 26 27  1  0  0  0
 28 96  1  0  0  0
 28 97  1  0  0  0
 29 98  1  0  0  0
 29 99  1  0  0  0
 33 34  1  0  0  0
 33 66  1  0  0  0
 33 70  2  0  0  0
 34 36  1  0  0  0
 34 59  1  0  0  0
 34100  1  0  0  0
 35 44  2  0  0  0
 35 45  1  0  0  0
 35 68  1  0  0  0
 36 56  1  0  0  0
 36101  1  0  0  0
 37 39  1  0  0  0
 37 47  1  0  0  0
 37 66  1  0  0  0
 37102  1  0  0  0
 38 43  2  0  0  0
 38 46  1  0  0  0
 38 47  1  0  0  0
 39 64  1  0  0  0
 39 67  2  0  0  0
 40 52  1  0  0  0
 40 53  2  0  0  0
 40 58  1  0  0  0
 41103  1  0  0  0
 41104  1  0  0  0
 41105  1  0  0  0
 41 48  1  0  0  0
 42 43  1  0  0  0
 42 66  1  0  0  0
 42106  1  0  0  0
 42107  1  0  0  0
 43 44  1  0  0  0
 44108  1  0  0  0
 45 46  2  0  0  0
 45109  1  0  0  0
 46110  1  0  0  0
 47111  1  0  0  0
 47112  1  0  0  0
 48 56  1  0  0  0
 48 65  1  0  0  0
 48113  1  0  0  0
 49 50  1  0  0  0
 49 53  1  0  0  0
 49 64  1  0  0  0
 49114  1  0  0  0
 50 51  1  0  0  0
 50115  1  0  0  0
 50116  1  0  0  0
 51 52  1  0  0  0
 51117  1  0  0  0
 51118  1  0  0  0
 52119  1  0  0  0
 52120  1  0  0  0
 53 54  1  0  0  0
 54 55  2  0  0  0
 54121  1  0  0  0
 55 57  1  0  0  0
 55122  1  0  0  0
 56 69  2  0  0  0
 57 58  2  0  0  0
 57123  1  0  0  0
 58124  1  0  0  0
 59 60  1  0  0  0
 59 61  1  0  0  0
 59 62  1  0  0  0
 60125  1  0  0  0
 60126  1  0  0  0
 60127  1  0  0  0
 61128  1  0  0  0
 61129  1  0  0  0
 61130  1  0  0  0
 62131  1  0  0  0
 62132  1  0  0  0
 62133  1  0  0  0
 63 65  1  0  0  0
 63134  1  0  0  0
 63135  1  0  0  0
 63136  1  0  0  0
 64137  1  0  0  0
 65138  1  0  0  0
 68 77  1  0  0  0
 71 72  1  0  0  0
 71 74  1  0  0  0
 71139  1  0  0  0
 71140  1  0  0  0
 72 78  1  0  0  0
 72141  1  0  0  0
 72142  1  0  0  0
 73 74  1  0  0  0
 73 78  1  0  0  0
 73143  1  0  0  0
 73144  1  0  0  0
 74 75  1  0  0  0
 74145  1  0  0  0
 75 79  1  0  0  0
 75146  1  0  0  0
 75147  1  0  0  0
 76 77  1  0  0  0
 76 79  1  0  0  0
 76148  1  0  0  0
 76149  1  0  0  0
 77150  1  0  0  0
 77151  1  0  0  0
 79152  1  0  0  0
 79153  1  0  0  0
M  CHG  1  79   1
M  ISO  4   1 100  68 101  77 101  78 100
M  END
> <chiral flag>
0

> <version>
0

> <s_m_source_file>
/data/baiqing/PycharmProjects/Reinvent-master-3.2/result/LINK_invent/BTK/process_docking_weight1_custom_sum_contain_oxygen_bond_distance_aromatic_linkinvent_7_9_3/rearranged_h_0190.sdf

> <i_m_source_file_index>
42

> <r_mmod_Potential_Energy-OPLS-2005>
631.558288574219

> <r_mmod_Stretch_Energy-OPLS-2005>
274.893585205078

> <r_mmod_Bend_Energy-OPLS-2005>
310.617279052734

> <r_mmod_Torsional_Energy-OPLS-2005>
324.781951904297

> <r_mmod_Improper_Torsional_Energy-OPLS-2005>
6.23082971572876

> <r_mmod_Van_der_Waal_Energy-OPLS-2005>
113.84587097168

> <r_mmod_Electrostatic_Energy-OPLS-2005>
-153.544952392578

> <r_mmod_Solvation_Energy-OPLS-2005>
-460.850799560547

> <b_mmod_Minimization_Converged-OPLS-2005>
0

> <r_mmod_RMS_Derivative-OPLS-2005>
8.09169578552246

$$$$
42
                    3D
 Structure written by MMmdl.
157166  0  0  1  0            999 V2000
  -30.6608  -14.6746   20.4803 C   0  0  0  0  0  0
  -30.4181  -12.4148   19.4662 C   0  0  0  0  0  0
  -29.4997  -12.5093   18.2274 C   0  0  0  0  0  0
  -28.0265  -12.3445   18.6463 C   0  0  0  0  0  0
  -27.6447  -13.2311   19.8617 C   0  0  2  0  0  0
  -28.6902  -13.1421   20.9936 C   0  0  0  0  0  0
  -25.2526  -13.8208   20.5709 C   0  0  0  0  0  0
  -24.1804  -13.0445   20.9224 C   0  0  0  0  0  0
  -24.6401  -11.6933   20.8783 C   0  0  0  0  0  0
  -23.9079  -10.4286   21.0441 C   0  0  0  0  0  0
  -24.3624   -9.4200   21.9227 C   0  0  0  0  0  0
  -23.6308   -8.2241   22.0786 C   0  0  0  0  0  0
  -22.4296   -8.0275   21.3561 C   0  0  0  0  0  0
  -21.9925   -9.0256   20.4677 C   0  0  0  0  0  0
  -22.7242  -10.2136   20.3084 C   0  0  0  0  0  0
  -21.6847   -6.0749   22.5295 C   0  0  0  0  0  0
  -21.3976   -6.5663   23.8215 C   0  0  0  0  0  0
  -21.3679   -5.6843   24.9200 C   0  0  0  0  0  0
  -21.6054   -4.3098   24.7262 C   0  0  0  0  0  0
  -21.8821   -3.8175   23.4388 C   0  0  0  0  0  0
  -21.9184   -4.6968   22.3429 C   0  0  0  0  0  0
  -22.7844  -13.5245   21.1887 C   0  0  0  0  0  0
  -22.1666   -4.2167   21.1000 F   0  0  0  0  0  0
  -21.5662   -3.4579   25.7770 F   0  0  0  0  0  0
  -29.9957  -13.4739   20.4108 N   0  0  0  0  0  0
  -26.2946  -12.9416   20.3344 N   0  0  0  0  0  0
  -25.9344  -11.6560   20.5819 N   0  0  0  0  0  0
  -22.0492  -12.8188   22.0418 N   0  0  0  0  0  0
  -25.4195  -15.1920   20.4067 N   0  0  0  0  0  0
  -31.8468  -14.7434   20.1485 O   0  0  0  0  0  0
  -21.6648   -6.8886   21.4257 O   0  0  0  0  0  0
  -22.3534  -14.5561   20.6757 O   0  0  0  0  0  0
  -24.6335  -31.8549   23.2013 C   0  0  0  0  0  0
  -25.9181  -32.4756   23.8334 C   0  0  1  0  0  0
  -27.2379  -27.2858   20.0992 C   0  0  0  0  0  0
  -25.5990  -33.8552   24.2258 N   0  0  0  0  0  0
  -23.4264  -30.4741   21.5458 C   0  0  2  0  0  0
  -24.8751  -28.9237   20.1129 C   0  0  0  0  0  0
  -22.7489  -29.4572   22.4946 C   0  0  0  0  0  0
  -18.0294  -28.1383   22.8536 C   0  0  0  0  0  0
  -24.1473  -36.7249   23.2618 C   0  0  0  0  0  0
  -25.9732  -30.7681   21.3820 C   0  0  0  0  0  0
  -26.0468  -29.3951   20.7199 C   0  0  0  0  0  0
  -27.2254  -28.5850   20.7074 C   0  0  0  0  0  0
  -26.0270  -26.8633   19.4991 C   0  0  0  0  0  0
  -24.8697  -27.6639   19.4994 C   0  0  0  0  0  0
  -23.6440  -29.8071   20.1615 C   0  0  0  0  0  0
  -25.4104  -36.3050   24.0315 C   0  0  1  0  0  0
  -20.5916  -28.3664   23.1318 C   0  0  2  0  0  0
  -20.6784  -26.9378   22.5437 C   0  0  0  0  0  0
  -19.5736  -26.6367   21.5252 C   0  0  0  0  0  0
  -18.1920  -26.7926   22.1649 C   0  0  0  0  0  0
  -19.1552  -28.8838   23.2917 C   0  0  0  0  0  0
  -18.9464  -30.1466   23.8886 C   0  0  0  0  0  0
  -17.6456  -30.6590   24.0566 C   0  0  0  0  0  0
  -25.9075  -34.9432   23.5088 C   0  0  0  0  0  0
  -16.5348  -29.9080   23.6354 C   0  0  0  0  0  0
  -16.7272  -28.6502   23.0373 C   0  0  0  0  0  0
  -26.4544  -31.6596   25.0714 C   0  0  0  0  0  0
  -25.3789  -31.3756   26.1446 C   0  0  0  0  0  0
  -27.0379  -30.3013   24.6217 C   0  0  0  0  0  0
  -27.6080  -32.4349   25.7495 C   0  0  0  0  0  0
  -27.5630  -37.1699   24.8405 C   0  0  0  0  0  0
  -21.4197  -29.3011   22.3704 N   0  0  0  0  0  0
  -26.4231  -37.3817   23.9521 N   0  0  0  0  0  0
  -24.6972  -31.0483   22.1010 N   0  0  0  0  0  0
  -23.4207  -28.8105   23.3029 O   0  0  0  0  0  0
  -28.3615  -26.4305   20.1685 O   0  0  0  0  0  0
  -26.5625  -34.8932   22.4641 O   0  0  0  0  0  0
  -23.5494  -32.1333   23.7351 O   0  0  0  0  0  0
  -30.1960  -23.2426   19.3184 C   0  0  0  0  0  0
  -28.1611  -22.8691   20.4134 C   0  0  0  0  0  0
  -28.9826  -23.8206   19.7555 C   0  0  0  0  0  0
  -29.6470  -21.1059   20.0769 C   0  0  0  0  0  0
  -29.3781  -18.4972   20.7181 C   0  0  0  0  0  0
  -31.2721  -19.2690   19.5246 C   0  0  0  0  0  0
  -30.4304  -17.2904   20.6950 C   0  0  2  0  0  0
  -31.2613  -17.7260   19.4694 C   0  0  2  0  0  0
  -28.5283  -25.2611   19.2621 C   0  0  0  0  0  0
  -30.5090  -21.9267   19.4816 N   0  0  0  0  0  0
  -28.4856  -21.5394   20.5659 N   0  0  0  0  0  0
  -30.0121  -19.7148   20.1168 N   0  0  0  0  0  0
  -29.9449  -15.8377   20.6955 N   0  0  0  0  0  0
  -32.6219  -17.1702   19.4361 N   0  3  0  0  0  0
  -31.4641  -12.5088   19.1728 H   0  0  0  0  0  0
  -30.3225  -11.4326   19.9330 H   0  0  0  0  0  0
  -29.7681  -11.7485   17.4954 H   0  0  0  0  0  0
  -29.6380  -13.4730   17.7351 H   0  0  0  0  0  0
  -27.8716  -11.2940   18.8896 H   0  0  0  0  0  0
  -27.3697  -12.5576   17.8027 H   0  0  0  0  0  0
  -27.6464  -14.2583   19.5010 H   0  0  0  0  0  0
  -28.7106  -12.1371   21.4228 H   0  0  0  0  0  0
  -28.4420  -13.8181   21.8129 H   0  0  0  0  0  0
  -25.2780   -9.5700   22.4810 H   0  0  0  0  0  0
  -24.0040   -7.4629   22.7492 H   0  0  0  0  0  0
  -21.0878   -8.8779   19.8970 H   0  0  0  0  0  0
  -22.3719  -10.9696   19.6212 H   0  0  0  0  0  0
  -21.1919   -7.6169   23.9704 H   0  0  0  0  0  0
  -21.1529   -6.0595   25.9103 H   0  0  0  0  0  0
  -22.0578   -2.7632   23.2899 H   0  0  0  0  0  0
  -22.4162  -11.9847   22.4762 H   0  0  0  0  0  0
  -21.1122  -13.1187   22.2653 H   0  0  0  0  0  0
  -24.6441  -15.8393   20.4981 H   0  0  0  0  0  0
  -26.2554  -15.6255   20.0372 H   0  0  0  0  0  0
  -26.7212  -32.5386   23.1041 H   0  0  0  0  0  0
  -25.0207  -33.9706   25.0452 H   0  0  0  0  0  0
  -22.7239  -31.2985   21.4033 H   0  0  0  0  0  0
  -23.3850  -35.9453   23.3034 H   0  0  0  0  0  0
  -24.3590  -36.9147   22.2093 H   0  0  0  0  0  0
  -23.7051  -37.6293   23.6800 H   0  0  0  0  0  0
  -26.1194  -31.5284   20.6155 H   0  0  0  0  0  0
  -26.8491  -30.8092   22.0163 H   0  0  0  0  0  0
  -28.1205  -28.9384   21.2037 H   0  0  0  0  0  0
  -25.9090  -25.8848   19.0648 H   0  0  0  0  0  0
  -23.9678  -27.2839   19.0388 H   0  0  0  0  0  0
  -23.7751  -30.5849   19.4094 H   0  0  0  0  0  0
  -22.7616  -29.2431   19.8509 H   0  0  0  0  0  0
  -25.1256  -36.1840   25.0796 H   0  0  0  0  0  0
  -21.0018  -28.3225   24.1433 H   0  0  0  0  0  0
  -20.5760  -26.2233   23.3629 H   0  0  0  0  0  0
  -21.6641  -26.7433   22.1184 H   0  0  0  0  0  0
  -19.6896  -25.6291   21.1254 H   0  0  0  0  0  0
  -19.6691  -27.3204   20.6823 H   0  0  0  0  0  0
  -17.4220  -26.6747   21.4020 H   0  0  0  0  0  0
  -18.0252  -26.0050   22.9012 H   0  0  0  0  0  0
  -19.7929  -30.7316   24.2219 H   0  0  0  0  0  0
  -17.5000  -31.6265   24.5169 H   0  0  0  0  0  0
  -15.5360  -30.2975   23.7669 H   0  0  0  0  0  0
  -15.8674  -28.0815   22.7080 H   0  0  0  0  0  0
  -24.5953  -30.7113   25.7792 H   0  0  0  0  0  0
  -24.8999  -32.2935   26.4869 H   0  0  0  0  0  0
  -25.8140  -30.8940   27.0215 H   0  0  0  0  0  0
  -26.2948  -29.6759   24.1267 H   0  0  0  0  0  0
  -27.4071  -29.7292   25.4740 H   0  0  0  0  0  0
  -27.8828  -30.4263   23.9440 H   0  0  0  0  0  0
  -27.2678  -33.3669   26.2026 H   0  0  0  0  0  0
  -28.3935  -32.6902   25.0362 H   0  0  0  0  0  0
  -28.0699  -31.8506   26.5470 H   0  0  0  0  0  0
  -28.2384  -38.0256   24.7921 H   0  0  0  0  0  0
  -28.1393  -36.2853   24.5640 H   0  0  0  0  0  0
  -27.2417  -37.0632   25.8782 H   0  0  0  0  0  0
  -20.9383  -29.8717   21.6895 H   0  0  0  0  0  0
  -26.0074  -38.2799   24.1856 H   0  0  0  0  0  0
  -30.9164  -23.8183   18.7530 H   0  0  0  0  0  0
  -27.1812  -23.1575   20.7598 H   0  0  0  0  0  0
  -29.0394  -18.7041   21.7366 H   0  0  0  0  0  0
  -28.4940  -18.2482   20.1256 H   0  0  0  0  0  0
  -31.4317  -19.6862   18.5278 H   0  0  0  0  0  0
  -32.0851  -19.6297   20.1525 H   0  0  0  0  0  0
  -31.0558  -17.4042   21.5817 H   0  0  0  0  0  0
  -30.7396  -17.4085   18.5666 H   0  0  0  0  0  0
  -27.6867  -25.0897   18.6015 H   0  0  0  0  0  0
  -29.3043  -25.5911   18.5678 H   0  0  0  0  0  0
  -28.9768  -15.6994   20.9399 H   0  0  0  0  0  0
  -33.1741  -17.5156   20.1990 H   0  0  0  0  0  0
  -33.0859  -17.3801   18.5721 H   0  0  0  0  0  0
  -32.5401  -16.1600   19.5452 H   0  0  0  0  0  0
  1 25  1  0  0  0
  1 30  2  0  0  0
  1 83  1  0  0  0
  2  3  1  0  0  0
  2 25  1  0  0  0
  2 85  1  0  0  0
  2 86  1  0  0  0
  3  4  1  0  0  0
  3 87  1  0  0  0
  3 88  1  0  0  0
  4  5  1  0  0  0
  4 89  1  0  0  0
  4 90  1  0  0  0
  5  6  1  0  0  0
  5 26  1  0  0  0
  5 91  1  0  0  0
  6 25  1  0  0  0
  6 92  1  0  0  0
  6 93  1  0  0  0
  7  8  2  0  0  0
  7 26  1  0  0  0
  7 29  1  0  0  0
  8  9  1  0  0  0
  8 22  1  0  0  0
  9 10  1  0  0  0
  9 27  2  0  0  0
 10 11  2  0  0  0
 10 15  1  0  0  0
 11 12  1  0  0  0
 11 94  1  0  0  0
 12 13  2  0  0  0
 12 95  1  0  0  0
 13 14  1  0  0  0
 13 31  1  0  0  0
 14 15  2  0  0  0
 14 96  1  0  0  0
 15 97  1  0  0  0
 16 17  2  0  0  0
 16 21  1  0  0  0
 16 31  1  0  0  0
 17 18  1  0  0  0
 17 98  1  0  0  0
 18 19  2  0  0  0
 18 99  1  0  0  0
 19 20  1  0  0  0
 19 24  1  0  0  0
 20 21  2  0  0  0
 20100  1  0  0  0
 21 23  1  0  0  0
 22 28  1  0  0  0
 22 32  2  0  0  0
 26 27  1  0  0  0
 28101  1  0  0  0
 28102  1  0  0  0
 29103  1  0  0  0
 29104  1  0  0  0
 33 34  1  0  0  0
 33 66  1  0  0  0
 33 70  2  0  0  0
 34 36  1  0  0  0
 34 59  1  0  0  0
 34105  1  0  0  0
 35 44  2  0  0  0
 35 45  1  0  0  0
 35 68  1  0  0  0
 36 56  1  0  0  0
 36106  1  0  0  0
 37 39  1  0  0  0
 37 47  1  0  0  0
 37 66  1  0  0  0
 37107  1  0  0  0
 38 43  2  0  0  0
 38 46  1  0  0  0
 38 47  1  0  0  0
 39 64  1  0  0  0
 39 67  2  0  0  0
 40 52  1  0  0  0
 40 53  2  0  0  0
 40 58  1  0  0  0
 41108  1  0  0  0
 41109  1  0  0  0
 41110  1  0  0  0
 41 48  1  0  0  0
 42 43  1  0  0  0
 42 66  1  0  0  0
 42111  1  0  0  0
 42112  1  0  0  0
 43 44  1  0  0  0
 44113  1  0  0  0
 45 46  2  0  0  0
 45114  1  0  0  0
 46115  1  0  0  0
 47116  1  0  0  0
 47117  1  0  0  0
 48 56  1  0  0  0
 48 65  1  0  0  0
 48118  1  0  0  0
 49 50  1  0  0  0
 49 53  1  0  0  0
 49 64  1  0  0  0
 49119  1  0  0  0
 50 51  1  0  0  0
 50120  1  0  0  0
 50121  1  0  0  0
 51 52  1  0  0  0
 51122  1  0  0  0
 51123  1  0  0  0
 52124  1  0  0  0
 52125  1  0  0  0
 53 54  1  0  0  0
 54 55  2  0  0  0
 54126  1  0  0  0
 55 57  1  0  0  0
 55127  1  0  0  0
 56 69  2  0  0  0
 57 58  2  0  0  0
 57128  1  0  0  0
 58129  1  0  0  0
 59 60  1  0  0  0
 59 61  1  0  0  0
 59 62  1  0  0  0
 60130  1  0  0  0
 60131  1  0  0  0
 60132  1  0  0  0
 61133  1  0  0  0
 61134  1  0  0  0
 61135  1  0  0  0
 62136  1  0  0  0
 62137  1  0  0  0
 62138  1  0  0  0
 63 65  1  0  0  0
 63139  1  0  0  0
 63140  1  0  0  0
 63141  1  0  0  0
 64142  1  0  0  0
 65143  1  0  0  0
 68 79  1  0  0  0
 71 73  2  0  0  0
 71 80  1  0  0  0
 71144  1  0  0  0
 72 73  1  0  0  0
 72 81  2  0  0  0
 72145  1  0  0  0
 73 79  1  0  0  0
 74 80  2  0  0  0
 74 81  1  0  0  0
 74 82  1  0  0  0
 75 77  1  0  0  0
 75 82  1  0  0  0
 75146  1  0  0  0
 75147  1  0  0  0
 76 78  1  0  0  0
 76 82  1  0  0  0
 76148  1  0  0  0
 76149  1  0  0  0
 77 78  1  0  0  0
 77 83  1  0  0  0
 77150  1  0  0  0
 78 84  1  0  0  0
 78151  1  0  0  0
 79152  1  0  0  0
 79153  1  0  0  0
 83154  1  0  0  0
 84155  1  0  0  0
 84156  1  0  0  0
 84157  1  0  0  0
M  CHG  1  84   1
M  ISO  4   1 100  68 101  79 101  83 100
M  END
> <chiral flag>
0

> <version>
0

> <s_m_source_file>
/data/baiqing/PycharmProjects/Reinvent-master-3.2/result/LINK_invent/BTK/process_docking_weight1_custom_sum_contain_oxygen_bond_distance_aromatic_linkinvent_7_9_3/rearranged_h_0190.sdf

> <i_m_source_file_index>
43

> <r_mmod_Potential_Energy-OPLS-2005>
-738.154968261719

> <r_mmod_Stretch_Energy-OPLS-2005>
96.0016403198242

> <r_mmod_Bend_Energy-OPLS-2005>
208.577651977539

> <r_mmod_Torsional_Energy-OPLS-2005>
288.825164794922

> <r_mmod_Improper_Torsional_Energy-OPLS-2005>
7.51335573196411

> <r_mmod_Van_der_Waal_Energy-OPLS-2005>
166.701446533203

> <r_mmod_Electrostatic_Energy-OPLS-2005>
-1089.3623046875

> <r_mmod_Solvation_Energy-OPLS-2005>
-480.169708251953

> <b_mmod_Minimization_Converged-OPLS-2005>
0

> <r_mmod_RMS_Derivative-OPLS-2005>
5.16398143768311

$$$$
43
                    3D
 Structure written by MMmdl.
161169  0  0  1  0            999 V2000
  -30.6928  -14.5907   20.4946 C   0  0  0  0  0  0
  -30.4159  -12.3625   19.4527 C   0  0  0  0  0  0
  -29.4970  -12.4924   18.2213 C   0  0  0  0  0  0
  -28.0211  -12.3434   18.6369 C   0  0  0  0  0  0
  -27.6481  -13.2239   19.8605 C   0  0  2  0  0  0
  -28.6947  -13.1101   20.9907 C   0  0  0  0  0  0
  -25.2536  -13.8194   20.5717 C   0  0  0  0  0  0
  -24.1811  -13.0443   20.9196 C   0  0  0  0  0  0
  -24.6394  -11.6916   20.8753 C   0  0  0  0  0  0
  -23.9072  -10.4294   21.0415 C   0  0  0  0  0  0
  -24.3622   -9.4207   21.9191 C   0  0  0  0  0  0
  -23.6296   -8.2244   22.0759 C   0  0  0  0  0  0
  -22.4277   -8.0285   21.3550 C   0  0  0  0  0  0
  -21.9915   -9.0260   20.4652 C   0  0  0  0  0  0
  -22.7246  -10.2137   20.3061 C   0  0  0  0  0  0
  -21.6851   -6.0739   22.5283 C   0  0  0  0  0  0
  -21.4014   -6.5642   23.8217 C   0  0  0  0  0  0
  -21.3660   -5.6794   24.9179 C   0  0  0  0  0  0
  -21.6041   -4.3057   24.7226 C   0  0  0  0  0  0
  -21.8818   -3.8150   23.4347 C   0  0  0  0  0  0
  -21.9193   -4.6968   22.3405 C   0  0  0  0  0  0
  -22.7829  -13.5230   21.1855 C   0  0  0  0  0  0
  -22.1660   -4.2154   21.0985 F   0  0  0  0  0  0
  -21.5629   -3.4542   25.7739 F   0  0  0  0  0  0
  -30.0088  -13.4092   20.4099 N   0  0  0  0  0  0
  -26.2972  -12.9392   20.3348 N   0  0  0  0  0  0
  -25.9326  -11.6537   20.5786 N   0  0  0  0  0  0
  -22.0478  -12.8220   22.0413 N   0  0  0  0  0  0
  -25.4240  -15.1912   20.4150 N   0  0  0  0  0  0
  -31.8745  -14.6657   20.1435 O   0  0  0  0  0  0
  -21.6641   -6.8879   21.4242 O   0  0  0  0  0  0
  -22.3517  -14.5541   20.6712 O   0  0  0  0  0  0
  -24.6227  -31.8625   23.2055 C   0  0  0  0  0  0
  -25.9089  -32.4790   23.8373 C   0  0  1  0  0  0
  -27.2196  -27.3529   20.1184 C   0  0  0  0  0  0
  -25.5921  -33.8590   24.2301 N   0  0  0  0  0  0
  -23.4150  -30.4858   21.5469 C   0  0  2  0  0  0
  -24.8608  -28.9430   20.1125 C   0  0  0  0  0  0
  -22.7459  -29.4630   22.4951 C   0  0  0  0  0  0
  -18.0284  -28.1379   22.8486 C   0  0  0  0  0  0
  -24.1490  -36.7303   23.2639 C   0  0  0  0  0  0
  -25.9520  -30.8043   21.3703 C   0  0  0  0  0  0
  -26.0270  -29.4331   20.7148 C   0  0  0  0  0  0
  -27.2137  -28.6489   20.7083 C   0  0  0  0  0  0
  -26.0390  -26.9056   19.4894 C   0  0  0  0  0  0
  -24.8661  -27.6836   19.4923 C   0  0  0  0  0  0
  -23.6278  -29.8203   20.1616 C   0  0  0  0  0  0
  -25.4112  -36.3091   24.0331 C   0  0  1  0  0  0
  -20.5881  -28.3676   23.1299 C   0  0  2  0  0  0
  -20.6775  -26.9402   22.5416 C   0  0  0  0  0  0
  -19.5753  -26.6382   21.5217 C   0  0  0  0  0  0
  -18.1928  -26.7923   22.1625 C   0  0  0  0  0  0
  -19.1537  -28.8845   23.2891 C   0  0  0  0  0  0
  -18.9461  -30.1446   23.8901 C   0  0  0  0  0  0
  -17.6463  -30.6584   24.0558 C   0  0  0  0  0  0
  -25.9047  -34.9455   23.5117 C   0  0  0  0  0  0
  -16.5353  -29.9080   23.6332 C   0  0  0  0  0  0
  -16.7274  -28.6498   23.0351 C   0  0  0  0  0  0
  -26.4493  -31.6587   25.0730 C   0  0  0  0  0  0
  -25.3741  -31.3702   26.1470 C   0  0  0  0  0  0
  -27.0324  -30.3019   24.6144 C   0  0  0  0  0  0
  -27.6070  -32.4308   25.7487 C   0  0  0  0  0  0
  -27.5578  -37.1802   24.8466 C   0  0  0  0  0  0
  -21.4179  -29.3034   22.3699 N   0  0  0  0  0  0
  -26.4291  -37.3781   23.9408 N   0  0  0  0  0  0
  -24.6819  -31.0668   22.0984 N   0  0  0  0  0  0
  -23.4199  -28.8165   23.3015 O   0  0  0  0  0  0
  -28.3344  -26.5184   20.1366 O   0  0  0  0  0  0
  -26.5614  -34.8910   22.4683 O   0  0  0  0  0  0
  -23.5401  -32.1408   23.7408 O   0  0  0  0  0  0
  -30.5223  -16.6131   21.8210 C   0  0  0  0  0  0
  -29.7052  -16.6068   19.5723 C   0  0  0  0  0  0
  -29.7202  -17.9287   22.0609 C   0  0  0  0  0  0
  -28.9411  -17.9411   19.8726 C   0  0  0  0  0  0
  -30.7542  -21.4934   19.9504 C   0  0  0  0  0  0
  -28.9704  -20.0816   21.1576 C   0  0  0  0  0  0
  -28.8206  -23.9391   20.0422 C   0  0  0  0  0  0
  -28.1401  -25.1879   20.7352 C   0  0  0  0  0  0
  -29.2446  -21.3471   20.2295 C   0  0  1  0  0  0
  -29.9907  -15.7437   20.7485 N   0  0  0  0  0  0
  -29.6467  -18.7756   20.8574 N   0  0  0  0  0  0
  -28.6747  -22.6316   20.8045 N   0  3  0  0  0  0
  -31.4619  -12.4467   19.1531 H   0  0  0  0  0  0
  -30.3156  -11.3757   19.9071 H   0  0  0  0  0  0
  -29.7530  -11.7372   17.4770 H   0  0  0  0  0  0
  -29.6502  -13.4606   17.7416 H   0  0  0  0  0  0
  -27.8538  -11.2923   18.8745 H   0  0  0  0  0  0
  -27.3660  -12.5708   17.7952 H   0  0  0  0  0  0
  -27.6574  -14.2549   19.5095 H   0  0  0  0  0  0
  -28.6935  -12.1081   21.4223 H   0  0  0  0  0  0
  -28.4582  -13.7960   21.8061 H   0  0  0  0  0  0
  -25.2768   -9.5684   22.4766 H   0  0  0  0  0  0
  -24.0007   -7.4635   22.7477 H   0  0  0  0  0  0
  -21.0847   -8.8779   19.8957 H   0  0  0  0  0  0
  -22.3706  -10.9678   19.6171 H   0  0  0  0  0  0
  -21.2005   -7.6149   23.9720 H   0  0  0  0  0  0
  -21.1482   -6.0526   25.9081 H   0  0  0  0  0  0
  -22.0594   -2.7612   23.2849 H   0  0  0  0  0  0
  -22.4093  -11.9868   22.4787 H   0  0  0  0  0  0
  -21.1101  -13.1244   22.2633 H   0  0  0  0  0  0
  -24.6608  -15.8481   20.5357 H   0  0  0  0  0  0
  -26.2874  -15.6327   20.1257 H   0  0  0  0  0  0
  -26.7153  -32.5470   23.1114 H   0  0  0  0  0  0
  -25.0058  -33.9749   25.0439 H   0  0  0  0  0  0
  -22.7078  -31.3053   21.4046 H   0  0  0  0  0  0
  -23.3744  -35.9645   23.3323 H   0  0  0  0  0  0
  -24.3583  -36.8909   22.2051 H   0  0  0  0  0  0
  -23.7258  -37.6516   23.6652 H   0  0  0  0  0  0
  -26.0781  -31.5675   20.6014 H   0  0  0  0  0  0
  -26.8350  -30.8546   21.9957 H   0  0  0  0  0  0
  -28.1107  -29.0185   21.1848 H   0  0  0  0  0  0
  -26.0165  -25.9409   19.0022 H   0  0  0  0  0  0
  -23.9713  -27.3048   19.0180 H   0  0  0  0  0  0
  -23.7427  -30.5974   19.4047 H   0  0  0  0  0  0
  -22.7492  -29.2470   19.8605 H   0  0  0  0  0  0
  -25.1290  -36.1949   25.0823 H   0  0  0  0  0  0
  -20.9974  -28.3241   24.1423 H   0  0  0  0  0  0
  -20.5689  -26.2277   23.3608 H   0  0  0  0  0  0
  -21.6639  -26.7439   22.1198 H   0  0  0  0  0  0
  -19.6917  -25.6300   21.1234 H   0  0  0  0  0  0
  -19.6698  -27.3203   20.6759 H   0  0  0  0  0  0
  -17.4204  -26.6681   21.4020 H   0  0  0  0  0  0
  -18.0318  -26.0062   22.9020 H   0  0  0  0  0  0
  -19.7939  -30.7261   24.2270 H   0  0  0  0  0  0
  -17.5019  -31.6264   24.5156 H   0  0  0  0  0  0
  -15.5356  -30.2979   23.7657 H   0  0  0  0  0  0
  -15.8677  -28.0819   22.7067 H   0  0  0  0  0  0
  -24.5922  -30.7039   25.7807 H   0  0  0  0  0  0
  -24.8916  -32.2851   26.4918 H   0  0  0  0  0  0
  -25.8078  -30.8874   27.0236 H   0  0  0  0  0  0
  -26.2874  -29.6772   24.1199 H   0  0  0  0  0  0
  -27.4078  -29.7271   25.4622 H   0  0  0  0  0  0
  -27.8721  -30.4329   23.9314 H   0  0  0  0  0  0
  -27.2705  -33.3617   26.2064 H   0  0  0  0  0  0
  -28.3870  -32.6854   25.0296 H   0  0  0  0  0  0
  -28.0740  -31.8423   26.5397 H   0  0  0  0  0  0
  -28.2597  -38.0097   24.7505 H   0  0  0  0  0  0
  -28.1067  -36.2625   24.6293 H   0  0  0  0  0  0
  -27.2294  -37.1457   25.8869 H   0  0  0  0  0  0
  -20.9353  -29.8759   21.6910 H   0  0  0  0  0  0
  -26.0179  -38.2860   24.1400 H   0  0  0  0  0  0
  -30.5491  -16.0427   22.7516 H   0  0  0  0  0  0
  -31.5604  -16.8712   21.6000 H   0  0  0  0  0  0
  -30.6453  -16.8499   19.0721 H   0  0  0  0  0  0
  -29.1284  -16.0307   18.8468 H   0  0  0  0  0  0
  -30.2106  -18.4842   22.8629 H   0  0  0  0  0  0
  -28.7177  -17.6921   22.4238 H   0  0  0  0  0  0
  -27.9319  -17.7158   20.2239 H   0  0  0  0  0  0
  -28.8233  -18.5027   18.9445 H   0  0  0  0  0  0
  -31.1633  -20.5782   19.5226 H   0  0  0  0  0  0
  -31.3104  -21.7052   20.8637 H   0  0  0  0  0  0
  -30.9620  -22.2872   19.2343 H   0  0  0  0  0  0
  -27.8955  -19.9146   21.2466 H   0  0  0  0  0  0
  -29.2941  -20.3757   22.1574 H   0  0  0  0  0  0
  -29.8784  -24.1634   19.9142 H   0  0  0  0  0  0
  -28.4069  -23.8160   19.0409 H   0  0  0  0  0  0
  -28.5319  -25.2646   21.7498 H   0  0  0  0  0  0
  -27.0808  -24.9643   20.8672 H   0  0  0  0  0  0
  -28.7452  -21.1747   19.2745 H   0  0  0  0  0  0
  -27.6890  -22.4704   20.9485 H   0  0  0  0  0  0
  -29.0773  -22.7579   21.7205 H   0  0  0  0  0  0
  1 25  1  0  0  0
  1 30  2  0  0  0
  1 80  1  0  0  0
  2  3  1  0  0  0
  2 25  1  0  0  0
  2 83  1  0  0  0
  2 84  1  0  0  0
  3  4  1  0  0  0
  3 85  1  0  0  0
  3 86  1  0  0  0
  4  5  1  0  0  0
  4 87  1  0  0  0
  4 88  1  0  0  0
  5  6  1  0  0  0
  5 26  1  0  0  0
  5 89  1  0  0  0
  6 25  1  0  0  0
  6 90  1  0  0  0
  6 91  1  0  0  0
  7  8  2  0  0  0
  7 26  1  0  0  0
  7 29  1  0  0  0
  8  9  1  0  0  0
  8 22  1  0  0  0
  9 10  1  0  0  0
  9 27  2  0  0  0
 10 11  2  0  0  0
 10 15  1  0  0  0
 11 12  1  0  0  0
 11 92  1  0  0  0
 12 13  2  0  0  0
 12 93  1  0  0  0
 13 14  1  0  0  0
 13 31  1  0  0  0
 14 15  2  0  0  0
 14 94  1  0  0  0
 15 95  1  0  0  0
 16 17  2  0  0  0
 16 21  1  0  0  0
 16 31  1  0  0  0
 17 18  1  0  0  0
 17 96  1  0  0  0
 18 19  2  0  0  0
 18 97  1  0  0  0
 19 20  1  0  0  0
 19 24  1  0  0  0
 20 21  2  0  0  0
 20 98  1  0  0  0
 21 23  1  0  0  0
 22 28  1  0  0  0
 22 32  2  0  0  0
 26 27  1  0  0  0
 28 99  1  0  0  0
 28100  1  0  0  0
 29101  1  0  0  0
 29102  1  0  0  0
 33 34  1  0  0  0
 33 66  1  0  0  0
 33 70  2  0  0  0
 34 36  1  0  0  0
 34 59  1  0  0  0
 34103  1  0  0  0
 35 44  2  0  0  0
 35 45  1  0  0  0
 35 68  1  0  0  0
 36 56  1  0  0  0
 36104  1  0  0  0
 37 39  1  0  0  0
 37 47  1  0  0  0
 37 66  1  0  0  0
 37105  1  0  0  0
 38 43  2  0  0  0
 38 46  1  0  0  0
 38 47  1  0  0  0
 39 64  1  0  0  0
 39 67  2  0  0  0
 40 52  1  0  0  0
 40 53  2  0  0  0
 40 58  1  0  0  0
 41106  1  0  0  0
 41107  1  0  0  0
 41108  1  0  0  0
 41 48  1  0  0  0
 42 43  1  0  0  0
 42 66  1  0  0  0
 42109  1  0  0  0
 42110  1  0  0  0
 43 44  1  0  0  0
 44111  1  0  0  0
 45 46  2  0  0  0
 45112  1  0  0  0
 46113  1  0  0  0
 47114  1  0  0  0
 47115  1  0  0  0
 48 56  1  0  0  0
 48 65  1  0  0  0
 48116  1  0  0  0
 49 50  1  0  0  0
 49 53  1  0  0  0
 49 64  1  0  0  0
 49117  1  0  0  0
 50 51  1  0  0  0
 50118  1  0  0  0
 50119  1  0  0  0
 51 52  1  0  0  0
 51120  1  0  0  0
 51121  1  0  0  0
 52122  1  0  0  0
 52123  1  0  0  0
 53 54  1  0  0  0
 54 55  2  0  0  0
 54124  1  0  0  0
 55 57  1  0  0  0
 55125  1  0  0  0
 56 69  2  0  0  0
 57 58  2  0  0  0
 57126  1  0  0  0
 58127  1  0  0  0
 59 60  1  0  0  0
 59 61  1  0  0  0
 59 62  1  0  0  0
 60128  1  0  0  0
 60129  1  0  0  0
 60130  1  0  0  0
 61131  1  0  0  0
 61132  1  0  0  0
 61133  1  0  0  0
 62134  1  0  0  0
 62135  1  0  0  0
 62136  1  0  0  0
 63 65  1  0  0  0
 63137  1  0  0  0
 63138  1  0  0  0
 63139  1  0  0  0
 64140  1  0  0  0
 65141  1  0  0  0
 68 78  1  0  0  0
 71 73  1  0  0  0
 71 80  1  0  0  0
 71142  1  0  0  0
 71143  1  0  0  0
 72 74  1  0  0  0
 72 80  1  0  0  0
 72144  1  0  0  0
 72145  1  0  0  0
 73 81  1  0  0  0
 73146  1  0  0  0
 73147  1  0  0  0
 74 81  1  0  0  0
 74148  1  0  0  0
 74149  1  0  0  0
 75150  1  0  0  0
 75151  1  0  0  0
 75152  1  0  0  0
 75 79  1  0  0  0
 76 79  1  0  0  0
 76 81  1  0  0  0
 76153  1  0  0  0
 76154  1  0  0  0
 77 78  1  0  0  0
 77 82  1  0  0  0
 77155  1  0  0  0
 77156  1  0  0  0
 78157  1  0  0  0
 78158  1  0  0  0
 79 82  1  0  0  0
 79159  1  0  0  0
 82160  1  0  0  0
 82161  1  0  0  0
M  CHG  1  82   1
M  ISO  4   1 100  68 101  78 101  80 100
M  END
> <chiral flag>
0

> <version>
0

> <s_m_source_file>
/data/baiqing/PycharmProjects/Reinvent-master-3.2/result/LINK_invent/BTK/process_docking_weight1_custom_sum_contain_oxygen_bond_distance_aromatic_linkinvent_7_9_3/rearranged_h_0190.sdf

> <i_m_source_file_index>
44

> <r_mmod_Potential_Energy-OPLS-2005>
125.400688171387

> <r_mmod_Stretch_Energy-OPLS-2005>
69.2962036132812

> <r_mmod_Bend_Energy-OPLS-2005>
136.212692260742

> <r_mmod_Torsional_Energy-OPLS-2005>
382.776733398438

> <r_mmod_Improper_Torsional_Energy-OPLS-2005>
10.1121349334717

> <r_mmod_Van_der_Waal_Energy-OPLS-2005>
134.239807128906

> <r_mmod_Electrostatic_Energy-OPLS-2005>
-198.2216796875

> <r_mmod_Solvation_Energy-OPLS-2005>
-447.389221191406

> <b_mmod_Minimization_Converged-OPLS-2005>
0

> <r_mmod_RMS_Derivative-OPLS-2005>
1.07098305225372

$$$$
44
                    3D
 Structure written by MMmdl.
152160  0  0  1  0            999 V2000
  -30.4921  -15.0651   20.4029 C   0  0  0  0  0  0
  -30.4424  -12.6630   19.5210 C   0  0  0  0  0  0
  -29.5334  -12.5341   18.2764 C   0  0  0  0  0  0
  -28.0748  -12.2847   18.7036 C   0  0  0  0  0  0
  -27.6263  -13.2463   19.8362 C   0  0  2  0  0  0
  -28.6586  -13.3460   20.9776 C   0  0  0  0  0  0
  -25.2467  -13.8208   20.5684 C   0  0  0  0  0  0
  -24.1775  -13.0472   20.9180 C   0  0  0  0  0  0
  -24.6361  -11.6905   20.8733 C   0  0  0  0  0  0
  -23.9024  -10.4280   21.0337 C   0  0  0  0  0  0
  -24.3579   -9.4200   21.9132 C   0  0  0  0  0  0
  -23.6257   -8.2245   22.0752 C   0  0  0  0  0  0
  -22.4258   -8.0256   21.3523 C   0  0  0  0  0  0
  -21.9854   -9.0207   20.4639 C   0  0  0  0  0  0
  -22.7177  -10.2091   20.3004 C   0  0  0  0  0  0
  -21.6864   -6.0665   22.5243 C   0  0  0  0  0  0
  -21.4027   -6.5571   23.8166 C   0  0  0  0  0  0
  -21.3675   -5.6742   24.9134 C   0  0  0  0  0  0
  -21.6055   -4.3009   24.7201 C   0  0  0  0  0  0
  -21.8838   -3.8081   23.4345 C   0  0  0  0  0  0
  -21.9219   -4.6892   22.3389 C   0  0  0  0  0  0
  -22.7772  -13.5231   21.1797 C   0  0  0  0  0  0
  -22.1674   -4.2065   21.0972 F   0  0  0  0  0  0
  -21.5654   -3.4517   25.7730 F   0  0  0  0  0  0
  -29.9142  -13.7868   20.3648 N   0  0  0  0  0  0
  -26.2875  -12.9423   20.3224 N   0  0  0  0  0  0
  -25.9304  -11.6553   20.5736 N   0  0  0  0  0  0
  -22.0454  -12.8225   22.0376 N   0  0  0  0  0  0
  -25.4196  -15.1907   20.4045 N   0  0  0  0  0  0
  -31.6986  -15.0967   20.1231 O   0  0  0  0  0  0
  -21.6672   -6.8817   21.4206 O   0  0  0  0  0  0
  -22.3445  -14.5523   20.6619 O   0  0  0  0  0  0
  -24.6525  -31.8403   23.1765 C   0  0  0  0  0  0
  -25.9248  -32.4714   23.8191 C   0  0  1  0  0  0
  -27.1976  -27.0385   20.1511 C   0  0  0  0  0  0
  -25.5970  -33.8532   24.2136 N   0  0  0  0  0  0
  -23.4568  -30.4603   21.5235 C   0  0  2  0  0  0
  -24.9047  -28.8664   20.0991 C   0  0  0  0  0  0
  -22.7640  -29.4531   22.4772 C   0  0  0  0  0  0
  -18.0350  -28.1447   22.8496 C   0  0  0  0  0  0
  -24.1473  -36.7248   23.2640 C   0  0  0  0  0  0
  -26.0190  -30.6770   21.3842 C   0  0  0  0  0  0
  -26.0844  -29.2798   20.7281 C   0  0  0  0  0  0
  -27.2268  -28.3811   20.7391 C   0  0  0  0  0  0
  -25.9925  -26.7474   19.4781 C   0  0  0  0  0  0
  -24.8752  -27.6165   19.4602 C   0  0  0  0  0  0
  -23.6915  -29.7896   20.1439 C   0  0  0  0  0  0
  -25.4109  -36.3060   24.0303 C   0  0  1  0  0  0
  -20.5979  -28.3786   23.1232 C   0  0  2  0  0  0
  -20.6847  -26.9512   22.5404 C   0  0  0  0  0  0
  -19.5794  -26.6424   21.5249 C   0  0  0  0  0  0
  -18.1959  -26.8006   22.1639 C   0  0  0  0  0  0
  -19.1607  -28.8931   23.2861 C   0  0  0  0  0  0
  -18.9551  -30.1537   23.8889 C   0  0  0  0  0  0
  -17.6547  -30.6630   24.0588 C   0  0  0  0  0  0
  -25.9101  -34.9439   23.5031 C   0  0  0  0  0  0
  -16.5435  -29.9146   23.6329 C   0  0  0  0  0  0
  -16.7342  -28.6565   23.0334 C   0  0  0  0  0  0
  -26.4533  -31.6614   25.0668 C   0  0  0  0  0  0
  -25.3640  -31.3842   26.1287 C   0  0  0  0  0  0
  -27.0382  -30.3014   24.6247 C   0  0  0  0  0  0
  -27.6071  -32.4347   25.7451 C   0  0  0  0  0  0
  -27.5555  -37.1769   24.8469 C   0  0  0  0  0  0
  -21.4331  -29.3093   22.3581 N   0  0  0  0  0  0
  -26.4264  -37.3778   23.9449 N   0  0  0  0  0  0
  -24.7313  -31.0139   22.0871 N   0  0  0  0  0  0
  -23.4261  -28.8045   23.2923 O   0  0  0  0  0  0
  -28.2375  -26.0182   20.2752 O   0  0  0  0  0  0
  -26.5663  -34.8955   22.4604 O   0  0  0  0  0  0
  -23.5619  -32.1348   23.6902 O   0  0  0  0  0  0
  -29.0561  -17.2404   21.3423 C   0  0  0  0  0  0
  -29.7562  -17.5293   19.4229 C   0  0  0  0  0  0
  -29.6030  -18.5725   20.6199 C   0  0  0  0  0  0
  -29.0827  -21.4559   20.0567 C   0  0  0  0  0  0
  -28.2432  -24.4992   19.7734 C   0  0  0  0  0  0
  -28.4045  -22.9758   20.6113 C   0  0  1  0  0  0
  -29.7138  -16.2932   20.3396 N   0  0  0  0  0  0
  -27.0548  -22.7194   21.1082 N   0  0  0  0  0  0
  -28.7581  -19.9787   20.6421 N   0  3  0  0  0  0
  -31.4664  -12.8444   19.1910 H   0  0  0  0  0  0
  -30.4769  -11.7312   20.0919 H   0  0  0  0  0  0
  -29.8831  -11.7244   17.6332 H   0  0  0  0  0  0
  -29.5948  -13.4509   17.6863 H   0  0  0  0  0  0
  -28.0129  -11.2547   19.0574 H   0  0  0  0  0  0
  -27.4038  -12.3580   17.8461 H   0  0  0  0  0  0
  -27.5761  -14.2327   19.3741 H   0  0  0  0  0  0
  -28.7786  -12.3948   21.5013 H   0  0  0  0  0  0
  -28.3381  -14.0834   21.7167 H   0  0  0  0  0  0
  -25.2742   -9.5716   22.4686 H   0  0  0  0  0  0
  -23.9980   -7.4662   22.7474 H   0  0  0  0  0  0
  -21.0793   -8.8674   19.8944 H   0  0  0  0  0  0
  -22.3585  -10.9600   19.6099 H   0  0  0  0  0  0
  -21.2008   -7.6072   23.9629 H   0  0  0  0  0  0
  -21.1488   -6.0480   25.9026 H   0  0  0  0  0  0
  -22.0626   -2.7550   23.2862 H   0  0  0  0  0  0
  -22.4109  -11.9906   22.4786 H   0  0  0  0  0  0
  -21.1061  -13.1162   22.2566 H   0  0  0  0  0  0
  -24.6553  -15.8501   20.5023 H   0  0  0  0  0  0
  -26.2694  -15.6144   20.0565 H   0  0  0  0  0  0
  -26.7318  -32.5285   23.0908 H   0  0  0  0  0  0
  -25.0178  -33.9643   25.0328 H   0  0  0  0  0  0
  -22.7640  -31.2891   21.3606 H   0  0  0  0  0  0
  -23.3754  -35.9564   23.3309 H   0  0  0  0  0  0
  -24.3544  -36.8894   22.2062 H   0  0  0  0  0  0
  -23.7204  -37.6438   23.6676 H   0  0  0  0  0  0
  -26.1673  -31.4166   20.5965 H   0  0  0  0  0  0
  -26.8944  -30.7471   22.0172 H   0  0  0  0  0  0
  -28.1196  -28.6814   21.2666 H   0  0  0  0  0  0
  -25.8518  -25.7941   18.9909 H   0  0  0  0  0  0
  -23.9694  -27.2946   18.9647 H   0  0  0  0  0  0
  -23.8603  -30.5683   19.4012 H   0  0  0  0  0  0
  -22.7966  -29.2632   19.8053 H   0  0  0  0  0  0
  -25.1290  -36.1856   25.0786 H   0  0  0  0  0  0
  -21.0092  -28.3398   24.1329 H   0  0  0  0  0  0
  -20.5841  -26.2409   23.3630 H   0  0  0  0  0  0
  -21.6705  -26.7545   22.1149 H   0  0  0  0  0  0
  -19.7000  -25.6321   21.1311 H   0  0  0  0  0  0
  -19.6743  -27.3213   20.6783 H   0  0  0  0  0  0
  -17.4268  -26.6799   21.4001 H   0  0  0  0  0  0
  -18.0301  -26.0169   22.9054 H   0  0  0  0  0  0
  -19.8047  -30.7332   24.2257 H   0  0  0  0  0  0
  -17.5125  -31.6318   24.5226 H   0  0  0  0  0  0
  -15.5441  -30.3062   23.7670 H   0  0  0  0  0  0
  -15.8731  -28.0892   22.7038 H   0  0  0  0  0  0
  -24.5867  -30.7166   25.7576 H   0  0  0  0  0  0
  -24.8728  -32.3036   26.4543 H   0  0  0  0  0  0
  -25.7801  -30.9128   27.0196 H   0  0  0  0  0  0
  -26.3006  -29.6770   24.1215 H   0  0  0  0  0  0
  -27.4023  -29.7302   25.4802 H   0  0  0  0  0  0
  -27.8900  -30.4322   23.9550 H   0  0  0  0  0  0
  -27.2754  -33.3746   26.1886 H   0  0  0  0  0  0
  -28.3944  -32.6785   25.0293 H   0  0  0  0  0  0
  -28.0683  -31.8540   26.5474 H   0  0  0  0  0  0
  -28.2557  -38.0092   24.7507 H   0  0  0  0  0  0
  -28.1041  -36.2592   24.6254 H   0  0  0  0  0  0
  -27.2234  -37.1366   25.8867 H   0  0  0  0  0  0
  -20.9572  -29.8872   21.6804 H   0  0  0  0  0  0
  -26.0108  -38.2829   24.1520 H   0  0  0  0  0  0
  -27.9622  -17.1761   21.3268 H   0  0  0  0  0  0
  -29.3986  -17.1172   22.3728 H   0  0  0  0  0  0
  -30.6957  -17.6343   18.8775 H   0  0  0  0  0  0
  -28.9304  -17.5525   18.7093 H   0  0  0  0  0  0
  -30.5983  -18.7799   21.0146 H   0  0  0  0  0  0
  -30.1654  -21.5690   20.1524 H   0  0  0  0  0  0
  -28.9056  -21.3927   18.9826 H   0  0  0  0  0  0
  -27.4115  -24.3834   19.0830 H   0  0  0  0  0  0
  -29.0836  -24.5048   19.0815 H   0  0  0  0  0  0
  -29.0068  -23.2257   21.4889 H   0  0  0  0  0  0
  -26.4731  -22.2913   20.3953 H   0  0  0  0  0  0
  -27.0528  -22.0814   21.8991 H   0  0  0  0  0  0
  -28.6412  -20.1501   21.6263 H   0  0  0  0  0  0
  -27.8301  -19.7666   20.3120 H   0  0  0  0  0  0
  1 25  1  0  0  0
  1 30  2  0  0  0
  1 77  1  0  0  0
  2  3  1  0  0  0
  2 25  1  0  0  0
  2 80  1  0  0  0
  2 81  1  0  0  0
  3  4  1  0  0  0
  3 82  1  0  0  0
  3 83  1  0  0  0
  4  5  1  0  0  0
  4 84  1  0  0  0
  4 85  1  0  0  0
  5  6  1  0  0  0
  5 26  1  0  0  0
  5 86  1  0  0  0
  6 25  1  0  0  0
  6 87  1  0  0  0
  6 88  1  0  0  0
  7  8  2  0  0  0
  7 26  1  0  0  0
  7 29  1  0  0  0
  8  9  1  0  0  0
  8 22  1  0  0  0
  9 10  1  0  0  0
  9 27  2  0  0  0
 10 11  2  0  0  0
 10 15  1  0  0  0
 11 12  1  0  0  0
 11 89  1  0  0  0
 12 13  2  0  0  0
 12 90  1  0  0  0
 13 14  1  0  0  0
 13 31  1  0  0  0
 14 15  2  0  0  0
 14 91  1  0  0  0
 15 92  1  0  0  0
 16 17  2  0  0  0
 16 21  1  0  0  0
 16 31  1  0  0  0
 17 18  1  0  0  0
 17 93  1  0  0  0
 18 19  2  0  0  0
 18 94  1  0  0  0
 19 20  1  0  0  0
 19 24  1  0  0  0
 20 21  2  0  0  0
 20 95  1  0  0  0
 21 23  1  0  0  0
 22 28  1  0  0  0
 22 32  2  0  0  0
 26 27  1  0  0  0
 28 96  1  0  0  0
 28 97  1  0  0  0
 29 98  1  0  0  0
 29 99  1  0  0  0
 33 34  1  0  0  0
 33 66  1  0  0  0
 33 70  2  0  0  0
 34 36  1  0  0  0
 34 59  1  0  0  0
 34100  1  0  0  0
 35 44  2  0  0  0
 35 45  1  0  0  0
 35 68  1  0  0  0
 36 56  1  0  0  0
 36101  1  0  0  0
 37 39  1  0  0  0
 37 47  1  0  0  0
 37 66  1  0  0  0
 37102  1  0  0  0
 38 43  2  0  0  0
 38 46  1  0  0  0
 38 47  1  0  0  0
 39 64  1  0  0  0
 39 67  2  0  0  0
 40 52  1  0  0  0
 40 53  2  0  0  0
 40 58  1  0  0  0
 41103  1  0  0  0
 41104  1  0  0  0
 41105  1  0  0  0
 41 48  1  0  0  0
 42 43  1  0  0  0
 42 66  1  0  0  0
 42106  1  0  0  0
 42107  1  0  0  0
 43 44  1  0  0  0
 44108  1  0  0  0
 45 46  2  0  0  0
 45109  1  0  0  0
 46110  1  0  0  0
 47111  1  0  0  0
 47112  1  0  0  0
 48 56  1  0  0  0
 48 65  1  0  0  0
 48113  1  0  0  0
 49 50  1  0  0  0
 49 53  1  0  0  0
 49 64  1  0  0  0
 49114  1  0  0  0
 50 51  1  0  0  0
 50115  1  0  0  0
 50116  1  0  0  0
 51 52  1  0  0  0
 51117  1  0  0  0
 51118  1  0  0  0
 52119  1  0  0  0
 52120  1  0  0  0
 53 54  1  0  0  0
 54 55  2  0  0  0
 54121  1  0  0  0
 55 57  1  0  0  0
 55122  1  0  0  0
 56 69  2  0  0  0
 57 58  2  0  0  0
 57123  1  0  0  0
 58124  1  0  0  0
 59 60  1  0  0  0
 59 61  1  0  0  0
 59 62  1  0  0  0
 60125  1  0  0  0
 60126  1  0  0  0
 60127  1  0  0  0
 61128  1  0  0  0
 61129  1  0  0  0
 61130  1  0  0  0
 62131  1  0  0  0
 62132  1  0  0  0
 62133  1  0  0  0
 63 65  1  0  0  0
 63134  1  0  0  0
 63135  1  0  0  0
 63136  1  0  0  0
 64137  1  0  0  0
 65138  1  0  0  0
 68 75  1  0  0  0
 71 73  1  0  0  0
 71 77  1  0  0  0
 71139  1  0  0  0
 71140  1  0  0  0
 72 73  1  0  0  0
 72 77  1  0  0  0
 72141  1  0  0  0
 72142  1  0  0  0
 73 79  1  0  0  0
 73143  1  0  0  0
 74 76  1  0  0  0
 74 79  1  0  0  0
 74144  1  0  0  0
 74145  1  0  0  0
 75 76  1  0  0  0
 75146  1  0  0  0
 75147  1  0  0  0
 76 78  1  0  0  0
 76148  1  0  0  0
 78149  1  0  0  0
 78150  1  0  0  0
 79151  1  0  0  0
 79152  1  0  0  0
M  CHG  1  79   1
M  ISO  4   1 100  68 101  75 101  77 100
M  END
> <chiral flag>
0

> <version>
0

> <s_m_source_file>
/data/baiqing/PycharmProjects/Reinvent-master-3.2/result/LINK_invent/BTK/process_docking_weight1_custom_sum_contain_oxygen_bond_distance_aromatic_linkinvent_7_9_3/rearranged_h_0190.sdf

> <i_m_source_file_index>
45

> <r_mmod_Potential_Energy-OPLS-2005>
740.678527832031

> <r_mmod_Stretch_Energy-OPLS-2005>
378.68701171875

> <r_mmod_Bend_Energy-OPLS-2005>
386.207733154297

> <r_mmod_Torsional_Energy-OPLS-2005>
317.037170410156

> <r_mmod_Improper_Torsional_Energy-OPLS-2005>
14.8560056686401

> <r_mmod_Van_der_Waal_Energy-OPLS-2005>
106.868682861328

> <r_mmod_Electrostatic_Energy-OPLS-2005>
-205.284683227539

> <r_mmod_Solvation_Energy-OPLS-2005>
-544.753967285156

> <b_mmod_Minimization_Converged-OPLS-2005>
0

> <r_mmod_RMS_Derivative-OPLS-2005>
6.9858455657959

$$$$
45
                    3D
 Structure written by MMmdl.
151160  0  0  1  0            999 V2000
  -30.4698  -15.2023   20.3826 C   0  0  0  0  0  0
  -30.4350  -12.7663   19.5174 C   0  0  0  0  0  0
  -29.5299  -12.5638   18.2783 C   0  0  0  0  0  0
  -28.0752  -12.3027   18.7062 C   0  0  0  0  0  0
  -27.6128  -13.2723   19.8235 C   0  0  2  0  0  0
  -28.6490  -13.4281   20.9557 C   0  0  0  0  0  0
  -25.2407  -13.8254   20.5764 C   0  0  0  0  0  0
  -24.1744  -13.0446   20.9247 C   0  0  0  0  0  0
  -24.6392  -11.6939   20.8755 C   0  0  0  0  0  0
  -23.9087  -10.4297   21.0400 C   0  0  0  0  0  0
  -24.3633   -9.4211   21.9179 C   0  0  0  0  0  0
  -23.6304   -8.2246   22.0751 C   0  0  0  0  0  0
  -22.4286   -8.0281   21.3542 C   0  0  0  0  0  0
  -21.9923   -9.0256   20.4645 C   0  0  0  0  0  0
  -22.7255  -10.2134   20.3052 C   0  0  0  0  0  0
  -21.6857   -6.0736   22.5278 C   0  0  0  0  0  0
  -21.4017   -6.5639   23.8211 C   0  0  0  0  0  0
  -21.3662   -5.6791   24.9173 C   0  0  0  0  0  0
  -21.6045   -4.3054   24.7223 C   0  0  0  0  0  0
  -21.8818   -3.8146   23.4344 C   0  0  0  0  0  0
  -21.9195   -4.6963   22.3401 C   0  0  0  0  0  0
  -22.7763  -13.5199   21.1897 C   0  0  0  0  0  0
  -22.1663   -4.2148   21.0978 F   0  0  0  0  0  0
  -21.5630   -3.4538   25.7736 F   0  0  0  0  0  0
  -29.8854  -13.9120   20.3254 N   0  0  0  0  0  0
  -26.2824  -12.9520   20.3232 N   0  0  0  0  0  0
  -25.9330  -11.6627   20.5723 N   0  0  0  0  0  0
  -22.0423  -12.8181   22.0452 N   0  0  0  0  0  0
  -25.4088  -15.1989   20.4250 N   0  0  0  0  0  0
  -31.6917  -15.1927   20.1760 O   0  0  0  0  0  0
  -21.6648   -6.8880   21.4240 O   0  0  0  0  0  0
  -22.3442  -14.5500   20.6738 O   0  0  0  0  0  0
  -24.6596  -31.8270   23.1735 C   0  0  0  0  0  0
  -25.9294  -32.4604   23.8186 C   0  0  1  0  0  0
  -27.2160  -26.9631   20.1788 C   0  0  0  0  0  0
  -25.5975  -33.8417   24.2093 N   0  0  0  0  0  0
  -23.4722  -30.4402   21.5224 C   0  0  2  0  0  0
  -24.9244  -28.8340   20.1120 C   0  0  0  0  0  0
  -22.7649  -29.4460   22.4797 C   0  0  0  0  0  0
  -18.0319  -28.1406   22.8468 C   0  0  0  0  0  0
  -24.1495  -36.7215   23.2646 C   0  0  0  0  0  0
  -26.0394  -30.6451   21.3982 C   0  0  0  0  0  0
  -26.1078  -29.2388   20.7419 C   0  0  0  0  0  0
  -27.2503  -28.3242   20.7503 C   0  0  0  0  0  0
  -26.0034  -26.7020   19.5026 C   0  0  0  0  0  0
  -24.8953  -27.5851   19.4723 C   0  0  0  0  0  0
  -23.7095  -29.7582   20.1473 C   0  0  0  0  0  0
  -25.4134  -36.2976   24.0300 C   0  0  1  0  0  0
  -20.5941  -28.3748   23.1195 C   0  0  2  0  0  0
  -20.6797  -26.9433   22.5402 C   0  0  0  0  0  0
  -19.5772  -26.6376   21.5213 C   0  0  0  0  0  0
  -18.1954  -26.7939   22.1623 C   0  0  0  0  0  0
  -19.1579  -28.8898   23.2819 C   0  0  0  0  0  0
  -18.9491  -30.1489   23.8852 C   0  0  0  0  0  0
  -17.6484  -30.6596   24.0555 C   0  0  0  0  0  0
  -25.9096  -34.9358   23.5015 C   0  0  0  0  0  0
  -16.5374  -29.9083   23.6343 C   0  0  0  0  0  0
  -16.7301  -28.6504   23.0361 C   0  0  0  0  0  0
  -26.4555  -31.6539   25.0703 C   0  0  0  0  0  0
  -25.3691  -31.3783   26.1366 C   0  0  0  0  0  0
  -27.0449  -30.2909   24.6418 C   0  0  0  0  0  0
  -27.6049  -32.4346   25.7505 C   0  0  0  0  0  0
  -27.5569  -37.1767   24.8467 C   0  0  0  0  0  0
  -21.4322  -29.3043   22.3547 N   0  0  0  0  0  0
  -26.4283  -37.3707   23.9403 N   0  0  0  0  0  0
  -24.7449  -30.9967   22.0852 N   0  0  0  0  0  0
  -23.4214  -28.8025   23.3021 O   0  0  0  0  0  0
  -28.2240  -25.8757   20.2546 O   0  0  0  0  0  0
  -26.5702  -34.8886   22.4608 O   0  0  0  0  0  0
  -23.5674  -32.1224   23.6850 O   0  0  0  0  0  0
  -29.9478  -17.6958   19.4238 C   0  0  0  0  0  0
  -29.7485  -17.6722   21.3769 C   0  0  0  0  0  0
  -28.6210  -21.4359   21.2377 C   0  0  0  0  0  0
  -28.9396  -21.4372   19.3179 C   0  0  0  0  0  0
  -28.8776  -22.7543   20.2954 C   0  0  1  0  0  0
  -29.1502  -18.7641   20.3373 C   0  0  0  0  0  0
  -27.9380  -24.2704   20.1158 C   0  0  0  0  0  0
  -29.7253  -16.4832   20.3744 N   0  0  0  0  0  0
  -29.3986  -20.4128   20.3779 N   0  3  2  0  0  0
  -31.4577  -12.9566   19.1894 H   0  0  0  0  0  0
  -30.4840  -11.8554   20.1164 H   0  0  0  0  0  0
  -29.8973  -11.7377   17.6678 H   0  0  0  0  0  0
  -29.5719  -13.4539   17.6485 H   0  0  0  0  0  0
  -28.0193  -11.2752   19.0676 H   0  0  0  0  0  0
  -27.4069  -12.3611   17.8463 H   0  0  0  0  0  0
  -27.5342  -14.2453   19.3366 H   0  0  0  0  0  0
  -28.8032  -12.4911   21.4925 H   0  0  0  0  0  0
  -28.3023  -14.1584   21.6889 H   0  0  0  0  0  0
  -25.2774   -9.5690   22.4759 H   0  0  0  0  0  0
  -24.0011   -7.4639   22.7472 H   0  0  0  0  0  0
  -21.0852   -8.8776   19.8953 H   0  0  0  0  0  0
  -22.3706  -10.9673   19.6165 H   0  0  0  0  0  0
  -21.2008   -7.6147   23.9714 H   0  0  0  0  0  0
  -21.1487   -6.0522   25.9076 H   0  0  0  0  0  0
  -22.0595   -2.7608   23.2845 H   0  0  0  0  0  0
  -22.4057  -11.9852   22.4843 H   0  0  0  0  0  0
  -21.1031  -13.1182   22.2653 H   0  0  0  0  0  0
  -24.6476  -15.8566   20.5534 H   0  0  0  0  0  0
  -26.2717  -15.6412   20.1339 H   0  0  0  0  0  0
  -26.7363  -32.5152   23.0902 H   0  0  0  0  0  0
  -25.0076  -33.9502   25.0211 H   0  0  0  0  0  0
  -22.7836  -31.2710   21.3546 H   0  0  0  0  0  0
  -23.3762  -35.9541   23.3288 H   0  0  0  0  0  0
  -24.3570  -36.8880   22.2065 H   0  0  0  0  0  0
  -23.7250  -37.6398   23.6713 H   0  0  0  0  0  0
  -26.2160  -31.3887   20.6200 H   0  0  0  0  0  0
  -26.9011  -30.7001   22.0518 H   0  0  0  0  0  0
  -28.1471  -28.6316   21.2695 H   0  0  0  0  0  0
  -25.8750  -25.7483   19.0131 H   0  0  0  0  0  0
  -23.9954  -27.2695   18.9625 H   0  0  0  0  0  0
  -23.8624  -30.5277   19.3899 H   0  0  0  0  0  0
  -22.8197  -29.2113   19.8306 H   0  0  0  0  0  0
  -25.1333  -36.1776   25.0792 H   0  0  0  0  0  0
  -21.0029  -28.3351   24.1318 H   0  0  0  0  0  0
  -20.5680  -26.2364   23.3638 H   0  0  0  0  0  0
  -21.6661  -26.7414   22.1205 H   0  0  0  0  0  0
  -19.6929  -25.6275   21.1273 H   0  0  0  0  0  0
  -19.6708  -27.3161   20.6722 H   0  0  0  0  0  0
  -17.4221  -26.6678   21.4030 H   0  0  0  0  0  0
  -18.0353  -26.0093   22.9032 H   0  0  0  0  0  0
  -19.7966  -30.7319   24.2199 H   0  0  0  0  0  0
  -17.5035  -31.6272   24.5165 H   0  0  0  0  0  0
  -15.5372  -30.2969   23.7694 H   0  0  0  0  0  0
  -15.8701  -28.0807   22.7101 H   0  0  0  0  0  0
  -24.5877  -30.7130   25.7675 H   0  0  0  0  0  0
  -24.8879  -32.2985   26.4689 H   0  0  0  0  0  0
  -25.7929  -30.9013   27.0213 H   0  0  0  0  0  0
  -26.3111  -29.6590   24.1404 H   0  0  0  0  0  0
  -27.3967  -29.7267   25.5065 H   0  0  0  0  0  0
  -27.9057  -30.4095   23.9834 H   0  0  0  0  0  0
  -27.2612  -33.3681   26.1975 H   0  0  0  0  0  0
  -28.3917  -32.6855   25.0379 H   0  0  0  0  0  0
  -28.0656  -31.8549   26.5515 H   0  0  0  0  0  0
  -28.2575  -38.0073   24.7500 H   0  0  0  0  0  0
  -28.1076  -36.2598   24.6313 H   0  0  0  0  0  0
  -27.2282  -37.1431   25.8869 H   0  0  0  0  0  0
  -20.9569  -29.8735   21.6682 H   0  0  0  0  0  0
  -26.0132  -38.2768   24.1402 H   0  0  0  0  0  0
  -31.0025  -17.9478   19.2809 H   0  0  0  0  0  0
  -29.4858  -17.5714   18.4439 H   0  0  0  0  0  0
  -29.0949  -17.5287   22.2381 H   0  0  0  0  0  0
  -30.7517  -17.9172   21.7365 H   0  0  0  0  0  0
  -27.5632  -21.1727   21.3171 H   0  0  0  0  0  0
  -29.0383  -21.5326   22.2399 H   0  0  0  0  0  0
  -29.6578  -21.5353   18.5039 H   0  0  0  0  0  0
  -27.9640  -21.1742   18.9014 H   0  0  0  0  0  0
  -29.9134  -23.0535   20.4610 H   0  0  0  0  0  0
  -28.0784  -18.6025   20.2210 H   0  0  0  0  0  0
  -27.0634  -24.1361   20.7528 H   0  0  0  0  0  0
  -27.5228  -24.2039   19.1106 H   0  0  0  0  0  0
  -30.3825  -20.5649   20.5377 H   0  0  0  0  0  0
  1 25  1  0  0  0
  1 30  2  0  0  0
  1 78  1  0  0  0
  2  3  1  0  0  0
  2 25  1  0  0  0
  2 80  1  0  0  0
  2 81  1  0  0  0
  3  4  1  0  0  0
  3 82  1  0  0  0
  3 83  1  0  0  0
  4  5  1  0  0  0
  4 84  1  0  0  0
  4 85  1  0  0  0
  5  6  1  0  0  0
  5 26  1  0  0  0
  5 86  1  0  0  0
  6 25  1  0  0  0
  6 87  1  0  0  0
  6 88  1  0  0  0
  7  8  2  0  0  0
  7 26  1  0  0  0
  7 29  1  0  0  0
  8  9  1  0  0  0
  8 22  1  0  0  0
  9 10  1  0  0  0
  9 27  2  0  0  0
 10 11  2  0  0  0
 10 15  1  0  0  0
 11 12  1  0  0  0
 11 89  1  0  0  0
 12 13  2  0  0  0
 12 90  1  0  0  0
 13 14  1  0  0  0
 13 31  1  0  0  0
 14 15  2  0  0  0
 14 91  1  0  0  0
 15 92  1  0  0  0
 16 17  2  0  0  0
 16 21  1  0  0  0
 16 31  1  0  0  0
 17 18  1  0  0  0
 17 93  1  0  0  0
 18 19  2  0  0  0
 18 94  1  0  0  0
 19 20  1  0  0  0
 19 24  1  0  0  0
 20 21  2  0  0  0
 20 95  1  0  0  0
 21 23  1  0  0  0
 22 28  1  0  0  0
 22 32  2  0  0  0
 26 27  1  0  0  0
 28 96  1  0  0  0
 28 97  1  0  0  0
 29 98  1  0  0  0
 29 99  1  0  0  0
 33 34  1  0  0  0
 33 66  1  0  0  0
 33 70  2  0  0  0
 34 36  1  0  0  0
 34 59  1  0  0  0
 34100  1  0  0  0
 35 44  2  0  0  0
 35 45  1  0  0  0
 35 68  1  0  0  0
 36 56  1  0  0  0
 36101  1  0  0  0
 37 39  1  0  0  0
 37 47  1  0  0  0
 37 66  1  0  0  0
 37102  1  0  0  0
 38 43  2  0  0  0
 38 46  1  0  0  0
 38 47  1  0  0  0
 39 64  1  0  0  0
 39 67  2  0  0  0
 40 52  1  0  0  0
 40 53  2  0  0  0
 40 58  1  0  0  0
 41103  1  0  0  0
 41104  1  0  0  0
 41105  1  0  0  0
 41 48  1  0  0  0
 42 43  1  0  0  0
 42 66  1  0  0  0
 42106  1  0  0  0
 42107  1  0  0  0
 43 44  1  0  0  0
 44108  1  0  0  0
 45 46  2  0  0  0
 45109  1  0  0  0
 46110  1  0  0  0
 47111  1  0  0  0
 47112  1  0  0  0
 48 56  1  0  0  0
 48 65  1  0  0  0
 48113  1  0  0  0
 49 50  1  0  0  0
 49 53  1  0  0  0
 49 64  1  0  0  0
 49114  1  0  0  0
 50 51  1  0  0  0
 50115  1  0  0  0
 50116  1  0  0  0
 51 52  1  0  0  0
 51117  1  0  0  0
 51118  1  0  0  0
 52119  1  0  0  0
 52120  1  0  0  0
 53 54  1  0  0  0
 54 55  2  0  0  0
 54121  1  0  0  0
 55 57  1  0  0  0
 55122  1  0  0  0
 56 69  2  0  0  0
 57 58  2  0  0  0
 57123  1  0  0  0
 58124  1  0  0  0
 59 60  1  0  0  0
 59 61  1  0  0  0
 59 62  1  0  0  0
 60125  1  0  0  0
 60126  1  0  0  0
 60127  1  0  0  0
 61128  1  0  0  0
 61129  1  0  0  0
 61130  1  0  0  0
 62131  1  0  0  0
 62132  1  0  0  0
 62133  1  0  0  0
 63 65  1  0  0  0
 63134  1  0  0  0
 63135  1  0  0  0
 63136  1  0  0  0
 64137  1  0  0  0
 65138  1  0  0  0
 68 77  1  0  0  0
 71 78  1  0  0  0
 71139  1  0  0  0
 71140  1  0  0  0
 71 76  1  0  0  0
 72 76  1  0  0  0
 72 78  1  0  0  0
 72141  1  0  0  0
 72142  1  0  0  0
 73 75  1  0  0  0
 73143  1  0  0  0
 73144  1  0  0  0
 73 79  1  0  0  0
 74 75  1  0  0  0
 74 79  1  0  0  0
 74145  1  0  0  0
 74146  1  0  0  0
 75 77  1  0  0  0
 75147  1  0  0  0
 76 79  1  0  0  0
 76148  1  0  0  0
 77149  1  0  0  0
 77150  1  0  0  0
 79151  1  0  0  0
M  CHG  1  79   1
M  ISO  4   1 100  68 101  77 101  78 100
M  END
> <chiral flag>
0

> <version>
0

> <s_m_source_file>
/data/baiqing/PycharmProjects/Reinvent-master-3.2/result/LINK_invent/BTK/process_docking_weight1_custom_sum_contain_oxygen_bond_distance_aromatic_linkinvent_7_9_3/rearranged_h_0190.sdf

> <i_m_source_file_index>
46

> <r_mmod_Potential_Energy-OPLS-2005>
987.076049804688

> <r_mmod_Stretch_Energy-OPLS-2005>
457.587768554688

> <r_mmod_Bend_Energy-OPLS-2005>
443.049377441406

> <r_mmod_Torsional_Energy-OPLS-2005>
299.109313964844

> <r_mmod_Improper_Torsional_Energy-OPLS-2005>
14.2188720703125

> <r_mmod_Van_der_Waal_Energy-OPLS-2005>
113.859596252441

> <r_mmod_Electrostatic_Energy-OPLS-2005>
-252.845245361328

> <r_mmod_Solvation_Energy-OPLS-2005>
-487.831298828125

> <b_mmod_Minimization_Converged-OPLS-2005>
0

> <r_mmod_RMS_Derivative-OPLS-2005>
0.290479421615601

$$$$
46
                    3D
 Structure written by MMmdl.
160169  0  0  1  0            999 V2000
  -30.6188  -14.7863   20.4840 C   0  0  0  0  0  0
  -30.4309  -12.4955   19.4716 C   0  0  0  0  0  0
  -29.5088  -12.5275   18.2331 C   0  0  0  0  0  0
  -28.0347  -12.3458   18.6459 C   0  0  0  0  0  0
  -27.6380  -13.2360   19.8542 C   0  0  2  0  0  0
  -28.6865  -13.1518   20.9838 C   0  0  0  0  0  0
  -25.2441  -13.8200   20.5672 C   0  0  0  0  0  0
  -24.1758  -13.0432   20.9202 C   0  0  0  0  0  0
  -24.6373  -11.6920   20.8750 C   0  0  0  0  0  0
  -23.9067  -10.4292   21.0406 C   0  0  0  0  0  0
  -24.3620   -9.4202   21.9177 C   0  0  0  0  0  0
  -23.6287   -8.2244   22.0757 C   0  0  0  0  0  0
  -22.4260   -8.0289   21.3549 C   0  0  0  0  0  0
  -21.9908   -9.0258   20.4643 C   0  0  0  0  0  0
  -22.7250  -10.2127   20.3043 C   0  0  0  0  0  0
  -21.6851   -6.0741   22.5281 C   0  0  0  0  0  0
  -21.4017   -6.5643   23.8219 C   0  0  0  0  0  0
  -21.3650   -5.6788   24.9174 C   0  0  0  0  0  0
  -21.6035   -4.3054   24.7226 C   0  0  0  0  0  0
  -21.8816   -3.8148   23.4342 C   0  0  0  0  0  0
  -21.9186   -4.6972   22.3403 C   0  0  0  0  0  0
  -22.7783  -13.5199   21.1866 C   0  0  0  0  0  0
  -22.1650   -4.2160   21.0975 F   0  0  0  0  0  0
  -21.5618   -3.4531   25.7734 F   0  0  0  0  0  0
  -29.9704  -13.5627   20.4003 N   0  0  0  0  0  0
  -26.2904  -12.9427   20.3312 N   0  0  0  0  0  0
  -25.9311  -11.6564   20.5767 N   0  0  0  0  0  0
  -22.0440  -12.8187   22.0426 N   0  0  0  0  0  0
  -25.4001  -15.1919   20.3997 N   0  0  0  0  0  0
  -31.8042  -14.8319   20.1348 O   0  0  0  0  0  0
  -21.6625   -6.8887   21.4245 O   0  0  0  0  0  0
  -22.3459  -14.5502   20.6712 O   0  0  0  0  0  0
  -24.6341  -31.8547   23.1958 C   0  0  0  0  0  0
  -25.9155  -32.4755   23.8327 C   0  0  1  0  0  0
  -27.2290  -27.2531   20.1463 C   0  0  0  0  0  0
  -25.5956  -33.8560   24.2257 N   0  0  0  0  0  0
  -23.4323  -30.4739   21.5408 C   0  0  2  0  0  0
  -24.8808  -28.9075   20.1204 C   0  0  0  0  0  0
  -22.7523  -29.4616   22.4937 C   0  0  0  0  0  0
  -18.0301  -28.1397   22.8502 C   0  0  0  0  0  0
  -24.1475  -36.7268   23.2647 C   0  0  0  0  0  0
  -25.9783  -30.7628   21.3768 C   0  0  0  0  0  0
  -26.0538  -29.3821   20.7250 C   0  0  0  0  0  0
  -27.2343  -28.5700   20.7197 C   0  0  0  0  0  0
  -26.0337  -26.8341   19.5320 C   0  0  0  0  0  0
  -24.8755  -27.6393   19.5148 C   0  0  0  0  0  0
  -23.6526  -29.7986   20.1606 C   0  0  0  0  0  0
  -25.4109  -36.3072   24.0329 C   0  0  1  0  0  0
  -20.5902  -28.3719   23.1274 C   0  0  2  0  0  0
  -20.6787  -26.9436   22.5426 C   0  0  0  0  0  0
  -19.5750  -26.6393   21.5246 C   0  0  0  0  0  0
  -18.1925  -26.7945   22.1636 C   0  0  0  0  0  0
  -19.1550  -28.8882   23.2873 C   0  0  0  0  0  0
  -18.9468  -30.1487   23.8884 C   0  0  0  0  0  0
  -17.6460  -30.6595   24.0577 C   0  0  0  0  0  0
  -25.9059  -34.9441   23.5094 C   0  0  0  0  0  0
  -16.5357  -29.9093   23.6337 C   0  0  0  0  0  0
  -16.7285  -28.6513   23.0358 C   0  0  0  0  0  0
  -26.4504  -31.6596   25.0744 C   0  0  0  0  0  0
  -25.3705  -31.3746   26.1452 C   0  0  0  0  0  0
  -27.0401  -30.3026   24.6263 C   0  0  0  0  0  0
  -27.6044  -32.4375   25.7507 C   0  0  0  0  0  0
  -27.5572  -37.1793   24.8472 C   0  0  0  0  0  0
  -21.4233  -29.3046   22.3660 N   0  0  0  0  0  0
  -26.4281  -37.3779   23.9418 N   0  0  0  0  0  0
  -24.7009  -31.0496   22.0944 N   0  0  0  0  0  0
  -23.4199  -28.8188   23.3075 O   0  0  0  0  0  0
  -28.3311  -26.3709   20.1061 O   0  0  0  0  0  0
  -26.5629  -34.8927   22.4659 O   0  0  0  0  0  0
  -23.5487  -32.1389   23.7239 O   0  0  0  0  0  0
  -27.4871  -22.1209   18.7706 C   0  0  0  0  0  0
  -29.1945  -22.4864   20.7644 C   0  0  0  0  0  0
  -28.4269  -23.6170   20.2455 C   0  0  0  0  0  0
  -29.0003  -21.1614   20.2061 C   0  0  0  0  0  0
  -28.6629  -17.8599   21.6501 C   0  0  0  0  0  0
  -28.7950  -16.3132   21.5112 C   0  0  0  0  0  0
  -30.3699  -17.3624   20.1140 C   0  0  0  0  0  0
  -29.2784  -18.4963   20.4015 C   0  0  2  0  0  0
  -29.5711  -22.6666   23.2840 C   0  0  0  0  0  0
  -30.2058  -22.6983   21.8874 C   0  0  0  0  0  0
  -28.2992  -25.0864   20.8916 C   0  0  0  0  0  0
  -27.5819  -23.3691   19.2271 N   0  0  0  0  0  0
  -28.1206  -21.0300   19.2062 N   0  0  0  0  0  0
  -29.9110  -15.9989   20.6048 N   0  0  0  0  0  0
  -29.6966  -19.9489   20.6062 N   0  0  0  0  0  0
  -31.4684  -12.6286   19.1593 H   0  0  0  0  0  0
  -30.3942  -11.5195   19.9585 H   0  0  0  0  0  0
  -29.7955  -11.7482   17.5252 H   0  0  0  0  0  0
  -29.6307  -13.4771   17.7096 H   0  0  0  0  0  0
  -27.8948  -11.2955   18.9026 H   0  0  0  0  0  0
  -27.3774  -12.5456   17.7993 H   0  0  0  0  0  0
  -27.6300  -14.2580   19.4775 H   0  0  0  0  0  0
  -28.7469  -12.1318   21.3660 H   0  0  0  0  0  0
  -28.4119  -13.7587   21.8434 H   0  0  0  0  0  0
  -25.2779   -9.5666   22.4736 H   0  0  0  0  0  0
  -23.9985   -7.4630   22.7472 H   0  0  0  0  0  0
  -21.0848   -8.8786   19.8944 H   0  0  0  0  0  0
  -22.3734  -10.9657   19.6132 H   0  0  0  0  0  0
  -21.2020   -7.6152   23.9730 H   0  0  0  0  0  0
  -21.1465   -6.0518   25.9078 H   0  0  0  0  0  0
  -22.0599   -2.7617   23.2845 H   0  0  0  0  0  0
  -22.4076  -11.9865   22.4835 H   0  0  0  0  0  0
  -21.1050  -13.1190   22.2642 H   0  0  0  0  0  0
  -24.6215  -15.8346   20.4942 H   0  0  0  0  0  0
  -26.2376  -15.6382   20.0492 H   0  0  0  0  0  0
  -26.7242  -32.5380   23.1086 H   0  0  0  0  0  0
  -25.0124  -33.9692   25.0421 H   0  0  0  0  0  0
  -22.7291  -31.2952   21.3894 H   0  0  0  0  0  0
  -23.3760  -35.9579   23.3309 H   0  0  0  0  0  0
  -24.3557  -36.8900   22.2063 H   0  0  0  0  0  0
  -23.7203  -37.6454   23.6679 H   0  0  0  0  0  0
  -26.1155  -31.5158   20.6004 H   0  0  0  0  0  0
  -26.8564  -30.8157   22.0100 H   0  0  0  0  0  0
  -28.1390  -28.9390   21.1831 H   0  0  0  0  0  0
  -25.9938  -25.8567   19.0719 H   0  0  0  0  0  0
  -23.9801  -27.2608   19.0424 H   0  0  0  0  0  0
  -23.7772  -30.5709   19.4003 H   0  0  0  0  0  0
  -22.7701  -29.2320   19.8584 H   0  0  0  0  0  0
  -25.1287  -36.1917   25.0823 H   0  0  0  0  0  0
  -20.9984  -28.3299   24.1400 H   0  0  0  0  0  0
  -20.5720  -26.2342   23.3638 H   0  0  0  0  0  0
  -21.6645  -26.7470   22.1199 H   0  0  0  0  0  0
  -19.6902  -25.6307   21.1271 H   0  0  0  0  0  0
  -19.6667  -27.3215   20.6780 H   0  0  0  0  0  0
  -17.4215  -26.6753   21.4008 H   0  0  0  0  0  0
  -18.0261  -26.0078   22.9008 H   0  0  0  0  0  0
  -19.7940  -30.7327   24.2225 H   0  0  0  0  0  0
  -17.5009  -31.6263   24.5207 H   0  0  0  0  0  0
  -15.5352  -30.2985   23.7678 H   0  0  0  0  0  0
  -15.8687  -28.0836   22.7055 H   0  0  0  0  0  0
  -24.5911  -30.7062   25.7782 H   0  0  0  0  0  0
  -24.8847  -32.2906   26.4824 H   0  0  0  0  0  0
  -25.8005  -30.8974   27.0267 H   0  0  0  0  0  0
  -26.3031  -29.6739   24.1267 H   0  0  0  0  0  0
  -27.4077  -29.7329   25.4809 H   0  0  0  0  0  0
  -27.8887  -30.4345   23.9551 H   0  0  0  0  0  0
  -27.2647  -33.3693   26.2044 H   0  0  0  0  0  0
  -28.3849  -32.6922   25.0326 H   0  0  0  0  0  0
  -28.0728  -31.8541   26.5447 H   0  0  0  0  0  0
  -28.2604  -38.0078   24.7524 H   0  0  0  0  0  0
  -28.1051  -36.2613   24.6292 H   0  0  0  0  0  0
  -27.2291  -37.1447   25.8876 H   0  0  0  0  0  0
  -20.9461  -29.8732   21.6812 H   0  0  0  0  0  0
  -26.0153  -38.2850   24.1430 H   0  0  0  0  0  0
  -26.7953  -21.9727   17.9556 H   0  0  0  0  0  0
  -29.2209  -18.1757   22.5332 H   0  0  0  0  0  0
  -27.6285  -18.1717   21.8019 H   0  0  0  0  0  0
  -27.8752  -15.9128   21.0969 H   0  0  0  0  0  0
  -28.9457  -15.8619   22.4930 H   0  0  0  0  0  0
  -31.3010  -17.5999   20.6302 H   0  0  0  0  0  0
  -30.6043  -17.3141   19.0492 H   0  0  0  0  0  0
  -28.5396  -18.4601   19.5989 H   0  0  0  0  0  0
  -30.3216  -22.8622   24.0517 H   0  0  0  0  0  0
  -29.1276  -21.6937   23.5013 H   0  0  0  0  0  0
  -28.7914  -23.4211   23.3883 H   0  0  0  0  0  0
  -30.7186  -23.6486   21.7320 H   0  0  0  0  0  0
  -30.9939  -21.9455   21.8293 H   0  0  0  0  0  0
  -29.0867  -25.1959   21.6341 H   0  0  0  0  0  0
  -27.3792  -25.0723   21.4782 H   0  0  0  0  0  0
  -30.3912  -20.0918   21.3303 H   0  0  0  0  0  0
  1 25  1  0  0  0
  1 30  2  0  0  0
  1 84  1  0  0  0
  2  3  1  0  0  0
  2 25  1  0  0  0
  2 86  1  0  0  0
  2 87  1  0  0  0
  3  4  1  0  0  0
  3 88  1  0  0  0
  3 89  1  0  0  0
  4  5  1  0  0  0
  4 90  1  0  0  0
  4 91  1  0  0  0
  5  6  1  0  0  0
  5 26  1  0  0  0
  5 92  1  0  0  0
  6 25  1  0  0  0
  6 93  1  0  0  0
  6 94  1  0  0  0
  7  8  2  0  0  0
  7 26  1  0  0  0
  7 29  1  0  0  0
  8  9  1  0  0  0
  8 22  1  0  0  0
  9 10  1  0  0  0
  9 27  2  0  0  0
 10 11  2  0  0  0
 10 15  1  0  0  0
 11 12  1  0  0  0
 11 95  1  0  0  0
 12 13  2  0  0  0
 12 96  1  0  0  0
 13 14  1  0  0  0
 13 31  1  0  0  0
 14 15  2  0  0  0
 14 97  1  0  0  0
 15 98  1  0  0  0
 16 17  2  0  0  0
 16 21  1  0  0  0
 16 31  1  0  0  0
 17 18  1  0  0  0
 17 99  1  0  0  0
 18 19  2  0  0  0
 18100  1  0  0  0
 19 20  1  0  0  0
 19 24  1  0  0  0
 20 21  2  0  0  0
 20101  1  0  0  0
 21 23  1  0  0  0
 22 28  1  0  0  0
 22 32  2  0  0  0
 26 27  1  0  0  0
 28102  1  0  0  0
 28103  1  0  0  0
 29104  1  0  0  0
 29105  1  0  0  0
 33 34  1  0  0  0
 33 66  1  0  0  0
 33 70  2  0  0  0
 34 36  1  0  0  0
 34 59  1  0  0  0
 34106  1  0  0  0
 35 44  2  0  0  0
 35 45  1  0  0  0
 35 68  1  0  0  0
 36 56  1  0  0  0
 36107  1  0  0  0
 37 39  1  0  0  0
 37 47  1  0  0  0
 37 66  1  0  0  0
 37108  1  0  0  0
 38 43  2  0  0  0
 38 46  1  0  0  0
 38 47  1  0  0  0
 39 64  1  0  0  0
 39 67  2  0  0  0
 40 52  1  0  0  0
 40 53  2  0  0  0
 40 58  1  0  0  0
 41109  1  0  0  0
 41110  1  0  0  0
 41111  1  0  0  0
 41 48  1  0  0  0
 42 43  1  0  0  0
 42 66  1  0  0  0
 42112  1  0  0  0
 42113  1  0  0  0
 43 44  1  0  0  0
 44114  1  0  0  0
 45 46  2  0  0  0
 45115  1  0  0  0
 46116  1  0  0  0
 47117  1  0  0  0
 47118  1  0  0  0
 48 56  1  0  0  0
 48 65  1  0  0  0
 48119  1  0  0  0
 49 50  1  0  0  0
 49 53  1  0  0  0
 49 64  1  0  0  0
 49120  1  0  0  0
 50 51  1  0  0  0
 50121  1  0  0  0
 50122  1  0  0  0
 51 52  1  0  0  0
 51123  1  0  0  0
 51124  1  0  0  0
 52125  1  0  0  0
 52126  1  0  0  0
 53 54  1  0  0  0
 54 55  2  0  0  0
 54127  1  0  0  0
 55 57  1  0  0  0
 55128  1  0  0  0
 56 69  2  0  0  0
 57 58  2  0  0  0
 57129  1  0  0  0
 58130  1  0  0  0
 59 60  1  0  0  0
 59 61  1  0  0  0
 59 62  1  0  0  0
 60131  1  0  0  0
 60132  1  0  0  0
 60133  1  0  0  0
 61134  1  0  0  0
 61135  1  0  0  0
 61136  1  0  0  0
 62137  1  0  0  0
 62138  1  0  0  0
 62139  1  0  0  0
 63 65  1  0  0  0
 63140  1  0  0  0
 63141  1  0  0  0
 63142  1  0  0  0
 64143  1  0  0  0
 65144  1  0  0  0
 68 81  1  0  0  0
 71 82  2  0  0  0
 71 83  1  0  0  0
 71145  1  0  0  0
 72 73  2  0  0  0
 72 74  1  0  0  0
 72 80  1  0  0  0
 73 81  1  0  0  0
 73 82  1  0  0  0
 74 83  2  0  0  0
 74 85  1  0  0  0
 75 76  1  0  0  0
 75 78  1  0  0  0
 75146  1  0  0  0
 75147  1  0  0  0
 76 84  1  0  0  0
 76148  1  0  0  0
 76149  1  0  0  0
 77 78  1  0  0  0
 77 84  1  0  0  0
 77150  1  0  0  0
 77151  1  0  0  0
 78 85  1  0  0  0
 78152  1  0  0  0
 79 80  1  0  0  0
 79153  1  0  0  0
 79154  1  0  0  0
 79155  1  0  0  0
 80156  1  0  0  0
 80157  1  0  0  0
 81158  1  0  0  0
 81159  1  0  0  0
 85160  1  0  0  0
M  ISO  4   1 100  68 101  81 101  84 100
M  END
> <chiral flag>
0

> <version>
0

> <s_m_source_file>
/data/baiqing/PycharmProjects/Reinvent-master-3.2/result/LINK_invent/BTK/process_docking_weight1_custom_sum_contain_oxygen_bond_distance_aromatic_linkinvent_7_9_3/rearranged_h_0190.sdf

> <i_m_source_file_index>
47

> <r_mmod_Potential_Energy-OPLS-2005>
-87.2015075683594

> <r_mmod_Stretch_Energy-OPLS-2005>
127.329742431641

> <r_mmod_Bend_Energy-OPLS-2005>
217.121109008789

> <r_mmod_Torsional_Energy-OPLS-2005>
330.149597167969

> <r_mmod_Improper_Torsional_Energy-OPLS-2005>
11.7463111877441

> <r_mmod_Van_der_Waal_Energy-OPLS-2005>
136.178100585938

> <r_mmod_Electrostatic_Energy-OPLS-2005>
-771.069702148438

> <r_mmod_Solvation_Energy-OPLS-2005>
-229.732925415039

> <b_mmod_Minimization_Converged-OPLS-2005>
0

> <r_mmod_RMS_Derivative-OPLS-2005>
1.91719472408295

$$$$
47
                    3D
 Structure written by MMmdl.
162171  0  0  1  0            999 V2000
  -30.6619  -14.6187   20.4526 C   0  0  0  0  0  0
  -30.4141  -12.3658   19.4604 C   0  0  0  0  0  0
  -29.4997  -12.4871   18.2234 C   0  0  0  0  0  0
  -28.0202  -12.3464   18.6331 C   0  0  0  0  0  0
  -27.6409  -13.2279   19.8555 C   0  0  2  0  0  0
  -28.6867  -13.1268   20.9870 C   0  0  0  0  0  0
  -25.2490  -13.8187   20.5712 C   0  0  0  0  0  0
  -24.1786  -13.0431   20.9177 C   0  0  0  0  0  0
  -24.6374  -11.6907   20.8750 C   0  0  0  0  0  0
  -23.9072  -10.4286   21.0417 C   0  0  0  0  0  0
  -24.3606   -9.4205   21.9195 C   0  0  0  0  0  0
  -23.6255   -8.2259   22.0773 C   0  0  0  0  0  0
  -22.4254   -8.0278   21.3554 C   0  0  0  0  0  0
  -21.9908   -9.0265   20.4665 C   0  0  0  0  0  0
  -22.7244  -10.2128   20.3065 C   0  0  0  0  0  0
  -21.6854   -6.0721   22.5285 C   0  0  0  0  0  0
  -21.4012   -6.5644   23.8214 C   0  0  0  0  0  0
  -21.3643   -5.6806   24.9176 C   0  0  0  0  0  0
  -21.6032   -4.3063   24.7244 C   0  0  0  0  0  0
  -21.8808   -3.8137   23.4374 C   0  0  0  0  0  0
  -21.9198   -4.6946   22.3415 C   0  0  0  0  0  0
  -22.7809  -13.5199   21.1856 C   0  0  0  0  0  0
  -22.1666   -4.2125   21.0984 F   0  0  0  0  0  0
  -21.5612   -3.4563   25.7771 F   0  0  0  0  0  0
  -29.9965  -13.4247   20.3979 N   0  0  0  0  0  0
  -26.2922  -12.9413   20.3297 N   0  0  0  0  0  0
  -25.9309  -11.6561   20.5765 N   0  0  0  0  0  0
  -22.0448  -12.8219   22.0402 N   0  0  0  0  0  0
  -25.4167  -15.1933   20.4207 N   0  0  0  0  0  0
  -31.8674  -14.6861   20.1940 O   0  0  0  0  0  0
  -21.6632   -6.8862   21.4245 O   0  0  0  0  0  0
  -22.3522  -14.5526   20.6710 O   0  0  0  0  0  0
  -24.6254  -31.8607   23.2049 C   0  0  0  0  0  0
  -25.9108  -32.4774   23.8374 C   0  0  1  0  0  0
  -27.2197  -27.3524   20.1266 C   0  0  0  0  0  0
  -25.5953  -33.8583   24.2303 N   0  0  0  0  0  0
  -23.4150  -30.4880   21.5464 C   0  0  2  0  0  0
  -24.8590  -28.9467   20.1083 C   0  0  0  0  0  0
  -22.7468  -29.4651   22.4946 C   0  0  0  0  0  0
  -18.0284  -28.1390   22.8524 C   0  0  0  0  0  0
  -24.1473  -36.7283   23.2652 C   0  0  0  0  0  0
  -25.9507  -30.8070   21.3663 C   0  0  0  0  0  0
  -26.0255  -29.4376   20.7104 C   0  0  0  0  0  0
  -27.2120  -28.6538   20.7055 C   0  0  0  0  0  0
  -26.0357  -26.9028   19.5015 C   0  0  0  0  0  0
  -24.8648  -27.6837   19.4941 C   0  0  0  0  0  0
  -23.6233  -29.8225   20.1611 C   0  0  0  0  0  0
  -25.4106  -36.3084   24.0326 C   0  0  1  0  0  0
  -20.5891  -28.3703   23.1298 C   0  0  2  0  0  0
  -20.6774  -26.9432   22.5421 C   0  0  0  0  0  0
  -19.5728  -26.6396   21.5249 C   0  0  0  0  0  0
  -18.1904  -26.7945   22.1642 C   0  0  0  0  0  0
  -19.1540  -28.8867   23.2901 C   0  0  0  0  0  0
  -18.9456  -30.1479   23.8904 C   0  0  0  0  0  0
  -17.6451  -30.6600   24.0597 C   0  0  0  0  0  0
  -25.9039  -34.9457   23.5102 C   0  0  0  0  0  0
  -16.5341  -29.9093   23.6361 C   0  0  0  0  0  0
  -16.7270  -28.6511   23.0396 C   0  0  0  0  0  0
  -26.4507  -31.6586   25.0742 C   0  0  0  0  0  0
  -25.3715  -31.3633   26.1438 C   0  0  0  0  0  0
  -27.0449  -30.3060   24.6179 C   0  0  0  0  0  0
  -27.6073  -32.4352   25.7516 C   0  0  0  0  0  0
  -27.5564  -37.1783   24.8485 C   0  0  0  0  0  0
  -21.4186  -29.3048   22.3687 N   0  0  0  0  0  0
  -26.4290  -37.3775   23.9406 N   0  0  0  0  0  0
  -24.6829  -31.0678   22.0961 N   0  0  0  0  0  0
  -23.4220  -28.8204   23.3013 O   0  0  0  0  0  0
  -28.3448  -26.5302   20.1495 O   0  0  0  0  0  0
  -26.5598  -34.8934   22.4659 O   0  0  0  0  0  0
  -23.5423  -32.1403   23.7387 O   0  0  0  0  0  0
  -27.0235  -19.9222   19.0589 C   0  0  0  0  0  0
  -27.0182  -21.4447   19.0226 C   0  0  0  0  0  0
  -30.1391  -16.8065   21.4712 C   0  0  0  0  0  0
  -29.8915  -16.4903   19.1364 C   0  0  0  0  0  0
  -29.2097  -18.0729   21.3778 C   0  0  0  0  0  0
  -28.9424  -17.7292   19.0697 C   0  0  0  0  0  0
  -28.2365  -19.9506   20.0361 C   0  0  2  0  0  0
  -28.4855  -21.4372   19.4972 C   0  0  2  0  0  0
  -28.7948  -23.9796   19.8339 C   0  0  0  0  0  0
  -28.1725  -25.1649   20.6761 C   0  0  0  0  0  0
  -29.9065  -15.7731   20.4337 N   0  0  0  0  0  0
  -29.2269  -18.7768   20.0750 N   0  0  0  0  0  0
  -28.7247  -22.5898   20.4531 N   0  3  0  0  0  0
  -31.4622  -12.4514   19.1673 H   0  0  0  0  0  0
  -30.3097  -11.3825   19.9218 H   0  0  0  0  0  0
  -29.7575  -11.7334   17.4789 H   0  0  0  0  0  0
  -29.6573  -13.4506   17.7384 H   0  0  0  0  0  0
  -27.8400  -11.2971   18.8619 H   0  0  0  0  0  0
  -27.3749  -12.5834   17.7879 H   0  0  0  0  0  0
  -27.6476  -14.2579   19.4999 H   0  0  0  0  0  0
  -28.6839  -12.1330   21.4387 H   0  0  0  0  0  0
  -28.4580  -13.8355   21.7844 H   0  0  0  0  0  0
  -25.2741   -9.5687   22.4780 H   0  0  0  0  0  0
  -23.9948   -7.4671   22.7524 H   0  0  0  0  0  0
  -21.0837   -8.8782   19.8997 H   0  0  0  0  0  0
  -22.3683  -10.9664   19.6182 H   0  0  0  0  0  0
  -21.2005   -7.6154   23.9699 H   0  0  0  0  0  0
  -21.1466   -6.0547   25.9070 H   0  0  0  0  0  0
  -22.0596   -2.7603   23.2897 H   0  0  0  0  0  0
  -22.4078  -11.9865   22.4761 H   0  0  0  0  0  0
  -21.1081  -13.1274   22.2643 H   0  0  0  0  0  0
  -24.6452  -15.8383   20.5450 H   0  0  0  0  0  0
  -26.2776  -15.6513   20.1539 H   0  0  0  0  0  0
  -26.7195  -32.5472   23.1159 H   0  0  0  0  0  0
  -25.0202  -33.9718   25.0524 H   0  0  0  0  0  0
  -22.7067  -31.3078   21.4086 H   0  0  0  0  0  0
  -23.3750  -35.9600   23.3333 H   0  0  0  0  0  0
  -24.3550  -36.8909   22.2068 H   0  0  0  0  0  0
  -23.7228  -37.6472   23.6691 H   0  0  0  0  0  0
  -26.0686  -31.5682   20.5942 H   0  0  0  0  0  0
  -26.8361  -30.8614   21.9856 H   0  0  0  0  0  0
  -28.1102  -29.0275   21.1770 H   0  0  0  0  0  0
  -26.0111  -25.9366   19.0174 H   0  0  0  0  0  0
  -23.9723  -27.3033   19.0183 H   0  0  0  0  0  0
  -23.7296  -30.5978   19.4014 H   0  0  0  0  0  0
  -22.7428  -29.2458   19.8714 H   0  0  0  0  0  0
  -25.1293  -36.1933   25.0820 H   0  0  0  0  0  0
  -20.9984  -28.3279   24.1416 H   0  0  0  0  0  0
  -20.5727  -26.2310   23.3609 H   0  0  0  0  0  0
  -21.6627  -26.7478   22.1182 H   0  0  0  0  0  0
  -19.6879  -25.6316   21.1260 H   0  0  0  0  0  0
  -19.6664  -27.3219   20.6784 H   0  0  0  0  0  0
  -17.4203  -26.6792   21.4004 H   0  0  0  0  0  0
  -18.0226  -26.0072   22.8992 H   0  0  0  0  0  0
  -19.7933  -30.7319   24.2254 H   0  0  0  0  0  0
  -17.5009  -31.6275   24.5207 H   0  0  0  0  0  0
  -15.5343  -30.3003   23.7682 H   0  0  0  0  0  0
  -15.8678  -28.0830   22.7107 H   0  0  0  0  0  0
  -24.6002  -30.6883   25.7722 H   0  0  0  0  0  0
  -24.8750  -32.2725   26.4821 H   0  0  0  0  0  0
  -25.8030  -30.8865   27.0245 H   0  0  0  0  0  0
  -26.3026  -29.6655   24.1407 H   0  0  0  0  0  0
  -27.4442  -29.7482   25.4654 H   0  0  0  0  0  0
  -27.8737  -30.4447   23.9241 H   0  0  0  0  0  0
  -27.2751  -33.3748   26.1955 H   0  0  0  0  0  0
  -28.3951  -32.6736   25.0352 H   0  0  0  0  0  0
  -28.0665  -31.8551   26.5528 H   0  0  0  0  0  0
  -28.2590  -38.0081   24.7570 H   0  0  0  0  0  0
  -28.1068  -36.2603   24.6315 H   0  0  0  0  0  0
  -27.2266  -37.1465   25.8891 H   0  0  0  0  0  0
  -20.9345  -29.8793   21.6924 H   0  0  0  0  0  0
  -26.0166  -38.2841   24.1439 H   0  0  0  0  0  0
  -27.2169  -19.5293   18.0597 H   0  0  0  0  0  0
  -26.1063  -19.4917   19.4667 H   0  0  0  0  0  0
  -26.3122  -21.8584   19.7474 H   0  0  0  0  0  0
  -26.8528  -21.8755   18.0331 H   0  0  0  0  0  0
  -29.9972  -16.3493   22.4532 H   0  0  0  0  0  0
  -31.1885  -17.1148   21.4464 H   0  0  0  0  0  0
  -30.9068  -16.7984   18.8742 H   0  0  0  0  0  0
  -29.5828  -15.7914   18.3562 H   0  0  0  0  0  0
  -29.5181  -18.7777   22.1534 H   0  0  0  0  0  0
  -28.1873  -17.7802   21.6237 H   0  0  0  0  0  0
  -27.9102  -17.3833   19.1621 H   0  0  0  0  0  0
  -29.0347  -18.1684   18.0734 H   0  0  0  0  0  0
  -27.8315  -20.0375   21.0467 H   0  0  0  0  0  0
  -29.1825  -21.4503   18.6552 H   0  0  0  0  0  0
  -29.8456  -24.1995   19.6396 H   0  0  0  0  0  0
  -28.3066  -23.9651   18.8612 H   0  0  0  0  0  0
  -28.6182  -25.1660   21.6720 H   0  0  0  0  0  0
  -27.1196  -24.9403   20.8541 H   0  0  0  0  0  0
  -29.5882  -22.4291   20.9525 H   0  0  0  0  0  0
  -27.9975  -22.5814   21.1511 H   0  0  0  0  0  0
  1 25  1  0  0  0
  1 30  2  0  0  0
  1 81  1  0  0  0
  2  3  1  0  0  0
  2 25  1  0  0  0
  2 84  1  0  0  0
  2 85  1  0  0  0
  3  4  1  0  0  0
  3 86  1  0  0  0
  3 87  1  0  0  0
  4  5  1  0  0  0
  4 88  1  0  0  0
  4 89  1  0  0  0
  5  6  1  0  0  0
  5 26  1  0  0  0
  5 90  1  0  0  0
  6 25  1  0  0  0
  6 91  1  0  0  0
  6 92  1  0  0  0
  7  8  2  0  0  0
  7 26  1  0  0  0
  7 29  1  0  0  0
  8  9  1  0  0  0
  8 22  1  0  0  0
  9 10  1  0  0  0
  9 27  2  0  0  0
 10 11  2  0  0  0
 10 15  1  0  0  0
 11 12  1  0  0  0
 11 93  1  0  0  0
 12 13  2  0  0  0
 12 94  1  0  0  0
 13 14  1  0  0  0
 13 31  1  0  0  0
 14 15  2  0  0  0
 14 95  1  0  0  0
 15 96  1  0  0  0
 16 17  2  0  0  0
 16 21  1  0  0  0
 16 31  1  0  0  0
 17 18  1  0  0  0
 17 97  1  0  0  0
 18 19  2  0  0  0
 18 98  1  0  0  0
 19 20  1  0  0  0
 19 24  1  0  0  0
 20 21  2  0  0  0
 20 99  1  0  0  0
 21 23  1  0  0  0
 22 28  1  0  0  0
 22 32  2  0  0  0
 26 27  1  0  0  0
 28100  1  0  0  0
 28101  1  0  0  0
 29102  1  0  0  0
 29103  1  0  0  0
 33 34  1  0  0  0
 33 66  1  0  0  0
 33 70  2  0  0  0
 34 36  1  0  0  0
 34 59  1  0  0  0
 34104  1  0  0  0
 35 44  2  0  0  0
 35 45  1  0  0  0
 35 68  1  0  0  0
 36 56  1  0  0  0
 36105  1  0  0  0
 37 39  1  0  0  0
 37 47  1  0  0  0
 37 66  1  0  0  0
 37106  1  0  0  0
 38 43  2  0  0  0
 38 46  1  0  0  0
 38 47  1  0  0  0
 39 64  1  0  0  0
 39 67  2  0  0  0
 40 52  1  0  0  0
 40 53  2  0  0  0
 40 58  1  0  0  0
 41107  1  0  0  0
 41108  1  0  0  0
 41109  1  0  0  0
 41 48  1  0  0  0
 42 43  1  0  0  0
 42 66  1  0  0  0
 42110  1  0  0  0
 42111  1  0  0  0
 43 44  1  0  0  0
 44112  1  0  0  0
 45 46  2  0  0  0
 45113  1  0  0  0
 46114  1  0  0  0
 47115  1  0  0  0
 47116  1  0  0  0
 48 56  1  0  0  0
 48 65  1  0  0  0
 48117  1  0  0  0
 49 50  1  0  0  0
 49 53  1  0  0  0
 49 64  1  0  0  0
 49118  1  0  0  0
 50 51  1  0  0  0
 50119  1  0  0  0
 50120  1  0  0  0
 51 52  1  0  0  0
 51121  1  0  0  0
 51122  1  0  0  0
 52123  1  0  0  0
 52124  1  0  0  0
 53 54  1  0  0  0
 54 55  2  0  0  0
 54125  1  0  0  0
 55 57  1  0  0  0
 55126  1  0  0  0
 56 69  2  0  0  0
 57 58  2  0  0  0
 57127  1  0  0  0
 58128  1  0  0  0
 59 60  1  0  0  0
 59 61  1  0  0  0
 59 62  1  0  0  0
 60129  1  0  0  0
 60130  1  0  0  0
 60131  1  0  0  0
 61132  1  0  0  0
 61133  1  0  0  0
 61134  1  0  0  0
 62135  1  0  0  0
 62136  1  0  0  0
 62137  1  0  0  0
 63 65  1  0  0  0
 63138  1  0  0  0
 63139  1  0  0  0
 63140  1  0  0  0
 64141  1  0  0  0
 65142  1  0  0  0
 68 80  1  0  0  0
 71 72  1  0  0  0
 71 77  1  0  0  0
 71143  1  0  0  0
 71144  1  0  0  0
 72 78  1  0  0  0
 72145  1  0  0  0
 72146  1  0  0  0
 73 75  1  0  0  0
 73 81  1  0  0  0
 73147  1  0  0  0
 73148  1  0  0  0
 74 76  1  0  0  0
 74 81  1  0  0  0
 74149  1  0  0  0
 74150  1  0  0  0
 75151  1  0  0  0
 75152  1  0  0  0
 75 82  1  0  0  0
 76 82  1  0  0  0
 76153  1  0  0  0
 76154  1  0  0  0
 77 78  1  0  0  0
 77 82  1  0  0  0
 77155  1  0  0  0
 78 83  1  0  0  0
 78156  1  0  0  0
 79 80  1  0  0  0
 79 83  1  0  0  0
 79157  1  0  0  0
 79158  1  0  0  0
 80159  1  0  0  0
 80160  1  0  0  0
 83161  1  0  0  0
 83162  1  0  0  0
M  CHG  1  83   1
M  ISO  4   1 100  68 101  80 101  81 100
M  END
> <chiral flag>
0

> <version>
0

> <s_m_source_file>
/data/baiqing/PycharmProjects/Reinvent-master-3.2/result/LINK_invent/BTK/process_docking_weight1_custom_sum_contain_oxygen_bond_distance_aromatic_linkinvent_7_9_3/rearranged_h_0190.sdf

> <i_m_source_file_index>
48

> <r_mmod_Potential_Energy-OPLS-2005>
147.066909790039

> <r_mmod_Stretch_Energy-OPLS-2005>
78.7931289672852

> <r_mmod_Bend_Energy-OPLS-2005>
154.774047851562

> <r_mmod_Torsional_Energy-OPLS-2005>
408.989044189453

> <r_mmod_Improper_Torsional_Energy-OPLS-2005>
14.6006984710693

> <r_mmod_Van_der_Waal_Energy-OPLS-2005>
131.321594238281

> <r_mmod_Electrostatic_Energy-OPLS-2005>
-239.251770019531

> <r_mmod_Solvation_Energy-OPLS-2005>
-446.402191162109

> <b_mmod_Minimization_Converged-OPLS-2005>
0

> <r_mmod_RMS_Derivative-OPLS-2005>
4.48331117630005

$$$$
48
                    3D
 Structure written by MMmdl.
156165  0  0  1  0            999 V2000
  -30.6823  -14.8277   20.4441 C   0  0  0  0  0  0
  -30.4053  -12.5230   19.4840 C   0  0  0  0  0  0
  -29.4969  -12.5016   18.2397 C   0  0  0  0  0  0
  -28.0337  -12.2990   18.6662 C   0  0  0  0  0  0
  -27.6217  -13.2387   19.8286 C   0  0  2  0  0  0
  -28.6703  -13.2860   20.9643 C   0  0  0  0  0  0
  -25.2421  -13.8192   20.5702 C   0  0  0  0  0  0
  -24.1750  -13.0422   20.9246 C   0  0  0  0  0  0
  -24.6367  -11.6911   20.8779 C   0  0  0  0  0  0
  -23.9060  -10.4283   21.0424 C   0  0  0  0  0  0
  -24.3616   -9.4197   21.9194 C   0  0  0  0  0  0
  -23.6292   -8.2232   22.0757 C   0  0  0  0  0  0
  -22.4273   -8.0274   21.3546 C   0  0  0  0  0  0
  -21.9910   -9.0247   20.4648 C   0  0  0  0  0  0
  -22.7239  -10.2126   20.3063 C   0  0  0  0  0  0
  -21.6852   -6.0729   22.5276 C   0  0  0  0  0  0
  -21.4015   -6.5636   23.8209 C   0  0  0  0  0  0
  -21.3661   -5.6790   24.9172 C   0  0  0  0  0  0
  -21.6043   -4.3052   24.7225 C   0  0  0  0  0  0
  -21.8818   -3.8143   23.4347 C   0  0  0  0  0  0
  -21.9192   -4.6958   22.3402 C   0  0  0  0  0  0
  -22.7774  -13.5195   21.1895 C   0  0  0  0  0  0
  -22.1661   -4.2144   21.0980 F   0  0  0  0  0  0
  -21.5630   -3.4537   25.7739 F   0  0  0  0  0  0
  -29.9505  -13.6510   20.3479 N   0  0  0  0  0  0
  -26.2842  -12.9418   20.3239 N   0  0  0  0  0  0
  -25.9295  -11.6557   20.5770 N   0  0  0  0  0  0
  -22.0431  -12.8181   22.0454 N   0  0  0  0  0  0
  -25.4036  -15.1913   20.4074 N   0  0  0  0  0  0
  -31.8885  -14.7298   20.1984 O   0  0  0  0  0  0
  -21.6638   -6.8871   21.4238 O   0  0  0  0  0  0
  -22.3455  -14.5498   20.6737 O   0  0  0  0  0  0
  -24.6362  -31.8508   23.1949 C   0  0  0  0  0  0
  -25.9168  -32.4727   23.8309 C   0  0  1  0  0  0
  -27.2132  -27.2105   20.1235 C   0  0  0  0  0  0
  -25.5942  -33.8531   24.2228 N   0  0  0  0  0  0
  -23.4347  -30.4746   21.5395 C   0  0  2  0  0  0
  -24.8798  -28.9179   20.1059 C   0  0  0  0  0  0
  -22.7529  -29.4583   22.4884 C   0  0  0  0  0  0
  -18.0299  -28.1390   22.8481 C   0  0  0  0  0  0
  -24.1488  -36.7266   23.2642 C   0  0  0  0  0  0
  -25.9859  -30.7473   21.3828 C   0  0  0  0  0  0
  -26.0546  -29.3674   20.7200 C   0  0  0  0  0  0
  -27.2196  -28.5257   20.7194 C   0  0  0  0  0  0
  -26.0035  -26.8384   19.4917 C   0  0  0  0  0  0
  -24.8627  -27.6635   19.4820 C   0  0  0  0  0  0
  -23.6545  -29.8114   20.1548 C   0  0  0  0  0  0
  -25.4119  -36.3051   24.0321 C   0  0  1  0  0  0
  -20.5907  -28.3706   23.1253 C   0  0  2  0  0  0
  -20.6782  -26.9416   22.5406 C   0  0  0  0  0  0
  -19.5756  -26.6382   21.5210 C   0  0  0  0  0  0
  -18.1939  -26.7930   22.1626 C   0  0  0  0  0  0
  -19.1554  -28.8865   23.2862 C   0  0  0  0  0  0
  -18.9474  -30.1462   23.8886 C   0  0  0  0  0  0
  -17.6471  -30.6587   24.0564 C   0  0  0  0  0  0
  -25.9065  -34.9423   23.5080 C   0  0  0  0  0  0
  -16.5363  -29.9085   23.6332 C   0  0  0  0  0  0
  -16.7285  -28.6503   23.0352 C   0  0  0  0  0  0
  -26.4514  -31.6571   25.0722 C   0  0  0  0  0  0
  -25.3718  -31.3740   26.1431 C   0  0  0  0  0  0
  -27.0370  -30.2977   24.6257 C   0  0  0  0  0  0
  -27.6054  -32.4328   25.7503 C   0  0  0  0  0  0
  -27.5574  -37.1792   24.8467 C   0  0  0  0  0  0
  -21.4230  -29.3042   22.3630 N   0  0  0  0  0  0
  -26.4288  -37.3756   23.9408 N   0  0  0  0  0  0
  -24.7052  -31.0434   22.0947 N   0  0  0  0  0  0
  -23.4209  -28.8122   23.2999 O   0  0  0  0  0  0
  -28.2954  -26.2863   20.2269 O   0  0  0  0  0  0
  -26.5646  -34.8910   22.4656 O   0  0  0  0  0  0
  -23.5502  -32.1354   23.7217 O   0  0  0  0  0  0
  -29.8564  -22.9615   20.5339 C   0  0  0  0  0  0
  -28.6101  -23.4823   20.0635 C   0  0  0  0  0  0
  -29.1121  -20.7250   20.4108 C   0  0  0  0  0  0
  -30.6831  -18.7150   20.9017 C   0  0  0  0  0  0
  -28.4159  -18.1766   20.2744 C   0  0  0  0  0  0
  -31.0430  -17.3230   20.2321 C   0  0  0  0  0  0
  -28.7909  -16.6991   20.8238 C   0  0  0  0  0  0
  -31.0366  -23.8758   20.7941 C   0  0  0  0  0  0
  -28.3737  -24.9737   19.4613 C   0  0  0  0  0  0
  -30.0888  -21.6080   20.7080 N   0  0  0  0  0  0
  -27.6641  -22.5130   19.8137 N   0  0  0  0  0  0
  -27.9012  -21.1713   19.9906 N   0  0  0  0  0  0
  -29.3801  -19.2878   20.5162 N   0  0  0  0  0  0
  -30.1458  -16.1449   20.5022 N   0  0  0  0  0  0
  -31.4461  -12.6115   19.1688 H   0  0  0  0  0  0
  -30.3456  -11.5765   20.0234 H   0  0  0  0  0  0
  -29.8026  -11.7063   17.5583 H   0  0  0  0  0  0
  -29.5986  -13.4374   17.6881 H   0  0  0  0  0  0
  -27.9247  -11.2592   18.9761 H   0  0  0  0  0  0
  -27.3669  -12.4333   17.8137 H   0  0  0  0  0  0
  -27.5762  -14.2244   19.3702 H   0  0  0  0  0  0
  -28.7419  -12.3235   21.4728 H   0  0  0  0  0  0
  -28.3880  -14.0153   21.7243 H   0  0  0  0  0  0
  -25.2760   -9.5674   22.4770 H   0  0  0  0  0  0
  -24.0001   -7.4619   22.7472 H   0  0  0  0  0  0
  -21.0845   -8.8765   19.8950 H   0  0  0  0  0  0
  -22.3699  -10.9666   19.6173 H   0  0  0  0  0  0
  -21.2009   -7.6144   23.9709 H   0  0  0  0  0  0
  -21.1486   -6.0523   25.9074 H   0  0  0  0  0  0
  -22.0598   -2.7606   23.2848 H   0  0  0  0  0  0
  -22.4066  -11.9848   22.4836 H   0  0  0  0  0  0
  -21.1048  -13.1194   22.2670 H   0  0  0  0  0  0
  -24.6283  -15.8364   20.5143 H   0  0  0  0  0  0
  -26.2371  -15.6308   20.0427 H   0  0  0  0  0  0
  -26.7231  -32.5352   23.1040 H   0  0  0  0  0  0
  -25.0063  -33.9657   25.0357 H   0  0  0  0  0  0
  -22.7334  -31.2988   21.3930 H   0  0  0  0  0  0
  -23.3751  -35.9598   23.3307 H   0  0  0  0  0  0
  -24.3571  -36.8892   22.2056 H   0  0  0  0  0  0
  -23.7246  -37.6467   23.6673 H   0  0  0  0  0  0
  -26.1354  -31.5080   20.6155 H   0  0  0  0  0  0
  -26.8592  -30.7916   22.0218 H   0  0  0  0  0  0
  -28.1156  -28.8634   21.2211 H   0  0  0  0  0  0
  -25.8679  -25.8711   19.0381 H   0  0  0  0  0  0
  -23.9580  -27.3079   19.0079 H   0  0  0  0  0  0
  -23.7850  -30.5893   19.4016 H   0  0  0  0  0  0
  -22.7703  -29.2509   19.8458 H   0  0  0  0  0  0
  -25.1305  -36.1888   25.0814 H   0  0  0  0  0  0
  -21.0003  -28.3291   24.1372 H   0  0  0  0  0  0
  -20.5674  -26.2319   23.3618 H   0  0  0  0  0  0
  -21.6650  -26.7427   22.1205 H   0  0  0  0  0  0
  -19.6917  -25.6290   21.1246 H   0  0  0  0  0  0
  -19.6691  -27.3188   20.6735 H   0  0  0  0  0  0
  -17.4205  -26.6669   21.4033 H   0  0  0  0  0  0
  -18.0345  -26.0077   22.9030 H   0  0  0  0  0  0
  -19.7949  -30.7278   24.2255 H   0  0  0  0  0  0
  -17.5026  -31.6264   24.5172 H   0  0  0  0  0  0
  -15.5363  -30.2983   23.7661 H   0  0  0  0  0  0
  -15.8685  -28.0818   22.7072 H   0  0  0  0  0  0
  -24.5896  -30.7089   25.7752 H   0  0  0  0  0  0
  -24.8908  -32.2918   26.4825 H   0  0  0  0  0  0
  -25.8018  -30.8933   27.0227 H   0  0  0  0  0  0
  -26.2970  -29.6709   24.1267 H   0  0  0  0  0  0
  -27.4007  -29.7260   25.4806 H   0  0  0  0  0  0
  -27.8869  -30.4226   23.9544 H   0  0  0  0  0  0
  -27.2647  -33.3635   26.2051 H   0  0  0  0  0  0
  -28.3879  -32.6878   25.0345 H   0  0  0  0  0  0
  -28.0705  -31.8475   26.5445 H   0  0  0  0  0  0
  -28.2595  -38.0084   24.7501 H   0  0  0  0  0  0
  -28.1066  -36.2613   24.6312 H   0  0  0  0  0  0
  -27.2289  -37.1461   25.8870 H   0  0  0  0  0  0
  -20.9424  -29.8761   21.6825 H   0  0  0  0  0  0
  -26.0159  -38.2827   24.1408 H   0  0  0  0  0  0
  -31.4705  -19.4267   20.6493 H   0  0  0  0  0  0
  -30.7073  -18.6185   21.9882 H   0  0  0  0  0  0
  -27.4515  -18.4694   20.6932 H   0  0  0  0  0  0
  -28.2589  -18.1196   19.1963 H   0  0  0  0  0  0
  -32.0607  -17.1000   20.5561 H   0  0  0  0  0  0
  -31.1063  -17.4500   19.1504 H   0  0  0  0  0  0
  -28.0335  -16.0133   20.4652 H   0  0  0  0  0  0
  -28.6954  -16.6930   21.9103 H   0  0  0  0  0  0
  -30.7085  -24.8011   21.2681 H   0  0  0  0  0  0
  -31.5331  -24.1283   19.8572 H   0  0  0  0  0  0
  -31.7669  -23.4045   21.4523 H   0  0  0  0  0  0
  -27.5897  -24.8847   18.7166 H   0  0  0  0  0  0
  -29.2503  -25.1247   18.8311 H   0  0  0  0  0  0
  1 25  1  0  0  0
  1 30  2  0  0  0
  1 84  1  0  0  0
  2  3  1  0  0  0
  2 25  1  0  0  0
  2 85  1  0  0  0
  2 86  1  0  0  0
  3  4  1  0  0  0
  3 87  1  0  0  0
  3 88  1  0  0  0
  4  5  1  0  0  0
  4 89  1  0  0  0
  4 90  1  0  0  0
  5  6  1  0  0  0
  5 26  1  0  0  0
  5 91  1  0  0  0
  6 25  1  0  0  0
  6 92  1  0  0  0
  6 93  1  0  0  0
  7  8  2  0  0  0
  7 26  1  0  0  0
  7 29  1  0  0  0
  8  9  1  0  0  0
  8 22  1  0  0  0
  9 10  1  0  0  0
  9 27  2  0  0  0
 10 11  2  0  0  0
 10 15  1  0  0  0
 11 12  1  0  0  0
 11 94  1  0  0  0
 12 13  2  0  0  0
 12 95  1  0  0  0
 13 14  1  0  0  0
 13 31  1  0  0  0
 14 15  2  0  0  0
 14 96  1  0  0  0
 15 97  1  0  0  0
 16 17  2  0  0  0
 16 21  1  0  0  0
 16 31  1  0  0  0
 17 18  1  0  0  0
 17 98  1  0  0  0
 18 19  2  0  0  0
 18 99  1  0  0  0
 19 20  1  0  0  0
 19 24  1  0  0  0
 20 21  2  0  0  0
 20100  1  0  0  0
 21 23  1  0  0  0
 22 28  1  0  0  0
 22 32  2  0  0  0
 26 27  1  0  0  0
 28101  1  0  0  0
 28102  1  0  0  0
 29103  1  0  0  0
 29104  1  0  0  0
 33 34  1  0  0  0
 33 66  1  0  0  0
 33 70  2  0  0  0
 34 36  1  0  0  0
 34 59  1  0  0  0
 34105  1  0  0  0
 35 44  2  0  0  0
 35 45  1  0  0  0
 35 68  1  0  0  0
 36 56  1  0  0  0
 36106  1  0  0  0
 37 39  1  0  0  0
 37 47  1  0  0  0
 37 66  1  0  0  0
 37107  1  0  0  0
 38 43  2  0  0  0
 38 46  1  0  0  0
 38 47  1  0  0  0
 39 64  1  0  0  0
 39 67  2  0  0  0
 40 52  1  0  0  0
 40 53  2  0  0  0
 40 58  1  0  0  0
 41108  1  0  0  0
 41109  1  0  0  0
 41110  1  0  0  0
 41 48  1  0  0  0
 42 43  1  0  0  0
 42 66  1  0  0  0
 42111  1  0  0  0
 42112  1  0  0  0
 43 44  1  0  0  0
 44113  1  0  0  0
 45 46  2  0  0  0
 45114  1  0  0  0
 46115  1  0  0  0
 47116  1  0  0  0
 47117  1  0  0  0
 48 56  1  0  0  0
 48 65  1  0  0  0
 48118  1  0  0  0
 49 50  1  0  0  0
 49 53  1  0  0  0
 49 64  1  0  0  0
 49119  1  0  0  0
 50 51  1  0  0  0
 50120  1  0  0  0
 50121  1  0  0  0
 51 52  1  0  0  0
 51122  1  0  0  0
 51123  1  0  0  0
 52124  1  0  0  0
 52125  1  0  0  0
 53 54  1  0  0  0
 54 55  2  0  0  0
 54126  1  0  0  0
 55 57  1  0  0  0
 55127  1  0  0  0
 56 69  2  0  0  0
 57 58  2  0  0  0
 57128  1  0  0  0
 58129  1  0  0  0
 59 60  1  0  0  0
 59 61  1  0  0  0
 59 62  1  0  0  0
 60130  1  0  0  0
 60131  1  0  0  0
 60132  1  0  0  0
 61133  1  0  0  0
 61134  1  0  0  0
 61135  1  0  0  0
 62136  1  0  0  0
 62137  1  0  0  0
 62138  1  0  0  0
 63 65  1  0  0  0
 63139  1  0  0  0
 63140  1  0  0  0
 63141  1  0  0  0
 64142  1  0  0  0
 65143  1  0  0  0
 68 79  1  0  0  0
 71 72  2  0  0  0
 71 78  1  0  0  0
 71 80  1  0  0  0
 72 79  1  0  0  0
 72 81  1  0  0  0
 73 80  2  0  0  0
 73 82  1  0  0  0
 73 83  1  0  0  0
 74 76  1  0  0  0
 74 83  1  0  0  0
 74144  1  0  0  0
 74145  1  0  0  0
 75 77  1  0  0  0
 75 83  1  0  0  0
 75146  1  0  0  0
 75147  1  0  0  0
 76 84  1  0  0  0
 76148  1  0  0  0
 76149  1  0  0  0
 77 84  1  0  0  0
 77150  1  0  0  0
 77151  1  0  0  0
 78152  1  0  0  0
 78153  1  0  0  0
 78154  1  0  0  0
 79155  1  0  0  0
 79156  1  0  0  0
 81 82  2  0  0  0
M  ISO  4   1 100  68 101  79 101  84 100
M  END
> <chiral flag>
0

> <version>
0

> <s_m_source_file>
/data/baiqing/PycharmProjects/Reinvent-master-3.2/result/LINK_invent/BTK/process_docking_weight1_custom_sum_contain_oxygen_bond_distance_aromatic_linkinvent_7_9_3/rearranged_h_0190.sdf

> <i_m_source_file_index>
49

> <r_mmod_Potential_Energy-OPLS-2005>
435.103332519531

> <r_mmod_Stretch_Energy-OPLS-2005>
159.410430908203

> <r_mmod_Bend_Energy-OPLS-2005>
256.971038818359

> <r_mmod_Torsional_Energy-OPLS-2005>
322.496734619141

> <r_mmod_Improper_Torsional_Energy-OPLS-2005>
10.0165004730225

> <r_mmod_Van_der_Waal_Energy-OPLS-2005>
164.336715698242

> <r_mmod_Electrostatic_Energy-OPLS-2005>
-366.037689208984

> <r_mmod_Solvation_Energy-OPLS-2005>
-242.919830322266

> <b_mmod_Minimization_Converged-OPLS-2005>
0

> <r_mmod_RMS_Derivative-OPLS-2005>
0.426197230815887

$$$$
49
                    3D
 Structure written by MMmdl.
162171  0  0  1  0            999 V2000
  -30.6385  -14.7680   20.4517 C   0  0  0  0  0  0
  -30.4348  -12.4658   19.5070 C   0  0  0  0  0  0
  -29.5285  -12.4739   18.2577 C   0  0  0  0  0  0
  -28.0540  -12.2964   18.6640 C   0  0  0  0  0  0
  -27.6343  -13.2324   19.8279 C   0  0  2  0  0  0
  -28.6686  -13.2413   20.9737 C   0  0  0  0  0  0
  -25.2511  -13.8192   20.5644 C   0  0  0  0  0  0
  -24.1832  -13.0476   20.9229 C   0  0  0  0  0  0
  -24.6430  -11.6951   20.8771 C   0  0  0  0  0  0
  -23.9124  -10.4302   21.0386 C   0  0  0  0  0  0
  -24.3684   -9.4216   21.9149 C   0  0  0  0  0  0
  -23.6333   -8.2253   22.0716 C   0  0  0  0  0  0
  -22.4304   -8.0283   21.3521 C   0  0  0  0  0  0
  -21.9948   -9.0274   20.4640 C   0  0  0  0  0  0
  -22.7298  -10.2160   20.3049 C   0  0  0  0  0  0
  -21.6865   -6.0731   22.5287 C   0  0  0  0  0  0
  -21.4018   -6.5641   23.8215 C   0  0  0  0  0  0
  -21.3693   -5.6790   24.9186 C   0  0  0  0  0  0
  -21.6066   -4.3049   24.7219 C   0  0  0  0  0  0
  -21.8816   -3.8147   23.4316 C   0  0  0  0  0  0
  -21.9197   -4.6974   22.3388 C   0  0  0  0  0  0
  -22.7846  -13.5274   21.1821 C   0  0  0  0  0  0
  -22.1653   -4.2164   21.0954 F   0  0  0  0  0  0
  -21.5657   -3.4520   25.7714 F   0  0  0  0  0  0
  -29.9724  -13.5672   20.3833 N   0  0  0  0  0  0
  -26.2896  -12.9393   20.3123 N   0  0  0  0  0  0
  -25.9327  -11.6545   20.5685 N   0  0  0  0  0  0
  -22.0464  -12.8321   22.0386 N   0  0  0  0  0  0
  -25.4259  -15.1909   20.4051 N   0  0  0  0  0  0
  -31.8602  -14.7764   20.2523 O   0  0  0  0  0  0
  -21.6669   -6.8869   21.4225 O   0  0  0  0  0  0
  -22.3522  -14.5542   20.6588 O   0  0  0  0  0  0
  -24.6341  -31.8480   23.1946 C   0  0  0  0  0  0
  -25.9147  -32.4711   23.8289 C   0  0  1  0  0  0
  -27.2186  -27.2379   20.1360 C   0  0  0  0  0  0
  -25.5919  -33.8512   24.2206 N   0  0  0  0  0  0
  -23.4324  -30.4724   21.5369 C   0  0  2  0  0  0
  -24.8806  -28.9138   20.1138 C   0  0  0  0  0  0
  -22.7503  -29.4571   22.4864 C   0  0  0  0  0  0
  -18.0297  -28.1388   22.8448 C   0  0  0  0  0  0
  -24.1505  -36.7294   23.2641 C   0  0  0  0  0  0
  -25.9796  -30.7597   21.3741 C   0  0  0  0  0  0
  -26.0548  -29.3782   20.7212 C   0  0  0  0  0  0
  -27.2290  -28.5532   20.7204 C   0  0  0  0  0  0
  -26.0202  -26.8548   19.4905 C   0  0  0  0  0  0
  -24.8683  -27.6613   19.4876 C   0  0  0  0  0  0
  -23.6549  -29.8028   20.1568 C   0  0  0  0  0  0
  -25.4122  -36.3029   24.0318 C   0  0  1  0  0  0
  -20.5903  -28.3694   23.1250 C   0  0  2  0  0  0
  -20.6778  -26.9403   22.5425 C   0  0  0  0  0  0
  -19.5785  -26.6360   21.5194 C   0  0  0  0  0  0
  -18.1943  -26.7934   22.1564 C   0  0  0  0  0  0
  -19.1547  -28.8863   23.2837 C   0  0  0  0  0  0
  -18.9463  -30.1443   23.8875 C   0  0  0  0  0  0
  -17.6460  -30.6577   24.0558 C   0  0  0  0  0  0
  -25.9057  -34.9403   23.5044 C   0  0  0  0  0  0
  -16.5353  -29.9075   23.6329 C   0  0  0  0  0  0
  -16.7270  -28.6502   23.0337 C   0  0  0  0  0  0
  -26.4570  -31.6537   25.0665 C   0  0  0  0  0  0
  -25.3831  -31.3667   26.1419 C   0  0  0  0  0  0
  -27.0400  -30.2960   24.6124 C   0  0  0  0  0  0
  -27.6080  -32.4303   25.7434 C   0  0  0  0  0  0
  -27.5595  -37.1779   24.8450 C   0  0  0  0  0  0
  -21.4215  -29.3028   22.3637 N   0  0  0  0  0  0
  -26.4288  -37.3743   23.9413 N   0  0  0  0  0  0
  -24.7009  -31.0450   22.0914 N   0  0  0  0  0  0
  -23.4181  -28.8103   23.2970 O   0  0  0  0  0  0
  -28.2984  -26.3177   20.1968 O   0  0  0  0  0  0
  -26.5632  -34.8901   22.4621 O   0  0  0  0  0  0
  -23.5482  -32.1297   23.7230 O   0  0  0  0  0  0
  -27.4244  -20.1881   20.3829 C   0  0  0  0  0  0
  -27.5667  -21.6612   19.9150 C   0  0  0  0  0  0
  -29.6161  -21.0587   20.7118 C   0  0  0  0  0  0
  -30.2991  -16.7151   18.9411 C   0  0  0  0  0  0
  -29.3979  -17.0423   21.0458 C   0  0  0  0  0  0
  -28.7903  -19.6978   20.9223 C   0  0  2  0  0  0
  -30.1407  -18.2516   19.1915 C   0  0  1  0  0  0
  -29.7433  -18.9936   17.8958 C   0  0  0  0  0  0
  -29.0904  -23.6415   20.3524 C   0  0  0  0  0  0
  -27.9873  -24.8350   20.2443 C   0  0  0  0  0  0
  -29.9278  -15.9387   20.1561 N   0  0  0  0  0  0
  -28.6520  -22.2213   20.7119 N   0  0  0  0  0  0
  -29.1490  -18.3356   20.2721 N   0  3  1  0  0  0
  -31.4834  -12.5653   19.2159 H   0  0  0  0  0  0
  -30.3667  -11.5171   20.0404 H   0  0  0  0  0  0
  -29.8250  -11.6764   17.5761 H   0  0  0  0  0  0
  -29.6562  -13.4071   17.7092 H   0  0  0  0  0  0
  -27.9284  -11.2539   18.9657 H   0  0  0  0  0  0
  -27.4059  -12.4466   17.8020 H   0  0  0  0  0  0
  -27.6115  -14.2343   19.4042 H   0  0  0  0  0  0
  -28.7035  -12.2786   21.4864 H   0  0  0  0  0  0
  -28.3885  -13.9813   21.7236 H   0  0  0  0  0  0
  -25.2830   -9.5700   22.4716 H   0  0  0  0  0  0
  -24.0057   -7.4664   22.7433 H   0  0  0  0  0  0
  -21.0856   -8.8859   19.8971 H   0  0  0  0  0  0
  -22.3736  -10.9727   19.6195 H   0  0  0  0  0  0
  -21.1990   -7.6147   23.9724 H   0  0  0  0  0  0
  -21.1519   -6.0506   25.9090 H   0  0  0  0  0  0
  -22.0565   -2.7610   23.2824 H   0  0  0  0  0  0
  -22.4064  -12.0096   22.4980 H   0  0  0  0  0  0
  -21.1057  -13.1340   22.2437 H   0  0  0  0  0  0
  -24.6634  -15.8526   20.5066 H   0  0  0  0  0  0
  -26.2570  -15.6026   20.0035 H   0  0  0  0  0  0
  -26.7188  -32.5397   23.1010 H   0  0  0  0  0  0
  -25.0131  -33.9628   25.0393 H   0  0  0  0  0  0
  -22.7293  -31.2936   21.3847 H   0  0  0  0  0  0
  -23.3740  -35.9654   23.3265 H   0  0  0  0  0  0
  -24.3606  -36.8968   22.2063 H   0  0  0  0  0  0
  -23.7299  -37.6498   23.6705 H   0  0  0  0  0  0
  -26.1103  -31.5102   20.5941 H   0  0  0  0  0  0
  -26.8614  -30.8176   22.0011 H   0  0  0  0  0  0
  -28.1298  -28.8976   21.2121 H   0  0  0  0  0  0
  -25.9317  -25.9061   18.9870 H   0  0  0  0  0  0
  -23.9747  -27.2985   18.9976 H   0  0  0  0  0  0
  -23.7861  -30.5724   19.3960 H   0  0  0  0  0  0
  -22.7771  -29.2347   19.8482 H   0  0  0  0  0  0
  -25.1315  -36.1847   25.0815 H   0  0  0  0  0  0
  -20.9975  -28.3284   24.1379 H   0  0  0  0  0  0
  -20.5612  -26.2312   23.3634 H   0  0  0  0  0  0
  -21.6655  -26.7393   22.1266 H   0  0  0  0  0  0
  -19.6948  -25.6254   21.1258 H   0  0  0  0  0  0
  -19.6770  -27.3143   20.6707 H   0  0  0  0  0  0
  -17.4239  -26.6681   21.3937 H   0  0  0  0  0  0
  -18.0314  -26.0067   22.8939 H   0  0  0  0  0  0
  -19.7941  -30.7251   24.2236 H   0  0  0  0  0  0
  -17.5027  -31.6257   24.5153 H   0  0  0  0  0  0
  -15.5347  -30.2967   23.7684 H   0  0  0  0  0  0
  -15.8666  -28.0819   22.7047 H   0  0  0  0  0  0
  -24.5972  -30.7056   25.7785 H   0  0  0  0  0  0
  -24.9108  -32.2827   26.4939 H   0  0  0  0  0  0
  -25.8219  -30.8786   27.0130 H   0  0  0  0  0  0
  -26.2961  -29.6656   24.1250 H   0  0  0  0  0  0
  -27.4220  -29.7261   25.4609 H   0  0  0  0  0  0
  -27.8784  -30.4232   23.9265 H   0  0  0  0  0  0
  -27.2631  -33.3533   26.2101 H   0  0  0  0  0  0
  -28.3851  -32.6983   25.0254 H   0  0  0  0  0  0
  -28.0830  -31.8402   26.5289 H   0  0  0  0  0  0
  -28.2573  -38.0114   24.7490 H   0  0  0  0  0  0
  -28.1111  -36.2622   24.6239 H   0  0  0  0  0  0
  -27.2316  -37.1413   25.8858 H   0  0  0  0  0  0
  -20.9389  -29.8776   21.6887 H   0  0  0  0  0  0
  -26.0138  -38.2801   24.1446 H   0  0  0  0  0  0
  -27.0670  -19.5765   19.5540 H   0  0  0  0  0  0
  -26.6670  -20.1137   21.1665 H   0  0  0  0  0  0
  -26.6336  -22.2159   20.0271 H   0  0  0  0  0  0
  -27.8399  -21.6941   18.8562 H   0  0  0  0  0  0
  -30.1569  -21.0533   19.7654 H   0  0  0  0  0  0
  -30.3720  -21.1811   21.4922 H   0  0  0  0  0  0
  -31.2967  -16.4996   18.5598 H   0  0  0  0  0  0
  -29.6137  -16.3987   18.1533 H   0  0  0  0  0  0
  -30.1210  -17.2294   21.8424 H   0  0  0  0  0  0
  -28.4819  -16.7088   21.5400 H   0  0  0  0  0  0
  -28.6831  -19.5336   21.9978 H   0  0  0  0  0  0
  -31.0803  -18.6599   19.5776 H   0  0  0  0  0  0
  -28.9282  -18.4942   17.3740 H   0  0  0  0  0  0
  -30.5892  -19.0450   17.2096 H   0  0  0  0  0  0
  -29.4204  -20.0209   18.0636 H   0  0  0  0  0  0
  -29.8384  -23.9309   21.0920 H   0  0  0  0  0  0
  -29.6257  -23.5999   19.4017 H   0  0  0  0  0  0
  -27.2826  -24.6928   21.0663 H   0  0  0  0  0  0
  -27.4417  -24.5814   19.3378 H   0  0  0  0  0  0
  -28.2793  -18.1241   19.8080 H   0  0  0  0  0  0
  1 25  1  0  0  0
  1 30  2  0  0  0
  1 81  1  0  0  0
  2  3  1  0  0  0
  2 25  1  0  0  0
  2 84  1  0  0  0
  2 85  1  0  0  0
  3  4  1  0  0  0
  3 86  1  0  0  0
  3 87  1  0  0  0
  4  5  1  0  0  0
  4 88  1  0  0  0
  4 89  1  0  0  0
  5  6  1  0  0  0
  5 26  1  0  0  0
  5 90  1  0  0  0
  6 25  1  0  0  0
  6 91  1  0  0  0
  6 92  1  0  0  0
  7  8  2  0  0  0
  7 26  1  0  0  0
  7 29  1  0  0  0
  8  9  1  0  0  0
  8 22  1  0  0  0
  9 10  1  0  0  0
  9 27  2  0  0  0
 10 11  2  0  0  0
 10 15  1  0  0  0
 11 12  1  0  0  0
 11 93  1  0  0  0
 12 13  2  0  0  0
 12 94  1  0  0  0
 13 14  1  0  0  0
 13 31  1  0  0  0
 14 15  2  0  0  0
 14 95  1  0  0  0
 15 96  1  0  0  0
 16 17  2  0  0  0
 16 21  1  0  0  0
 16 31  1  0  0  0
 17 18  1  0  0  0
 17 97  1  0  0  0
 18 19  2  0  0  0
 18 98  1  0  0  0
 19 20  1  0  0  0
 19 24  1  0  0  0
 20 21  2  0  0  0
 20 99  1  0  0  0
 21 23  1  0  0  0
 22 28  1  0  0  0
 22 32  2  0  0  0
 26 27  1  0  0  0
 28100  1  0  0  0
 28101  1  0  0  0
 29102  1  0  0  0
 29103  1  0  0  0
 33 34  1  0  0  0
 33 66  1  0  0  0
 33 70  2  0  0  0
 34 36  1  0  0  0
 34 59  1  0  0  0
 34104  1  0  0  0
 35 44  2  0  0  0
 35 45  1  0  0  0
 35 68  1  0  0  0
 36 56  1  0  0  0
 36105  1  0  0  0
 37 39  1  0  0  0
 37 47  1  0  0  0
 37 66  1  0  0  0
 37106  1  0  0  0
 38 43  2  0  0  0
 38 46  1  0  0  0
 38 47  1  0  0  0
 39 64  1  0  0  0
 39 67  2  0  0  0
 40 52  1  0  0  0
 40 53  2  0  0  0
 40 58  1  0  0  0
 41107  1  0  0  0
 41108  1  0  0  0
 41109  1  0  0  0
 41 48  1  0  0  0
 42 43  1  0  0  0
 42 66  1  0  0  0
 42110  1  0  0  0
 42111  1  0  0  0
 43 44  1  0  0  0
 44112  1  0  0  0
 45 46  2  0  0  0
 45113  1  0  0  0
 46114  1  0  0  0
 47115  1  0  0  0
 47116  1  0  0  0
 48 56  1  0  0  0
 48 65  1  0  0  0
 48117  1  0  0  0
 49 50  1  0  0  0
 49 53  1  0  0  0
 49 64  1  0  0  0
 49118  1  0  0  0
 50 51  1  0  0  0
 50119  1  0  0  0
 50120  1  0  0  0
 51 52  1  0  0  0
 51121  1  0  0  0
 51122  1  0  0  0
 52123  1  0  0  0
 52124  1  0  0  0
 53 54  1  0  0  0
 54 55  2  0  0  0
 54125  1  0  0  0
 55 57  1  0  0  0
 55126  1  0  0  0
 56 69  2  0  0  0
 57 58  2  0  0  0
 57127  1  0  0  0
 58128  1  0  0  0
 59 60  1  0  0  0
 59 61  1  0  0  0
 59 62  1  0  0  0
 60129  1  0  0  0
 60130  1  0  0  0
 60131  1  0  0  0
 61132  1  0  0  0
 61133  1  0  0  0
 61134  1  0  0  0
 62135  1  0  0  0
 62136  1  0  0  0
 62137  1  0  0  0
 63 65  1  0  0  0
 63138  1  0  0  0
 63139  1  0  0  0
 63140  1  0  0  0
 64141  1  0  0  0
 65142  1  0  0  0
 68 80  1  0  0  0
 71 72  1  0  0  0
 71143  1  0  0  0
 71144  1  0  0  0
 71 76  1  0  0  0
 72 82  1  0  0  0
 72145  1  0  0  0
 72146  1  0  0  0
 73 76  1  0  0  0
 73 82  1  0  0  0
 73147  1  0  0  0
 73148  1  0  0  0
 74 77  1  0  0  0
 74 81  1  0  0  0
 74149  1  0  0  0
 74150  1  0  0  0
 75 81  1  0  0  0
 75151  1  0  0  0
 75152  1  0  0  0
 75 83  1  0  0  0
 76 83  1  0  0  0
 76153  1  0  0  0
 77 78  1  0  0  0
 77 83  1  0  0  0
 77154  1  0  0  0
 78155  1  0  0  0
 78156  1  0  0  0
 78157  1  0  0  0
 79 80  1  0  0  0
 79 82  1  0  0  0
 79158  1  0  0  0
 79159  1  0  0  0
 80160  1  0  0  0
 80161  1  0  0  0
 83162  1  0  0  0
M  CHG  1  83   1
M  ISO  4   1 100  68 101  80 101  81 100
M  END
> <chiral flag>
0

> <version>
0

> <s_m_source_file>
/data/baiqing/PycharmProjects/Reinvent-master-3.2/result/LINK_invent/BTK/process_docking_weight1_custom_sum_contain_oxygen_bond_distance_aromatic_linkinvent_7_9_3/rearranged_h_0190.sdf

> <i_m_source_file_index>
50

> <r_mmod_Potential_Energy-OPLS-2005>
396.502960205078

> <r_mmod_Stretch_Energy-OPLS-2005>
128.959213256836

> <r_mmod_Bend_Energy-OPLS-2005>
265.725402832031

> <r_mmod_Torsional_Energy-OPLS-2005>
413.063812255859

> <r_mmod_Improper_Torsional_Energy-OPLS-2005>
23.7652130126953

> <r_mmod_Van_der_Waal_Energy-OPLS-2005>
112.648178100586

> <r_mmod_Electrostatic_Energy-OPLS-2005>
-197.619567871094

> <r_mmod_Solvation_Energy-OPLS-2005>
-457.508666992188

> <b_mmod_Minimization_Converged-OPLS-2005>
0

> <r_mmod_RMS_Derivative-OPLS-2005>
5.56301355361938

$$$$
50
                    3D
 Structure written by MMmdl.
150159  0  0  1  0            999 V2000
  -30.6533  -14.7738   20.4624 C   0  0  0  0  0  0
  -30.4190  -12.4804   19.4853 C   0  0  0  0  0  0
  -29.5053  -12.5100   18.2424 C   0  0  0  0  0  0
  -28.0359  -12.3263   18.6599 C   0  0  0  0  0  0
  -27.6354  -13.2423   19.8469 C   0  0  2  0  0  0
  -28.6796  -13.2255   20.9847 C   0  0  0  0  0  0
  -25.2476  -13.8217   20.5716 C   0  0  0  0  0  0
  -24.1782  -13.0445   20.9220 C   0  0  0  0  0  0
  -24.6392  -11.6929   20.8758 C   0  0  0  0  0  0
  -23.9075  -10.4297   21.0409 C   0  0  0  0  0  0
  -24.3625   -9.4210   21.9186 C   0  0  0  0  0  0
  -23.6298   -8.2245   22.0755 C   0  0  0  0  0  0
  -22.4280   -8.0283   21.3545 C   0  0  0  0  0  0
  -21.9918   -9.0259   20.4647 C   0  0  0  0  0  0
  -22.7248  -10.2137   20.3058 C   0  0  0  0  0  0
  -21.6855   -6.0736   22.5278 C   0  0  0  0  0  0
  -21.4015   -6.5640   23.8211 C   0  0  0  0  0  0
  -21.3660   -5.6792   24.9174 C   0  0  0  0  0  0
  -21.6044   -4.3055   24.7224 C   0  0  0  0  0  0
  -21.8819   -3.8147   23.4346 C   0  0  0  0  0  0
  -21.9193   -4.6963   22.3402 C   0  0  0  0  0  0
  -22.7801  -13.5217   21.1874 C   0  0  0  0  0  0
  -22.1661   -4.2149   21.0979 F   0  0  0  0  0  0
  -21.5629   -3.4540   25.7737 F   0  0  0  0  0  0
  -29.9778  -13.5698   20.3946 N   0  0  0  0  0  0
  -26.2911  -12.9448   20.3296 N   0  0  0  0  0  0
  -25.9328  -11.6579   20.5771 N   0  0  0  0  0  0
  -22.0453  -12.8203   22.0430 N   0  0  0  0  0  0
  -25.4147  -15.1941   20.4126 N   0  0  0  0  0  0
  -31.8399  -14.7991   20.1262 O   0  0  0  0  0  0
  -21.6643   -6.8880   21.4240 O   0  0  0  0  0  0
  -22.3483  -14.5521   20.6719 O   0  0  0  0  0  0
  -24.6359  -31.8534   23.1993 C   0  0  0  0  0  0
  -25.9171  -32.4744   23.8340 C   0  0  1  0  0  0
  -27.2043  -27.2168   20.1263 C   0  0  0  0  0  0
  -25.5952  -33.8549   24.2252 N   0  0  0  0  0  0
  -23.4338  -30.4797   21.5439 C   0  0  2  0  0  0
  -24.8801  -28.9330   20.1052 C   0  0  0  0  0  0
  -22.7529  -29.4597   22.4896 C   0  0  0  0  0  0
  -18.0297  -28.1392   22.8479 C   0  0  0  0  0  0
  -24.1490  -36.7277   23.2638 C   0  0  0  0  0  0
  -25.9866  -30.7496   21.3915 C   0  0  0  0  0  0
  -26.0550  -29.3716   20.7289 C   0  0  0  0  0  0
  -27.2177  -28.5246   20.7361 C   0  0  0  0  0  0
  -26.0125  -26.8870   19.4345 C   0  0  0  0  0  0
  -24.8676  -27.7001   19.4455 C   0  0  0  0  0  0
  -23.6539  -29.8234   20.1575 C   0  0  0  0  0  0
  -25.4118  -36.3062   24.0322 C   0  0  1  0  0  0
  -20.5907  -28.3711   23.1252 C   0  0  2  0  0  0
  -20.6786  -26.9424   22.5402 C   0  0  0  0  0  0
  -19.5758  -26.6384   21.5211 C   0  0  0  0  0  0
  -18.1938  -26.7932   22.1623 C   0  0  0  0  0  0
  -19.1553  -28.8868   23.2858 C   0  0  0  0  0  0
  -18.9472  -30.1467   23.8880 C   0  0  0  0  0  0
  -17.6470  -30.6590   24.0563 C   0  0  0  0  0  0
  -25.9064  -34.9433   23.5089 C   0  0  0  0  0  0
  -16.5361  -29.9086   23.6337 C   0  0  0  0  0  0
  -16.7283  -28.6505   23.0355 C   0  0  0  0  0  0
  -26.4517  -31.6583   25.0747 C   0  0  0  0  0  0
  -25.3720  -31.3751   26.1452 C   0  0  0  0  0  0
  -27.0375  -30.2988   24.6282 C   0  0  0  0  0  0
  -27.6058  -32.4338   25.7522 C   0  0  0  0  0  0
  -27.5578  -37.1794   24.8464 C   0  0  0  0  0  0
  -21.4232  -29.3053   22.3638 N   0  0  0  0  0  0
  -26.4290  -37.3765   23.9408 N   0  0  0  0  0  0
  -24.7047  -31.0462   22.0999 N   0  0  0  0  0  0
  -23.4211  -28.8122   23.2998 O   0  0  0  0  0  0
  -28.2451  -26.2419   20.2305 O   0  0  0  0  0  0
  -26.5636  -34.8911   22.4659 O   0  0  0  0  0  0
  -23.5497  -32.1383   23.7256 O   0  0  0  0  0  0
  -28.5265  -22.9668   21.6680 C   0  0  0  0  0  0
  -28.7652  -21.5843   21.9580 C   0  0  0  0  0  0
  -28.6018  -23.4330   20.3307 C   0  0  0  0  0  0
  -29.0824  -20.6556   20.9273 C   0  0  0  0  0  0
  -30.7518  -17.2386   21.2216 C   0  0  0  0  0  0
  -28.9070  -16.7758   20.3416 C   0  0  0  0  0  0
  -29.7245  -18.1184   20.4448 C   0  0  0  0  0  0
  -27.9092  -24.8064   19.8432 C   0  0  0  0  0  0
  -28.9535  -22.4852   19.3830 N   0  0  0  0  0  0
  -29.2002  -21.1604   19.6583 N   0  0  0  0  0  0
  -30.0456  -15.9658   20.8735 N   0  0  0  0  0  0
  -29.1808  -19.2584   21.2441 O   0  0  0  0  0  0
  -31.4619  -12.5817   19.1806 H   0  0  0  0  0  0
  -30.3534  -11.5151   19.9899 H   0  0  0  0  0  0
  -29.7953  -11.7276   17.5399 H   0  0  0  0  0  0
  -29.6254  -13.4577   17.7151 H   0  0  0  0  0  0
  -27.9053  -11.2806   18.9411 H   0  0  0  0  0  0
  -27.3749  -12.4962   17.8094 H   0  0  0  0  0  0
  -27.6153  -14.2542   19.4437 H   0  0  0  0  0  0
  -28.7221  -12.2470   21.4651 H   0  0  0  0  0  0
  -28.4086  -13.9419   21.7619 H   0  0  0  0  0  0
  -25.2767   -9.5686   22.4765 H   0  0  0  0  0  0
  -24.0006   -7.4637   22.7475 H   0  0  0  0  0  0
  -21.0849   -8.8778   19.8952 H   0  0  0  0  0  0
  -22.3705  -10.9677   19.6170 H   0  0  0  0  0  0
  -21.2009   -7.6147   23.9715 H   0  0  0  0  0  0
  -21.1482   -6.0523   25.9076 H   0  0  0  0  0  0
  -22.0597   -2.7609   23.2846 H   0  0  0  0  0  0
  -22.4079  -11.9868   22.4819 H   0  0  0  0  0  0
  -21.1069  -13.1219   22.2639 H   0  0  0  0  0  0
  -24.6472  -15.8475   20.5244 H   0  0  0  0  0  0
  -26.2641  -15.6322   20.0828 H   0  0  0  0  0  0
  -26.7233  -32.5373   23.1073 H   0  0  0  0  0  0
  -25.0097  -33.9686   25.0395 H   0  0  0  0  0  0
  -22.7321  -31.3041   21.4006 H   0  0  0  0  0  0
  -23.3755  -35.9607   23.3295 H   0  0  0  0  0  0
  -24.3578  -36.8910   22.2054 H   0  0  0  0  0  0
  -23.7242  -37.6473   23.6672 H   0  0  0  0  0  0
  -26.1372  -31.5098   20.6237 H   0  0  0  0  0  0
  -26.8599  -30.7929   22.0306 H   0  0  0  0  0  0
  -28.1061  -28.8469   21.2609 H   0  0  0  0  0  0
  -25.9072  -25.9663   18.8824 H   0  0  0  0  0  0
  -23.9754  -27.3669   18.9329 H   0  0  0  0  0  0
  -23.7819  -30.6043   19.4072 H   0  0  0  0  0  0
  -22.7705  -29.2621   19.8477 H   0  0  0  0  0  0
  -25.1301  -36.1905   25.0815 H   0  0  0  0  0  0
  -20.9997  -28.3292   24.1374 H   0  0  0  0  0  0
  -20.5689  -26.2323   23.3612 H   0  0  0  0  0  0
  -21.6651  -26.7444   22.1194 H   0  0  0  0  0  0
  -19.6921  -25.6290   21.1249 H   0  0  0  0  0  0
  -19.6694  -27.3186   20.6733 H   0  0  0  0  0  0
  -17.4209  -26.6680   21.4024 H   0  0  0  0  0  0
  -18.0338  -26.0076   22.9022 H   0  0  0  0  0  0
  -19.7949  -30.7289   24.2240 H   0  0  0  0  0  0
  -17.5026  -31.6269   24.5169 H   0  0  0  0  0  0
  -15.5363  -30.2983   23.7672 H   0  0  0  0  0  0
  -15.8683  -28.0821   22.7080 H   0  0  0  0  0  0
  -24.5907  -30.7087   25.7781 H   0  0  0  0  0  0
  -24.8898  -32.2926   26.4837 H   0  0  0  0  0  0
  -25.8019  -30.8959   27.0257 H   0  0  0  0  0  0
  -26.2983  -29.6723   24.1278 H   0  0  0  0  0  0
  -27.3998  -29.7269   25.4835 H   0  0  0  0  0  0
  -27.8887  -30.4242   23.9587 H   0  0  0  0  0  0
  -27.2658  -33.3652   26.2064 H   0  0  0  0  0  0
  -28.3886  -32.6878   25.0362 H   0  0  0  0  0  0
  -28.0707  -31.8490   26.5470 H   0  0  0  0  0  0
  -28.2589  -38.0096   24.7514 H   0  0  0  0  0  0
  -28.1080  -36.2628   24.6287 H   0  0  0  0  0  0
  -27.2295  -37.1439   25.8866 H   0  0  0  0  0  0
  -20.9424  -29.8790   21.6850 H   0  0  0  0  0  0
  -26.0164  -38.2837   24.1411 H   0  0  0  0  0  0
  -28.1982  -23.6348   22.4510 H   0  0  0  0  0  0
  -28.6517  -21.2258   22.9701 H   0  0  0  0  0  0
  -30.7571  -17.4418   22.2931 H   0  0  0  0  0  0
  -31.7627  -17.3281   20.8206 H   0  0  0  0  0  0
  -28.6255  -16.5315   19.3165 H   0  0  0  0  0  0
  -28.0319  -16.7627   20.9921 H   0  0  0  0  0  0
  -30.1148  -18.4320   19.4753 H   0  0  0  0  0  0
  -26.8885  -24.6169   20.1740 H   0  0  0  0  0  0
  -27.8859  -24.7747   18.7534 H   0  0  0  0  0  0
  1 25  1  0  0  0
  1 30  2  0  0  0
  1 81  1  0  0  0
  2  3  1  0  0  0
  2 25  1  0  0  0
  2 83  1  0  0  0
  2 84  1  0  0  0
  3  4  1  0  0  0
  3 85  1  0  0  0
  3 86  1  0  0  0
  4  5  1  0  0  0
  4 87  1  0  0  0
  4 88  1  0  0  0
  5  6  1  0  0  0
  5 26  1  0  0  0
  5 89  1  0  0  0
  6 25  1  0  0  0
  6 90  1  0  0  0
  6 91  1  0  0  0
  7  8  2  0  0  0
  7 26  1  0  0  0
  7 29  1  0  0  0
  8  9  1  0  0  0
  8 22  1  0  0  0
  9 10  1  0  0  0
  9 27  2  0  0  0
 10 11  2  0  0  0
 10 15  1  0  0  0
 11 12  1  0  0  0
 11 92  1  0  0  0
 12 13  2  0  0  0
 12 93  1  0  0  0
 13 14  1  0  0  0
 13 31  1  0  0  0
 14 15  2  0  0  0
 14 94  1  0  0  0
 15 95  1  0  0  0
 16 17  2  0  0  0
 16 21  1  0  0  0
 16 31  1  0  0  0
 17 18  1  0  0  0
 17 96  1  0  0  0
 18 19  2  0  0  0
 18 97  1  0  0  0
 19 20  1  0  0  0
 19 24  1  0  0  0
 20 21  2  0  0  0
 20 98  1  0  0  0
 21 23  1  0  0  0
 22 28  1  0  0  0
 22 32  2  0  0  0
 26 27  1  0  0  0
 28 99  1  0  0  0
 28100  1  0  0  0
 29101  1  0  0  0
 29102  1  0  0  0
 33 34  1  0  0  0
 33 66  1  0  0  0
 33 70  2  0  0  0
 34 36  1  0  0  0
 34 59  1  0  0  0
 34103  1  0  0  0
 35 44  2  0  0  0
 35 45  1  0  0  0
 35 68  1  0  0  0
 36 56  1  0  0  0
 36104  1  0  0  0
 37 39  1  0  0  0
 37 47  1  0  0  0
 37 66  1  0  0  0
 37105  1  0  0  0
 38 43  2  0  0  0
 38 46  1  0  0  0
 38 47  1  0  0  0
 39 64  1  0  0  0
 39 67  2  0  0  0
 40 52  1  0  0  0
 40 53  2  0  0  0
 40 58  1  0  0  0
 41106  1  0  0  0
 41107  1  0  0  0
 41108  1  0  0  0
 41 48  1  0  0  0
 42 43  1  0  0  0
 42 66  1  0  0  0
 42109  1  0  0  0
 42110  1  0  0  0
 43 44  1  0  0  0
 44111  1  0  0  0
 45 46  2  0  0  0
 45112  1  0  0  0
 46113  1  0  0  0
 47114  1  0  0  0
 47115  1  0  0  0
 48 56  1  0  0  0
 48 65  1  0  0  0
 48116  1  0  0  0
 49 50  1  0  0  0
 49 53  1  0  0  0
 49 64  1  0  0  0
 49117  1  0  0  0
 50 51  1  0  0  0
 50118  1  0  0  0
 50119  1  0  0  0
 51 52  1  0  0  0
 51120  1  0  0  0
 51121  1  0  0  0
 52122  1  0  0  0
 52123  1  0  0  0
 53 54  1  0  0  0
 54 55  2  0  0  0
 54124  1  0  0  0
 55 57  1  0  0  0
 55125  1  0  0  0
 56 69  2  0  0  0
 57 58  2  0  0  0
 57126  1  0  0  0
 58127  1  0  0  0
 59 60  1  0  0  0
 59 61  1  0  0  0
 59 62  1  0  0  0
 60128  1  0  0  0
 60129  1  0  0  0
 60130  1  0  0  0
 61131  1  0  0  0
 61132  1  0  0  0
 61133  1  0  0  0
 62134  1  0  0  0
 62135  1  0  0  0
 62136  1  0  0  0
 63 65  1  0  0  0
 63137  1  0  0  0
 63138  1  0  0  0
 63139  1  0  0  0
 64140  1  0  0  0
 65141  1  0  0  0
 68 78  1  0  0  0
 71 72  2  0  0  0
 71 73  1  0  0  0
 71142  1  0  0  0
 72 74  1  0  0  0
 72143  1  0  0  0
 73 78  1  0  0  0
 73 79  2  0  0  0
 74 80  2  0  0  0
 74 82  1  0  0  0
 75 77  1  0  0  0
 75 81  1  0  0  0
 75144  1  0  0  0
 75145  1  0  0  0
 76 77  1  0  0  0
 76 81  1  0  0  0
 76146  1  0  0  0
 76147  1  0  0  0
 77 82  1  0  0  0
 77148  1  0  0  0
 78149  1  0  0  0
 78150  1  0  0  0
 79 80  1  0  0  0
M  ISO  4   1 100  68 101  78 101  81 100
M  END
> <chiral flag>
0

> <version>
0

> <s_m_source_file>
/data/baiqing/PycharmProjects/Reinvent-master-3.2/result/LINK_invent/BTK/process_docking_weight1_custom_sum_contain_oxygen_bond_distance_aromatic_linkinvent_7_9_3/rearranged_h_0190.sdf

> <i_m_source_file_index>
51

> <r_mmod_Potential_Energy-OPLS-2005>
368.123718261719

> <r_mmod_Stretch_Energy-OPLS-2005>
135.496459960938

> <r_mmod_Bend_Energy-OPLS-2005>
243.693130493164

> <r_mmod_Torsional_Energy-OPLS-2005>
271.021148681641

> <r_mmod_Improper_Torsional_Energy-OPLS-2005>
9.7384672164917

> <r_mmod_Van_der_Waal_Energy-OPLS-2005>
142.220031738281

> <r_mmod_Electrostatic_Energy-OPLS-2005>
-319.081817626953

> <r_mmod_Solvation_Energy-OPLS-2005>
-229.78385925293

> <b_mmod_Minimization_Converged-OPLS-2005>
0

> <r_mmod_RMS_Derivative-OPLS-2005>
0.303284227848053

$$$$
51
                    3D
 Structure written by MMmdl.
174185  0  0  1  0            999 V2000
  -30.6333  -14.7194   20.4036 C   0  0  0  0  0  0
  -30.4272  -12.4327   19.4542 C   0  0  0  0  0  0
  -29.4936  -12.4659   18.2252 C   0  0  0  0  0  0
  -28.0248  -12.2867   18.6576 C   0  0  0  0  0  0
  -27.6382  -13.1827   19.8642 C   0  0  2  0  0  0
  -28.6963  -13.1709   20.9823 C   0  0  0  0  0  0
  -25.2501  -13.8006   20.5827 C   0  0  0  0  0  0
  -24.1745  -13.0310   20.9251 C   0  0  0  0  0  0
  -24.6318  -11.6802   20.8820 C   0  0  0  0  0  0
  -23.8993  -10.4215   21.0453 C   0  0  0  0  0  0
  -24.3565   -9.4136   21.9212 C   0  0  0  0  0  0
  -23.6260   -8.2171   22.0764 C   0  0  0  0  0  0
  -22.4251   -8.0219   21.3537 C   0  0  0  0  0  0
  -21.9872   -9.0193   20.4644 C   0  0  0  0  0  0
  -22.7189  -10.2076   20.3070 C   0  0  0  0  0  0
  -21.6814   -6.0698   22.5275 C   0  0  0  0  0  0
  -21.3985   -6.5622   23.8203 C   0  0  0  0  0  0
  -21.3668   -5.6792   24.9173 C   0  0  0  0  0  0
  -21.6047   -4.3053   24.7230 C   0  0  0  0  0  0
  -21.8830   -3.8128   23.4356 C   0  0  0  0  0  0
  -21.9184   -4.6929   22.3402 C   0  0  0  0  0  0
  -22.7784  -13.5148   21.1885 C   0  0  0  0  0  0
  -22.1654   -4.2110   21.0981 F   0  0  0  0  0  0
  -21.5645   -3.4550   25.7753 F   0  0  0  0  0  0
  -29.9815  -13.5093   20.3622 N   0  0  0  0  0  0
  -26.2908  -12.9155   20.3465 N   0  0  0  0  0  0
  -25.9239  -11.6354   20.5887 N   0  0  0  0  0  0
  -22.0409  -12.8162   22.0445 N   0  0  0  0  0  0
  -25.4134  -15.1710   20.4310 N   0  0  0  0  0  0
  -31.8511  -14.7642   20.2082 O   0  0  0  0  0  0
  -21.6607   -6.8828   21.4231 O   0  0  0  0  0  0
  -22.3515  -14.5474   20.6728 O   0  0  0  0  0  0
  -24.6253  -31.8601   23.2031 C   0  0  0  0  0  0
  -25.9097  -32.4781   23.8361 C   0  0  1  0  0  0
  -27.2320  -27.3374   20.1289 C   0  0  0  0  0  0
  -25.5918  -33.8583   24.2285 N   0  0  0  0  0  0
  -23.4195  -30.4821   21.5440 C   0  0  2  0  0  0
  -24.8710  -28.9372   20.1114 C   0  0  0  0  0  0
  -22.7461  -29.4631   22.4939 C   0  0  0  0  0  0
  -18.0273  -28.1392   22.8490 C   0  0  0  0  0  0
  -24.1490  -36.7299   23.2640 C   0  0  0  0  0  0
  -25.9581  -30.7992   21.3707 C   0  0  0  0  0  0
  -26.0372  -29.4261   20.7160 C   0  0  0  0  0  0
  -27.2246  -28.6378   20.7130 C   0  0  0  0  0  0
  -26.0514  -26.8953   19.4962 C   0  0  0  0  0  0
  -24.8794  -27.6777   19.4897 C   0  0  0  0  0  0
  -23.6342  -29.8129   20.1601 C   0  0  0  0  0  0
  -25.4116  -36.3092   24.0332 C   0  0  1  0  0  0
  -20.5880  -28.3696   23.1287 C   0  0  2  0  0  0
  -20.6771  -26.9417   22.5425 C   0  0  0  0  0  0
  -19.5745  -26.6383   21.5226 C   0  0  0  0  0  0
  -18.1924  -26.7934   22.1634 C   0  0  0  0  0  0
  -19.1533  -28.8866   23.2884 C   0  0  0  0  0  0
  -18.9453  -30.1466   23.8897 C   0  0  0  0  0  0
  -17.6459  -30.6600   24.0579 C   0  0  0  0  0  0
  -25.9047  -34.9453   23.5109 C   0  0  0  0  0  0
  -16.5348  -29.9101   23.6344 C   0  0  0  0  0  0
  -16.7269  -28.6524   23.0355 C   0  0  0  0  0  0
  -26.4489  -31.6583   25.0718 C   0  0  0  0  0  0
  -25.3732  -31.3703   26.1450 C   0  0  0  0  0  0
  -27.0331  -30.3018   24.6147 C   0  0  0  0  0  0
  -27.6056  -32.4315   25.7483 C   0  0  0  0  0  0
  -27.5580  -37.1803   24.8466 C   0  0  0  0  0  0
  -21.4182  -29.3039   22.3670 N   0  0  0  0  0  0
  -26.4300  -37.3783   23.9399 N   0  0  0  0  0  0
  -24.6866  -31.0629   22.0971 N   0  0  0  0  0  0
  -23.4184  -28.8179   23.3030 O   0  0  0  0  0  0
  -28.3220  -26.4640   20.1752 O   0  0  0  0  0  0
  -26.5621  -34.8919   22.4670 O   0  0  0  0  0  0
  -23.5420  -32.1385   23.7365 O   0  0  0  0  0  0
  -29.6582  -21.8995   20.5291 C   0  0  0  0  0  0
  -29.3577  -22.4414   19.2352 C   0  0  0  0  0  0
  -29.2519  -22.9465   21.3499 C   0  0  0  0  0  0
  -25.9319  -18.3531   18.4089 C   0  0  0  0  0  0
  -26.9952  -19.2530   18.9863 C   0  0  0  0  0  0
  -30.3095  -17.5878   18.6402 C   0  0  0  0  0  0
  -29.5242  -18.2273   21.6250 C   0  0  0  0  0  0
  -27.3883  -17.9586   18.3010 C   0  0  0  0  0  0
  -30.4771  -17.1614   21.0194 C   0  0  2  0  0  0
  -30.7673  -18.1918   19.9359 C   0  0  2  0  0  0
  -29.4046  -16.4015   19.0532 C   0  0  1  0  0  0
  -29.6279  -21.8371   17.8869 C   0  0  0  0  0  0
  -29.3109  -23.0540   22.8419 C   0  0  0  0  0  0
  -30.4214  -20.5656   20.8918 C   0  0  0  0  0  0
  -27.8761  -16.7390   19.0704 C   0  0  0  0  0  0
  -28.1213  -25.3077   21.0210 C   0  0  0  0  0  0
  -28.8084  -23.6612   19.2734 N   0  0  0  0  0  0
  -28.7603  -24.0166   20.5755 N   0  0  0  0  0  0
  -29.8979  -15.9068   20.3867 N   0  0  0  0  0  0
  -29.8431  -19.1995   20.5419 N   0  3  2  0  0  0
  -31.4633  -12.5597   19.1366 H   0  0  0  0  0  0
  -30.3797  -11.4637   19.9544 H   0  0  0  0  0  0
  -29.7704  -11.6851   17.5150 H   0  0  0  0  0  0
  -29.6056  -13.4096   17.6922 H   0  0  0  0  0  0
  -27.8870  -11.2389   18.9257 H   0  0  0  0  0  0
  -27.3585  -12.4741   17.8134 H   0  0  0  0  0  0
  -27.6262  -14.1819   19.4800 H   0  0  0  0  0  0
  -28.7468  -12.1966   21.4714 H   0  0  0  0  0  0
  -28.4405  -13.8983   21.7536 H   0  0  0  0  0  0
  -25.2702   -9.5605   22.4795 H   0  0  0  0  0  0
  -23.9948   -7.4554   22.7485 H   0  0  0  0  0  0
  -21.0800   -8.8704   19.8952 H   0  0  0  0  0  0
  -22.3645  -10.9627   19.6182 H   0  0  0  0  0  0
  -21.1968   -7.6125   23.9686 H   0  0  0  0  0  0
  -21.1487   -6.0526   25.9077 H   0  0  0  0  0  0
  -22.0613   -2.7586   23.2867 H   0  0  0  0  0  0
  -22.4014  -11.9796   22.4783 H   0  0  0  0  0  0
  -21.1035  -13.1216   22.2666 H   0  0  0  0  0  0
  -24.6418  -15.8196   20.5315 H   0  0  0  0  0  0
  -26.2656  -15.6121   20.1194 H   0  0  0  0  0  0
  -26.7159  -32.5471   23.1112 H   0  0  0  0  0  0
  -25.0054  -33.9732   25.0424 H   0  0  0  0  0  0
  -22.7153  -31.3036   21.4004 H   0  0  0  0  0  0
  -23.3750  -35.9635   23.3317 H   0  0  0  0  0  0
  -24.3579  -36.8906   22.2051 H   0  0  0  0  0  0
  -23.7246  -37.6508   23.6651 H   0  0  0  0  0  0
  -26.0823  -31.5636   20.6022 H   0  0  0  0  0  0
  -26.8410  -30.8520   21.9961 H   0  0  0  0  0  0
  -28.1197  -29.0076   21.1928 H   0  0  0  0  0  0
  -26.0323  -25.9219   19.0249 H   0  0  0  0  0  0
  -23.9852  -27.2979   19.0147 H   0  0  0  0  0  0
  -23.7482  -30.5898   19.4028 H   0  0  0  0  0  0
  -22.7567  -29.2373   19.8598 H   0  0  0  0  0  0
  -25.1296  -36.1959   25.0831 H   0  0  0  0  0  0
  -20.9974  -28.3274   24.1406 H   0  0  0  0  0  0
  -20.5686  -26.2298   23.3620 H   0  0  0  0  0  0
  -21.6634  -26.7451   22.1205 H   0  0  0  0  0  0
  -19.6907  -25.6291   21.1258 H   0  0  0  0  0  0
  -19.6691  -27.3196   20.6752 H   0  0  0  0  0  0
  -17.4196  -26.6685   21.4039 H   0  0  0  0  0  0
  -18.0324  -26.0086   22.9035 H   0  0  0  0  0  0
  -19.7935  -30.7290   24.2259 H   0  0  0  0  0  0
  -17.5015  -31.6282   24.5171 H   0  0  0  0  0  0
  -15.5352  -30.3005   23.7668 H   0  0  0  0  0  0
  -15.8664  -28.0849   22.7049 H   0  0  0  0  0  0
  -24.5910  -30.7053   25.7766 H   0  0  0  0  0  0
  -24.8920  -32.2862   26.4896 H   0  0  0  0  0  0
  -25.8072  -30.8863   27.0209 H   0  0  0  0  0  0
  -26.2894  -29.6771   24.1193 H   0  0  0  0  0  0
  -27.4058  -29.7273   25.4635 H   0  0  0  0  0  0
  -27.8750  -30.4310   23.9345 H   0  0  0  0  0  0
  -27.2667  -33.3609   26.2075 H   0  0  0  0  0  0
  -28.3857  -32.6886   25.0301 H   0  0  0  0  0  0
  -28.0739  -31.8433   26.5385 H   0  0  0  0  0  0
  -28.2607  -38.0091   24.7507 H   0  0  0  0  0  0
  -28.1068  -36.2621   24.6310 H   0  0  0  0  0  0
  -27.2293  -37.1479   25.8869 H   0  0  0  0  0  0
  -20.9363  -29.8728   21.6848 H   0  0  0  0  0  0
  -26.0190  -38.2864   24.1397 H   0  0  0  0  0  0
  -25.4288  -18.6851   17.5010 H   0  0  0  0  0  0
  -25.3019  -17.8076   19.1093 H   0  0  0  0  0  0
  -27.0167  -19.3137   20.0730 H   0  0  0  0  0  0
  -27.1734  -20.1914   18.4634 H   0  0  0  0  0  0
  -31.1795  -17.1751   18.1238 H   0  0  0  0  0  0
  -29.8789  -18.3051   17.9456 H   0  0  0  0  0  0
  -29.8520  -18.5612   22.6085 H   0  0  0  0  0  0
  -28.4733  -17.9451   21.6625 H   0  0  0  0  0  0
  -27.7708  -18.0192   17.2819 H   0  0  0  0  0  0
  -31.3441  -16.9875   21.6604 H   0  0  0  0  0  0
  -31.8097  -18.5146   19.9403 H   0  0  0  0  0  0
  -29.5360  -15.6321   18.2918 H   0  0  0  0  0  0
  -28.8169  -22.0373   17.1865 H   0  0  0  0  0  0
  -29.7471  -20.7573   17.9433 H   0  0  0  0  0  0
  -30.5432  -22.2453   17.4577 H   0  0  0  0  0  0
  -28.3208  -23.2374   23.2588 H   0  0  0  0  0  0
  -29.9584  -23.8755   23.1458 H   0  0  0  0  0  0
  -29.6970  -22.1463   23.3017 H   0  0  0  0  0  0
  -30.6884  -20.5533   21.9487 H   0  0  0  0  0  0
  -31.3917  -20.6205   20.3990 H   0  0  0  0  0  0
  -27.3429  -15.9333   18.5749 H   0  0  0  0  0  0
  -27.4934  -16.7892   20.0881 H   0  0  0  0  0  0
  -28.5303  -25.5655   21.9989 H   0  0  0  0  0  0
  -27.0628  -25.0959   21.1732 H   0  0  0  0  0  0
  -29.0283  -19.3128   19.9583 H   0  0  0  0  0  0
  1 25  1  0  0  0
  1 30  2  0  0  0
  1 89  1  0  0  0
  2  3  1  0  0  0
  2 25  1  0  0  0
  2 91  1  0  0  0
  2 92  1  0  0  0
  3  4  1  0  0  0
  3 93  1  0  0  0
  3 94  1  0  0  0
  4  5  1  0  0  0
  4 95  1  0  0  0
  4 96  1  0  0  0
  5  6  1  0  0  0
  5 26  1  0  0  0
  5 97  1  0  0  0
  6 25  1  0  0  0
  6 98  1  0  0  0
  6 99  1  0  0  0
  7  8  2  0  0  0
  7 26  1  0  0  0
  7 29  1  0  0  0
  8  9  1  0  0  0
  8 22  1  0  0  0
  9 10  1  0  0  0
  9 27  2  0  0  0
 10 11  2  0  0  0
 10 15  1  0  0  0
 11 12  1  0  0  0
 11100  1  0  0  0
 12 13  2  0  0  0
 12101  1  0  0  0
 13 14  1  0  0  0
 13 31  1  0  0  0
 14 15  2  0  0  0
 14102  1  0  0  0
 15103  1  0  0  0
 16 17  2  0  0  0
 16 21  1  0  0  0
 16 31  1  0  0  0
 17 18  1  0  0  0
 17104  1  0  0  0
 18 19  2  0  0  0
 18105  1  0  0  0
 19 20  1  0  0  0
 19 24  1  0  0  0
 20 21  2  0  0  0
 20106  1  0  0  0
 21 23  1  0  0  0
 22 28  1  0  0  0
 22 32  2  0  0  0
 26 27  1  0  0  0
 28107  1  0  0  0
 28108  1  0  0  0
 29109  1  0  0  0
 29110  1  0  0  0
 33 34  1  0  0  0
 33 66  1  0  0  0
 33 70  2  0  0  0
 34 36  1  0  0  0
 34 59  1  0  0  0
 34111  1  0  0  0
 35 44  2  0  0  0
 35 45  1  0  0  0
 35 68  1  0  0  0
 36 56  1  0  0  0
 36112  1  0  0  0
 37 39  1  0  0  0
 37 47  1  0  0  0
 37 66  1  0  0  0
 37113  1  0  0  0
 38 43  2  0  0  0
 38 46  1  0  0  0
 38 47  1  0  0  0
 39 64  1  0  0  0
 39 67  2  0  0  0
 40 52  1  0  0  0
 40 53  2  0  0  0
 40 58  1  0  0  0
 41114  1  0  0  0
 41115  1  0  0  0
 41116  1  0  0  0
 41 48  1  0  0  0
 42 43  1  0  0  0
 42 66  1  0  0  0
 42117  1  0  0  0
 42118  1  0  0  0
 43 44  1  0  0  0
 44119  1  0  0  0
 45 46  2  0  0  0
 45120  1  0  0  0
 46121  1  0  0  0
 47122  1  0  0  0
 47123  1  0  0  0
 48 56  1  0  0  0
 48 65  1  0  0  0
 48124  1  0  0  0
 49 50  1  0  0  0
 49 53  1  0  0  0
 49 64  1  0  0  0
 49125  1  0  0  0
 50 51  1  0  0  0
 50126  1  0  0  0
 50127  1  0  0  0
 51 52  1  0  0  0
 51128  1  0  0  0
 51129  1  0  0  0
 52130  1  0  0  0
 52131  1  0  0  0
 53 54  1  0  0  0
 54 55  2  0  0  0
 54132  1  0  0  0
 55 57  1  0  0  0
 55133  1  0  0  0
 56 69  2  0  0  0
 57 58  2  0  0  0
 57134  1  0  0  0
 58135  1  0  0  0
 59 60  1  0  0  0
 59 61  1  0  0  0
 59 62  1  0  0  0
 60136  1  0  0  0
 60137  1  0  0  0
 60138  1  0  0  0
 61139  1  0  0  0
 61140  1  0  0  0
 61141  1  0  0  0
 62142  1  0  0  0
 62143  1  0  0  0
 62144  1  0  0  0
 63 65  1  0  0  0
 63145  1  0  0  0
 63146  1  0  0  0
 63147  1  0  0  0
 64148  1  0  0  0
 65149  1  0  0  0
 68 86  1  0  0  0
 71 72  1  0  0  0
 71 73  2  0  0  0
 71 84  1  0  0  0
 72 82  1  0  0  0
 72 87  2  0  0  0
 73 83  1  0  0  0
 73 88  1  0  0  0
 74 75  1  0  0  0
 74 78  1  0  0  0
 74150  1  0  0  0
 74151  1  0  0  0
 75 78  1  0  0  0
 75152  1  0  0  0
 75153  1  0  0  0
 76 81  1  0  0  0
 76154  1  0  0  0
 76155  1  0  0  0
 76 80  1  0  0  0
 77 90  1  0  0  0
 77156  1  0  0  0
 77157  1  0  0  0
 77 79  1  0  0  0
 78 85  1  0  0  0
 78158  1  0  0  0
 79 80  1  0  0  0
 79 89  1  0  0  0
 79159  1  0  0  0
 80 90  1  0  0  0
 80160  1  0  0  0
 81 85  1  0  0  0
 81 89  1  0  0  0
 81161  1  0  0  0
 82162  1  0  0  0
 82163  1  0  0  0
 82164  1  0  0  0
 83165  1  0  0  0
 83166  1  0  0  0
 83167  1  0  0  0
 84168  1  0  0  0
 84169  1  0  0  0
 84 90  1  0  0  0
 85170  1  0  0  0
 85171  1  0  0  0
 86 88  1  0  0  0
 86172  1  0  0  0
 86173  1  0  0  0
 87 88  1  0  0  0
 90174  1  0  0  0
M  CHG  1  90   1
M  ISO  4   1 100  68 101  86 101  89 100
M  END
> <chiral flag>
0

> <version>
0

> <s_m_source_file>
/data/baiqing/PycharmProjects/Reinvent-master-3.2/result/LINK_invent/BTK/process_docking_weight1_custom_sum_contain_oxygen_bond_distance_aromatic_linkinvent_7_9_3/rearranged_h_0190.sdf

> <i_m_source_file_index>
52

> <r_mmod_Potential_Energy-OPLS-2005>
323.681762695312

> <r_mmod_Stretch_Energy-OPLS-2005>
90.9455947875977

> <r_mmod_Bend_Energy-OPLS-2005>
196.791442871094

> <r_mmod_Torsional_Energy-OPLS-2005>
531.351806640625

> <r_mmod_Improper_Torsional_Energy-OPLS-2005>
12.9491863250732

> <r_mmod_Van_der_Waal_Energy-OPLS-2005>
104.027908325195

> <r_mmod_Electrostatic_Energy-OPLS-2005>
-237.422073364258

> <r_mmod_Solvation_Energy-OPLS-2005>
-445.682708740234

> <b_mmod_Minimization_Converged-OPLS-2005>
0

> <r_mmod_RMS_Derivative-OPLS-2005>
2.65944004058838

$$$$
52
                    3D
 Structure written by MMmdl.
158168  0  0  1  0            999 V2000
  -30.4233  -15.3000   20.3579 C   0  0  0  0  0  0
  -30.4405  -12.8403   19.5053 C   0  0  0  0  0  0
  -29.5368  -12.5747   18.2758 C   0  0  0  0  0  0
  -28.0864  -12.2952   18.7121 C   0  0  0  0  0  0
  -27.6075  -13.2773   19.8109 C   0  0  2  0  0  0
  -28.6443  -13.4727   20.9341 C   0  0  0  0  0  0
  -25.2402  -13.8257   20.5764 C   0  0  0  0  0  0
  -24.1746  -13.0444   20.9254 C   0  0  0  0  0  0
  -24.6405  -11.6940   20.8758 C   0  0  0  0  0  0
  -23.9103  -10.4298   21.0404 C   0  0  0  0  0  0
  -24.3648   -9.4209   21.9178 C   0  0  0  0  0  0
  -23.6312   -8.2245   22.0751 C   0  0  0  0  0  0
  -22.4291   -8.0286   21.3545 C   0  0  0  0  0  0
  -21.9933   -9.0265   20.4650 C   0  0  0  0  0  0
  -22.7273  -10.2138   20.3054 C   0  0  0  0  0  0
  -21.6855   -6.0747   22.5282 C   0  0  0  0  0  0
  -21.4019   -6.5646   23.8215 C   0  0  0  0  0  0
  -21.3657   -5.6790   24.9175 C   0  0  0  0  0  0
  -21.6041   -4.3051   24.7220 C   0  0  0  0  0  0
  -21.8818   -3.8156   23.4336 C   0  0  0  0  0  0
  -21.9192   -4.6978   22.3401 C   0  0  0  0  0  0
  -22.7762  -13.5197   21.1901 C   0  0  0  0  0  0
  -22.1659   -4.2161   21.0974 F   0  0  0  0  0  0
  -21.5629   -3.4538   25.7732 F   0  0  0  0  0  0
  -29.8572  -13.9940   20.2823 N   0  0  0  0  0  0
  -26.2814  -12.9527   20.3190 N   0  0  0  0  0  0
  -25.9339  -11.6632   20.5697 N   0  0  0  0  0  0
  -22.0410  -12.8186   22.0453 N   0  0  0  0  0  0
  -25.4076  -15.1994   20.4256 N   0  0  0  0  0  0
  -31.6634  -15.2709   20.2910 O   0  0  0  0  0  0
  -21.6644   -6.8890   21.4243 O   0  0  0  0  0  0
  -22.3441  -14.5489   20.6727 O   0  0  0  0  0  0
  -24.6642  -31.8226   23.1686 C   0  0  0  0  0  0
  -25.9326  -32.4579   23.8149 C   0  0  1  0  0  0
  -27.2161  -26.9083   20.2017 C   0  0  0  0  0  0
  -25.5998  -33.8394   24.2062 N   0  0  0  0  0  0
  -23.4782  -30.4327   21.5196 C   0  0  2  0  0  0
  -24.9282  -28.8058   20.1284 C   0  0  0  0  0  0
  -22.7661  -29.4440   22.4802 C   0  0  0  0  0  0
  -18.0325  -28.1399   22.8469 C   0  0  0  0  0  0
  -24.1498  -36.7197   23.2644 C   0  0  0  0  0  0
  -26.0474  -30.6241   21.3991 C   0  0  0  0  0  0
  -26.1152  -29.2068   20.7550 C   0  0  0  0  0  0
  -27.2573  -28.2832   20.7578 C   0  0  0  0  0  0
  -25.9956  -26.6572   19.5375 C   0  0  0  0  0  0
  -24.8934  -27.5501   19.5004 C   0  0  0  0  0  0
  -23.7193  -29.7408   20.1502 C   0  0  0  0  0  0
  -25.4139  -36.2956   24.0293 C   0  0  1  0  0  0
  -20.5949  -28.3749   23.1191 C   0  0  2  0  0  0
  -20.6803  -26.9434   22.5399 C   0  0  0  0  0  0
  -19.5776  -26.6376   21.5212 C   0  0  0  0  0  0
  -18.1959  -26.7935   22.1620 C   0  0  0  0  0  0
  -19.1586  -28.8896   23.2818 C   0  0  0  0  0  0
  -18.9494  -30.1490   23.8846 C   0  0  0  0  0  0
  -17.6486  -30.6593   24.0554 C   0  0  0  0  0  0
  -25.9106  -34.9343   23.4993 C   0  0  0  0  0  0
  -16.5377  -29.9077   23.6345 C   0  0  0  0  0  0
  -16.7306  -28.6499   23.0362 C   0  0  0  0  0  0
  -26.4579  -31.6518   25.0672 C   0  0  0  0  0  0
  -25.3706  -31.3773   26.1324 C   0  0  0  0  0  0
  -27.0468  -30.2879   24.6405 C   0  0  0  0  0  0
  -27.6068  -32.4326   25.7482 C   0  0  0  0  0  0
  -27.5563  -37.1756   24.8462 C   0  0  0  0  0  0
  -21.4333  -29.3039   22.3542 N   0  0  0  0  0  0
  -26.4275  -37.3698   23.9401 N   0  0  0  0  0  0
  -24.7518  -30.9874   22.0832 N   0  0  0  0  0  0
  -23.4201  -28.8032   23.3066 O   0  0  0  0  0  0
  -28.2569  -25.8416   20.1105 O   0  0  0  0  0  0
  -26.5707  -34.8889   22.4581 O   0  0  0  0  0  0
  -23.5715  -32.1204   23.6780 O   0  0  0  0  0  0
  -29.3995  -19.6212   19.9054 C   0  0  0  0  0  0
  -29.0595  -21.1301   19.8403 C   0  0  0  0  0  0
  -29.9533  -20.4714   17.9229 C   0  0  0  0  0  0
  -29.4781  -18.1155   20.7591 C   0  0  0  0  0  0
  -29.9312  -21.4898   15.4953 C   0  0  0  0  0  0
  -29.6917  -20.0086   15.3639 C   0  0  0  0  0  0
  -30.2760  -17.9970   18.1326 C   0  0  0  0  0  0
  -29.4099  -16.8386   18.7009 C   0  0  0  0  0  0
  -30.5004  -20.5398   16.5288 C   0  0  0  0  0  0
  -28.1796  -22.5068   20.4577 C   0  0  0  0  0  0
  -28.3826  -24.3040   20.7219 C   0  0  0  0  0  0
  -29.5081  -21.5263   18.5823 N   0  0  0  0  0  0
  -29.8767  -19.3295   18.6186 N   0  0  0  0  0  0
  -29.6779  -16.5830   20.1228 N   0  0  0  0  0  0
  -31.4541  -13.0602   19.1671 H   0  0  0  0  0  0
  -30.5246  -11.9494   20.1302 H   0  0  0  0  0  0
  -29.9254  -11.7394   17.6916 H   0  0  0  0  0  0
  -29.5567  -13.4439   17.6166 H   0  0  0  0  0  0
  -28.0513  -11.2759   19.0979 H   0  0  0  0  0  0
  -27.4155  -12.3208   17.8525 H   0  0  0  0  0  0
  -27.5127  -14.2382   19.3024 H   0  0  0  0  0  0
  -28.8300  -12.5449   21.4765 H   0  0  0  0  0  0
  -28.2822  -14.1977   21.6645 H   0  0  0  0  0  0
  -25.2791   -9.5683   22.4757 H   0  0  0  0  0  0
  -24.0023   -7.4634   22.7467 H   0  0  0  0  0  0
  -21.0863   -8.8794   19.8957 H   0  0  0  0  0  0
  -22.3735  -10.9681   19.6167 H   0  0  0  0  0  0
  -21.2016   -7.6155   23.9726 H   0  0  0  0  0  0
  -21.1477   -6.0518   25.9075 H   0  0  0  0  0  0
  -22.0600   -2.7620   23.2831 H   0  0  0  0  0  0
  -22.4044  -11.9877   22.4884 H   0  0  0  0  0  0
  -21.1014  -13.1191   22.2631 H   0  0  0  0  0  0
  -24.6448  -15.8550   20.5568 H   0  0  0  0  0  0
  -26.2661  -15.6447   20.1282 H   0  0  0  0  0  0
  -26.7391  -32.5113   23.0864 H   0  0  0  0  0  0
  -25.0124  -33.9464   25.0200 H   0  0  0  0  0  0
  -22.7925  -31.2637   21.3441 H   0  0  0  0  0  0
  -23.3768  -35.9517   23.3278 H   0  0  0  0  0  0
  -24.3582  -36.8872   22.2065 H   0  0  0  0  0  0
  -23.7258  -37.6380   23.6718 H   0  0  0  0  0  0
  -26.2222  -31.3594   20.6131 H   0  0  0  0  0  0
  -26.9101  -30.6891   22.0508 H   0  0  0  0  0  0
  -28.1697  -28.6035   21.2412 H   0  0  0  0  0  0
  -25.8803  -25.7037   19.0412 H   0  0  0  0  0  0
  -23.9940  -27.2373   18.9871 H   0  0  0  0  0  0
  -23.8831  -30.5027   19.3874 H   0  0  0  0  0  0
  -22.8277  -29.1974   19.8319 H   0  0  0  0  0  0
  -25.1350  -36.1740   25.0785 H   0  0  0  0  0  0
  -21.0035  -28.3347   24.1316 H   0  0  0  0  0  0
  -20.5682  -26.2366   23.3640 H   0  0  0  0  0  0
  -21.6668  -26.7411   22.1209 H   0  0  0  0  0  0
  -19.6934  -25.6278   21.1271 H   0  0  0  0  0  0
  -19.6712  -27.3160   20.6724 H   0  0  0  0  0  0
  -17.4231  -26.6687   21.4019 H   0  0  0  0  0  0
  -18.0350  -26.0087   22.9025 H   0  0  0  0  0  0
  -19.7971  -30.7326   24.2178 H   0  0  0  0  0  0
  -17.5037  -31.6265   24.5166 H   0  0  0  0  0  0
  -15.5374  -30.2956   23.7695 H   0  0  0  0  0  0
  -15.8716  -28.0798   22.7092 H   0  0  0  0  0  0
  -24.5916  -30.7095   25.7632 H   0  0  0  0  0  0
  -24.8867  -32.2975   26.4597 H   0  0  0  0  0  0
  -25.7938  -30.9043   27.0194 H   0  0  0  0  0  0
  -26.3127  -29.6559   24.1393 H   0  0  0  0  0  0
  -27.3979  -29.7242   25.5060 H   0  0  0  0  0  0
  -27.9086  -30.4050   23.9835 H   0  0  0  0  0  0
  -27.2635  -33.3677   26.1919 H   0  0  0  0  0  0
  -28.3959  -32.6797   25.0367 H   0  0  0  0  0  0
  -28.0652  -31.8542   26.5517 H   0  0  0  0  0  0
  -28.2564  -38.0065   24.7505 H   0  0  0  0  0  0
  -28.1076  -36.2590   24.6298 H   0  0  0  0  0  0
  -27.2274  -37.1414   25.8863 H   0  0  0  0  0  0
  -20.9587  -29.8713   21.6665 H   0  0  0  0  0  0
  -26.0114  -38.2752   24.1410 H   0  0  0  0  0  0
  -28.5746  -18.0501   21.3649 H   0  0  0  0  0  0
  -30.2778  -18.2141   21.4935 H   0  0  0  0  0  0
  -29.0895  -22.1127   15.7924 H   0  0  0  0  0  0
  -30.6272  -21.9483   14.7956 H   0  0  0  0  0  0
  -30.2336  -19.4678   14.5915 H   0  0  0  0  0  0
  -28.6916  -19.6356   15.5790 H   0  0  0  0  0  0
  -30.1854  -17.9719   17.0474 H   0  0  0  0  0  0
  -31.3331  -17.8456   18.3542 H   0  0  0  0  0  0
  -29.5886  -15.9439   18.1011 H   0  0  0  0  0  0
  -28.3499  -17.0623   18.5712 H   0  0  0  0  0  0
  -31.5748  -20.3671   16.5268 H   0  0  0  0  0  0
  -27.9372  -22.1839   21.4703 H   0  0  0  0  0  0
  -27.2094  -22.4535   19.9641 H   0  0  0  0  0  0
  -29.3615  -24.3553   21.1984 H   0  0  0  0  0  0
  -27.6935  -24.4400   21.5556 H   0  0  0  0  0  0
  1 25  1  0  0  0
  1 30  2  0  0  0
  1 84  1  0  0  0
  2  3  1  0  0  0
  2 25  1  0  0  0
  2 85  1  0  0  0
  2 86  1  0  0  0
  3  4  1  0  0  0
  3 87  1  0  0  0
  3 88  1  0  0  0
  4  5  1  0  0  0
  4 89  1  0  0  0
  4 90  1  0  0  0
  5  6  1  0  0  0
  5 26  1  0  0  0
  5 91  1  0  0  0
  6 25  1  0  0  0
  6 92  1  0  0  0
  6 93  1  0  0  0
  7  8  2  0  0  0
  7 26  1  0  0  0
  7 29  1  0  0  0
  8  9  1  0  0  0
  8 22  1  0  0  0
  9 10  1  0  0  0
  9 27  2  0  0  0
 10 11  2  0  0  0
 10 15  1  0  0  0
 11 12  1  0  0  0
 11 94  1  0  0  0
 12 13  2  0  0  0
 12 95  1  0  0  0
 13 14  1  0  0  0
 13 31  1  0  0  0
 14 15  2  0  0  0
 14 96  1  0  0  0
 15 97  1  0  0  0
 16 17  2  0  0  0
 16 21  1  0  0  0
 16 31  1  0  0  0
 17 18  1  0  0  0
 17 98  1  0  0  0
 18 19  2  0  0  0
 18 99  1  0  0  0
 19 20  1  0  0  0
 19 24  1  0  0  0
 20 21  2  0  0  0
 20100  1  0  0  0
 21 23  1  0  0  0
 22 28  1  0  0  0
 22 32  2  0  0  0
 26 27  1  0  0  0
 28101  1  0  0  0
 28102  1  0  0  0
 29103  1  0  0  0
 29104  1  0  0  0
 33 34  1  0  0  0
 33 66  1  0  0  0
 33 70  2  0  0  0
 34 36  1  0  0  0
 34 59  1  0  0  0
 34105  1  0  0  0
 35 44  2  0  0  0
 35 45  1  0  0  0
 35 68  1  0  0  0
 36 56  1  0  0  0
 36106  1  0  0  0
 37 39  1  0  0  0
 37 47  1  0  0  0
 37 66  1  0  0  0
 37107  1  0  0  0
 38 43  2  0  0  0
 38 46  1  0  0  0
 38 47  1  0  0  0
 39 64  1  0  0  0
 39 67  2  0  0  0
 40 52  1  0  0  0
 40 53  2  0  0  0
 40 58  1  0  0  0
 41108  1  0  0  0
 41109  1  0  0  0
 41110  1  0  0  0
 41 48  1  0  0  0
 42 43  1  0  0  0
 42 66  1  0  0  0
 42111  1  0  0  0
 42112  1  0  0  0
 43 44  1  0  0  0
 44113  1  0  0  0
 45 46  2  0  0  0
 45114  1  0  0  0
 46115  1  0  0  0
 47116  1  0  0  0
 47117  1  0  0  0
 48 56  1  0  0  0
 48 65  1  0  0  0
 48118  1  0  0  0
 49 50  1  0  0  0
 49 53  1  0  0  0
 49 64  1  0  0  0
 49119  1  0  0  0
 50 51  1  0  0  0
 50120  1  0  0  0
 50121  1  0  0  0
 51 52  1  0  0  0
 51122  1  0  0  0
 51123  1  0  0  0
 52124  1  0  0  0
 52125  1  0  0  0
 53 54  1  0  0  0
 54 55  2  0  0  0
 54126  1  0  0  0
 55 57  1  0  0  0
 55127  1  0  0  0
 56 69  2  0  0  0
 57 58  2  0  0  0
 57128  1  0  0  0
 58129  1  0  0  0
 59 60  1  0  0  0
 59 61  1  0  0  0
 59 62  1  0  0  0
 60130  1  0  0  0
 60131  1  0  0  0
 60132  1  0  0  0
 61133  1  0  0  0
 61134  1  0  0  0
 61135  1  0  0  0
 62136  1  0  0  0
 62137  1  0  0  0
 62138  1  0  0  0
 63 65  1  0  0  0
 63139  1  0  0  0
 63140  1  0  0  0
 63141  1  0  0  0
 64142  1  0  0  0
 65143  1  0  0  0
 68 81  1  0  0  0
 71 72  2  0  0  0
 71 74  1  0  0  0
 71 83  1  0  0  0
 72 80  1  0  0  0
 72 82  1  0  0  0
 73 82  2  0  0  0
 73 83  1  0  0  0
 73 79  1  0  0  0
 74 84  1  0  0  0
 74144  1  0  0  0
 74145  1  0  0  0
 75 76  1  0  0  0
 75 79  1  0  0  0
 75146  1  0  0  0
 75147  1  0  0  0
 76 79  1  0  0  0
 76148  1  0  0  0
 76149  1  0  0  0
 77 78  1  0  0  0
 77 83  1  0  0  0
 77150  1  0  0  0
 77151  1  0  0  0
 78 84  1  0  0  0
 78152  1  0  0  0
 78153  1  0  0  0
 79154  1  0  0  0
 80 81  1  0  0  0
 80155  1  0  0  0
 80156  1  0  0  0
 81157  1  0  0  0
 81158  1  0  0  0
M  ISO  4   1 100  68 101  81 101  84 100
M  END
> <chiral flag>
0

> <version>
0

> <s_m_source_file>
/data/baiqing/PycharmProjects/Reinvent-master-3.2/result/LINK_invent/BTK/process_docking_weight1_custom_sum_contain_oxygen_bond_distance_aromatic_linkinvent_7_9_3/rearranged_h_0190.sdf

> <i_m_source_file_index>
53

> <r_mmod_Potential_Energy-OPLS-2005>
1698.88500976562

> <r_mmod_Stretch_Energy-OPLS-2005>
648.614318847656

> <r_mmod_Bend_Energy-OPLS-2005>
604.21484375

> <r_mmod_Torsional_Energy-OPLS-2005>
366.875335693359

> <r_mmod_Improper_Torsional_Energy-OPLS-2005>
14.1737489700317

> <r_mmod_Van_der_Waal_Energy-OPLS-2005>
108.501495361328

> <r_mmod_Electrostatic_Energy-OPLS-2005>
-302.555877685547

> <r_mmod_Solvation_Energy-OPLS-2005>
-223.74479675293

> <b_mmod_Minimization_Converged-OPLS-2005>
0

> <r_mmod_RMS_Derivative-OPLS-2005>
1.40069043636322

$$$$
53
                    3D
 Structure written by MMmdl.
166175  0  0  1  0            999 V2000
  -29.9315  -15.1781   20.7227 C   0  0  0  0  0  0
  -30.3905  -12.8313   19.6288 C   0  0  0  0  0  0
  -29.5297  -12.5927   18.3531 C   0  0  0  0  0  0
  -28.0658  -12.2693   18.7183 C   0  0  0  0  0  0
  -27.5611  -13.1929   19.8520 C   0  0  2  0  0  0
  -28.5017  -13.1740   21.0537 C   0  0  0  0  0  0
  -25.2149  -13.7924   20.5759 C   0  0  0  0  0  0
  -24.1450  -13.0281   20.9219 C   0  0  0  0  0  0
  -24.6020  -11.6750   20.8728 C   0  0  0  0  0  0
  -23.8797  -10.4194   21.0436 C   0  0  0  0  0  0
  -24.3468   -9.4159   21.9187 C   0  0  0  0  0  0
  -23.6222   -8.2167   22.0733 C   0  0  0  0  0  0
  -22.4211   -8.0184   21.3524 C   0  0  0  0  0  0
  -21.9784   -9.0118   20.4622 C   0  0  0  0  0  0
  -22.7021  -10.2029   20.3042 C   0  0  0  0  0  0
  -21.6841   -6.0680   22.5282 C   0  0  0  0  0  0
  -21.4008   -6.5606   23.8208 C   0  0  0  0  0  0
  -21.3670   -5.6771   24.9176 C   0  0  0  0  0  0
  -21.6047   -4.3036   24.7234 C   0  0  0  0  0  0
  -21.8815   -3.8116   23.4361 C   0  0  0  0  0  0
  -21.9187   -4.6916   22.3409 C   0  0  0  0  0  0
  -22.7569  -13.5185   21.1948 C   0  0  0  0  0  0
  -22.1662   -4.2104   21.0988 F   0  0  0  0  0  0
  -21.5616   -3.4530   25.7754 F   0  0  0  0  0  0
  -29.6901  -13.8051   20.5517 N   0  0  0  0  0  0
  -26.2303  -12.8998   20.3011 N   0  0  0  0  0  0
  -25.8835  -11.6216   20.5514 N   0  0  0  0  0  0
  -22.0251  -12.8180   22.0511 N   0  0  0  0  0  0
  -25.4141  -15.1607   20.4516 N   0  0  0  0  0  0
  -31.1150  -15.4548   20.3981 O   0  0  0  0  0  0
  -21.6605   -6.8784   21.4230 O   0  0  0  0  0  0
  -22.3353  -14.5554   20.6819 O   0  0  0  0  0  0
  -24.6544  -31.9430   23.2313 C   0  0  0  0  0  0
  -25.9485  -32.5120   23.8644 C   0  0  1  0  0  0
  -26.1140  -27.2436   20.3858 C   0  0  0  0  0  0
  -25.6329  -33.8858   24.2590 N   0  0  0  0  0  0
  -23.4498  -30.5949   21.6039 C   0  0  2  0  0  0
  -24.8348  -29.3660   19.7895 C   0  0  0  0  0  0
  -23.0822  -29.4867   22.6316 C   0  0  0  0  0  0
  -18.5701  -27.8214   22.4088 C   0  0  0  0  0  0
  -24.1501  -36.7390   23.2588 C   0  0  0  0  0  0
  -25.9784  -30.8570   21.4185 C   0  0  0  0  0  0
  -25.9104  -29.5557   20.6593 C   0  0  0  0  0  0
  -26.7449  -28.4419   20.8581 C   0  0  0  0  0  0
  -25.8648  -27.2771   19.0444 C   0  0  0  0  0  0
  -24.9413  -28.3151   18.8242 C   0  0  0  0  0  0
  -23.5832  -30.1596   20.0954 C   0  0  0  0  0  0
  -25.4114  -36.3237   24.0330 C   0  0  1  0  0  0
  -21.3725  -28.0580   23.5976 C   0  0  2  0  0  0
  -22.2939  -26.3000   22.7348 C   0  0  0  0  0  0
  -20.7050  -25.3643   21.1345 C   0  0  0  0  0  0
  -18.8787  -26.3999   21.2688 C   0  0  0  0  0  0
  -19.6270  -28.5172   23.3239 C   0  0  0  0  0  0
  -19.1902  -29.7399   23.9713 C   0  0  0  0  0  0
  -17.8686  -30.2564   23.9749 C   0  0  0  0  0  0
  -25.9133  -34.9634   23.5177 C   0  0  0  0  0  0
  -16.8607  -29.5203   23.3369 C   0  0  0  0  0  0
  -17.2157  -28.3529   22.5879 C   0  0  0  0  0  0
  -26.4555  -31.6718   25.0975 C   0  0  0  0  0  0
  -25.3630  -31.3915   26.1566 C   0  0  0  0  0  0
  -27.0257  -30.3089   24.6409 C   0  0  0  0  0  0
  -27.6146  -32.4280   25.7826 C   0  0  0  0  0  0
  -27.5614  -37.1871   24.8435 C   0  0  0  0  0  0
  -21.8585  -29.3510   23.0583 N   0  0  0  0  0  0
  -26.4274  -37.3942   23.9461 N   0  0  0  0  0  0
  -24.7096  -31.1977   22.1006 N   0  0  0  0  0  0
  -23.9171  -28.7696   23.1584 O   0  0  0  0  0  0
  -24.7924  -26.9831   20.9631 O   0  0  0  0  0  0
  -26.5536  -34.9004   22.4645 O   0  0  0  0  0  0
  -23.5756  -32.2059   23.7837 O   0  0  0  0  0  0
  -23.8071  -21.7988   23.9288 C   0  0  0  0  0  0
  -22.1883  -22.7163   22.0440 C   0  0  0  0  0  0
  -21.7921  -23.4548   23.2749 C   0  0  0  0  0  0
  -22.7570  -22.8427   24.2088 C   0  0  0  0  0  0
  -24.1244  -21.1301   22.6621 C   0  0  0  0  0  0
  -20.4964  -24.5891   23.6624 C   0  0  0  0  0  0
  -28.1441  -17.2344   20.2028 C   0  0  0  0  0  0
  -28.6536  -17.0392   22.3542 C   0  0  0  0  0  0
  -26.8158  -18.2562   20.5829 C   0  0  0  0  0  0
  -27.2290  -17.8486   22.8054 C   0  0  0  0  0  0
  -25.0307  -19.5985   22.3748 C   0  0  0  0  0  0
  -21.0689  -27.5463   21.3450 C   0  0  0  0  0  0
  -22.9978  -27.2311   20.5653 C   0  0  0  0  0  0
  -23.1885  -21.7007   21.7791 N   0  0  0  0  0  0
  -28.8213  -16.1531   21.0933 N   0  0  0  0  0  0
  -20.1491  -26.0575   23.1937 N   0  0  0  0  0  0
  -26.5600  -18.9678   21.9477 N   0  3  0  0  0  0
  -19.7108  -24.1465   24.4994 O   0  0  0  0  0  0
  -22.6689  -23.3690   25.8517 Cl  0  0  0  0  0  0
  -31.3727  -13.2111   19.3411 H   0  0  0  0  0  0
  -30.5849  -11.8930   20.1498 H   0  0  0  0  0  0
  -29.9628  -11.7936   17.7488 H   0  0  0  0  0  0
  -29.5506  -13.4932   17.7392 H   0  0  0  0  0  0
  -28.0318  -11.2346   19.0630 H   0  0  0  0  0  0
  -27.4211  -12.3252   17.8404 H   0  0  0  0  0  0
  -27.5236  -14.1941   19.4239 H   0  0  0  0  0  0
  -28.6839  -12.1597   21.4111 H   0  0  0  0  0  0
  -28.0844  -13.7306   21.8966 H   0  0  0  0  0  0
  -25.2595   -9.5741   22.4755 H   0  0  0  0  0  0
  -23.9989   -7.4581   22.7439 H   0  0  0  0  0  0
  -21.0713   -8.8579   19.8939 H   0  0  0  0  0  0
  -22.3414  -10.9565   19.6182 H   0  0  0  0  0  0
  -21.1995   -7.6110   23.9711 H   0  0  0  0  0  0
  -21.1520   -6.0500   25.9087 H   0  0  0  0  0  0
  -22.0605   -2.7582   23.2856 H   0  0  0  0  0  0
  -22.3933  -11.9848   22.4868 H   0  0  0  0  0  0
  -21.0911  -13.1256   22.2836 H   0  0  0  0  0  0
  -24.6579  -15.8313   20.5182 H   0  0  0  0  0  0
  -26.3152  -15.5570   20.2376 H   0  0  0  0  0  0
  -26.7603  -32.5617   23.1417 H   0  0  0  0  0  0
  -25.0500  -34.0012   25.0745 H   0  0  0  0  0  0
  -22.6538  -31.3398   21.6345 H   0  0  0  0  0  0
  -23.3805  -35.9678   23.3172 H   0  0  0  0  0  0
  -24.3621  -36.9086   22.2020 H   0  0  0  0  0  0
  -23.7164  -37.6534   23.6633 H   0  0  0  0  0  0
  -26.2167  -31.6593   20.7172 H   0  0  0  0  0  0
  -26.8346  -30.7708   22.0755 H   0  0  0  0  0  0
  -27.4976  -28.4381   21.6320 H   0  0  0  0  0  0
  -25.7458  -26.3833   18.4509 H   0  0  0  0  0  0
  -24.2337  -28.2367   18.0113 H   0  0  0  0  0  0
  -23.6286  -31.0635   19.4868 H   0  0  0  0  0  0
  -22.6718  -29.6715   19.7601 H   0  0  0  0  0  0
  -25.1249  -36.2113   25.0815 H   0  0  0  0  0  0
  -21.5688  -28.0576   24.6698 H   0  0  0  0  0  0
  -22.5557  -25.7461   23.6341 H   0  0  0  0  0  0
  -23.3601  -26.2844   22.5647 H   0  0  0  0  0  0
  -20.3904  -24.3307   21.1930 H   0  0  0  0  0  0
  -21.0587  -25.3852   20.0975 H   0  0  0  0  0  0
  -18.6065  -26.7470   20.2700 H   0  0  0  0  0  0
  -18.1030  -25.6622   21.4729 H   0  0  0  0  0  0
  -19.9199  -30.2867   24.5517 H   0  0  0  0  0  0
  -17.6335  -31.1558   24.5237 H   0  0  0  0  0  0
  -15.8349  -29.8580   23.3664 H   0  0  0  0  0  0
  -16.4204  -27.8631   22.0466 H   0  0  0  0  0  0
  -24.5836  -30.7294   25.7785 H   0  0  0  0  0  0
  -24.8801  -32.3125   26.4852 H   0  0  0  0  0  0
  -25.7786  -30.9118   27.0439 H   0  0  0  0  0  0
  -26.2808  -29.6989   24.1312 H   0  0  0  0  0  0
  -27.3729  -29.7224   25.4919 H   0  0  0  0  0  0
  -27.8822  -30.4288   23.9774 H   0  0  0  0  0  0
  -27.2855  -33.3607   26.2405 H   0  0  0  0  0  0
  -28.4027  -32.6763   25.0712 H   0  0  0  0  0  0
  -28.0695  -31.8339   26.5759 H   0  0  0  0  0  0
  -28.2534  -38.0268   24.7678 H   0  0  0  0  0  0
  -28.1210  -36.2824   24.6011 H   0  0  0  0  0  0
  -27.2372  -37.1230   25.8834 H   0  0  0  0  0  0
  -21.1574  -30.0374   22.8203 H   0  0  0  0  0  0
  -26.0153  -38.2985   24.1594 H   0  0  0  0  0  0
  -24.3684  -21.4589   24.7881 H   0  0  0  0  0  0
  -21.6445  -22.8501   21.1269 H   0  0  0  0  0  0
  -28.9638  -17.8902   19.9079 H   0  0  0  0  0  0
  -27.8885  -16.7230   19.2735 H   0  0  0  0  0  0
  -28.9455  -16.4159   23.1990 H   0  0  0  0  0  0
  -29.4491  -17.7877   22.3040 H   0  0  0  0  0  0
  -25.9036  -17.7050   20.3730 H   0  0  0  0  0  0
  -26.8177  -19.0473   19.8343 H   0  0  0  0  0  0
  -27.4125  -18.2866   23.7887 H   0  0  0  0  0  0
  -26.4700  -17.0844   22.9758 H   0  0  0  0  0  0
  -24.3481  -18.9990   21.7720 H   0  0  0  0  0  0
  -24.9129  -19.1538   23.3596 H   0  0  0  0  0  0
  -20.7509  -28.5829   21.2462 H   0  0  0  0  0  0
  -20.6231  -27.5064   20.3448 H   0  0  0  0  0  0
  -22.8404  -27.5990   19.5632 H   0  0  0  0  0  0
  -22.9507  -26.1886   20.2558 H   0  0  0  0  0  0
  -19.3374  -26.4639   23.6405 H   0  0  0  0  0  0
  -27.1872  -19.7552   21.9921 H   0  0  0  0  0  0
  1 25  1  0  0  0
  1 30  2  0  0  0
  1 85  1  0  0  0
  2  3  1  0  0  0
  2 25  1  0  0  0
  2 90  1  0  0  0
  2 91  1  0  0  0
  3  4  1  0  0  0
  3 92  1  0  0  0
  3 93  1  0  0  0
  4  5  1  0  0  0
  4 94  1  0  0  0
  4 95  1  0  0  0
  5  6  1  0  0  0
  5 26  1  0  0  0
  5 96  1  0  0  0
  6 25  1  0  0  0
  6 97  1  0  0  0
  6 98  1  0  0  0
  7  8  2  0  0  0
  7 26  1  0  0  0
  7 29  1  0  0  0
  8  9  1  0  0  0
  8 22  1  0  0  0
  9 10  1  0  0  0
  9 27  2  0  0  0
 10 11  2  0  0  0
 10 15  1  0  0  0
 11 12  1  0  0  0
 11 99  1  0  0  0
 12 13  2  0  0  0
 12100  1  0  0  0
 13 14  1  0  0  0
 13 31  1  0  0  0
 14 15  2  0  0  0
 14101  1  0  0  0
 15102  1  0  0  0
 16 17  2  0  0  0
 16 21  1  0  0  0
 16 31  1  0  0  0
 17 18  1  0  0  0
 17103  1  0  0  0
 18 19  2  0  0  0
 18104  1  0  0  0
 19 20  1  0  0  0
 19 24  1  0  0  0
 20 21  2  0  0  0
 20105  1  0  0  0
 21 23  1  0  0  0
 22 28  1  0  0  0
 22 32  2  0  0  0
 26 27  1  0  0  0
 28106  1  0  0  0
 28107  1  0  0  0
 29108  1  0  0  0
 29109  1  0  0  0
 33 34  1  0  0  0
 33 66  1  0  0  0
 33 70  2  0  0  0
 34 36  1  0  0  0
 34 59  1  0  0  0
 34110  1  0  0  0
 35 44  2  0  0  0
 35 45  1  0  0  0
 35 68  1  0  0  0
 36 56  1  0  0  0
 36111  1  0  0  0
 37 39  1  0  0  0
 37 47  1  0  0  0
 37 66  1  0  0  0
 37112  1  0  0  0
 38 43  2  0  0  0
 38 46  1  0  0  0
 38 47  1  0  0  0
 39 64  1  0  0  0
 39 67  2  0  0  0
 40 52  1  0  0  0
 40 53  2  0  0  0
 40 58  1  0  0  0
 41113  1  0  0  0
 41114  1  0  0  0
 41115  1  0  0  0
 41 48  1  0  0  0
 42 43  1  0  0  0
 42 66  1  0  0  0
 42116  1  0  0  0
 42117  1  0  0  0
 43 44  1  0  0  0
 44118  1  0  0  0
 45 46  2  0  0  0
 45119  1  0  0  0
 46120  1  0  0  0
 47121  1  0  0  0
 47122  1  0  0  0
 48 56  1  0  0  0
 48 65  1  0  0  0
 48123  1  0  0  0
 49 50  1  0  0  0
 49 53  1  0  0  0
 49 64  1  0  0  0
 49124  1  0  0  0
 50 51  1  0  0  0
 50125  1  0  0  0
 50126  1  0  0  0
 51 52  1  0  0  0
 51127  1  0  0  0
 51128  1  0  0  0
 52129  1  0  0  0
 52130  1  0  0  0
 53 54  1  0  0  0
 54 55  2  0  0  0
 54131  1  0  0  0
 55 57  1  0  0  0
 55132  1  0  0  0
 56 69  2  0  0  0
 57 58  2  0  0  0
 57133  1  0  0  0
 58134  1  0  0  0
 59 60  1  0  0  0
 59 61  1  0  0  0
 59 62  1  0  0  0
 60135  1  0  0  0
 60136  1  0  0  0
 60137  1  0  0  0
 61138  1  0  0  0
 61139  1  0  0  0
 61140  1  0  0  0
 62141  1  0  0  0
 62142  1  0  0  0
 62143  1  0  0  0
 63 65  1  0  0  0
 63144  1  0  0  0
 63145  1  0  0  0
 63146  1  0  0  0
 64147  1  0  0  0
 65148  1  0  0  0
 68 83  1  0  0  0
 71 74  2  0  0  0
 71 75  1  0  0  0
 71149  1  0  0  0
 72 73  2  0  0  0
 72 84  1  0  0  0
 72150  1  0  0  0
 73 74  1  0  0  0
 73 76  1  0  0  0
 74 89  1  0  0  0
 75 81  1  0  0  0
 75 84  2  0  0  0
 76 86  1  0  0  0
 76 88  2  0  0  0
 77 79  1  0  0  0
 77 85  1  0  0  0
 77151  1  0  0  0
 77152  1  0  0  0
 78 80  1  0  0  0
 78 85  1  0  0  0
 78153  1  0  0  0
 78154  1  0  0  0
 79 87  1  0  0  0
 79155  1  0  0  0
 79156  1  0  0  0
 80 87  1  0  0  0
 80157  1  0  0  0
 80158  1  0  0  0
 81159  1  0  0  0
 81160  1  0  0  0
 81 87  1  0  0  0
 82 83  1  0  0  0
 82 86  1  0  0  0
 82161  1  0  0  0
 82162  1  0  0  0
 83163  1  0  0  0
 83164  1  0  0  0
 86165  1  0  0  0
 87166  1  0  0  0
M  CHG  1  87   1
M  ISO  4   1 100  68 101  83 101  85 100
M  END
> <chiral flag>
0

> <version>
0

> <s_m_source_file>
/data/baiqing/PycharmProjects/Reinvent-master-3.2/result/LINK_invent/BTK/process_docking_weight1_custom_sum_contain_oxygen_bond_distance_aromatic_linkinvent_7_9_3/rearranged_h_0190.sdf

> <i_m_source_file_index>
54

> <r_mmod_Potential_Energy-OPLS-2005>
11623.2021484375

> <r_mmod_Stretch_Energy-OPLS-2005>
5249.64208984375

> <r_mmod_Bend_Energy-OPLS-2005>
1149.57946777344

> <r_mmod_Torsional_Energy-OPLS-2005>
722.604125976562

> <r_mmod_Improper_Torsional_Energy-OPLS-2005>
45.564525604248

> <r_mmod_Van_der_Waal_Energy-OPLS-2005>
2116.8408203125

> <r_mmod_Electrostatic_Energy-OPLS-2005>
-470.476043701172

> <r_mmod_Solvation_Energy-OPLS-2005>
-502.564483642578

> <b_mmod_Minimization_Converged-OPLS-2005>
0

> <r_mmod_RMS_Derivative-OPLS-2005>
9.53891658782959

$$$$
54
                    3D
 Structure written by MMmdl.
168177  0  0  1  0            999 V2000
  -30.6389  -14.6301   20.4911 C   0  0  0  0  0  0
  -30.4314  -12.3867   19.4450 C   0  0  0  0  0  0
  -29.5007  -12.4959   18.2178 C   0  0  0  0  0  0
  -28.0253  -12.3392   18.6353 C   0  0  0  0  0  0
  -27.6508  -13.2178   19.8587 C   0  0  2  0  0  0
  -28.6978  -13.0885   20.9872 C   0  0  0  0  0  0
  -25.2559  -13.8169   20.5700 C   0  0  0  0  0  0
  -24.1833  -13.0433   20.9204 C   0  0  0  0  0  0
  -24.6409  -11.6899   20.8759 C   0  0  0  0  0  0
  -23.9070  -10.4285   21.0422 C   0  0  0  0  0  0
  -24.3622   -9.4194   21.9192 C   0  0  0  0  0  0
  -23.6301   -8.2228   22.0757 C   0  0  0  0  0  0
  -22.4280   -8.0277   21.3547 C   0  0  0  0  0  0
  -21.9917   -9.0248   20.4642 C   0  0  0  0  0  0
  -22.7249  -10.2128   20.3061 C   0  0  0  0  0  0
  -21.6855   -6.0734   22.5280 C   0  0  0  0  0  0
  -21.4012   -6.5640   23.8211 C   0  0  0  0  0  0
  -21.3658   -5.6798   24.9176 C   0  0  0  0  0  0
  -21.6047   -4.3058   24.7228 C   0  0  0  0  0  0
  -21.8822   -3.8147   23.4349 C   0  0  0  0  0  0
  -21.9191   -4.6960   22.3405 C   0  0  0  0  0  0
  -22.7854  -13.5212   21.1862 C   0  0  0  0  0  0
  -22.1663   -4.2146   21.0985 F   0  0  0  0  0  0
  -21.5628   -3.4541   25.7742 F   0  0  0  0  0  0
  -30.0089  -13.4186   20.4108 N   0  0  0  0  0  0
  -26.2988  -12.9355   20.3321 N   0  0  0  0  0  0
  -25.9335  -11.6508   20.5773 N   0  0  0  0  0  0
  -22.0502  -12.8196   22.0411 N   0  0  0  0  0  0
  -25.4246  -15.1897   20.4108 N   0  0  0  0  0  0
  -31.8189  -14.7660   20.1541 O   0  0  0  0  0  0
  -21.6640   -6.8876   21.4247 O   0  0  0  0  0  0
  -22.3534  -14.5522   20.6714 O   0  0  0  0  0  0
  -24.6234  -31.8604   23.2051 C   0  0  0  0  0  0
  -25.9086  -32.4785   23.8361 C   0  0  1  0  0  0
  -27.2320  -27.3424   20.1212 C   0  0  0  0  0  0
  -25.5901  -33.8583   24.2279 N   0  0  0  0  0  0
  -23.4170  -30.4831   21.5465 C   0  0  2  0  0  0
  -24.8636  -28.9306   20.1210 C   0  0  0  0  0  0
  -22.7455  -29.4635   22.4969 C   0  0  0  0  0  0
  -18.0278  -28.1390   22.8513 C   0  0  0  0  0  0
  -24.1479  -36.7299   23.2645 C   0  0  0  0  0  0
  -25.9542  -30.7992   21.3710 C   0  0  0  0  0  0
  -26.0297  -29.4264   20.7161 C   0  0  0  0  0  0
  -27.2189  -28.6457   20.6965 C   0  0  0  0  0  0
  -26.0401  -26.8731   19.5295 C   0  0  0  0  0  0
  -24.8682  -27.6589   19.5202 C   0  0  0  0  0  0
  -23.6318  -29.8125   20.1632 C   0  0  0  0  0  0
  -25.4110  -36.3096   24.0326 C   0  0  1  0  0  0
  -20.5876  -28.3695   23.1312 C   0  0  2  0  0  0
  -20.6778  -26.9421   22.5438 C   0  0  0  0  0  0
  -19.5751  -26.6404   21.5244 C   0  0  0  0  0  0
  -18.1924  -26.7942   22.1642 C   0  0  0  0  0  0
  -19.1530  -28.8860   23.2906 C   0  0  0  0  0  0
  -18.9454  -30.1473   23.8910 C   0  0  0  0  0  0
  -17.6453  -30.6594   24.0581 C   0  0  0  0  0  0
  -25.9047  -34.9458   23.5114 C   0  0  0  0  0  0
  -16.5346  -29.9096   23.6336 C   0  0  0  0  0  0
  -16.7267  -28.6511   23.0360 C   0  0  0  0  0  0
  -26.4494  -31.6589   25.0718 C   0  0  0  0  0  0
  -25.3730  -31.3682   26.1444 C   0  0  0  0  0  0
  -27.0357  -30.3029   24.6166 C   0  0  0  0  0  0
  -27.6073  -32.4317   25.7460 C   0  0  0  0  0  0
  -27.5580  -37.1799   24.8461 C   0  0  0  0  0  0
  -21.4173  -29.3039   22.3693 N   0  0  0  0  0  0
  -26.4295  -37.3786   23.9408 N   0  0  0  0  0  0
  -24.6833  -31.0642   22.0987 N   0  0  0  0  0  0
  -23.4189  -28.8176   23.3045 O   0  0  0  0  0  0
  -28.3952  -26.5724   20.0990 O   0  0  0  0  0  0
  -26.5627  -34.8924   22.4691 O   0  0  0  0  0  0
  -23.5413  -32.1392   23.7400 O   0  0  0  0  0  0
  -30.0758  -20.7223   18.5548 C   0  0  0  0  0  0
  -30.2930  -17.9875   19.5725 C   0  0  0  0  0  0
  -29.5791  -22.1222   18.2134 C   0  0  0  0  0  0
  -28.7105  -21.6011   20.3381 C   0  0  0  0  0  0
  -29.1375  -20.2196   19.6544 C   0  0  2  0  0  0
  -30.2588  -17.1562   20.8760 C   0  0  1  0  0  0
  -29.1378  -18.1828   21.2519 C   0  0  1  0  0  0
  -28.6319  -17.5677   23.6635 C   0  0  0  0  0  0
  -28.6097  -24.7515   17.9520 C   0  0  0  0  0  0
  -29.0058  -18.6849   22.6848 C   0  0  0  0  0  0
  -28.3724  -25.1396   20.4534 C   0  0  0  0  0  0
  -28.3075  -24.0395   19.3012 C   0  0  2  0  0  0
  -29.8741  -19.1433   20.4050 N   0  0  0  0  0  0
  -29.8547  -15.7147   20.7706 N   0  0  0  0  0  0
  -29.1728  -22.7704   19.4851 N   0  3  2  0  0  0
  -31.4723  -12.5054   19.1391 H   0  0  0  0  0  0
  -30.3608  -11.3956   19.8958 H   0  0  0  0  0  0
  -29.7598  -11.7370   17.4781 H   0  0  0  0  0  0
  -29.6433  -13.4612   17.7290 H   0  0  0  0  0  0
  -27.8652  -11.2880   18.8759 H   0  0  0  0  0  0
  -27.3673  -12.5618   17.7944 H   0  0  0  0  0  0
  -27.6625  -14.2499   19.5088 H   0  0  0  0  0  0
  -28.7093  -12.0757   21.3932 H   0  0  0  0  0  0
  -28.4520  -13.7441   21.8242 H   0  0  0  0  0  0
  -25.2768   -9.5661   22.4764 H   0  0  0  0  0  0
  -24.0007   -7.4615   22.7482 H   0  0  0  0  0  0
  -21.0844   -8.8773   19.8946 H   0  0  0  0  0  0
  -22.3720  -10.9669   19.6169 H   0  0  0  0  0  0
  -21.2009   -7.6150   23.9710 H   0  0  0  0  0  0
  -21.1479   -6.0532   25.9079 H   0  0  0  0  0  0
  -22.0603   -2.7608   23.2856 H   0  0  0  0  0  0
  -22.4143  -11.9859   22.4785 H   0  0  0  0  0  0
  -21.1117  -13.1204   22.2621 H   0  0  0  0  0  0
  -24.6531  -15.8382   20.5223 H   0  0  0  0  0  0
  -26.2625  -15.6297   20.0540 H   0  0  0  0  0  0
  -26.7137  -32.5473   23.1099 H   0  0  0  0  0  0
  -24.9972  -33.9708   25.0368 H   0  0  0  0  0  0
  -22.7110  -31.3039   21.4034 H   0  0  0  0  0  0
  -23.3746  -35.9626   23.3310 H   0  0  0  0  0  0
  -24.3556  -36.8947   22.2064 H   0  0  0  0  0  0
  -23.7239  -37.6500   23.6671 H   0  0  0  0  0  0
  -26.0809  -31.5637   20.6034 H   0  0  0  0  0  0
  -26.8360  -30.8500   21.9986 H   0  0  0  0  0  0
  -28.1231  -29.0299   21.1479 H   0  0  0  0  0  0
  -26.0083  -25.8987   19.0635 H   0  0  0  0  0  0
  -23.9702  -27.2743   19.0577 H   0  0  0  0  0  0
  -23.7514  -30.5879   19.4048 H   0  0  0  0  0  0
  -22.7508  -29.2443   19.8615 H   0  0  0  0  0  0
  -25.1302  -36.1964   25.0822 H   0  0  0  0  0  0
  -20.9964  -28.3276   24.1438 H   0  0  0  0  0  0
  -20.5733  -26.2288   23.3623 H   0  0  0  0  0  0
  -21.6638  -26.7483   22.1207 H   0  0  0  0  0  0
  -19.6910  -25.6328   21.1250 H   0  0  0  0  0  0
  -19.6690  -27.3230   20.6788 H   0  0  0  0  0  0
  -17.4209  -26.6713   21.4028 H   0  0  0  0  0  0
  -18.0294  -26.0074   22.9025 H   0  0  0  0  0  0
  -19.7934  -30.7300   24.2260 H   0  0  0  0  0  0
  -17.5009  -31.6265   24.5203 H   0  0  0  0  0  0
  -15.5351  -30.3005   23.7656 H   0  0  0  0  0  0
  -15.8663  -28.0842   22.7055 H   0  0  0  0  0  0
  -24.5891  -30.7071   25.7736 H   0  0  0  0  0  0
  -24.8909  -32.2815   26.4939 H   0  0  0  0  0  0
  -25.8047  -30.8785   27.0178 H   0  0  0  0  0  0
  -26.2913  -29.6735   24.1276 H   0  0  0  0  0  0
  -27.4164  -29.7358   25.4674 H   0  0  0  0  0  0
  -27.8733  -30.4344   23.9306 H   0  0  0  0  0  0
  -27.2720  -33.3624   26.2040 H   0  0  0  0  0  0
  -28.3853  -32.6874   25.0251 H   0  0  0  0  0  0
  -28.0757  -31.8434   26.5361 H   0  0  0  0  0  0
  -28.2608  -38.0092   24.7544 H   0  0  0  0  0  0
  -28.1077  -36.2636   24.6259 H   0  0  0  0  0  0
  -27.2282  -37.1426   25.8857 H   0  0  0  0  0  0
  -20.9345  -29.8719   21.6869 H   0  0  0  0  0  0
  -26.0187  -38.2862   24.1435 H   0  0  0  0  0  0
  -31.1020  -20.7884   18.9225 H   0  0  0  0  0  0
  -30.0823  -20.0681   17.6823 H   0  0  0  0  0  0
  -29.5254  -17.7267   18.8389 H   0  0  0  0  0  0
  -31.2795  -18.1441   19.1335 H   0  0  0  0  0  0
  -28.7115  -22.0157   17.5609 H   0  0  0  0  0  0
  -30.3381  -22.6922   17.6770 H   0  0  0  0  0  0
  -29.1380  -21.6933   21.3363 H   0  0  0  0  0  0
  -27.6265  -21.6296   20.4538 H   0  0  0  0  0  0
  -28.2541  -19.7866   19.1818 H   0  0  0  0  0  0
  -31.1626  -17.3028   21.4733 H   0  0  0  0  0  0
  -28.1827  -17.9357   20.7809 H   0  0  0  0  0  0
  -28.6106  -17.9420   24.6873 H   0  0  0  0  0  0
  -29.3558  -16.7525   23.6277 H   0  0  0  0  0  0
  -27.6490  -17.1545   23.4355 H   0  0  0  0  0  0
  -28.0264  -25.6628   17.8325 H   0  0  0  0  0  0
  -28.3554  -24.1462   17.0826 H   0  0  0  0  0  0
  -29.6605  -25.0368   17.8763 H   0  0  0  0  0  0
  -28.2631  -19.4816   22.7395 H   0  0  0  0  0  0
  -29.9463  -19.1266   23.0183 H   0  0  0  0  0  0
  -27.5801  -24.9613   21.1824 H   0  0  0  0  0  0
  -29.2978  -24.9863   21.0086 H   0  0  0  0  0  0
  -27.2684  -23.7149   19.2328 H   0  0  0  0  0  0
  -28.8876  -15.5109   20.9688 H   0  0  0  0  0  0
  -30.0434  -23.0711   19.9021 H   0  0  0  0  0  0
  1 25  1  0  0  0
  1 30  2  0  0  0
  1 84  1  0  0  0
  2  3  1  0  0  0
  2 25  1  0  0  0
  2 86  1  0  0  0
  2 87  1  0  0  0
  3  4  1  0  0  0
  3 88  1  0  0  0
  3 89  1  0  0  0
  4  5  1  0  0  0
  4 90  1  0  0  0
  4 91  1  0  0  0
  5  6  1  0  0  0
  5 26  1  0  0  0
  5 92  1  0  0  0
  6 25  1  0  0  0
  6 93  1  0  0  0
  6 94  1  0  0  0
  7  8  2  0  0  0
  7 26  1  0  0  0
  7 29  1  0  0  0
  8  9  1  0  0  0
  8 22  1  0  0  0
  9 10  1  0  0  0
  9 27  2  0  0  0
 10 11  2  0  0  0
 10 15  1  0  0  0
 11 12  1  0  0  0
 11 95  1  0  0  0
 12 13  2  0  0  0
 12 96  1  0  0  0
 13 14  1  0  0  0
 13 31  1  0  0  0
 14 15  2  0  0  0
 14 97  1  0  0  0
 15 98  1  0  0  0
 16 17  2  0  0  0
 16 21  1  0  0  0
 16 31  1  0  0  0
 17 18  1  0  0  0
 17 99  1  0  0  0
 18 19  2  0  0  0
 18100  1  0  0  0
 19 20  1  0  0  0
 19 24  1  0  0  0
 20 21  2  0  0  0
 20101  1  0  0  0
 21 23  1  0  0  0
 22 28  1  0  0  0
 22 32  2  0  0  0
 26 27  1  0  0  0
 28102  1  0  0  0
 28103  1  0  0  0
 29104  1  0  0  0
 29105  1  0  0  0
 33 34  1  0  0  0
 33 66  1  0  0  0
 33 70  2  0  0  0
 34 36  1  0  0  0
 34 59  1  0  0  0
 34106  1  0  0  0
 35 44  2  0  0  0
 35 45  1  0  0  0
 35 68  1  0  0  0
 36 56  1  0  0  0
 36107  1  0  0  0
 37 39  1  0  0  0
 37 47  1  0  0  0
 37 66  1  0  0  0
 37108  1  0  0  0
 38 43  2  0  0  0
 38 46  1  0  0  0
 38 47  1  0  0  0
 39 64  1  0  0  0
 39 67  2  0  0  0
 40 52  1  0  0  0
 40 53  2  0  0  0
 40 58  1  0  0  0
 41109  1  0  0  0
 41110  1  0  0  0
 41111  1  0  0  0
 41 48  1  0  0  0
 42 43  1  0  0  0
 42 66  1  0  0  0
 42112  1  0  0  0
 42113  1  0  0  0
 43 44  1  0  0  0
 44114  1  0  0  0
 45 46  2  0  0  0
 45115  1  0  0  0
 46116  1  0  0  0
 47117  1  0  0  0
 47118  1  0  0  0
 48 56  1  0  0  0
 48 65  1  0  0  0
 48119  1  0  0  0
 49 50  1  0  0  0
 49 53  1  0  0  0
 49 64  1  0  0  0
 49120  1  0  0  0
 50 51  1  0  0  0
 50121  1  0  0  0
 50122  1  0  0  0
 51 52  1  0  0  0
 51123  1  0  0  0
 51124  1  0  0  0
 52125  1  0  0  0
 52126  1  0  0  0
 53 54  1  0  0  0
 54 55  2  0  0  0
 54127  1  0  0  0
 55 57  1  0  0  0
 55128  1  0  0  0
 56 69  2  0  0  0
 57 58  2  0  0  0
 57129  1  0  0  0
 58130  1  0  0  0
 59 60  1  0  0  0
 59 61  1  0  0  0
 59 62  1  0  0  0
 60131  1  0  0  0
 60132  1  0  0  0
 60133  1  0  0  0
 61134  1  0  0  0
 61135  1  0  0  0
 61136  1  0  0  0
 62137  1  0  0  0
 62138  1  0  0  0
 62139  1  0  0  0
 63 65  1  0  0  0
 63140  1  0  0  0
 63141  1  0  0  0
 63142  1  0  0  0
 64143  1  0  0  0
 65144  1  0  0  0
 68 81  1  0  0  0
 71 73  1  0  0  0
 71 75  1  0  0  0
 71145  1  0  0  0
 71146  1  0  0  0
 72 76  1  0  0  0
 72147  1  0  0  0
 72148  1  0  0  0
 72 83  1  0  0  0
 73149  1  0  0  0
 73150  1  0  0  0
 73 85  1  0  0  0
 74 75  1  0  0  0
 74 85  1  0  0  0
 74151  1  0  0  0
 74152  1  0  0  0
 75 83  1  0  0  0
 75153  1  0  0  0
 76 77  1  0  0  0
 76 84  1  0  0  0
 76154  1  0  0  0
 77 80  1  0  0  0
 77 83  1  0  0  0
 77155  1  0  0  0
 78 80  1  0  0  0
 78156  1  0  0  0
 78157  1  0  0  0
 78158  1  0  0  0
 79159  1  0  0  0
 79160  1  0  0  0
 79161  1  0  0  0
 79 82  1  0  0  0
 80162  1  0  0  0
 80163  1  0  0  0
 81 82  1  0  0  0
 81164  1  0  0  0
 81165  1  0  0  0
 82 85  1  0  0  0
 82166  1  0  0  0
 84167  1  0  0  0
 85168  1  0  0  0
M  CHG  1  85   1
M  ISO  4   1 100  68 101  81 101  84 100
M  END
> <chiral flag>
0

> <version>
0

> <s_m_source_file>
/data/baiqing/PycharmProjects/Reinvent-master-3.2/result/LINK_invent/BTK/process_docking_weight1_custom_sum_contain_oxygen_bond_distance_aromatic_linkinvent_7_9_3/rearranged_h_0190.sdf

> <i_m_source_file_index>
55

> <r_mmod_Potential_Energy-OPLS-2005>
80.6572265625

> <r_mmod_Stretch_Energy-OPLS-2005>
80.05859375

> <r_mmod_Bend_Energy-OPLS-2005>
206.355712890625

> <r_mmod_Torsional_Energy-OPLS-2005>
311.374786376953

> <r_mmod_Improper_Torsional_Energy-OPLS-2005>
4.30920600891113

> <r_mmod_Van_der_Waal_Energy-OPLS-2005>
123.527725219727

> <r_mmod_Electrostatic_Energy-OPLS-2005>
-258.505432128906

> <r_mmod_Solvation_Energy-OPLS-2005>
-426.675659179688

> <b_mmod_Minimization_Converged-OPLS-2005>
0

> <r_mmod_RMS_Derivative-OPLS-2005>
1.99344837665558

$$$$
55
                    3D
 Structure written by MMmdl.
159168  0  0  1  0            999 V2000
  -30.7098  -14.4944   20.6083 C   0  0  0  0  0  0
  -30.4069  -12.3302   19.4337 C   0  0  0  0  0  0
  -29.4769  -12.5095   18.2161 C   0  0  0  0  0  0
  -28.0011  -12.3632   18.6313 C   0  0  0  0  0  0
  -27.6522  -13.2093   19.8865 C   0  0  2  0  0  0
  -28.6958  -13.0160   21.0090 C   0  0  0  0  0  0
  -25.2482  -13.8128   20.5665 C   0  0  0  0  0  0
  -24.1754  -13.0411   20.9204 C   0  0  0  0  0  0
  -24.6351  -11.6879   20.8790 C   0  0  0  0  0  0
  -23.9033  -10.4262   21.0435 C   0  0  0  0  0  0
  -24.3593   -9.4194   21.9221 C   0  0  0  0  0  0
  -23.6278   -8.2220   22.0786 C   0  0  0  0  0  0
  -22.4287   -8.0257   21.3565 C   0  0  0  0  0  0
  -21.9901   -9.0220   20.4664 C   0  0  0  0  0  0
  -22.7215  -10.2084   20.3057 C   0  0  0  0  0  0
  -21.6853   -6.0707   22.5253 C   0  0  0  0  0  0
  -21.4021   -6.5647   23.8160 C   0  0  0  0  0  0
  -21.3685   -5.6827   24.9155 C   0  0  0  0  0  0
  -21.6077   -4.3097   24.7241 C   0  0  0  0  0  0
  -21.8828   -3.8156   23.4368 C   0  0  0  0  0  0
  -21.9165   -4.6921   22.3409 C   0  0  0  0  0  0
  -22.7795  -13.5189   21.1934 C   0  0  0  0  0  0
  -22.1626   -4.2080   21.0988 F   0  0  0  0  0  0
  -21.5674   -3.4622   25.7776 F   0  0  0  0  0  0
  -30.0197  -13.3268   20.4498 N   0  0  0  0  0  0
  -26.2951  -12.9338   20.3462 N   0  0  0  0  0  0
  -25.9286  -11.6490   20.5855 N   0  0  0  0  0  0
  -22.0486  -12.8142   22.0466 N   0  0  0  0  0  0
  -25.4180  -15.1860   20.3964 N   0  0  0  0  0  0
  -31.8513  -14.6533   20.1641 O   0  0  0  0  0  0
  -21.6690   -6.8833   21.4194 O   0  0  0  0  0  0
  -22.3499  -14.5512   20.6789 O   0  0  0  0  0  0
  -24.6205  -31.8662   23.2161 C   0  0  0  0  0  0
  -25.9094  -32.4812   23.8444 C   0  0  1  0  0  0
  -27.2092  -27.3801   20.1053 C   0  0  0  0  0  0
  -25.5935  -33.8616   24.2346 N   0  0  0  0  0  0
  -23.4082  -30.4975   21.5540 C   0  0  2  0  0  0
  -24.8527  -28.9714   20.1099 C   0  0  0  0  0  0
  -22.7441  -29.4670   22.4963 C   0  0  0  0  0  0
  -18.0297  -28.1381   22.8503 C   0  0  0  0  0  0
  -24.1491  -36.7294   23.2638 C   0  0  0  0  0  0
  -25.9477  -30.8199   21.3795 C   0  0  0  0  0  0
  -26.0213  -29.4551   20.7140 C   0  0  0  0  0  0
  -27.2039  -28.6675   20.7094 C   0  0  0  0  0  0
  -26.0252  -26.9545   19.4520 C   0  0  0  0  0  0
  -24.8516  -27.7218   19.4771 C   0  0  0  0  0  0
  -23.6205  -29.8455   20.1638 C   0  0  0  0  0  0
  -25.4109  -36.3095   24.0338 C   0  0  1  0  0  0
  -20.5890  -28.3679   23.1302 C   0  0  2  0  0  0
  -20.6782  -26.9411   22.5408 C   0  0  0  0  0  0
  -19.5751  -26.6397   21.5217 C   0  0  0  0  0  0
  -18.1932  -26.7931   22.1636 C   0  0  0  0  0  0
  -19.1543  -28.8846   23.2906 C   0  0  0  0  0  0
  -18.9469  -30.1451   23.8913 C   0  0  0  0  0  0
  -17.6463  -30.6582   24.0566 C   0  0  0  0  0  0
  -25.9041  -34.9467   23.5135 C   0  0  0  0  0  0
  -16.5354  -29.9080   23.6323 C   0  0  0  0  0  0
  -16.7285  -28.6497   23.0353 C   0  0  0  0  0  0
  -26.4487  -31.6588   25.0777 C   0  0  0  0  0  0
  -25.3768  -31.3704   26.1539 C   0  0  0  0  0  0
  -27.0306  -30.3016   24.6189 C   0  0  0  0  0  0
  -27.6050  -32.4326   25.7542 C   0  0  0  0  0  0
  -27.5575  -37.1805   24.8472 C   0  0  0  0  0  0
  -21.4165  -29.3041   22.3704 N   0  0  0  0  0  0
  -26.4287  -37.3783   23.9419 N   0  0  0  0  0  0
  -24.6769  -31.0759   22.1079 N   0  0  0  0  0  0
  -23.4174  -28.8200   23.3030 O   0  0  0  0  0  0
  -28.3114  -26.5320   20.1892 O   0  0  0  0  0  0
  -26.5585  -34.8901   22.4687 O   0  0  0  0  0  0
  -23.5385  -32.1447   23.7483 O   0  0  0  0  0  0
  -28.2963  -19.1293   22.2670 C   0  0  0  0  0  0
  -27.3251  -19.9814   22.8029 C   0  0  0  0  0  0
  -29.2832  -19.7110   21.4698 C   0  0  0  0  0  0
  -28.3195  -21.7803   21.8015 C   0  0  0  0  0  0
  -30.6164  -16.6073   22.0004 C   0  0  0  0  0  0
  -29.5108  -16.6019   20.2354 C   0  0  0  0  0  0
  -30.6002  -17.5259   20.7744 C   0  0  0  0  0  0
  -26.2208  -19.4345   23.6896 C   0  0  0  0  0  0
  -28.9888  -24.0681   20.7449 C   0  0  0  0  0  0
  -28.0086  -25.1044   20.1006 C   0  0  0  0  0  0
  -27.3457  -21.3094   22.5621 N   0  0  0  0  0  0
  -29.2848  -21.0524   21.2355 N   0  0  0  0  0  0
  -30.0205  -15.5412   21.1407 N   0  0  0  0  0  0
  -30.3333  -18.9850   20.8807 N   0  0  0  0  0  0
  -28.2824  -23.1606   21.6658 N   0  0  0  0  0  0
  -31.4503  -12.4182   19.1280 H   0  0  0  0  0  0
  -30.2935  -11.3246   19.8433 H   0  0  0  0  0  0
  -29.7223  -11.7801   17.4410 H   0  0  0  0  0  0
  -29.6314  -13.4921   17.7689 H   0  0  0  0  0  0
  -27.8156  -11.3047   18.8251 H   0  0  0  0  0  0
  -27.3477  -12.6328   17.8006 H   0  0  0  0  0  0
  -27.6877  -14.2530   19.5775 H   0  0  0  0  0  0
  -28.6855  -11.9881   21.3737 H   0  0  0  0  0  0
  -28.4544  -13.6332   21.8753 H   0  0  0  0  0  0
  -25.2781   -9.5664   22.4714 H   0  0  0  0  0  0
  -24.0026   -7.4628   22.7494 H   0  0  0  0  0  0
  -21.0866   -8.8651   19.8931 H   0  0  0  0  0  0
  -22.3695  -10.9579   19.6115 H   0  0  0  0  0  0
  -21.1965   -7.6165   23.9598 H   0  0  0  0  0  0
  -21.1537   -6.0634   25.9045 H   0  0  0  0  0  0
  -22.0561   -2.7601   23.2896 H   0  0  0  0  0  0
  -22.4162  -11.9803   22.4826 H   0  0  0  0  0  0
  -21.1138  -13.1171   22.2838 H   0  0  0  0  0  0
  -24.6606  -15.8462   20.5338 H   0  0  0  0  0  0
  -26.2472  -15.6117   20.0029 H   0  0  0  0  0  0
  -26.7159  -32.5478   23.1195 H   0  0  0  0  0  0
  -25.0139  -33.9792   25.0521 H   0  0  0  0  0  0
  -22.7002  -31.3176   21.4209 H   0  0  0  0  0  0
  -23.3742  -35.9640   23.3332 H   0  0  0  0  0  0
  -24.3587  -36.8870   22.2047 H   0  0  0  0  0  0
  -23.7258  -37.6515   23.6631 H   0  0  0  0  0  0
  -26.0752  -31.5961   20.6225 H   0  0  0  0  0  0
  -26.8291  -30.8574   22.0081 H   0  0  0  0  0  0
  -28.0957  -29.0277   21.2004 H   0  0  0  0  0  0
  -25.9666  -26.0090   18.9317 H   0  0  0  0  0  0
  -23.9567  -27.3471   18.9989 H   0  0  0  0  0  0
  -23.7414  -30.6311   19.4193 H   0  0  0  0  0  0
  -22.7388  -29.2803   19.8547 H   0  0  0  0  0  0
  -25.1282  -36.1960   25.0828 H   0  0  0  0  0  0
  -20.9994  -28.3248   24.1420 H   0  0  0  0  0  0
  -20.5700  -26.2280   23.3600 H   0  0  0  0  0  0
  -21.6649  -26.7459   22.1182 H   0  0  0  0  0  0
  -19.6907  -25.6315   21.1230 H   0  0  0  0  0  0
  -19.6679  -27.3216   20.6756 H   0  0  0  0  0  0
  -17.4202  -26.6706   21.4035 H   0  0  0  0  0  0
  -18.0333  -26.0060   22.9024 H   0  0  0  0  0  0
  -19.7938  -30.7290   24.2262 H   0  0  0  0  0  0
  -17.5009  -31.6263   24.5178 H   0  0  0  0  0  0
  -15.5345  -30.2980   23.7644 H   0  0  0  0  0  0
  -15.8697  -28.0821   22.7036 H   0  0  0  0  0  0
  -24.5971  -30.6993   25.7920 H   0  0  0  0  0  0
  -24.8926  -32.2852   26.4973 H   0  0  0  0  0  0
  -25.8157  -30.8930   27.0312 H   0  0  0  0  0  0
  -26.2869  -29.6812   24.1187 H   0  0  0  0  0  0
  -27.3974  -29.7222   25.4666 H   0  0  0  0  0  0
  -27.8752  -30.4294   23.9421 H   0  0  0  0  0  0
  -27.2660  -33.3636   26.2109 H   0  0  0  0  0  0
  -28.3873  -32.6877   25.0377 H   0  0  0  0  0  0
  -28.0716  -31.8471   26.5482 H   0  0  0  0  0  0
  -28.2595  -38.0096   24.7496 H   0  0  0  0  0  0
  -28.1054  -36.2622   24.6315 H   0  0  0  0  0  0
  -27.2291  -37.1478   25.8874 H   0  0  0  0  0  0
  -20.9333  -29.8743   21.6907 H   0  0  0  0  0  0
  -26.0163  -38.2855   24.1418 H   0  0  0  0  0  0
  -28.2667  -18.0753   22.4791 H   0  0  0  0  0  0
  -29.9752  -16.9052   22.8277 H   0  0  0  0  0  0
  -31.6206  -16.4044   22.3767 H   0  0  0  0  0  0
  -29.6308  -16.3925   19.1694 H   0  0  0  0  0  0
  -28.4870  -16.9075   20.4498 H   0  0  0  0  0  0
  -31.5311  -17.3963   20.2141 H   0  0  0  0  0  0
  -26.6294  -19.0873   24.6407 H   0  0  0  0  0  0
  -25.7457  -18.5872   23.1977 H   0  0  0  0  0  0
  -25.4512  -20.1716   23.9023 H   0  0  0  0  0  0
  -29.7717  -24.5819   21.3027 H   0  0  0  0  0  0
  -29.4800  -23.4848   19.9594 H   0  0  0  0  0  0
  -27.0323  -24.9222   20.5583 H   0  0  0  0  0  0
  -27.8909  -24.8391   19.0479 H   0  0  0  0  0  0
  -30.9288  -19.5644   20.3003 H   0  0  0  0  0  0
  -27.5357  -23.5920   22.2013 H   0  0  0  0  0  0
  1 25  1  0  0  0
  1 30  2  0  0  0
  1 83  1  0  0  0
  2  3  1  0  0  0
  2 25  1  0  0  0
  2 86  1  0  0  0
  2 87  1  0  0  0
  3  4  1  0  0  0
  3 88  1  0  0  0
  3 89  1  0  0  0
  4  5  1  0  0  0
  4 90  1  0  0  0
  4 91  1  0  0  0
  5  6  1  0  0  0
  5 26  1  0  0  0
  5 92  1  0  0  0
  6 25  1  0  0  0
  6 93  1  0  0  0
  6 94  1  0  0  0
  7  8  2  0  0  0
  7 26  1  0  0  0
  7 29  1  0  0  0
  8  9  1  0  0  0
  8 22  1  0  0  0
  9 10  1  0  0  0
  9 27  2  0  0  0
 10 11  2  0  0  0
 10 15  1  0  0  0
 11 12  1  0  0  0
 11 95  1  0  0  0
 12 13  2  0  0  0
 12 96  1  0  0  0
 13 14  1  0  0  0
 13 31  1  0  0  0
 14 15  2  0  0  0
 14 97  1  0  0  0
 15 98  1  0  0  0
 16 17  2  0  0  0
 16 21  1  0  0  0
 16 31  1  0  0  0
 17 18  1  0  0  0
 17 99  1  0  0  0
 18 19  2  0  0  0
 18100  1  0  0  0
 19 20  1  0  0  0
 19 24  1  0  0  0
 20 21  2  0  0  0
 20101  1  0  0  0
 21 23  1  0  0  0
 22 28  1  0  0  0
 22 32  2  0  0  0
 26 27  1  0  0  0
 28102  1  0  0  0
 28103  1  0  0  0
 29104  1  0  0  0
 29105  1  0  0  0
 33 34  1  0  0  0
 33 66  1  0  0  0
 33 70  2  0  0  0
 34 36  1  0  0  0
 34 59  1  0  0  0
 34106  1  0  0  0
 35 44  2  0  0  0
 35 45  1  0  0  0
 35 68  1  0  0  0
 36 56  1  0  0  0
 36107  1  0  0  0
 37 39  1  0  0  0
 37 47  1  0  0  0
 37 66  1  0  0  0
 37108  1  0  0  0
 38 43  2  0  0  0
 38 46  1  0  0  0
 38 47  1  0  0  0
 39 64  1  0  0  0
 39 67  2  0  0  0
 40 52  1  0  0  0
 40 53  2  0  0  0
 40 58  1  0  0  0
 41109  1  0  0  0
 41110  1  0  0  0
 41111  1  0  0  0
 41 48  1  0  0  0
 42 43  1  0  0  0
 42 66  1  0  0  0
 42112  1  0  0  0
 42113  1  0  0  0
 43 44  1  0  0  0
 44114  1  0  0  0
 45 46  2  0  0  0
 45115  1  0  0  0
 46116  1  0  0  0
 47117  1  0  0  0
 47118  1  0  0  0
 48 56  1  0  0  0
 48 65  1  0  0  0
 48119  1  0  0  0
 49 50  1  0  0  0
 49 53  1  0  0  0
 49 64  1  0  0  0
 49120  1  0  0  0
 50 51  1  0  0  0
 50121  1  0  0  0
 50122  1  0  0  0
 51 52  1  0  0  0
 51123  1  0  0  0
 51124  1  0  0  0
 52125  1  0  0  0
 52126  1  0  0  0
 53 54  1  0  0  0
 54 55  2  0  0  0
 54127  1  0  0  0
 55 57  1  0  0  0
 55128  1  0  0  0
 56 69  2  0  0  0
 57 58  2  0  0  0
 57129  1  0  0  0
 58130  1  0  0  0
 59 60  1  0  0  0
 59 61  1  0  0  0
 59 62  1  0  0  0
 60131  1  0  0  0
 60132  1  0  0  0
 60133  1  0  0  0
 61134  1  0  0  0
 61135  1  0  0  0
 61136  1  0  0  0
 62137  1  0  0  0
 62138  1  0  0  0
 62139  1  0  0  0
 63 65  1  0  0  0
 63140  1  0  0  0
 63141  1  0  0  0
 63142  1  0  0  0
 64143  1  0  0  0
 65144  1  0  0  0
 68 80  1  0  0  0
 71 72  2  0  0  0
 71 73  1  0  0  0
 71145  1  0  0  0
 72 78  1  0  0  0
 72 81  1  0  0  0
 73 82  2  0  0  0
 73 84  1  0  0  0
 74 81  2  0  0  0
 74 82  1  0  0  0
 74 85  1  0  0  0
 75 77  1  0  0  0
 75 83  1  0  0  0
 75146  1  0  0  0
 75147  1  0  0  0
 76 77  1  0  0  0
 76 83  1  0  0  0
 76148  1  0  0  0
 76149  1  0  0  0
 77 84  1  0  0  0
 77150  1  0  0  0
 78151  1  0  0  0
 78152  1  0  0  0
 78153  1  0  0  0
 79 80  1  0  0  0
 79 85  1  0  0  0
 79154  1  0  0  0
 79155  1  0  0  0
 80156  1  0  0  0
 80157  1  0  0  0
 84158  1  0  0  0
 85159  1  0  0  0
M  ISO  4   1 100  68 101  80 101  83 100
M  END
> <chiral flag>
0

> <version>
0

> <s_m_source_file>
/data/baiqing/PycharmProjects/Reinvent-master-3.2/result/LINK_invent/BTK/process_docking_weight1_custom_sum_contain_oxygen_bond_distance_aromatic_linkinvent_7_9_3/rearranged_h_0190.sdf

> <i_m_source_file_index>
56

> <r_mmod_Potential_Energy-OPLS-2005>
-555.247192382812

> <r_mmod_Stretch_Energy-OPLS-2005>
49.7969818115234

> <r_mmod_Bend_Energy-OPLS-2005>
174.868286132812

> <r_mmod_Torsional_Energy-OPLS-2005>
249.281143188477

> <r_mmod_Improper_Torsional_Energy-OPLS-2005>
11.3049535751343

> <r_mmod_Van_der_Waal_Energy-OPLS-2005>
166.838607788086

> <r_mmod_Electrostatic_Energy-OPLS-2005>
-990.052062988281

> <r_mmod_Solvation_Energy-OPLS-2005>
-243.426635742188

> <b_mmod_Minimization_Converged-OPLS-2005>
0

> <r_mmod_RMS_Derivative-OPLS-2005>
6.16220855712891

$$$$
56
                    3D
 Structure written by MMmdl.
159168  0  0  1  0            999 V2000
  -30.6782  -14.5241   20.5843 C   0  0  0  0  0  0
  -30.4384  -12.3480   19.4164 C   0  0  0  0  0  0
  -29.4979  -12.5122   18.2030 C   0  0  0  0  0  0
  -28.0203  -12.3578   18.6201 C   0  0  0  0  0  0
  -27.6606  -13.2047   19.8697 C   0  0  2  0  0  0
  -28.7076  -12.9958   20.9872 C   0  0  0  0  0  0
  -25.2589  -13.8146   20.5678 C   0  0  0  0  0  0
  -24.1837  -13.0429   20.9179 C   0  0  0  0  0  0
  -24.6389  -11.6895   20.8737 C   0  0  0  0  0  0
  -23.9053  -10.4285   21.0412 C   0  0  0  0  0  0
  -24.3608   -9.4202   21.9190 C   0  0  0  0  0  0
  -23.6285   -8.2236   22.0759 C   0  0  0  0  0  0
  -22.4268   -8.0277   21.3548 C   0  0  0  0  0  0
  -21.9902   -9.0250   20.4653 C   0  0  0  0  0  0
  -22.7226  -10.2130   20.3060 C   0  0  0  0  0  0
  -21.6850   -6.0734   22.5282 C   0  0  0  0  0  0
  -21.4013   -6.5638   23.8216 C   0  0  0  0  0  0
  -21.3659   -5.6790   24.9178 C   0  0  0  0  0  0
  -21.6044   -4.3053   24.7229 C   0  0  0  0  0  0
  -21.8818   -3.8146   23.4349 C   0  0  0  0  0  0
  -21.9189   -4.6962   22.3406 C   0  0  0  0  0  0
  -22.7859  -13.5238   21.1841 C   0  0  0  0  0  0
  -22.1660   -4.2148   21.0983 F   0  0  0  0  0  0
  -21.5630   -3.4536   25.7742 F   0  0  0  0  0  0
  -30.0318  -13.3320   20.4320 N   0  0  0  0  0  0
  -26.3022  -12.9310   20.3344 N   0  0  0  0  0  0
  -25.9317  -11.6473   20.5761 N   0  0  0  0  0  0
  -22.0487  -12.8246   22.0399 N   0  0  0  0  0  0
  -25.4303  -15.1868   20.4094 N   0  0  0  0  0  0
  -31.8105  -14.7398   20.1459 O   0  0  0  0  0  0
  -21.6633   -6.8876   21.4243 O   0  0  0  0  0  0
  -22.3549  -14.5547   20.6686 O   0  0  0  0  0  0
  -24.6243  -31.8671   23.2123 C   0  0  0  0  0  0
  -25.9113  -32.4820   23.8420 C   0  0  1  0  0  0
  -27.2129  -27.3635   20.0813 C   0  0  0  0  0  0
  -25.5949  -33.8620   24.2337 N   0  0  0  0  0  0
  -23.4137  -30.5004   21.5555 C   0  0  2  0  0  0
  -24.8547  -28.9799   20.1091 C   0  0  0  0  0  0
  -22.7463  -29.4674   22.4952 C   0  0  0  0  0  0
  -18.0288  -28.1384   22.8491 C   0  0  0  0  0  0
  -24.1493  -36.7311   23.2635 C   0  0  0  0  0  0
  -25.9576  -30.8092   21.3823 C   0  0  0  0  0  0
  -26.0285  -29.4454   20.7155 C   0  0  0  0  0  0
  -27.2107  -28.6475   20.7012 C   0  0  0  0  0  0
  -26.0077  -26.9673   19.4379 C   0  0  0  0  0  0
  -24.8437  -27.7416   19.4660 C   0  0  0  0  0  0
  -23.6244  -29.8554   20.1649 C   0  0  0  0  0  0
  -25.4113  -36.3108   24.0335 C   0  0  1  0  0  0
  -20.5890  -28.3691   23.1282 C   0  0  2  0  0  0
  -20.6782  -26.9419   22.5401 C   0  0  0  0  0  0
  -19.5749  -26.6387   21.5212 C   0  0  0  0  0  0
  -18.1932  -26.7927   22.1629 C   0  0  0  0  0  0
  -19.1542  -28.8850   23.2886 C   0  0  0  0  0  0
  -18.9464  -30.1453   23.8904 C   0  0  0  0  0  0
  -17.6465  -30.6586   24.0566 C   0  0  0  0  0  0
  -25.9050  -34.9474   23.5124 C   0  0  0  0  0  0
  -16.5355  -29.9089   23.6327 C   0  0  0  0  0  0
  -16.7277  -28.6504   23.0350 C   0  0  0  0  0  0
  -26.4501  -31.6605   25.0766 C   0  0  0  0  0  0
  -25.3744  -31.3733   26.1496 C   0  0  0  0  0  0
  -27.0330  -30.3030   24.6192 C   0  0  0  0  0  0
  -27.6065  -32.4328   25.7533 C   0  0  0  0  0  0
  -27.5580  -37.1818   24.8463 C   0  0  0  0  0  0
  -21.4181  -29.3062   22.3688 N   0  0  0  0  0  0
  -26.4294  -37.3796   23.9407 N   0  0  0  0  0  0
  -24.6841  -31.0725   22.1067 N   0  0  0  0  0  0
  -23.4208  -28.8181   23.2987 O   0  0  0  0  0  0
  -28.3166  -26.4903   20.1309 O   0  0  0  0  0  0
  -26.5594  -34.8923   22.4676 O   0  0  0  0  0  0
  -23.5416  -32.1452   23.7471 O   0  0  0  0  0  0
  -25.6992  -21.5458   19.2542 C   0  0  0  0  0  0
  -26.5476  -22.6372   19.4592 C   0  0  0  0  0  0
  -26.2001  -20.2686   19.4672 C   0  0  0  0  0  0
  -27.9023  -22.4670   19.8709 C   0  0  0  0  0  0
  -28.3433  -21.0981   20.0030 C   0  0  0  0  0  0
  -30.4387  -20.3440   21.6074 C   0  0  0  0  0  0
  -29.7562  -20.5619   20.2669 C   0  0  1  0  0  0
  -28.7671  -23.7576   20.1350 C   0  0  0  0  0  0
  -30.2598  -16.8891   21.5597 C   0  0  0  0  0  0
  -30.1401  -18.0225   20.4813 C   0  0  0  0  0  0
  -27.9573  -25.0903   19.8790 C   0  0  0  0  0  0
  -27.4767  -20.0630   19.8301 N   0  0  0  0  0  0
  -29.9314  -15.5018   21.1404 N   0  0  0  0  0  0
  -29.6074  -19.3106   21.0415 N   0  3  1  0  0  0
  -31.4781  -12.4772   19.1106 H   0  0  0  0  0  0
  -30.3695  -11.3382   19.8241 H   0  0  0  0  0  0
  -29.7468  -11.7812   17.4324 H   0  0  0  0  0  0
  -29.6487  -13.4944   17.7519 H   0  0  0  0  0  0
  -27.8439  -11.3017   18.8285 H   0  0  0  0  0  0
  -27.3641  -12.6152   17.7876 H   0  0  0  0  0  0
  -27.6987  -14.2503   19.5630 H   0  0  0  0  0  0
  -28.7037  -11.9566   21.3196 H   0  0  0  0  0  0
  -28.4579  -13.5808   21.8733 H   0  0  0  0  0  0
  -25.2758   -9.5676   22.4757 H   0  0  0  0  0  0
  -23.9999   -7.4628   22.7477 H   0  0  0  0  0  0
  -21.0833   -8.8765   19.8960 H   0  0  0  0  0  0
  -22.3691  -10.9664   19.6161 H   0  0  0  0  0  0
  -21.2005   -7.6146   23.9721 H   0  0  0  0  0  0
  -21.1481   -6.0520   25.9081 H   0  0  0  0  0  0
  -22.0597   -2.7607   23.2849 H   0  0  0  0  0  0
  -22.4091  -11.9908   22.4797 H   0  0  0  0  0  0
  -21.1105  -13.1287   22.2594 H   0  0  0  0  0  0
  -24.6607  -15.8391   20.5149 H   0  0  0  0  0  0
  -26.2780  -15.6263   20.0741 H   0  0  0  0  0  0
  -26.7184  -32.5499   23.1175 H   0  0  0  0  0  0
  -25.0135  -33.9784   25.0506 H   0  0  0  0  0  0
  -22.7057  -31.3217   21.4246 H   0  0  0  0  0  0
  -23.3752  -35.9647   23.3306 H   0  0  0  0  0  0
  -24.3591  -36.8915   22.2047 H   0  0  0  0  0  0
  -23.7249  -37.6522   23.6640 H   0  0  0  0  0  0
  -26.0902  -31.5799   20.6215 H   0  0  0  0  0  0
  -26.8384  -30.8485   22.0113 H   0  0  0  0  0  0
  -28.1064  -28.9983   21.1942 H   0  0  0  0  0  0
  -25.8976  -26.0382   18.9032 H   0  0  0  0  0  0
  -23.9467  -27.3827   18.9800 H   0  0  0  0  0  0
  -23.7447  -30.6415   19.4184 H   0  0  0  0  0  0
  -22.7436  -29.2900   19.8557 H   0  0  0  0  0  0
  -25.1292  -36.1973   25.0828 H   0  0  0  0  0  0
  -20.9992  -28.3262   24.1399 H   0  0  0  0  0  0
  -20.5696  -26.2304   23.3601 H   0  0  0  0  0  0
  -21.6649  -26.7459   22.1186 H   0  0  0  0  0  0
  -19.6911  -25.6299   21.1240 H   0  0  0  0  0  0
  -19.6676  -27.3199   20.6742 H   0  0  0  0  0  0
  -17.4202  -26.6678   21.4031 H   0  0  0  0  0  0
  -18.0331  -26.0066   22.9023 H   0  0  0  0  0  0
  -19.7940  -30.7267   24.2274 H   0  0  0  0  0  0
  -17.5021  -31.6266   24.5171 H   0  0  0  0  0  0
  -15.5356  -30.2995   23.7642 H   0  0  0  0  0  0
  -15.8678  -28.0827   22.7057 H   0  0  0  0  0  0
  -24.5917  -30.7082   25.7833 H   0  0  0  0  0  0
  -24.8940  -32.2897   26.4932 H   0  0  0  0  0  0
  -25.8082  -30.8909   27.0264 H   0  0  0  0  0  0
  -26.2896  -29.6800   24.1204 H   0  0  0  0  0  0
  -27.4022  -29.7265   25.4685 H   0  0  0  0  0  0
  -27.8775  -30.4323   23.9419 H   0  0  0  0  0  0
  -27.2676  -33.3618   26.2129 H   0  0  0  0  0  0
  -28.3867  -32.6902   25.0357 H   0  0  0  0  0  0
  -28.0740  -31.8441   26.5436 H   0  0  0  0  0  0
  -28.2605  -38.0110   24.7509 H   0  0  0  0  0  0
  -28.1070  -36.2643   24.6291 H   0  0  0  0  0  0
  -27.2299  -37.1472   25.8867 H   0  0  0  0  0  0
  -20.9339  -29.8833   21.6954 H   0  0  0  0  0  0
  -26.0181  -38.2875   24.1401 H   0  0  0  0  0  0
  -24.6725  -21.6868   18.9447 H   0  0  0  0  0  0
  -26.0909  -23.5955   19.2763 H   0  0  0  0  0  0
  -25.5783  -19.3952   19.3348 H   0  0  0  0  0  0
  -29.9891  -20.7405   22.5140 H   0  0  0  0  0  0
  -31.4777  -20.0272   21.6486 H   0  0  0  0  0  0
  -30.3043  -20.3782   19.3456 H   0  0  0  0  0  0
  -29.6569  -23.7353   19.5048 H   0  0  0  0  0  0
  -29.1124  -23.7360   21.1690 H   0  0  0  0  0  0
  -29.5806  -17.1124   22.3834 H   0  0  0  0  0  0
  -31.2588  -16.9081   21.9985 H   0  0  0  0  0  0
  -29.4498  -17.7108   19.6971 H   0  0  0  0  0  0
  -31.1038  -18.1799   19.9966 H   0  0  0  0  0  0
  -27.0762  -24.9515   20.5072 H   0  0  0  0  0  0
  -27.6966  -25.0422   18.8212 H   0  0  0  0  0  0
  -29.0065  -15.1913   21.4003 H   0  0  0  0  0  0
  -28.6153  -19.3171   21.2420 H   0  0  0  0  0  0
  1 25  1  0  0  0
  1 30  2  0  0  0
  1 83  1  0  0  0
  2  3  1  0  0  0
  2 25  1  0  0  0
  2 85  1  0  0  0
  2 86  1  0  0  0
  3  4  1  0  0  0
  3 87  1  0  0  0
  3 88  1  0  0  0
  4  5  1  0  0  0
  4 89  1  0  0  0
  4 90  1  0  0  0
  5  6  1  0  0  0
  5 26  1  0  0  0
  5 91  1  0  0  0
  6 25  1  0  0  0
  6 92  1  0  0  0
  6 93  1  0  0  0
  7  8  2  0  0  0
  7 26  1  0  0  0
  7 29  1  0  0  0
  8  9  1  0  0  0
  8 22  1  0  0  0
  9 10  1  0  0  0
  9 27  2  0  0  0
 10 11  2  0  0  0
 10 15  1  0  0  0
 11 12  1  0  0  0
 11 94  1  0  0  0
 12 13  2  0  0  0
 12 95  1  0  0  0
 13 14  1  0  0  0
 13 31  1  0  0  0
 14 15  2  0  0  0
 14 96  1  0  0  0
 15 97  1  0  0  0
 16 17  2  0  0  0
 16 21  1  0  0  0
 16 31  1  0  0  0
 17 18  1  0  0  0
 17 98  1  0  0  0
 18 19  2  0  0  0
 18 99  1  0  0  0
 19 20  1  0  0  0
 19 24  1  0  0  0
 20 21  2  0  0  0
 20100  1  0  0  0
 21 23  1  0  0  0
 22 28  1  0  0  0
 22 32  2  0  0  0
 26 27  1  0  0  0
 28101  1  0  0  0
 28102  1  0  0  0
 29103  1  0  0  0
 29104  1  0  0  0
 33 34  1  0  0  0
 33 66  1  0  0  0
 33 70  2  0  0  0
 34 36  1  0  0  0
 34 59  1  0  0  0
 34105  1  0  0  0
 35 44  2  0  0  0
 35 45  1  0  0  0
 35 68  1  0  0  0
 36 56  1  0  0  0
 36106  1  0  0  0
 37 39  1  0  0  0
 37 47  1  0  0  0
 37 66  1  0  0  0
 37107  1  0  0  0
 38 43  2  0  0  0
 38 46  1  0  0  0
 38 47  1  0  0  0
 39 64  1  0  0  0
 39 67  2  0  0  0
 40 52  1  0  0  0
 40 53  2  0  0  0
 40 58  1  0  0  0
 41108  1  0  0  0
 41109  1  0  0  0
 41110  1  0  0  0
 41 48  1  0  0  0
 42 43  1  0  0  0
 42 66  1  0  0  0
 42111  1  0  0  0
 42112  1  0  0  0
 43 44  1  0  0  0
 44113  1  0  0  0
 45 46  2  0  0  0
 45114  1  0  0  0
 46115  1  0  0  0
 47116  1  0  0  0
 47117  1  0  0  0
 48 56  1  0  0  0
 48 65  1  0  0  0
 48118  1  0  0  0
 49 50  1  0  0  0
 49 53  1  0  0  0
 49 64  1  0  0  0
 49119  1  0  0  0
 50 51  1  0  0  0
 50120  1  0  0  0
 50121  1  0  0  0
 51 52  1  0  0  0
 51122  1  0  0  0
 51123  1  0  0  0
 52124  1  0  0  0
 52125  1  0  0  0
 53 54  1  0  0  0
 54 55  2  0  0  0
 54126  1  0  0  0
 55 57  1  0  0  0
 55127  1  0  0  0
 56 69  2  0  0  0
 57 58  2  0  0  0
 57128  1  0  0  0
 58129  1  0  0  0
 59 60  1  0  0  0
 59 61  1  0  0  0
 59 62  1  0  0  0
 60130  1  0  0  0
 60131  1  0  0  0
 60132  1  0  0  0
 61133  1  0  0  0
 61134  1  0  0  0
 61135  1  0  0  0
 62136  1  0  0  0
 62137  1  0  0  0
 62138  1  0  0  0
 63 65  1  0  0  0
 63139  1  0  0  0
 63140  1  0  0  0
 63141  1  0  0  0
 64142  1  0  0  0
 65143  1  0  0  0
 68 81  1  0  0  0
 71 72  2  0  0  0
 71 73  1  0  0  0
 71144  1  0  0  0
 72 74  1  0  0  0
 72145  1  0  0  0
 73 82  2  0  0  0
 73146  1  0  0  0
 74 75  2  0  0  0
 74 78  1  0  0  0
 75 82  1  0  0  0
 75 77  1  0  0  0
 76 77  1  0  0  0
 76 84  1  0  0  0
 76147  1  0  0  0
 76148  1  0  0  0
 77 84  1  0  0  0
 77149  1  0  0  0
 78 81  1  0  0  0
 78150  1  0  0  0
 78151  1  0  0  0
 79 80  1  0  0  0
 79 83  1  0  0  0
 79152  1  0  0  0
 79153  1  0  0  0
 80154  1  0  0  0
 80155  1  0  0  0
 80 84  1  0  0  0
 81156  1  0  0  0
 81157  1  0  0  0
 83158  1  0  0  0
 84159  1  0  0  0
M  CHG  1  84   1
M  ISO  4   1 100  68 101  81 101  83 100
M  END
> <chiral flag>
0

> <version>
0

> <s_m_source_file>
/data/baiqing/PycharmProjects/Reinvent-master-3.2/result/LINK_invent/BTK/process_docking_weight1_custom_sum_contain_oxygen_bond_distance_aromatic_linkinvent_7_9_3/rearranged_h_0190.sdf

> <i_m_source_file_index>
57

> <r_mmod_Potential_Energy-OPLS-2005>
-333.390808105469

> <r_mmod_Stretch_Energy-OPLS-2005>
65.2036514282227

> <r_mmod_Bend_Energy-OPLS-2005>
184.938888549805

> <r_mmod_Torsional_Energy-OPLS-2005>
246.028167724609

> <r_mmod_Improper_Torsional_Energy-OPLS-2005>
3.09349083900452

> <r_mmod_Van_der_Waal_Energy-OPLS-2005>
188.001617431641

> <r_mmod_Electrostatic_Energy-OPLS-2005>
-585.936462402344

> <r_mmod_Solvation_Energy-OPLS-2005>
-464.761322021484

> <b_mmod_Minimization_Converged-OPLS-2005>
0

> <r_mmod_RMS_Derivative-OPLS-2005>
0.691881775856018

$$$$
57
                    3D
 Structure written by MMmdl.
154163  0  0  1  0            999 V2000
  -30.6511  -14.5203   20.5386 C   0  0  0  0  0  0
  -30.4380  -12.3207   19.4503 C   0  0  0  0  0  0
  -29.5191  -12.5114   18.2218 C   0  0  0  0  0  0
  -28.0345  -12.3588   18.6192 C   0  0  0  0  0  0
  -27.6645  -13.2009   19.8719 C   0  0  2  0  0  0
  -28.7003  -12.9921   21.0029 C   0  0  0  0  0  0
  -25.2601  -13.8146   20.5592 C   0  0  0  0  0  0
  -24.1836  -13.0451   20.9118 C   0  0  0  0  0  0
  -24.6362  -11.6914   20.8667 C   0  0  0  0  0  0
  -23.9036  -10.4309   21.0375 C   0  0  0  0  0  0
  -24.3603   -9.4229   21.9146 C   0  0  0  0  0  0
  -23.6296   -8.2257   22.0737 C   0  0  0  0  0  0
  -22.4279   -8.0273   21.3534 C   0  0  0  0  0  0
  -21.9891   -9.0241   20.4632 C   0  0  0  0  0  0
  -22.7217  -10.2127   20.3023 C   0  0  0  0  0  0
  -21.6852   -6.0704   22.5258 C   0  0  0  0  0  0
  -21.4003   -6.5609   23.8183 C   0  0  0  0  0  0
  -21.3672   -5.6759   24.9145 C   0  0  0  0  0  0
  -21.6060   -4.3018   24.7198 C   0  0  0  0  0  0
  -21.8832   -3.8111   23.4315 C   0  0  0  0  0  0
  -21.9185   -4.6930   22.3376 C   0  0  0  0  0  0
  -22.7861  -13.5245   21.1801 C   0  0  0  0  0  0
  -22.1651   -4.2115   21.0956 F   0  0  0  0  0  0
  -21.5669   -3.4512   25.7715 F   0  0  0  0  0  0
  -30.0313  -13.3114   20.4617 N   0  0  0  0  0  0
  -26.3026  -12.9288   20.3254 N   0  0  0  0  0  0
  -25.9292  -11.6475   20.5687 N   0  0  0  0  0  0
  -22.0483  -12.8258   22.0376 N   0  0  0  0  0  0
  -25.4353  -15.1848   20.3893 N   0  0  0  0  0  0
  -31.7912  -14.7140   20.0999 O   0  0  0  0  0  0
  -21.6644   -6.8866   21.4231 O   0  0  0  0  0  0
  -22.3543  -14.5542   20.6629 O   0  0  0  0  0  0
  -24.6150  -31.8675   23.2143 C   0  0  0  0  0  0
  -25.9060  -32.4815   23.8422 C   0  0  1  0  0  0
  -27.2370  -27.4323   20.1135 C   0  0  0  0  0  0
  -25.5934  -33.8612   24.2378 N   0  0  0  0  0  0
  -23.4039  -30.4908   21.5525 C   0  0  2  0  0  0
  -24.8557  -28.9567   20.1198 C   0  0  0  0  0  0
  -22.7423  -29.4637   22.4984 C   0  0  0  0  0  0
  -18.0274  -28.1351   22.8492 C   0  0  0  0  0  0
  -24.1489  -36.7293   23.2616 C   0  0  0  0  0  0
  -25.9342  -30.8343   21.3704 C   0  0  0  0  0  0
  -26.0141  -29.4673   20.7217 C   0  0  0  0  0  0
  -27.2093  -28.7094   20.7226 C   0  0  0  0  0  0
  -26.0714  -26.9471   19.4889 C   0  0  0  0  0  0
  -24.8777  -27.6954   19.5011 C   0  0  0  0  0  0
  -23.6166  -29.8244   20.1672 C   0  0  0  0  0  0
  -25.4090  -36.3100   24.0356 C   0  0  1  0  0  0
  -20.5875  -28.3620   23.1315 C   0  0  2  0  0  0
  -20.6742  -26.9332   22.5414 C   0  0  0  0  0  0
  -19.5717  -26.6344   21.5220 C   0  0  0  0  0  0
  -18.1903  -26.7899   22.1622 C   0  0  0  0  0  0
  -19.1519  -28.8808   23.2907 C   0  0  0  0  0  0
  -18.9439  -30.1440   23.8866 C   0  0  0  0  0  0
  -17.6439  -30.6544   24.0544 C   0  0  0  0  0  0
  -25.9054  -34.9470   23.5154 C   0  0  0  0  0  0
  -16.5339  -29.9023   23.6336 C   0  0  0  0  0  0
  -16.7267  -28.6465   23.0314 C   0  0  0  0  0  0
  -26.4515  -31.6565   25.0725 C   0  0  0  0  0  0
  -25.3792  -31.3655   26.1468 C   0  0  0  0  0  0
  -27.0331  -30.2991   24.6103 C   0  0  0  0  0  0
  -27.6101  -32.4259   25.7464 C   0  0  0  0  0  0
  -27.5621  -37.1726   24.8419 C   0  0  0  0  0  0
  -21.4150  -29.2997   22.3729 N   0  0  0  0  0  0
  -26.4254  -37.3814   23.9503 N   0  0  0  0  0  0
  -24.6679  -31.0793   22.1030 N   0  0  0  0  0  0
  -23.4213  -28.8139   23.2983 O   0  0  0  0  0  0
  -28.3770  -26.6597   20.0809 O   0  0  0  0  0  0
  -26.5569  -34.8915   22.4694 O   0  0  0  0  0  0
  -23.5334  -32.1436   23.7533 O   0  0  0  0  0  0
  -29.0054  -21.1773   23.3261 C   0  0  0  0  0  0
  -29.3620  -20.0820   21.4188 C   0  0  0  0  0  0
  -28.7247  -22.2433   21.4223 C   0  0  0  0  0  0
  -30.6704  -17.9494   21.3409 C   0  0  0  0  0  0
  -28.7887  -17.8562   20.5129 C   0  0  0  0  0  0
  -30.0225  -16.9352   20.3862 C   0  0  0  0  0  0
  -28.5915  -25.8143   21.2289 C   0  0  0  0  0  0
  -27.7640  -24.4969   21.2654 C   0  0  0  0  0  0
  -29.3496  -20.0355   22.7409 N   0  0  0  0  0  0
  -28.6819  -22.3207   22.7428 N   0  0  0  0  0  0
  -29.0585  -21.1699   20.7063 N   0  0  0  0  0  0
  -29.7783  -18.9233   20.6892 N   0  0  0  0  0  0
  -29.8559  -15.5557   20.8934 N   0  0  0  0  0  0
  -28.4362  -23.3524   20.6831 O   0  0  0  0  0  0
  -31.4865  -12.4200   19.1644 H   0  0  0  0  0  0
  -30.3387  -11.3110   19.8551 H   0  0  0  0  0  0
  -29.7832  -11.7932   17.4411 H   0  0  0  0  0  0
  -29.6852  -13.5037   17.7955 H   0  0  0  0  0  0
  -27.8513  -11.3023   18.8225 H   0  0  0  0  0  0
  -27.3928  -12.6232   17.7779 H   0  0  0  0  0  0
  -27.7076  -14.2464   19.5657 H   0  0  0  0  0  0
  -28.6914  -11.9551   21.3458 H   0  0  0  0  0  0
  -28.4586  -13.5866   21.8830 H   0  0  0  0  0  0
  -25.2766   -9.5708   22.4687 H   0  0  0  0  0  0
  -24.0006   -7.4655   22.7457 H   0  0  0  0  0  0
  -21.0815   -8.8769   19.8943 H   0  0  0  0  0  0
  -22.3690  -10.9643   19.6103 H   0  0  0  0  0  0
  -21.1991   -7.6125   23.9678 H   0  0  0  0  0  0
  -21.1492   -6.0481   25.9048 H   0  0  0  0  0  0
  -22.0611   -2.7578   23.2805 H   0  0  0  0  0  0
  -22.4076  -11.9948   22.4848 H   0  0  0  0  0  0
  -21.1086  -13.1278   22.2528 H   0  0  0  0  0  0
  -24.6637  -15.8404   20.4548 H   0  0  0  0  0  0
  -26.2631  -15.5910   19.9743 H   0  0  0  0  0  0
  -26.7099  -32.5578   23.1172 H   0  0  0  0  0  0
  -25.0172  -33.9776   25.0578 H   0  0  0  0  0  0
  -22.6927  -31.3086   21.4151 H   0  0  0  0  0  0
  -23.3821  -35.9542   23.3118 H   0  0  0  0  0  0
  -24.3640  -36.9066   22.2072 H   0  0  0  0  0  0
  -23.7137  -37.6398   23.6729 H   0  0  0  0  0  0
  -26.0526  -31.6028   20.6054 H   0  0  0  0  0  0
  -26.8171  -30.8863   21.9955 H   0  0  0  0  0  0
  -28.1009  -29.1012   21.1880 H   0  0  0  0  0  0
  -26.0883  -25.9855   18.9944 H   0  0  0  0  0  0
  -23.9887  -27.2975   19.0308 H   0  0  0  0  0  0
  -23.7273  -30.6025   19.4109 H   0  0  0  0  0  0
  -22.7448  -29.2418   19.8648 H   0  0  0  0  0  0
  -25.1237  -36.1917   25.0837 H   0  0  0  0  0  0
  -21.0005  -28.3140   24.1428 H   0  0  0  0  0  0
  -20.5638  -26.2189   23.3599 H   0  0  0  0  0  0
  -21.6592  -26.7338   22.1197 H   0  0  0  0  0  0
  -19.6831  -25.6275   21.1202 H   0  0  0  0  0  0
  -19.6654  -27.3189   20.6797 H   0  0  0  0  0  0
  -17.4185  -26.6693   21.4007 H   0  0  0  0  0  0
  -18.0251  -26.0043   22.9016 H   0  0  0  0  0  0
  -19.7916  -30.7272   24.2167 H   0  0  0  0  0  0
  -17.4977  -31.6215   24.5121 H   0  0  0  0  0  0
  -15.5316  -30.2874   23.7673 H   0  0  0  0  0  0
  -15.8695  -28.0784   22.6969 H   0  0  0  0  0  0
  -24.5964  -30.7000   25.7800 H   0  0  0  0  0  0
  -24.8988  -32.2803   26.4945 H   0  0  0  0  0  0
  -25.8146  -30.8789   27.0211 H   0  0  0  0  0  0
  -26.2855  -29.6723   24.1218 H   0  0  0  0  0  0
  -27.4139  -29.7251   25.4571 H   0  0  0  0  0  0
  -27.8692  -30.4283   23.9233 H   0  0  0  0  0  0
  -27.2741  -33.3548   26.2076 H   0  0  0  0  0  0
  -28.3868  -32.6805   25.0253 H   0  0  0  0  0  0
  -28.0810  -31.8362   26.5339 H   0  0  0  0  0  0
  -28.2404  -38.0245   24.7808 H   0  0  0  0  0  0
  -28.1338  -36.2816   24.5789 H   0  0  0  0  0  0
  -27.2416  -37.0809   25.8807 H   0  0  0  0  0  0
  -20.9286  -29.8772   21.7022 H   0  0  0  0  0  0
  -26.0129  -38.2832   24.1702 H   0  0  0  0  0  0
  -28.9989  -21.1735   24.4052 H   0  0  0  0  0  0
  -31.7330  -18.1290   21.1673 H   0  0  0  0  0  0
  -30.4460  -17.7627   22.3933 H   0  0  0  0  0  0
  -28.1767  -17.6817   21.4041 H   0  0  0  0  0  0
  -28.1787  -17.9561   19.6111 H   0  0  0  0  0  0
  -30.4606  -16.9768   19.3830 H   0  0  0  0  0  0
  -29.6528  -25.5819   21.2983 H   0  0  0  0  0  0
  -28.3705  -26.3948   22.1285 H   0  0  0  0  0  0
  -26.8278  -24.6340   20.7298 H   0  0  0  0  0  0
  -27.4412  -24.3353   22.2940 H   0  0  0  0  0  0
  -28.9576  -15.3049   21.2801 H   0  0  0  0  0  0
  1 25  1  0  0  0
  1 30  2  0  0  0
  1 83  1  0  0  0
  2  3  1  0  0  0
  2 25  1  0  0  0
  2 85  1  0  0  0
  2 86  1  0  0  0
  3  4  1  0  0  0
  3 87  1  0  0  0
  3 88  1  0  0  0
  4  5  1  0  0  0
  4 89  1  0  0  0
  4 90  1  0  0  0
  5  6  1  0  0  0
  5 26  1  0  0  0
  5 91  1  0  0  0
  6 25  1  0  0  0
  6 92  1  0  0  0
  6 93  1  0  0  0
  7  8  2  0  0  0
  7 26  1  0  0  0
  7 29  1  0  0  0
  8  9  1  0  0  0
  8 22  1  0  0  0
  9 10  1  0  0  0
  9 27  2  0  0  0
 10 11  2  0  0  0
 10 15  1  0  0  0
 11 12  1  0  0  0
 11 94  1  0  0  0
 12 13  2  0  0  0
 12 95  1  0  0  0
 13 14  1  0  0  0
 13 31  1  0  0  0
 14 15  2  0  0  0
 14 96  1  0  0  0
 15 97  1  0  0  0
 16 17  2  0  0  0
 16 21  1  0  0  0
 16 31  1  0  0  0
 17 18  1  0  0  0
 17 98  1  0  0  0
 18 19  2  0  0  0
 18 99  1  0  0  0
 19 20  1  0  0  0
 19 24  1  0  0  0
 20 21  2  0  0  0
 20100  1  0  0  0
 21 23  1  0  0  0
 22 28  1  0  0  0
 22 32  2  0  0  0
 26 27  1  0  0  0
 28101  1  0  0  0
 28102  1  0  0  0
 29103  1  0  0  0
 29104  1  0  0  0
 33 34  1  0  0  0
 33 66  1  0  0  0
 33 70  2  0  0  0
 34 36  1  0  0  0
 34 59  1  0  0  0
 34105  1  0  0  0
 35 44  2  0  0  0
 35 45  1  0  0  0
 35 68  1  0  0  0
 36 56  1  0  0  0
 36106  1  0  0  0
 37 39  1  0  0  0
 37 47  1  0  0  0
 37 66  1  0  0  0
 37107  1  0  0  0
 38 43  2  0  0  0
 38 46  1  0  0  0
 38 47  1  0  0  0
 39 64  1  0  0  0
 39 67  2  0  0  0
 40 52  1  0  0  0
 40 53  2  0  0  0
 40 58  1  0  0  0
 41108  1  0  0  0
 41109  1  0  0  0
 41110  1  0  0  0
 41 48  1  0  0  0
 42 43  1  0  0  0
 42 66  1  0  0  0
 42111  1  0  0  0
 42112  1  0  0  0
 43 44  1  0  0  0
 44113  1  0  0  0
 45 46  2  0  0  0
 45114  1  0  0  0
 46115  1  0  0  0
 47116  1  0  0  0
 47117  1  0  0  0
 48 56  1  0  0  0
 48 65  1  0  0  0
 48118  1  0  0  0
 49 50  1  0  0  0
 49 53  1  0  0  0
 49 64  1  0  0  0
 49119  1  0  0  0
 50 51  1  0  0  0
 50120  1  0  0  0
 50121  1  0  0  0
 51 52  1  0  0  0
 51122  1  0  0  0
 51123  1  0  0  0
 52124  1  0  0  0
 52125  1  0  0  0
 53 54  1  0  0  0
 54 55  2  0  0  0
 54126  1  0  0  0
 55 57  1  0  0  0
 55127  1  0  0  0
 56 69  2  0  0  0
 57 58  2  0  0  0
 57128  1  0  0  0
 58129  1  0  0  0
 59 60  1  0  0  0
 59 61  1  0  0  0
 59 62  1  0  0  0
 60130  1  0  0  0
 60131  1  0  0  0
 60132  1  0  0  0
 61133  1  0  0  0
 61134  1  0  0  0
 61135  1  0  0  0
 62136  1  0  0  0
 62137  1  0  0  0
 62138  1  0  0  0
 63 65  1  0  0  0
 63139  1  0  0  0
 63140  1  0  0  0
 63141  1  0  0  0
 64142  1  0  0  0
 65143  1  0  0  0
 68 77  1  0  0  0
 71 79  2  0  0  0
 71 80  1  0  0  0
 71144  1  0  0  0
 72 79  1  0  0  0
 72 81  2  0  0  0
 72 82  1  0  0  0
 73 80  2  0  0  0
 73 81  1  0  0  0
 73 84  1  0  0  0
 74 76  1  0  0  0
 74 82  1  0  0  0
 74145  1  0  0  0
 74146  1  0  0  0
 75 76  1  0  0  0
 75 82  1  0  0  0
 75147  1  0  0  0
 75148  1  0  0  0
 76 83  1  0  0  0
 76149  1  0  0  0
 77 78  1  0  0  0
 77150  1  0  0  0
 77151  1  0  0  0
 78 84  1  0  0  0
 78152  1  0  0  0
 78153  1  0  0  0
 83154  1  0  0  0
M  ISO  4   1 100  68 101  77 101  83 100
M  END
> <chiral flag>
0

> <version>
0

> <s_m_source_file>
/data/baiqing/PycharmProjects/Reinvent-master-3.2/result/LINK_invent/BTK/process_docking_weight1_custom_sum_contain_oxygen_bond_distance_aromatic_linkinvent_7_9_3/rearranged_h_0190.sdf

> <i_m_source_file_index>
58

> <r_mmod_Potential_Energy-OPLS-2005>
-823.994262695312

> <r_mmod_Stretch_Energy-OPLS-2005>
41.1702842712402

> <r_mmod_Bend_Energy-OPLS-2005>
146.417465209961

> <r_mmod_Torsional_Energy-OPLS-2005>
273.414215087891

> <r_mmod_Improper_Torsional_Energy-OPLS-2005>
15.223726272583

> <r_mmod_Van_der_Waal_Energy-OPLS-2005>
183.33625793457

> <r_mmod_Electrostatic_Energy-OPLS-2005>
-1246.33081054688

> <r_mmod_Solvation_Energy-OPLS-2005>
-254.066299438477

> <b_mmod_Minimization_Converged-OPLS-2005>
0

> <r_mmod_RMS_Derivative-OPLS-2005>
4.25073766708374

$$$$
58
                    3D
 Structure written by MMmdl.
153162  0  0  1  0            999 V2000
  -30.5752  -14.9576   20.4049 C   0  0  0  0  0  0
  -30.4297  -12.5986   19.4916 C   0  0  0  0  0  0
  -29.5200  -12.5389   18.2463 C   0  0  0  0  0  0
  -28.0504  -12.3360   18.6604 C   0  0  0  0  0  0
  -27.6280  -13.2607   19.8351 C   0  0  2  0  0  0
  -28.6733  -13.3133   20.9680 C   0  0  0  0  0  0
  -25.2475  -13.8240   20.5742 C   0  0  0  0  0  0
  -24.1798  -13.0452   20.9224 C   0  0  0  0  0  0
  -24.6422  -11.6937   20.8734 C   0  0  0  0  0  0
  -23.9104  -10.4301   21.0387 C   0  0  0  0  0  0
  -24.3650   -9.4221   21.9175 C   0  0  0  0  0  0
  -23.6320   -8.2262   22.0755 C   0  0  0  0  0  0
  -22.4302   -8.0296   21.3545 C   0  0  0  0  0  0
  -21.9942   -9.0273   20.4650 C   0  0  0  0  0  0
  -22.7269  -10.2150   20.3043 C   0  0  0  0  0  0
  -21.6861   -6.0746   22.5279 C   0  0  0  0  0  0
  -21.4018   -6.5644   23.8214 C   0  0  0  0  0  0
  -21.3667   -5.6794   24.9176 C   0  0  0  0  0  0
  -21.6047   -4.3058   24.7218 C   0  0  0  0  0  0
  -21.8821   -3.8148   23.4340 C   0  0  0  0  0  0
  -21.9197   -4.6969   22.3396 C   0  0  0  0  0  0
  -22.7814  -13.5223   21.1871 C   0  0  0  0  0  0
  -22.1662   -4.2153   21.0973 F   0  0  0  0  0  0
  -21.5635   -3.4541   25.7729 F   0  0  0  0  0  0
  -29.9388  -13.7171   20.3485 N   0  0  0  0  0  0
  -26.2903  -12.9498   20.3254 N   0  0  0  0  0  0
  -25.9363  -11.6612   20.5722 N   0  0  0  0  0  0
  -22.0451  -12.8225   22.0411 N   0  0  0  0  0  0
  -25.4134  -15.1982   20.4207 N   0  0  0  0  0  0
  -31.7893  -14.9460   20.1653 O   0  0  0  0  0  0
  -21.6659   -6.8896   21.4246 O   0  0  0  0  0  0
  -22.3505  -14.5535   20.6710 O   0  0  0  0  0  0
  -24.6465  -31.8429   23.1884 C   0  0  0  0  0  0
  -25.9230  -32.4686   23.8282 C   0  0  1  0  0  0
  -27.2114  -27.1270   20.1299 C   0  0  0  0  0  0
  -25.5967  -33.8499   24.2192 N   0  0  0  0  0  0
  -23.4504  -30.4643   21.5346 C   0  0  2  0  0  0
  -24.8966  -28.8928   20.1056 C   0  0  0  0  0  0
  -22.7584  -29.4547   22.4852 C   0  0  0  0  0  0
  -18.0312  -28.1395   22.8472 C   0  0  0  0  0  0
  -24.1491  -36.7258   23.2641 C   0  0  0  0  0  0
  -26.0085  -30.7106   21.3894 C   0  0  0  0  0  0
  -26.0763  -29.3231   20.7257 C   0  0  0  0  0  0
  -27.2355  -28.4567   20.7206 C   0  0  0  0  0  0
  -26.0054  -26.8066   19.4671 C   0  0  0  0  0  0
  -24.8751  -27.6496   19.4594 C   0  0  0  0  0  0
  -23.6754  -29.7970   20.1530 C   0  0  0  0  0  0
  -25.4125  -36.3036   24.0317 C   0  0  1  0  0  0
  -20.5925  -28.3728   23.1219 C   0  0  2  0  0  0
  -20.6795  -26.9431   22.5397 C   0  0  0  0  0  0
  -19.5771  -26.6380   21.5206 C   0  0  0  0  0  0
  -18.1951  -26.7936   22.1616 C   0  0  0  0  0  0
  -19.1568  -28.8882   23.2839 C   0  0  0  0  0  0
  -18.9483  -30.1469   23.8875 C   0  0  0  0  0  0
  -17.6477  -30.6591   24.0559 C   0  0  0  0  0  0
  -25.9076  -34.9405   23.5065 C   0  0  0  0  0  0
  -16.5369  -29.9082   23.6331 C   0  0  0  0  0  0
  -16.7295  -28.6501   23.0355 C   0  0  0  0  0  0
  -26.4534  -31.6562   25.0735 C   0  0  0  0  0  0
  -25.3710  -31.3751   26.1423 C   0  0  0  0  0  0
  -27.0396  -30.2955   24.6327 C   0  0  0  0  0  0
  -27.6064  -32.4324   25.7527 C   0  0  0  0  0  0
  -27.5581  -37.1786   24.8458 C   0  0  0  0  0  0
  -21.4272  -29.3055   22.3592 N   0  0  0  0  0  0
  -26.4287  -37.3753   23.9410 N   0  0  0  0  0  0
  -24.7223  -31.0270   22.0925 N   0  0  0  0  0  0
  -23.4213  -28.8083   23.3007 O   0  0  0  0  0  0
  -28.2491  -26.1226   20.1979 O   0  0  0  0  0  0
  -26.5662  -34.8907   22.4639 O   0  0  0  0  0  0
  -23.5575  -32.1311   23.7087 O   0  0  0  0  0  0
  -30.9543  -22.6425   20.8810 C   0  0  0  0  0  0
  -28.9171  -23.3188   20.2607 C   0  0  0  0  0  0
  -29.5225  -21.0026   20.3583 C   0  0  0  0  0  0
  -30.4920  -18.7164   19.5800 C   0  0  0  0  0  0
  -28.6787  -18.5731   21.0813 C   0  0  0  0  0  0
  -30.1677  -17.1925   19.1817 C   0  0  0  0  0  0
  -29.2868  -17.0664   21.3774 C   0  0  0  0  0  0
  -27.9279  -24.6081   19.9556 C   0  0  0  0  0  0
  -30.1327  -23.6647   20.6615 N   0  0  0  0  0  0
  -30.7378  -21.3358   20.7488 N   0  0  0  0  0  0
  -28.5592  -21.9690   20.0991 N   0  0  0  0  0  0
  -29.3830  -19.5296   20.1615 N   0  0  0  0  0  0
  -29.8674  -16.2023   20.2764 N   0  0  0  0  0  0
  -31.4663  -12.7382   19.1793 H   0  0  0  0  0  0
  -30.4100  -11.6533   20.0353 H   0  0  0  0  0  0
  -29.8401  -11.7359   17.5803 H   0  0  0  0  0  0
  -29.6199  -13.4640   17.6762 H   0  0  0  0  0  0
  -27.9319  -11.2920   18.9506 H   0  0  0  0  0  0
  -27.3946  -12.4920   17.8021 H   0  0  0  0  0  0
  -27.5844  -14.2647   19.4114 H   0  0  0  0  0  0
  -28.7679  -12.3517   21.4738 H   0  0  0  0  0  0
  -28.3787  -14.0394   21.7269 H   0  0  0  0  0  0
  -25.2792   -9.5710   22.4764 H   0  0  0  0  0  0
  -24.0027   -7.4660   22.7491 H   0  0  0  0  0  0
  -21.0864   -8.8803   19.8964 H   0  0  0  0  0  0
  -22.3723  -10.9702   19.6163 H   0  0  0  0  0  0
  -21.2003   -7.6148   23.9722 H   0  0  0  0  0  0
  -21.1493   -6.0515   25.9083 H   0  0  0  0  0  0
  -22.0590   -2.7608   23.2830 H   0  0  0  0  0  0
  -22.4052  -11.9891   22.4831 H   0  0  0  0  0  0
  -21.1067  -13.1260   22.2582 H   0  0  0  0  0  0
  -24.6481  -15.8509   20.5502 H   0  0  0  0  0  0
  -26.2661  -15.6447   20.1084 H   0  0  0  0  0  0
  -26.7298  -32.5279   23.1010 H   0  0  0  0  0  0
  -25.0104  -33.9605   25.0332 H   0  0  0  0  0  0
  -22.7548  -31.2921   21.3819 H   0  0  0  0  0  0
  -23.3762  -35.9578   23.3281 H   0  0  0  0  0  0
  -24.3582  -36.8913   22.2060 H   0  0  0  0  0  0
  -23.7228  -37.6444   23.6690 H   0  0  0  0  0  0
  -26.1688  -31.4648   20.6180 H   0  0  0  0  0  0
  -26.8782  -30.7570   22.0339 H   0  0  0  0  0  0
  -28.1350  -28.7817   21.2243 H   0  0  0  0  0  0
  -25.8930  -25.8624   18.9567 H   0  0  0  0  0  0
  -23.9777  -27.3213   18.9526 H   0  0  0  0  0  0
  -23.8118  -30.5732   19.3991 H   0  0  0  0  0  0
  -22.7892  -29.2404   19.8430 H   0  0  0  0  0  0
  -25.1307  -36.1872   25.0811 H   0  0  0  0  0  0
  -21.0016  -28.3325   24.1338 H   0  0  0  0  0  0
  -20.5681  -26.2350   23.3620 H   0  0  0  0  0  0
  -21.6661  -26.7432   22.1196 H   0  0  0  0  0  0
  -19.6934  -25.6279   21.1258 H   0  0  0  0  0  0
  -19.6709  -27.3169   20.6716 H   0  0  0  0  0  0
  -17.4220  -26.6673   21.4020 H   0  0  0  0  0  0
  -18.0359  -26.0080   22.9018 H   0  0  0  0  0  0
  -19.7959  -30.7289   24.2238 H   0  0  0  0  0  0
  -17.5033  -31.6270   24.5165 H   0  0  0  0  0  0
  -15.5368  -30.2980   23.7668 H   0  0  0  0  0  0
  -15.8694  -28.0811   22.7083 H   0  0  0  0  0  0
  -24.5903  -30.7085   25.7739 H   0  0  0  0  0  0
  -24.8882  -32.2927   26.4796 H   0  0  0  0  0  0
  -25.7986  -30.8961   27.0239 H   0  0  0  0  0  0
  -26.3008  -29.6675   24.1334 H   0  0  0  0  0  0
  -27.3994  -29.7265   25.4909 H   0  0  0  0  0  0
  -27.8927  -30.4184   23.9654 H   0  0  0  0  0  0
  -27.2665  -33.3648   26.2049 H   0  0  0  0  0  0
  -28.3915  -32.6843   25.0384 H   0  0  0  0  0  0
  -28.0690  -31.8485   26.5494 H   0  0  0  0  0  0
  -28.2568  -38.0111   24.7540 H   0  0  0  0  0  0
  -28.1106  -36.2644   24.6238 H   0  0  0  0  0  0
  -27.2305  -37.1373   25.8859 H   0  0  0  0  0  0
  -20.9487  -29.8773   21.6773 H   0  0  0  0  0  0
  -26.0153  -38.2819   24.1426 H   0  0  0  0  0  0
  -31.9493  -22.9137   21.2009 H   0  0  0  0  0  0
  -30.8389  -19.2370   18.6863 H   0  0  0  0  0  0
  -31.3358  -18.7296   20.2715 H   0  0  0  0  0  0
  -28.5408  -19.0841   22.0363 H   0  0  0  0  0  0
  -27.6727  -18.4580   20.6778 H   0  0  0  0  0  0
  -31.0098  -16.8185   18.5972 H   0  0  0  0  0  0
  -29.3242  -17.1794   18.4906 H   0  0  0  0  0  0
  -28.5158  -16.4809   21.8795 H   0  0  0  0  0  0
  -30.0823  -17.1786   22.1158 H   0  0  0  0  0  0
  -27.0032  -24.3873   20.4878 H   0  0  0  0  0  0
  -27.6858  -24.5196   18.8963 H   0  0  0  0  0  0
  1 25  1  0  0  0
  1 30  2  0  0  0
  1 83  1  0  0  0
  2  3  1  0  0  0
  2 25  1  0  0  0
  2 84  1  0  0  0
  2 85  1  0  0  0
  3  4  1  0  0  0
  3 86  1  0  0  0
  3 87  1  0  0  0
  4  5  1  0  0  0
  4 88  1  0  0  0
  4 89  1  0  0  0
  5  6  1  0  0  0
  5 26  1  0  0  0
  5 90  1  0  0  0
  6 25  1  0  0  0
  6 91  1  0  0  0
  6 92  1  0  0  0
  7  8  2  0  0  0
  7 26  1  0  0  0
  7 29  1  0  0  0
  8  9  1  0  0  0
  8 22  1  0  0  0
  9 10  1  0  0  0
  9 27  2  0  0  0
 10 11  2  0  0  0
 10 15  1  0  0  0
 11 12  1  0  0  0
 11 93  1  0  0  0
 12 13  2  0  0  0
 12 94  1  0  0  0
 13 14  1  0  0  0
 13 31  1  0  0  0
 14 15  2  0  0  0
 14 95  1  0  0  0
 15 96  1  0  0  0
 16 17  2  0  0  0
 16 21  1  0  0  0
 16 31  1  0  0  0
 17 18  1  0  0  0
 17 97  1  0  0  0
 18 19  2  0  0  0
 18 98  1  0  0  0
 19 20  1  0  0  0
 19 24  1  0  0  0
 20 21  2  0  0  0
 20 99  1  0  0  0
 21 23  1  0  0  0
 22 28  1  0  0  0
 22 32  2  0  0  0
 26 27  1  0  0  0
 28100  1  0  0  0
 28101  1  0  0  0
 29102  1  0  0  0
 29103  1  0  0  0
 33 34  1  0  0  0
 33 66  1  0  0  0
 33 70  2  0  0  0
 34 36  1  0  0  0
 34 59  1  0  0  0
 34104  1  0  0  0
 35 44  2  0  0  0
 35 45  1  0  0  0
 35 68  1  0  0  0
 36 56  1  0  0  0
 36105  1  0  0  0
 37 39  1  0  0  0
 37 47  1  0  0  0
 37 66  1  0  0  0
 37106  1  0  0  0
 38 43  2  0  0  0
 38 46  1  0  0  0
 38 47  1  0  0  0
 39 64  1  0  0  0
 39 67  2  0  0  0
 40 52  1  0  0  0
 40 53  2  0  0  0
 40 58  1  0  0  0
 41107  1  0  0  0
 41108  1  0  0  0
 41109  1  0  0  0
 41 48  1  0  0  0
 42 43  1  0  0  0
 42 66  1  0  0  0
 42110  1  0  0  0
 42111  1  0  0  0
 43 44  1  0  0  0
 44112  1  0  0  0
 45 46  2  0  0  0
 45113  1  0  0  0
 46114  1  0  0  0
 47115  1  0  0  0
 47116  1  0  0  0
 48 56  1  0  0  0
 48 65  1  0  0  0
 48117  1  0  0  0
 49 50  1  0  0  0
 49 53  1  0  0  0
 49 64  1  0  0  0
 49118  1  0  0  0
 50 51  1  0  0  0
 50119  1  0  0  0
 50120  1  0  0  0
 51 52  1  0  0  0
 51121  1  0  0  0
 51122  1  0  0  0
 52123  1  0  0  0
 52124  1  0  0  0
 53 54  1  0  0  0
 54 55  2  0  0  0
 54125  1  0  0  0
 55 57  1  0  0  0
 55126  1  0  0  0
 56 69  2  0  0  0
 57 58  2  0  0  0
 57127  1  0  0  0
 58128  1  0  0  0
 59 60  1  0  0  0
 59 61  1  0  0  0
 59 62  1  0  0  0
 60129  1  0  0  0
 60130  1  0  0  0
 60131  1  0  0  0
 61132  1  0  0  0
 61133  1  0  0  0
 61134  1  0  0  0
 62135  1  0  0  0
 62136  1  0  0  0
 62137  1  0  0  0
 63 65  1  0  0  0
 63138  1  0  0  0
 63139  1  0  0  0
 63140  1  0  0  0
 64141  1  0  0  0
 65142  1  0  0  0
 68 78  1  0  0  0
 71 79  2  0  0  0
 71 80  1  0  0  0
 71143  1  0  0  0
 72 78  1  0  0  0
 72 79  1  0  0  0
 72 81  2  0  0  0
 73 80  2  0  0  0
 73 81  1  0  0  0
 73 82  1  0  0  0
 74 76  1  0  0  0
 74 82  1  0  0  0
 74144  1  0  0  0
 74145  1  0  0  0
 75 77  1  0  0  0
 75 82  1  0  0  0
 75146  1  0  0  0
 75147  1  0  0  0
 76 83  1  0  0  0
 76148  1  0  0  0
 76149  1  0  0  0
 77 83  1  0  0  0
 77150  1  0  0  0
 77151  1  0  0  0
 78152  1  0  0  0
 78153  1  0  0  0
M  ISO  4   1 100  68 101  78 101  83 100
M  END
> <chiral flag>
0

> <version>
0

> <s_m_source_file>
/data/baiqing/PycharmProjects/Reinvent-master-3.2/result/LINK_invent/BTK/process_docking_weight1_custom_sum_contain_oxygen_bond_distance_aromatic_linkinvent_7_9_3/rearranged_h_0190.sdf

> <i_m_source_file_index>
59

> <r_mmod_Potential_Energy-OPLS-2005>
-47.2956619262695

> <r_mmod_Stretch_Energy-OPLS-2005>
235.15576171875

> <r_mmod_Bend_Energy-OPLS-2005>
259.244049072266

> <r_mmod_Torsional_Energy-OPLS-2005>
364.830841064453

> <r_mmod_Improper_Torsional_Energy-OPLS-2005>
19.0341873168945

> <r_mmod_Van_der_Waal_Energy-OPLS-2005>
161.837692260742

> <r_mmod_Electrostatic_Energy-OPLS-2005>
-1042.19946289062

> <r_mmod_Solvation_Energy-OPLS-2005>
-246.14958190918

> <b_mmod_Minimization_Converged-OPLS-2005>
0

> <r_mmod_RMS_Derivative-OPLS-2005>
1.75588691234589

$$$$
59
                    3D
 Structure written by MMmdl.
157166  0  0  1  0            999 V2000
  -30.5427  -14.9653   20.4190 C   0  0  0  0  0  0
  -30.4396  -12.6022   19.4988 C   0  0  0  0  0  0
  -29.5215  -12.5283   18.2567 C   0  0  0  0  0  0
  -28.0553  -12.3124   18.6761 C   0  0  0  0  0  0
  -27.6277  -13.2496   19.8359 C   0  0  2  0  0  0
  -28.6705  -13.2905   20.9731 C   0  0  0  0  0  0
  -25.2454  -13.8217   20.5717 C   0  0  0  0  0  0
  -24.1773  -13.0440   20.9239 C   0  0  0  0  0  0
  -24.6390  -11.6925   20.8762 C   0  0  0  0  0  0
  -23.9078  -10.4294   21.0411 C   0  0  0  0  0  0
  -24.3627   -9.4205   21.9187 C   0  0  0  0  0  0
  -23.6297   -8.2243   22.0757 C   0  0  0  0  0  0
  -22.4280   -8.0283   21.3545 C   0  0  0  0  0  0
  -21.9918   -9.0258   20.4650 C   0  0  0  0  0  0
  -22.7248  -10.2136   20.3058 C   0  0  0  0  0  0
  -21.6852   -6.0736   22.5277 C   0  0  0  0  0  0
  -21.4018   -6.5641   23.8211 C   0  0  0  0  0  0
  -21.3661   -5.6793   24.9173 C   0  0  0  0  0  0
  -21.6042   -4.3055   24.7223 C   0  0  0  0  0  0
  -21.8817   -3.8147   23.4344 C   0  0  0  0  0  0
  -21.9192   -4.6964   22.3401 C   0  0  0  0  0  0
  -22.7794  -13.5214   21.1882 C   0  0  0  0  0  0
  -22.1658   -4.2150   21.0976 F   0  0  0  0  0  0
  -21.5628   -3.4538   25.7736 F   0  0  0  0  0  0
  -29.9426  -13.7071   20.3697 N   0  0  0  0  0  0
  -26.2876  -12.9451   20.3237 N   0  0  0  0  0  0
  -25.9320  -11.6580   20.5733 N   0  0  0  0  0  0
  -22.0431  -12.8214   22.0435 N   0  0  0  0  0  0
  -25.4107  -15.1948   20.4120 N   0  0  0  0  0  0
  -31.7493  -15.0168   20.1593 O   0  0  0  0  0  0
  -21.6641   -6.8881   21.4240 O   0  0  0  0  0  0
  -22.3490  -14.5516   20.6712 O   0  0  0  0  0  0
  -24.6465  -31.8426   23.1875 C   0  0  0  0  0  0
  -25.9221  -32.4691   23.8271 C   0  0  1  0  0  0
  -27.2084  -27.1084   20.1500 C   0  0  0  0  0  0
  -25.5951  -33.8496   24.2183 N   0  0  0  0  0  0
  -23.4508  -30.4638   21.5345 C   0  0  2  0  0  0
  -24.8984  -28.8893   20.1125 C   0  0  0  0  0  0
  -22.7581  -29.4546   22.4851 C   0  0  0  0  0  0
  -18.0309  -28.1399   22.8480 C   0  0  0  0  0  0
  -24.1491  -36.7257   23.2644 C   0  0  0  0  0  0
  -26.0106  -30.7080   21.3907 C   0  0  0  0  0  0
  -26.0798  -29.3174   20.7311 C   0  0  0  0  0  0
  -27.2370  -28.4447   20.7312 C   0  0  0  0  0  0
  -25.9986  -26.7952   19.4896 C   0  0  0  0  0  0
  -24.8722  -27.6426   19.4757 C   0  0  0  0  0  0
  -23.6784  -29.7961   20.1540 C   0  0  0  0  0  0
  -25.4123  -36.3030   24.0315 C   0  0  1  0  0  0
  -20.5925  -28.3729   23.1227 C   0  0  2  0  0  0
  -20.6790  -26.9428   22.5402 C   0  0  0  0  0  0
  -19.5760  -26.6384   21.5212 C   0  0  0  0  0  0
  -18.1944  -26.7939   22.1628 C   0  0  0  0  0  0
  -19.1568  -28.8883   23.2847 C   0  0  0  0  0  0
  -18.9480  -30.1477   23.8875 C   0  0  0  0  0  0
  -17.6476  -30.6594   24.0563 C   0  0  0  0  0  0
  -25.9073  -34.9404   23.5060 C   0  0  0  0  0  0
  -16.5367  -29.9086   23.6339 C   0  0  0  0  0  0
  -16.7295  -28.6505   23.0360 C   0  0  0  0  0  0
  -26.4522  -31.6564   25.0722 C   0  0  0  0  0  0
  -25.3690  -31.3764   26.1405 C   0  0  0  0  0  0
  -27.0391  -30.2956   24.6324 C   0  0  0  0  0  0
  -27.6052  -32.4329   25.7506 C   0  0  0  0  0  0
  -27.5575  -37.1786   24.8465 C   0  0  0  0  0  0
  -21.4271  -29.3055   22.3599 N   0  0  0  0  0  0
  -26.4284  -37.3743   23.9406 N   0  0  0  0  0  0
  -24.7231  -31.0262   22.0926 N   0  0  0  0  0  0
  -23.4214  -28.8086   23.3003 O   0  0  0  0  0  0
  -28.2425  -26.0918   20.2067 O   0  0  0  0  0  0
  -26.5669  -34.8904   22.4646 O   0  0  0  0  0  0
  -23.5575  -32.1312   23.7076 O   0  0  0  0  0  0
  -31.1396  -22.3532   19.7683 C   0  0  0  0  0  0
  -30.7598  -21.0044   19.9891 C   0  0  0  0  0  0
  -30.2385  -23.4424   19.8696 C   0  0  0  0  0  0
  -28.5256  -21.8178   20.4162 C   0  0  0  0  0  0
  -29.4397  -20.6368   20.3338 C   0  0  0  0  0  0
  -28.8825  -23.2528   20.1969 C   0  0  0  0  0  0
  -30.9697  -17.9904   21.7977 C   0  0  0  0  0  0
  -29.9404  -18.5329   22.8067 C   0  0  0  0  0  0
  -29.0955  -19.0278   20.6235 C   0  0  1  0  0  0
  -30.1690  -17.7142   20.5177 C   0  0  2  0  0  0
  -27.8713  -24.5658   20.1884 C   0  0  0  0  0  0
  -29.7787  -16.1648   20.5585 N   0  0  0  0  0  0
  -28.7476  -18.9650   22.0478 N   0  3  0  0  0  0
  -31.4722  -12.7613   19.1840 H   0  0  0  0  0  0
  -30.4388  -11.6562   20.0421 H   0  0  0  0  0  0
  -29.8453  -11.7249   17.5937 H   0  0  0  0  0  0
  -29.6058  -13.4522   17.6824 H   0  0  0  0  0  0
  -27.9549  -11.2728   18.9896 H   0  0  0  0  0  0
  -27.3917  -12.4358   17.8192 H   0  0  0  0  0  0
  -27.5872  -14.2486   19.4010 H   0  0  0  0  0  0
  -28.7638  -12.3179   21.4585 H   0  0  0  0  0  0
  -28.3681  -13.9961   21.7484 H   0  0  0  0  0  0
  -25.2765   -9.5681   22.4773 H   0  0  0  0  0  0
  -23.9998   -7.4637   22.7484 H   0  0  0  0  0  0
  -21.0846   -8.8781   19.8964 H   0  0  0  0  0  0
  -22.3699  -10.9680   19.6176 H   0  0  0  0  0  0
  -21.2011   -7.6150   23.9715 H   0  0  0  0  0  0
  -21.1486   -6.0523   25.9076 H   0  0  0  0  0  0
  -22.0594   -2.7609   23.2839 H   0  0  0  0  0  0
  -22.4041  -11.9881   22.4842 H   0  0  0  0  0  0
  -21.1045  -13.1245   22.2622 H   0  0  0  0  0  0
  -24.6267  -15.8331   20.4939 H   0  0  0  0  0  0
  -26.2249  -15.6224   19.9920 H   0  0  0  0  0  0
  -26.7291  -32.5287   23.1000 H   0  0  0  0  0  0
  -25.0045  -33.9600   25.0295 H   0  0  0  0  0  0
  -22.7550  -31.2910   21.3799 H   0  0  0  0  0  0
  -23.3752  -35.9588   23.3294 H   0  0  0  0  0  0
  -24.3577  -36.8902   22.2061 H   0  0  0  0  0  0
  -23.7242  -37.6448   23.6691 H   0  0  0  0  0  0
  -26.1695  -31.4615   20.6181 H   0  0  0  0  0  0
  -26.8800  -30.7586   22.0346 H   0  0  0  0  0  0
  -28.1363  -28.7681   21.2364 H   0  0  0  0  0  0
  -25.8742  -25.8532   18.9820 H   0  0  0  0  0  0
  -23.9721  -27.3108   18.9771 H   0  0  0  0  0  0
  -23.8195  -30.5710   19.3995 H   0  0  0  0  0  0
  -22.7917  -29.2418   19.8414 H   0  0  0  0  0  0
  -25.1309  -36.1860   25.0807 H   0  0  0  0  0  0
  -21.0021  -28.3322   24.1345 H   0  0  0  0  0  0
  -20.5678  -26.2342   23.3624 H   0  0  0  0  0  0
  -21.6655  -26.7425   22.1201 H   0  0  0  0  0  0
  -19.6915  -25.6287   21.1261 H   0  0  0  0  0  0
  -19.6696  -27.3178   20.6729 H   0  0  0  0  0  0
  -17.4210  -26.6686   21.4037 H   0  0  0  0  0  0
  -18.0345  -26.0086   22.9031 H   0  0  0  0  0  0
  -19.7953  -30.7303   24.2234 H   0  0  0  0  0  0
  -17.5026  -31.6272   24.5167 H   0  0  0  0  0  0
  -15.5365  -30.2980   23.7672 H   0  0  0  0  0  0
  -15.8697  -28.0815   22.7088 H   0  0  0  0  0  0
  -24.5879  -30.7104   25.7720 H   0  0  0  0  0  0
  -24.8861  -32.2947   26.4760 H   0  0  0  0  0  0
  -25.7955  -30.8981   27.0231 H   0  0  0  0  0  0
  -26.3020  -29.6673   24.1314 H   0  0  0  0  0  0
  -27.3970  -29.7267   25.4914 H   0  0  0  0  0  0
  -27.8941  -30.4183   23.9674 H   0  0  0  0  0  0
  -27.2653  -33.3658   26.2017 H   0  0  0  0  0  0
  -28.3898  -32.6844   25.0357 H   0  0  0  0  0  0
  -28.0680  -31.8494   26.5473 H   0  0  0  0  0  0
  -28.2585  -38.0090   24.7508 H   0  0  0  0  0  0
  -28.1078  -36.2617   24.6295 H   0  0  0  0  0  0
  -27.2292  -37.1441   25.8868 H   0  0  0  0  0  0
  -20.9482  -29.8775   21.6786 H   0  0  0  0  0  0
  -26.0151  -38.2812   24.1404 H   0  0  0  0  0  0
  -32.1668  -22.5605   19.5005 H   0  0  0  0  0  0
  -31.5175  -20.2415   19.8822 H   0  0  0  0  0  0
  -30.5959  -24.4431   19.6671 H   0  0  0  0  0  0
  -27.4899  -21.6162   20.6532 H   0  0  0  0  0  0
  -31.5074  -17.1240   22.1837 H   0  0  0  0  0  0
  -31.7215  -18.7560   21.6066 H   0  0  0  0  0  0
  -30.3575  -19.3664   23.3729 H   0  0  0  0  0  0
  -29.6475  -17.7649   23.5231 H   0  0  0  0  0  0
  -28.2083  -18.8050   20.0300 H   0  0  0  0  0  0
  -30.7953  -17.8410   19.6338 H   0  0  0  0  0  0
  -27.1649  -24.4094   21.0046 H   0  0  0  0  0  0
  -27.3033  -24.3920   19.2773 H   0  0  0  0  0  0
  -28.7929  -15.9869   20.6784 H   0  0  0  0  0  0
  -28.4025  -19.8505   22.3762 H   0  0  0  0  0  0
  -28.0236  -18.2772   22.1716 H   0  0  0  0  0  0
  1 25  1  0  0  0
  1 30  2  0  0  0
  1 82  1  0  0  0
  2  3  1  0  0  0
  2 25  1  0  0  0
  2 84  1  0  0  0
  2 85  1  0  0  0
  3  4  1  0  0  0
  3 86  1  0  0  0
  3 87  1  0  0  0
  4  5  1  0  0  0
  4 88  1  0  0  0
  4 89  1  0  0  0
  5  6  1  0  0  0
  5 26  1  0  0  0
  5 90  1  0  0  0
  6 25  1  0  0  0
  6 91  1  0  0  0
  6 92  1  0  0  0
  7  8  2  0  0  0
  7 26  1  0  0  0
  7 29  1  0  0  0
  8  9  1  0  0  0
  8 22  1  0  0  0
  9 10  1  0  0  0
  9 27  2  0  0  0
 10 11  2  0  0  0
 10 15  1  0  0  0
 11 12  1  0  0  0
 11 93  1  0  0  0
 12 13  2  0  0  0
 12 94  1  0  0  0
 13 14  1  0  0  0
 13 31  1  0  0  0
 14 15  2  0  0  0
 14 95  1  0  0  0
 15 96  1  0  0  0
 16 17  2  0  0  0
 16 21  1  0  0  0
 16 31  1  0  0  0
 17 18  1  0  0  0
 17 97  1  0  0  0
 18 19  2  0  0  0
 18 98  1  0  0  0
 19 20  1  0  0  0
 19 24  1  0  0  0
 20 21  2  0  0  0
 20 99  1  0  0  0
 21 23  1  0  0  0
 22 28  1  0  0  0
 22 32  2  0  0  0
 26 27  1  0  0  0
 28100  1  0  0  0
 28101  1  0  0  0
 29102  1  0  0  0
 29103  1  0  0  0
 33 34  1  0  0  0
 33 66  1  0  0  0
 33 70  2  0  0  0
 34 36  1  0  0  0
 34 59  1  0  0  0
 34104  1  0  0  0
 35 44  2  0  0  0
 35 45  1  0  0  0
 35 68  1  0  0  0
 36 56  1  0  0  0
 36105  1  0  0  0
 37 39  1  0  0  0
 37 47  1  0  0  0
 37 66  1  0  0  0
 37106  1  0  0  0
 38 43  2  0  0  0
 38 46  1  0  0  0
 38 47  1  0  0  0
 39 64  1  0  0  0
 39 67  2  0  0  0
 40 52  1  0  0  0
 40 53  2  0  0  0
 40 58  1  0  0  0
 41107  1  0  0  0
 41108  1  0  0  0
 41109  1  0  0  0
 41 48  1  0  0  0
 42 43  1  0  0  0
 42 66  1  0  0  0
 42110  1  0  0  0
 42111  1  0  0  0
 43 44  1  0  0  0
 44112  1  0  0  0
 45 46  2  0  0  0
 45113  1  0  0  0
 46114  1  0  0  0
 47115  1  0  0  0
 47116  1  0  0  0
 48 56  1  0  0  0
 48 65  1  0  0  0
 48117  1  0  0  0
 49 50  1  0  0  0
 49 53  1  0  0  0
 49 64  1  0  0  0
 49118  1  0  0  0
 50 51  1  0  0  0
 50119  1  0  0  0
 50120  1  0  0  0
 51 52  1  0  0  0
 51121  1  0  0  0
 51122  1  0  0  0
 52123  1  0  0  0
 52124  1  0  0  0
 53 54  1  0  0  0
 54 55  2  0  0  0
 54125  1  0  0  0
 55 57  1  0  0  0
 55126  1  0  0  0
 56 69  2  0  0  0
 57 58  2  0  0  0
 57127  1  0  0  0
 58128  1  0  0  0
 59 60  1  0  0  0
 59 61  1  0  0  0
 59 62  1  0  0  0
 60129  1  0  0  0
 60130  1  0  0  0
 60131  1  0  0  0
 61132  1  0  0  0
 61133  1  0  0  0
 61134  1  0  0  0
 62135  1  0  0  0
 62136  1  0  0  0
 62137  1  0  0  0
 63 65  1  0  0  0
 63138  1  0  0  0
 63139  1  0  0  0
 63140  1  0  0  0
 64141  1  0  0  0
 65142  1  0  0  0
 68 81  1  0  0  0
 71 72  2  0  0  0
 71 73  1  0  0  0
 71143  1  0  0  0
 72 75  1  0  0  0
 72144  1  0  0  0
 73 76  2  0  0  0
 73145  1  0  0  0
 74 75  2  0  0  0
 74 76  1  0  0  0
 74146  1  0  0  0
 75 79  1  0  0  0
 76 81  1  0  0  0
 77 78  1  0  0  0
 77 80  1  0  0  0
 77147  1  0  0  0
 77148  1  0  0  0
 78 83  1  0  0  0
 78149  1  0  0  0
 78150  1  0  0  0
 79 80  1  0  0  0
 79 83  1  0  0  0
 79151  1  0  0  0
 80 82  1  0  0  0
 80152  1  0  0  0
 81153  1  0  0  0
 81154  1  0  0  0
 82155  1  0  0  0
 83156  1  0  0  0
 83157  1  0  0  0
M  CHG  1  83   1
M  ISO  4   1 100  68 101  81 101  82 100
M  END
> <chiral flag>
0

> <version>
0

> <s_m_source_file>
/data/baiqing/PycharmProjects/Reinvent-master-3.2/result/LINK_invent/BTK/process_docking_weight1_custom_sum_contain_oxygen_bond_distance_aromatic_linkinvent_7_9_3/rearranged_h_0190.sdf

> <i_m_source_file_index>
60

> <r_mmod_Potential_Energy-OPLS-2005>
390.131408691406

> <r_mmod_Stretch_Energy-OPLS-2005>
283.762969970703

> <r_mmod_Bend_Energy-OPLS-2005>
278.052459716797

> <r_mmod_Torsional_Energy-OPLS-2005>
297.139434814453

> <r_mmod_Improper_Torsional_Energy-OPLS-2005>
4.81064510345459

> <r_mmod_Van_der_Waal_Energy-OPLS-2005>
125.695129394531

> <r_mmod_Electrostatic_Energy-OPLS-2005>
-310.011901855469

> <r_mmod_Solvation_Energy-OPLS-2005>
-501.667663574219

> <b_mmod_Minimization_Converged-OPLS-2005>
0

> <r_mmod_RMS_Derivative-OPLS-2005>
0.757563829421997

$$$$
60
                    3D
 Structure written by MMmdl.
153162  0  0  1  0            999 V2000
  -30.4638  -15.2186   20.3719 C   0  0  0  0  0  0
  -30.4373  -12.7733   19.5285 C   0  0  0  0  0  0
  -29.5353  -12.5714   18.2858 C   0  0  0  0  0  0
  -28.0798  -12.3076   18.7084 C   0  0  0  0  0  0
  -27.6147  -13.2747   19.8263 C   0  0  2  0  0  0
  -28.6490  -13.4311   20.9622 C   0  0  0  0  0  0
  -25.2400  -13.8251   20.5748 C   0  0  0  0  0  0
  -24.1749  -13.0441   20.9262 C   0  0  0  0  0  0
  -24.6402  -11.6938   20.8761 C   0  0  0  0  0  0
  -23.9096  -10.4296   21.0408 C   0  0  0  0  0  0
  -24.3640   -9.4209   21.9185 C   0  0  0  0  0  0
  -23.6307   -8.2247   22.0755 C   0  0  0  0  0  0
  -22.4286   -8.0287   21.3547 C   0  0  0  0  0  0
  -21.9929   -9.0263   20.4647 C   0  0  0  0  0  0
  -22.7267  -10.2139   20.3056 C   0  0  0  0  0  0
  -21.6856   -6.0742   22.5280 C   0  0  0  0  0  0
  -21.4017   -6.5644   23.8215 C   0  0  0  0  0  0
  -21.3659   -5.6794   24.9173 C   0  0  0  0  0  0
  -21.6045   -4.3057   24.7223 C   0  0  0  0  0  0
  -21.8817   -3.8153   23.4343 C   0  0  0  0  0  0
  -21.9194   -4.6970   22.3400 C   0  0  0  0  0  0
  -22.7765  -13.5193   21.1905 C   0  0  0  0  0  0
  -22.1662   -4.2157   21.0978 F   0  0  0  0  0  0
  -21.5626   -3.4538   25.7735 F   0  0  0  0  0  0
  -29.8898  -13.9194   20.3412 N   0  0  0  0  0  0
  -26.2828  -12.9530   20.3224 N   0  0  0  0  0  0
  -25.9340  -11.6632   20.5723 N   0  0  0  0  0  0
  -22.0415  -12.8175   22.0453 N   0  0  0  0  0  0
  -25.4026  -15.1989   20.4190 N   0  0  0  0  0  0
  -31.6799  -15.2152   20.1354 O   0  0  0  0  0  0
  -21.6644   -6.8889   21.4244 O   0  0  0  0  0  0
  -22.3445  -14.5492   20.6739 O   0  0  0  0  0  0
  -24.6609  -31.8266   23.1741 C   0  0  0  0  0  0
  -25.9301  -32.4607   23.8194 C   0  0  1  0  0  0
  -27.2161  -26.9533   20.1790 C   0  0  0  0  0  0
  -25.5981  -33.8418   24.2101 N   0  0  0  0  0  0
  -23.4743  -30.4402   21.5226 C   0  0  2  0  0  0
  -24.9284  -28.8357   20.1108 C   0  0  0  0  0  0
  -22.7659  -29.4455   22.4791 C   0  0  0  0  0  0
  -18.0323  -28.1406   22.8470 C   0  0  0  0  0  0
  -24.1490  -36.7206   23.2642 C   0  0  0  0  0  0
  -26.0427  -30.6416   21.4015 C   0  0  0  0  0  0
  -26.1117  -29.2346   20.7448 C   0  0  0  0  0  0
  -27.2514  -28.3134   20.7575 C   0  0  0  0  0  0
  -26.0063  -26.7075   19.4892 C   0  0  0  0  0  0
  -24.9002  -27.5923   19.4623 C   0  0  0  0  0  0
  -23.7128  -29.7592   20.1475 C   0  0  0  0  0  0
  -25.4129  -36.2974   24.0302 C   0  0  1  0  0  0
  -20.5947  -28.3746   23.1193 C   0  0  2  0  0  0
  -20.6798  -26.9430   22.5400 C   0  0  0  0  0  0
  -19.5770  -26.6379   21.5212 C   0  0  0  0  0  0
  -18.1955  -26.7941   22.1625 C   0  0  0  0  0  0
  -19.1585  -28.8898   23.2820 C   0  0  0  0  0  0
  -18.9492  -30.1492   23.8850 C   0  0  0  0  0  0
  -17.6484  -30.6596   24.0554 C   0  0  0  0  0  0
  -25.9097  -34.9359   23.5020 C   0  0  0  0  0  0
  -16.5375  -29.9080   23.6347 C   0  0  0  0  0  0
  -16.7305  -28.6501   23.0366 C   0  0  0  0  0  0
  -26.4561  -31.6540   25.0709 C   0  0  0  0  0  0
  -25.3694  -31.3785   26.1370 C   0  0  0  0  0  0
  -27.0456  -30.2909   24.6427 C   0  0  0  0  0  0
  -27.6056  -32.4345   25.7512 C   0  0  0  0  0  0
  -27.5575  -37.1753   24.8459 C   0  0  0  0  0  0
  -21.4330  -29.3040   22.3540 N   0  0  0  0  0  0
  -26.4272  -37.3712   23.9419 N   0  0  0  0  0  0
  -24.7469  -30.9957   22.0863 N   0  0  0  0  0  0
  -23.4220  -28.8024   23.3021 O   0  0  0  0  0  0
  -28.2006  -25.8407   20.2764 O   0  0  0  0  0  0
  -26.5697  -34.8886   22.4611 O   0  0  0  0  0  0
  -23.5686  -32.1221   23.6851 O   0  0  0  0  0  0
  -28.7323  -20.3804   21.5001 C   0  0  0  0  0  0
  -29.3320  -19.6285   20.4193 C   0  0  0  0  0  0
  -28.3700  -21.8222   21.4286 C   0  0  0  0  0  0
  -29.5211  -20.5600   19.3579 C   0  0  0  0  0  0
  -28.5867  -22.7061   20.2818 C   0  0  0  0  0  0
  -30.2628  -19.8273   18.2583 C   0  0  0  0  0  0
  -30.3792  -18.3087   18.6714 C   0  0  0  0  0  0
  -30.0614  -18.0919   20.1828 C   0  0  2  0  0  0
  -27.6859  -22.4101   22.6504 C   0  0  0  0  0  0
  -27.8467  -24.2684   19.9973 C   0  0  0  0  0  0
  -29.1769  -21.9401   19.2621 N   0  0  0  0  0  0
  -29.7155  -16.4920   20.4576 N   0  0  0  0  0  0
  -31.4619  -12.9606   19.2047 H   0  0  0  0  0  0
  -30.4843  -11.8609   20.1254 H   0  0  0  0  0  0
  -29.9059  -11.7465   17.6757 H   0  0  0  0  0  0
  -29.5792  -13.4624   17.6575 H   0  0  0  0  0  0
  -28.0230  -11.2796   19.0678 H   0  0  0  0  0  0
  -27.4143  -12.3681   17.8466 H   0  0  0  0  0  0
  -27.5366  -14.2475   19.3392 H   0  0  0  0  0  0
  -28.8025  -12.4922   21.4963 H   0  0  0  0  0  0
  -28.2980  -14.1547   21.6996 H   0  0  0  0  0  0
  -25.2781   -9.5685   22.4766 H   0  0  0  0  0  0
  -24.0014   -7.4638   22.7474 H   0  0  0  0  0  0
  -21.0861   -8.8792   19.8950 H   0  0  0  0  0  0
  -22.3728  -10.9682   19.6169 H   0  0  0  0  0  0
  -21.2011   -7.6153   23.9722 H   0  0  0  0  0  0
  -21.1480   -6.0521   25.9079 H   0  0  0  0  0  0
  -22.0596   -2.7615   23.2838 H   0  0  0  0  0  0
  -22.4043  -11.9849   22.4854 H   0  0  0  0  0  0
  -21.1027  -13.1190   22.2647 H   0  0  0  0  0  0
  -24.6309  -15.8469   20.5345 H   0  0  0  0  0  0
  -26.2394  -15.6418   20.0631 H   0  0  0  0  0  0
  -26.7370  -32.5154   23.0909 H   0  0  0  0  0  0
  -25.0094  -33.9502   25.0229 H   0  0  0  0  0  0
  -22.7862  -31.2714   21.3550 H   0  0  0  0  0  0
  -23.3770  -35.9518   23.3268 H   0  0  0  0  0  0
  -24.3572  -36.8884   22.2063 H   0  0  0  0  0  0
  -23.7224  -37.6377   23.6716 H   0  0  0  0  0  0
  -26.2207  -31.3858   20.6240 H   0  0  0  0  0  0
  -26.9038  -30.6976   22.0556 H   0  0  0  0  0  0
  -28.1446  -28.6146   21.2869 H   0  0  0  0  0  0
  -25.8705  -25.7610   18.9881 H   0  0  0  0  0  0
  -24.0018  -27.2835   18.9458 H   0  0  0  0  0  0
  -23.8644  -30.5292   19.3902 H   0  0  0  0  0  0
  -22.8233  -29.2114   19.8309 H   0  0  0  0  0  0
  -25.1322  -36.1770   25.0792 H   0  0  0  0  0  0
  -21.0040  -28.3349   24.1314 H   0  0  0  0  0  0
  -20.5682  -26.2360   23.3636 H   0  0  0  0  0  0
  -21.6661  -26.7408   22.1204 H   0  0  0  0  0  0
  -19.6925  -25.6279   21.1270 H   0  0  0  0  0  0
  -19.6709  -27.3166   20.6723 H   0  0  0  0  0  0
  -17.4223  -26.6687   21.4030 H   0  0  0  0  0  0
  -18.0351  -26.0094   22.9033 H   0  0  0  0  0  0
  -19.7966  -30.7327   24.2193 H   0  0  0  0  0  0
  -17.5033  -31.6271   24.5163 H   0  0  0  0  0  0
  -15.5373  -30.2962   23.7699 H   0  0  0  0  0  0
  -15.8708  -28.0802   22.7106 H   0  0  0  0  0  0
  -24.5892  -30.7113   25.7686 H   0  0  0  0  0  0
  -24.8861  -32.2982   26.4673 H   0  0  0  0  0  0
  -25.7932  -30.9038   27.0227 H   0  0  0  0  0  0
  -26.3122  -29.6592   24.1402 H   0  0  0  0  0  0
  -27.3960  -29.7263   25.5078 H   0  0  0  0  0  0
  -27.9076  -30.4098   23.9860 H   0  0  0  0  0  0
  -27.2626  -33.3685   26.1976 H   0  0  0  0  0  0
  -28.3928  -32.6845   25.0387 H   0  0  0  0  0  0
  -28.0658  -31.8546   26.5521 H   0  0  0  0  0  0
  -28.2546  -38.0095   24.7558 H   0  0  0  0  0  0
  -28.1119  -36.2624   24.6222 H   0  0  0  0  0  0
  -27.2301  -37.1317   25.8862 H   0  0  0  0  0  0
  -20.9579  -29.8720   21.6663 H   0  0  0  0  0  0
  -26.0119  -38.2764   24.1460 H   0  0  0  0  0  0
  -28.5491  -19.8537   22.4260 H   0  0  0  0  0  0
  -31.2550  -20.2682   18.1598 H   0  0  0  0  0  0
  -29.7540  -19.9434   17.3011 H   0  0  0  0  0  0
  -31.3357  -17.8743   18.3794 H   0  0  0  0  0  0
  -29.6200  -17.7723   18.1012 H   0  0  0  0  0  0
  -31.0036  -18.2134   20.7195 H   0  0  0  0  0  0
  -28.0526  -21.9432   23.5656 H   0  0  0  0  0  0
  -26.6084  -22.2512   22.5965 H   0  0  0  0  0  0
  -27.8701  -23.4816   22.7354 H   0  0  0  0  0  0
  -26.8623  -24.1468   20.4495 H   0  0  0  0  0  0
  -27.6470  -24.2460   18.9260 H   0  0  0  0  0  0
  -28.7381  -16.3337   20.6530 H   0  0  0  0  0  0
  1 25  1  0  0  0
  1 30  2  0  0  0
  1 82  1  0  0  0
  2  3  1  0  0  0
  2 25  1  0  0  0
  2 83  1  0  0  0
  2 84  1  0  0  0
  3  4  1  0  0  0
  3 85  1  0  0  0
  3 86  1  0  0  0
  4  5  1  0  0  0
  4 87  1  0  0  0
  4 88  1  0  0  0
  5  6  1  0  0  0
  5 26  1  0  0  0
  5 89  1  0  0  0
  6 25  1  0  0  0
  6 90  1  0  0  0
  6 91  1  0  0  0
  7  8  2  0  0  0
  7 26  1  0  0  0
  7 29  1  0  0  0
  8  9  1  0  0  0
  8 22  1  0  0  0
  9 10  1  0  0  0
  9 27  2  0  0  0
 10 11  2  0  0  0
 10 15  1  0  0  0
 11 12  1  0  0  0
 11 92  1  0  0  0
 12 13  2  0  0  0
 12 93  1  0  0  0
 13 14  1  0  0  0
 13 31  1  0  0  0
 14 15  2  0  0  0
 14 94  1  0  0  0
 15 95  1  0  0  0
 16 17  2  0  0  0
 16 21  1  0  0  0
 16 31  1  0  0  0
 17 18  1  0  0  0
 17 96  1  0  0  0
 18 19  2  0  0  0
 18 97  1  0  0  0
 19 20  1  0  0  0
 19 24  1  0  0  0
 20 21  2  0  0  0
 20 98  1  0  0  0
 21 23  1  0  0  0
 22 28  1  0  0  0
 22 32  2  0  0  0
 26 27  1  0  0  0
 28 99  1  0  0  0
 28100  1  0  0  0
 29101  1  0  0  0
 29102  1  0  0  0
 33 34  1  0  0  0
 33 66  1  0  0  0
 33 70  2  0  0  0
 34 36  1  0  0  0
 34 59  1  0  0  0
 34103  1  0  0  0
 35 44  2  0  0  0
 35 45  1  0  0  0
 35 68  1  0  0  0
 36 56  1  0  0  0
 36104  1  0  0  0
 37 39  1  0  0  0
 37 47  1  0  0  0
 37 66  1  0  0  0
 37105  1  0  0  0
 38 43  2  0  0  0
 38 46  1  0  0  0
 38 47  1  0  0  0
 39 64  1  0  0  0
 39 67  2  0  0  0
 40 52  1  0  0  0
 40 53  2  0  0  0
 40 58  1  0  0  0
 41106  1  0  0  0
 41107  1  0  0  0
 41108  1  0  0  0
 41 48  1  0  0  0
 42 43  1  0  0  0
 42 66  1  0  0  0
 42109  1  0  0  0
 42110  1  0  0  0
 43 44  1  0  0  0
 44111  1  0  0  0
 45 46  2  0  0  0
 45112  1  0  0  0
 46113  1  0  0  0
 47114  1  0  0  0
 47115  1  0  0  0
 48 56  1  0  0  0
 48 65  1  0  0  0
 48116  1  0  0  0
 49 50  1  0  0  0
 49 53  1  0  0  0
 49 64  1  0  0  0
 49117  1  0  0  0
 50 51  1  0  0  0
 50118  1  0  0  0
 50119  1  0  0  0
 51 52  1  0  0  0
 51120  1  0  0  0
 51121  1  0  0  0
 52122  1  0  0  0
 52123  1  0  0  0
 53 54  1  0  0  0
 54 55  2  0  0  0
 54124  1  0  0  0
 55 57  1  0  0  0
 55125  1  0  0  0
 56 69  2  0  0  0
 57 58  2  0  0  0
 57126  1  0  0  0
 58127  1  0  0  0
 59 60  1  0  0  0
 59 61  1  0  0  0
 59 62  1  0  0  0
 60128  1  0  0  0
 60129  1  0  0  0
 60130  1  0  0  0
 61131  1  0  0  0
 61132  1  0  0  0
 61133  1  0  0  0
 62134  1  0  0  0
 62135  1  0  0  0
 62136  1  0  0  0
 63 65  1  0  0  0
 63137  1  0  0  0
 63138  1  0  0  0
 63139  1  0  0  0
 64140  1  0  0  0
 65141  1  0  0  0
 68 80  1  0  0  0
 71 72  2  0  0  0
 71 73  1  0  0  0
 71142  1  0  0  0
 72 74  1  0  0  0
 72 78  1  0  0  0
 73 75  2  0  0  0
 73 79  1  0  0  0
 74 76  1  0  0  0
 74 81  2  0  0  0
 75 80  1  0  0  0
 75 81  1  0  0  0
 76 77  1  0  0  0
 76143  1  0  0  0
 76144  1  0  0  0
 77 78  1  0  0  0
 77145  1  0  0  0
 77146  1  0  0  0
 78 82  1  0  0  0
 78147  1  0  0  0
 79148  1  0  0  0
 79149  1  0  0  0
 79150  1  0  0  0
 80151  1  0  0  0
 80152  1  0  0  0
 82153  1  0  0  0
M  ISO  4   1 100  68 101  80 101  82 100
M  END
> <chiral flag>
0

> <version>
0

> <s_m_source_file>
/data/baiqing/PycharmProjects/Reinvent-master-3.2/result/LINK_invent/BTK/process_docking_weight1_custom_sum_contain_oxygen_bond_distance_aromatic_linkinvent_7_9_3/rearranged_h_0190.sdf

> <i_m_source_file_index>
61

> <r_mmod_Potential_Energy-OPLS-2005>
1026.96789550781

> <r_mmod_Stretch_Energy-OPLS-2005>
470.087615966797

> <r_mmod_Bend_Energy-OPLS-2005>
477.464050292969

> <r_mmod_Torsional_Energy-OPLS-2005>
225.975433349609

> <r_mmod_Improper_Torsional_Energy-OPLS-2005>
8.75630760192871

> <r_mmod_Van_der_Waal_Energy-OPLS-2005>
127.280113220215

> <r_mmod_Electrostatic_Energy-OPLS-2005>
-469.146209716797

> <r_mmod_Solvation_Energy-OPLS-2005>
-231.700561523438

> <b_mmod_Minimization_Converged-OPLS-2005>
0

> <r_mmod_RMS_Derivative-OPLS-2005>
0.602071106433868

$$$$
61
                    3D
 Structure written by MMmdl.
150158  0  0  1  0            999 V2000
  -30.4148  -15.4922   20.3454 C   0  0  0  0  0  0
  -30.4110  -12.9824   19.5307 C   0  0  0  0  0  0
  -29.5316  -12.6171   18.3075 C   0  0  0  0  0  0
  -28.0998  -12.2931   18.7540 C   0  0  0  0  0  0
  -27.5933  -13.3012   19.8128 C   0  0  2  0  0  0
  -28.6164  -13.6083   20.9311 C   0  0  0  0  0  0
  -25.2318  -13.8297   20.5816 C   0  0  0  0  0  0
  -24.1698  -13.0448   20.9295 C   0  0  0  0  0  0
  -24.6389  -11.6955   20.8780 C   0  0  0  0  0  0
  -23.9103  -10.4296   21.0409 C   0  0  0  0  0  0
  -24.3645   -9.4206   21.9185 C   0  0  0  0  0  0
  -23.6310   -8.2245   22.0753 C   0  0  0  0  0  0
  -22.4288   -8.0288   21.3547 C   0  0  0  0  0  0
  -21.9934   -9.0264   20.4647 C   0  0  0  0  0  0
  -22.7274  -10.2138   20.3057 C   0  0  0  0  0  0
  -21.6857   -6.0739   22.5278 C   0  0  0  0  0  0
  -21.4020   -6.5642   23.8212 C   0  0  0  0  0  0
  -21.3661   -5.6795   24.9175 C   0  0  0  0  0  0
  -21.6045   -4.3057   24.7224 C   0  0  0  0  0  0
  -21.8818   -3.8148   23.4345 C   0  0  0  0  0  0
  -21.9193   -4.6965   22.3401 C   0  0  0  0  0  0
  -22.7712  -13.5178   21.1930 C   0  0  0  0  0  0
  -22.1660   -4.2152   21.0978 F   0  0  0  0  0  0
  -21.5625   -3.4541   25.7736 F   0  0  0  0  0  0
  -29.8063  -14.1788   20.2668 N   0  0  0  0  0  0
  -26.2749  -12.9614   20.3259 N   0  0  0  0  0  0
  -25.9332  -11.6691   20.5733 N   0  0  0  0  0  0
  -22.0377  -12.8149   22.0478 N   0  0  0  0  0  0
  -25.3945  -15.2037   20.4269 N   0  0  0  0  0  0
  -31.6422  -15.3537   20.1831 O   0  0  0  0  0  0
  -21.6648   -6.8887   21.4242 O   0  0  0  0  0  0
  -22.3392  -14.5479   20.6769 O   0  0  0  0  0  0
  -24.6761  -31.8082   23.1573 C   0  0  0  0  0  0
  -25.9378  -32.4506   23.8095 C   0  0  1  0  0  0
  -27.2183  -26.7801   20.2035 C   0  0  0  0  0  0
  -25.5988  -33.8328   24.1988 N   0  0  0  0  0  0
  -23.4981  -30.4133   21.5094 C   0  0  2  0  0  0
  -24.9534  -28.7703   20.1125 C   0  0  0  0  0  0
  -22.7733  -29.4356   22.4730 C   0  0  0  0  0  0
  -18.0336  -28.1414   22.8464 C   0  0  0  0  0  0
  -24.1495  -36.7174   23.2652 C   0  0  0  0  0  0
  -26.0742  -30.5659   21.4102 C   0  0  0  0  0  0
  -26.1392  -29.1397   20.7580 C   0  0  0  0  0  0
  -27.2594  -28.1690   20.7749 C   0  0  0  0  0  0
  -26.0047  -26.6016   19.4972 C   0  0  0  0  0  0
  -24.9207  -27.5264   19.4589 C   0  0  0  0  0  0
  -23.7467  -29.7168   20.1409 C   0  0  0  0  0  0
  -25.4141  -36.2918   24.0287 C   0  0  1  0  0  0
  -20.5967  -28.3770   23.1160 C   0  0  2  0  0  0
  -20.6802  -26.9438   22.5404 C   0  0  0  0  0  0
  -19.5774  -26.6372   21.5219 C   0  0  0  0  0  0
  -18.1959  -26.7944   22.1626 C   0  0  0  0  0  0
  -19.1600  -28.8916   23.2795 C   0  0  0  0  0  0
  -18.9506  -30.1501   23.8837 C   0  0  0  0  0  0
  -17.6496  -30.6599   24.0554 C   0  0  0  0  0  0
  -25.9116  -34.9307   23.4971 C   0  0  0  0  0  0
  -16.5387  -29.9082   23.6346 C   0  0  0  0  0  0
  -16.7317  -28.6504   23.0366 C   0  0  0  0  0  0
  -26.4578  -31.6511   25.0687 C   0  0  0  0  0  0
  -25.3662  -31.3808   26.1315 C   0  0  0  0  0  0
  -27.0500  -30.2857   24.6532 C   0  0  0  0  0  0
  -27.6035  -32.4360   25.7504 C   0  0  0  0  0  0
  -27.5564  -37.1745   24.8468 C   0  0  0  0  0  0
  -21.4386  -29.3035   22.3489 N   0  0  0  0  0  0
  -26.4274  -37.3670   23.9406 N   0  0  0  0  0  0
  -24.7720  -30.9605   22.0785 N   0  0  0  0  0  0
  -23.4217  -28.7949   23.3039 O   0  0  0  0  0  0
  -28.1927  -25.6027   20.3084 O   0  0  0  0  0  0
  -26.5749  -34.8871   22.4582 O   0  0  0  0  0  0
  -23.5798  -32.1121   23.6578 O   0  0  0  0  0  0
  -28.5071  -17.7105   20.5805 C   0  0  0  0  0  0
  -30.5849  -18.1983   19.7660 C   0  0  0  0  0  0
  -28.2678  -19.4130   20.8770 C   0  0  0  0  0  0
  -30.3409  -19.8585   20.1141 C   0  0  0  0  0  0
  -28.9045  -22.2980   20.5810 C   0  0  0  0  0  0
  -28.0493  -23.9000   20.0444 C   0  0  0  0  0  0
  -29.8418  -16.9299   20.3046 N   0  0  0  0  0  0
  -28.9707  -20.6109   20.1293 N   0  3  0  0  0  0
  -31.4189  -13.1938   19.1716 H   0  0  0  0  0  0
  -30.5243  -12.1258   20.1973 H   0  0  0  0  0  0
  -29.9583  -11.7722   17.7652 H   0  0  0  0  0  0
  -29.5159  -13.4558   17.6099 H   0  0  0  0  0  0
  -28.1069  -11.2901   19.1826 H   0  0  0  0  0  0
  -27.4261  -12.2575   17.8971 H   0  0  0  0  0  0
  -27.4652  -14.2308   19.2561 H   0  0  0  0  0  0
  -28.8479  -12.7237   21.5263 H   0  0  0  0  0  0
  -28.2077  -14.3485   21.6208 H   0  0  0  0  0  0
  -25.2783   -9.5681   22.4771 H   0  0  0  0  0  0
  -24.0011   -7.4637   22.7477 H   0  0  0  0  0  0
  -21.0860   -8.8794   19.8954 H   0  0  0  0  0  0
  -22.3731  -10.9682   19.6172 H   0  0  0  0  0  0
  -21.2019   -7.6152   23.9718 H   0  0  0  0  0  0
  -21.1482   -6.0523   25.9079 H   0  0  0  0  0  0
  -22.0594   -2.7609   23.2843 H   0  0  0  0  0  0
  -22.4019  -11.9822   22.4865 H   0  0  0  0  0  0
  -21.0990  -13.1150   22.2692 H   0  0  0  0  0  0
  -24.6241  -15.8535   20.5418 H   0  0  0  0  0  0
  -26.2417  -15.6450   20.0948 H   0  0  0  0  0  0
  -26.7457  -32.4999   23.0809 H   0  0  0  0  0  0
  -25.0055  -33.9378   25.0086 H   0  0  0  0  0  0
  -22.8191  -31.2487   21.3262 H   0  0  0  0  0  0
  -23.3767  -35.9493   23.3276 H   0  0  0  0  0  0
  -24.3564  -36.8867   22.2074 H   0  0  0  0  0  0
  -23.7247  -37.6343   23.6746 H   0  0  0  0  0  0
  -26.2712  -31.2963   20.6245 H   0  0  0  0  0  0
  -26.9279  -30.6288   22.0728 H   0  0  0  0  0  0
  -28.1513  -28.4530   21.3153 H   0  0  0  0  0  0
  -25.8532  -25.6561   18.9966 H   0  0  0  0  0  0
  -24.0243  -27.2375   18.9273 H   0  0  0  0  0  0
  -23.9164  -30.4800   19.3805 H   0  0  0  0  0  0
  -22.8527  -29.1803   19.8184 H   0  0  0  0  0  0
  -25.1347  -36.1692   25.0778 H   0  0  0  0  0  0
  -21.0056  -28.3389   24.1284 H   0  0  0  0  0  0
  -20.5670  -26.2395   23.3660 H   0  0  0  0  0  0
  -21.6663  -26.7387   22.1219 H   0  0  0  0  0  0
  -19.6928  -25.6266   21.1289 H   0  0  0  0  0  0
  -19.6709  -27.3149   20.6721 H   0  0  0  0  0  0
  -17.4227  -26.6693   21.4029 H   0  0  0  0  0  0
  -18.0345  -26.0097   22.9033 H   0  0  0  0  0  0
  -19.7980  -30.7335   24.2177 H   0  0  0  0  0  0
  -17.5045  -31.6270   24.5172 H   0  0  0  0  0  0
  -15.5383  -30.2966   23.7696 H   0  0  0  0  0  0
  -15.8720  -28.0798   22.7115 H   0  0  0  0  0  0
  -24.5867  -30.7134   25.7620 H   0  0  0  0  0  0
  -24.8828  -32.3024   26.4565 H   0  0  0  0  0  0
  -25.7857  -30.9089   27.0209 H   0  0  0  0  0  0
  -26.3195  -29.6485   24.1536 H   0  0  0  0  0  0
  -27.3968  -29.7285   25.5243 H   0  0  0  0  0  0
  -27.9162  -30.3998   24.0013 H   0  0  0  0  0  0
  -27.2573  -33.3718   26.1904 H   0  0  0  0  0  0
  -28.3938  -32.6831   25.0404 H   0  0  0  0  0  0
  -28.0602  -31.8612   26.5570 H   0  0  0  0  0  0
  -28.2558  -38.0061   24.7505 H   0  0  0  0  0  0
  -28.1083  -36.2584   24.6306 H   0  0  0  0  0  0
  -27.2279  -37.1398   25.8870 H   0  0  0  0  0  0
  -20.9672  -29.8709   21.6583 H   0  0  0  0  0  0
  -26.0107  -38.2723   24.1408 H   0  0  0  0  0  0
  -27.8886  -17.4764   19.7135 H   0  0  0  0  0  0
  -28.0223  -17.1782   21.3995 H   0  0  0  0  0  0
  -31.6441  -18.0140   19.9484 H   0  0  0  0  0  0
  -30.4908  -18.1107   18.6828 H   0  0  0  0  0  0
  -28.4967  -19.5651   21.9330 H   0  0  0  0  0  0
  -27.1964  -19.6045   20.8119 H   0  0  0  0  0  0
  -30.9825  -20.4214   19.4362 H   0  0  0  0  0  0
  -30.7806  -20.0318   21.0978 H   0  0  0  0  0  0
  -28.7760  -22.2650   21.6623 H   0  0  0  0  0  0
  -29.9520  -22.5739   20.4635 H   0  0  0  0  0  0
  -26.9983  -23.7157   20.2660 H   0  0  0  0  0  0
  -28.0914  -23.8508   18.9566 H   0  0  0  0  0  0
  -28.6395  -20.5811   19.1761 H   0  0  0  0  0  0
  1 25  1  0  0  0
  1 30  2  0  0  0
  1 77  1  0  0  0
  2  3  1  0  0  0
  2 25  1  0  0  0
  2 79  1  0  0  0
  2 80  1  0  0  0
  3  4  1  0  0  0
  3 81  1  0  0  0
  3 82  1  0  0  0
  4  5  1  0  0  0
  4 83  1  0  0  0
  4 84  1  0  0  0
  5  6  1  0  0  0
  5 26  1  0  0  0
  5 85  1  0  0  0
  6 25  1  0  0  0
  6 86  1  0  0  0
  6 87  1  0  0  0
  7  8  2  0  0  0
  7 26  1  0  0  0
  7 29  1  0  0  0
  8  9  1  0  0  0
  8 22  1  0  0  0
  9 10  1  0  0  0
  9 27  2  0  0  0
 10 11  2  0  0  0
 10 15  1  0  0  0
 11 12  1  0  0  0
 11 88  1  0  0  0
 12 13  2  0  0  0
 12 89  1  0  0  0
 13 14  1  0  0  0
 13 31  1  0  0  0
 14 15  2  0  0  0
 14 90  1  0  0  0
 15 91  1  0  0  0
 16 17  2  0  0  0
 16 21  1  0  0  0
 16 31  1  0  0  0
 17 18  1  0  0  0
 17 92  1  0  0  0
 18 19  2  0  0  0
 18 93  1  0  0  0
 19 20  1  0  0  0
 19 24  1  0  0  0
 20 21  2  0  0  0
 20 94  1  0  0  0
 21 23  1  0  0  0
 22 28  1  0  0  0
 22 32  2  0  0  0
 26 27  1  0  0  0
 28 95  1  0  0  0
 28 96  1  0  0  0
 29 97  1  0  0  0
 29 98  1  0  0  0
 33 34  1  0  0  0
 33 66  1  0  0  0
 33 70  2  0  0  0
 34 36  1  0  0  0
 34 59  1  0  0  0
 34 99  1  0  0  0
 35 44  2  0  0  0
 35 45  1  0  0  0
 35 68  1  0  0  0
 36 56  1  0  0  0
 36100  1  0  0  0
 37 39  1  0  0  0
 37 47  1  0  0  0
 37 66  1  0  0  0
 37101  1  0  0  0
 38 43  2  0  0  0
 38 46  1  0  0  0
 38 47  1  0  0  0
 39 64  1  0  0  0
 39 67  2  0  0  0
 40 52  1  0  0  0
 40 53  2  0  0  0
 40 58  1  0  0  0
 41102  1  0  0  0
 41103  1  0  0  0
 41104  1  0  0  0
 41 48  1  0  0  0
 42 43  1  0  0  0
 42 66  1  0  0  0
 42105  1  0  0  0
 42106  1  0  0  0
 43 44  1  0  0  0
 44107  1  0  0  0
 45 46  2  0  0  0
 45108  1  0  0  0
 46109  1  0  0  0
 47110  1  0  0  0
 47111  1  0  0  0
 48 56  1  0  0  0
 48 65  1  0  0  0
 48112  1  0  0  0
 49 50  1  0  0  0
 49 53  1  0  0  0
 49 64  1  0  0  0
 49113  1  0  0  0
 50 51  1  0  0  0
 50114  1  0  0  0
 50115  1  0  0  0
 51 52  1  0  0  0
 51116  1  0  0  0
 51117  1  0  0  0
 52118  1  0  0  0
 52119  1  0  0  0
 53 54  1  0  0  0
 54 55  2  0  0  0
 54120  1  0  0  0
 55 57  1  0  0  0
 55121  1  0  0  0
 56 69  2  0  0  0
 57 58  2  0  0  0
 57122  1  0  0  0
 58123  1  0  0  0
 59 60  1  0  0  0
 59 61  1  0  0  0
 59 62  1  0  0  0
 60124  1  0  0  0
 60125  1  0  0  0
 60126  1  0  0  0
 61127  1  0  0  0
 61128  1  0  0  0
 61129  1  0  0  0
 62130  1  0  0  0
 62131  1  0  0  0
 62132  1  0  0  0
 63 65  1  0  0  0
 63133  1  0  0  0
 63134  1  0  0  0
 63135  1  0  0  0
 64136  1  0  0  0
 65137  1  0  0  0
 68 76  1  0  0  0
 71 73  1  0  0  0
 71 77  1  0  0  0
 71138  1  0  0  0
 71139  1  0  0  0
 72 74  1  0  0  0
 72 77  1  0  0  0
 72140  1  0  0  0
 72141  1  0  0  0
 73 78  1  0  0  0
 73142  1  0  0  0
 73143  1  0  0  0
 74 78  1  0  0  0
 74144  1  0  0  0
 74145  1  0  0  0
 75 76  1  0  0  0
 75146  1  0  0  0
 75147  1  0  0  0
 75 78  1  0  0  0
 76148  1  0  0  0
 76149  1  0  0  0
 78150  1  0  0  0
M  CHG  1  78   1
M  ISO  4   1 100  68 101  76 101  77 100
M  END
> <chiral flag>
0

> <version>
0

> <s_m_source_file>
/data/baiqing/PycharmProjects/Reinvent-master-3.2/result/LINK_invent/BTK/process_docking_weight1_custom_sum_contain_oxygen_bond_distance_aromatic_linkinvent_7_9_3/rearranged_h_0190.sdf

> <i_m_source_file_index>
62

> <r_mmod_Potential_Energy-OPLS-2005>
2069.70849609375

> <r_mmod_Stretch_Energy-OPLS-2005>
822.303466796875

> <r_mmod_Bend_Energy-OPLS-2005>
682.106689453125

> <r_mmod_Torsional_Energy-OPLS-2005>
364.669525146484

> <r_mmod_Improper_Torsional_Energy-OPLS-2005>
7.53518962860107

> <r_mmod_Van_der_Waal_Energy-OPLS-2005>
115.253486633301

> <r_mmod_Electrostatic_Energy-OPLS-2005>
-187.556671142578

> <r_mmod_Solvation_Energy-OPLS-2005>
-448.615417480469

> <b_mmod_Minimization_Converged-OPLS-2005>
0

> <r_mmod_RMS_Derivative-OPLS-2005>
0.569041132926941

$$$$
62
                    3D
 Structure written by MMmdl.
169179  0  0  1  0            999 V2000
  -30.7054  -14.4392   20.5824 C   0  0  0  0  0  0
  -30.4233  -12.2872   19.4169 C   0  0  0  0  0  0
  -29.4971  -12.5068   18.2019 C   0  0  0  0  0  0
  -28.0140  -12.3753   18.6093 C   0  0  0  0  0  0
  -27.6644  -13.1988   19.8779 C   0  0  2  0  0  0
  -28.7041  -12.9471   20.9920 C   0  0  0  0  0  0
  -25.2612  -13.8146   20.5667 C   0  0  0  0  0  0
  -24.1851  -13.0434   20.9162 C   0  0  0  0  0  0
  -24.6390  -11.6900   20.8716 C   0  0  0  0  0  0
  -23.9058  -10.4288   21.0393 C   0  0  0  0  0  0
  -24.3606   -9.4211   21.9177 C   0  0  0  0  0  0
  -23.6302   -8.2238   22.0751 C   0  0  0  0  0  0
  -22.4284   -8.0274   21.3542 C   0  0  0  0  0  0
  -21.9906   -9.0251   20.4647 C   0  0  0  0  0  0
  -22.7226  -10.2135   20.3053 C   0  0  0  0  0  0
  -21.6851   -6.0734   22.5275 C   0  0  0  0  0  0
  -21.4009   -6.5631   23.8210 C   0  0  0  0  0  0
  -21.3662   -5.6791   24.9172 C   0  0  0  0  0  0
  -21.6049   -4.3051   24.7220 C   0  0  0  0  0  0
  -21.8819   -3.8139   23.4342 C   0  0  0  0  0  0
  -21.9194   -4.6962   22.3398 C   0  0  0  0  0  0
  -22.7877  -13.5244   21.1846 C   0  0  0  0  0  0
  -22.1666   -4.2148   21.0976 F   0  0  0  0  0  0
  -21.5639   -3.4533   25.7736 F   0  0  0  0  0  0
  -30.0360  -13.2618   20.4478 N   0  0  0  0  0  0
  -26.3038  -12.9293   20.3364 N   0  0  0  0  0  0
  -25.9313  -11.6463   20.5744 N   0  0  0  0  0  0
  -22.0503  -12.8259   22.0396 N   0  0  0  0  0  0
  -25.4364  -15.1860   20.4079 N   0  0  0  0  0  0
  -31.8335  -14.6175   20.1083 O   0  0  0  0  0  0
  -21.6634   -6.8884   21.4244 O   0  0  0  0  0  0
  -22.3585  -14.5560   20.6700 O   0  0  0  0  0  0
  -24.6137  -31.8692   23.2145 C   0  0  0  0  0  0
  -25.9034  -32.4830   23.8425 C   0  0  1  0  0  0
  -27.2286  -27.4492   20.0685 C   0  0  0  0  0  0
  -25.5903  -33.8634   24.2346 N   0  0  0  0  0  0
  -23.3992  -30.4970   21.5540 C   0  0  2  0  0  0
  -24.8399  -28.9659   20.1168 C   0  0  0  0  0  0
  -22.7400  -29.4672   22.5001 C   0  0  0  0  0  0
  -18.0270  -28.1380   22.8496 C   0  0  0  0  0  0
  -24.1482  -36.7327   23.2635 C   0  0  0  0  0  0
  -25.9281  -30.8358   21.3663 C   0  0  0  0  0  0
  -26.0012  -29.4715   20.7130 C   0  0  0  0  0  0
  -27.1945  -28.7155   20.6949 C   0  0  0  0  0  0
  -26.0413  -26.9547   19.4757 C   0  0  0  0  0  0
  -24.8531  -27.7046   19.5018 C   0  0  0  0  0  0
  -23.6055  -29.8350   20.1673 C   0  0  0  0  0  0
  -25.4100  -36.3120   24.0340 C   0  0  1  0  0  0
  -20.5859  -28.3663   23.1326 C   0  0  2  0  0  0
  -20.6764  -26.9405   22.5417 C   0  0  0  0  0  0
  -19.5744  -26.6392   21.5213 C   0  0  0  0  0  0
  -18.1922  -26.7927   22.1624 C   0  0  0  0  0  0
  -19.1518  -28.8838   23.2913 C   0  0  0  0  0  0
  -18.9444  -30.1444   23.8921 C   0  0  0  0  0  0
  -17.6448  -30.6587   24.0566 C   0  0  0  0  0  0
  -25.9025  -34.9485   23.5135 C   0  0  0  0  0  0
  -16.5341  -29.9094   23.6319 C   0  0  0  0  0  0
  -16.7260  -28.6508   23.0345 C   0  0  0  0  0  0
  -26.4473  -31.6607   25.0748 C   0  0  0  0  0  0
  -25.3754  -31.3712   26.1512 C   0  0  0  0  0  0
  -27.0284  -30.3048   24.6107 C   0  0  0  0  0  0
  -27.6058  -32.4318   25.7501 C   0  0  0  0  0  0
  -27.5579  -37.1810   24.8457 C   0  0  0  0  0  0
  -21.4125  -29.3038   22.3734 N   0  0  0  0  0  0
  -26.4284  -37.3805   23.9418 N   0  0  0  0  0  0
  -24.6654  -31.0814   22.1029 N   0  0  0  0  0  0
  -23.4178  -28.8204   23.3026 O   0  0  0  0  0  0
  -28.4183  -26.7489   20.0593 O   0  0  0  0  0  0
  -26.5585  -34.8925   22.4690 O   0  0  0  0  0  0
  -23.5336  -32.1440   23.7547 O   0  0  0  0  0  0
  -30.4678  -22.1818   22.7773 C   0  0  0  0  0  0
  -30.7783  -21.1388   23.6541 C   0  0  0  0  0  0
  -29.9036  -21.8244   21.5521 C   0  0  0  0  0  0
  -30.0193  -19.6155   22.1301 C   0  0  0  0  0  0
  -30.4868  -21.0935   26.2447 C   0  0  0  0  0  0
  -30.7805  -22.5229   25.8615 C   0  0  0  0  0  0
  -29.1647  -17.8703   20.5420 C   0  0  0  0  0  0
  -30.1406  -17.1968   22.7371 C   0  0  0  0  0  0
  -29.8445  -16.6228   19.9536 C   0  0  0  0  0  0
  -29.5985  -15.8161   22.3040 C   0  0  0  0  0  0
  -31.3248  -21.3887   25.0220 C   0  0  0  0  0  0
  -29.8925  -24.9363   19.3825 C   0  0  0  0  0  0
  -30.0992  -24.1207   20.6712 C   0  0  0  0  0  0
  -28.4983  -25.5668   19.2598 C   0  0  0  0  0  0
  -30.5601  -19.8548   23.3175 N   0  0  0  0  0  0
  -29.6761  -20.5426   21.2369 N   0  0  0  0  0  0
  -29.7977  -18.2749   21.7999 N   0  0  0  0  0  0
  -29.9320  -15.5007   20.9055 N   0  0  0  0  0  0
  -29.5358  -22.7734   20.5937 N   0  0  0  0  0  0
  -31.4685  -12.3823   19.1190 H   0  0  0  0  0  0
  -30.3184  -11.2722   19.8031 H   0  0  0  0  0  0
  -29.7336  -11.7872   17.4164 H   0  0  0  0  0  0
  -29.6762  -13.4946   17.7735 H   0  0  0  0  0  0
  -27.8097  -11.3195   18.7895 H   0  0  0  0  0  0
  -27.3692  -12.6698   17.7811 H   0  0  0  0  0  0
  -27.7181  -14.2508   19.6016 H   0  0  0  0  0  0
  -28.6781  -11.9009   21.3033 H   0  0  0  0  0  0
  -28.4606  -13.5146   21.8881 H   0  0  0  0  0  0
  -25.2744   -9.5691   22.4758 H   0  0  0  0  0  0
  -24.0014   -7.4615   22.7450 H   0  0  0  0  0  0
  -21.0840   -8.8756   19.8954 H   0  0  0  0  0  0
  -22.3672  -10.9671   19.6161 H   0  0  0  0  0  0
  -21.1991   -7.6143   23.9724 H   0  0  0  0  0  0
  -21.1494   -6.0507   25.9086 H   0  0  0  0  0  0
  -22.0603   -2.7607   23.2825 H   0  0  0  0  0  0
  -22.4111  -11.9932   22.4813 H   0  0  0  0  0  0
  -21.1123  -13.1310   22.2580 H   0  0  0  0  0  0
  -24.6730  -15.8446   20.5193 H   0  0  0  0  0  0
  -26.2999  -15.6225   20.1101 H   0  0  0  0  0  0
  -26.7104  -32.5542   23.1189 H   0  0  0  0  0  0
  -25.0074  -33.9801   25.0508 H   0  0  0  0  0  0
  -22.6878  -31.3149   21.4198 H   0  0  0  0  0  0
  -23.3738  -35.9664   23.3296 H   0  0  0  0  0  0
  -24.3585  -36.8938   22.2049 H   0  0  0  0  0  0
  -23.7232  -37.6535   23.6645 H   0  0  0  0  0  0
  -26.0381  -31.6019   20.5980 H   0  0  0  0  0  0
  -26.8179  -30.8885   21.9817 H   0  0  0  0  0  0
  -28.0934  -29.1051   21.1521 H   0  0  0  0  0  0
  -26.0015  -25.9957   18.9820 H   0  0  0  0  0  0
  -23.9581  -27.3092   19.0406 H   0  0  0  0  0  0
  -23.7185  -30.6131   19.4114 H   0  0  0  0  0  0
  -22.7274  -29.2603   19.8673 H   0  0  0  0  0  0
  -25.1267  -36.1988   25.0834 H   0  0  0  0  0  0
  -20.9956  -28.3222   24.1441 H   0  0  0  0  0  0
  -20.5675  -26.2269   23.3594 H   0  0  0  0  0  0
  -21.6631  -26.7458   22.1194 H   0  0  0  0  0  0
  -19.6904  -25.6305   21.1232 H   0  0  0  0  0  0
  -19.6685  -27.3210   20.6747 H   0  0  0  0  0  0
  -17.4191  -26.6676   21.4025 H   0  0  0  0  0  0
  -18.0329  -26.0064   22.9019 H   0  0  0  0  0  0
  -19.7925  -30.7248   24.2302 H   0  0  0  0  0  0
  -17.5010  -31.6268   24.5163 H   0  0  0  0  0  0
  -15.5345  -30.3003   23.7630 H   0  0  0  0  0  0
  -15.8659  -28.0838   22.7042 H   0  0  0  0  0  0
  -24.5932  -30.7040   25.7875 H   0  0  0  0  0  0
  -24.8942  -32.2867   26.4966 H   0  0  0  0  0  0
  -25.8139  -30.8902   27.0265 H   0  0  0  0  0  0
  -26.2813  -29.6832   24.1156 H   0  0  0  0  0  0
  -27.4044  -29.7265   25.4558 H   0  0  0  0  0  0
  -27.8661  -30.4363   23.9251 H   0  0  0  0  0  0
  -27.2683  -33.3607   26.2114 H   0  0  0  0  0  0
  -28.3852  -32.6894   25.0317 H   0  0  0  0  0  0
  -28.0742  -31.8419   26.5390 H   0  0  0  0  0  0
  -28.2586  -38.0116   24.7520 H   0  0  0  0  0  0
  -28.1080  -36.2652   24.6252 H   0  0  0  0  0  0
  -27.2311  -37.1425   25.8862 H   0  0  0  0  0  0
  -20.9279  -29.8774   21.6975 H   0  0  0  0  0  0
  -26.0173  -38.2879   24.1442 H   0  0  0  0  0  0
  -30.6437  -23.2077   23.0659 H   0  0  0  0  0  0
  -29.4782  -20.7205   26.0765 H   0  0  0  0  0  0
  -30.9952  -20.7037   27.1235 H   0  0  0  0  0  0
  -31.4816  -23.0717   26.4846 H   0  0  0  0  0  0
  -29.9587  -23.1073   25.4527 H   0  0  0  0  0  0
  -28.1074  -17.6765   20.7289 H   0  0  0  0  0  0
  -29.1988  -18.6619   19.7929 H   0  0  0  0  0  0
  -31.2273  -17.1511   22.8247 H   0  0  0  0  0  0
  -29.7612  -17.4375   23.7323 H   0  0  0  0  0  0
  -30.8417  -16.9017   19.6073 H   0  0  0  0  0  0
  -29.2968  -16.2928   19.0701 H   0  0  0  0  0  0
  -28.5115  -15.8019   22.4047 H   0  0  0  0  0  0
  -29.9756  -15.0474   22.9828 H   0  0  0  0  0  0
  -32.3939  -21.1886   25.0696 H   0  0  0  0  0  0
  -30.0921  -24.3039   18.5166 H   0  0  0  0  0  0
  -30.6339  -25.7355   19.3370 H   0  0  0  0  0  0
  -29.6665  -24.6543   21.5195 H   0  0  0  0  0  0
  -31.1697  -24.0376   20.8662 H   0  0  0  0  0  0
  -27.7485  -24.8303   19.5537 H   0  0  0  0  0  0
  -28.3169  -25.8302   18.2163 H   0  0  0  0  0  0
  -29.1914  -22.4309   19.7043 H   0  0  0  0  0  0
  1 25  1  0  0  0
  1 30  2  0  0  0
  1 88  1  0  0  0
  2  3  1  0  0  0
  2 25  1  0  0  0
  2 90  1  0  0  0
  2 91  1  0  0  0
  3  4  1  0  0  0
  3 92  1  0  0  0
  3 93  1  0  0  0
  4  5  1  0  0  0
  4 94  1  0  0  0
  4 95  1  0  0  0
  5  6  1  0  0  0
  5 26  1  0  0  0
  5 96  1  0  0  0
  6 25  1  0  0  0
  6 97  1  0  0  0
  6 98  1  0  0  0
  7  8  2  0  0  0
  7 26  1  0  0  0
  7 29  1  0  0  0
  8  9  1  0  0  0
  8 22  1  0  0  0
  9 10  1  0  0  0
  9 27  2  0  0  0
 10 11  2  0  0  0
 10 15  1  0  0  0
 11 12  1  0  0  0
 11 99  1  0  0  0
 12 13  2  0  0  0
 12100  1  0  0  0
 13 14  1  0  0  0
 13 31  1  0  0  0
 14 15  2  0  0  0
 14101  1  0  0  0
 15102  1  0  0  0
 16 17  2  0  0  0
 16 21  1  0  0  0
 16 31  1  0  0  0
 17 18  1  0  0  0
 17103  1  0  0  0
 18 19  2  0  0  0
 18104  1  0  0  0
 19 20  1  0  0  0
 19 24  1  0  0  0
 20 21  2  0  0  0
 20105  1  0  0  0
 21 23  1  0  0  0
 22 28  1  0  0  0
 22 32  2  0  0  0
 26 27  1  0  0  0
 28106  1  0  0  0
 28107  1  0  0  0
 29108  1  0  0  0
 29109  1  0  0  0
 33 34  1  0  0  0
 33 66  1  0  0  0
 33 70  2  0  0  0
 34 36  1  0  0  0
 34 59  1  0  0  0
 34110  1  0  0  0
 35 44  2  0  0  0
 35 45  1  0  0  0
 35 68  1  0  0  0
 36 56  1  0  0  0
 36111  1  0  0  0
 37 39  1  0  0  0
 37 47  1  0  0  0
 37 66  1  0  0  0
 37112  1  0  0  0
 38 43  2  0  0  0
 38 46  1  0  0  0
 38 47  1  0  0  0
 39 64  1  0  0  0
 39 67  2  0  0  0
 40 52  1  0  0  0
 40 53  2  0  0  0
 40 58  1  0  0  0
 41113  1  0  0  0
 41114  1  0  0  0
 41115  1  0  0  0
 41 48  1  0  0  0
 42 43  1  0  0  0
 42 66  1  0  0  0
 42116  1  0  0  0
 42117  1  0  0  0
 43 44  1  0  0  0
 44118  1  0  0  0
 45 46  2  0  0  0
 45119  1  0  0  0
 46120  1  0  0  0
 47121  1  0  0  0
 47122  1  0  0  0
 48 56  1  0  0  0
 48 65  1  0  0  0
 48123  1  0  0  0
 49 50  1  0  0  0
 49 53  1  0  0  0
 49 64  1  0  0  0
 49124  1  0  0  0
 50 51  1  0  0  0
 50125  1  0  0  0
 50126  1  0  0  0
 51 52  1  0  0  0
 51127  1  0  0  0
 51128  1  0  0  0
 52129  1  0  0  0
 52130  1  0  0  0
 53 54  1  0  0  0
 54 55  2  0  0  0
 54131  1  0  0  0
 55 57  1  0  0  0
 55132  1  0  0  0
 56 69  2  0  0  0
 57 58  2  0  0  0
 57133  1  0  0  0
 58134  1  0  0  0
 59 60  1  0  0  0
 59 61  1  0  0  0
 59 62  1  0  0  0
 60135  1  0  0  0
 60136  1  0  0  0
 60137  1  0  0  0
 61138  1  0  0  0
 61139  1  0  0  0
 61140  1  0  0  0
 62141  1  0  0  0
 62142  1  0  0  0
 62143  1  0  0  0
 63 65  1  0  0  0
 63144  1  0  0  0
 63145  1  0  0  0
 63146  1  0  0  0
 64147  1  0  0  0
 65148  1  0  0  0
 68 84  1  0  0  0
 71 72  2  0  0  0
 71 73  1  0  0  0
 71149  1  0  0  0
 72 85  1  0  0  0
 72 81  1  0  0  0
 73 86  2  0  0  0
 73 89  1  0  0  0
 74 85  2  0  0  0
 74 86  1  0  0  0
 74 87  1  0  0  0
 75 76  1  0  0  0
 75 81  1  0  0  0
 75150  1  0  0  0
 75151  1  0  0  0
 76 81  1  0  0  0
 76152  1  0  0  0
 76153  1  0  0  0
 77 79  1  0  0  0
 77 87  1  0  0  0
 77154  1  0  0  0
 77155  1  0  0  0
 78 80  1  0  0  0
 78 87  1  0  0  0
 78156  1  0  0  0
 78157  1  0  0  0
 79 88  1  0  0  0
 79158  1  0  0  0
 79159  1  0  0  0
 80 88  1  0  0  0
 80160  1  0  0  0
 80161  1  0  0  0
 81162  1  0  0  0
 82 83  1  0  0  0
 82 84  1  0  0  0
 82163  1  0  0  0
 82164  1  0  0  0
 83 89  1  0  0  0
 83165  1  0  0  0
 83166  1  0  0  0
 84167  1  0  0  0
 84168  1  0  0  0
 89169  1  0  0  0
M  ISO  4   1 100  68 101  84 101  88 100
M  END
> <chiral flag>
0

> <version>
0

> <s_m_source_file>
/data/baiqing/PycharmProjects/Reinvent-master-3.2/result/LINK_invent/BTK/process_docking_weight1_custom_sum_contain_oxygen_bond_distance_aromatic_linkinvent_7_9_3/rearranged_h_0190.sdf

> <i_m_source_file_index>
63

> <r_mmod_Potential_Energy-OPLS-2005>
-450.832000732422

> <r_mmod_Stretch_Energy-OPLS-2005>
35.6270294189453

> <r_mmod_Bend_Energy-OPLS-2005>
109.292938232422

> <r_mmod_Torsional_Energy-OPLS-2005>
357.271575927734

> <r_mmod_Improper_Torsional_Energy-OPLS-2005>
13.0265026092529

> <r_mmod_Van_der_Waal_Energy-OPLS-2005>
190.075622558594

> <r_mmod_Electrostatic_Energy-OPLS-2005>
-924.328979492188

> <r_mmod_Solvation_Energy-OPLS-2005>
-242.599655151367

> <b_mmod_Minimization_Converged-OPLS-2005>
0

> <r_mmod_RMS_Derivative-OPLS-2005>
1.9827618598938

$$$$
63
                    3D
 Structure written by MMmdl.
163172  0  0  1  0            999 V2000
  -30.6101  -14.7651   20.4102 C   0  0  0  0  0  0
  -30.4445  -12.4534   19.4729 C   0  0  0  0  0  0
  -29.5171  -12.4487   18.2378 C   0  0  0  0  0  0
  -28.0399  -12.2998   18.6562 C   0  0  0  0  0  0
  -27.6420  -13.2208   19.8404 C   0  0  2  0  0  0
  -28.6932  -13.1965   20.9702 C   0  0  0  0  0  0
  -25.2536  -13.8152   20.5718 C   0  0  0  0  0  0
  -24.1804  -13.0417   20.9191 C   0  0  0  0  0  0
  -24.6386  -11.6892   20.8742 C   0  0  0  0  0  0
  -23.9058  -10.4279   21.0404 C   0  0  0  0  0  0
  -24.3608   -9.4198   21.9185 C   0  0  0  0  0  0
  -23.6279   -8.2238   22.0758 C   0  0  0  0  0  0
  -22.4265   -8.0273   21.3546 C   0  0  0  0  0  0
  -21.9899   -9.0245   20.4648 C   0  0  0  0  0  0
  -22.7227  -10.2124   20.3054 C   0  0  0  0  0  0
  -21.6849   -6.0726   22.5274 C   0  0  0  0  0  0
  -21.4006   -6.5632   23.8205 C   0  0  0  0  0  0
  -21.3658   -5.6788   24.9170 C   0  0  0  0  0  0
  -21.6047   -4.3051   24.7221 C   0  0  0  0  0  0
  -21.8822   -3.8140   23.4343 C   0  0  0  0  0  0
  -21.9188   -4.6955   22.3397 C   0  0  0  0  0  0
  -22.7829  -13.5212   21.1857 C   0  0  0  0  0  0
  -22.1661   -4.2141   21.0976 F   0  0  0  0  0  0
  -21.5635   -3.4535   25.7737 F   0  0  0  0  0  0
  -29.9865  -13.5376   20.3673 N   0  0  0  0  0  0
  -26.2954  -12.9347   20.3277 N   0  0  0  0  0  0
  -25.9319  -11.6504   20.5768 N   0  0  0  0  0  0
  -22.0471  -12.8206   22.0410 N   0  0  0  0  0  0
  -25.4259  -15.1872   20.4216 N   0  0  0  0  0  0
  -31.8292  -14.8361   20.2330 O   0  0  0  0  0  0
  -21.6633   -6.8868   21.4238 O   0  0  0  0  0  0
  -22.3520  -14.5520   20.6704 O   0  0  0  0  0  0
  -24.6323  -31.8563   23.2006 C   0  0  0  0  0  0
  -25.9149  -32.4762   23.8349 C   0  0  1  0  0  0
  -27.2167  -27.2564   20.1260 C   0  0  0  0  0  0
  -25.5942  -33.8564   24.2267 N   0  0  0  0  0  0
  -23.4295  -30.4810   21.5437 C   0  0  2  0  0  0
  -24.8771  -28.9363   20.1083 C   0  0  0  0  0  0
  -22.7513  -29.4599   22.4898 C   0  0  0  0  0  0
  -18.0292  -28.1382   22.8475 C   0  0  0  0  0  0
  -24.1484  -36.7281   23.2639 C   0  0  0  0  0  0
  -25.9777  -30.7673   21.3838 C   0  0  0  0  0  0
  -26.0505  -29.3910   20.7230 C   0  0  0  0  0  0
  -27.2231  -28.5646   20.7225 C   0  0  0  0  0  0
  -26.0177  -26.8857   19.4668 C   0  0  0  0  0  0
  -24.8674  -27.6921   19.4678 C   0  0  0  0  0  0
  -23.6490  -29.8226   20.1579 C   0  0  0  0  0  0
  -25.4111  -36.3069   24.0322 C   0  0  1  0  0  0
  -20.5900  -28.3696   23.1255 C   0  0  2  0  0  0
  -20.6781  -26.9412   22.5400 C   0  0  0  0  0  0
  -19.5758  -26.6380   21.5198 C   0  0  0  0  0  0
  -18.1938  -26.7923   22.1610 C   0  0  0  0  0  0
  -19.1548  -28.8854   23.2858 C   0  0  0  0  0  0
  -18.9471  -30.1455   23.8876 C   0  0  0  0  0  0
  -17.6472  -30.6583   24.0557 C   0  0  0  0  0  0
  -25.9053  -34.9441   23.5093 C   0  0  0  0  0  0
  -16.5363  -29.9083   23.6328 C   0  0  0  0  0  0
  -16.7280  -28.6503   23.0342 C   0  0  0  0  0  0
  -26.4508  -31.6590   25.0741 C   0  0  0  0  0  0
  -25.3716  -31.3738   26.1448 C   0  0  0  0  0  0
  -27.0365  -30.3007   24.6240 C   0  0  0  0  0  0
  -27.6056  -32.4337   25.7511 C   0  0  0  0  0  0
  -27.5571  -37.1795   24.8464 C   0  0  0  0  0  0
  -21.4216  -29.3046   22.3644 N   0  0  0  0  0  0
  -26.4283  -37.3770   23.9408 N   0  0  0  0  0  0
  -24.6986  -31.0528   22.0986 N   0  0  0  0  0  0
  -23.4212  -28.8123   23.2985 O   0  0  0  0  0  0
  -28.2880  -26.3263   20.2075 O   0  0  0  0  0  0
  -26.5630  -34.8915   22.4664 O   0  0  0  0  0  0
  -23.5471  -32.1385   23.7294 O   0  0  0  0  0  0
  -28.4662  -22.2397   20.2613 C   0  0  0  0  0  0
  -28.8751  -23.6282   20.3762 C   0  0  0  0  0  0
  -29.4070  -21.1904   20.5555 C   0  0  0  0  0  0
  -30.9406  -22.8396   21.0242 C   0  0  0  0  0  0
  -28.4631  -17.0632   19.1329 C   0  0  0  0  0  0
  -29.6786  -16.2899   18.6287 C   0  0  0  0  0  0
  -29.1888  -17.1664   20.4774 C   0  0  2  0  0  0
  -32.3507  -23.1707   21.4630 C   0  0  0  0  0  0
  -26.8919  -21.7377   18.3215 C   0  0  0  0  0  0
  -27.0420  -21.8831   19.8411 C   0  0  0  0  0  0
  -27.9267  -24.8694   20.0459 C   0  0  0  0  0  0
  -29.9778  -18.5610   20.6504 C   0  0  0  0  0  0
  -30.1402  -23.8795   20.7680 N   0  0  0  0  0  0
  -30.6444  -21.5375   20.9347 N   0  0  0  0  0  0
  -29.8336  -15.8488   20.0126 N   0  0  0  0  0  0
  -29.0978  -19.7835   20.4784 N   0  0  0  0  0  0
  -31.4813  -12.5908   19.1603 H   0  0  0  0  0  0
  -30.4093  -11.4936   19.9905 H   0  0  0  0  0  0
  -29.7943  -11.6318   17.5697 H   0  0  0  0  0  0
  -29.6555  -13.3596   17.6594 H   0  0  0  0  0  0
  -27.8924  -11.2573   18.9411 H   0  0  0  0  0  0
  -27.3843  -12.4758   17.8025 H   0  0  0  0  0  0
  -27.6224  -14.2273   19.4311 H   0  0  0  0  0  0
  -28.7365  -12.2177   21.4493 H   0  0  0  0  0  0
  -28.4346  -13.9182   21.7470 H   0  0  0  0  0  0
  -25.2751   -9.5675   22.4758 H   0  0  0  0  0  0
  -23.9984   -7.4631   22.7479 H   0  0  0  0  0  0
  -21.0830   -8.8757   19.8953 H   0  0  0  0  0  0
  -22.3677  -10.9664   19.6163 H   0  0  0  0  0  0
  -21.1996   -7.6139   23.9704 H   0  0  0  0  0  0
  -21.1480   -6.0520   25.9073 H   0  0  0  0  0  0
  -22.0602   -2.7600   23.2845 H   0  0  0  0  0  0
  -22.4081  -11.9863   22.4795 H   0  0  0  0  0  0
  -21.1096  -13.1248   22.2624 H   0  0  0  0  0  0
  -24.6691  -15.8494   20.5511 H   0  0  0  0  0  0
  -26.2987  -15.6253   20.1593 H   0  0  0  0  0  0
  -26.7217  -32.5414   23.1090 H   0  0  0  0  0  0
  -25.0078  -33.9699   25.0403 H   0  0  0  0  0  0
  -22.7250  -31.3023   21.4006 H   0  0  0  0  0  0
  -23.3745  -35.9614   23.3306 H   0  0  0  0  0  0
  -24.3574  -36.8910   22.2054 H   0  0  0  0  0  0
  -23.7242  -37.6480   23.6670 H   0  0  0  0  0  0
  -26.1187  -31.5281   20.6147 H   0  0  0  0  0  0
  -26.8542  -30.8159   22.0184 H   0  0  0  0  0  0
  -28.1158  -28.9049   21.2286 H   0  0  0  0  0  0
  -25.9180  -25.9438   18.9505 H   0  0  0  0  0  0
  -23.9724  -27.3415   18.9720 H   0  0  0  0  0  0
  -23.7755  -30.6023   19.4058 H   0  0  0  0  0  0
  -22.7668  -29.2584   19.8492 H   0  0  0  0  0  0
  -25.1291  -36.1911   25.0813 H   0  0  0  0  0  0
  -20.9986  -28.3282   24.1376 H   0  0  0  0  0  0
  -20.5667  -26.2307   23.3609 H   0  0  0  0  0  0
  -21.6651  -26.7427   22.1200 H   0  0  0  0  0  0
  -19.6919  -25.6286   21.1236 H   0  0  0  0  0  0
  -19.6697  -27.3174   20.6719 H   0  0  0  0  0  0
  -17.4203  -26.6652   21.4018 H   0  0  0  0  0  0
  -18.0352  -26.0066   22.9011 H   0  0  0  0  0  0
  -19.7953  -30.7268   24.2242 H   0  0  0  0  0  0
  -17.5034  -31.6259   24.5167 H   0  0  0  0  0  0
  -15.5364  -30.2981   23.7668 H   0  0  0  0  0  0
  -15.8678  -28.0825   22.7059 H   0  0  0  0  0  0
  -24.5902  -30.7076   25.7769 H   0  0  0  0  0  0
  -24.8882  -32.2901   26.4845 H   0  0  0  0  0  0
  -25.8016  -30.8933   27.0245 H   0  0  0  0  0  0
  -26.2961  -29.6739   24.1251 H   0  0  0  0  0  0
  -27.4029  -29.7288   25.4776 H   0  0  0  0  0  0
  -27.8846  -30.4279   23.9507 H   0  0  0  0  0  0
  -27.2668  -33.3655   26.2052 H   0  0  0  0  0  0
  -28.3878  -32.6874   25.0345 H   0  0  0  0  0  0
  -28.0706  -31.8488   26.5453 H   0  0  0  0  0  0
  -28.2585  -38.0096   24.7519 H   0  0  0  0  0  0
  -28.1073  -36.2628   24.6284 H   0  0  0  0  0  0
  -27.2293  -37.1441   25.8870 H   0  0  0  0  0  0
  -20.9400  -29.8805   21.6880 H   0  0  0  0  0  0
  -26.0157  -38.2834   24.1434 H   0  0  0  0  0  0
  -27.5500  -16.4703   19.1635 H   0  0  0  0  0  0
  -28.2939  -18.0041   18.6087 H   0  0  0  0  0  0
  -30.4973  -16.9156   18.2664 H   0  0  0  0  0  0
  -29.4231  -15.5152   17.9089 H   0  0  0  0  0  0
  -28.4832  -17.0038   21.2933 H   0  0  0  0  0  0
  -32.4455  -24.2177   21.7513 H   0  0  0  0  0  0
  -33.0537  -22.9761   20.6538 H   0  0  0  0  0  0
  -32.6399  -22.5617   22.3194 H   0  0  0  0  0  0
  -25.8656  -21.4771   18.0589 H   0  0  0  0  0  0
  -27.5389  -20.9511   17.9301 H   0  0  0  0  0  0
  -27.1381  -22.6627   17.7995 H   0  0  0  0  0  0
  -26.3378  -22.6258   20.2132 H   0  0  0  0  0  0
  -26.7385  -20.9545   20.3254 H   0  0  0  0  0  0
  -27.0290  -24.7032   20.6421 H   0  0  0  0  0  0
  -27.6521  -24.7199   19.0021 H   0  0  0  0  0  0
  -30.7941  -18.6341   19.9306 H   0  0  0  0  0  0
  -30.4452  -18.6075   21.6348 H   0  0  0  0  0  0
  -28.1497  -19.5800   20.1896 H   0  0  0  0  0  0
  1 25  1  0  0  0
  1 30  2  0  0  0
  1 85  1  0  0  0
  2  3  1  0  0  0
  2 25  1  0  0  0
  2 87  1  0  0  0
  2 88  1  0  0  0
  3  4  1  0  0  0
  3 89  1  0  0  0
  3 90  1  0  0  0
  4  5  1  0  0  0
  4 91  1  0  0  0
  4 92  1  0  0  0
  5  6  1  0  0  0
  5 26  1  0  0  0
  5 93  1  0  0  0
  6 25  1  0  0  0
  6 94  1  0  0  0
  6 95  1  0  0  0
  7  8  2  0  0  0
  7 26  1  0  0  0
  7 29  1  0  0  0
  8  9  1  0  0  0
  8 22  1  0  0  0
  9 10  1  0  0  0
  9 27  2  0  0  0
 10 11  2  0  0  0
 10 15  1  0  0  0
 11 12  1  0  0  0
 11 96  1  0  0  0
 12 13  2  0  0  0
 12 97  1  0  0  0
 13 14  1  0  0  0
 13 31  1  0  0  0
 14 15  2  0  0  0
 14 98  1  0  0  0
 15 99  1  0  0  0
 16 17  2  0  0  0
 16 21  1  0  0  0
 16 31  1  0  0  0
 17 18  1  0  0  0
 17100  1  0  0  0
 18 19  2  0  0  0
 18101  1  0  0  0
 19 20  1  0  0  0
 19 24  1  0  0  0
 20 21  2  0  0  0
 20102  1  0  0  0
 21 23  1  0  0  0
 22 28  1  0  0  0
 22 32  2  0  0  0
 26 27  1  0  0  0
 28103  1  0  0  0
 28104  1  0  0  0
 29105  1  0  0  0
 29106  1  0  0  0
 33 34  1  0  0  0
 33 66  1  0  0  0
 33 70  2  0  0  0
 34 36  1  0  0  0
 34 59  1  0  0  0
 34107  1  0  0  0
 35 44  2  0  0  0
 35 45  1  0  0  0
 35 68  1  0  0  0
 36 56  1  0  0  0
 36108  1  0  0  0
 37 39  1  0  0  0
 37 47  1  0  0  0
 37 66  1  0  0  0
 37109  1  0  0  0
 38 43  2  0  0  0
 38 46  1  0  0  0
 38 47  1  0  0  0
 39 64  1  0  0  0
 39 67  2  0  0  0
 40 52  1  0  0  0
 40 53  2  0  0  0
 40 58  1  0  0  0
 41110  1  0  0  0
 41111  1  0  0  0
 41112  1  0  0  0
 41 48  1  0  0  0
 42 43  1  0  0  0
 42 66  1  0  0  0
 42113  1  0  0  0
 42114  1  0  0  0
 43 44  1  0  0  0
 44115  1  0  0  0
 45 46  2  0  0  0
 45116  1  0  0  0
 46117  1  0  0  0
 47118  1  0  0  0
 47119  1  0  0  0
 48 56  1  0  0  0
 48 65  1  0  0  0
 48120  1  0  0  0
 49 50  1  0  0  0
 49 53  1  0  0  0
 49 64  1  0  0  0
 49121  1  0  0  0
 50 51  1  0  0  0
 50122  1  0  0  0
 50123  1  0  0  0
 51 52  1  0  0  0
 51124  1  0  0  0
 51125  1  0  0  0
 52126  1  0  0  0
 52127  1  0  0  0
 53 54  1  0  0  0
 54 55  2  0  0  0
 54128  1  0  0  0
 55 57  1  0  0  0
 55129  1  0  0  0
 56 69  2  0  0  0
 57 58  2  0  0  0
 57130  1  0  0  0
 58131  1  0  0  0
 59 60  1  0  0  0
 59 61  1  0  0  0
 59 62  1  0  0  0
 60132  1  0  0  0
 60133  1  0  0  0
 60134  1  0  0  0
 61135  1  0  0  0
 61136  1  0  0  0
 61137  1  0  0  0
 62138  1  0  0  0
 62139  1  0  0  0
 62140  1  0  0  0
 63 65  1  0  0  0
 63141  1  0  0  0
 63142  1  0  0  0
 63143  1  0  0  0
 64144  1  0  0  0
 65145  1  0  0  0
 68 81  1  0  0  0
 71 72  2  0  0  0
 71 73  1  0  0  0
 71 80  1  0  0  0
 72 81  1  0  0  0
 72 83  1  0  0  0
 73 84  2  0  0  0
 73 86  1  0  0  0
 74 78  1  0  0  0
 74 83  2  0  0  0
 74 84  1  0  0  0
 75 76  1  0  0  0
 75 77  1  0  0  0
 75146  1  0  0  0
 75147  1  0  0  0
 76 85  1  0  0  0
 76148  1  0  0  0
 76149  1  0  0  0
 77 82  1  0  0  0
 77 85  1  0  0  0
 77150  1  0  0  0
 78151  1  0  0  0
 78152  1  0  0  0
 78153  1  0  0  0
 79 80  1  0  0  0
 79154  1  0  0  0
 79155  1  0  0  0
 79156  1  0  0  0
 80157  1  0  0  0
 80158  1  0  0  0
 81159  1  0  0  0
 81160  1  0  0  0
 82 86  1  0  0  0
 82161  1  0  0  0
 82162  1  0  0  0
 86163  1  0  0  0
M  ISO  4   1 100  68 101  81 101  85 100
M  END
> <chiral flag>
0

> <version>
0

> <s_m_source_file>
/data/baiqing/PycharmProjects/Reinvent-master-3.2/result/LINK_invent/BTK/process_docking_weight1_custom_sum_contain_oxygen_bond_distance_aromatic_linkinvent_7_9_3/rearranged_h_0190.sdf

> <i_m_source_file_index>
64

> <r_mmod_Potential_Energy-OPLS-2005>
-138.416259765625

> <r_mmod_Stretch_Energy-OPLS-2005>
117.017204284668

> <r_mmod_Bend_Energy-OPLS-2005>
224.605010986328

> <r_mmod_Torsional_Energy-OPLS-2005>
307.834777832031

> <r_mmod_Improper_Torsional_Energy-OPLS-2005>
23.9096946716309

> <r_mmod_Van_der_Waal_Energy-OPLS-2005>
144.31005859375

> <r_mmod_Electrostatic_Energy-OPLS-2005>
-820.674377441406

> <r_mmod_Solvation_Energy-OPLS-2005>
-236.984222412109

> <b_mmod_Minimization_Converged-OPLS-2005>
0

> <r_mmod_RMS_Derivative-OPLS-2005>
1.03394067287445

$$$$
64
                    3D
 Structure written by MMmdl.
161171  0  0  1  0            999 V2000
  -30.6676  -14.8176   20.4560 C   0  0  0  0  0  0
  -30.4141  -12.5148   19.4871 C   0  0  0  0  0  0
  -29.5041  -12.5102   18.2428 C   0  0  0  0  0  0
  -28.0375  -12.3081   18.6619 C   0  0  0  0  0  0
  -27.6259  -13.2355   19.8339 C   0  0  2  0  0  0
  -28.6725  -13.2642   20.9722 C   0  0  0  0  0  0
  -25.2432  -13.8180   20.5681 C   0  0  0  0  0  0
  -24.1756  -13.0419   20.9237 C   0  0  0  0  0  0
  -24.6373  -11.6904   20.8770 C   0  0  0  0  0  0
  -23.9065  -10.4276   21.0417 C   0  0  0  0  0  0
  -24.3615   -9.4194   21.9193 C   0  0  0  0  0  0
  -23.6296   -8.2228   22.0753 C   0  0  0  0  0  0
  -22.4280   -8.0268   21.3538 C   0  0  0  0  0  0
  -21.9916   -9.0244   20.4644 C   0  0  0  0  0  0
  -22.7243  -10.2124   20.3059 C   0  0  0  0  0  0
  -21.6849   -6.0730   22.5284 C   0  0  0  0  0  0
  -21.4014   -6.5636   23.8217 C   0  0  0  0  0  0
  -21.3663   -5.6789   24.9180 C   0  0  0  0  0  0
  -21.6050   -4.3053   24.7227 C   0  0  0  0  0  0
  -21.8816   -3.8141   23.4345 C   0  0  0  0  0  0
  -21.9188   -4.6956   22.3404 C   0  0  0  0  0  0
  -22.7787  -13.5209   21.1889 C   0  0  0  0  0  0
  -22.1658   -4.2140   21.0983 F   0  0  0  0  0  0
  -21.5631   -3.4537   25.7738 F   0  0  0  0  0  0
  -29.9595  -13.6272   20.3683 N   0  0  0  0  0  0
  -26.2858  -12.9400   20.3238 N   0  0  0  0  0  0
  -25.9303  -11.6543   20.5769 N   0  0  0  0  0  0
  -22.0422  -12.8207   22.0442 N   0  0  0  0  0  0
  -25.4038  -15.1904   20.4034 N   0  0  0  0  0  0
  -31.8743  -14.7627   20.1987 O   0  0  0  0  0  0
  -21.6636   -6.8870   21.4242 O   0  0  0  0  0  0
  -22.3482  -14.5520   20.6736 O   0  0  0  0  0  0
  -24.6345  -31.8527   23.1957 C   0  0  0  0  0  0
  -25.9153  -32.4741   23.8324 C   0  0  1  0  0  0
  -27.2149  -27.2269   20.1511 C   0  0  0  0  0  0
  -25.5932  -33.8545   24.2247 N   0  0  0  0  0  0
  -23.4343  -30.4748   21.5386 C   0  0  2  0  0  0
  -24.8851  -28.9159   20.1110 C   0  0  0  0  0  0
  -22.7527  -29.4588   22.4883 C   0  0  0  0  0  0
  -18.0296  -28.1395   22.8480 C   0  0  0  0  0  0
  -24.1491  -36.7286   23.2640 C   0  0  0  0  0  0
  -25.9831  -30.7564   21.3807 C   0  0  0  0  0  0
  -26.0582  -29.3746   20.7262 C   0  0  0  0  0  0
  -27.2303  -28.5444   20.7320 C   0  0  0  0  0  0
  -26.0261  -26.8500   19.4926 C   0  0  0  0  0  0
  -24.8763  -27.6633   19.4795 C   0  0  0  0  0  0
  -23.6578  -29.8079   20.1558 C   0  0  0  0  0  0
  -25.4116  -36.3066   24.0328 C   0  0  1  0  0  0
  -20.5904  -28.3714   23.1252 C   0  0  2  0  0  0
  -20.6782  -26.9423   22.5405 C   0  0  0  0  0  0
  -19.5756  -26.6386   21.5210 C   0  0  0  0  0  0
  -18.1940  -26.7933   22.1623 C   0  0  0  0  0  0
  -19.1550  -28.8867   23.2862 C   0  0  0  0  0  0
  -18.9467  -30.1464   23.8889 C   0  0  0  0  0  0
  -17.6465  -30.6590   24.0559 C   0  0  0  0  0  0
  -25.9060  -34.9433   23.5091 C   0  0  0  0  0  0
  -16.5359  -29.9088   23.6326 C   0  0  0  0  0  0
  -16.7280  -28.6506   23.0349 C   0  0  0  0  0  0
  -26.4505  -31.6566   25.0724 C   0  0  0  0  0  0
  -25.3714  -31.3722   26.1434 C   0  0  0  0  0  0
  -27.0347  -30.2974   24.6233 C   0  0  0  0  0  0
  -27.6056  -32.4305   25.7504 C   0  0  0  0  0  0
  -27.5581  -37.1797   24.8460 C   0  0  0  0  0  0
  -21.4227  -29.3052   22.3631 N   0  0  0  0  0  0
  -26.4288  -37.3769   23.9410 N   0  0  0  0  0  0
  -24.7032  -31.0467   22.0946 N   0  0  0  0  0  0
  -23.4212  -28.8128   23.2993 O   0  0  0  0  0  0
  -28.2622  -26.2687   20.1909 O   0  0  0  0  0  0
  -26.5639  -34.8911   22.4668 O   0  0  0  0  0  0
  -23.5483  -32.1360   23.7230 O   0  0  0  0  0  0
  -27.9835  -22.6684   19.4767 C   0  0  0  0  0  0
  -28.2581  -21.2541   19.4052 C   0  0  0  0  0  0
  -28.5092  -23.4785   20.5201 C   0  0  0  0  0  0
  -29.0662  -20.6228   20.4130 C   0  0  0  0  0  0
  -28.5261  -19.7090   17.2906 C   0  0  0  0  0  0
  -27.8423  -20.9746   16.8314 C   0  0  0  0  0  0
  -30.4578  -18.6766   21.3368 C   0  0  0  0  0  0
  -28.3524  -18.1387   20.4139 C   0  0  0  0  0  0
  -31.0278  -17.2458   20.9562 C   0  0  0  0  0  0
  -28.7899  -16.6072   20.1982 C   0  0  0  0  0  0
  -27.6653  -20.4934   18.2548 C   0  0  0  0  0  0
  -27.9445  -24.9542   20.8818 C   0  0  0  0  0  0
  -29.2987  -22.8143   21.4317 N   0  0  0  0  0  0
  -29.5728  -21.4725   21.3699 N   0  0  0  0  0  0
  -29.4016  -19.1864   20.4501 N   0  0  0  0  0  0
  -30.0974  -16.0911   20.7088 N   0  0  0  0  0  0
  -31.4561  -12.6152   19.1785 H   0  0  0  0  0  0
  -30.3560  -11.5598   20.0123 H   0  0  0  0  0  0
  -29.8100  -11.7248   17.5509 H   0  0  0  0  0  0
  -29.6092  -13.4535   17.7040 H   0  0  0  0  0  0
  -27.9202  -11.2651   18.9587 H   0  0  0  0  0  0
  -27.3748  -12.4561   17.8081 H   0  0  0  0  0  0
  -27.5848  -14.2276   19.3902 H   0  0  0  0  0  0
  -28.7371  -12.2964   21.4719 H   0  0  0  0  0  0
  -28.3933  -13.9868   21.7394 H   0  0  0  0  0  0
  -25.2745   -9.5683   22.4787 H   0  0  0  0  0  0
  -23.9992   -7.4624   22.7487 H   0  0  0  0  0  0
  -21.0840   -8.8780   19.8962 H   0  0  0  0  0  0
  -22.3698  -10.9672   19.6180 H   0  0  0  0  0  0
  -21.2012   -7.6146   23.9721 H   0  0  0  0  0  0
  -21.1495   -6.0516   25.9086 H   0  0  0  0  0  0
  -22.0592   -2.7602   23.2844 H   0  0  0  0  0  0
  -22.4014  -11.9857   22.4828 H   0  0  0  0  0  0
  -21.1048  -13.1256   22.2653 H   0  0  0  0  0  0
  -24.6268  -15.8330   20.5105 H   0  0  0  0  0  0
  -26.2335  -15.6301   20.0314 H   0  0  0  0  0  0
  -26.7221  -32.5390   23.1065 H   0  0  0  0  0  0
  -25.0038  -33.9675   25.0363 H   0  0  0  0  0  0
  -22.7319  -31.2974   21.3894 H   0  0  0  0  0  0
  -23.3753  -35.9617   23.3287 H   0  0  0  0  0  0
  -24.3580  -36.8930   22.2058 H   0  0  0  0  0  0
  -23.7241  -37.6481   23.6677 H   0  0  0  0  0  0
  -26.1230  -31.5130   20.6078 H   0  0  0  0  0  0
  -26.8600  -30.8102   22.0146 H   0  0  0  0  0  0
  -28.1264  -28.8890   21.2290 H   0  0  0  0  0  0
  -25.9723  -25.8867   19.0052 H   0  0  0  0  0  0
  -23.9813  -27.3087   18.9868 H   0  0  0  0  0  0
  -23.7896  -30.5846   19.4014 H   0  0  0  0  0  0
  -22.7752  -29.2460   19.8451 H   0  0  0  0  0  0
  -25.1295  -36.1909   25.0820 H   0  0  0  0  0  0
  -20.9998  -28.3300   24.1373 H   0  0  0  0  0  0
  -20.5677  -26.2328   23.3619 H   0  0  0  0  0  0
  -21.6650  -26.7441   22.1201 H   0  0  0  0  0  0
  -19.6919  -25.6294   21.1249 H   0  0  0  0  0  0
  -19.6692  -27.3186   20.6732 H   0  0  0  0  0  0
  -17.4207  -26.6673   21.4029 H   0  0  0  0  0  0
  -18.0343  -26.0082   22.9025 H   0  0  0  0  0  0
  -19.7943  -30.7279   24.2265 H   0  0  0  0  0  0
  -17.5019  -31.6269   24.5166 H   0  0  0  0  0  0
  -15.5358  -30.2985   23.7656 H   0  0  0  0  0  0
  -15.8681  -28.0821   22.7066 H   0  0  0  0  0  0
  -24.5896  -30.7067   25.7750 H   0  0  0  0  0  0
  -24.8894  -32.2888   26.4842 H   0  0  0  0  0  0
  -25.8018  -30.8901   27.0222 H   0  0  0  0  0  0
  -26.2933  -29.6714   24.1253 H   0  0  0  0  0  0
  -27.4000  -29.7245   25.4767 H   0  0  0  0  0  0
  -27.8828  -30.4222   23.9496 H   0  0  0  0  0  0
  -27.2669  -33.3612   26.2063 H   0  0  0  0  0  0
  -28.3883  -32.6849   25.0343 H   0  0  0  0  0  0
  -28.0706  -31.8435   26.5434 H   0  0  0  0  0  0
  -28.2581  -38.0112   24.7521 H   0  0  0  0  0  0
  -28.1095  -36.2642   24.6261 H   0  0  0  0  0  0
  -27.2303  -37.1416   25.8864 H   0  0  0  0  0  0
  -20.9422  -29.8776   21.6831 H   0  0  0  0  0  0
  -26.0164  -38.2842   24.1413 H   0  0  0  0  0  0
  -27.3181  -23.1210   18.7564 H   0  0  0  0  0  0
  -29.6046  -19.7399   17.4347 H   0  0  0  0  0  0
  -28.1319  -18.7659   16.9159 H   0  0  0  0  0  0
  -27.0024  -20.8616   16.1484 H   0  0  0  0  0  0
  -28.4734  -21.8438   16.6576 H   0  0  0  0  0  0
  -31.2851  -19.3877   21.3515 H   0  0  0  0  0  0
  -30.0689  -18.6522   22.3565 H   0  0  0  0  0  0
  -27.8300  -18.2011   21.3702 H   0  0  0  0  0  0
  -27.5919  -18.3799   19.6752 H   0  0  0  0  0  0
  -31.7289  -16.9529   21.7404 H   0  0  0  0  0  0
  -31.6345  -17.3683   20.0572 H   0  0  0  0  0  0
  -28.7785  -16.4051   19.1257 H   0  0  0  0  0  0
  -28.0029  -15.9985   20.6327 H   0  0  0  0  0  0
  -26.6886  -20.0917   18.5190 H   0  0  0  0  0  0
  -28.2218  -25.1244   21.9225 H   0  0  0  0  0  0
  -26.8629  -24.8264   20.9262 H   0  0  0  0  0  0
  1 25  1  0  0  0
  1 30  2  0  0  0
  1 86  1  0  0  0
  2  3  1  0  0  0
  2 25  1  0  0  0
  2 87  1  0  0  0
  2 88  1  0  0  0
  3  4  1  0  0  0
  3 89  1  0  0  0
  3 90  1  0  0  0
  4  5  1  0  0  0
  4 91  1  0  0  0
  4 92  1  0  0  0
  5  6  1  0  0  0
  5 26  1  0  0  0
  5 93  1  0  0  0
  6 25  1  0  0  0
  6 94  1  0  0  0
  6 95  1  0  0  0
  7  8  2  0  0  0
  7 26  1  0  0  0
  7 29  1  0  0  0
  8  9  1  0  0  0
  8 22  1  0  0  0
  9 10  1  0  0  0
  9 27  2  0  0  0
 10 11  2  0  0  0
 10 15  1  0  0  0
 11 12  1  0  0  0
 11 96  1  0  0  0
 12 13  2  0  0  0
 12 97  1  0  0  0
 13 14  1  0  0  0
 13 31  1  0  0  0
 14 15  2  0  0  0
 14 98  1  0  0  0
 15 99  1  0  0  0
 16 17  2  0  0  0
 16 21  1  0  0  0
 16 31  1  0  0  0
 17 18  1  0  0  0
 17100  1  0  0  0
 18 19  2  0  0  0
 18101  1  0  0  0
 19 20  1  0  0  0
 19 24  1  0  0  0
 20 21  2  0  0  0
 20102  1  0  0  0
 21 23  1  0  0  0
 22 28  1  0  0  0
 22 32  2  0  0  0
 26 27  1  0  0  0
 28103  1  0  0  0
 28104  1  0  0  0
 29105  1  0  0  0
 29106  1  0  0  0
 33 34  1  0  0  0
 33 66  1  0  0  0
 33 70  2  0  0  0
 34 36  1  0  0  0
 34 59  1  0  0  0
 34107  1  0  0  0
 35 44  2  0  0  0
 35 45  1  0  0  0
 35 68  1  0  0  0
 36 56  1  0  0  0
 36108  1  0  0  0
 37 39  1  0  0  0
 37 47  1  0  0  0
 37 66  1  0  0  0
 37109  1  0  0  0
 38 43  2  0  0  0
 38 46  1  0  0  0
 38 47  1  0  0  0
 39 64  1  0  0  0
 39 67  2  0  0  0
 40 52  1  0  0  0
 40 53  2  0  0  0
 40 58  1  0  0  0
 41110  1  0  0  0
 41111  1  0  0  0
 41112  1  0  0  0
 41 48  1  0  0  0
 42 43  1  0  0  0
 42 66  1  0  0  0
 42113  1  0  0  0
 42114  1  0  0  0
 43 44  1  0  0  0
 44115  1  0  0  0
 45 46  2  0  0  0
 45116  1  0  0  0
 46117  1  0  0  0
 47118  1  0  0  0
 47119  1  0  0  0
 48 56  1  0  0  0
 48 65  1  0  0  0
 48120  1  0  0  0
 49 50  1  0  0  0
 49 53  1  0  0  0
 49 64  1  0  0  0
 49121  1  0  0  0
 50 51  1  0  0  0
 50122  1  0  0  0
 50123  1  0  0  0
 51 52  1  0  0  0
 51124  1  0  0  0
 51125  1  0  0  0
 52126  1  0  0  0
 52127  1  0  0  0
 53 54  1  0  0  0
 54 55  2  0  0  0
 54128  1  0  0  0
 55 57  1  0  0  0
 55129  1  0  0  0
 56 69  2  0  0  0
 57 58  2  0  0  0
 57130  1  0  0  0
 58131  1  0  0  0
 59 60  1  0  0  0
 59 61  1  0  0  0
 59 62  1  0  0  0
 60132  1  0  0  0
 60133  1  0  0  0
 60134  1  0  0  0
 61135  1  0  0  0
 61136  1  0  0  0
 61137  1  0  0  0
 62138  1  0  0  0
 62139  1  0  0  0
 62140  1  0  0  0
 63 65  1  0  0  0
 63141  1  0  0  0
 63142  1  0  0  0
 63143  1  0  0  0
 64144  1  0  0  0
 65145  1  0  0  0
 68 82  1  0  0  0
 71 72  2  0  0  0
 71 73  1  0  0  0
 71146  1  0  0  0
 72 74  1  0  0  0
 72 81  1  0  0  0
 73 82  1  0  0  0
 73 83  2  0  0  0
 74 84  2  0  0  0
 74 85  1  0  0  0
 75 76  1  0  0  0
 75 81  1  0  0  0
 75147  1  0  0  0
 75148  1  0  0  0
 76 81  1  0  0  0
 76149  1  0  0  0
 76150  1  0  0  0
 77 79  1  0  0  0
 77 85  1  0  0  0
 77151  1  0  0  0
 77152  1  0  0  0
 78 80  1  0  0  0
 78 85  1  0  0  0
 78153  1  0  0  0
 78154  1  0  0  0
 79 86  1  0  0  0
 79155  1  0  0  0
 79156  1  0  0  0
 80 86  1  0  0  0
 80157  1  0  0  0
 80158  1  0  0  0
 81159  1  0  0  0
 82160  1  0  0  0
 82161  1  0  0  0
 83 84  1  0  0  0
M  ISO  4   1 100  68 101  82 101  86 100
M  END
> <chiral flag>
0

> <version>
0

> <s_m_source_file>
/data/baiqing/PycharmProjects/Reinvent-master-3.2/result/LINK_invent/BTK/process_docking_weight1_custom_sum_contain_oxygen_bond_distance_aromatic_linkinvent_7_9_3/rearranged_h_0190.sdf

> <i_m_source_file_index>
65

> <r_mmod_Potential_Energy-OPLS-2005>
540.605407714844

> <r_mmod_Stretch_Energy-OPLS-2005>
147.045593261719

> <r_mmod_Bend_Energy-OPLS-2005>
240.80989074707

> <r_mmod_Torsional_Energy-OPLS-2005>
391.062377929688

> <r_mmod_Improper_Torsional_Energy-OPLS-2005>
10.3111400604248

> <r_mmod_Van_der_Waal_Energy-OPLS-2005>
143.801223754883

> <r_mmod_Electrostatic_Energy-OPLS-2005>
-276.885467529297

> <r_mmod_Solvation_Energy-OPLS-2005>
-238.577499389648

> <b_mmod_Minimization_Converged-OPLS-2005>
0

> <r_mmod_RMS_Derivative-OPLS-2005>
1.22629082202911

$$$$
65
                    3D
 Structure written by MMmdl.
154163  0  0  1  0            999 V2000
  -30.4618  -15.3167   20.3869 C   0  0  0  0  0  0
  -30.4331  -12.8482   19.5386 C   0  0  0  0  0  0
  -29.5399  -12.6011   18.2967 C   0  0  0  0  0  0
  -28.0899  -12.3160   18.7208 C   0  0  0  0  0  0
  -27.6125  -13.2870   19.8303 C   0  0  2  0  0  0
  -28.6464  -13.4791   20.9638 C   0  0  0  0  0  0
  -25.2349  -13.8252   20.5716 C   0  0  0  0  0  0
  -24.1729  -13.0428   20.9264 C   0  0  0  0  0  0
  -24.6415  -11.6935   20.8769 C   0  0  0  0  0  0
  -23.9108  -10.4295   21.0403 C   0  0  0  0  0  0
  -24.3642   -9.4206   21.9181 C   0  0  0  0  0  0
  -23.6309   -8.2244   22.0754 C   0  0  0  0  0  0
  -22.4291   -8.0276   21.3538 C   0  0  0  0  0  0
  -21.9936   -9.0258   20.4647 C   0  0  0  0  0  0
  -22.7274  -10.2134   20.3054 C   0  0  0  0  0  0
  -21.6861   -6.0736   22.5276 C   0  0  0  0  0  0
  -21.4022   -6.5635   23.8211 C   0  0  0  0  0  0
  -21.3667   -5.6787   24.9169 C   0  0  0  0  0  0
  -21.6048   -4.3050   24.7223 C   0  0  0  0  0  0
  -21.8813   -3.8142   23.4340 C   0  0  0  0  0  0
  -21.9191   -4.6961   22.3398 C   0  0  0  0  0  0
  -22.7746  -13.5180   21.1891 C   0  0  0  0  0  0
  -22.1658   -4.2146   21.0977 F   0  0  0  0  0  0
  -21.5627   -3.4533   25.7735 F   0  0  0  0  0  0
  -29.8692  -14.0108   20.3332 N   0  0  0  0  0  0
  -26.2823  -12.9569   20.3256 N   0  0  0  0  0  0
  -25.9364  -11.6663   20.5755 N   0  0  0  0  0  0
  -22.0395  -12.8191   22.0456 N   0  0  0  0  0  0
  -25.3875  -15.1976   20.4031 N   0  0  0  0  0  0
  -31.6738  -15.2648   20.1199 O   0  0  0  0  0  0
  -21.6644   -6.8882   21.4240 O   0  0  0  0  0  0
  -22.3437  -14.5479   20.6717 O   0  0  0  0  0  0
  -24.6634  -31.8213   23.1673 C   0  0  0  0  0  0
  -25.9301  -32.4580   23.8152 C   0  0  1  0  0  0
  -27.2265  -26.9058   20.1963 C   0  0  0  0  0  0
  -25.5958  -33.8397   24.2059 N   0  0  0  0  0  0
  -23.4806  -30.4295   21.5169 C   0  0  2  0  0  0
  -24.9374  -28.8104   20.1118 C   0  0  0  0  0  0
  -22.7674  -29.4422   22.4775 C   0  0  0  0  0  0
  -18.0318  -28.1406   22.8469 C   0  0  0  0  0  0
  -24.1495  -36.7212   23.2650 C   0  0  0  0  0  0
  -26.0493  -30.6217   21.4006 C   0  0  0  0  0  0
  -26.1189  -29.2075   20.7490 C   0  0  0  0  0  0
  -27.2549  -28.2763   20.7670 C   0  0  0  0  0  0
  -26.0185  -26.6686   19.5007 C   0  0  0  0  0  0
  -24.9145  -27.5627   19.4656 C   0  0  0  0  0  0
  -23.7224  -29.7390   20.1450 C   0  0  0  0  0  0
  -25.4138  -36.2970   24.0297 C   0  0  1  0  0  0
  -20.5946  -28.3750   23.1190 C   0  0  2  0  0  0
  -20.6793  -26.9430   22.5407 C   0  0  0  0  0  0
  -19.5768  -26.6372   21.5218 C   0  0  0  0  0  0
  -18.1951  -26.7937   22.1628 C   0  0  0  0  0  0
  -19.1581  -28.8900   23.2812 C   0  0  0  0  0  0
  -18.9489  -30.1488   23.8848 C   0  0  0  0  0  0
  -17.6484  -30.6598   24.0551 C   0  0  0  0  0  0
  -25.9098  -34.9346   23.5007 C   0  0  0  0  0  0
  -16.5373  -29.9086   23.6339 C   0  0  0  0  0  0
  -16.7301  -28.6504   23.0364 C   0  0  0  0  0  0
  -26.4548  -31.6532   25.0689 C   0  0  0  0  0  0
  -25.3664  -31.3791   26.1338 C   0  0  0  0  0  0
  -27.0442  -30.2896   24.6430 C   0  0  0  0  0  0
  -27.6039  -32.4338   25.7497 C   0  0  0  0  0  0
  -27.5567  -37.1774   24.8469 C   0  0  0  0  0  0
  -21.4344  -29.3035   22.3534 N   0  0  0  0  0  0
  -26.4289  -37.3699   23.9393 N   0  0  0  0  0  0
  -24.7524  -30.9854   22.0820 N   0  0  0  0  0  0
  -23.4213  -28.8002   23.3025 O   0  0  0  0  0  0
  -28.2294  -25.7968   20.3140 O   0  0  0  0  0  0
  -26.5722  -34.8887   22.4611 O   0  0  0  0  0  0
  -23.5699  -32.1186   23.6757 O   0  0  0  0  0  0
  -28.0868  -18.5805   20.9264 C   0  0  0  0  0  0
  -30.3810  -22.6039   20.5560 C   0  0  0  0  0  0
  -28.5597  -17.0584   21.1980 C   0  0  0  0  0  0
  -30.1389  -18.1754   19.9797 C   0  0  0  0  0  0
  -30.2385  -21.6080   19.3934 C   0  0  0  0  0  0
  -29.2875  -19.5323   20.6414 C   0  0  1  0  0  0
  -28.8607  -22.6348   20.6409 C   0  0  1  0  0  0
  -28.0858  -24.1631   20.0126 C   0  0  0  0  0  0
  -29.7782  -16.6604   20.4411 N   0  0  0  0  0  0
  -29.0117  -21.0733   19.9888 N   0  3  1  0  0  0
  -31.4545  -13.0398   19.2071 H   0  0  0  0  0  0
  -30.4981  -11.9482   20.1522 H   0  0  0  0  0  0
  -29.9327  -11.7744   17.7031 H   0  0  0  0  0  0
  -29.5658  -13.4811   17.6524 H   0  0  0  0  0  0
  -28.0501  -11.2909   19.0895 H   0  0  0  0  0  0
  -27.4248  -12.3584   17.8577 H   0  0  0  0  0  0
  -27.5227  -14.2536   19.3335 H   0  0  0  0  0  0
  -28.8313  -12.5466   21.5000 H   0  0  0  0  0  0
  -28.2772  -14.1875   21.7053 H   0  0  0  0  0  0
  -25.2777   -9.5684   22.4769 H   0  0  0  0  0  0
  -24.0004   -7.4645   22.7483 H   0  0  0  0  0  0
  -21.0861   -8.8787   19.8965 H   0  0  0  0  0  0
  -22.3722  -10.9673   19.6170 H   0  0  0  0  0  0
  -21.2019   -7.6146   23.9722 H   0  0  0  0  0  0
  -21.1500   -6.0511   25.9077 H   0  0  0  0  0  0
  -22.0588   -2.7604   23.2840 H   0  0  0  0  0  0
  -22.4016  -11.9872   22.4877 H   0  0  0  0  0  0
  -21.1004  -13.1223   22.2634 H   0  0  0  0  0  0
  -24.6022  -15.8337   20.4843 H   0  0  0  0  0  0
  -26.2137  -15.6344   20.0167 H   0  0  0  0  0  0
  -26.7370  -32.5117   23.0870 H   0  0  0  0  0  0
  -25.0020  -33.9468   25.0153 H   0  0  0  0  0  0
  -22.7944  -31.2604   21.3424 H   0  0  0  0  0  0
  -23.3756  -35.9546   23.3314 H   0  0  0  0  0  0
  -24.3558  -36.8857   22.2062 H   0  0  0  0  0  0
  -23.7262  -37.6406   23.6706 H   0  0  0  0  0  0
  -26.2266  -31.3590   20.6163 H   0  0  0  0  0  0
  -26.9101  -30.6860   22.0540 H   0  0  0  0  0  0
  -28.1455  -28.5779   21.3005 H   0  0  0  0  0  0
  -25.8907  -25.7154   19.0083 H   0  0  0  0  0  0
  -24.0177  -27.2539   18.9460 H   0  0  0  0  0  0
  -23.8765  -30.5039   19.3832 H   0  0  0  0  0  0
  -22.8325  -29.1909   19.8303 H   0  0  0  0  0  0
  -25.1345  -36.1776   25.0790 H   0  0  0  0  0  0
  -21.0030  -28.3357   24.1315 H   0  0  0  0  0  0
  -20.5671  -26.2370   23.3650 H   0  0  0  0  0  0
  -21.6656  -26.7404   22.1216 H   0  0  0  0  0  0
  -19.6929  -25.6269   21.1280 H   0  0  0  0  0  0
  -19.6708  -27.3152   20.6725 H   0  0  0  0  0  0
  -17.4222  -26.6674   21.4032 H   0  0  0  0  0  0
  -18.0347  -26.0092   22.9036 H   0  0  0  0  0  0
  -19.7964  -30.7310   24.2206 H   0  0  0  0  0  0
  -17.5035  -31.6274   24.5157 H   0  0  0  0  0  0
  -15.5371  -30.2971   23.7689 H   0  0  0  0  0  0
  -15.8702  -28.0802   22.7116 H   0  0  0  0  0  0
  -24.5851  -30.7146   25.7634 H   0  0  0  0  0  0
  -24.8846  -32.2997   26.4641 H   0  0  0  0  0  0
  -25.7873  -30.9024   27.0199 H   0  0  0  0  0  0
  -26.3107  -29.6568   24.1424 H   0  0  0  0  0  0
  -27.3953  -29.7268   25.5089 H   0  0  0  0  0  0
  -27.9057  -30.4070   23.9855 H   0  0  0  0  0  0
  -27.2610  -33.3683   26.1951 H   0  0  0  0  0  0
  -28.3918  -32.6828   25.0377 H   0  0  0  0  0  0
  -28.0632  -31.8543   26.5516 H   0  0  0  0  0  0
  -28.2597  -38.0055   24.7469 H   0  0  0  0  0  0
  -28.1051  -36.2579   24.6368 H   0  0  0  0  0  0
  -27.2269  -37.1498   25.8869 H   0  0  0  0  0  0
  -20.9607  -29.8712   21.6651 H   0  0  0  0  0  0
  -26.0144  -38.2771   24.1357 H   0  0  0  0  0  0
  -27.4823  -18.9535   21.7541 H   0  0  0  0  0  0
  -27.4350  -18.5833   20.0516 H   0  0  0  0  0  0
  -30.8430  -23.5550   20.2894 H   0  0  0  0  0  0
  -30.8515  -22.1714   21.4412 H   0  0  0  0  0  0
  -27.7469  -16.3695   20.9808 H   0  0  0  0  0  0
  -28.7887  -16.9389   22.2584 H   0  0  0  0  0  0
  -31.2090  -18.3265   20.1249 H   0  0  0  0  0  0
  -29.9942  -18.1939   18.8987 H   0  0  0  0  0  0
  -31.0621  -20.8985   19.3092 H   0  0  0  0  0  0
  -30.0471  -22.1007   18.4380 H   0  0  0  0  0  0
  -29.7699  -19.7384   21.5976 H   0  0  0  0  0  0
  -28.5643  -22.4968   21.6807 H   0  0  0  0  0  0
  -27.0162  -23.9951   20.1350 H   0  0  0  0  0  0
  -28.2208  -24.1288   18.9317 H   0  0  0  0  0  0
  -28.3221  -20.9663   19.2611 H   0  0  0  0  0  0
  1 25  1  0  0  0
  1 30  2  0  0  0
  1 79  1  0  0  0
  2  3  1  0  0  0
  2 25  1  0  0  0
  2 81  1  0  0  0
  2 82  1  0  0  0
  3  4  1  0  0  0
  3 83  1  0  0  0
  3 84  1  0  0  0
  4  5  1  0  0  0
  4 85  1  0  0  0
  4 86  1  0  0  0
  5  6  1  0  0  0
  5 26  1  0  0  0
  5 87  1  0  0  0
  6 25  1  0  0  0
  6 88  1  0  0  0
  6 89  1  0  0  0
  7  8  2  0  0  0
  7 26  1  0  0  0
  7 29  1  0  0  0
  8  9  1  0  0  0
  8 22  1  0  0  0
  9 10  1  0  0  0
  9 27  2  0  0  0
 10 11  2  0  0  0
 10 15  1  0  0  0
 11 12  1  0  0  0
 11 90  1  0  0  0
 12 13  2  0  0  0
 12 91  1  0  0  0
 13 14  1  0  0  0
 13 31  1  0  0  0
 14 15  2  0  0  0
 14 92  1  0  0  0
 15 93  1  0  0  0
 16 17  2  0  0  0
 16 21  1  0  0  0
 16 31  1  0  0  0
 17 18  1  0  0  0
 17 94  1  0  0  0
 18 19  2  0  0  0
 18 95  1  0  0  0
 19 20  1  0  0  0
 19 24  1  0  0  0
 20 21  2  0  0  0
 20 96  1  0  0  0
 21 23  1  0  0  0
 22 28  1  0  0  0
 22 32  2  0  0  0
 26 27  1  0  0  0
 28 97  1  0  0  0
 28 98  1  0  0  0
 29 99  1  0  0  0
 29100  1  0  0  0
 33 34  1  0  0  0
 33 66  1  0  0  0
 33 70  2  0  0  0
 34 36  1  0  0  0
 34 59  1  0  0  0
 34101  1  0  0  0
 35 44  2  0  0  0
 35 45  1  0  0  0
 35 68  1  0  0  0
 36 56  1  0  0  0
 36102  1  0  0  0
 37 39  1  0  0  0
 37 47  1  0  0  0
 37 66  1  0  0  0
 37103  1  0  0  0
 38 43  2  0  0  0
 38 46  1  0  0  0
 38 47  1  0  0  0
 39 64  1  0  0  0
 39 67  2  0  0  0
 40 52  1  0  0  0
 40 53  2  0  0  0
 40 58  1  0  0  0
 41104  1  0  0  0
 41105  1  0  0  0
 41106  1  0  0  0
 41 48  1  0  0  0
 42 43  1  0  0  0
 42 66  1  0  0  0
 42107  1  0  0  0
 42108  1  0  0  0
 43 44  1  0  0  0
 44109  1  0  0  0
 45 46  2  0  0  0
 45110  1  0  0  0
 46111  1  0  0  0
 47112  1  0  0  0
 47113  1  0  0  0
 48 56  1  0  0  0
 48 65  1  0  0  0
 48114  1  0  0  0
 49 50  1  0  0  0
 49 53  1  0  0  0
 49 64  1  0  0  0
 49115  1  0  0  0
 50 51  1  0  0  0
 50116  1  0  0  0
 50117  1  0  0  0
 51 52  1  0  0  0
 51118  1  0  0  0
 51119  1  0  0  0
 52120  1  0  0  0
 52121  1  0  0  0
 53 54  1  0  0  0
 54 55  2  0  0  0
 54122  1  0  0  0
 55 57  1  0  0  0
 55123  1  0  0  0
 56 69  2  0  0  0
 57 58  2  0  0  0
 57124  1  0  0  0
 58125  1  0  0  0
 59 60  1  0  0  0
 59 61  1  0  0  0
 59 62  1  0  0  0
 60126  1  0  0  0
 60127  1  0  0  0
 60128  1  0  0  0
 61129  1  0  0  0
 61130  1  0  0  0
 61131  1  0  0  0
 62132  1  0  0  0
 62133  1  0  0  0
 62134  1  0  0  0
 63 65  1  0  0  0
 63135  1  0  0  0
 63136  1  0  0  0
 63137  1  0  0  0
 64138  1  0  0  0
 65139  1  0  0  0
 68 78  1  0  0  0
 71 73  1  0  0  0
 71140  1  0  0  0
 71141  1  0  0  0
 71 76  1  0  0  0
 72 75  1  0  0  0
 72 77  1  0  0  0
 72142  1  0  0  0
 72143  1  0  0  0
 73 79  1  0  0  0
 73144  1  0  0  0
 73145  1  0  0  0
 74 76  1  0  0  0
 74 79  1  0  0  0
 74146  1  0  0  0
 74147  1  0  0  0
 75148  1  0  0  0
 75149  1  0  0  0
 75 80  1  0  0  0
 76 80  1  0  0  0
 76150  1  0  0  0
 77 78  1  0  0  0
 77 80  1  0  0  0
 77151  1  0  0  0
 78152  1  0  0  0
 78153  1  0  0  0
 80154  1  0  0  0
M  CHG  1  80   1
M  ISO  4   1 100  68 101  78 101  79 100
M  END
> <chiral flag>
0

> <version>
0

> <s_m_source_file>
/data/baiqing/PycharmProjects/Reinvent-master-3.2/result/LINK_invent/BTK/process_docking_weight1_custom_sum_contain_oxygen_bond_distance_aromatic_linkinvent_7_9_3/rearranged_h_0190.sdf

> <i_m_source_file_index>
66

> <r_mmod_Potential_Energy-OPLS-2005>
1450.63134765625

> <r_mmod_Stretch_Energy-OPLS-2005>
638.486633300781

> <r_mmod_Bend_Energy-OPLS-2005>
524.227111816406

> <r_mmod_Torsional_Energy-OPLS-2005>
348.988372802734

> <r_mmod_Improper_Torsional_Energy-OPLS-2005>
7.4404764175415

> <r_mmod_Van_der_Waal_Energy-OPLS-2005>
102.89794921875

> <r_mmod_Electrostatic_Energy-OPLS-2005>
-197.115432739258

> <r_mmod_Solvation_Energy-OPLS-2005>
-470.819793701172

> <b_mmod_Minimization_Converged-OPLS-2005>
0

> <r_mmod_RMS_Derivative-OPLS-2005>
1.20525646209717

$$$$
66
                    3D
 Structure written by MMmdl.
157166  0  0  1  0            999 V2000
  -30.5924  -14.9099   20.4240 C   0  0  0  0  0  0
  -30.4283  -12.5634   19.4982 C   0  0  0  0  0  0
  -29.5162  -12.5217   18.2530 C   0  0  0  0  0  0
  -28.0483  -12.3191   18.6710 C   0  0  0  0  0  0
  -27.6292  -13.2518   19.8389 C   0  0  2  0  0  0
  -28.6722  -13.2872   20.9758 C   0  0  0  0  0  0
  -25.2468  -13.8229   20.5728 C   0  0  0  0  0  0
  -24.1780  -13.0448   20.9222 C   0  0  0  0  0  0
  -24.6398  -11.6935   20.8746 C   0  0  0  0  0  0
  -23.9084  -10.4302   21.0397 C   0  0  0  0  0  0
  -24.3625   -9.4215   21.9176 C   0  0  0  0  0  0
  -23.6307   -8.2248   22.0746 C   0  0  0  0  0  0
  -22.4289   -8.0280   21.3538 C   0  0  0  0  0  0
  -21.9925   -9.0257   20.4640 C   0  0  0  0  0  0
  -22.7252  -10.2138   20.3051 C   0  0  0  0  0  0
  -21.6858   -6.0736   22.5277 C   0  0  0  0  0  0
  -21.4015   -6.5639   23.8210 C   0  0  0  0  0  0
  -21.3664   -5.6791   24.9171 C   0  0  0  0  0  0
  -21.6046   -4.3055   24.7219 C   0  0  0  0  0  0
  -21.8819   -3.8147   23.4341 C   0  0  0  0  0  0
  -21.9194   -4.6962   22.3398 C   0  0  0  0  0  0
  -22.7801  -13.5222   21.1875 C   0  0  0  0  0  0
  -22.1662   -4.2148   21.0975 F   0  0  0  0  0  0
  -21.5634   -3.4539   25.7732 F   0  0  0  0  0  0
  -29.9491  -13.6762   20.3677 N   0  0  0  0  0  0
  -26.2893  -12.9466   20.3267 N   0  0  0  0  0  0
  -25.9331  -11.6591   20.5742 N   0  0  0  0  0  0
  -22.0449  -12.8212   22.0428 N   0  0  0  0  0  0
  -25.4158  -15.1956   20.4174 N   0  0  0  0  0  0
  -31.7961  -14.9146   20.1399 O   0  0  0  0  0  0
  -21.6646   -6.8880   21.4241 O   0  0  0  0  0  0
  -22.3483  -14.5525   20.6719 O   0  0  0  0  0  0
  -24.6433  -31.8460   23.1906 C   0  0  0  0  0  0
  -25.9210  -32.4704   23.8289 C   0  0  1  0  0  0
  -27.2061  -27.1455   20.1389 C   0  0  0  0  0  0
  -25.5963  -33.8510   24.2207 N   0  0  0  0  0  0
  -23.4452  -30.4686   21.5369 C   0  0  2  0  0  0
  -24.8915  -28.9017   20.1080 C   0  0  0  0  0  0
  -22.7568  -29.4562   22.4869 C   0  0  0  0  0  0
  -18.0302  -28.1400   22.8478 C   0  0  0  0  0  0
  -24.1492  -36.7266   23.2641 C   0  0  0  0  0  0
  -26.0021  -30.7220   21.3886 C   0  0  0  0  0  0
  -26.0708  -29.3355   20.7268 C   0  0  0  0  0  0
  -27.2305  -28.4729   20.7277 C   0  0  0  0  0  0
  -26.0011  -26.8184   19.4752 C   0  0  0  0  0  0
  -24.8692  -27.6563   19.4675 C   0  0  0  0  0  0
  -23.6697  -29.8039   20.1540 C   0  0  0  0  0  0
  -25.4123  -36.3041   24.0318 C   0  0  1  0  0  0
  -20.5916  -28.3726   23.1239 C   0  0  2  0  0  0
  -20.6790  -26.9432   22.5402 C   0  0  0  0  0  0
  -19.5760  -26.6384   21.5216 C   0  0  0  0  0  0
  -18.1942  -26.7937   22.1625 C   0  0  0  0  0  0
  -19.1559  -28.8880   23.2851 C   0  0  0  0  0  0
  -18.9478  -30.1476   23.8876 C   0  0  0  0  0  0
  -17.6474  -30.6595   24.0559 C   0  0  0  0  0  0
  -25.9072  -34.9413   23.5070 C   0  0  0  0  0  0
  -16.5364  -29.9089   23.6335 C   0  0  0  0  0  0
  -16.7286  -28.6507   23.0355 C   0  0  0  0  0  0
  -26.4521  -31.6568   25.0731 C   0  0  0  0  0  0
  -25.3702  -31.3765   26.1428 C   0  0  0  0  0  0
  -27.0378  -30.2961   24.6310 C   0  0  0  0  0  0
  -27.6050  -32.4332   25.7517 C   0  0  0  0  0  0
  -27.5580  -37.1787   24.8461 C   0  0  0  0  0  0
  -21.4263  -29.3054   22.3616 N   0  0  0  0  0  0
  -26.4284  -37.3757   23.9410 N   0  0  0  0  0  0
  -24.7167  -31.0326   22.0938 N   0  0  0  0  0  0
  -23.4219  -28.8108   23.3011 O   0  0  0  0  0  0
  -28.2408  -26.1449   20.2184 O   0  0  0  0  0  0
  -26.5657  -34.8905   22.4645 O   0  0  0  0  0  0
  -23.5551  -32.1340   23.7129 O   0  0  0  0  0  0
  -28.4816  -21.9148   20.1281 C   0  0  0  0  0  0
  -28.8186  -23.3356   20.3285 C   0  0  0  0  0  0
  -29.4027  -20.8340   20.4734 C   0  0  0  0  0  0
  -30.8335  -22.5407   21.1349 C   0  0  0  0  0  0
  -30.1708  -18.6744   19.4035 C   0  0  0  0  0  0
  -29.3650  -18.5145   21.5579 C   0  0  0  0  0  0
  -29.9978  -17.0901   19.1772 C   0  0  0  0  0  0
  -29.1891  -16.9041   21.4383 C   0  0  0  0  0  0
  -32.1940  -22.8864   21.6979 C   0  0  0  0  0  0
  -27.8854  -24.6462   20.0007 C   0  0  0  0  0  0
  -30.0389  -23.5764   20.8461 N   0  0  0  0  0  0
  -30.5809  -21.2348   20.9807 N   0  0  0  0  0  0
  -29.2360  -19.3630   20.3331 N   0  0  0  0  0  0
  -29.8763  -16.1420   20.3404 N   0  0  0  0  0  0
  -31.4666  -12.6914   19.1892 H   0  0  0  0  0  0
  -30.3970  -11.6137   20.0350 H   0  0  0  0  0  0
  -29.8307  -11.7225   17.5803 H   0  0  0  0  0  0
  -29.6144  -13.4529   17.6919 H   0  0  0  0  0  0
  -27.9377  -11.2784   18.9771 H   0  0  0  0  0  0
  -27.3858  -12.4555   17.8154 H   0  0  0  0  0  0
  -27.5934  -14.2548   19.4126 H   0  0  0  0  0  0
  -28.7497  -12.3200   21.4746 H   0  0  0  0  0  0
  -28.3799  -14.0102   21.7388 H   0  0  0  0  0  0
  -25.2761   -9.5703   22.4759 H   0  0  0  0  0  0
  -24.0019   -7.4640   22.7470 H   0  0  0  0  0  0
  -21.0852   -8.8778   19.8953 H   0  0  0  0  0  0
  -22.3699  -10.9678   19.6173 H   0  0  0  0  0  0
  -21.2005   -7.6146   23.9714 H   0  0  0  0  0  0
  -21.1492   -6.0516   25.9076 H   0  0  0  0  0  0
  -22.0596   -2.7610   23.2832 H   0  0  0  0  0  0
  -22.4068  -11.9888   22.4840 H   0  0  0  0  0  0
  -21.1061  -13.1232   22.2614 H   0  0  0  0  0  0
  -24.6531  -15.8525   20.5391 H   0  0  0  0  0  0
  -26.2718  -15.6356   20.1033 H   0  0  0  0  0  0
  -26.7283  -32.5314   23.1024 H   0  0  0  0  0  0
  -25.0070  -33.9624   25.0326 H   0  0  0  0  0  0
  -22.7471  -31.2951   21.3862 H   0  0  0  0  0  0
  -23.3759  -35.9592   23.3281 H   0  0  0  0  0  0
  -24.3584  -36.8918   22.2061 H   0  0  0  0  0  0
  -23.7235  -37.6452   23.6688 H   0  0  0  0  0  0
  -26.1585  -31.4782   20.6181 H   0  0  0  0  0  0
  -26.8730  -30.7692   22.0306 H   0  0  0  0  0  0
  -28.1273  -28.7971   21.2369 H   0  0  0  0  0  0
  -25.8861  -25.8720   18.9701 H   0  0  0  0  0  0
  -23.9689  -27.3210   18.9701 H   0  0  0  0  0  0
  -23.8080  -30.5814   19.4015 H   0  0  0  0  0  0
  -22.7834  -29.2490   19.8417 H   0  0  0  0  0  0
  -25.1305  -36.1871   25.0809 H   0  0  0  0  0  0
  -21.0002  -28.3314   24.1363 H   0  0  0  0  0  0
  -20.5692  -26.2344   23.3621 H   0  0  0  0  0  0
  -21.6656  -26.7446   22.1196 H   0  0  0  0  0  0
  -19.6922  -25.6290   21.1261 H   0  0  0  0  0  0
  -19.6691  -27.3180   20.6733 H   0  0  0  0  0  0
  -17.4213  -26.6681   21.4026 H   0  0  0  0  0  0
  -18.0339  -26.0086   22.9028 H   0  0  0  0  0  0
  -19.7956  -30.7296   24.2238 H   0  0  0  0  0  0
  -17.5028  -31.6270   24.5169 H   0  0  0  0  0  0
  -15.5365  -30.2981   23.7670 H   0  0  0  0  0  0
  -15.8688  -28.0816   22.7079 H   0  0  0  0  0  0
  -24.5865  -30.7134   25.7749 H   0  0  0  0  0  0
  -24.8908  -32.2952   26.4820 H   0  0  0  0  0  0
  -25.7976  -30.8951   27.0233 H   0  0  0  0  0  0
  -26.2992  -29.6690   24.1305 H   0  0  0  0  0  0
  -27.3975  -29.7257   25.4884 H   0  0  0  0  0  0
  -27.8911  -30.4195   23.9637 H   0  0  0  0  0  0
  -27.2635  -33.3638   26.2064 H   0  0  0  0  0  0
  -28.3876  -32.6889   25.0361 H   0  0  0  0  0  0
  -28.0705  -31.8485   26.5461 H   0  0  0  0  0  0
  -28.2577  -38.0102   24.7527 H   0  0  0  0  0  0
  -28.1091  -36.2633   24.6255 H   0  0  0  0  0  0
  -27.2304  -37.1402   25.8863 H   0  0  0  0  0  0
  -20.9477  -29.8780   21.6805 H   0  0  0  0  0  0
  -26.0152  -38.2822   24.1417 H   0  0  0  0  0  0
  -27.5151  -21.6637   19.7120 H   0  0  0  0  0  0
  -30.0998  -19.1727   18.4354 H   0  0  0  0  0  0
  -31.1898  -18.8631   19.7459 H   0  0  0  0  0  0
  -30.3473  -18.7146   21.9909 H   0  0  0  0  0  0
  -28.6552  -18.8895   22.2962 H   0  0  0  0  0  0
  -30.8105  -16.7543   18.5303 H   0  0  0  0  0  0
  -29.0956  -16.9397   18.5833 H   0  0  0  0  0  0
  -28.1250  -16.6909   21.3327 H   0  0  0  0  0  0
  -29.4743  -16.4572   22.3922 H   0  0  0  0  0  0
  -32.2575  -23.9398   21.9724 H   0  0  0  0  0  0
  -32.9687  -22.6811   20.9598 H   0  0  0  0  0  0
  -32.4012  -22.2955   22.5894 H   0  0  0  0  0  0
  -26.9583  -24.4621   20.5447 H   0  0  0  0  0  0
  -27.6361  -24.5404   18.9447 H   0  0  0  0  0  0
  1 25  1  0  0  0
  1 30  2  0  0  0
  1 84  1  0  0  0
  2  3  1  0  0  0
  2 25  1  0  0  0
  2 85  1  0  0  0
  2 86  1  0  0  0
  3  4  1  0  0  0
  3 87  1  0  0  0
  3 88  1  0  0  0
  4  5  1  0  0  0
  4 89  1  0  0  0
  4 90  1  0  0  0
  5  6  1  0  0  0
  5 26  1  0  0  0
  5 91  1  0  0  0
  6 25  1  0  0  0
  6 92  1  0  0  0
  6 93  1  0  0  0
  7  8  2  0  0  0
  7 26  1  0  0  0
  7 29  1  0  0  0
  8  9  1  0  0  0
  8 22  1  0  0  0
  9 10  1  0  0  0
  9 27  2  0  0  0
 10 11  2  0  0  0
 10 15  1  0  0  0
 11 12  1  0  0  0
 11 94  1  0  0  0
 12 13  2  0  0  0
 12 95  1  0  0  0
 13 14  1  0  0  0
 13 31  1  0  0  0
 14 15  2  0  0  0
 14 96  1  0  0  0
 15 97  1  0  0  0
 16 17  2  0  0  0
 16 21  1  0  0  0
 16 31  1  0  0  0
 17 18  1  0  0  0
 17 98  1  0  0  0
 18 19  2  0  0  0
 18 99  1  0  0  0
 19 20  1  0  0  0
 19 24  1  0  0  0
 20 21  2  0  0  0
 20100  1  0  0  0
 21 23  1  0  0  0
 22 28  1  0  0  0
 22 32  2  0  0  0
 26 27  1  0  0  0
 28101  1  0  0  0
 28102  1  0  0  0
 29103  1  0  0  0
 29104  1  0  0  0
 33 34  1  0  0  0
 33 66  1  0  0  0
 33 70  2  0  0  0
 34 36  1  0  0  0
 34 59  1  0  0  0
 34105  1  0  0  0
 35 44  2  0  0  0
 35 45  1  0  0  0
 35 68  1  0  0  0
 36 56  1  0  0  0
 36106  1  0  0  0
 37 39  1  0  0  0
 37 47  1  0  0  0
 37 66  1  0  0  0
 37107  1  0  0  0
 38 43  2  0  0  0
 38 46  1  0  0  0
 38 47  1  0  0  0
 39 64  1  0  0  0
 39 67  2  0  0  0
 40 52  1  0  0  0
 40 53  2  0  0  0
 40 58  1  0  0  0
 41108  1  0  0  0
 41109  1  0  0  0
 41110  1  0  0  0
 41 48  1  0  0  0
 42 43  1  0  0  0
 42 66  1  0  0  0
 42111  1  0  0  0
 42112  1  0  0  0
 43 44  1  0  0  0
 44113  1  0  0  0
 45 46  2  0  0  0
 45114  1  0  0  0
 46115  1  0  0  0
 47116  1  0  0  0
 47117  1  0  0  0
 48 56  1  0  0  0
 48 65  1  0  0  0
 48118  1  0  0  0
 49 50  1  0  0  0
 49 53  1  0  0  0
 49 64  1  0  0  0
 49119  1  0  0  0
 50 51  1  0  0  0
 50120  1  0  0  0
 50121  1  0  0  0
 51 52  1  0  0  0
 51122  1  0  0  0
 51123  1  0  0  0
 52124  1  0  0  0
 52125  1  0  0  0
 53 54  1  0  0  0
 54 55  2  0  0  0
 54126  1  0  0  0
 55 57  1  0  0  0
 55127  1  0  0  0
 56 69  2  0  0  0
 57 58  2  0  0  0
 57128  1  0  0  0
 58129  1  0  0  0
 59 60  1  0  0  0
 59 61  1  0  0  0
 59 62  1  0  0  0
 60130  1  0  0  0
 60131  1  0  0  0
 60132  1  0  0  0
 61133  1  0  0  0
 61134  1  0  0  0
 61135  1  0  0  0
 62136  1  0  0  0
 62137  1  0  0  0
 62138  1  0  0  0
 63 65  1  0  0  0
 63139  1  0  0  0
 63140  1  0  0  0
 63141  1  0  0  0
 64142  1  0  0  0
 65143  1  0  0  0
 68 80  1  0  0  0
 71 72  2  0  0  0
 71 73  1  0  0  0
 71144  1  0  0  0
 72 80  1  0  0  0
 72 81  1  0  0  0
 73 82  2  0  0  0
 73 83  1  0  0  0
 74 79  1  0  0  0
 74 81  2  0  0  0
 74 82  1  0  0  0
 75 77  1  0  0  0
 75 83  1  0  0  0
 75145  1  0  0  0
 75146  1  0  0  0
 76 78  1  0  0  0
 76 83  1  0  0  0
 76147  1  0  0  0
 76148  1  0  0  0
 77 84  1  0  0  0
 77149  1  0  0  0
 77150  1  0  0  0
 78 84  1  0  0  0
 78151  1  0  0  0
 78152  1  0  0  0
 79153  1  0  0  0
 79154  1  0  0  0
 79155  1  0  0  0
 80156  1  0  0  0
 80157  1  0  0  0
M  ISO  4   1 100  68 101  80 101  84 100
M  END
> <chiral flag>
0

> <version>
0

> <s_m_source_file>
/data/baiqing/PycharmProjects/Reinvent-master-3.2/result/LINK_invent/BTK/process_docking_weight1_custom_sum_contain_oxygen_bond_distance_aromatic_linkinvent_7_9_3/rearranged_h_0190.sdf

> <i_m_source_file_index>
67

> <r_mmod_Potential_Energy-OPLS-2005>
86.1469268798828

> <r_mmod_Stretch_Energy-OPLS-2005>
198.10188293457

> <r_mmod_Bend_Energy-OPLS-2005>
242.389770507812

> <r_mmod_Torsional_Energy-OPLS-2005>
363.217712402344

> <r_mmod_Improper_Torsional_Energy-OPLS-2005>
20.4750194549561

> <r_mmod_Van_der_Waal_Energy-OPLS-2005>
147.790512084961

> <r_mmod_Electrostatic_Energy-OPLS-2005>
-819.910583496094

> <r_mmod_Solvation_Energy-OPLS-2005>
-243.180969238281

> <b_mmod_Minimization_Converged-OPLS-2005>
0

> <r_mmod_RMS_Derivative-OPLS-2005>
1.05898225307465

$$$$
67
                    3D
 Structure written by MMmdl.
153162  0  0  1  0            999 V2000
  -30.6835  -14.8302   20.4438 C   0  0  0  0  0  0
  -30.4055  -12.5247   19.4852 C   0  0  0  0  0  0
  -29.4971  -12.4983   18.2410 C   0  0  0  0  0  0
  -28.0344  -12.2943   18.6679 C   0  0  0  0  0  0
  -27.6212  -13.2367   19.8272 C   0  0  2  0  0  0
  -28.6695  -13.2904   20.9633 C   0  0  0  0  0  0
  -25.2427  -13.8189   20.5705 C   0  0  0  0  0  0
  -24.1751  -13.0423   20.9248 C   0  0  0  0  0  0
  -24.6365  -11.6910   20.8784 C   0  0  0  0  0  0
  -23.9057  -10.4284   21.0427 C   0  0  0  0  0  0
  -24.3614   -9.4197   21.9196 C   0  0  0  0  0  0
  -23.6291   -8.2231   22.0757 C   0  0  0  0  0  0
  -22.4273   -8.0273   21.3545 C   0  0  0  0  0  0
  -21.9909   -9.0247   20.4648 C   0  0  0  0  0  0
  -22.7236  -10.2128   20.3066 C   0  0  0  0  0  0
  -21.6851   -6.0731   22.5278 C   0  0  0  0  0  0
  -21.4012   -6.5637   23.8211 C   0  0  0  0  0  0
  -21.3659   -5.6791   24.9174 C   0  0  0  0  0  0
  -21.6044   -4.3054   24.7226 C   0  0  0  0  0  0
  -21.8819   -3.8144   23.4347 C   0  0  0  0  0  0
  -21.9192   -4.6960   22.3403 C   0  0  0  0  0  0
  -22.7776  -13.5202   21.1894 C   0  0  0  0  0  0
  -22.1661   -4.2146   21.0981 F   0  0  0  0  0  0
  -21.5629   -3.4538   25.7739 F   0  0  0  0  0  0
  -29.9503  -13.6540   20.3476 N   0  0  0  0  0  0
  -26.2840  -12.9408   20.3236 N   0  0  0  0  0  0
  -25.9290  -11.6551   20.5774 N   0  0  0  0  0  0
  -22.0426  -12.8193   22.0451 N   0  0  0  0  0  0
  -25.4053  -15.1910   20.4077 N   0  0  0  0  0  0
  -31.8893  -14.7323   20.1962 O   0  0  0  0  0  0
  -21.6637   -6.8872   21.4239 O   0  0  0  0  0  0
  -22.3463  -14.5505   20.6732 O   0  0  0  0  0  0
  -24.6363  -31.8510   23.1949 C   0  0  0  0  0  0
  -25.9169  -32.4729   23.8308 C   0  0  1  0  0  0
  -27.2139  -27.2109   20.1238 C   0  0  0  0  0  0
  -25.5946  -33.8534   24.2228 N   0  0  0  0  0  0
  -23.4346  -30.4744   21.5394 C   0  0  2  0  0  0
  -24.8800  -28.9173   20.1060 C   0  0  0  0  0  0
  -22.7528  -29.4584   22.4886 C   0  0  0  0  0  0
  -18.0297  -28.1390   22.8481 C   0  0  0  0  0  0
  -24.1491  -36.7271   23.2641 C   0  0  0  0  0  0
  -25.9856  -30.7476   21.3825 C   0  0  0  0  0  0
  -26.0545  -29.3674   20.7202 C   0  0  0  0  0  0
  -27.2195  -28.5261   20.7199 C   0  0  0  0  0  0
  -26.0053  -26.8383   19.4908 C   0  0  0  0  0  0
  -24.8638  -27.6630   19.4814 C   0  0  0  0  0  0
  -23.6544  -29.8107   20.1550 C   0  0  0  0  0  0
  -25.4121  -36.3053   24.0321 C   0  0  1  0  0  0
  -20.5905  -28.3708   23.1254 C   0  0  2  0  0  0
  -20.6784  -26.9419   22.5405 C   0  0  0  0  0  0
  -19.5757  -26.6382   21.5211 C   0  0  0  0  0  0
  -18.1939  -26.7931   22.1625 C   0  0  0  0  0  0
  -19.1553  -28.8866   23.2862 C   0  0  0  0  0  0
  -18.9471  -30.1465   23.8884 C   0  0  0  0  0  0
  -17.6469  -30.6589   24.0561 C   0  0  0  0  0  0
  -25.9066  -34.9426   23.5079 C   0  0  0  0  0  0
  -16.5360  -29.9084   23.6333 C   0  0  0  0  0  0
  -16.7283  -28.6503   23.0354 C   0  0  0  0  0  0
  -26.4515  -31.6574   25.0722 C   0  0  0  0  0  0
  -25.3719  -31.3742   26.1429 C   0  0  0  0  0  0
  -27.0374  -30.2981   24.6255 C   0  0  0  0  0  0
  -27.6055  -32.4330   25.7503 C   0  0  0  0  0  0
  -27.5577  -37.1793   24.8466 C   0  0  0  0  0  0
  -21.4229  -29.3046   22.3634 N   0  0  0  0  0  0
  -26.4290  -37.3758   23.9407 N   0  0  0  0  0  0
  -24.7050  -31.0435   22.0946 N   0  0  0  0  0  0
  -23.4208  -28.8124   23.3001 O   0  0  0  0  0  0
  -28.2962  -26.2870   20.2288 O   0  0  0  0  0  0
  -26.5644  -34.8911   22.4653 O   0  0  0  0  0  0
  -23.5502  -32.1355   23.7217 O   0  0  0  0  0  0
  -29.8492  -22.9658   20.5277 C   0  0  0  0  0  0
  -28.6040  -23.4833   20.0613 C   0  0  0  0  0  0
  -29.1153  -20.7297   20.4081 C   0  0  0  0  0  0
  -30.6696  -18.7209   20.9667 C   0  0  0  0  0  0
  -28.4399  -18.1795   20.2173 C   0  0  0  0  0  0
  -31.0678  -17.3258   20.3229 C   0  0  0  0  0  0
  -28.7856  -16.7039   20.7872 C   0  0  0  0  0  0
  -28.3805  -24.9758   19.4613 C   0  0  0  0  0  0
  -30.0907  -21.6137   20.7029 N   0  0  0  0  0  0
  -27.6592  -22.5132   19.8113 N   0  0  0  0  0  0
  -27.9028  -21.1724   19.9869 N   0  0  0  0  0  0
  -29.3856  -19.2924   20.5172 N   0  0  0  0  0  0
  -30.1527  -16.1485   20.5277 N   0  0  0  0  0  0
  -31.4458  -12.6137   19.1692 H   0  0  0  0  0  0
  -30.3477  -11.5794   20.0273 H   0  0  0  0  0  0
  -29.8038  -11.7009   17.5627 H   0  0  0  0  0  0
  -29.5973  -13.4324   17.6859 H   0  0  0  0  0  0
  -27.9275  -11.2552   18.9813 H   0  0  0  0  0  0
  -27.3672  -12.4244   17.8149 H   0  0  0  0  0  0
  -27.5729  -14.2188   19.3628 H   0  0  0  0  0  0
  -28.7418  -12.3306   21.4769 H   0  0  0  0  0  0
  -28.3856  -14.0236   21.7192 H   0  0  0  0  0  0
  -25.2756   -9.5675   22.4775 H   0  0  0  0  0  0
  -23.9999   -7.4620   22.7473 H   0  0  0  0  0  0
  -21.0843   -8.8767   19.8951 H   0  0  0  0  0  0
  -22.3695  -10.9670   19.6179 H   0  0  0  0  0  0
  -21.2005   -7.6145   23.9713 H   0  0  0  0  0  0
  -21.1482   -6.0522   25.9077 H   0  0  0  0  0  0
  -22.0599   -2.7607   23.2849 H   0  0  0  0  0  0
  -22.4050  -11.9861   22.4844 H   0  0  0  0  0  0
  -21.1041  -13.1212   22.2655 H   0  0  0  0  0  0
  -24.6310  -15.8373   20.5141 H   0  0  0  0  0  0
  -26.2404  -15.6295   20.0455 H   0  0  0  0  0  0
  -26.7232  -32.5356   23.1040 H   0  0  0  0  0  0
  -25.0078  -33.9661   25.0364 H   0  0  0  0  0  0
  -22.7334  -31.2986   21.3927 H   0  0  0  0  0  0
  -23.3756  -35.9601   23.3298 H   0  0  0  0  0  0
  -24.3577  -36.8905   22.2056 H   0  0  0  0  0  0
  -23.7244  -37.6467   23.6676 H   0  0  0  0  0  0
  -26.1343  -31.5079   20.6145 H   0  0  0  0  0  0
  -26.8593  -30.7927   22.0211 H   0  0  0  0  0  0
  -28.1149  -28.8639   21.2228 H   0  0  0  0  0  0
  -25.8736  -25.8708   19.0362 H   0  0  0  0  0  0
  -23.9598  -27.3073   19.0061 H   0  0  0  0  0  0
  -23.7842  -30.5884   19.4015 H   0  0  0  0  0  0
  -22.7703  -29.2497   19.8466 H   0  0  0  0  0  0
  -25.1306  -36.1891   25.0813 H   0  0  0  0  0  0
  -20.9999  -28.3292   24.1374 H   0  0  0  0  0  0
  -20.5681  -26.2320   23.3616 H   0  0  0  0  0  0
  -21.6651  -26.7435   22.1200 H   0  0  0  0  0  0
  -19.6919  -25.6290   21.1250 H   0  0  0  0  0  0
  -19.6693  -27.3186   20.6735 H   0  0  0  0  0  0
  -17.4207  -26.6674   21.4029 H   0  0  0  0  0  0
  -18.0341  -26.0076   22.9026 H   0  0  0  0  0  0
  -19.7947  -30.7285   24.2248 H   0  0  0  0  0  0
  -17.5023  -31.6268   24.5165 H   0  0  0  0  0  0
  -15.5360  -30.2982   23.7665 H   0  0  0  0  0  0
  -15.8683  -28.0816   22.7077 H   0  0  0  0  0  0
  -24.5902  -30.7084   25.7754 H   0  0  0  0  0  0
  -24.8902  -32.2917   26.4820 H   0  0  0  0  0  0
  -25.8019  -30.8941   27.0229 H   0  0  0  0  0  0
  -26.2976  -29.6714   24.1261 H   0  0  0  0  0  0
  -27.4012  -29.7265   25.4803 H   0  0  0  0  0  0
  -27.8872  -30.4237   23.9543 H   0  0  0  0  0  0
  -27.2651  -33.3641   26.2048 H   0  0  0  0  0  0
  -28.3883  -32.6874   25.0345 H   0  0  0  0  0  0
  -28.0703  -31.8479   26.5448 H   0  0  0  0  0  0
  -28.2592  -38.0092   24.7509 H   0  0  0  0  0  0
  -28.1075  -36.2621   24.6299 H   0  0  0  0  0  0
  -27.2293  -37.1449   25.8868 H   0  0  0  0  0  0
  -20.9422  -29.8769   21.6833 H   0  0  0  0  0  0
  -26.0163  -38.2830   24.1406 H   0  0  0  0  0  0
  -30.6872  -23.6295   20.6827 H   0  0  0  0  0  0
  -31.4686  -19.4326   20.7540 H   0  0  0  0  0  0
  -30.6386  -18.6274   22.0532 H   0  0  0  0  0  0
  -27.4510  -18.4692   20.5764 H   0  0  0  0  0  0
  -28.3494  -18.1221   19.1316 H   0  0  0  0  0  0
  -32.0585  -17.0935   20.7175 H   0  0  0  0  0  0
  -31.2064  -17.4535   19.2482 H   0  0  0  0  0  0
  -28.0449  -16.0196   20.3934 H   0  0  0  0  0  0
  -28.6392  -16.7001   21.8680 H   0  0  0  0  0  0
  -27.6071  -24.8944   18.7041 H   0  0  0  0  0  0
  -29.2696  -25.1245   18.8482 H   0  0  0  0  0  0
  1 25  1  0  0  0
  1 30  2  0  0  0
  1 83  1  0  0  0
  2  3  1  0  0  0
  2 25  1  0  0  0
  2 84  1  0  0  0
  2 85  1  0  0  0
  3  4  1  0  0  0
  3 86  1  0  0  0
  3 87  1  0  0  0
  4  5  1  0  0  0
  4 88  1  0  0  0
  4 89  1  0  0  0
  5  6  1  0  0  0
  5 26  1  0  0  0
  5 90  1  0  0  0
  6 25  1  0  0  0
  6 91  1  0  0  0
  6 92  1  0  0  0
  7  8  2  0  0  0
  7 26  1  0  0  0
  7 29  1  0  0  0
  8  9  1  0  0  0
  8 22  1  0  0  0
  9 10  1  0  0  0
  9 27  2  0  0  0
 10 11  2  0  0  0
 10 15  1  0  0  0
 11 12  1  0  0  0
 11 93  1  0  0  0
 12 13  2  0  0  0
 12 94  1  0  0  0
 13 14  1  0  0  0
 13 31  1  0  0  0
 14 15  2  0  0  0
 14 95  1  0  0  0
 15 96  1  0  0  0
 16 17  2  0  0  0
 16 21  1  0  0  0
 16 31  1  0  0  0
 17 18  1  0  0  0
 17 97  1  0  0  0
 18 19  2  0  0  0
 18 98  1  0  0  0
 19 20  1  0  0  0
 19 24  1  0  0  0
 20 21  2  0  0  0
 20 99  1  0  0  0
 21 23  1  0  0  0
 22 28  1  0  0  0
 22 32  2  0  0  0
 26 27  1  0  0  0
 28100  1  0  0  0
 28101  1  0  0  0
 29102  1  0  0  0
 29103  1  0  0  0
 33 34  1  0  0  0
 33 66  1  0  0  0
 33 70  2  0  0  0
 34 36  1  0  0  0
 34 59  1  0  0  0
 34104  1  0  0  0
 35 44  2  0  0  0
 35 45  1  0  0  0
 35 68  1  0  0  0
 36 56  1  0  0  0
 36105  1  0  0  0
 37 39  1  0  0  0
 37 47  1  0  0  0
 37 66  1  0  0  0
 37106  1  0  0  0
 38 43  2  0  0  0
 38 46  1  0  0  0
 38 47  1  0  0  0
 39 64  1  0  0  0
 39 67  2  0  0  0
 40 52  1  0  0  0
 40 53  2  0  0  0
 40 58  1  0  0  0
 41107  1  0  0  0
 41108  1  0  0  0
 41109  1  0  0  0
 41 48  1  0  0  0
 42 43  1  0  0  0
 42 66  1  0  0  0
 42110  1  0  0  0
 42111  1  0  0  0
 43 44  1  0  0  0
 44112  1  0  0  0
 45 46  2  0  0  0
 45113  1  0  0  0
 46114  1  0  0  0
 47115  1  0  0  0
 47116  1  0  0  0
 48 56  1  0  0  0
 48 65  1  0  0  0
 48117  1  0  0  0
 49 50  1  0  0  0
 49 53  1  0  0  0
 49 64  1  0  0  0
 49118  1  0  0  0
 50 51  1  0  0  0
 50119  1  0  0  0
 50120  1  0  0  0
 51 52  1  0  0  0
 51121  1  0  0  0
 51122  1  0  0  0
 52123  1  0  0  0
 52124  1  0  0  0
 53 54  1  0  0  0
 54 55  2  0  0  0
 54125  1  0  0  0
 55 57  1  0  0  0
 55126  1  0  0  0
 56 69  2  0  0  0
 57 58  2  0  0  0
 57127  1  0  0  0
 58128  1  0  0  0
 59 60  1  0  0  0
 59 61  1  0  0  0
 59 62  1  0  0  0
 60129  1  0  0  0
 60130  1  0  0  0
 60131  1  0  0  0
 61132  1  0  0  0
 61133  1  0  0  0
 61134  1  0  0  0
 62135  1  0  0  0
 62136  1  0  0  0
 62137  1  0  0  0
 63 65  1  0  0  0
 63138  1  0  0  0
 63139  1  0  0  0
 63140  1  0  0  0
 64141  1  0  0  0
 65142  1  0  0  0
 68 78  1  0  0  0
 71 72  2  0  0  0
 71 79  1  0  0  0
 71143  1  0  0  0
 72 78  1  0  0  0
 72 80  1  0  0  0
 73 79  2  0  0  0
 73 81  1  0  0  0
 73 82  1  0  0  0
 74 76  1  0  0  0
 74 82  1  0  0  0
 74144  1  0  0  0
 74145  1  0  0  0
 75 77  1  0  0  0
 75 82  1  0  0  0
 75146  1  0  0  0
 75147  1  0  0  0
 76 83  1  0  0  0
 76148  1  0  0  0
 76149  1  0  0  0
 77 83  1  0  0  0
 77150  1  0  0  0
 77151  1  0  0  0
 78152  1  0  0  0
 78153  1  0  0  0
 80 81  2  0  0  0
M  ISO  4   1 100  68 101  78 101  83 100
M  END
> <chiral flag>
0

> <version>
0

> <s_m_source_file>
/data/baiqing/PycharmProjects/Reinvent-master-3.2/result/LINK_invent/BTK/process_docking_weight1_custom_sum_contain_oxygen_bond_distance_aromatic_linkinvent_7_9_3/rearranged_h_0190.sdf

> <i_m_source_file_index>
68

> <r_mmod_Potential_Energy-OPLS-2005>
422.327453613281

> <r_mmod_Stretch_Energy-OPLS-2005>
158.865142822266

> <r_mmod_Bend_Energy-OPLS-2005>
257.361358642578

> <r_mmod_Torsional_Energy-OPLS-2005>
322.285736083984

> <r_mmod_Improper_Torsional_Energy-OPLS-2005>
9.17597198486328

> <r_mmod_Van_der_Waal_Energy-OPLS-2005>
165.273971557617

> <r_mmod_Electrostatic_Energy-OPLS-2005>
-376.213562011719

> <r_mmod_Solvation_Energy-OPLS-2005>
-246.215515136719

> <b_mmod_Minimization_Converged-OPLS-2005>
0

> <r_mmod_RMS_Derivative-OPLS-2005>
0.0642717704176903

$$$$
68
                    3D
 Structure written by MMmdl.
149158  0  0  1  0            999 V2000
  -30.4655  -15.1737   20.3816 C   0  0  0  0  0  0
  -30.4415  -12.7422   19.5182 C   0  0  0  0  0  0
  -29.5314  -12.5588   18.2781 C   0  0  0  0  0  0
  -28.0755  -12.3007   18.7046 C   0  0  0  0  0  0
  -27.6172  -13.2661   19.8268 C   0  0  2  0  0  0
  -28.6544  -13.3983   20.9623 C   0  0  0  0  0  0
  -25.2412  -13.8233   20.5733 C   0  0  0  0  0  0
  -24.1756  -13.0434   20.9250 C   0  0  0  0  0  0
  -24.6398  -11.6928   20.8762 C   0  0  0  0  0  0
  -23.9089  -10.4292   21.0407 C   0  0  0  0  0  0
  -24.3636   -9.4204   21.9183 C   0  0  0  0  0  0
  -23.6304   -8.2241   22.0755 C   0  0  0  0  0  0
  -22.4283   -8.0282   21.3546 C   0  0  0  0  0  0
  -21.9925   -9.0257   20.4646 C   0  0  0  0  0  0
  -22.7261  -10.2131   20.3056 C   0  0  0  0  0  0
  -21.6854   -6.0737   22.5280 C   0  0  0  0  0  0
  -21.4014   -6.5641   23.8211 C   0  0  0  0  0  0
  -21.3659   -5.6794   24.9173 C   0  0  0  0  0  0
  -21.6041   -4.3055   24.7222 C   0  0  0  0  0  0
  -21.8820   -3.8148   23.4343 C   0  0  0  0  0  0
  -21.9192   -4.6966   22.3401 C   0  0  0  0  0  0
  -22.7775  -13.5192   21.1898 C   0  0  0  0  0  0
  -22.1662   -4.2153   21.0978 F   0  0  0  0  0  0
  -21.5627   -3.4538   25.7733 F   0  0  0  0  0  0
  -29.9005  -13.8766   20.3445 N   0  0  0  0  0  0
  -26.2838  -12.9493   20.3221 N   0  0  0  0  0  0
  -25.9331  -11.6607   20.5727 N   0  0  0  0  0  0
  -22.0432  -12.8173   22.0452 N   0  0  0  0  0  0
  -25.4050  -15.1967   20.4160 N   0  0  0  0  0  0
  -31.6809  -15.2013   20.1474 O   0  0  0  0  0  0
  -21.6643   -6.8882   21.4242 O   0  0  0  0  0  0
  -22.3457  -14.5495   20.6738 O   0  0  0  0  0  0
  -24.6581  -31.8293   23.1761 C   0  0  0  0  0  0
  -25.9287  -32.4620   23.8200 C   0  0  1  0  0  0
  -27.2146  -26.9788   20.1733 C   0  0  0  0  0  0
  -25.5977  -33.8433   24.2107 N   0  0  0  0  0  0
  -23.4707  -30.4448   21.5240 C   0  0  2  0  0  0
  -24.9237  -28.8467   20.1099 C   0  0  0  0  0  0
  -22.7648  -29.4473   22.4792 C   0  0  0  0  0  0
  -18.0321  -28.1410   22.8472 C   0  0  0  0  0  0
  -24.1491  -36.7211   23.2647 C   0  0  0  0  0  0
  -26.0379  -30.6525   21.4004 C   0  0  0  0  0  0
  -26.1067  -29.2486   20.7425 C   0  0  0  0  0  0
  -27.2487  -28.3343   20.7541 C   0  0  0  0  0  0
  -26.0040  -26.7254   19.4871 C   0  0  0  0  0  0
  -24.8948  -27.6037   19.4625 C   0  0  0  0  0  0
  -23.7078  -29.7681   20.1472 C   0  0  0  0  0  0
  -25.4130  -36.2984   24.0308 C   0  0  1  0  0  0
  -20.5946  -28.3750   23.1198 C   0  0  2  0  0  0
  -20.6802  -26.9436   22.5400 C   0  0  0  0  0  0
  -19.5770  -26.6380   21.5218 C   0  0  0  0  0  0
  -18.1952  -26.7947   22.1625 C   0  0  0  0  0  0
  -19.1583  -28.8899   23.2825 C   0  0  0  0  0  0
  -18.9496  -30.1492   23.8855 C   0  0  0  0  0  0
  -17.6488  -30.6602   24.0560 C   0  0  0  0  0  0
  -25.9093  -34.9368   23.5023 C   0  0  0  0  0  0
  -16.5377  -29.9091   23.6347 C   0  0  0  0  0  0
  -16.7304  -28.6514   23.0365 C   0  0  0  0  0  0
  -26.4554  -31.6547   25.0706 C   0  0  0  0  0  0
  -25.3699  -31.3784   26.1376 C   0  0  0  0  0  0
  -27.0444  -30.2919   24.6407 C   0  0  0  0  0  0
  -27.6050  -32.4353   25.7498 C   0  0  0  0  0  0
  -27.5570  -37.1762   24.8469 C   0  0  0  0  0  0
  -21.4323  -29.3049   22.3548 N   0  0  0  0  0  0
  -26.4275  -37.3718   23.9418 N   0  0  0  0  0  0
  -24.7430  -31.0008   22.0874 N   0  0  0  0  0  0
  -23.4221  -28.8028   23.3005 O   0  0  0  0  0  0
  -28.2033  -25.8764   20.2631 O   0  0  0  0  0  0
  -26.5691  -34.8896   22.4610 O   0  0  0  0  0  0
  -23.5661  -32.1235   23.6883 O   0  0  0  0  0  0
  -28.9387  -21.9424   21.3501 C   0  0  0  0  0  0
  -28.5627  -22.7735   20.2454 C   0  0  0  0  0  0
  -29.0296  -20.4807   19.6712 C   0  0  0  0  0  0
  -29.2309  -18.9832   19.1769 C   0  0  0  0  0  0
  -29.5341  -19.1572   21.5327 C   0  0  0  0  0  0
  -29.8816  -18.0512   20.3550 C   0  0  1  0  0  0
  -27.8215  -24.3179   20.0116 C   0  0  0  0  0  0
  -29.1980  -20.5796   20.9576 N   0  0  0  0  0  0
  -28.6593  -21.7532   19.2324 N   0  3  0  0  0  0
  -29.6798  -16.4097   20.4800 N   0  0  0  0  0  0
  -31.4648  -12.9342   19.1926 H   0  0  0  0  0  0
  -30.4876  -11.8228   20.1043 H   0  0  0  0  0  0
  -29.8927  -11.7362   17.6591 H   0  0  0  0  0  0
  -29.5770  -13.4539   17.6561 H   0  0  0  0  0  0
  -28.0161  -11.2719   19.0617 H   0  0  0  0  0  0
  -27.4066  -12.3642   17.8454 H   0  0  0  0  0  0
  -27.5460  -14.2430   19.3469 H   0  0  0  0  0  0
  -28.7980  -12.4511   21.4845 H   0  0  0  0  0  0
  -28.3115  -14.1168   21.7088 H   0  0  0  0  0  0
  -25.2778   -9.5675   22.4761 H   0  0  0  0  0  0
  -24.0007   -7.4629   22.7475 H   0  0  0  0  0  0
  -21.0856   -8.8779   19.8951 H   0  0  0  0  0  0
  -22.3721  -10.9671   19.6167 H   0  0  0  0  0  0
  -21.2009   -7.6151   23.9716 H   0  0  0  0  0  0
  -21.1479   -6.0523   25.9075 H   0  0  0  0  0  0
  -22.0597   -2.7611   23.2839 H   0  0  0  0  0  0
  -22.4065  -11.9842   22.4839 H   0  0  0  0  0  0
  -21.1043  -13.1178   22.2656 H   0  0  0  0  0  0
  -24.6310  -15.8434   20.5239 H   0  0  0  0  0  0
  -26.2390  -15.6368   20.0509 H   0  0  0  0  0  0
  -26.7353  -32.5171   23.0915 H   0  0  0  0  0  0
  -25.0109  -33.9524   25.0246 H   0  0  0  0  0  0
  -22.7817  -31.2760   21.3592 H   0  0  0  0  0  0
  -23.3773  -35.9521   23.3275 H   0  0  0  0  0  0
  -24.3573  -36.8883   22.2067 H   0  0  0  0  0  0
  -23.7223  -37.6383   23.6717 H   0  0  0  0  0  0
  -26.2154  -31.3986   20.6245 H   0  0  0  0  0  0
  -26.8991  -30.7047   22.0545 H   0  0  0  0  0  0
  -28.1415  -28.6375   21.2830 H   0  0  0  0  0  0
  -25.8665  -25.7811   18.9838 H   0  0  0  0  0  0
  -23.9960  -27.2921   18.9481 H   0  0  0  0  0  0
  -23.8605  -30.5407   19.3925 H   0  0  0  0  0  0
  -22.8189  -29.2211   19.8284 H   0  0  0  0  0  0
  -25.1327  -36.1780   25.0799 H   0  0  0  0  0  0
  -21.0038  -28.3350   24.1321 H   0  0  0  0  0  0
  -20.5691  -26.2368   23.3637 H   0  0  0  0  0  0
  -21.6663  -26.7424   22.1194 H   0  0  0  0  0  0
  -19.6929  -25.6282   21.1270 H   0  0  0  0  0  0
  -19.6706  -27.3176   20.6737 H   0  0  0  0  0  0
  -17.4221  -26.6697   21.4026 H   0  0  0  0  0  0
  -18.0342  -26.0101   22.9030 H   0  0  0  0  0  0
  -19.7971  -30.7324   24.2196 H   0  0  0  0  0  0
  -17.5044  -31.6278   24.5170 H   0  0  0  0  0  0
  -15.5377  -30.2982   23.7703 H   0  0  0  0  0  0
  -15.8703  -28.0822   22.7098 H   0  0  0  0  0  0
  -24.5886  -30.7131   25.7685 H   0  0  0  0  0  0
  -24.8888  -32.2987   26.4702 H   0  0  0  0  0  0
  -25.7948  -30.9011   27.0216 H   0  0  0  0  0  0
  -26.3102  -29.6606   24.1391 H   0  0  0  0  0  0
  -27.3973  -29.7267   25.5043 H   0  0  0  0  0  0
  -27.9048  -30.4113   23.9820 H   0  0  0  0  0  0
  -27.2622  -33.3707   26.1937 H   0  0  0  0  0  0
  -28.3930  -32.6828   25.0371 H   0  0  0  0  0  0
  -28.0645  -31.8570   26.5524 H   0  0  0  0  0  0
  -28.2565  -38.0079   24.7529 H   0  0  0  0  0  0
  -28.1083  -36.2605   24.6277 H   0  0  0  0  0  0
  -27.2288  -37.1384   25.8871 H   0  0  0  0  0  0
  -20.9560  -29.8750   21.6694 H   0  0  0  0  0  0
  -26.0121  -38.2772   24.1444 H   0  0  0  0  0  0
  -28.9706  -22.2127   22.3959 H   0  0  0  0  0  0
  -29.8533  -19.0048   18.2827 H   0  0  0  0  0  0
  -28.2421  -18.6211   18.8961 H   0  0  0  0  0  0
  -30.3609  -19.2575   22.2358 H   0  0  0  0  0  0
  -28.6612  -18.8359   22.1012 H   0  0  0  0  0  0
  -30.9594  -18.1474   20.2163 H   0  0  0  0  0  0
  -26.8673  -24.2140   20.5291 H   0  0  0  0  0  0
  -27.5507  -24.3054   18.9565 H   0  0  0  0  0  0
  -28.4129  -21.9312   18.2660 H   0  0  0  0  0  0
  -28.7105  -16.1774   20.6397 H   0  0  0  0  0  0
  1 25  1  0  0  0
  1 30  2  0  0  0
  1 80  1  0  0  0
  2  3  1  0  0  0
  2 25  1  0  0  0
  2 81  1  0  0  0
  2 82  1  0  0  0
  3  4  1  0  0  0
  3 83  1  0  0  0
  3 84  1  0  0  0
  4  5  1  0  0  0
  4 85  1  0  0  0
  4 86  1  0  0  0
  5  6  1  0  0  0
  5 26  1  0  0  0
  5 87  1  0  0  0
  6 25  1  0  0  0
  6 88  1  0  0  0
  6 89  1  0  0  0
  7  8  2  0  0  0
  7 26  1  0  0  0
  7 29  1  0  0  0
  8  9  1  0  0  0
  8 22  1  0  0  0
  9 10  1  0  0  0
  9 27  2  0  0  0
 10 11  2  0  0  0
 10 15  1  0  0  0
 11 12  1  0  0  0
 11 90  1  0  0  0
 12 13  2  0  0  0
 12 91  1  0  0  0
 13 14  1  0  0  0
 13 31  1  0  0  0
 14 15  2  0  0  0
 14 92  1  0  0  0
 15 93  1  0  0  0
 16 17  2  0  0  0
 16 21  1  0  0  0
 16 31  1  0  0  0
 17 18  1  0  0  0
 17 94  1  0  0  0
 18 19  2  0  0  0
 18 95  1  0  0  0
 19 20  1  0  0  0
 19 24  1  0  0  0
 20 21  2  0  0  0
 20 96  1  0  0  0
 21 23  1  0  0  0
 22 28  1  0  0  0
 22 32  2  0  0  0
 26 27  1  0  0  0
 28 97  1  0  0  0
 28 98  1  0  0  0
 29 99  1  0  0  0
 29100  1  0  0  0
 33 34  1  0  0  0
 33 66  1  0  0  0
 33 70  2  0  0  0
 34 36  1  0  0  0
 34 59  1  0  0  0
 34101  1  0  0  0
 35 44  2  0  0  0
 35 45  1  0  0  0
 35 68  1  0  0  0
 36 56  1  0  0  0
 36102  1  0  0  0
 37 39  1  0  0  0
 37 47  1  0  0  0
 37 66  1  0  0  0
 37103  1  0  0  0
 38 43  2  0  0  0
 38 46  1  0  0  0
 38 47  1  0  0  0
 39 64  1  0  0  0
 39 67  2  0  0  0
 40 52  1  0  0  0
 40 53  2  0  0  0
 40 58  1  0  0  0
 41104  1  0  0  0
 41105  1  0  0  0
 41106  1  0  0  0
 41 48  1  0  0  0
 42 43  1  0  0  0
 42 66  1  0  0  0
 42107  1  0  0  0
 42108  1  0  0  0
 43 44  1  0  0  0
 44109  1  0  0  0
 45 46  2  0  0  0
 45110  1  0  0  0
 46111  1  0  0  0
 47112  1  0  0  0
 47113  1  0  0  0
 48 56  1  0  0  0
 48 65  1  0  0  0
 48114  1  0  0  0
 49 50  1  0  0  0
 49 53  1  0  0  0
 49 64  1  0  0  0
 49115  1  0  0  0
 50 51  1  0  0  0
 50116  1  0  0  0
 50117  1  0  0  0
 51 52  1  0  0  0
 51118  1  0  0  0
 51119  1  0  0  0
 52120  1  0  0  0
 52121  1  0  0  0
 53 54  1  0  0  0
 54 55  2  0  0  0
 54122  1  0  0  0
 55 57  1  0  0  0
 55123  1  0  0  0
 56 69  2  0  0  0
 57 58  2  0  0  0
 57124  1  0  0  0
 58125  1  0  0  0
 59 60  1  0  0  0
 59 61  1  0  0  0
 59 62  1  0  0  0
 60126  1  0  0  0
 60127  1  0  0  0
 60128  1  0  0  0
 61129  1  0  0  0
 61130  1  0  0  0
 61131  1  0  0  0
 62132  1  0  0  0
 62133  1  0  0  0
 62134  1  0  0  0
 63 65  1  0  0  0
 63135  1  0  0  0
 63136  1  0  0  0
 63137  1  0  0  0
 64138  1  0  0  0
 65139  1  0  0  0
 68 77  1  0  0  0
 71 72  2  0  0  0
 71 78  1  0  0  0
 71140  1  0  0  0
 72 77  1  0  0  0
 72 79  1  0  0  0
 73 74  1  0  0  0
 73 78  1  0  0  0
 73 79  2  0  0  0
 74 76  1  0  0  0
 74141  1  0  0  0
 74142  1  0  0  0
 75 76  1  0  0  0
 75 78  1  0  0  0
 75143  1  0  0  0
 75144  1  0  0  0
 76 80  1  0  0  0
 76145  1  0  0  0
 77146  1  0  0  0
 77147  1  0  0  0
 79148  1  0  0  0
 80149  1  0  0  0
M  CHG  1  79   1
M  ISO  4   1 100  68 101  77 101  80 100
M  END
> <chiral flag>
0

> <version>
0

> <s_m_source_file>
/data/baiqing/PycharmProjects/Reinvent-master-3.2/result/LINK_invent/BTK/process_docking_weight1_custom_sum_contain_oxygen_bond_distance_aromatic_linkinvent_7_9_3/rearranged_h_0190.sdf

> <i_m_source_file_index>
69

> <r_mmod_Potential_Energy-OPLS-2005>
889.174621582031

> <r_mmod_Stretch_Energy-OPLS-2005>
426.888946533203

> <r_mmod_Bend_Energy-OPLS-2005>
420.014099121094

> <r_mmod_Torsional_Energy-OPLS-2005>
232.080688476562

> <r_mmod_Improper_Torsional_Energy-OPLS-2005>
6.29434394836426

> <r_mmod_Van_der_Waal_Energy-OPLS-2005>
107.574104309082

> <r_mmod_Electrostatic_Energy-OPLS-2005>
-229.023895263672

> <r_mmod_Solvation_Energy-OPLS-2005>
-454.740417480469

> <b_mmod_Minimization_Converged-OPLS-2005>
0

> <r_mmod_RMS_Derivative-OPLS-2005>
0.636092007160187

$$$$
69
                    3D
 Structure written by MMmdl.
158168  0  0  1  0            999 V2000
  -30.6613  -14.6892   20.4492 C   0  0  0  0  0  0
  -30.4180  -12.4196   19.4606 C   0  0  0  0  0  0
  -29.4977  -12.4854   18.2250 C   0  0  0  0  0  0
  -28.0245  -12.3250   18.6450 C   0  0  0  0  0  0
  -27.6376  -13.2329   19.8442 C   0  0  2  0  0  0
  -28.6867  -13.1821   20.9751 C   0  0  0  0  0  0
  -25.2503  -13.8202   20.5708 C   0  0  0  0  0  0
  -24.1797  -13.0447   20.9212 C   0  0  0  0  0  0
  -24.6387  -11.6921   20.8758 C   0  0  0  0  0  0
  -23.9065  -10.4298   21.0412 C   0  0  0  0  0  0
  -24.3618   -9.4209   21.9186 C   0  0  0  0  0  0
  -23.6294   -8.2244   22.0753 C   0  0  0  0  0  0
  -22.4277   -8.0281   21.3545 C   0  0  0  0  0  0
  -21.9914   -9.0254   20.4647 C   0  0  0  0  0  0
  -22.7240  -10.2136   20.3058 C   0  0  0  0  0  0
  -21.6855   -6.0733   22.5275 C   0  0  0  0  0  0
  -21.4017   -6.5636   23.8208 C   0  0  0  0  0  0
  -21.3660   -5.6791   24.9173 C   0  0  0  0  0  0
  -21.6045   -4.3054   24.7225 C   0  0  0  0  0  0
  -21.8820   -3.8146   23.4345 C   0  0  0  0  0  0
  -21.9192   -4.6960   22.3399 C   0  0  0  0  0  0
  -22.7817  -13.5223   21.1872 C   0  0  0  0  0  0
  -22.1663   -4.2147   21.0975 F   0  0  0  0  0  0
  -21.5627   -3.4538   25.7736 F   0  0  0  0  0  0
  -29.9836  -13.4991   20.3717 N   0  0  0  0  0  0
  -26.2924  -12.9416   20.3284 N   0  0  0  0  0  0
  -25.9318  -11.6555   20.5774 N   0  0  0  0  0  0
  -22.0474  -12.8205   22.0425 N   0  0  0  0  0  0
  -25.4194  -15.1926   20.4124 N   0  0  0  0  0  0
  -31.8770  -14.7043   20.2443 O   0  0  0  0  0  0
  -21.6643   -6.8877   21.4238 O   0  0  0  0  0  0
  -22.3498  -14.5529   20.6717 O   0  0  0  0  0  0
  -24.6279  -31.8575   23.1996 C   0  0  0  0  0  0
  -25.9116  -32.4767   23.8335 C   0  0  1  0  0  0
  -27.2254  -27.2991   20.1355 C   0  0  0  0  0  0
  -25.5922  -33.8566   24.2266 N   0  0  0  0  0  0
  -23.4231  -30.4783   21.5428 C   0  0  2  0  0  0
  -24.8714  -28.9249   20.1166 C   0  0  0  0  0  0
  -22.7485  -29.4608   22.4935 C   0  0  0  0  0  0
  -18.0287  -28.1378   22.8484 C   0  0  0  0  0  0
  -24.1493  -36.7287   23.2640 C   0  0  0  0  0  0
  -25.9653  -30.7834   21.3730 C   0  0  0  0  0  0
  -26.0407  -29.4074   20.7187 C   0  0  0  0  0  0
  -27.2238  -28.6086   20.7113 C   0  0  0  0  0  0
  -26.0360  -26.8672   19.5144 C   0  0  0  0  0  0
  -24.8714  -27.6604   19.5052 C   0  0  0  0  0  0
  -23.6398  -29.8078   20.1608 C   0  0  0  0  0  0
  -25.4120  -36.3075   24.0329 C   0  0  1  0  0  0
  -20.5890  -28.3689   23.1283 C   0  0  2  0  0  0
  -20.6786  -26.9411   22.5414 C   0  0  0  0  0  0
  -19.5762  -26.6380   21.5217 C   0  0  0  0  0  0
  -18.1937  -26.7923   22.1619 C   0  0  0  0  0  0
  -19.1540  -28.8854   23.2876 C   0  0  0  0  0  0
  -18.9458  -30.1455   23.8895 C   0  0  0  0  0  0
  -17.6459  -30.6589   24.0559 C   0  0  0  0  0  0
  -25.9053  -34.9443   23.5100 C   0  0  0  0  0  0
  -16.5352  -29.9081   23.6331 C   0  0  0  0  0  0
  -16.7273  -28.6496   23.0354 C   0  0  0  0  0  0
  -26.4500  -31.6580   25.0711 C   0  0  0  0  0  0
  -25.3733  -31.3708   26.1439 C   0  0  0  0  0  0
  -27.0357  -30.3005   24.6179 C   0  0  0  0  0  0
  -27.6054  -32.4328   25.7483 C   0  0  0  0  0  0
  -27.5583  -37.1796   24.8465 C   0  0  0  0  0  0
  -21.4197  -29.3032   22.3673 N   0  0  0  0  0  0
  -26.4296  -37.3772   23.9403 N   0  0  0  0  0  0
  -24.6907  -31.0573   22.0951 N   0  0  0  0  0  0
  -23.4201  -28.8159   23.3028 O   0  0  0  0  0  0
  -28.3439  -26.4530   20.1327 O   0  0  0  0  0  0
  -26.5629  -34.8916   22.4674 O   0  0  0  0  0  0
  -23.5439  -32.1368   23.7324 O   0  0  0  0  0  0
  -29.6539  -19.6454   18.2149 C   0  0  0  0  0  0
  -29.5035  -19.4476   19.5975 C   0  0  0  0  0  0
  -29.4506  -20.9231   17.6929 C   0  0  0  0  0  0
  -28.9414  -21.7791   19.7774 C   0  0  0  0  0  0
  -29.1065  -16.8458   20.8259 C   0  0  0  0  0  0
  -30.4686  -16.9160   19.2388 C   0  0  0  0  0  0
  -29.4398  -24.1162   20.6035 C   0  0  0  0  0  0
  -27.5586  -23.8990   19.8755 C   0  0  0  0  0  0
  -29.9260  -18.0212   20.1875 C   0  0  0  0  0  0
  -28.2052  -25.0684   20.6677 C   0  0  0  0  0  0
  -29.6390  -21.2238   16.2212 C   0  0  0  0  0  0
  -29.1444  -20.5538   20.3584 N   0  0  0  0  0  0
  -29.1022  -21.9546   18.4733 N   0  0  0  0  0  0
  -28.5134  -22.9626   20.5287 N   0  0  0  0  0  0
  -29.9644  -15.8414   20.1213 N   0  0  0  0  0  0
  -31.4612  -12.5206   19.1567 H   0  0  0  0  0  0
  -30.3399  -11.4498   19.9544 H   0  0  0  0  0  0
  -29.7692  -11.7087   17.5091 H   0  0  0  0  0  0
  -29.6327  -13.4386   17.7111 H   0  0  0  0  0  0
  -27.8738  -11.2780   18.9104 H   0  0  0  0  0  0
  -27.3662  -12.5182   17.7974 H   0  0  0  0  0  0
  -27.6289  -14.2517   19.4561 H   0  0  0  0  0  0
  -28.7119  -12.1988   21.4472 H   0  0  0  0  0  0
  -28.4414  -13.9021   21.7580 H   0  0  0  0  0  0
  -25.2762   -9.5688   22.4763 H   0  0  0  0  0  0
  -24.0003   -7.4636   22.7472 H   0  0  0  0  0  0
  -21.0845   -8.8773   19.8953 H   0  0  0  0  0  0
  -22.3695  -10.9674   19.6171 H   0  0  0  0  0  0
  -21.2014   -7.6145   23.9711 H   0  0  0  0  0  0
  -21.1481   -6.0523   25.9077 H   0  0  0  0  0  0
  -22.0597   -2.7607   23.2844 H   0  0  0  0  0  0
  -22.4107  -11.9867   22.4807 H   0  0  0  0  0  0
  -21.1092  -13.1216   22.2651 H   0  0  0  0  0  0
  -24.6535  -15.8478   20.5243 H   0  0  0  0  0  0
  -26.2715  -15.6272   20.0836 H   0  0  0  0  0  0
  -26.7183  -32.5438   23.1077 H   0  0  0  0  0  0
  -25.0062  -33.9700   25.0407 H   0  0  0  0  0  0
  -22.7171  -31.2978   21.3965 H   0  0  0  0  0  0
  -23.3755  -35.9618   23.3302 H   0  0  0  0  0  0
  -24.3576  -36.8914   22.2051 H   0  0  0  0  0  0
  -23.7241  -37.6487   23.6670 H   0  0  0  0  0  0
  -26.1005  -31.5461   20.6044 H   0  0  0  0  0  0
  -26.8436  -30.8318   22.0052 H   0  0  0  0  0  0
  -28.1255  -28.9785   21.1787 H   0  0  0  0  0  0
  -25.9981  -25.9034   19.0302 H   0  0  0  0  0  0
  -23.9755  -27.2843   19.0299 H   0  0  0  0  0  0
  -23.7586  -30.5807   19.4007 H   0  0  0  0  0  0
  -22.7603  -29.2347   19.8628 H   0  0  0  0  0  0
  -25.1298  -36.1923   25.0823 H   0  0  0  0  0  0
  -20.9972  -28.3266   24.1407 H   0  0  0  0  0  0
  -20.5709  -26.2287   23.3609 H   0  0  0  0  0  0
  -21.6650  -26.7456   22.1191 H   0  0  0  0  0  0
  -19.6926  -25.6292   21.1242 H   0  0  0  0  0  0
  -19.6701  -27.3194   20.6754 H   0  0  0  0  0  0
  -17.4208  -26.6670   21.4016 H   0  0  0  0  0  0
  -18.0326  -26.0066   22.9017 H   0  0  0  0  0  0
  -19.7940  -30.7267   24.2259 H   0  0  0  0  0  0
  -17.5020  -31.6272   24.5155 H   0  0  0  0  0  0
  -15.5352  -30.2983   23.7668 H   0  0  0  0  0  0
  -15.8670  -28.0820   22.7072 H   0  0  0  0  0  0
  -24.5911  -30.7061   25.7757 H   0  0  0  0  0  0
  -24.8923  -32.2870   26.4875 H   0  0  0  0  0  0
  -25.8057  -30.8870   27.0206 H   0  0  0  0  0  0
  -26.2938  -29.6732   24.1226 H   0  0  0  0  0  0
  -27.4075  -29.7283   25.4686 H   0  0  0  0  0  0
  -27.8796  -30.4286   23.9398 H   0  0  0  0  0  0
  -27.2657  -33.3629   26.2053 H   0  0  0  0  0  0
  -28.3864  -32.6888   25.0310 H   0  0  0  0  0  0
  -28.0728  -31.8462   26.5400 H   0  0  0  0  0  0
  -28.2595  -38.0100   24.7526 H   0  0  0  0  0  0
  -28.1086  -36.2628   24.6283 H   0  0  0  0  0  0
  -27.2298  -37.1440   25.8868 H   0  0  0  0  0  0
  -20.9385  -29.8720   21.6849 H   0  0  0  0  0  0
  -26.0177  -38.2849   24.1406 H   0  0  0  0  0  0
  -29.9676  -18.8569   17.5472 H   0  0  0  0  0  0
  -28.0688  -16.8275   20.4934 H   0  0  0  0  0  0
  -29.1657  -16.8228   21.9147 H   0  0  0  0  0  0
  -31.5502  -16.9674   19.1068 H   0  0  0  0  0  0
  -29.9755  -16.8710   18.2687 H   0  0  0  0  0  0
  -30.0585  -24.1250   21.5010 H   0  0  0  0  0  0
  -30.0395  -24.2428   19.6997 H   0  0  0  0  0  0
  -27.6886  -24.0013   18.7963 H   0  0  0  0  0  0
  -26.5175  -23.7107   20.1364 H   0  0  0  0  0  0
  -30.7240  -18.2556   20.8940 H   0  0  0  0  0  0
  -27.8118  -25.1132   21.6859 H   0  0  0  0  0  0
  -30.0307  -20.3605   15.6833 H   0  0  0  0  0  0
  -30.3410  -22.0475   16.0884 H   0  0  0  0  0  0
  -28.6895  -21.5063   15.7666 H   0  0  0  0  0  0
  1 25  1  0  0  0
  1 30  2  0  0  0
  1 85  1  0  0  0
  2  3  1  0  0  0
  2 25  1  0  0  0
  2 86  1  0  0  0
  2 87  1  0  0  0
  3  4  1  0  0  0
  3 88  1  0  0  0
  3 89  1  0  0  0
  4  5  1  0  0  0
  4 90  1  0  0  0
  4 91  1  0  0  0
  5  6  1  0  0  0
  5 26  1  0  0  0
  5 92  1  0  0  0
  6 25  1  0  0  0
  6 93  1  0  0  0
  6 94  1  0  0  0
  7  8  2  0  0  0
  7 26  1  0  0  0
  7 29  1  0  0  0
  8  9  1  0  0  0
  8 22  1  0  0  0
  9 10  1  0  0  0
  9 27  2  0  0  0
 10 11  2  0  0  0
 10 15  1  0  0  0
 11 12  1  0  0  0
 11 95  1  0  0  0
 12 13  2  0  0  0
 12 96  1  0  0  0
 13 14  1  0  0  0
 13 31  1  0  0  0
 14 15  2  0  0  0
 14 97  1  0  0  0
 15 98  1  0  0  0
 16 17  2  0  0  0
 16 21  1  0  0  0
 16 31  1  0  0  0
 17 18  1  0  0  0
 17 99  1  0  0  0
 18 19  2  0  0  0
 18100  1  0  0  0
 19 20  1  0  0  0
 19 24  1  0  0  0
 20 21  2  0  0  0
 20101  1  0  0  0
 21 23  1  0  0  0
 22 28  1  0  0  0
 22 32  2  0  0  0
 26 27  1  0  0  0
 28102  1  0  0  0
 28103  1  0  0  0
 29104  1  0  0  0
 29105  1  0  0  0
 33 34  1  0  0  0
 33 66  1  0  0  0
 33 70  2  0  0  0
 34 36  1  0  0  0
 34 59  1  0  0  0
 34106  1  0  0  0
 35 44  2  0  0  0
 35 45  1  0  0  0
 35 68  1  0  0  0
 36 56  1  0  0  0
 36107  1  0  0  0
 37 39  1  0  0  0
 37 47  1  0  0  0
 37 66  1  0  0  0
 37108  1  0  0  0
 38 43  2  0  0  0
 38 46  1  0  0  0
 38 47  1  0  0  0
 39 64  1  0  0  0
 39 67  2  0  0  0
 40 52  1  0  0  0
 40 53  2  0  0  0
 40 58  1  0  0  0
 41109  1  0  0  0
 41110  1  0  0  0
 41111  1  0  0  0
 41 48  1  0  0  0
 42 43  1  0  0  0
 42 66  1  0  0  0
 42112  1  0  0  0
 42113  1  0  0  0
 43 44  1  0  0  0
 44114  1  0  0  0
 45 46  2  0  0  0
 45115  1  0  0  0
 46116  1  0  0  0
 47117  1  0  0  0
 47118  1  0  0  0
 48 56  1  0  0  0
 48 65  1  0  0  0
 48119  1  0  0  0
 49 50  1  0  0  0
 49 53  1  0  0  0
 49 64  1  0  0  0
 49120  1  0  0  0
 50 51  1  0  0  0
 50121  1  0  0  0
 50122  1  0  0  0
 51 52  1  0  0  0
 51123  1  0  0  0
 51124  1  0  0  0
 52125  1  0  0  0
 52126  1  0  0  0
 53 54  1  0  0  0
 54 55  2  0  0  0
 54127  1  0  0  0
 55 57  1  0  0  0
 55128  1  0  0  0
 56 69  2  0  0  0
 57 58  2  0  0  0
 57129  1  0  0  0
 58130  1  0  0  0
 59 60  1  0  0  0
 59 61  1  0  0  0
 59 62  1  0  0  0
 60131  1  0  0  0
 60132  1  0  0  0
 60133  1  0  0  0
 61134  1  0  0  0
 61135  1  0  0  0
 61136  1  0  0  0
 62137  1  0  0  0
 62138  1  0  0  0
 62139  1  0  0  0
 63 65  1  0  0  0
 63140  1  0  0  0
 63141  1  0  0  0
 63142  1  0  0  0
 64143  1  0  0  0
 65144  1  0  0  0
 68 80  1  0  0  0
 71 72  2  0  0  0
 71 73  1  0  0  0
 71145  1  0  0  0
 72 82  1  0  0  0
 72 79  1  0  0  0
 73 81  1  0  0  0
 73 83  2  0  0  0
 74 82  2  0  0  0
 74 83  1  0  0  0
 74 84  1  0  0  0
 75 79  1  0  0  0
 75 85  1  0  0  0
 75146  1  0  0  0
 75147  1  0  0  0
 76 79  1  0  0  0
 76 85  1  0  0  0
 76148  1  0  0  0
 76149  1  0  0  0
 77 80  1  0  0  0
 77 84  1  0  0  0
 77150  1  0  0  0
 77151  1  0  0  0
 78 80  1  0  0  0
 78 84  1  0  0  0
 78152  1  0  0  0
 78153  1  0  0  0
 79154  1  0  0  0
 80155  1  0  0  0
 81156  1  0  0  0
 81157  1  0  0  0
 81158  1  0  0  0
M  ISO  4   1 100  68 101  80 101  85 100
M  END
> <chiral flag>
0

> <version>
0

> <s_m_source_file>
/data/baiqing/PycharmProjects/Reinvent-master-3.2/result/LINK_invent/BTK/process_docking_weight1_custom_sum_contain_oxygen_bond_distance_aromatic_linkinvent_7_9_3/rearranged_h_0190.sdf

> <i_m_source_file_index>
70

> <r_mmod_Potential_Energy-OPLS-2005>
-222.979309082031

> <r_mmod_Stretch_Energy-OPLS-2005>
90.8223037719727

> <r_mmod_Bend_Energy-OPLS-2005>
212.762496948242

> <r_mmod_Torsional_Energy-OPLS-2005>
319.780700683594

> <r_mmod_Improper_Torsional_Energy-OPLS-2005>
34.9633712768555

> <r_mmod_Van_der_Waal_Energy-OPLS-2005>
148.609924316406

> <r_mmod_Electrostatic_Energy-OPLS-2005>
-841.223388671875

> <r_mmod_Solvation_Energy-OPLS-2005>
-256.662261962891

> <b_mmod_Minimization_Converged-OPLS-2005>
0

> <r_mmod_RMS_Derivative-OPLS-2005>
1.05738162994385

$$$$
70
                    3D
 Structure written by MMmdl.
151160  0  0  1  0            999 V2000
  -30.5936  -14.8339   20.4259 C   0  0  0  0  0  0
  -30.4278  -12.5264   19.4607 C   0  0  0  0  0  0
  -29.4968  -12.5363   18.2297 C   0  0  0  0  0  0
  -28.0335  -12.3260   18.6602 C   0  0  0  0  0  0
  -27.6318  -13.2397   19.8481 C   0  0  2  0  0  0
  -28.6789  -13.2161   20.9820 C   0  0  0  0  0  0
  -25.2443  -13.8198   20.5720 C   0  0  0  0  0  0
  -24.1750  -13.0427   20.9208 C   0  0  0  0  0  0
  -24.6354  -11.6924   20.8722 C   0  0  0  0  0  0
  -23.9040  -10.4312   21.0404 C   0  0  0  0  0  0
  -24.3607   -9.4232   21.9184 C   0  0  0  0  0  0
  -23.6306   -8.2249   22.0737 C   0  0  0  0  0  0
  -22.4285   -8.0275   21.3532 C   0  0  0  0  0  0
  -21.9915   -9.0235   20.4626 C   0  0  0  0  0  0
  -22.7208  -10.2138   20.3048 C   0  0  0  0  0  0
  -21.6859   -6.0729   22.5273 C   0  0  0  0  0  0
  -21.4014   -6.5632   23.8202 C   0  0  0  0  0  0
  -21.3670   -5.6782   24.9165 C   0  0  0  0  0  0
  -21.6051   -4.3043   24.7220 C   0  0  0  0  0  0
  -21.8826   -3.8144   23.4333 C   0  0  0  0  0  0
  -21.9201   -4.6965   22.3394 C   0  0  0  0  0  0
  -22.7779  -13.5225   21.1862 C   0  0  0  0  0  0
  -22.1666   -4.2153   21.0974 F   0  0  0  0  0  0
  -21.5634   -3.4525   25.7734 F   0  0  0  0  0  0
  -29.9665  -13.6004   20.3821 N   0  0  0  0  0  0
  -26.2883  -12.9424   20.3278 N   0  0  0  0  0  0
  -25.9288  -11.6552   20.5711 N   0  0  0  0  0  0
  -22.0431  -12.8204   22.0417 N   0  0  0  0  0  0
  -25.4116  -15.1926   20.4154 N   0  0  0  0  0  0
  -31.7904  -14.8859   20.1264 O   0  0  0  0  0  0
  -21.6635   -6.8873   21.4237 O   0  0  0  0  0  0
  -22.3480  -14.5546   20.6722 O   0  0  0  0  0  0
  -24.6514  -31.8568   23.2017 C   0  0  0  0  0  0
  -25.9265  -32.4774   23.8368 C   0  0  1  0  0  0
  -27.2032  -27.2054   20.1179 C   0  0  0  0  0  0
  -25.6025  -33.8569   24.2285 N   0  0  0  0  0  0
  -23.4654  -30.4817   21.5587 C   0  0  2  0  0  0
  -24.8850  -28.9212   20.1028 C   0  0  0  0  0  0
  -22.7839  -29.4773   22.5139 C   0  0  0  0  0  0
  -17.9951  -28.1218   22.8710 C   0  0  0  0  0  0
  -24.1497  -36.7304   23.2632 C   0  0  0  0  0  0
  -26.0016  -30.7398   21.3925 C   0  0  0  0  0  0
  -26.0587  -29.3590   20.7298 C   0  0  0  0  0  0
  -27.2146  -28.5071   20.7381 C   0  0  0  0  0  0
  -26.0244  -26.8719   19.4181 C   0  0  0  0  0  0
  -24.8767  -27.6896   19.4314 C   0  0  0  0  0  0
  -23.6611  -29.8145   20.1697 C   0  0  0  0  0  0
  -25.4123  -36.3076   24.0316 C   0  0  1  0  0  0
  -20.4803  -28.4631   22.7749 C   0  0  2  0  0  0
  -20.6921  -26.9643   22.5338 C   0  0  0  0  0  0
  -19.5558  -26.4562   21.6200 C   0  0  0  0  0  0
  -18.1578  -26.7524   22.2040 C   0  0  0  0  0  0
  -19.1163  -28.9002   23.2493 C   0  0  0  0  0  0
  -18.9341  -30.1508   23.8735 C   0  0  0  0  0  0
  -17.6327  -30.6507   24.0785 C   0  0  0  0  0  0
  -25.9085  -34.9452   23.5077 C   0  0  0  0  0  0
  -16.5184  -29.8958   23.6719 C   0  0  0  0  0  0
  -16.6987  -28.6302   23.0838 C   0  0  0  0  0  0
  -26.4568  -31.6583   25.0764 C   0  0  0  0  0  0
  -25.3754  -31.3738   26.1442 C   0  0  0  0  0  0
  -27.0415  -30.2988   24.6271 C   0  0  0  0  0  0
  -27.6078  -32.4344   25.7583 C   0  0  0  0  0  0
  -27.5578  -37.1821   24.8466 C   0  0  0  0  0  0
  -21.4616  -29.4497   22.3938 N   0  0  0  0  0  0
  -26.4296  -37.3774   23.9397 N   0  0  0  0  0  0
  -24.7288  -31.0449   22.1070 N   0  0  0  0  0  0
  -23.4252  -28.7536   23.2782 O   0  0  0  0  0  0
  -28.2593  -26.2544   20.2152 O   0  0  0  0  0  0
  -26.5630  -34.8949   22.4633 O   0  0  0  0  0  0
  -23.5639  -32.1435   23.7246 O   0  0  0  0  0  0
  -28.5912  -22.3490   20.4011 C   0  0  0  0  0  0
  -29.2220  -23.7504   20.1310 C   0  0  0  0  0  0
  -29.8422  -19.9960   19.5019 C   0  0  0  0  0  0
  -26.9162  -23.9125   20.4298 C   0  0  0  0  0  0
  -28.8287  -19.6428   21.2490 C   0  0  0  0  0  0
  -29.4375  -20.9732   20.6627 C   0  0  2  0  0  0
  -28.0711  -24.7837   19.8262 C   0  0  1  0  0  0
  -30.3725  -17.4444   20.1892 C   0  0  0  0  0  0
  -27.3227  -22.4732   20.5079 N   0  0  0  0  0  0
  -29.6412  -18.8225   20.2705 N   0  0  0  0  0  0
  -29.8614  -16.0247   20.5573 N   0  0  0  0  0  0
  -30.4268  -24.0294   20.1556 O   0  0  0  0  0  0
  -30.3178  -20.1268   18.3886 O   0  0  0  0  0  0
  -31.4615  -12.6663   19.1421 H   0  0  0  0  0  0
  -30.4006  -11.5570   19.9575 H   0  0  0  0  0  0
  -29.7873  -11.7621   17.5166 H   0  0  0  0  0  0
  -29.5852  -13.4869   17.7008 H   0  0  0  0  0  0
  -27.9242  -11.2781   18.9358 H   0  0  0  0  0  0
  -27.3637  -12.4882   17.8162 H   0  0  0  0  0  0
  -27.6106  -14.2545   19.4495 H   0  0  0  0  0  0
  -28.7458  -12.2266   21.4321 H   0  0  0  0  0  0
  -28.4025  -13.9062   21.7814 H   0  0  0  0  0  0
  -25.2767   -9.5704   22.4731 H   0  0  0  0  0  0
  -24.0032   -7.4636   22.7442 H   0  0  0  0  0  0
  -21.0862   -8.8729   19.8917 H   0  0  0  0  0  0
  -22.3668  -10.9662   19.6136 H   0  0  0  0  0  0
  -21.1986   -7.6142   23.9700 H   0  0  0  0  0  0
  -21.1487   -6.0508   25.9059 H   0  0  0  0  0  0
  -22.0601   -2.7610   23.2819 H   0  0  0  0  0  0
  -22.4086  -11.9921   22.4878 H   0  0  0  0  0  0
  -21.0995  -13.1129   22.2541 H   0  0  0  0  0  0
  -24.6340  -15.8360   20.5015 H   0  0  0  0  0  0
  -26.2576  -15.6392   20.0900 H   0  0  0  0  0  0
  -26.7308  -32.5374   23.1089 H   0  0  0  0  0  0
  -25.0172  -33.9710   25.0427 H   0  0  0  0  0  0
  -22.7738  -31.3149   21.4115 H   0  0  0  0  0  0
  -23.3752  -35.9645   23.3304 H   0  0  0  0  0  0
  -24.3585  -36.8926   22.2046 H   0  0  0  0  0  0
  -23.7274  -37.6510   23.6678 H   0  0  0  0  0  0
  -26.1409  -31.4949   20.6198 H   0  0  0  0  0  0
  -26.8802  -30.7899   22.0240 H   0  0  0  0  0  0
  -28.0981  -28.8232   21.2735 H   0  0  0  0  0  0
  -25.9560  -25.9561   18.8516 H   0  0  0  0  0  0
  -23.9891  -27.3642   18.9053 H   0  0  0  0  0  0
  -23.7769  -30.5927   19.4155 H   0  0  0  0  0  0
  -22.7720  -29.2506   19.8779 H   0  0  0  0  0  0
  -25.1313  -36.1917   25.0813 H   0  0  0  0  0  0
  -20.1602  -28.6814   21.7551 H   0  0  0  0  0  0
  -20.6790  -26.4333   23.4858 H   0  0  0  0  0  0
  -21.6634  -26.7666   22.0800 H   0  0  0  0  0  0
  -19.6609  -25.3876   21.4453 H   0  0  0  0  0  0
  -19.6445  -26.9145   20.6321 H   0  0  0  0  0  0
  -17.4027  -26.6313   21.4262 H   0  0  0  0  0  0
  -17.9342  -26.0013   22.9620 H   0  0  0  0  0  0
  -19.7910  -30.7529   24.1440 H   0  0  0  0  0  0
  -17.4939  -31.6223   24.5338 H   0  0  0  0  0  0
  -15.5211  -30.2830   23.8214 H   0  0  0  0  0  0
  -15.8312  -28.0534   22.7875 H   0  0  0  0  0  0
  -24.5935  -30.7099   25.7750 H   0  0  0  0  0  0
  -24.8950  -32.2906   26.4868 H   0  0  0  0  0  0
  -25.8042  -30.8895   27.0214 H   0  0  0  0  0  0
  -26.2994  -29.6709   24.1318 H   0  0  0  0  0  0
  -27.4091  -29.7296   25.4813 H   0  0  0  0  0  0
  -27.8891  -30.4262   23.9532 H   0  0  0  0  0  0
  -27.2638  -33.3646   26.2134 H   0  0  0  0  0  0
  -28.3922  -32.6898   25.0445 H   0  0  0  0  0  0
  -28.0698  -31.8469   26.5524 H   0  0  0  0  0  0
  -28.2607  -38.0109   24.7487 H   0  0  0  0  0  0
  -28.1076  -36.2635   24.6335 H   0  0  0  0  0  0
  -27.2302  -37.1513   25.8874 H   0  0  0  0  0  0
  -21.0851  -30.1699   21.7928 H   0  0  0  0  0  0
  -26.0170  -38.2854   24.1361 H   0  0  0  0  0  0
  -26.0126  -24.0027   19.8235 H   0  0  0  0  0  0
  -26.6532  -24.2813   21.4233 H   0  0  0  0  0  0
  -27.7483  -19.5556   21.0931 H   0  0  0  0  0  0
  -29.0731  -19.4811   22.2996 H   0  0  0  0  0  0
  -30.3138  -21.2538   21.2500 H   0  0  0  0  0  0
  -27.9666  -24.7729   18.7373 H   0  0  0  0  0  0
  -30.6779  -17.3510   19.1431 H   0  0  0  0  0  0
  -31.3095  -17.5874   20.7284 H   0  0  0  0  0  0
  -28.8883  -15.9365   20.8073 H   0  0  0  0  0  0
  1 25  1  0  0  0
  1 30  2  0  0  0
  1 81  1  0  0  0
  2  3  1  0  0  0
  2 25  1  0  0  0
  2 84  1  0  0  0
  2 85  1  0  0  0
  3  4  1  0  0  0
  3 86  1  0  0  0
  3 87  1  0  0  0
  4  5  1  0  0  0
  4 88  1  0  0  0
  4 89  1  0  0  0
  5  6  1  0  0  0
  5 26  1  0  0  0
  5 90  1  0  0  0
  6 25  1  0  0  0
  6 91  1  0  0  0
  6 92  1  0  0  0
  7  8  2  0  0  0
  7 26  1  0  0  0
  7 29  1  0  0  0
  8  9  1  0  0  0
  8 22  1  0  0  0
  9 10  1  0  0  0
  9 27  2  0  0  0
 10 11  2  0  0  0
 10 15  1  0  0  0
 11 12  1  0  0  0
 11 93  1  0  0  0
 12 13  2  0  0  0
 12 94  1  0  0  0
 13 14  1  0  0  0
 13 31  1  0  0  0
 14 15  2  0  0  0
 14 95  1  0  0  0
 15 96  1  0  0  0
 16 17  2  0  0  0
 16 21  1  0  0  0
 16 31  1  0  0  0
 17 18  1  0  0  0
 17 97  1  0  0  0
 18 19  2  0  0  0
 18 98  1  0  0  0
 19 20  1  0  0  0
 19 24  1  0  0  0
 20 21  2  0  0  0
 20 99  1  0  0  0
 21 23  1  0  0  0
 22 28  1  0  0  0
 22 32  2  0  0  0
 26 27  1  0  0  0
 28100  1  0  0  0
 28101  1  0  0  0
 29102  1  0  0  0
 29103  1  0  0  0
 33 34  1  0  0  0
 33 66  1  0  0  0
 33 70  2  0  0  0
 34 36  1  0  0  0
 34 59  1  0  0  0
 34104  1  0  0  0
 35 44  2  0  0  0
 35 45  1  0  0  0
 35 68  1  0  0  0
 36 56  1  0  0  0
 36105  1  0  0  0
 37 39  1  0  0  0
 37 47  1  0  0  0
 37 66  1  0  0  0
 37106  1  0  0  0
 38 43  2  0  0  0
 38 46  1  0  0  0
 38 47  1  0  0  0
 39 64  1  0  0  0
 39 67  2  0  0  0
 40 52  1  0  0  0
 40 53  2  0  0  0
 40 58  1  0  0  0
 41107  1  0  0  0
 41108  1  0  0  0
 41109  1  0  0  0
 41 48  1  0  0  0
 42 43  1  0  0  0
 42 66  1  0  0  0
 42110  1  0  0  0
 42111  1  0  0  0
 43 44  1  0  0  0
 44112  1  0  0  0
 45 46  2  0  0  0
 45113  1  0  0  0
 46114  1  0  0  0
 47115  1  0  0  0
 47116  1  0  0  0
 48 56  1  0  0  0
 48 65  1  0  0  0
 48117  1  0  0  0
 49 50  1  0  0  0
 49 53  1  0  0  0
 49 64  1  0  0  0
 49118  1  0  0  0
 50 51  1  0  0  0
 50119  1  0  0  0
 50120  1  0  0  0
 51 52  1  0  0  0
 51121  1  0  0  0
 51122  1  0  0  0
 52123  1  0  0  0
 52124  1  0  0  0
 53 54  1  0  0  0
 54 55  2  0  0  0
 54125  1  0  0  0
 55 57  1  0  0  0
 55126  1  0  0  0
 56 69  2  0  0  0
 57 58  2  0  0  0
 57127  1  0  0  0
 58128  1  0  0  0
 59 60  1  0  0  0
 59 61  1  0  0  0
 59 62  1  0  0  0
 60129  1  0  0  0
 60130  1  0  0  0
 60131  1  0  0  0
 61132  1  0  0  0
 61133  1  0  0  0
 61134  1  0  0  0
 62135  1  0  0  0
 62136  1  0  0  0
 62137  1  0  0  0
 63 65  1  0  0  0
 63138  1  0  0  0
 63139  1  0  0  0
 63140  1  0  0  0
 64141  1  0  0  0
 65142  1  0  0  0
 68 77  1  0  0  0
 71 72  1  0  0  0
 71 79  2  0  0  0
 71 76  1  0  0  0
 72 77  1  0  0  0
 72 82  2  0  0  0
 73 76  1  0  0  0
 73 80  1  0  0  0
 73 83  2  0  0  0
 74 77  1  0  0  0
 74 79  1  0  0  0
 74143  1  0  0  0
 74144  1  0  0  0
 75 76  1  0  0  0
 75 80  1  0  0  0
 75145  1  0  0  0
 75146  1  0  0  0
 76147  1  0  0  0
 77148  1  0  0  0
 78 80  1  0  0  0
 78 81  1  0  0  0
 78149  1  0  0  0
 78150  1  0  0  0
 81151  1  0  0  0
M  ISO  4   1 100  68 101  77 101  81 100
M  END
> <chiral flag>
0

> <version>
0

> <s_m_source_file>
/data/baiqing/PycharmProjects/Reinvent-master-3.2/result/LINK_invent/BTK/process_docking_weight1_custom_sum_contain_oxygen_bond_distance_aromatic_linkinvent_7_9_3/rearranged_h_0190.sdf

> <i_m_source_file_index>
71

> <r_mmod_Potential_Energy-OPLS-2005>
467.139282226562

> <r_mmod_Stretch_Energy-OPLS-2005>
155.995407104492

> <r_mmod_Bend_Energy-OPLS-2005>
380.266326904297

> <r_mmod_Torsional_Energy-OPLS-2005>
248.991592407227

> <r_mmod_Improper_Torsional_Energy-OPLS-2005>
10.3326826095581

> <r_mmod_Van_der_Waal_Energy-OPLS-2005>
118.144638061523

> <r_mmod_Electrostatic_Energy-OPLS-2005>
-331.311737060547

> <r_mmod_Solvation_Energy-OPLS-2005>
-266.880981445312

> <b_mmod_Minimization_Converged-OPLS-2005>
0

> <r_mmod_RMS_Derivative-OPLS-2005>
5.44025039672852

$$$$
71
                    3D
 Structure written by MMmdl.
166176  0  0  1  0            999 V2000
  -30.6220  -14.7999   20.4476 C   0  0  0  0  0  0
  -30.4315  -12.4918   19.4872 C   0  0  0  0  0  0
  -29.5171  -12.5187   18.2427 C   0  0  0  0  0  0
  -28.0409  -12.3432   18.6490 C   0  0  0  0  0  0
  -27.6396  -13.2457   19.8465 C   0  0  2  0  0  0
  -28.6858  -13.2181   20.9836 C   0  0  0  0  0  0
  -25.2507  -13.8221   20.5741 C   0  0  0  0  0  0
  -24.1801  -13.0455   20.9215 C   0  0  0  0  0  0
  -24.6414  -11.6942   20.8728 C   0  0  0  0  0  0
  -23.9099  -10.4322   21.0385 C   0  0  0  0  0  0
  -24.3645   -9.4240   21.9167 C   0  0  0  0  0  0
  -23.6322   -8.2274   22.0739 C   0  0  0  0  0  0
  -22.4303   -8.0322   21.3538 C   0  0  0  0  0  0
  -21.9943   -9.0303   20.4641 C   0  0  0  0  0  0
  -22.7270  -10.2175   20.3038 C   0  0  0  0  0  0
  -21.6877   -6.0772   22.5275 C   0  0  0  0  0  0
  -21.4033   -6.5657   23.8220 C   0  0  0  0  0  0
  -21.3653   -5.6797   24.9165 C   0  0  0  0  0  0
  -21.6049   -4.3061   24.7206 C   0  0  0  0  0  0
  -21.8824   -3.8171   23.4319 C   0  0  0  0  0  0
  -21.9204   -4.6994   22.3390 C   0  0  0  0  0  0
  -22.7824  -13.5224   21.1874 C   0  0  0  0  0  0
  -22.1643   -4.2172   21.0959 F   0  0  0  0  0  0
  -21.5644   -3.4536   25.7710 F   0  0  0  0  0  0
  -29.9813  -13.5759   20.3955 N   0  0  0  0  0  0
  -26.2942  -12.9458   20.3280 N   0  0  0  0  0  0
  -25.9344  -11.6594   20.5724 N   0  0  0  0  0  0
  -22.0453  -12.8234   22.0410 N   0  0  0  0  0  0
  -25.4214  -15.1953   20.4245 N   0  0  0  0  0  0
  -31.8162  -14.8580   20.1485 O   0  0  0  0  0  0
  -21.6647   -6.8926   21.4249 O   0  0  0  0  0  0
  -22.3504  -14.5537   20.6709 O   0  0  0  0  0  0
  -24.6405  -31.8497   23.1931 C   0  0  0  0  0  0
  -25.9204  -32.4720   23.8294 C   0  0  1  0  0  0
  -27.2221  -27.1967   20.1335 C   0  0  0  0  0  0
  -25.5971  -33.8523   24.2214 N   0  0  0  0  0  0
  -23.4400  -30.4733   21.5383 C   0  0  2  0  0  0
  -24.8896  -28.9147   20.1089 C   0  0  0  0  0  0
  -22.7545  -29.4586   22.4872 C   0  0  0  0  0  0
  -18.0301  -28.1400   22.8475 C   0  0  0  0  0  0
  -24.1498  -36.7268   23.2638 C   0  0  0  0  0  0
  -25.9945  -30.7444   21.3820 C   0  0  0  0  0  0
  -26.0673  -29.3628   20.7210 C   0  0  0  0  0  0
  -27.2367  -28.5205   20.7159 C   0  0  0  0  0  0
  -26.0134  -26.8423   19.4851 C   0  0  0  0  0  0
  -24.8727  -27.6660   19.4772 C   0  0  0  0  0  0
  -23.6626  -29.8081   20.1553 C   0  0  0  0  0  0
  -25.4121  -36.3043   24.0320 C   0  0  1  0  0  0
  -20.5920  -28.3722   23.1238 C   0  0  2  0  0  0
  -20.6789  -26.9427   22.5395 C   0  0  0  0  0  0
  -19.5759  -26.6380   21.5204 C   0  0  0  0  0  0
  -18.1942  -26.7941   22.1620 C   0  0  0  0  0  0
  -19.1562  -28.8874   23.2851 C   0  0  0  0  0  0
  -18.9479  -30.1473   23.8868 C   0  0  0  0  0  0
  -17.6476  -30.6594   24.0556 C   0  0  0  0  0  0
  -25.9067  -34.9420   23.5065 C   0  0  0  0  0  0
  -16.5362  -29.9087   23.6333 C   0  0  0  0  0  0
  -16.7286  -28.6512   23.0345 C   0  0  0  0  0  0
  -26.4533  -31.6572   25.0716 C   0  0  0  0  0  0
  -25.3729  -31.3742   26.1414 C   0  0  0  0  0  0
  -27.0397  -30.2975   24.6267 C   0  0  0  0  0  0
  -27.6072  -32.4325   25.7500 C   0  0  0  0  0  0
  -27.5577  -37.1783   24.8457 C   0  0  0  0  0  0
  -21.4248  -29.3053   22.3617 N   0  0  0  0  0  0
  -26.4281  -37.3753   23.9417 N   0  0  0  0  0  0
  -24.7115  -31.0415   22.0938 N   0  0  0  0  0  0
  -23.4204  -28.8105   23.2987 O   0  0  0  0  0  0
  -28.2862  -26.2363   20.1989 O   0  0  0  0  0  0
  -26.5637  -34.8910   22.4630 O   0  0  0  0  0  0
  -23.5535  -32.1345   23.7184 O   0  0  0  0  0  0
  -30.8804  -22.4612   20.4504 C   0  0  0  0  0  0
  -30.3631  -23.7355   20.3420 C   0  0  0  0  0  0
  -29.7890  -21.5474   20.4184 C   0  0  0  0  0  0
  -31.3025  -25.7487   18.9601 C   0  0  0  0  0  0
  -32.4810  -25.1044   19.6555 C   0  0  0  0  0  0
  -28.1580  -18.7404   19.5765 C   0  0  0  0  0  0
  -28.4828  -18.1327   18.1952 C   0  0  0  0  0  0
  -30.7973  -17.4791   18.7355 C   0  0  0  0  0  0
  -31.1019  -25.0317   20.2723 C   0  0  0  0  0  0
  -29.3775  -18.7689   20.5244 C   0  0  1  0  0  0
  -30.3180  -17.4350   20.2227 C   0  0  1  0  0  0
  -27.9222  -24.7802   20.0973 C   0  0  0  0  0  0
  -28.6429  -22.2828   20.3215 N   0  0  0  0  0  0
  -28.9778  -23.6641   20.2847 N   0  0  0  0  0  0
  -30.1023  -20.1164   20.4333 N   0  0  0  0  0  0
  -29.8850  -15.9844   20.5711 N   0  0  0  0  0  0
  -29.9155  -18.3006   17.8752 N   0  3  0  0  0  0
  -31.4738  -12.6108   19.1870 H   0  0  0  0  0  0
  -30.3764  -11.5237   19.9896 H   0  0  0  0  0  0
  -29.8095  -11.7328   17.5472 H   0  0  0  0  0  0
  -29.6474  -13.4653   17.7130 H   0  0  0  0  0  0
  -27.8885  -11.2952   18.9086 H   0  0  0  0  0  0
  -27.3898  -12.5436   17.7965 H   0  0  0  0  0  0
  -27.6237  -14.2618   19.4546 H   0  0  0  0  0  0
  -28.7314  -12.2354   21.4552 H   0  0  0  0  0  0
  -28.4168  -13.9255   21.7690 H   0  0  0  0  0  0
  -25.2770   -9.5736   22.4752 H   0  0  0  0  0  0
  -24.0055   -7.4669   22.7462 H   0  0  0  0  0  0
  -21.0881   -8.8830   19.8939 H   0  0  0  0  0  0
  -22.3724  -10.9730   19.6174 H   0  0  0  0  0  0
  -21.2003   -7.6161   23.9720 H   0  0  0  0  0  0
  -21.1465   -6.0514   25.9069 H   0  0  0  0  0  0
  -22.0602   -2.7631   23.2801 H   0  0  0  0  0  0
  -22.4077  -11.9918   22.4831 H   0  0  0  0  0  0
  -21.1080  -13.1299   22.2609 H   0  0  0  0  0  0
  -24.6568  -15.8504   20.5431 H   0  0  0  0  0  0
  -26.2795  -15.6387   20.1283 H   0  0  0  0  0  0
  -26.7273  -32.5343   23.1030 H   0  0  0  0  0  0
  -25.0126  -33.9643   25.0366 H   0  0  0  0  0  0
  -22.7401  -31.2981   21.3889 H   0  0  0  0  0  0
  -23.3762  -35.9598   23.3272 H   0  0  0  0  0  0
  -24.3581  -36.8920   22.2055 H   0  0  0  0  0  0
  -23.7241  -37.6457   23.6683 H   0  0  0  0  0  0
  -26.1418  -31.5031   20.6120 H   0  0  0  0  0  0
  -26.8682  -30.7927   22.0207 H   0  0  0  0  0  0
  -28.1373  -28.8615   21.2081 H   0  0  0  0  0  0
  -25.8952  -25.8962   18.9837 H   0  0  0  0  0  0
  -23.9746  -27.3176   18.9858 H   0  0  0  0  0  0
  -23.7922  -30.5850   19.4016 H   0  0  0  0  0  0
  -22.7792  -29.2474   19.8459 H   0  0  0  0  0  0
  -25.1304  -36.1869   25.0810 H   0  0  0  0  0  0
  -21.0019  -28.3308   24.1357 H   0  0  0  0  0  0
  -20.5687  -26.2328   23.3613 H   0  0  0  0  0  0
  -21.6655  -26.7436   22.1188 H   0  0  0  0  0  0
  -19.6919  -25.6282   21.1248 H   0  0  0  0  0  0
  -19.6707  -27.3181   20.6731 H   0  0  0  0  0  0
  -17.4212  -26.6681   21.4023 H   0  0  0  0  0  0
  -18.0352  -26.0097   22.9033 H   0  0  0  0  0  0
  -19.7951  -30.7302   24.2224 H   0  0  0  0  0  0
  -17.5024  -31.6275   24.5166 H   0  0  0  0  0  0
  -15.5362  -30.2973   23.7686 H   0  0  0  0  0  0
  -15.8689  -28.0825   22.7060 H   0  0  0  0  0  0
  -24.5914  -30.7087   25.7715 H   0  0  0  0  0  0
  -24.8916  -32.2928   26.4788 H   0  0  0  0  0  0
  -25.8027  -30.8933   27.0212 H   0  0  0  0  0  0
  -26.3015  -29.6691   24.1271 H   0  0  0  0  0  0
  -27.4020  -29.7269   25.4824 H   0  0  0  0  0  0
  -27.8911  -30.4206   23.9571 H   0  0  0  0  0  0
  -27.2668  -33.3635   26.2044 H   0  0  0  0  0  0
  -28.3910  -32.6864   25.0352 H   0  0  0  0  0  0
  -28.0721  -31.8470   26.5444 H   0  0  0  0  0  0
  -28.2565  -38.0109   24.7534 H   0  0  0  0  0  0
  -28.1103  -36.2633   24.6252 H   0  0  0  0  0  0
  -27.2298  -37.1394   25.8860 H   0  0  0  0  0  0
  -20.9447  -29.8783   21.6826 H   0  0  0  0  0  0
  -26.0148  -38.2818   24.1435 H   0  0  0  0  0  0
  -31.9330  -22.2250   20.5130 H   0  0  0  0  0  0
  -30.9216  -25.2698   18.0590 H   0  0  0  0  0  0
  -31.2422  -26.8354   18.9723 H   0  0  0  0  0  0
  -33.2101  -25.7576   20.1289 H   0  0  0  0  0  0
  -32.8905  -24.2035   19.1995 H   0  0  0  0  0  0
  -27.3533  -18.1570   20.0270 H   0  0  0  0  0  0
  -27.7470  -19.7425   19.4541 H   0  0  0  0  0  0
  -27.8692  -18.5972   17.4240 H   0  0  0  0  0  0
  -28.2412  -17.0689   18.1840 H   0  0  0  0  0  0
  -30.8786  -16.4886   18.2880 H   0  0  0  0  0  0
  -31.7994  -17.9085   18.6839 H   0  0  0  0  0  0
  -30.9214  -25.6376   21.1587 H   0  0  0  0  0  0
  -29.0134  -18.7019   21.5512 H   0  0  0  0  0  0
  -31.2106  -17.5607   20.8377 H   0  0  0  0  0  0
  -27.1348  -24.5819   20.8265 H   0  0  0  0  0  0
  -27.5202  -24.5939   19.1039 H   0  0  0  0  0  0
  -31.0959  -19.9946   20.6093 H   0  0  0  0  0  0
  -28.9158  -15.8623   20.8227 H   0  0  0  0  0  0
  -30.1443  -19.2709   18.0263 H   0  0  0  0  0  0
  -30.0903  -18.0811   16.9072 H   0  0  0  0  0  0
  1 25  1  0  0  0
  1 30  2  0  0  0
  1 86  1  0  0  0
  2  3  1  0  0  0
  2 25  1  0  0  0
  2 88  1  0  0  0
  2 89  1  0  0  0
  3  4  1  0  0  0
  3 90  1  0  0  0
  3 91  1  0  0  0
  4  5  1  0  0  0
  4 92  1  0  0  0
  4 93  1  0  0  0
  5  6  1  0  0  0
  5 26  1  0  0  0
  5 94  1  0  0  0
  6 25  1  0  0  0
  6 95  1  0  0  0
  6 96  1  0  0  0
  7  8  2  0  0  0
  7 26  1  0  0  0
  7 29  1  0  0  0
  8  9  1  0  0  0
  8 22  1  0  0  0
  9 10  1  0  0  0
  9 27  2  0  0  0
 10 11  2  0  0  0
 10 15  1  0  0  0
 11 12  1  0  0  0
 11 97  1  0  0  0
 12 13  2  0  0  0
 12 98  1  0  0  0
 13 14  1  0  0  0
 13 31  1  0  0  0
 14 15  2  0  0  0
 14 99  1  0  0  0
 15100  1  0  0  0
 16 17  2  0  0  0
 16 21  1  0  0  0
 16 31  1  0  0  0
 17 18  1  0  0  0
 17101  1  0  0  0
 18 19  2  0  0  0
 18102  1  0  0  0
 19 20  1  0  0  0
 19 24  1  0  0  0
 20 21  2  0  0  0
 20103  1  0  0  0
 21 23  1  0  0  0
 22 28  1  0  0  0
 22 32  2  0  0  0
 26 27  1  0  0  0
 28104  1  0  0  0
 28105  1  0  0  0
 29106  1  0  0  0
 29107  1  0  0  0
 33 34  1  0  0  0
 33 66  1  0  0  0
 33 70  2  0  0  0
 34 36  1  0  0  0
 34 59  1  0  0  0
 34108  1  0  0  0
 35 44  2  0  0  0
 35 45  1  0  0  0
 35 68  1  0  0  0
 36 56  1  0  0  0
 36109  1  0  0  0
 37 39  1  0  0  0
 37 47  1  0  0  0
 37 66  1  0  0  0
 37110  1  0  0  0
 38 43  2  0  0  0
 38 46  1  0  0  0
 38 47  1  0  0  0
 39 64  1  0  0  0
 39 67  2  0  0  0
 40 52  1  0  0  0
 40 53  2  0  0  0
 40 58  1  0  0  0
 41111  1  0  0  0
 41112  1  0  0  0
 41113  1  0  0  0
 41 48  1  0  0  0
 42 43  1  0  0  0
 42 66  1  0  0  0
 42114  1  0  0  0
 42115  1  0  0  0
 43 44  1  0  0  0
 44116  1  0  0  0
 45 46  2  0  0  0
 45117  1  0  0  0
 46118  1  0  0  0
 47119  1  0  0  0
 47120  1  0  0  0
 48 56  1  0  0  0
 48 65  1  0  0  0
 48121  1  0  0  0
 49 50  1  0  0  0
 49 53  1  0  0  0
 49 64  1  0  0  0
 49122  1  0  0  0
 50 51  1  0  0  0
 50123  1  0  0  0
 50124  1  0  0  0
 51 52  1  0  0  0
 51125  1  0  0  0
 51126  1  0  0  0
 52127  1  0  0  0
 52128  1  0  0  0
 53 54  1  0  0  0
 54 55  2  0  0  0
 54129  1  0  0  0
 55 57  1  0  0  0
 55130  1  0  0  0
 56 69  2  0  0  0
 57 58  2  0  0  0
 57131  1  0  0  0
 58132  1  0  0  0
 59 60  1  0  0  0
 59 61  1  0  0  0
 59 62  1  0  0  0
 60133  1  0  0  0
 60134  1  0  0  0
 60135  1  0  0  0
 61136  1  0  0  0
 61137  1  0  0  0
 61138  1  0  0  0
 62139  1  0  0  0
 62140  1  0  0  0
 62141  1  0  0  0
 63 65  1  0  0  0
 63142  1  0  0  0
 63143  1  0  0  0
 63144  1  0  0  0
 64145  1  0  0  0
 65146  1  0  0  0
 68 82  1  0  0  0
 71 72  2  0  0  0
 71 73  1  0  0  0
 71147  1  0  0  0
 72 84  1  0  0  0
 72 79  1  0  0  0
 73 83  2  0  0  0
 73 85  1  0  0  0
 74 75  1  0  0  0
 74 79  1  0  0  0
 74148  1  0  0  0
 74149  1  0  0  0
 75 79  1  0  0  0
 75150  1  0  0  0
 75151  1  0  0  0
 76 77  1  0  0  0
 76 80  1  0  0  0
 76152  1  0  0  0
 76153  1  0  0  0
 77 87  1  0  0  0
 77154  1  0  0  0
 77155  1  0  0  0
 78 81  1  0  0  0
 78 87  1  0  0  0
 78156  1  0  0  0
 78157  1  0  0  0
 79158  1  0  0  0
 80 81  1  0  0  0
 80 85  1  0  0  0
 80159  1  0  0  0
 81 86  1  0  0  0
 81160  1  0  0  0
 82 84  1  0  0  0
 82161  1  0  0  0
 82162  1  0  0  0
 83 84  1  0  0  0
 85163  1  0  0  0
 86164  1  0  0  0
 87165  1  0  0  0
 87166  1  0  0  0
M  CHG  1  87   1
M  ISO  4   1 100  68 101  82 101  86 100
M  END
> <chiral flag>
0

> <version>
0

> <s_m_source_file>
/data/baiqing/PycharmProjects/Reinvent-master-3.2/result/LINK_invent/BTK/process_docking_weight1_custom_sum_contain_oxygen_bond_distance_aromatic_linkinvent_7_9_3/rearranged_h_0190.sdf

> <i_m_source_file_index>
72

> <r_mmod_Potential_Energy-OPLS-2005>
17.8544330596924

> <r_mmod_Stretch_Energy-OPLS-2005>
168.415786743164

> <r_mmod_Bend_Energy-OPLS-2005>
248.962158203125

> <r_mmod_Torsional_Energy-OPLS-2005>
315.379638671875

> <r_mmod_Improper_Torsional_Energy-OPLS-2005>
6.92142248153687

> <r_mmod_Van_der_Waal_Energy-OPLS-2005>
121.928657531738

> <r_mmod_Electrostatic_Energy-OPLS-2005>
-496.564117431641

> <r_mmod_Solvation_Energy-OPLS-2005>
-469.037384033203

> <b_mmod_Minimization_Converged-OPLS-2005>
0

> <r_mmod_RMS_Derivative-OPLS-2005>
2.71557855606079

$$$$
72
                    3D
 Structure written by MMmdl.
154163  0  0  1  0            999 V2000
  -30.5174  -15.0499   20.4396 C   0  0  0  0  0  0
  -30.4406  -12.6650   19.5038 C   0  0  0  0  0  0
  -29.5243  -12.5505   18.2620 C   0  0  0  0  0  0
  -28.0613  -12.3154   18.6808 C   0  0  0  0  0  0
  -27.6248  -13.2544   19.8341 C   0  0  2  0  0  0
  -28.6652  -13.3088   20.9694 C   0  0  0  0  0  0
  -25.2457  -13.8224   20.5732 C   0  0  0  0  0  0
  -24.1772  -13.0441   20.9228 C   0  0  0  0  0  0
  -24.6396  -11.6926   20.8750 C   0  0  0  0  0  0
  -23.9082  -10.4295   21.0404 C   0  0  0  0  0  0
  -24.3632   -9.4208   21.9180 C   0  0  0  0  0  0
  -23.6304   -8.2244   22.0750 C   0  0  0  0  0  0
  -22.4284   -8.0284   21.3543 C   0  0  0  0  0  0
  -21.9922   -9.0259   20.4645 C   0  0  0  0  0  0
  -22.7254  -10.2135   20.3054 C   0  0  0  0  0  0
  -21.6858   -6.0739   22.5280 C   0  0  0  0  0  0
  -21.4017   -6.5641   23.8215 C   0  0  0  0  0  0
  -21.3659   -5.6791   24.9175 C   0  0  0  0  0  0
  -21.6044   -4.3054   24.7224 C   0  0  0  0  0  0
  -21.8820   -3.8149   23.4344 C   0  0  0  0  0  0
  -21.9194   -4.6967   22.3401 C   0  0  0  0  0  0
  -22.7793  -13.5210   21.1883 C   0  0  0  0  0  0
  -22.1661   -4.2153   21.0978 F   0  0  0  0  0  0
  -21.5628   -3.4536   25.7735 F   0  0  0  0  0  0
  -29.9239  -13.7758   20.3674 N   0  0  0  0  0  0
  -26.2868  -12.9458   20.3235 N   0  0  0  0  0  0
  -25.9327  -11.6583   20.5722 N   0  0  0  0  0  0
  -22.0448  -12.8194   22.0438 N   0  0  0  0  0  0
  -25.4161  -15.1955   20.4198 N   0  0  0  0  0  0
  -31.7115  -15.0926   20.1172 O   0  0  0  0  0  0
  -21.6644   -6.8883   21.4243 O   0  0  0  0  0  0
  -22.3472  -14.5515   20.6729 O   0  0  0  0  0  0
  -24.6506  -31.8369   23.1819 C   0  0  0  0  0  0
  -25.9244  -32.4657   23.8238 C   0  0  1  0  0  0
  -27.2174  -27.0624   20.1598 C   0  0  0  0  0  0
  -25.5963  -33.8467   24.2150 N   0  0  0  0  0  0
  -23.4583  -30.4540   21.5289 C   0  0  2  0  0  0
  -24.9092  -28.8676   20.1105 C   0  0  0  0  0  0
  -22.7604  -29.4512   22.4830 C   0  0  0  0  0  0
  -18.0310  -28.1402   22.8474 C   0  0  0  0  0  0
  -24.1492  -36.7238   23.2642 C   0  0  0  0  0  0
  -26.0198  -30.6868   21.3921 C   0  0  0  0  0  0
  -26.0898  -29.2908   20.7338 C   0  0  0  0  0  0
  -27.2431  -28.4065   20.7379 C   0  0  0  0  0  0
  -26.0085  -26.7598   19.4946 C   0  0  0  0  0  0
  -24.8859  -27.6182   19.4736 C   0  0  0  0  0  0
  -23.6894  -29.7788   20.1506 C   0  0  0  0  0  0
  -25.4126  -36.3009   24.0309 C   0  0  1  0  0  0
  -20.5928  -28.3737   23.1216 C   0  0  2  0  0  0
  -20.6792  -26.9432   22.5402 C   0  0  0  0  0  0
  -19.5765  -26.6381   21.5213 C   0  0  0  0  0  0
  -18.1948  -26.7937   22.1624 C   0  0  0  0  0  0
  -19.1569  -28.8888   23.2835 C   0  0  0  0  0  0
  -18.9482  -30.1481   23.8866 C   0  0  0  0  0  0
  -17.6478  -30.6595   24.0557 C   0  0  0  0  0  0
  -25.9085  -34.9387   23.5044 C   0  0  0  0  0  0
  -16.5369  -29.9085   23.6338 C   0  0  0  0  0  0
  -16.7294  -28.6504   23.0361 C   0  0  0  0  0  0
  -26.4539  -31.6554   25.0713 C   0  0  0  0  0  0
  -25.3703  -31.3769   26.1397 C   0  0  0  0  0  0
  -27.0411  -30.2936   24.6356 C   0  0  0  0  0  0
  -27.6056  -32.4336   25.7503 C   0  0  0  0  0  0
  -27.5578  -37.1770   24.8460 C   0  0  0  0  0  0
  -21.4287  -29.3050   22.3580 N   0  0  0  0  0  0
  -26.4281  -37.3732   23.9414 N   0  0  0  0  0  0
  -24.7300  -31.0157   22.0888 N   0  0  0  0  0  0
  -23.4212  -28.8066   23.3013 O   0  0  0  0  0  0
  -28.2474  -26.0285   20.2348 O   0  0  0  0  0  0
  -26.5681  -34.8896   22.4630 O   0  0  0  0  0  0
  -23.5607  -32.1279   23.6992 O   0  0  0  0  0  0
  -30.2152  -17.6508   22.1580 C   0  0  0  0  0  0
  -29.2212  -16.4966   21.9992 C   0  0  0  0  0  0
  -28.5087  -21.7285   21.1737 C   0  0  0  0  0  0
  -29.0894  -21.7997   19.3009 C   0  0  0  0  0  0
  -28.8933  -23.0418   20.3138 C   0  0  1  0  0  0
  -30.0933  -17.8729   20.6595 C   0  0  2  0  0  0
  -27.9516  -24.4741   20.0601 C   0  0  0  0  0  0
  -29.0565  -19.1765   20.2057 C   0  0  0  0  0  0
  -29.7661  -16.2784   20.6506 N   0  0  0  0  0  0
  -29.3822  -20.7575   20.3793 N   0  3  2  0  0  0
  -31.4686  -12.8398   19.1833 H   0  0  0  0  0  0
  -30.4636  -11.7238   20.0556 H   0  0  0  0  0  0
  -29.8634  -11.7431   17.6114 H   0  0  0  0  0  0
  -29.5931  -13.4673   17.6745 H   0  0  0  0  0  0
  -27.9744  -11.2765   19.0008 H   0  0  0  0  0  0
  -27.3960  -12.4272   17.8237 H   0  0  0  0  0  0
  -27.5785  -14.2522   19.3964 H   0  0  0  0  0  0
  -28.7853  -12.3326   21.4416 H   0  0  0  0  0  0
  -28.3257  -13.9826   21.7534 H   0  0  0  0  0  0
  -25.2776   -9.5684   22.4757 H   0  0  0  0  0  0
  -24.0013   -7.4636   22.7468 H   0  0  0  0  0  0
  -21.0852   -8.8780   19.8955 H   0  0  0  0  0  0
  -22.3709  -10.9676   19.6165 H   0  0  0  0  0  0
  -21.2011   -7.6148   23.9721 H   0  0  0  0  0  0
  -21.1480   -6.0518   25.9079 H   0  0  0  0  0  0
  -22.0599   -2.7610   23.2843 H   0  0  0  0  0  0
  -22.4076  -11.9866   22.4835 H   0  0  0  0  0  0
  -21.1064  -13.1216   22.2647 H   0  0  0  0  0  0
  -24.6545  -15.8541   20.5412 H   0  0  0  0  0  0
  -26.2757  -15.6337   20.1136 H   0  0  0  0  0  0
  -26.7312  -32.5237   23.0961 H   0  0  0  0  0  0
  -25.0073  -33.9570   25.0273 H   0  0  0  0  0  0
  -22.7648  -31.2821   21.3685 H   0  0  0  0  0  0
  -23.3767  -35.9556   23.3271 H   0  0  0  0  0  0
  -24.3580  -36.8909   22.2063 H   0  0  0  0  0  0
  -23.7231  -37.6415   23.6708 H   0  0  0  0  0  0
  -26.1851  -31.4371   20.6177 H   0  0  0  0  0  0
  -26.8859  -30.7386   22.0403 H   0  0  0  0  0  0
  -28.1400  -28.7263   21.2495 H   0  0  0  0  0  0
  -25.8932  -25.8058   19.0033 H   0  0  0  0  0  0
  -23.9862  -27.2888   18.9721 H   0  0  0  0  0  0
  -23.8328  -30.5511   19.3941 H   0  0  0  0  0  0
  -22.8023  -29.2253   19.8375 H   0  0  0  0  0  0
  -25.1315  -36.1823   25.0800 H   0  0  0  0  0  0
  -21.0019  -28.3334   24.1337 H   0  0  0  0  0  0
  -20.5682  -26.2354   23.3631 H   0  0  0  0  0  0
  -21.6657  -26.7427   22.1202 H   0  0  0  0  0  0
  -19.6926  -25.6282   21.1267 H   0  0  0  0  0  0
  -19.6700  -27.3171   20.6726 H   0  0  0  0  0  0
  -17.4215  -26.6679   21.4031 H   0  0  0  0  0  0
  -18.0348  -26.0088   22.9030 H   0  0  0  0  0  0
  -19.7957  -30.7307   24.2223 H   0  0  0  0  0  0
  -17.5029  -31.6273   24.5164 H   0  0  0  0  0  0
  -15.5368  -30.2978   23.7679 H   0  0  0  0  0  0
  -15.8695  -28.0810   22.7099 H   0  0  0  0  0  0
  -24.5871  -30.7137   25.7706 H   0  0  0  0  0  0
  -24.8911  -32.2963   26.4769 H   0  0  0  0  0  0
  -25.7963  -30.8961   27.0212 H   0  0  0  0  0  0
  -26.3046  -29.6642   24.1348 H   0  0  0  0  0  0
  -27.3970  -29.7260   25.4965 H   0  0  0  0  0  0
  -27.8978  -30.4143   23.9723 H   0  0  0  0  0  0
  -27.2637  -33.3658   26.2012 H   0  0  0  0  0  0
  -28.3900  -32.6866   25.0358 H   0  0  0  0  0  0
  -28.0689  -31.8512   26.5477 H   0  0  0  0  0  0
  -28.2563  -38.0098   24.7538 H   0  0  0  0  0  0
  -28.1106  -36.2628   24.6246 H   0  0  0  0  0  0
  -27.2301  -37.1363   25.8863 H   0  0  0  0  0  0
  -20.9515  -29.8758   21.6741 H   0  0  0  0  0  0
  -26.0140  -38.2791   24.1439 H   0  0  0  0  0  0
  -31.2104  -17.3252   22.4690 H   0  0  0  0  0  0
  -29.8549  -18.4714   22.7794 H   0  0  0  0  0  0
  -28.1734  -16.8038   22.0074 H   0  0  0  0  0  0
  -29.3979  -15.7045   22.7293 H   0  0  0  0  0  0
  -27.4479  -21.4753   21.1038 H   0  0  0  0  0  0
  -28.7986  -21.7902   22.2229 H   0  0  0  0  0  0
  -29.9194  -21.9282   18.6056 H   0  0  0  0  0  0
  -28.1804  -21.5648   18.7414 H   0  0  0  0  0  0
  -29.8892  -23.3531   20.6321 H   0  0  0  0  0  0
  -31.0865  -18.0479   20.2433 H   0  0  0  0  0  0
  -27.0379  -24.3246   20.6362 H   0  0  0  0  0  0
  -27.6169  -24.4031   19.0255 H   0  0  0  0  0  0
  -28.0862  -19.0246   20.6775 H   0  0  0  0  0  0
  -28.8474  -19.0568   19.1433 H   0  0  0  0  0  0
  -30.3429  -20.8606   20.6682 H   0  0  0  0  0  0
  1 25  1  0  0  0
  1 30  2  0  0  0
  1 79  1  0  0  0
  2  3  1  0  0  0
  2 25  1  0  0  0
  2 81  1  0  0  0
  2 82  1  0  0  0
  3  4  1  0  0  0
  3 83  1  0  0  0
  3 84  1  0  0  0
  4  5  1  0  0  0
  4 85  1  0  0  0
  4 86  1  0  0  0
  5  6  1  0  0  0
  5 26  1  0  0  0
  5 87  1  0  0  0
  6 25  1  0  0  0
  6 88  1  0  0  0
  6 89  1  0  0  0
  7  8  2  0  0  0
  7 26  1  0  0  0
  7 29  1  0  0  0
  8  9  1  0  0  0
  8 22  1  0  0  0
  9 10  1  0  0  0
  9 27  2  0  0  0
 10 11  2  0  0  0
 10 15  1  0  0  0
 11 12  1  0  0  0
 11 90  1  0  0  0
 12 13  2  0  0  0
 12 91  1  0  0  0
 13 14  1  0  0  0
 13 31  1  0  0  0
 14 15  2  0  0  0
 14 92  1  0  0  0
 15 93  1  0  0  0
 16 17  2  0  0  0
 16 21  1  0  0  0
 16 31  1  0  0  0
 17 18  1  0  0  0
 17 94  1  0  0  0
 18 19  2  0  0  0
 18 95  1  0  0  0
 19 20  1  0  0  0
 19 24  1  0  0  0
 20 21  2  0  0  0
 20 96  1  0  0  0
 21 23  1  0  0  0
 22 28  1  0  0  0
 22 32  2  0  0  0
 26 27  1  0  0  0
 28 97  1  0  0  0
 28 98  1  0  0  0
 29 99  1  0  0  0
 29100  1  0  0  0
 33 34  1  0  0  0
 33 66  1  0  0  0
 33 70  2  0  0  0
 34 36  1  0  0  0
 34 59  1  0  0  0
 34101  1  0  0  0
 35 44  2  0  0  0
 35 45  1  0  0  0
 35 68  1  0  0  0
 36 56  1  0  0  0
 36102  1  0  0  0
 37 39  1  0  0  0
 37 47  1  0  0  0
 37 66  1  0  0  0
 37103  1  0  0  0
 38 43  2  0  0  0
 38 46  1  0  0  0
 38 47  1  0  0  0
 39 64  1  0  0  0
 39 67  2  0  0  0
 40 52  1  0  0  0
 40 53  2  0  0  0
 40 58  1  0  0  0
 41104  1  0  0  0
 41105  1  0  0  0
 41106  1  0  0  0
 41 48  1  0  0  0
 42 43  1  0  0  0
 42 66  1  0  0  0
 42107  1  0  0  0
 42108  1  0  0  0
 43 44  1  0  0  0
 44109  1  0  0  0
 45 46  2  0  0  0
 45110  1  0  0  0
 46111  1  0  0  0
 47112  1  0  0  0
 47113  1  0  0  0
 48 56  1  0  0  0
 48 65  1  0  0  0
 48114  1  0  0  0
 49 50  1  0  0  0
 49 53  1  0  0  0
 49 64  1  0  0  0
 49115  1  0  0  0
 50 51  1  0  0  0
 50116  1  0  0  0
 50117  1  0  0  0
 51 52  1  0  0  0
 51118  1  0  0  0
 51119  1  0  0  0
 52120  1  0  0  0
 52121  1  0  0  0
 53 54  1  0  0  0
 54 55  2  0  0  0
 54122  1  0  0  0
 55 57  1  0  0  0
 55123  1  0  0  0
 56 69  2  0  0  0
 57 58  2  0  0  0
 57124  1  0  0  0
 58125  1  0  0  0
 59 60  1  0  0  0
 59 61  1  0  0  0
 59 62  1  0  0  0
 60126  1  0  0  0
 60127  1  0  0  0
 60128  1  0  0  0
 61129  1  0  0  0
 61130  1  0  0  0
 61131  1  0  0  0
 62132  1  0  0  0
 62133  1  0  0  0
 62134  1  0  0  0
 63 65  1  0  0  0
 63135  1  0  0  0
 63136  1  0  0  0
 63137  1  0  0  0
 64138  1  0  0  0
 65139  1  0  0  0
 68 77  1  0  0  0
 71 72  1  0  0  0
 71 76  1  0  0  0
 71140  1  0  0  0
 71141  1  0  0  0
 72 79  1  0  0  0
 72142  1  0  0  0
 72143  1  0  0  0
 73 75  1  0  0  0
 73 80  1  0  0  0
 73144  1  0  0  0
 73145  1  0  0  0
 74 75  1  0  0  0
 74 80  1  0  0  0
 74146  1  0  0  0
 74147  1  0  0  0
 75 77  1  0  0  0
 75148  1  0  0  0
 76 78  1  0  0  0
 76 79  1  0  0  0
 76149  1  0  0  0
 77150  1  0  0  0
 77151  1  0  0  0
 78152  1  0  0  0
 78153  1  0  0  0
 78 80  1  0  0  0
 80154  1  0  0  0
M  CHG  1  80   1
M  ISO  4   1 100  68 101  77 101  79 100
M  END
> <chiral flag>
0

> <version>
0

> <s_m_source_file>
/data/baiqing/PycharmProjects/Reinvent-master-3.2/result/LINK_invent/BTK/process_docking_weight1_custom_sum_contain_oxygen_bond_distance_aromatic_linkinvent_7_9_3/rearranged_h_0190.sdf

> <i_m_source_file_index>
73

> <r_mmod_Potential_Energy-OPLS-2005>
707.633605957031

> <r_mmod_Stretch_Energy-OPLS-2005>
363.637847900391

> <r_mmod_Bend_Energy-OPLS-2005>
349.125732421875

> <r_mmod_Torsional_Energy-OPLS-2005>
300.262725830078

> <r_mmod_Improper_Torsional_Energy-OPLS-2005>
11.3662519454956

> <r_mmod_Van_der_Waal_Energy-OPLS-2005>
117.37467956543

> <r_mmod_Electrostatic_Energy-OPLS-2005>
-222.451202392578

> <r_mmod_Solvation_Energy-OPLS-2005>
-476.561706542969

> <b_mmod_Minimization_Converged-OPLS-2005>
0

> <r_mmod_RMS_Derivative-OPLS-2005>
0.36478528380394

$$$$
73
                    3D
 Structure written by MMmdl.
156165  0  0  1  0            999 V2000
  -30.6129  -14.8307   20.4796 C   0  0  0  0  0  0
  -30.4336  -12.5230   19.4788 C   0  0  0  0  0  0
  -29.5107  -12.5231   18.2393 C   0  0  0  0  0  0
  -28.0386  -12.3252   18.6519 C   0  0  0  0  0  0
  -27.6345  -13.2291   19.8448 C   0  0  2  0  0  0
  -28.6839  -13.1734   20.9772 C   0  0  0  0  0  0
  -25.2421  -13.8153   20.5638 C   0  0  0  0  0  0
  -24.1754  -13.0396   20.9219 C   0  0  0  0  0  0
  -24.6375  -11.6889   20.8769 C   0  0  0  0  0  0
  -23.9062  -10.4270   21.0422 C   0  0  0  0  0  0
  -24.3616   -9.4186   21.9196 C   0  0  0  0  0  0
  -23.6289   -8.2224   22.0761 C   0  0  0  0  0  0
  -22.4270   -8.0271   21.3548 C   0  0  0  0  0  0
  -21.9904   -9.0246   20.4652 C   0  0  0  0  0  0
  -22.7237  -10.2122   20.3064 C   0  0  0  0  0  0
  -21.6846   -6.0730   22.5280 C   0  0  0  0  0  0
  -21.4013   -6.5637   23.8213 C   0  0  0  0  0  0
  -21.3659   -5.6790   24.9175 C   0  0  0  0  0  0
  -21.6044   -4.3053   24.7225 C   0  0  0  0  0  0
  -21.8818   -3.8144   23.4347 C   0  0  0  0  0  0
  -21.9190   -4.6959   22.3403 C   0  0  0  0  0  0
  -22.7776  -13.5183   21.1882 C   0  0  0  0  0  0
  -22.1657   -4.2147   21.0979 F   0  0  0  0  0  0
  -21.5630   -3.4536   25.7738 F   0  0  0  0  0  0
  -29.9648  -13.6010   20.3943 N   0  0  0  0  0  0
  -26.2882  -12.9381   20.3252 N   0  0  0  0  0  0
  -25.9303  -11.6527   20.5765 N   0  0  0  0  0  0
  -22.0431  -12.8185   22.0453 N   0  0  0  0  0  0
  -25.3939  -15.1870   20.3930 N   0  0  0  0  0  0
  -31.8013  -14.8664   20.1393 O   0  0  0  0  0  0
  -21.6633   -6.8871   21.4240 O   0  0  0  0  0  0
  -22.3457  -14.5489   20.6729 O   0  0  0  0  0  0
  -24.6352  -31.8508   23.1933 C   0  0  0  0  0  0
  -25.9165  -32.4724   23.8292 C   0  0  1  0  0  0
  -27.2239  -27.2246   20.1486 C   0  0  0  0  0  0
  -25.5946  -33.8528   24.2226 N   0  0  0  0  0  0
  -23.4336  -30.4714   21.5366 C   0  0  2  0  0  0
  -24.8834  -28.9039   20.1157 C   0  0  0  0  0  0
  -22.7518  -29.4591   22.4892 C   0  0  0  0  0  0
  -18.0301  -28.1388   22.8486 C   0  0  0  0  0  0
  -24.1492  -36.7267   23.2640 C   0  0  0  0  0  0
  -25.9808  -30.7551   21.3748 C   0  0  0  0  0  0
  -26.0567  -29.3706   20.7237 C   0  0  0  0  0  0
  -27.2330  -28.5472   20.7203 C   0  0  0  0  0  0
  -26.0277  -26.8266   19.5183 C   0  0  0  0  0  0
  -24.8759  -27.6415   19.4996 C   0  0  0  0  0  0
  -23.6554  -29.7964   20.1563 C   0  0  0  0  0  0
  -25.4121  -36.3047   24.0319 C   0  0  1  0  0  0
  -20.5906  -28.3709   23.1257 C   0  0  2  0  0  0
  -20.6783  -26.9421   22.5407 C   0  0  0  0  0  0
  -19.5758  -26.6385   21.5211 C   0  0  0  0  0  0
  -18.1943  -26.7929   22.1626 C   0  0  0  0  0  0
  -19.1554  -28.8867   23.2866 C   0  0  0  0  0  0
  -18.9471  -30.1466   23.8887 C   0  0  0  0  0  0
  -17.6467  -30.6589   24.0565 C   0  0  0  0  0  0
  -25.9064  -34.9420   23.5077 C   0  0  0  0  0  0
  -16.5361  -29.9084   23.6331 C   0  0  0  0  0  0
  -16.7286  -28.6502   23.0355 C   0  0  0  0  0  0
  -26.4522  -31.6555   25.0692 C   0  0  0  0  0  0
  -25.3736  -31.3714   26.1405 C   0  0  0  0  0  0
  -27.0368  -30.2963   24.6194 C   0  0  0  0  0  0
  -27.6069  -32.4295   25.7481 C   0  0  0  0  0  0
  -27.5575  -37.1790   24.8467 C   0  0  0  0  0  0
  -21.4222  -29.3047   22.3632 N   0  0  0  0  0  0
  -26.4288  -37.3753   23.9407 N   0  0  0  0  0  0
  -24.7025  -31.0448   22.0912 N   0  0  0  0  0  0
  -23.4200  -28.8144   23.3014 O   0  0  0  0  0  0
  -28.3121  -26.3141   20.1352 O   0  0  0  0  0  0
  -26.5646  -34.8906   22.4649 O   0  0  0  0  0  0
  -23.5497  -32.1339   23.7216 O   0  0  0  0  0  0
  -28.0516  -22.2127   18.3076 C   0  0  0  0  0  0
  -28.4583  -23.5322   20.0724 C   0  0  0  0  0  0
  -28.9717  -21.2472   20.0932 C   0  0  0  0  0  0
  -28.4668  -17.8650   21.5226 C   0  0  0  0  0  0
  -28.6865  -16.3287   21.3819 C   0  0  0  0  0  0
  -30.4100  -17.4626   20.2648 C   0  0  0  0  0  0
  -29.2414  -18.5624   20.3995 C   0  0  2  0  0  0
  -27.5100  -22.0668   16.9013 C   0  0  0  0  0  0
  -28.1738  -24.9502   20.7960 C   0  0  0  0  0  0
  -28.0025  -23.4384   18.8268 N   0  0  0  0  0  0
  -28.5034  -21.0926   18.8706 N   0  0  0  0  0  0
  -28.9760  -22.4449   20.7510 N   0  0  0  0  0  0
  -29.9225  -16.0600   20.6323 N   0  0  0  0  0  0
  -29.5184  -20.0467   20.6877 N   0  0  0  0  0  0
  -31.4700  -12.6579   19.1662 H   0  0  0  0  0  0
  -30.4076  -11.5532   19.9786 H   0  0  0  0  0  0
  -29.8124  -11.7412   17.5417 H   0  0  0  0  0  0
  -29.6179  -13.4676   17.7041 H   0  0  0  0  0  0
  -27.9097  -11.2771   18.9239 H   0  0  0  0  0  0
  -27.3788  -12.5010   17.8015 H   0  0  0  0  0  0
  -27.6182  -14.2403   19.4415 H   0  0  0  0  0  0
  -28.7588  -12.1586   21.3710 H   0  0  0  0  0  0
  -28.3917  -13.7809   21.8292 H   0  0  0  0  0  0
  -25.2760   -9.5662   22.4773 H   0  0  0  0  0  0
  -23.9997   -7.4608   22.7475 H   0  0  0  0  0  0
  -21.0837   -8.8771   19.8951 H   0  0  0  0  0  0
  -22.3703  -10.9668   19.6176 H   0  0  0  0  0  0
  -21.2009   -7.6145   23.9717 H   0  0  0  0  0  0
  -21.1480   -6.0520   25.9079 H   0  0  0  0  0  0
  -22.0598   -2.7607   23.2847 H   0  0  0  0  0  0
  -22.4048  -11.9856   22.4856 H   0  0  0  0  0  0
  -21.1055  -13.1216   22.2666 H   0  0  0  0  0  0
  -24.6147  -15.8277   20.4986 H   0  0  0  0  0  0
  -26.2257  -15.6324   20.0296 H   0  0  0  0  0  0
  -26.7230  -32.5372   23.1030 H   0  0  0  0  0  0
  -25.0083  -33.9646   25.0365 H   0  0  0  0  0  0
  -22.7319  -31.2943   21.3845 H   0  0  0  0  0  0
  -23.3750  -35.9604   23.3300 H   0  0  0  0  0  0
  -24.3582  -36.8895   22.2054 H   0  0  0  0  0  0
  -23.7247  -37.6466   23.6671 H   0  0  0  0  0  0
  -26.1192  -31.5111   20.6009 H   0  0  0  0  0  0
  -26.8576  -30.8098   22.0085 H   0  0  0  0  0  0
  -28.1359  -28.9069   21.1942 H   0  0  0  0  0  0
  -25.9795  -25.8568   19.0426 H   0  0  0  0  0  0
  -23.9783  -27.2793   19.0174 H   0  0  0  0  0  0
  -23.7825  -30.5671   19.3949 H   0  0  0  0  0  0
  -22.7726  -29.2307   19.8536 H   0  0  0  0  0  0
  -25.1304  -36.1882   25.0810 H   0  0  0  0  0  0
  -21.0008  -28.3297   24.1372 H   0  0  0  0  0  0
  -20.5676  -26.2325   23.3618 H   0  0  0  0  0  0
  -21.6652  -26.7432   22.1207 H   0  0  0  0  0  0
  -19.6918  -25.6294   21.1247 H   0  0  0  0  0  0
  -19.6691  -27.3191   20.6736 H   0  0  0  0  0  0
  -17.4210  -26.6680   21.4032 H   0  0  0  0  0  0
  -18.0347  -26.0070   22.9021 H   0  0  0  0  0  0
  -19.7946  -30.7292   24.2248 H   0  0  0  0  0  0
  -17.5019  -31.6267   24.5170 H   0  0  0  0  0  0
  -15.5360  -30.2983   23.7654 H   0  0  0  0  0  0
  -15.8689  -28.0816   22.7070 H   0  0  0  0  0  0
  -24.5940  -30.7025   25.7738 H   0  0  0  0  0  0
  -24.8897  -32.2882   26.4779 H   0  0  0  0  0  0
  -25.8053  -30.8937   27.0209 H   0  0  0  0  0  0
  -26.2952  -29.6698   24.1222 H   0  0  0  0  0  0
  -27.4040  -29.7237   25.4723 H   0  0  0  0  0  0
  -27.8836  -30.4218   23.9442 H   0  0  0  0  0  0
  -27.2679  -33.3612   26.2020 H   0  0  0  0  0  0
  -28.3914  -32.6814   25.0333 H   0  0  0  0  0  0
  -28.0694  -31.8432   26.5432 H   0  0  0  0  0  0
  -28.2591  -38.0088   24.7508 H   0  0  0  0  0  0
  -28.1072  -36.2615   24.6303 H   0  0  0  0  0  0
  -27.2294  -37.1450   25.8871 H   0  0  0  0  0  0
  -20.9418  -29.8752   21.6815 H   0  0  0  0  0  0
  -26.0158  -38.2822   24.1407 H   0  0  0  0  0  0
  -28.8615  -18.1802   22.4901 H   0  0  0  0  0  0
  -27.4071  -18.1253   21.5148 H   0  0  0  0  0  0
  -27.8512  -15.9055   20.8389 H   0  0  0  0  0  0
  -28.7187  -15.8695   22.3705 H   0  0  0  0  0  0
  -30.8243  -17.4632   19.2555 H   0  0  0  0  0  0
  -31.2321  -17.7084   20.9387 H   0  0  0  0  0  0
  -28.6375  -18.5087   19.4921 H   0  0  0  0  0  0
  -26.7436  -22.8137   16.6929 H   0  0  0  0  0  0
  -27.0609  -21.0840   16.7565 H   0  0  0  0  0  0
  -28.3116  -22.1854   16.1729 H   0  0  0  0  0  0
  -28.8270  -24.9818   21.6680 H   0  0  0  0  0  0
  -27.1685  -24.8762   21.2119 H   0  0  0  0  0  0
  -29.9272  -20.2201   21.5981 H   0  0  0  0  0  0
  1 25  1  0  0  0
  1 30  2  0  0  0
  1 83  1  0  0  0
  2  3  1  0  0  0
  2 25  1  0  0  0
  2 85  1  0  0  0
  2 86  1  0  0  0
  3  4  1  0  0  0
  3 87  1  0  0  0
  3 88  1  0  0  0
  4  5  1  0  0  0
  4 89  1  0  0  0
  4 90  1  0  0  0
  5  6  1  0  0  0
  5 26  1  0  0  0
  5 91  1  0  0  0
  6 25  1  0  0  0
  6 92  1  0  0  0
  6 93  1  0  0  0
  7  8  2  0  0  0
  7 26  1  0  0  0
  7 29  1  0  0  0
  8  9  1  0  0  0
  8 22  1  0  0  0
  9 10  1  0  0  0
  9 27  2  0  0  0
 10 11  2  0  0  0
 10 15  1  0  0  0
 11 12  1  0  0  0
 11 94  1  0  0  0
 12 13  2  0  0  0
 12 95  1  0  0  0
 13 14  1  0  0  0
 13 31  1  0  0  0
 14 15  2  0  0  0
 14 96  1  0  0  0
 15 97  1  0  0  0
 16 17  2  0  0  0
 16 21  1  0  0  0
 16 31  1  0  0  0
 17 18  1  0  0  0
 17 98  1  0  0  0
 18 19  2  0  0  0
 18 99  1  0  0  0
 19 20  1  0  0  0
 19 24  1  0  0  0
 20 21  2  0  0  0
 20100  1  0  0  0
 21 23  1  0  0  0
 22 28  1  0  0  0
 22 32  2  0  0  0
 26 27  1  0  0  0
 28101  1  0  0  0
 28102  1  0  0  0
 29103  1  0  0  0
 29104  1  0  0  0
 33 34  1  0  0  0
 33 66  1  0  0  0
 33 70  2  0  0  0
 34 36  1  0  0  0
 34 59  1  0  0  0
 34105  1  0  0  0
 35 44  2  0  0  0
 35 45  1  0  0  0
 35 68  1  0  0  0
 36 56  1  0  0  0
 36106  1  0  0  0
 37 39  1  0  0  0
 37 47  1  0  0  0
 37 66  1  0  0  0
 37107  1  0  0  0
 38 43  2  0  0  0
 38 46  1  0  0  0
 38 47  1  0  0  0
 39 64  1  0  0  0
 39 67  2  0  0  0
 40 52  1  0  0  0
 40 53  2  0  0  0
 40 58  1  0  0  0
 41108  1  0  0  0
 41109  1  0  0  0
 41110  1  0  0  0
 41 48  1  0  0  0
 42 43  1  0  0  0
 42 66  1  0  0  0
 42111  1  0  0  0
 42112  1  0  0  0
 43 44  1  0  0  0
 44113  1  0  0  0
 45 46  2  0  0  0
 45114  1  0  0  0
 46115  1  0  0  0
 47116  1  0  0  0
 47117  1  0  0  0
 48 56  1  0  0  0
 48 65  1  0  0  0
 48118  1  0  0  0
 49 50  1  0  0  0
 49 53  1  0  0  0
 49 64  1  0  0  0
 49119  1  0  0  0
 50 51  1  0  0  0
 50120  1  0  0  0
 50121  1  0  0  0
 51 52  1  0  0  0
 51122  1  0  0  0
 51123  1  0  0  0
 52124  1  0  0  0
 52125  1  0  0  0
 53 54  1  0  0  0
 54 55  2  0  0  0
 54126  1  0  0  0
 55 57  1  0  0  0
 55127  1  0  0  0
 56 69  2  0  0  0
 57 58  2  0  0  0
 57128  1  0  0  0
 58129  1  0  0  0
 59 60  1  0  0  0
 59 61  1  0  0  0
 59 62  1  0  0  0
 60130  1  0  0  0
 60131  1  0  0  0
 60132  1  0  0  0
 61133  1  0  0  0
 61134  1  0  0  0
 61135  1  0  0  0
 62136  1  0  0  0
 62137  1  0  0  0
 62138  1  0  0  0
 63 65  1  0  0  0
 63139  1  0  0  0
 63140  1  0  0  0
 63141  1  0  0  0
 64142  1  0  0  0
 65143  1  0  0  0
 68 79  1  0  0  0
 71 78  1  0  0  0
 71 80  2  0  0  0
 71 81  1  0  0  0
 72 79  1  0  0  0
 72 80  1  0  0  0
 72 82  2  0  0  0
 73 81  2  0  0  0
 73 82  1  0  0  0
 73 84  1  0  0  0
 74 75  1  0  0  0
 74 77  1  0  0  0
 74144  1  0  0  0
 74145  1  0  0  0
 75 83  1  0  0  0
 75146  1  0  0  0
 75147  1  0  0  0
 76 77  1  0  0  0
 76 83  1  0  0  0
 76148  1  0  0  0
 76149  1  0  0  0
 77 84  1  0  0  0
 77150  1  0  0  0
 78151  1  0  0  0
 78152  1  0  0  0
 78153  1  0  0  0
 79154  1  0  0  0
 79155  1  0  0  0
 84156  1  0  0  0
M  ISO  4   1 100  68 101  79 101  83 100
M  END
> <chiral flag>
0

> <version>
0

> <s_m_source_file>
/data/baiqing/PycharmProjects/Reinvent-master-3.2/result/LINK_invent/BTK/process_docking_weight1_custom_sum_contain_oxygen_bond_distance_aromatic_linkinvent_7_9_3/rearranged_h_0190.sdf

> <i_m_source_file_index>
74

> <r_mmod_Potential_Energy-OPLS-2005>
-339.990539550781

> <r_mmod_Stretch_Energy-OPLS-2005>
147.006683349609

> <r_mmod_Bend_Energy-OPLS-2005>
227.065582275391

> <r_mmod_Torsional_Energy-OPLS-2005>
320.4560546875

> <r_mmod_Improper_Torsional_Energy-OPLS-2005>
9.63319396972656

> <r_mmod_Van_der_Waal_Energy-OPLS-2005>
149.271484375

> <r_mmod_Electrostatic_Energy-OPLS-2005>
-1064.931640625

> <r_mmod_Solvation_Energy-OPLS-2005>
-240.221908569336

> <b_mmod_Minimization_Converged-OPLS-2005>
0

> <r_mmod_RMS_Derivative-OPLS-2005>
0.757814764976501

$$$$
74
                    3D
 Structure written by MMmdl.
154163  0  0  1  0            999 V2000
  -30.3774  -15.5140   20.3362 C   0  0  0  0  0  0
  -30.4250  -12.9953   19.5201 C   0  0  0  0  0  0
  -29.5391  -12.6152   18.3040 C   0  0  0  0  0  0
  -28.1114  -12.2799   18.7600 C   0  0  0  0  0  0
  -27.5989  -13.2947   19.8082 C   0  0  2  0  0  0
  -28.6229  -13.6027   20.9244 C   0  0  0  0  0  0
  -25.2369  -13.8280   20.5789 C   0  0  0  0  0  0
  -24.1738  -13.0448   20.9282 C   0  0  0  0  0  0
  -24.6418  -11.6947   20.8772 C   0  0  0  0  0  0
  -23.9117  -10.4300   21.0410 C   0  0  0  0  0  0
  -24.3654   -9.4207   21.9188 C   0  0  0  0  0  0
  -23.6312   -8.2248   22.0754 C   0  0  0  0  0  0
  -22.4291   -8.0299   21.3548 C   0  0  0  0  0  0
  -21.9947   -9.0272   20.4642 C   0  0  0  0  0  0
  -22.7288  -10.2144   20.3052 C   0  0  0  0  0  0
  -21.6859   -6.0750   22.5281 C   0  0  0  0  0  0
  -21.4015   -6.5648   23.8215 C   0  0  0  0  0  0
  -21.3650   -5.6796   24.9177 C   0  0  0  0  0  0
  -21.6043   -4.3059   24.7224 C   0  0  0  0  0  0
  -21.8817   -3.8157   23.4342 C   0  0  0  0  0  0
  -21.9193   -4.6978   22.3403 C   0  0  0  0  0  0
  -22.7749  -13.5194   21.1910 C   0  0  0  0  0  0
  -22.1661   -4.2162   21.0976 F   0  0  0  0  0  0
  -21.5625   -3.4538   25.7733 F   0  0  0  0  0  0
  -29.8101  -14.1810   20.2606 N   0  0  0  0  0  0
  -26.2794  -12.9575   20.3234 N   0  0  0  0  0  0
  -25.9360  -11.6663   20.5714 N   0  0  0  0  0  0
  -22.0401  -12.8175   22.0452 N   0  0  0  0  0  0
  -25.4028  -15.2018   20.4248 N   0  0  0  0  0  0
  -31.6095  -15.4238   20.1767 O   0  0  0  0  0  0
  -21.6644   -6.8904   21.4247 O   0  0  0  0  0  0
  -22.3433  -14.5495   20.6743 O   0  0  0  0  0  0
  -24.6770  -31.8059   23.1558 C   0  0  0  0  0  0
  -25.9376  -32.4500   23.8083 C   0  0  1  0  0  0
  -27.2209  -26.7715   20.1954 C   0  0  0  0  0  0
  -25.5991  -33.8323   24.1983 N   0  0  0  0  0  0
  -23.4995  -30.4108   21.5072 C   0  0  2  0  0  0
  -24.9545  -28.7648   20.1116 C   0  0  0  0  0  0
  -22.7732  -29.4341   22.4704 C   0  0  0  0  0  0
  -18.0332  -28.1420   22.8445 C   0  0  0  0  0  0
  -24.1485  -36.7172   23.2653 C   0  0  0  0  0  0
  -26.0761  -30.5620   21.4063 C   0  0  0  0  0  0
  -26.1429  -29.1340   20.7545 C   0  0  0  0  0  0
  -27.2619  -28.1609   20.7694 C   0  0  0  0  0  0
  -26.0044  -26.5960   19.4914 C   0  0  0  0  0  0
  -24.9194  -27.5205   19.4596 C   0  0  0  0  0  0
  -23.7486  -29.7128   20.1398 C   0  0  0  0  0  0
  -25.4131  -36.2918   24.0287 C   0  0  1  0  0  0
  -20.5967  -28.3769   23.1147 C   0  0  2  0  0  0
  -20.6801  -26.9436   22.5391 C   0  0  0  0  0  0
  -19.5782  -26.6378   21.5200 C   0  0  0  0  0  0
  -18.1962  -26.7953   22.1608 C   0  0  0  0  0  0
  -19.1600  -28.8921   23.2777 C   0  0  0  0  0  0
  -18.9510  -30.1498   23.8835 C   0  0  0  0  0  0
  -17.6506  -30.6602   24.0546 C   0  0  0  0  0  0
  -25.9111  -34.9305   23.4960 C   0  0  0  0  0  0
  -16.5392  -29.9076   23.6362 C   0  0  0  0  0  0
  -16.7316  -28.6504   23.0366 C   0  0  0  0  0  0
  -26.4587  -31.6514   25.0668 C   0  0  0  0  0  0
  -25.3662  -31.3811   26.1286 C   0  0  0  0  0  0
  -27.0499  -30.2868   24.6496 C   0  0  0  0  0  0
  -27.6055  -32.4362   25.7482 C   0  0  0  0  0  0
  -27.5552  -37.1733   24.8469 C   0  0  0  0  0  0
  -21.4384  -29.3028   22.3469 N   0  0  0  0  0  0
  -26.4263  -37.3664   23.9418 N   0  0  0  0  0  0
  -24.7741  -30.9569   22.0772 N   0  0  0  0  0  0
  -23.4208  -28.7916   23.2998 O   0  0  0  0  0  0
  -28.1956  -25.5910   20.2978 O   0  0  0  0  0  0
  -26.5736  -34.8879   22.4568 O   0  0  0  0  0  0
  -23.5799  -32.1100   23.6560 O   0  0  0  0  0  0
  -30.5143  -19.0417   21.2895 C   0  0  0  0  0  0
  -30.0354  -18.0919   19.2777 C   0  0  0  0  0  0
  -28.2566  -19.3728   20.9030 C   0  0  0  0  0  0
  -29.3262  -18.0782   21.2435 C   0  0  1  0  0  0
  -30.1630  -19.6566   19.9382 C   0  0  1  0  0  0
  -28.6211  -22.3046   22.1210 C   0  0  0  0  0  0
  -28.0680  -23.8873   20.0118 C   0  0  0  0  0  0
  -28.8757  -22.2732   20.6043 C   0  0  2  0  0  0
  -29.6870  -16.8951   20.2356 N   0  0  0  0  0  0
  -28.8866  -20.5866   20.1222 N   0  3  2  0  0  0
  -31.4257  -13.2299   19.1551 H   0  0  0  0  0  0
  -30.5579  -12.1412   20.1856 H   0  0  0  0  0  0
  -29.9709  -11.7709   17.7646 H   0  0  0  0  0  0
  -29.5120  -13.4477   17.6000 H   0  0  0  0  0  0
  -28.1360  -11.2851   19.2059 H   0  0  0  0  0  0
  -27.4347  -12.2160   17.9073 H   0  0  0  0  0  0
  -27.4706  -14.2197   19.2442 H   0  0  0  0  0  0
  -28.8603  -12.7179   21.5162 H   0  0  0  0  0  0
  -28.2116  -14.3393   21.6162 H   0  0  0  0  0  0
  -25.2796   -9.5679   22.4771 H   0  0  0  0  0  0
  -24.0009   -7.4645   22.7485 H   0  0  0  0  0  0
  -21.0874   -8.8814   19.8947 H   0  0  0  0  0  0
  -22.3762  -10.9692   19.6160 H   0  0  0  0  0  0
  -21.2007   -7.6151   23.9730 H   0  0  0  0  0  0
  -21.1469   -6.0517   25.9080 H   0  0  0  0  0  0
  -22.0602   -2.7614   23.2838 H   0  0  0  0  0  0
  -22.4012  -11.9839   22.4844 H   0  0  0  0  0  0
  -21.1005  -13.1185   22.2626 H   0  0  0  0  0  0
  -24.6381  -15.8573   20.5427 H   0  0  0  0  0  0
  -26.2594  -15.6430   20.1144 H   0  0  0  0  0  0
  -26.7441  -32.4988   23.0780 H   0  0  0  0  0  0
  -25.0101  -33.9382   25.0115 H   0  0  0  0  0  0
  -22.8233  -31.2472   21.3207 H   0  0  0  0  0  0
  -23.3757  -35.9487   23.3269 H   0  0  0  0  0  0
  -24.3564  -36.8882   22.2080 H   0  0  0  0  0  0
  -23.7249  -37.6344   23.6749 H   0  0  0  0  0  0
  -26.2663  -31.2911   20.6178 H   0  0  0  0  0  0
  -26.9328  -30.6312   22.0636 H   0  0  0  0  0  0
  -28.1562  -28.4423   21.3094 H   0  0  0  0  0  0
  -25.8475  -25.6526   18.9885 H   0  0  0  0  0  0
  -24.0183  -27.2325   18.9341 H   0  0  0  0  0  0
  -23.9191  -30.4744   19.3773 H   0  0  0  0  0  0
  -22.8544  -29.1747   19.8174 H   0  0  0  0  0  0
  -25.1332  -36.1677   25.0774 H   0  0  0  0  0  0
  -21.0061  -28.3384   24.1268 H   0  0  0  0  0  0
  -20.5673  -26.2383   23.3643 H   0  0  0  0  0  0
  -21.6660  -26.7388   22.1205 H   0  0  0  0  0  0
  -19.6941  -25.6269   21.1282 H   0  0  0  0  0  0
  -19.6738  -27.3135   20.6695 H   0  0  0  0  0  0
  -17.4234  -26.6704   21.4006 H   0  0  0  0  0  0
  -18.0336  -26.0106   22.9021 H   0  0  0  0  0  0
  -19.7988  -30.7316   24.2182 H   0  0  0  0  0  0
  -17.5061  -31.6283   24.5140 H   0  0  0  0  0  0
  -15.5389  -30.2961   23.7715 H   0  0  0  0  0  0
  -15.8722  -28.0799   22.7123 H   0  0  0  0  0  0
  -24.5899  -30.7115   25.7570 H   0  0  0  0  0  0
  -24.8796  -32.3021   26.4503 H   0  0  0  0  0  0
  -25.7847  -30.9120   27.0205 H   0  0  0  0  0  0
  -26.3186  -29.6508   24.1497 H   0  0  0  0  0  0
  -27.3974  -29.7287   25.5204 H   0  0  0  0  0  0
  -27.9157  -30.4029   23.9976 H   0  0  0  0  0  0
  -27.2633  -33.3763   26.1829 H   0  0  0  0  0  0
  -28.3981  -32.6767   25.0378 H   0  0  0  0  0  0
  -28.0588  -31.8645   26.5595 H   0  0  0  0  0  0
  -28.2525  -38.0063   24.7504 H   0  0  0  0  0  0
  -28.1094  -36.2586   24.6298 H   0  0  0  0  0  0
  -27.2275  -37.1368   25.8874 H   0  0  0  0  0  0
  -20.9650  -29.8749   21.6619 H   0  0  0  0  0  0
  -26.0091  -38.2710   24.1452 H   0  0  0  0  0  0
  -31.4824  -18.5379   21.3070 H   0  0  0  0  0  0
  -30.4800  -19.7574   22.1112 H   0  0  0  0  0  0
  -31.0010  -17.8494   18.8295 H   0  0  0  0  0  0
  -29.3362  -18.0981   18.4410 H   0  0  0  0  0  0
  -27.8598  -19.7404   21.8484 H   0  0  0  0  0  0
  -27.3860  -19.0036   20.3603 H   0  0  0  0  0  0
  -29.1240  -17.6475   22.2249 H   0  0  0  0  0  0
  -30.9839  -20.2233   19.4961 H   0  0  0  0  0  0
  -28.8406  -23.2906   22.5322 H   0  0  0  0  0  0
  -29.2350  -21.5876   22.6628 H   0  0  0  0  0  0
  -27.5740  -22.0899   22.3399 H   0  0  0  0  0  0
  -27.0028  -23.7078   20.1524 H   0  0  0  0  0  0
  -28.1949  -23.8425   18.9300 H   0  0  0  0  0  0
  -29.9325  -22.5063   20.4725 H   0  0  0  0  0  0
  -28.4603  -20.5985   19.2060 H   0  0  0  0  0  0
  1 25  1  0  0  0
  1 30  2  0  0  0
  1 79  1  0  0  0
  2  3  1  0  0  0
  2 25  1  0  0  0
  2 81  1  0  0  0
  2 82  1  0  0  0
  3  4  1  0  0  0
  3 83  1  0  0  0
  3 84  1  0  0  0
  4  5  1  0  0  0
  4 85  1  0  0  0
  4 86  1  0  0  0
  5  6  1  0  0  0
  5 26  1  0  0  0
  5 87  1  0  0  0
  6 25  1  0  0  0
  6 88  1  0  0  0
  6 89  1  0  0  0
  7  8  2  0  0  0
  7 26  1  0  0  0
  7 29  1  0  0  0
  8  9  1  0  0  0
  8 22  1  0  0  0
  9 10  1  0  0  0
  9 27  2  0  0  0
 10 11  2  0  0  0
 10 15  1  0  0  0
 11 12  1  0  0  0
 11 90  1  0  0  0
 12 13  2  0  0  0
 12 91  1  0  0  0
 13 14  1  0  0  0
 13 31  1  0  0  0
 14 15  2  0  0  0
 14 92  1  0  0  0
 15 93  1  0  0  0
 16 17  2  0  0  0
 16 21  1  0  0  0
 16 31  1  0  0  0
 17 18  1  0  0  0
 17 94  1  0  0  0
 18 19  2  0  0  0
 18 95  1  0  0  0
 19 20  1  0  0  0
 19 24  1  0  0  0
 20 21  2  0  0  0
 20 96  1  0  0  0
 21 23  1  0  0  0
 22 28  1  0  0  0
 22 32  2  0  0  0
 26 27  1  0  0  0
 28 97  1  0  0  0
 28 98  1  0  0  0
 29 99  1  0  0  0
 29100  1  0  0  0
 33 34  1  0  0  0
 33 66  1  0  0  0
 33 70  2  0  0  0
 34 36  1  0  0  0
 34 59  1  0  0  0
 34101  1  0  0  0
 35 44  2  0  0  0
 35 45  1  0  0  0
 35 68  1  0  0  0
 36 56  1  0  0  0
 36102  1  0  0  0
 37 39  1  0  0  0
 37 47  1  0  0  0
 37 66  1  0  0  0
 37103  1  0  0  0
 38 43  2  0  0  0
 38 46  1  0  0  0
 38 47  1  0  0  0
 39 64  1  0  0  0
 39 67  2  0  0  0
 40 52  1  0  0  0
 40 53  2  0  0  0
 40 58  1  0  0  0
 41104  1  0  0  0
 41105  1  0  0  0
 41106  1  0  0  0
 41 48  1  0  0  0
 42 43  1  0  0  0
 42 66  1  0  0  0
 42107  1  0  0  0
 42108  1  0  0  0
 43 44  1  0  0  0
 44109  1  0  0  0
 45 46  2  0  0  0
 45110  1  0  0  0
 46111  1  0  0  0
 47112  1  0  0  0
 47113  1  0  0  0
 48 56  1  0  0  0
 48 65  1  0  0  0
 48114  1  0  0  0
 49 50  1  0  0  0
 49 53  1  0  0  0
 49 64  1  0  0  0
 49115  1  0  0  0
 50 51  1  0  0  0
 50116  1  0  0  0
 50117  1  0  0  0
 51 52  1  0  0  0
 51118  1  0  0  0
 51119  1  0  0  0
 52120  1  0  0  0
 52121  1  0  0  0
 53 54  1  0  0  0
 54 55  2  0  0  0
 54122  1  0  0  0
 55 57  1  0  0  0
 55123  1  0  0  0
 56 69  2  0  0  0
 57 58  2  0  0  0
 57124  1  0  0  0
 58125  1  0  0  0
 59 60  1  0  0  0
 59 61  1  0  0  0
 59 62  1  0  0  0
 60126  1  0  0  0
 60127  1  0  0  0
 60128  1  0  0  0
 61129  1  0  0  0
 61130  1  0  0  0
 61131  1  0  0  0
 62132  1  0  0  0
 62133  1  0  0  0
 62134  1  0  0  0
 63 65  1  0  0  0
 63135  1  0  0  0
 63136  1  0  0  0
 63137  1  0  0  0
 64138  1  0  0  0
 65139  1  0  0  0
 68 77  1  0  0  0
 71 74  1  0  0  0
 71 75  1  0  0  0
 71140  1  0  0  0
 71141  1  0  0  0
 72 79  1  0  0  0
 72142  1  0  0  0
 72143  1  0  0  0
 72 75  1  0  0  0
 73144  1  0  0  0
 73145  1  0  0  0
 73 74  1  0  0  0
 73 80  1  0  0  0
 74 79  1  0  0  0
 74146  1  0  0  0
 75 80  1  0  0  0
 75147  1  0  0  0
 76148  1  0  0  0
 76149  1  0  0  0
 76150  1  0  0  0
 76 78  1  0  0  0
 77 78  1  0  0  0
 77151  1  0  0  0
 77152  1  0  0  0
 78 80  1  0  0  0
 78153  1  0  0  0
 80154  1  0  0  0
M  CHG  1  80   1
M  ISO  4   1 100  68 101  77 101  79 100
M  END
> <chiral flag>
0

> <version>
0

> <s_m_source_file>
/data/baiqing/PycharmProjects/Reinvent-master-3.2/result/LINK_invent/BTK/process_docking_weight1_custom_sum_contain_oxygen_bond_distance_aromatic_linkinvent_7_9_3/rearranged_h_0190.sdf

> <i_m_source_file_index>
75

> <r_mmod_Potential_Energy-OPLS-2005>
2330.88842773438

> <r_mmod_Stretch_Energy-OPLS-2005>
839.391357421875

> <r_mmod_Bend_Energy-OPLS-2005>
754.811767578125

> <r_mmod_Torsional_Energy-OPLS-2005>
469.497406005859

> <r_mmod_Improper_Torsional_Energy-OPLS-2005>
15.136326789856

> <r_mmod_Van_der_Waal_Energy-OPLS-2005>
112.688812255859

> <r_mmod_Electrostatic_Energy-OPLS-2005>
-173.103500366211

> <r_mmod_Solvation_Energy-OPLS-2005>
-428.748718261719

> <b_mmod_Minimization_Converged-OPLS-2005>
0

> <r_mmod_RMS_Derivative-OPLS-2005>
1.97003698348999

$$$$
75
                    3D
 Structure written by MMmdl.
159168  0  0  1  0            999 V2000
  -30.5170  -15.1791   20.3756 C   0  0  0  0  0  0
  -30.4223  -12.7572   19.5059 C   0  0  0  0  0  0
  -29.5185  -12.5529   18.2688 C   0  0  0  0  0  0
  -28.0671  -12.2927   18.7044 C   0  0  0  0  0  0
  -27.6065  -13.2705   19.8147 C   0  0  2  0  0  0
  -28.6450  -13.4461   20.9425 C   0  0  0  0  0  0
  -25.2388  -13.8242   20.5748 C   0  0  0  0  0  0
  -24.1734  -13.0433   20.9249 C   0  0  0  0  0  0
  -24.6384  -11.6933   20.8766 C   0  0  0  0  0  0
  -23.9079  -10.4295   21.0406 C   0  0  0  0  0  0
  -24.3630   -9.4214   21.9183 C   0  0  0  0  0  0
  -23.6305   -8.2247   22.0749 C   0  0  0  0  0  0
  -22.4286   -8.0284   21.3539 C   0  0  0  0  0  0
  -21.9920   -9.0257   20.4636 C   0  0  0  0  0  0
  -22.7248  -10.2135   20.3050 C   0  0  0  0  0  0
  -21.6854   -6.0741   22.5280 C   0  0  0  0  0  0
  -21.4014   -6.5646   23.8214 C   0  0  0  0  0  0
  -21.3657   -5.6794   24.9173 C   0  0  0  0  0  0
  -21.6043   -4.3059   24.7224 C   0  0  0  0  0  0
  -21.8816   -3.8152   23.4344 C   0  0  0  0  0  0
  -21.9191   -4.6971   22.3402 C   0  0  0  0  0  0
  -22.7755  -13.5191   21.1900 C   0  0  0  0  0  0
  -22.1666   -4.2158   21.0979 F   0  0  0  0  0  0
  -21.5629   -3.4539   25.7734 F   0  0  0  0  0  0
  -29.8800  -13.9168   20.2995 N   0  0  0  0  0  0
  -26.2798  -12.9506   20.3215 N   0  0  0  0  0  0
  -25.9320  -11.6618   20.5738 N   0  0  0  0  0  0
  -22.0418  -12.8163   22.0450 N   0  0  0  0  0  0
  -25.4051  -15.1970   20.4188 N   0  0  0  0  0  0
  -31.7466  -15.0992   20.2379 O   0  0  0  0  0  0
  -21.6645   -6.8887   21.4243 O   0  0  0  0  0  0
  -22.3435  -14.5500   20.6749 O   0  0  0  0  0  0
  -24.6572  -31.8290   23.1747 C   0  0  0  0  0  0
  -25.9278  -32.4614   23.8193 C   0  0  1  0  0  0
  -27.2114  -26.9804   20.1747 C   0  0  0  0  0  0
  -25.5965  -33.8427   24.2103 N   0  0  0  0  0  0
  -23.4686  -30.4431   21.5230 C   0  0  2  0  0  0
  -24.9185  -28.8388   20.1115 C   0  0  0  0  0  0
  -22.7636  -29.4473   22.4801 C   0  0  0  0  0  0
  -18.0318  -28.1404   22.8469 C   0  0  0  0  0  0
  -24.1495  -36.7219   23.2645 C   0  0  0  0  0  0
  -26.0340  -30.6519   21.3969 C   0  0  0  0  0  0
  -26.1013  -29.2475   20.7398 C   0  0  0  0  0  0
  -27.2441  -28.3381   20.7475 C   0  0  0  0  0  0
  -26.0004  -26.7092   19.5013 C   0  0  0  0  0  0
  -24.8907  -27.5890   19.4728 C   0  0  0  0  0  0
  -23.7040  -29.7620   20.1475 C   0  0  0  0  0  0
  -25.4132  -36.2984   24.0305 C   0  0  1  0  0  0
  -20.5937  -28.3746   23.1203 C   0  0  2  0  0  0
  -20.6796  -26.9434   22.5404 C   0  0  0  0  0  0
  -19.5772  -26.6380   21.5211 C   0  0  0  0  0  0
  -18.1954  -26.7937   22.1621 C   0  0  0  0  0  0
  -19.1576  -28.8893   23.2825 C   0  0  0  0  0  0
  -18.9489  -30.1482   23.8864 C   0  0  0  0  0  0
  -17.6483  -30.6596   24.0555 C   0  0  0  0  0  0
  -25.9092  -34.9364   23.5024 C   0  0  0  0  0  0
  -16.5375  -29.9086   23.6340 C   0  0  0  0  0  0
  -16.7300  -28.6503   23.0363 C   0  0  0  0  0  0
  -26.4550  -31.6543   25.0700 C   0  0  0  0  0  0
  -25.3693  -31.3778   26.1368 C   0  0  0  0  0  0
  -27.0443  -30.2919   24.6398 C   0  0  0  0  0  0
  -27.6050  -32.4345   25.7495 C   0  0  0  0  0  0
  -27.5577  -37.1769   24.8467 C   0  0  0  0  0  0
  -21.4310  -29.3045   22.3550 N   0  0  0  0  0  0
  -26.4284  -37.3713   23.9407 N   0  0  0  0  0  0
  -24.7408  -31.0008   22.0852 N   0  0  0  0  0  0
  -23.4208  -28.8043   23.3026 O   0  0  0  0  0  0
  -28.2342  -25.9159   20.2497 O   0  0  0  0  0  0
  -26.5704  -34.8889   22.4621 O   0  0  0  0  0  0
  -23.5662  -32.1233   23.6882 O   0  0  0  0  0  0
  -29.1408  -23.0257   19.9269 C   0  0  0  0  0  0
  -27.1717  -23.5324   21.1305 C   0  0  0  0  0  0
  -28.6646  -17.1695   19.8937 C   0  0  0  0  0  0
  -30.6458  -17.7926   20.9364 C   0  0  0  0  0  0
  -28.6093  -18.7757   19.4053 C   0  0  0  0  0  0
  -29.8633  -19.2186   21.2852 C   0  0  0  0  0  0
  -28.4998  -21.4763   20.1293 C   0  0  2  0  0  0
  -27.5549  -21.9669   21.2758 C   0  0  2  0  0  0
  -28.0372  -24.3054   20.0758 C   0  0  1  0  0  0
  -29.9045  -16.5211   20.5020 N   0  0  0  0  0  0
  -29.1516  -19.9708   20.1875 N   0  0  0  0  0  0
  -26.3698  -21.1006   21.3865 N   0  3  0  0  0  0
  -30.4600  -11.8521   20.1144 H   0  0  0  0  0  0
  -31.4479  -12.9300   19.1753 H   0  0  0  0  0  0
  -29.8841  -11.7238   17.6608 H   0  0  0  0  0  0
  -29.5580  -13.4411   17.6360 H   0  0  0  0  0  0
  -28.0159  -11.2692   19.0777 H   0  0  0  0  0  0
  -27.3949  -12.3392   17.8461 H   0  0  0  0  0  0
  -27.5199  -14.2357   19.3160 H   0  0  0  0  0  0
  -28.7994  -12.5183   21.4947 H   0  0  0  0  0  0
  -28.3015  -14.1894   21.6644 H   0  0  0  0  0  0
  -25.2774   -9.5700   22.4759 H   0  0  0  0  0  0
  -24.0013   -7.4639   22.7471 H   0  0  0  0  0  0
  -21.0845   -8.8775   19.8945 H   0  0  0  0  0  0
  -22.3701  -10.9677   19.6162 H   0  0  0  0  0  0
  -21.2011   -7.6153   23.9720 H   0  0  0  0  0  0
  -21.1477   -6.0525   25.9075 H   0  0  0  0  0  0
  -22.0595   -2.7616   23.2839 H   0  0  0  0  0  0
  -22.4057  -11.9826   22.4830 H   0  0  0  0  0  0
  -21.1034  -13.1174   22.2667 H   0  0  0  0  0  0
  -24.6385  -15.8505   20.5366 H   0  0  0  0  0  0
  -26.2545  -15.6364   20.0915 H   0  0  0  0  0  0
  -26.7341  -32.5168   23.0907 H   0  0  0  0  0  0
  -25.0048  -33.9513   25.0209 H   0  0  0  0  0  0
  -22.7786  -31.2732   21.3574 H   0  0  0  0  0  0
  -23.3771  -35.9538   23.3277 H   0  0  0  0  0  0
  -24.3577  -36.8888   22.2067 H   0  0  0  0  0  0
  -23.7240  -37.6395   23.6713 H   0  0  0  0  0  0
  -26.2097  -31.3976   20.6209 H   0  0  0  0  0  0
  -26.8954  -30.7047   22.0506 H   0  0  0  0  0  0
  -28.1416  -28.6481   21.2641 H   0  0  0  0  0  0
  -25.8771  -25.7561   19.0110 H   0  0  0  0  0  0
  -23.9910  -27.2708   18.9640 H   0  0  0  0  0  0
  -23.8560  -30.5314   19.3896 H   0  0  0  0  0  0
  -22.8142  -29.2149   19.8309 H   0  0  0  0  0  0
  -25.1328  -36.1789   25.0798 H   0  0  0  0  0  0
  -21.0025  -28.3350   24.1325 H   0  0  0  0  0  0
  -20.5673  -26.2367   23.3635 H   0  0  0  0  0  0
  -21.6662  -26.7415   22.1214 H   0  0  0  0  0  0
  -19.6931  -25.6283   21.1262 H   0  0  0  0  0  0
  -19.6709  -27.3169   20.6721 H   0  0  0  0  0  0
  -17.4221  -26.6686   21.4023 H   0  0  0  0  0  0
  -18.0348  -26.0085   22.9021 H   0  0  0  0  0  0
  -19.7966  -30.7305   24.2222 H   0  0  0  0  0  0
  -17.5038  -31.6271   24.5167 H   0  0  0  0  0  0
  -15.5374  -30.2979   23.7681 H   0  0  0  0  0  0
  -15.8698  -28.0807   22.7104 H   0  0  0  0  0  0
  -24.5886  -30.7112   25.7688 H   0  0  0  0  0  0
  -24.8868  -32.2973   26.4694 H   0  0  0  0  0  0
  -25.7942  -30.9017   27.0213 H   0  0  0  0  0  0
  -26.3095  -29.6597   24.1403 H   0  0  0  0  0  0
  -27.3995  -29.7282   25.5038 H   0  0  0  0  0  0
  -27.9029  -30.4121   23.9786 H   0  0  0  0  0  0
  -27.2621  -33.3683   26.1968 H   0  0  0  0  0  0
  -28.3912  -32.6851   25.0358 H   0  0  0  0  0  0
  -28.0660  -31.8538   26.5498 H   0  0  0  0  0  0
  -28.2577  -38.0081   24.7508 H   0  0  0  0  0  0
  -28.1089  -36.2606   24.6296 H   0  0  0  0  0  0
  -27.2292  -37.1412   25.8869 H   0  0  0  0  0  0
  -20.9552  -29.8742   21.6691 H   0  0  0  0  0  0
  -26.0140  -38.2776   24.1408 H   0  0  0  0  0  0
  -29.6513  -23.0937   18.9661 H   0  0  0  0  0  0
  -29.9180  -23.1680   20.6790 H   0  0  0  0  0  0
  -27.2881  -24.0091   22.1037 H   0  0  0  0  0  0
  -26.1192  -23.6544   20.8717 H   0  0  0  0  0  0
  -27.8696  -17.0189   20.6241 H   0  0  0  0  0  0
  -28.3762  -16.5568   19.0383 H   0  0  0  0  0  0
  -31.2126  -17.5156   21.8268 H   0  0  0  0  0  0
  -31.4037  -17.9973   20.1784 H   0  0  0  0  0  0
  -27.5686  -18.9958   19.1644 H   0  0  0  0  0  0
  -29.1168  -18.8215   18.4401 H   0  0  0  0  0  0
  -30.5893  -19.9050   21.7243 H   0  0  0  0  0  0
  -29.1420  -19.0216   22.0799 H   0  0  0  0  0  0
  -27.8728  -21.3901   19.2401 H   0  0  0  0  0  0
  -28.1102  -21.8636   22.2095 H   0  0  0  0  0  0
  -27.4906  -24.2429   19.1352 H   0  0  0  0  0  0
  -26.6751  -20.1505   21.5022 H   0  0  0  0  0  0
  -25.7973  -21.1512   20.5633 H   0  0  0  0  0  0
  -25.8164  -21.3513   22.1861 H   0  0  0  0  0  0
  1 25  1  0  0  0
  1 30  2  0  0  0
  1 80  1  0  0  0
  2  3  1  0  0  0
  2 25  1  0  0  0
  2 83  1  0  0  0
  2 84  1  0  0  0
  3  4  1  0  0  0
  3 85  1  0  0  0
  3 86  1  0  0  0
  4  5  1  0  0  0
  4 87  1  0  0  0
  4 88  1  0  0  0
  5  6  1  0  0  0
  5 26  1  0  0  0
  5 89  1  0  0  0
  6 25  1  0  0  0
  6 90  1  0  0  0
  6 91  1  0  0  0
  7  8  2  0  0  0
  7 26  1  0  0  0
  7 29  1  0  0  0
  8  9  1  0  0  0
  8 22  1  0  0  0
  9 10  1  0  0  0
  9 27  2  0  0  0
 10 11  2  0  0  0
 10 15  1  0  0  0
 11 12  1  0  0  0
 11 92  1  0  0  0
 12 13  2  0  0  0
 12 93  1  0  0  0
 13 14  1  0  0  0
 13 31  1  0  0  0
 14 15  2  0  0  0
 14 94  1  0  0  0
 15 95  1  0  0  0
 16 17  2  0  0  0
 16 21  1  0  0  0
 16 31  1  0  0  0
 17 18  1  0  0  0
 17 96  1  0  0  0
 18 19  2  0  0  0
 18 97  1  0  0  0
 19 20  1  0  0  0
 19 24  1  0  0  0
 20 21  2  0  0  0
 20 98  1  0  0  0
 21 23  1  0  0  0
 22 28  1  0  0  0
 22 32  2  0  0  0
 26 27  1  0  0  0
 28 99  1  0  0  0
 28100  1  0  0  0
 29101  1  0  0  0
 29102  1  0  0  0
 33 34  1  0  0  0
 33 66  1  0  0  0
 33 70  2  0  0  0
 34 36  1  0  0  0
 34 59  1  0  0  0
 34103  1  0  0  0
 35 44  2  0  0  0
 35 45  1  0  0  0
 35 68  1  0  0  0
 36 56  1  0  0  0
 36104  1  0  0  0
 37 39  1  0  0  0
 37 47  1  0  0  0
 37 66  1  0  0  0
 37105  1  0  0  0
 38 43  2  0  0  0
 38 46  1  0  0  0
 38 47  1  0  0  0
 39 64  1  0  0  0
 39 67  2  0  0  0
 40 52  1  0  0  0
 40 53  2  0  0  0
 40 58  1  0  0  0
 41106  1  0  0  0
 41107  1  0  0  0
 41108  1  0  0  0
 41 48  1  0  0  0
 42 43  1  0  0  0
 42 66  1  0  0  0
 42109  1  0  0  0
 42110  1  0  0  0
 43 44  1  0  0  0
 44111  1  0  0  0
 45 46  2  0  0  0
 45112  1  0  0  0
 46113  1  0  0  0
 47114  1  0  0  0
 47115  1  0  0  0
 48 56  1  0  0  0
 48 65  1  0  0  0
 48116  1  0  0  0
 49 50  1  0  0  0
 49 53  1  0  0  0
 49 64  1  0  0  0
 49117  1  0  0  0
 50 51  1  0  0  0
 50118  1  0  0  0
 50119  1  0  0  0
 51 52  1  0  0  0
 51120  1  0  0  0
 51121  1  0  0  0
 52122  1  0  0  0
 52123  1  0  0  0
 53 54  1  0  0  0
 54 55  2  0  0  0
 54124  1  0  0  0
 55 57  1  0  0  0
 55125  1  0  0  0
 56 69  2  0  0  0
 57 58  2  0  0  0
 57126  1  0  0  0
 58127  1  0  0  0
 59 60  1  0  0  0
 59 61  1  0  0  0
 59 62  1  0  0  0
 60128  1  0  0  0
 60129  1  0  0  0
 60130  1  0  0  0
 61131  1  0  0  0
 61132  1  0  0  0
 61133  1  0  0  0
 62134  1  0  0  0
 62135  1  0  0  0
 62136  1  0  0  0
 63 65  1  0  0  0
 63137  1  0  0  0
 63138  1  0  0  0
 63139  1  0  0  0
 64140  1  0  0  0
 65141  1  0  0  0
 68 79  1  0  0  0
 71 77  1  0  0  0
 71 79  1  0  0  0
 71142  1  0  0  0
 71143  1  0  0  0
 72 78  1  0  0  0
 72 79  1  0  0  0
 72144  1  0  0  0
 72145  1  0  0  0
 73 75  1  0  0  0
 73 80  1  0  0  0
 73146  1  0  0  0
 73147  1  0  0  0
 74 76  1  0  0  0
 74 80  1  0  0  0
 74148  1  0  0  0
 74149  1  0  0  0
 75150  1  0  0  0
 75151  1  0  0  0
 75 81  1  0  0  0
 76 81  1  0  0  0
 76152  1  0  0  0
 76153  1  0  0  0
 77 78  1  0  0  0
 77 81  1  0  0  0
 77154  1  0  0  0
 78 82  1  0  0  0
 78155  1  0  0  0
 79156  1  0  0  0
 82157  1  0  0  0
 82158  1  0  0  0
 82159  1  0  0  0
M  CHG  1  82   1
M  ISO  4   1 100  68 101  79 101  80 100
M  END
> <chiral flag>
0

> <version>
0

> <s_m_source_file>
/data/baiqing/PycharmProjects/Reinvent-master-3.2/result/LINK_invent/BTK/process_docking_weight1_custom_sum_contain_oxygen_bond_distance_aromatic_linkinvent_7_9_3/rearranged_h_0190.sdf

> <i_m_source_file_index>
76

> <r_mmod_Potential_Energy-OPLS-2005>
1035.66943359375

> <r_mmod_Stretch_Energy-OPLS-2005>
416.691284179688

> <r_mmod_Bend_Energy-OPLS-2005>
515.459533691406

> <r_mmod_Torsional_Energy-OPLS-2005>
401.582946777344

> <r_mmod_Improper_Torsional_Energy-OPLS-2005>
3.12461805343628

> <r_mmod_Van_der_Waal_Energy-OPLS-2005>
113.594589233398

> <r_mmod_Electrostatic_Energy-OPLS-2005>
-280.023468017578

> <r_mmod_Solvation_Energy-OPLS-2005>
-510.412445068359

> <b_mmod_Minimization_Converged-OPLS-2005>
0

> <r_mmod_RMS_Derivative-OPLS-2005>
1.09257245063782

$$$$
76
                    3D
 Structure written by MMmdl.
151160  0  0  1  0            999 V2000
  -30.5093  -15.0494   20.3987 C   0  0  0  0  0  0
  -30.4401  -12.6550   19.5086 C   0  0  0  0  0  0
  -29.5261  -12.5430   18.2655 C   0  0  0  0  0  0
  -28.0624  -12.3127   18.6843 C   0  0  0  0  0  0
  -27.6237  -13.2570   19.8335 C   0  0  2  0  0  0
  -28.6652  -13.3309   20.9703 C   0  0  0  0  0  0
  -25.2433  -13.8228   20.5719 C   0  0  0  0  0  0
  -24.1767  -13.0438   20.9246 C   0  0  0  0  0  0
  -24.6397  -11.6930   20.8763 C   0  0  0  0  0  0
  -23.9084  -10.4296   21.0408 C   0  0  0  0  0  0
  -24.3632   -9.4209   21.9185 C   0  0  0  0  0  0
  -23.6304   -8.2247   22.0751 C   0  0  0  0  0  0
  -22.4284   -8.0285   21.3544 C   0  0  0  0  0  0
  -21.9924   -9.0260   20.4646 C   0  0  0  0  0  0
  -22.7255  -10.2137   20.3056 C   0  0  0  0  0  0
  -21.6858   -6.0738   22.5280 C   0  0  0  0  0  0
  -21.4018   -6.5640   23.8211 C   0  0  0  0  0  0
  -21.3663   -5.6791   24.9175 C   0  0  0  0  0  0
  -21.6045   -4.3054   24.7226 C   0  0  0  0  0  0
  -21.8819   -3.8148   23.4344 C   0  0  0  0  0  0
  -21.9194   -4.6965   22.3402 C   0  0  0  0  0  0
  -22.7788  -13.5202   21.1896 C   0  0  0  0  0  0
  -22.1661   -4.2152   21.0978 F   0  0  0  0  0  0
  -21.5630   -3.4536   25.7736 F   0  0  0  0  0  0
  -29.9267  -13.7727   20.3614 N   0  0  0  0  0  0
  -26.2859  -12.9474   20.3232 N   0  0  0  0  0  0
  -25.9328  -11.6596   20.5735 N   0  0  0  0  0  0
  -22.0439  -12.8189   22.0450 N   0  0  0  0  0  0
  -25.4072  -15.1961   20.4129 N   0  0  0  0  0  0
  -31.7195  -15.0942   20.1479 O   0  0  0  0  0  0
  -21.6645   -6.8883   21.4243 O   0  0  0  0  0  0
  -22.3472  -14.5506   20.6736 O   0  0  0  0  0  0
  -24.6502  -31.8372   23.1822 C   0  0  0  0  0  0
  -25.9242  -32.4661   23.8239 C   0  0  1  0  0  0
  -27.2167  -27.0629   20.1614 C   0  0  0  0  0  0
  -25.5960  -33.8470   24.2150 N   0  0  0  0  0  0
  -23.4576  -30.4543   21.5295 C   0  0  2  0  0  0
  -24.9084  -28.8679   20.1110 C   0  0  0  0  0  0
  -22.7602  -29.4512   22.4835 C   0  0  0  0  0  0
  -18.0312  -28.1397   22.8477 C   0  0  0  0  0  0
  -24.1493  -36.7241   23.2646 C   0  0  0  0  0  0
  -26.0190  -30.6877   21.3919 C   0  0  0  0  0  0
  -26.0894  -29.2917   20.7336 C   0  0  0  0  0  0
  -27.2429  -28.4075   20.7377 C   0  0  0  0  0  0
  -26.0071  -26.7590   19.4980 C   0  0  0  0  0  0
  -24.8847  -27.6178   19.4759 C   0  0  0  0  0  0
  -23.6887  -29.7794   20.1510 C   0  0  0  0  0  0
  -25.4129  -36.3013   24.0310 C   0  0  1  0  0  0
  -20.5929  -28.3731   23.1222 C   0  0  2  0  0  0
  -20.6794  -26.9426   22.5405 C   0  0  0  0  0  0
  -19.5767  -26.6376   21.5216 C   0  0  0  0  0  0
  -18.1949  -26.7934   22.1625 C   0  0  0  0  0  0
  -19.1570  -28.8883   23.2840 C   0  0  0  0  0  0
  -18.9484  -30.1477   23.8869 C   0  0  0  0  0  0
  -17.6478  -30.6593   24.0556 C   0  0  0  0  0  0
  -25.9083  -34.9390   23.5045 C   0  0  0  0  0  0
  -16.5369  -29.9083   23.6337 C   0  0  0  0  0  0
  -16.7295  -28.6501   23.0361 C   0  0  0  0  0  0
  -26.4535  -31.6556   25.0712 C   0  0  0  0  0  0
  -25.3695  -31.3766   26.1390 C   0  0  0  0  0  0
  -27.0417  -30.2945   24.6347 C   0  0  0  0  0  0
  -27.6051  -32.4336   25.7505 C   0  0  0  0  0  0
  -27.5574  -37.1780   24.8466 C   0  0  0  0  0  0
  -21.4287  -29.3046   22.3585 N   0  0  0  0  0  0
  -26.4288  -37.3732   23.9404 N   0  0  0  0  0  0
  -24.7294  -31.0160   22.0892 N   0  0  0  0  0  0
  -23.4211  -28.8066   23.3016 O   0  0  0  0  0  0
  -28.2488  -26.0311   20.2325 O   0  0  0  0  0  0
  -26.5679  -34.8900   22.4631 O   0  0  0  0  0  0
  -23.5602  -32.1283   23.6996 O   0  0  0  0  0  0
  -28.8231  -22.2670   21.5500 C   0  0  0  0  0  0
  -29.4280  -18.9637   21.3798 C   0  0  0  0  0  0
  -29.2604  -18.8658   19.4245 C   0  0  0  0  0  0
  -28.9113  -23.0671   20.2667 C   0  0  1  0  0  0
  -30.0363  -17.8492   20.3962 C   0  0  2  0  0  0
  -28.5520  -21.3879   20.3447 C   0  0  1  0  0  0
  -27.9500  -24.4736   20.0944 C   0  0  0  0  0  0
  -29.7313  -16.2616   20.5090 N   0  0  0  0  0  0
  -29.5152  -20.0810   20.3296 N   0  3  1  0  0  0
  -31.4704  -12.8249   19.1927 H   0  0  0  0  0  0
  -30.4529  -11.7170   20.0665 H   0  0  0  0  0  0
  -29.8631  -11.7326   17.6175 H   0  0  0  0  0  0
  -29.5984  -13.4581   17.6757 H   0  0  0  0  0  0
  -27.9737  -11.2752   19.0083 H   0  0  0  0  0  0
  -27.3990  -12.4212   17.8255 H   0  0  0  0  0  0
  -27.5710  -14.2493   19.3849 H   0  0  0  0  0  0
  -28.7792  -12.3663   21.4672 H   0  0  0  0  0  0
  -28.3472  -14.0400   21.7365 H   0  0  0  0  0  0
  -25.2773   -9.5685   22.4766 H   0  0  0  0  0  0
  -24.0012   -7.4635   22.7466 H   0  0  0  0  0  0
  -21.0855   -8.8781   19.8950 H   0  0  0  0  0  0
  -22.3710  -10.9680   19.6171 H   0  0  0  0  0  0
  -21.2009   -7.6148   23.9717 H   0  0  0  0  0  0
  -21.1484   -6.0521   25.9077 H   0  0  0  0  0  0
  -22.0595   -2.7609   23.2842 H   0  0  0  0  0  0
  -22.4062  -11.9852   22.4841 H   0  0  0  0  0  0
  -21.1052  -13.1199   22.2650 H   0  0  0  0  0  0
  -24.6314  -15.8410   20.5167 H   0  0  0  0  0  0
  -26.2374  -15.6348   20.0375 H   0  0  0  0  0  0
  -26.7307  -32.5243   23.0961 H   0  0  0  0  0  0
  -25.0064  -33.9571   25.0270 H   0  0  0  0  0  0
  -22.7642  -31.2825   21.3699 H   0  0  0  0  0  0
  -23.3762  -35.9567   23.3295 H   0  0  0  0  0  0
  -24.3572  -36.8891   22.2063 H   0  0  0  0  0  0
  -23.7243  -37.6429   23.6698 H   0  0  0  0  0  0
  -26.1833  -31.4385   20.6177 H   0  0  0  0  0  0
  -26.8854  -30.7397   22.0395 H   0  0  0  0  0  0
  -28.1399  -28.7282   21.2486 H   0  0  0  0  0  0
  -25.8906  -25.8046   19.0080 H   0  0  0  0  0  0
  -23.9842  -27.2881   18.9759 H   0  0  0  0  0  0
  -23.8316  -30.5525   19.3950 H   0  0  0  0  0  0
  -22.8012  -29.2265   19.8379 H   0  0  0  0  0  0
  -25.1322  -36.1834   25.0803 H   0  0  0  0  0  0
  -21.0021  -28.3325   24.1342 H   0  0  0  0  0  0
  -20.5684  -26.2346   23.3632 H   0  0  0  0  0  0
  -21.6659  -26.7421   22.1204 H   0  0  0  0  0  0
  -19.6926  -25.6279   21.1267 H   0  0  0  0  0  0
  -19.6703  -27.3170   20.6733 H   0  0  0  0  0  0
  -17.4217  -26.6679   21.4029 H   0  0  0  0  0  0
  -18.0344  -26.0083   22.9028 H   0  0  0  0  0  0
  -19.7959  -30.7301   24.2226 H   0  0  0  0  0  0
  -17.5030  -31.6271   24.5160 H   0  0  0  0  0  0
  -15.5368  -30.2973   23.7678 H   0  0  0  0  0  0
  -15.8696  -28.0806   22.7095 H   0  0  0  0  0  0
  -24.5876  -30.7119   25.7697 H   0  0  0  0  0  0
  -24.8884  -32.2957   26.4746 H   0  0  0  0  0  0
  -25.7950  -30.8972   27.0215 H   0  0  0  0  0  0
  -26.3058  -29.6646   24.1337 H   0  0  0  0  0  0
  -27.3989  -29.7270   25.4950 H   0  0  0  0  0  0
  -27.8980  -30.4167   23.9712 H   0  0  0  0  0  0
  -27.2636  -33.3659   26.2013 H   0  0  0  0  0  0
  -28.3900  -32.6858   25.0362 H   0  0  0  0  0  0
  -28.0680  -31.8509   26.5478 H   0  0  0  0  0  0
  -28.2585  -38.0081   24.7505 H   0  0  0  0  0  0
  -28.1075  -36.2608   24.6307 H   0  0  0  0  0  0
  -27.2287  -37.1441   25.8868 H   0  0  0  0  0  0
  -20.9511  -29.8749   21.6747 H   0  0  0  0  0  0
  -26.0150  -38.2799   24.1399 H   0  0  0  0  0  0
  -27.9729  -22.4608   22.2014 H   0  0  0  0  0  0
  -29.7604  -22.1323   22.0873 H   0  0  0  0  0  0
  -30.0474  -19.1670   22.2535 H   0  0  0  0  0  0
  -28.3996  -18.7670   21.6938 H   0  0  0  0  0  0
  -28.1960  -18.6446   19.3107 H   0  0  0  0  0  0
  -29.7206  -18.9753   18.4420 H   0  0  0  0  0  0
  -29.9058  -23.2421   19.8614 H   0  0  0  0  0  0
  -31.1114  -18.0126   20.2950 H   0  0  0  0  0  0
  -27.5185  -21.0887   20.1856 H   0  0  0  0  0  0
  -27.0747  -24.3022   20.7221 H   0  0  0  0  0  0
  -27.5705  -24.3830   19.0768 H   0  0  0  0  0  0
  -28.7566  -16.0576   20.6729 H   0  0  0  0  0  0
  -30.4771  -20.3645   20.2257 H   0  0  0  0  0  0
  1 25  1  0  0  0
  1 30  2  0  0  0
  1 78  1  0  0  0
  2  3  1  0  0  0
  2 25  1  0  0  0
  2 80  1  0  0  0
  2 81  1  0  0  0
  3  4  1  0  0  0
  3 82  1  0  0  0
  3 83  1  0  0  0
  4  5  1  0  0  0
  4 84  1  0  0  0
  4 85  1  0  0  0
  5  6  1  0  0  0
  5 26  1  0  0  0
  5 86  1  0  0  0
  6 25  1  0  0  0
  6 87  1  0  0  0
  6 88  1  0  0  0
  7  8  2  0  0  0
  7 26  1  0  0  0
  7 29  1  0  0  0
  8  9  1  0  0  0
  8 22  1  0  0  0
  9 10  1  0  0  0
  9 27  2  0  0  0
 10 11  2  0  0  0
 10 15  1  0  0  0
 11 12  1  0  0  0
 11 89  1  0  0  0
 12 13  2  0  0  0
 12 90  1  0  0  0
 13 14  1  0  0  0
 13 31  1  0  0  0
 14 15  2  0  0  0
 14 91  1  0  0  0
 15 92  1  0  0  0
 16 17  2  0  0  0
 16 21  1  0  0  0
 16 31  1  0  0  0
 17 18  1  0  0  0
 17 93  1  0  0  0
 18 19  2  0  0  0
 18 94  1  0  0  0
 19 20  1  0  0  0
 19 24  1  0  0  0
 20 21  2  0  0  0
 20 95  1  0  0  0
 21 23  1  0  0  0
 22 28  1  0  0  0
 22 32  2  0  0  0
 26 27  1  0  0  0
 28 96  1  0  0  0
 28 97  1  0  0  0
 29 98  1  0  0  0
 29 99  1  0  0  0
 33 34  1  0  0  0
 33 66  1  0  0  0
 33 70  2  0  0  0
 34 36  1  0  0  0
 34 59  1  0  0  0
 34100  1  0  0  0
 35 44  2  0  0  0
 35 45  1  0  0  0
 35 68  1  0  0  0
 36 56  1  0  0  0
 36101  1  0  0  0
 37 39  1  0  0  0
 37 47  1  0  0  0
 37 66  1  0  0  0
 37102  1  0  0  0
 38 43  2  0  0  0
 38 46  1  0  0  0
 38 47  1  0  0  0
 39 64  1  0  0  0
 39 67  2  0  0  0
 40 52  1  0  0  0
 40 53  2  0  0  0
 40 58  1  0  0  0
 41103  1  0  0  0
 41104  1  0  0  0
 41105  1  0  0  0
 41 48  1  0  0  0
 42 43  1  0  0  0
 42 66  1  0  0  0
 42106  1  0  0  0
 42107  1  0  0  0
 43 44  1  0  0  0
 44108  1  0  0  0
 45 46  2  0  0  0
 45109  1  0  0  0
 46110  1  0  0  0
 47111  1  0  0  0
 47112  1  0  0  0
 48 56  1  0  0  0
 48 65  1  0  0  0
 48113  1  0  0  0
 49 50  1  0  0  0
 49 53  1  0  0  0
 49 64  1  0  0  0
 49114  1  0  0  0
 50 51  1  0  0  0
 50115  1  0  0  0
 50116  1  0  0  0
 51 52  1  0  0  0
 51117  1  0  0  0
 51118  1  0  0  0
 52119  1  0  0  0
 52120  1  0  0  0
 53 54  1  0  0  0
 54 55  2  0  0  0
 54121  1  0  0  0
 55 57  1  0  0  0
 55122  1  0  0  0
 56 69  2  0  0  0
 57 58  2  0  0  0
 57123  1  0  0  0
 58124  1  0  0  0
 59 60  1  0  0  0
 59 61  1  0  0  0
 59 62  1  0  0  0
 60125  1  0  0  0
 60126  1  0  0  0
 60127  1  0  0  0
 61128  1  0  0  0
 61129  1  0  0  0
 61130  1  0  0  0
 62131  1  0  0  0
 62132  1  0  0  0
 62133  1  0  0  0
 63 65  1  0  0  0
 63134  1  0  0  0
 63135  1  0  0  0
 63136  1  0  0  0
 64137  1  0  0  0
 65138  1  0  0  0
 68 77  1  0  0  0
 71 74  1  0  0  0
 71139  1  0  0  0
 71140  1  0  0  0
 71 76  1  0  0  0
 72 75  1  0  0  0
 72141  1  0  0  0
 72142  1  0  0  0
 72 79  1  0  0  0
 73 75  1  0  0  0
 73 79  1  0  0  0
 73143  1  0  0  0
 73144  1  0  0  0
 74 76  1  0  0  0
 74 77  1  0  0  0
 74145  1  0  0  0
 75 78  1  0  0  0
 75146  1  0  0  0
 76 79  1  0  0  0
 76147  1  0  0  0
 77148  1  0  0  0
 77149  1  0  0  0
 78150  1  0  0  0
 79151  1  0  0  0
M  CHG  1  79   1
M  ISO  4   1 100  68 101  77 101  78 100
M  END
> <chiral flag>
0

> <version>
0

> <s_m_source_file>
/data/baiqing/PycharmProjects/Reinvent-master-3.2/result/LINK_invent/BTK/process_docking_weight1_custom_sum_contain_oxygen_bond_distance_aromatic_linkinvent_7_9_3/rearranged_h_0190.sdf

> <i_m_source_file_index>
77

> <r_mmod_Potential_Energy-OPLS-2005>
612.522766113281

> <r_mmod_Stretch_Energy-OPLS-2005>
351.476715087891

> <r_mmod_Bend_Energy-OPLS-2005>
350.574127197266

> <r_mmod_Torsional_Energy-OPLS-2005>
275.959381103516

> <r_mmod_Improper_Torsional_Energy-OPLS-2005>
4.37523412704468

> <r_mmod_Van_der_Waal_Energy-OPLS-2005>
115.291572570801

> <r_mmod_Electrostatic_Energy-OPLS-2005>
-258.088012695312

> <r_mmod_Solvation_Energy-OPLS-2005>
-494.773742675781

> <b_mmod_Minimization_Converged-OPLS-2005>
0

> <r_mmod_RMS_Derivative-OPLS-2005>
0.606028914451599

$$$$
77
                    3D
 Structure written by MMmdl.
172181  0  0  1  0            999 V2000
  -30.6227  -14.8048   20.4664 C   0  0  0  0  0  0
  -30.4216  -12.5022   19.4846 C   0  0  0  0  0  0
  -29.5081  -12.5209   18.2397 C   0  0  0  0  0  0
  -28.0353  -12.3345   18.6529 C   0  0  0  0  0  0
  -27.6353  -13.2351   19.8523 C   0  0  2  0  0  0
  -28.6807  -13.2013   20.9858 C   0  0  0  0  0  0
  -25.2466  -13.8147   20.5702 C   0  0  0  0  0  0
  -24.1785  -13.0421   20.9270 C   0  0  0  0  0  0
  -24.6390  -11.6888   20.8803 C   0  0  0  0  0  0
  -23.9074  -10.4259   21.0403 C   0  0  0  0  0  0
  -24.3606   -9.4186   21.9188 C   0  0  0  0  0  0
  -23.6270   -8.2220   22.0742 C   0  0  0  0  0  0
  -22.4266   -8.0256   21.3517 C   0  0  0  0  0  0
  -21.9930   -9.0228   20.4594 C   0  0  0  0  0  0
  -22.7274  -10.2099   20.3006 C   0  0  0  0  0  0
  -21.6821   -6.0710   22.5273 C   0  0  0  0  0  0
  -21.3988   -6.5621   23.8202 C   0  0  0  0  0  0
  -21.3649   -5.6780   24.9176 C   0  0  0  0  0  0
  -21.6041   -4.3045   24.7229 C   0  0  0  0  0  0
  -21.8808   -3.8136   23.4346 C   0  0  0  0  0  0
  -21.9184   -4.6945   22.3399 C   0  0  0  0  0  0
  -22.7791  -13.5188   21.1881 C   0  0  0  0  0  0
  -22.1684   -4.2121   21.0978 F   0  0  0  0  0  0
  -21.5636   -3.4536   25.7737 F   0  0  0  0  0  0
  -29.9611  -13.5909   20.3882 N   0  0  0  0  0  0
  -26.2925  -12.9385   20.3374 N   0  0  0  0  0  0
  -25.9346  -11.6544   20.5879 N   0  0  0  0  0  0
  -22.0391  -12.8148   22.0361 N   0  0  0  0  0  0
  -25.4026  -15.1840   20.3673 N   0  0  0  0  0  0
  -31.8237  -14.8259   20.1810 O   0  0  0  0  0  0
  -21.6622   -6.8859   21.4239 O   0  0  0  0  0  0
  -22.3559  -14.5564   20.6726 O   0  0  0  0  0  0
  -24.6340  -31.8518   23.1963 C   0  0  0  0  0  0
  -25.9173  -32.4718   23.8278 C   0  0  1  0  0  0
  -27.2071  -27.2420   20.1410 C   0  0  0  0  0  0
  -25.5974  -33.8522   24.2204 N   0  0  0  0  0  0
  -23.4300  -30.4792   21.5370 C   0  0  2  0  0  0
  -24.8758  -28.9240   20.1050 C   0  0  0  0  0  0
  -22.7494  -29.4616   22.4853 C   0  0  0  0  0  0
  -18.0303  -28.1389   22.8473 C   0  0  0  0  0  0
  -24.1500  -36.7254   23.2633 C   0  0  0  0  0  0
  -25.9776  -30.7625   21.3782 C   0  0  0  0  0  0
  -26.0491  -29.3833   20.7222 C   0  0  0  0  0  0
  -27.2201  -28.5540   20.7307 C   0  0  0  0  0  0
  -26.0227  -26.8700   19.4712 C   0  0  0  0  0  0
  -24.8682  -27.6767   19.4674 C   0  0  0  0  0  0
  -23.6490  -29.8146   20.1518 C   0  0  0  0  0  0
  -25.4125  -36.3031   24.0312 C   0  0  1  0  0  0
  -20.5904  -28.3702   23.1242 C   0  0  2  0  0  0
  -20.6791  -26.9412   22.5395 C   0  0  0  0  0  0
  -19.5764  -26.6379   21.5203 C   0  0  0  0  0  0
  -18.1940  -26.7929   22.1607 C   0  0  0  0  0  0
  -19.1553  -28.8857   23.2855 C   0  0  0  0  0  0
  -18.9474  -30.1464   23.8872 C   0  0  0  0  0  0
  -17.6477  -30.6586   24.0557 C   0  0  0  0  0  0
  -25.9066  -34.9420   23.5039 C   0  0  0  0  0  0
  -16.5367  -29.9087   23.6335 C   0  0  0  0  0  0
  -16.7293  -28.6504   23.0346 C   0  0  0  0  0  0
  -26.4550  -31.6554   25.0667 C   0  0  0  0  0  0
  -25.3795  -31.3731   26.1396 C   0  0  0  0  0  0
  -27.0370  -30.2949   24.6187 C   0  0  0  0  0  0
  -27.6073  -32.4323   25.7452 C   0  0  0  0  0  0
  -27.5568  -37.1791   24.8458 C   0  0  0  0  0  0
  -21.4197  -29.3058   22.3613 N   0  0  0  0  0  0
  -26.4272  -37.3766   23.9413 N   0  0  0  0  0  0
  -24.6991  -31.0512   22.0918 N   0  0  0  0  0  0
  -23.4195  -28.8148   23.2953 O   0  0  0  0  0  0
  -28.2669  -26.2987   20.1859 O   0  0  0  0  0  0
  -26.5626  -34.8925   22.4606 O   0  0  0  0  0  0
  -23.5494  -32.1302   23.7292 O   0  0  0  0  0  0
  -28.8383  -20.7385   20.6066 C   0  0  0  0  0  0
  -26.4875  -20.7136   22.0470 C   0  0  0  0  0  0
  -28.4326  -19.4476   21.1927 C   0  0  0  0  0  0
  -28.0930  -22.0107   20.7355 C   0  0  0  0  0  0
  -27.2521  -19.5284   21.9958 C   0  0  0  0  0  0
  -26.8490  -21.9138   21.4102 C   0  0  0  0  0  0
  -28.5989  -16.5841   20.8190 C   0  0  0  0  0  0
  -30.4190  -17.4542   20.3362 C   0  0  0  0  0  0
  -29.2090  -18.0107   21.1560 C   0  0  0  0  0  0
  -23.5619  -18.1582   20.9949 C   0  0  0  0  0  0
  -24.6090  -22.7939   21.5632 C   0  0  0  0  0  0
  -28.5320  -23.4560   20.1295 C   0  0  0  0  0  0
  -25.2918  -18.0294   22.7665 C   0  0  0  0  0  0
  -27.9502  -24.9002   20.6899 C   0  0  0  0  0  0
  -26.7836  -18.4118   22.9371 C   0  0  2  0  0  0
  -29.9612  -16.0428   20.5985 N   0  0  0  0  0  0
  -26.9951  -18.8461   24.3039 N   0  0  0  0  0  0
  -24.9455  -17.7890   21.3553 N   0  3  0  0  0  0
  -26.0167  -23.0044   21.4928 O   0  0  0  0  0  0
  -31.4636  -12.6140   19.1858 H   0  0  0  0  0  0
  -30.3665  -11.5340   19.9842 H   0  0  0  0  0  0
  -29.8034  -11.7345   17.5456 H   0  0  0  0  0  0
  -29.6242  -13.4648   17.7040 H   0  0  0  0  0  0
  -27.9004  -11.2868   18.9209 H   0  0  0  0  0  0
  -27.3788  -12.5165   17.8008 H   0  0  0  0  0  0
  -27.6161  -14.2510   19.4632 H   0  0  0  0  0  0
  -28.7452  -12.2048   21.4263 H   0  0  0  0  0  0
  -28.4079  -13.8685   21.8020 H   0  0  0  0  0  0
  -25.2741   -9.5647   22.4777 H   0  0  0  0  0  0
  -23.9964   -7.4624   22.7487 H   0  0  0  0  0  0
  -21.0873   -8.8745   19.8871 H   0  0  0  0  0  0
  -22.3801  -10.9630   19.6063 H   0  0  0  0  0  0
  -21.1985   -7.6141   23.9687 H   0  0  0  0  0  0
  -21.1489   -6.0524   25.9067 H   0  0  0  0  0  0
  -22.0602   -2.7591   23.2874 H   0  0  0  0  0  0
  -22.4047  -11.9930   22.4963 H   0  0  0  0  0  0
  -21.0891  -13.0966   22.2300 H   0  0  0  0  0  0
  -24.5281  -15.4780   19.9431 H   0  0  0  0  0  0
  -26.1682  -15.3311   19.7198 H   0  0  0  0  0  0
  -26.7244  -32.5376   23.1021 H   0  0  0  0  0  0
  -25.0233  -33.9621   25.0429 H   0  0  0  0  0  0
  -22.7286  -31.3034   21.3905 H   0  0  0  0  0  0
  -23.3765  -35.9585   23.3267 H   0  0  0  0  0  0
  -24.3601  -36.8892   22.2048 H   0  0  0  0  0  0
  -23.7258  -37.6451   23.6681 H   0  0  0  0  0  0
  -26.1266  -31.5256   20.6115 H   0  0  0  0  0  0
  -26.8509  -30.8036   22.0182 H   0  0  0  0  0  0
  -28.1130  -28.8940   21.2375 H   0  0  0  0  0  0
  -25.9713  -25.9161   18.9656 H   0  0  0  0  0  0
  -23.9754  -27.3234   18.9679 H   0  0  0  0  0  0
  -23.7809  -30.5895   19.3951 H   0  0  0  0  0  0
  -22.7671  -29.2503   19.8432 H   0  0  0  0  0  0
  -25.1349  -36.1822   25.0812 H   0  0  0  0  0  0
  -21.0013  -28.3304   24.1356 H   0  0  0  0  0  0
  -20.5655  -26.2330   23.3606 H   0  0  0  0  0  0
  -21.6666  -26.7425   22.1213 H   0  0  0  0  0  0
  -19.6908  -25.6282   21.1244 H   0  0  0  0  0  0
  -19.6697  -27.3185   20.6717 H   0  0  0  0  0  0
  -17.4210  -26.6663   21.4010 H   0  0  0  0  0  0
  -18.0338  -26.0086   22.9004 H   0  0  0  0  0  0
  -19.7966  -30.7281   24.2200 H   0  0  0  0  0  0
  -17.5047  -31.6258   24.5167 H   0  0  0  0  0  0
  -15.5358  -30.2975   23.7691 H   0  0  0  0  0  0
  -15.8691  -28.0828   22.7060 H   0  0  0  0  0  0
  -24.5975  -30.7062   25.7764 H   0  0  0  0  0  0
  -24.8999  -32.2912   26.4806 H   0  0  0  0  0  0
  -25.8135  -30.8941   27.0176 H   0  0  0  0  0  0
  -26.2934  -29.6696   24.1228 H   0  0  0  0  0  0
  -27.4022  -29.7232   25.4726 H   0  0  0  0  0  0
  -27.8856  -30.4162   23.9444 H   0  0  0  0  0  0
  -27.2637  -33.3640   26.1981 H   0  0  0  0  0  0
  -28.3927  -32.6846   25.0312 H   0  0  0  0  0  0
  -28.0707  -31.8479   26.5413 H   0  0  0  0  0  0
  -28.2591  -38.0085   24.7543 H   0  0  0  0  0  0
  -28.1044  -36.2618   24.6251 H   0  0  0  0  0  0
  -27.2273  -37.1421   25.8854 H   0  0  0  0  0  0
  -20.9339  -29.8802   21.6857 H   0  0  0  0  0  0
  -26.0102  -38.2815   24.1464 H   0  0  0  0  0  0
  -29.7677  -20.7565   20.0555 H   0  0  0  0  0  0
  -25.5970  -20.7181   22.6532 H   0  0  0  0  0  0
  -27.9977  -16.6016   19.9097 H   0  0  0  0  0  0
  -28.0622  -16.0869   21.6239 H   0  0  0  0  0  0
  -31.3879  -17.7085   20.7653 H   0  0  0  0  0  0
  -30.3872  -17.7271   19.2798 H   0  0  0  0  0  0
  -29.5545  -17.9590   22.1920 H   0  0  0  0  0  0
  -23.3030  -17.7649   20.0104 H   0  0  0  0  0  0
  -23.4568  -19.2425   20.9510 H   0  0  0  0  0  0
  -22.8420  -17.7773   21.7223 H   0  0  0  0  0  0
  -24.0949  -23.7267   21.3242 H   0  0  0  0  0  0
  -24.2918  -22.4955   22.5625 H   0  0  0  0  0  0
  -24.2768  -22.0459   20.8427 H   0  0  0  0  0  0
  -28.2754  -23.4067   19.0709 H   0  0  0  0  0  0
  -29.6211  -23.4938   20.1556 H   0  0  0  0  0  0
  -24.6513  -18.8180   23.1634 H   0  0  0  0  0  0
  -25.0541  -17.1365   23.3475 H   0  0  0  0  0  0
  -28.1713  -24.9377   21.7568 H   0  0  0  0  0  0
  -26.8749  -24.8419   20.6389 H   0  0  0  0  0  0
  -27.3910  -17.5238   22.8427 H   0  0  0  0  0  0
  -26.0986  -18.9475   24.7672 H   0  0  0  0  0  0
  -27.3731  -19.7871   24.2706 H   0  0  0  0  0  0
  -25.5717  -18.3289   20.7790 H   0  0  0  0  0  0
  -25.1090  -16.8037   21.1504 H   0  0  0  0  0  0
  1 25  1  0  0  0
  1 30  2  0  0  0
  1 86  1  0  0  0
  2  3  1  0  0  0
  2 25  1  0  0  0
  2 90  1  0  0  0
  2 91  1  0  0  0
  3  4  1  0  0  0
  3 92  1  0  0  0
  3 93  1  0  0  0
  4  5  1  0  0  0
  4 94  1  0  0  0
  4 95  1  0  0  0
  5  6  1  0  0  0
  5 26  1  0  0  0
  5 96  1  0  0  0
  6 25  1  0  0  0
  6 97  1  0  0  0
  6 98  1  0  0  0
  7  8  2  0  0  0
  7 26  1  0  0  0
  7 29  1  0  0  0
  8  9  1  0  0  0
  8 22  1  0  0  0
  9 10  1  0  0  0
  9 27  2  0  0  0
 10 11  2  0  0  0
 10 15  1  0  0  0
 11 12  1  0  0  0
 11 99  1  0  0  0
 12 13  2  0  0  0
 12100  1  0  0  0
 13 14  1  0  0  0
 13 31  1  0  0  0
 14 15  2  0  0  0
 14101  1  0  0  0
 15102  1  0  0  0
 16 17  2  0  0  0
 16 21  1  0  0  0
 16 31  1  0  0  0
 17 18  1  0  0  0
 17103  1  0  0  0
 18 19  2  0  0  0
 18104  1  0  0  0
 19 20  1  0  0  0
 19 24  1  0  0  0
 20 21  2  0  0  0
 20105  1  0  0  0
 21 23  1  0  0  0
 22 28  1  0  0  0
 22 32  2  0  0  0
 26 27  1  0  0  0
 28106  1  0  0  0
 28107  1  0  0  0
 29108  1  0  0  0
 29109  1  0  0  0
 33 34  1  0  0  0
 33 66  1  0  0  0
 33 70  2  0  0  0
 34 36  1  0  0  0
 34 59  1  0  0  0
 34110  1  0  0  0
 35 44  2  0  0  0
 35 45  1  0  0  0
 35 68  1  0  0  0
 36 56  1  0  0  0
 36111  1  0  0  0
 37 39  1  0  0  0
 37 47  1  0  0  0
 37 66  1  0  0  0
 37112  1  0  0  0
 38 43  2  0  0  0
 38 46  1  0  0  0
 38 47  1  0  0  0
 39 64  1  0  0  0
 39 67  2  0  0  0
 40 52  1  0  0  0
 40 53  2  0  0  0
 40 58  1  0  0  0
 41113  1  0  0  0
 41114  1  0  0  0
 41115  1  0  0  0
 41 48  1  0  0  0
 42 43  1  0  0  0
 42 66  1  0  0  0
 42116  1  0  0  0
 42117  1  0  0  0
 43 44  1  0  0  0
 44118  1  0  0  0
 45 46  2  0  0  0
 45119  1  0  0  0
 46120  1  0  0  0
 47121  1  0  0  0
 47122  1  0  0  0
 48 56  1  0  0  0
 48 65  1  0  0  0
 48123  1  0  0  0
 49 50  1  0  0  0
 49 53  1  0  0  0
 49 64  1  0  0  0
 49124  1  0  0  0
 50 51  1  0  0  0
 50125  1  0  0  0
 50126  1  0  0  0
 51 52  1  0  0  0
 51127  1  0  0  0
 51128  1  0  0  0
 52129  1  0  0  0
 52130  1  0  0  0
 53 54  1  0  0  0
 54 55  2  0  0  0
 54131  1  0  0  0
 55 57  1  0  0  0
 55132  1  0  0  0
 56 69  2  0  0  0
 57 58  2  0  0  0
 57133  1  0  0  0
 58134  1  0  0  0
 59 60  1  0  0  0
 59 61  1  0  0  0
 59 62  1  0  0  0
 60135  1  0  0  0
 60136  1  0  0  0
 60137  1  0  0  0
 61138  1  0  0  0
 61139  1  0  0  0
 61140  1  0  0  0
 62141  1  0  0  0
 62142  1  0  0  0
 62143  1  0  0  0
 63 65  1  0  0  0
 63144  1  0  0  0
 63145  1  0  0  0
 63146  1  0  0  0
 64147  1  0  0  0
 65148  1  0  0  0
 68 84  1  0  0  0
 71 73  2  0  0  0
 71 74  1  0  0  0
 71149  1  0  0  0
 72 75  2  0  0  0
 72 76  1  0  0  0
 72150  1  0  0  0
 73 75  1  0  0  0
 73 79  1  0  0  0
 74 76  2  0  0  0
 74 82  1  0  0  0
 75 85  1  0  0  0
 76 89  1  0  0  0
 77 79  1  0  0  0
 77 86  1  0  0  0
 77151  1  0  0  0
 77152  1  0  0  0
 78 79  1  0  0  0
 78 86  1  0  0  0
 78153  1  0  0  0
 78154  1  0  0  0
 79155  1  0  0  0
 80 88  1  0  0  0
 80156  1  0  0  0
 80157  1  0  0  0
 80158  1  0  0  0
 81 89  1  0  0  0
 81159  1  0  0  0
 81160  1  0  0  0
 81161  1  0  0  0
 82 84  1  0  0  0
 82162  1  0  0  0
 82163  1  0  0  0
 83 85  1  0  0  0
 83 88  1  0  0  0
 83164  1  0  0  0
 83165  1  0  0  0
 84166  1  0  0  0
 84167  1  0  0  0
 85 87  1  0  0  0
 85168  1  0  0  0
 87169  1  0  0  0
 87170  1  0  0  0
 88171  1  0  0  0
 88172  1  0  0  0
M  CHG  1  88   1
M  ISO  4   1 100  68 101  84 101  86 100
M  END
> <chiral flag>
0

> <version>
0

> <s_m_source_file>
/data/baiqing/PycharmProjects/Reinvent-master-3.2/result/LINK_invent/BTK/process_docking_weight1_custom_sum_contain_oxygen_bond_distance_aromatic_linkinvent_7_9_3/rearranged_h_0190.sdf

> <i_m_source_file_index>
78

> <r_mmod_Potential_Energy-OPLS-2005>
182.446411132812

> <r_mmod_Stretch_Energy-OPLS-2005>
170.287826538086

> <r_mmod_Bend_Energy-OPLS-2005>
253.909378051758

> <r_mmod_Torsional_Energy-OPLS-2005>
315.627655029297

> <r_mmod_Improper_Torsional_Energy-OPLS-2005>
13.4303798675537

> <r_mmod_Van_der_Waal_Energy-OPLS-2005>
157.925018310547

> <r_mmod_Electrostatic_Energy-OPLS-2005>
-361.045562744141

> <r_mmod_Solvation_Energy-OPLS-2005>
-476.931549072266

> <b_mmod_Minimization_Converged-OPLS-2005>
0

> <r_mmod_RMS_Derivative-OPLS-2005>
3.94562268257141

$$$$
78
                    3D
 Structure written by MMmdl.
164174  0  0  1  0            999 V2000
  -30.5801  -14.8076   20.4485 C   0  0  0  0  0  0
  -30.4381  -12.4971   19.4744 C   0  0  0  0  0  0
  -29.5122  -12.5125   18.2374 C   0  0  0  0  0  0
  -28.0405  -12.3243   18.6548 C   0  0  0  0  0  0
  -27.6375  -13.2341   19.8457 C   0  0  2  0  0  0
  -28.6832  -13.1929   20.9801 C   0  0  0  0  0  0
  -25.2495  -13.8194   20.5699 C   0  0  0  0  0  0
  -24.1795  -13.0435   20.9219 C   0  0  0  0  0  0
  -24.6391  -11.6914   20.8754 C   0  0  0  0  0  0
  -23.9070  -10.4289   21.0409 C   0  0  0  0  0  0
  -24.3620   -9.4205   21.9185 C   0  0  0  0  0  0
  -23.6296   -8.2240   22.0753 C   0  0  0  0  0  0
  -22.4277   -8.0278   21.3543 C   0  0  0  0  0  0
  -21.9913   -9.0251   20.4644 C   0  0  0  0  0  0
  -22.7244  -10.2130   20.3056 C   0  0  0  0  0  0
  -21.6854   -6.0735   22.5278 C   0  0  0  0  0  0
  -21.4014   -6.5638   23.8211 C   0  0  0  0  0  0
  -21.3660   -5.6792   24.9173 C   0  0  0  0  0  0
  -21.6045   -4.3055   24.7224 C   0  0  0  0  0  0
  -21.8819   -3.8147   23.4345 C   0  0  0  0  0  0
  -21.9193   -4.6963   22.3401 C   0  0  0  0  0  0
  -22.7816  -13.5213   21.1878 C   0  0  0  0  0  0
  -22.1662   -4.2148   21.0979 F   0  0  0  0  0  0
  -21.5629   -3.4539   25.7738 F   0  0  0  0  0  0
  -29.9739  -13.5676   20.3898 N   0  0  0  0  0  0
  -26.2918  -12.9403   20.3266 N   0  0  0  0  0  0
  -25.9320  -11.6545   20.5748 N   0  0  0  0  0  0
  -22.0464  -12.8197   22.0430 N   0  0  0  0  0  0
  -25.4168  -15.1920   20.4107 N   0  0  0  0  0  0
  -31.7779  -14.9050   20.1674 O   0  0  0  0  0  0
  -21.6641   -6.8876   21.4239 O   0  0  0  0  0  0
  -22.3498  -14.5517   20.6724 O   0  0  0  0  0  0
  -24.6349  -31.8515   23.1941 C   0  0  0  0  0  0
  -25.9156  -32.4736   23.8305 C   0  0  1  0  0  0
  -27.2206  -27.2249   20.1477 C   0  0  0  0  0  0
  -25.5936  -33.8539   24.2229 N   0  0  0  0  0  0
  -23.4339  -30.4713   21.5383 C   0  0  2  0  0  0
  -24.8830  -28.9063   20.1153 C   0  0  0  0  0  0
  -22.7520  -29.4585   22.4902 C   0  0  0  0  0  0
  -18.0295  -28.1391   22.8485 C   0  0  0  0  0  0
  -24.1489  -36.7274   23.2642 C   0  0  0  0  0  0
  -25.9818  -30.7546   21.3773 C   0  0  0  0  0  0
  -26.0565  -29.3714   20.7239 C   0  0  0  0  0  0
  -27.2315  -28.5462   20.7215 C   0  0  0  0  0  0
  -26.0258  -26.8313   19.5119 C   0  0  0  0  0  0
  -24.8744  -27.6456   19.4965 C   0  0  0  0  0  0
  -23.6555  -29.7989   20.1575 C   0  0  0  0  0  0
  -25.4120  -36.3057   24.0321 C   0  0  1  0  0  0
  -20.5901  -28.3707   23.1262 C   0  0  2  0  0  0
  -20.6782  -26.9421   22.5409 C   0  0  0  0  0  0
  -19.5756  -26.6386   21.5215 C   0  0  0  0  0  0
  -18.1936  -26.7932   22.1627 C   0  0  0  0  0  0
  -19.1549  -28.8867   23.2867 C   0  0  0  0  0  0
  -18.9469  -30.1467   23.8886 C   0  0  0  0  0  0
  -17.6467  -30.6591   24.0564 C   0  0  0  0  0  0
  -25.9063  -34.9430   23.5082 C   0  0  0  0  0  0
  -16.5358  -29.9087   23.6334 C   0  0  0  0  0  0
  -16.7281  -28.6504   23.0356 C   0  0  0  0  0  0
  -26.4509  -31.6576   25.0713 C   0  0  0  0  0  0
  -25.3719  -31.3729   26.1424 C   0  0  0  0  0  0
  -27.0367  -30.2990   24.6223 C   0  0  0  0  0  0
  -27.6054  -32.4325   25.7491 C   0  0  0  0  0  0
  -27.5577  -37.1793   24.8466 C   0  0  0  0  0  0
  -21.4223  -29.3045   22.3645 N   0  0  0  0  0  0
  -26.4290  -37.3764   23.9408 N   0  0  0  0  0  0
  -24.7029  -31.0447   22.0930 N   0  0  0  0  0  0
  -23.4200  -28.8133   23.3023 O   0  0  0  0  0  0
  -28.3035  -26.3080   20.1511 O   0  0  0  0  0  0
  -26.5643  -34.8915   22.4657 O   0  0  0  0  0  0
  -23.5491  -32.1349   23.7218 O   0  0  0  0  0  0
  -28.5618  -23.5621   18.5588 C   0  0  0  0  0  0
  -28.8052  -22.3503   17.8955 C   0  0  0  0  0  0
  -28.5448  -23.5632   19.9577 C   0  0  0  0  0  0
  -29.0311  -21.1964   19.8754 C   0  0  0  0  0  0
  -31.0305  -21.1400   15.4626 C   0  0  0  0  0  0
  -30.5065  -22.0400   14.3732 C   0  0  0  0  0  0
  -29.7949  -18.0995   22.0533 C   0  0  0  0  0  0
  -29.6864  -19.6446   21.8421 C   0  0  0  0  0  0
  -29.3836  -18.5415   19.7718 C   0  0  0  0  0  0
  -30.2404  -22.3799   15.8246 C   0  0  0  0  0  0
  -30.1286  -17.4539   20.6908 C   0  0  2  0  0  0
  -28.8297  -22.2858   16.3789 C   0  0  0  0  0  0
  -28.1053  -24.9110   20.7222 C   0  0  0  0  0  0
  -29.0294  -21.1936   18.5530 N   0  0  0  0  0  0
  -28.7972  -22.3396   20.6021 N   0  0  0  0  0  0
  -29.2964  -19.8887   20.4579 N   0  0  0  0  0  0
  -29.7854  -15.9449   20.6231 N   0  0  0  0  0  0
  -31.4752  -12.6412   19.1666 H   0  0  0  0  0  0
  -30.4049  -11.5271   19.9731 H   0  0  0  0  0  0
  -29.8048  -11.7305   17.5355 H   0  0  0  0  0  0
  -29.6245  -13.4589   17.7061 H   0  0  0  0  0  0
  -27.9103  -11.2775   18.9315 H   0  0  0  0  0  0
  -27.3797  -12.4977   17.8046 H   0  0  0  0  0  0
  -27.6222  -14.2503   19.4514 H   0  0  0  0  0  0
  -28.7367  -12.1992   21.4274 H   0  0  0  0  0  0
  -28.4093  -13.8773   21.7846 H   0  0  0  0  0  0
  -25.2763   -9.5681   22.4762 H   0  0  0  0  0  0
  -24.0005   -7.4629   22.7470 H   0  0  0  0  0  0
  -21.0847   -8.8768   19.8946 H   0  0  0  0  0  0
  -22.3702  -10.9669   19.6166 H   0  0  0  0  0  0
  -21.2007   -7.6147   23.9715 H   0  0  0  0  0  0
  -21.1483   -6.0523   25.9077 H   0  0  0  0  0  0
  -22.0599   -2.7609   23.2847 H   0  0  0  0  0  0
  -22.4093  -11.9863   22.4818 H   0  0  0  0  0  0
  -21.1075  -13.1206   22.2633 H   0  0  0  0  0  0
  -24.6451  -15.8412   20.5188 H   0  0  0  0  0  0
  -26.2529  -15.6316   20.0495 H   0  0  0  0  0  0
  -26.7224  -32.5377   23.1047 H   0  0  0  0  0  0
  -25.0070  -33.9667   25.0367 H   0  0  0  0  0  0
  -22.7326  -31.2944   21.3871 H   0  0  0  0  0  0
  -23.3757  -35.9601   23.3299 H   0  0  0  0  0  0
  -24.3577  -36.8909   22.2058 H   0  0  0  0  0  0
  -23.7240  -37.6469   23.6678 H   0  0  0  0  0  0
  -26.1220  -31.5114   20.6042 H   0  0  0  0  0  0
  -26.8584  -30.8082   22.0113 H   0  0  0  0  0  0
  -28.1332  -28.9011   21.2010 H   0  0  0  0  0  0
  -25.9743  -25.8635   19.0329 H   0  0  0  0  0  0
  -23.9770  -27.2837   19.0132 H   0  0  0  0  0  0
  -23.7842  -30.5717   19.3989 H   0  0  0  0  0  0
  -22.7726  -29.2340   19.8525 H   0  0  0  0  0  0
  -25.1305  -36.1898   25.0814 H   0  0  0  0  0  0
  -20.9993  -28.3292   24.1384 H   0  0  0  0  0  0
  -20.5685  -26.2319   23.3619 H   0  0  0  0  0  0
  -21.6649  -26.7442   22.1202 H   0  0  0  0  0  0
  -19.6918  -25.6296   21.1249 H   0  0  0  0  0  0
  -19.6690  -27.3193   20.6743 H   0  0  0  0  0  0
  -17.4205  -26.6684   21.4029 H   0  0  0  0  0  0
  -18.0331  -26.0075   22.9024 H   0  0  0  0  0  0
  -19.7945  -30.7288   24.2249 H   0  0  0  0  0  0
  -17.5019  -31.6269   24.5170 H   0  0  0  0  0  0
  -15.5358  -30.2986   23.7663 H   0  0  0  0  0  0
  -15.8682  -28.0820   22.7078 H   0  0  0  0  0  0
  -24.5902  -30.7073   25.7743 H   0  0  0  0  0  0
  -24.8900  -32.2898   26.4827 H   0  0  0  0  0  0
  -25.8025  -30.8917   27.0215 H   0  0  0  0  0  0
  -26.2963  -29.6722   24.1238 H   0  0  0  0  0  0
  -27.4033  -29.7268   25.4757 H   0  0  0  0  0  0
  -27.8844  -30.4259   23.9486 H   0  0  0  0  0  0
  -27.2660  -33.3640   26.2034 H   0  0  0  0  0  0
  -28.3882  -32.6862   25.0330 H   0  0  0  0  0  0
  -28.0702  -31.8472   26.5435 H   0  0  0  0  0  0
  -28.2590  -38.0094   24.7517 H   0  0  0  0  0  0
  -28.1078  -36.2624   24.6290 H   0  0  0  0  0  0
  -27.2293  -37.1440   25.8868 H   0  0  0  0  0  0
  -20.9418  -29.8757   21.6834 H   0  0  0  0  0  0
  -26.0162  -38.2834   24.1415 H   0  0  0  0  0  0
  -28.3628  -24.4742   18.0104 H   0  0  0  0  0  0
  -32.1012  -21.1539   15.6580 H   0  0  0  0  0  0
  -30.5464  -20.1742   15.5972 H   0  0  0  0  0  0
  -29.6746  -21.6719   13.7752 H   0  0  0  0  0  0
  -31.2278  -22.6537   13.8367 H   0  0  0  0  0  0
  -28.8290  -17.7286   22.3995 H   0  0  0  0  0  0
  -30.5245  -17.8447   22.8230 H   0  0  0  0  0  0
  -30.6520  -20.1219   22.0151 H   0  0  0  0  0  0
  -28.9723  -20.0939   22.5334 H   0  0  0  0  0  0
  -28.3649  -18.2153   19.5598 H   0  0  0  0  0  0
  -29.8869  -18.6371   18.8087 H   0  0  0  0  0  0
  -30.8064  -23.2243   16.2150 H   0  0  0  0  0  0
  -31.2019  -17.5614   20.5222 H   0  0  0  0  0  0
  -28.2376  -23.1065   15.9729 H   0  0  0  0  0  0
  -28.3548  -21.3649   16.0381 H   0  0  0  0  0  0
  -28.6312  -24.9050   21.6769 H   0  0  0  0  0  0
  -27.0558  -24.7813   20.9880 H   0  0  0  0  0  0
  -28.8099  -15.7332   20.7655 H   0  0  0  0  0  0
  1 25  1  0  0  0
  1 30  2  0  0  0
  1 87  1  0  0  0
  2  3  1  0  0  0
  2 25  1  0  0  0
  2 88  1  0  0  0
  2 89  1  0  0  0
  3  4  1  0  0  0
  3 90  1  0  0  0
  3 91  1  0  0  0
  4  5  1  0  0  0
  4 92  1  0  0  0
  4 93  1  0  0  0
  5  6  1  0  0  0
  5 26  1  0  0  0
  5 94  1  0  0  0
  6 25  1  0  0  0
  6 95  1  0  0  0
  6 96  1  0  0  0
  7  8  2  0  0  0
  7 26  1  0  0  0
  7 29  1  0  0  0
  8  9  1  0  0  0
  8 22  1  0  0  0
  9 10  1  0  0  0
  9 27  2  0  0  0
 10 11  2  0  0  0
 10 15  1  0  0  0
 11 12  1  0  0  0
 11 97  1  0  0  0
 12 13  2  0  0  0
 12 98  1  0  0  0
 13 14  1  0  0  0
 13 31  1  0  0  0
 14 15  2  0  0  0
 14 99  1  0  0  0
 15100  1  0  0  0
 16 17  2  0  0  0
 16 21  1  0  0  0
 16 31  1  0  0  0
 17 18  1  0  0  0
 17101  1  0  0  0
 18 19  2  0  0  0
 18102  1  0  0  0
 19 20  1  0  0  0
 19 24  1  0  0  0
 20 21  2  0  0  0
 20103  1  0  0  0
 21 23  1  0  0  0
 22 28  1  0  0  0
 22 32  2  0  0  0
 26 27  1  0  0  0
 28104  1  0  0  0
 28105  1  0  0  0
 29106  1  0  0  0
 29107  1  0  0  0
 33 34  1  0  0  0
 33 66  1  0  0  0
 33 70  2  0  0  0
 34 36  1  0  0  0
 34 59  1  0  0  0
 34108  1  0  0  0
 35 44  2  0  0  0
 35 45  1  0  0  0
 35 68  1  0  0  0
 36 56  1  0  0  0
 36109  1  0  0  0
 37 39  1  0  0  0
 37 47  1  0  0  0
 37 66  1  0  0  0
 37110  1  0  0  0
 38 43  2  0  0  0
 38 46  1  0  0  0
 38 47  1  0  0  0
 39 64  1  0  0  0
 39 67  2  0  0  0
 40 52  1  0  0  0
 40 53  2  0  0  0
 40 58  1  0  0  0
 41111  1  0  0  0
 41112  1  0  0  0
 41113  1  0  0  0
 41 48  1  0  0  0
 42 43  1  0  0  0
 42 66  1  0  0  0
 42114  1  0  0  0
 42115  1  0  0  0
 43 44  1  0  0  0
 44116  1  0  0  0
 45 46  2  0  0  0
 45117  1  0  0  0
 46118  1  0  0  0
 47119  1  0  0  0
 47120  1  0  0  0
 48 56  1  0  0  0
 48 65  1  0  0  0
 48121  1  0  0  0
 49 50  1  0  0  0
 49 53  1  0  0  0
 49 64  1  0  0  0
 49122  1  0  0  0
 50 51  1  0  0  0
 50123  1  0  0  0
 50124  1  0  0  0
 51 52  1  0  0  0
 51125  1  0  0  0
 51126  1  0  0  0
 52127  1  0  0  0
 52128  1  0  0  0
 53 54  1  0  0  0
 54 55  2  0  0  0
 54129  1  0  0  0
 55 57  1  0  0  0
 55130  1  0  0  0
 56 69  2  0  0  0
 57 58  2  0  0  0
 57131  1  0  0  0
 58132  1  0  0  0
 59 60  1  0  0  0
 59 61  1  0  0  0
 59 62  1  0  0  0
 60133  1  0  0  0
 60134  1  0  0  0
 60135  1  0  0  0
 61136  1  0  0  0
 61137  1  0  0  0
 61138  1  0  0  0
 62139  1  0  0  0
 62140  1  0  0  0
 62141  1  0  0  0
 63 65  1  0  0  0
 63142  1  0  0  0
 63143  1  0  0  0
 63144  1  0  0  0
 64145  1  0  0  0
 65146  1  0  0  0
 68 83  1  0  0  0
 71 72  2  0  0  0
 71 73  1  0  0  0
 71147  1  0  0  0
 72 82  1  0  0  0
 72 84  1  0  0  0
 73 83  1  0  0  0
 73 85  2  0  0  0
 74 84  2  0  0  0
 74 85  1  0  0  0
 74 86  1  0  0  0
 75 76  1  0  0  0
 75 80  1  0  0  0
 75148  1  0  0  0
 75149  1  0  0  0
 76 80  1  0  0  0
 76150  1  0  0  0
 76151  1  0  0  0
 77 78  1  0  0  0
 77 81  1  0  0  0
 77152  1  0  0  0
 77153  1  0  0  0
 78 86  1  0  0  0
 78154  1  0  0  0
 78155  1  0  0  0
 79 81  1  0  0  0
 79 86  1  0  0  0
 79156  1  0  0  0
 79157  1  0  0  0
 80 82  1  0  0  0
 80158  1  0  0  0
 81 87  1  0  0  0
 81159  1  0  0  0
 82160  1  0  0  0
 82161  1  0  0  0
 83162  1  0  0  0
 83163  1  0  0  0
 87164  1  0  0  0
M  ISO  4   1 100  68 101  83 101  87 100
M  END
> <chiral flag>
0

> <version>
0

> <s_m_source_file>
/data/baiqing/PycharmProjects/Reinvent-master-3.2/result/LINK_invent/BTK/process_docking_weight1_custom_sum_contain_oxygen_bond_distance_aromatic_linkinvent_7_9_3/rearranged_h_0190.sdf

> <i_m_source_file_index>
79

> <r_mmod_Potential_Energy-OPLS-2005>
-221.574935913086

> <r_mmod_Stretch_Energy-OPLS-2005>
140.466323852539

> <r_mmod_Bend_Energy-OPLS-2005>
210.258819580078

> <r_mmod_Torsional_Energy-OPLS-2005>
299.616638183594

> <r_mmod_Improper_Torsional_Energy-OPLS-2005>
4.87837314605713

> <r_mmod_Van_der_Waal_Energy-OPLS-2005>
130.258255004883

> <r_mmod_Electrostatic_Energy-OPLS-2005>
-867.735534667969

> <r_mmod_Solvation_Energy-OPLS-2005>
-251.088333129883

> <b_mmod_Minimization_Converged-OPLS-2005>
0

> <r_mmod_RMS_Derivative-OPLS-2005>
0.34820944070816

$$$$
79
                    3D
 Structure written by MMmdl.
165174  0  0  1  0            999 V2000
  -30.6887  -14.6656   20.4447 C   0  0  0  0  0  0
  -30.4090  -12.4050   19.4577 C   0  0  0  0  0  0
  -29.4942  -12.4928   18.2207 C   0  0  0  0  0  0
  -28.0200  -12.3388   18.6398 C   0  0  0  0  0  0
  -27.6392  -13.2367   19.8489 C   0  0  2  0  0  0
  -28.6906  -13.1718   20.9770 C   0  0  0  0  0  0
  -25.2496  -13.8203   20.5736 C   0  0  0  0  0  0
  -24.1798  -13.0443   20.9225 C   0  0  0  0  0  0
  -24.6398  -11.6922   20.8766 C   0  0  0  0  0  0
  -23.9074  -10.4296   21.0405 C   0  0  0  0  0  0
  -24.3617   -9.4208   21.9179 C   0  0  0  0  0  0
  -23.6293   -8.2246   22.0751 C   0  0  0  0  0  0
  -22.4275   -8.0278   21.3543 C   0  0  0  0  0  0
  -21.9918   -9.0258   20.4641 C   0  0  0  0  0  0
  -22.7250  -10.2137   20.3053 C   0  0  0  0  0  0
  -21.6853   -6.0729   22.5273 C   0  0  0  0  0  0
  -21.4018   -6.5642   23.8204 C   0  0  0  0  0  0
  -21.3665   -5.6801   24.9170 C   0  0  0  0  0  0
  -21.6039   -4.3060   24.7220 C   0  0  0  0  0  0
  -21.8819   -3.8144   23.4346 C   0  0  0  0  0  0
  -21.9197   -4.6957   22.3402 C   0  0  0  0  0  0
  -22.7813  -13.5200   21.1891 C   0  0  0  0  0  0
  -22.1665   -4.2149   21.0983 F   0  0  0  0  0  0
  -21.5626   -3.4547   25.7742 F   0  0  0  0  0  0
  -29.9905  -13.4867   20.3740 N   0  0  0  0  0  0
  -26.2934  -12.9432   20.3320 N   0  0  0  0  0  0
  -25.9331  -11.6577   20.5787 N   0  0  0  0  0  0
  -22.0482  -12.8182   22.0439 N   0  0  0  0  0  0
  -25.4183  -15.1937   20.4185 N   0  0  0  0  0  0
  -31.8961  -14.6650   20.1832 O   0  0  0  0  0  0
  -21.6641   -6.8874   21.4241 O   0  0  0  0  0  0
  -22.3506  -14.5524   20.6747 O   0  0  0  0  0  0
  -24.6246  -31.8593   23.2035 C   0  0  0  0  0  0
  -25.9084  -32.4780   23.8367 C   0  0  1  0  0  0
  -27.2285  -27.3083   20.1463 C   0  0  0  0  0  0
  -25.5908  -33.8574   24.2300 N   0  0  0  0  0  0
  -23.4213  -30.4799   21.5470 C   0  0  2  0  0  0
  -24.8733  -28.9248   20.1293 C   0  0  0  0  0  0
  -22.7486  -29.4605   22.4969 C   0  0  0  0  0  0
  -18.0278  -28.1375   22.8480 C   0  0  0  0  0  0
  -24.1487  -36.7296   23.2637 C   0  0  0  0  0  0
  -25.9628  -30.7864   21.3797 C   0  0  0  0  0  0
  -26.0401  -29.4044   20.7411 C   0  0  0  0  0  0
  -27.2232  -28.6055   20.7497 C   0  0  0  0  0  0
  -26.0476  -26.8850   19.5056 C   0  0  0  0  0  0
  -24.8760  -27.6661   19.5088 C   0  0  0  0  0  0
  -23.6421  -29.8082   20.1666 C   0  0  0  0  0  0
  -25.4108  -36.3072   24.0312 C   0  0  1  0  0  0
  -20.5882  -28.3675   23.1278 C   0  0  2  0  0  0
  -20.6773  -26.9402   22.5410 C   0  0  0  0  0  0
  -19.5754  -26.6372   21.5210 C   0  0  0  0  0  0
  -18.1926  -26.7915   22.1613 C   0  0  0  0  0  0
  -19.1535  -28.8849   23.2870 C   0  0  0  0  0  0
  -18.9462  -30.1449   23.8894 C   0  0  0  0  0  0
  -17.6463  -30.6586   24.0551 C   0  0  0  0  0  0
  -25.9039  -34.9440   23.5104 C   0  0  0  0  0  0
  -16.5351  -29.9080   23.6332 C   0  0  0  0  0  0
  -16.7266  -28.6493   23.0361 C   0  0  0  0  0  0
  -26.4479  -31.6593   25.0732 C   0  0  0  0  0  0
  -25.3705  -31.3705   26.1453 C   0  0  0  0  0  0
  -27.0326  -30.3021   24.6177 C   0  0  0  0  0  0
  -27.6078  -32.4316   25.7470 C   0  0  0  0  0  0
  -27.5575  -37.1788   24.8451 C   0  0  0  0  0  0
  -21.4205  -29.3035   22.3691 N   0  0  0  0  0  0
  -26.4292  -37.3761   23.9394 N   0  0  0  0  0  0
  -24.6884  -31.0590   22.1003 N   0  0  0  0  0  0
  -23.4212  -28.8151   23.3052 O   0  0  0  0  0  0
  -28.3459  -26.4744   20.0404 O   0  0  0  0  0  0
  -26.5623  -34.8896   22.4678 O   0  0  0  0  0  0
  -23.5404  -32.1399   23.7354 O   0  0  0  0  0  0
  -28.0269  -20.5346   18.7632 C   0  0  0  0  0  0
  -27.1186  -19.9566   19.8003 C   0  0  0  0  0  0
  -29.6458  -16.6448   21.5685 C   0  0  0  0  0  0
  -30.5472  -16.8742   19.3962 C   0  0  0  0  0  0
  -28.8035  -17.9567   21.3135 C   0  0  0  0  0  0
  -29.6814  -18.1526   19.1669 C   0  0  0  0  0  0
  -28.5817  -20.2060   20.1570 C   0  0  0  0  0  0
  -26.6577  -23.7865   20.8078 C   0  0  0  0  0  0
  -28.8683  -21.4228   21.1321 C   0  0  0  0  0  0
  -28.6682  -25.4816   21.0821 C   0  0  0  0  0  0
  -28.1503  -23.9527   21.1372 C   0  0  2  0  0  0
  -30.0047  -15.8712   20.3552 N   0  0  0  0  0  0
  -29.4149  -18.9411   20.3860 N   0  0  0  0  0  0
  -29.0058  -22.8289   20.5447 N   0  3  0  0  0  0
  -31.4555  -12.4816   19.1587 H   0  0  0  0  0  0
  -30.3086  -11.4337   19.9439 H   0  0  0  0  0  0
  -29.7596  -11.7229   17.4954 H   0  0  0  0  0  0
  -29.6371  -13.4502   17.7183 H   0  0  0  0  0  0
  -27.8621  -11.2906   18.8941 H   0  0  0  0  0  0
  -27.3615  -12.5442   17.7953 H   0  0  0  0  0  0
  -27.6345  -14.2608   19.4733 H   0  0  0  0  0  0
  -28.7125  -12.1831   21.4389 H   0  0  0  0  0  0
  -28.4460  -13.8786   21.7704 H   0  0  0  0  0  0
  -25.2762   -9.5691   22.4757 H   0  0  0  0  0  0
  -24.0003   -7.4637   22.7477 H   0  0  0  0  0  0
  -21.0849   -8.8762   19.8947 H   0  0  0  0  0  0
  -22.3692  -10.9662   19.6170 H   0  0  0  0  0  0
  -21.2008   -7.6151   23.9715 H   0  0  0  0  0  0
  -21.1490   -6.0527   25.9075 H   0  0  0  0  0  0
  -22.0591   -2.7609   23.2850 H   0  0  0  0  0  0
  -22.4115  -11.9835   22.4793 H   0  0  0  0  0  0
  -21.1089  -13.1175   22.2656 H   0  0  0  0  0  0
  -24.6490  -15.8449   20.5328 H   0  0  0  0  0  0
  -26.2732  -15.6362   20.1072 H   0  0  0  0  0  0
  -26.7153  -32.5466   23.1128 H   0  0  0  0  0  0
  -25.0011  -33.9729   25.0413 H   0  0  0  0  0  0
  -22.7147  -31.2983   21.3987 H   0  0  0  0  0  0
  -23.3739  -35.9645   23.3309 H   0  0  0  0  0  0
  -24.3571  -36.8933   22.2060 H   0  0  0  0  0  0
  -23.7261  -37.6492   23.6671 H   0  0  0  0  0  0
  -26.0817  -31.5385   20.5979 H   0  0  0  0  0  0
  -26.8466  -30.8541   22.0019 H   0  0  0  0  0  0
  -28.1226  -28.9761   21.2234 H   0  0  0  0  0  0
  -26.0317  -25.9335   18.9951 H   0  0  0  0  0  0
  -23.9836  -27.2968   19.0227 H   0  0  0  0  0  0
  -23.7668  -30.5789   19.4052 H   0  0  0  0  0  0
  -22.7619  -29.2366   19.8636 H   0  0  0  0  0  0
  -25.1298  -36.1939   25.0804 H   0  0  0  0  0  0
  -20.9965  -28.3250   24.1399 H   0  0  0  0  0  0
  -20.5683  -26.2279   23.3603 H   0  0  0  0  0  0
  -21.6638  -26.7433   22.1208 H   0  0  0  0  0  0
  -19.6919  -25.6285   21.1237 H   0  0  0  0  0  0
  -19.6703  -27.3189   20.6746 H   0  0  0  0  0  0
  -17.4202  -26.6663   21.4012 H   0  0  0  0  0  0
  -18.0324  -26.0066   22.9018 H   0  0  0  0  0  0
  -19.7946  -30.7243   24.2295 H   0  0  0  0  0  0
  -17.5018  -31.6269   24.5137 H   0  0  0  0  0  0
  -15.5353  -30.2971   23.7658 H   0  0  0  0  0  0
  -15.8661  -28.0792   22.7102 H   0  0  0  0  0  0
  -24.5926  -30.7014   25.7755 H   0  0  0  0  0  0
  -24.8824  -32.2850   26.4838 H   0  0  0  0  0  0
  -25.8017  -30.8914   27.0257 H   0  0  0  0  0  0
  -26.2907  -29.6751   24.1215 H   0  0  0  0  0  0
  -27.4050  -29.7287   25.4669 H   0  0  0  0  0  0
  -27.8753  -30.4303   23.9379 H   0  0  0  0  0  0
  -27.2775  -33.3674   26.1981 H   0  0  0  0  0  0
  -28.3899  -32.6781   25.0279 H   0  0  0  0  0  0
  -28.0716  -31.8464   26.5418 H   0  0  0  0  0  0
  -28.2580  -38.0099   24.7524 H   0  0  0  0  0  0
  -28.1099  -36.2628   24.6284 H   0  0  0  0  0  0
  -27.2270  -37.1446   25.8846 H   0  0  0  0  0  0
  -20.9393  -29.8764   21.6906 H   0  0  0  0  0  0
  -26.0174  -38.2822   24.1450 H   0  0  0  0  0  0
  -27.8117  -21.5661   18.4926 H   0  0  0  0  0  0
  -28.2546  -19.9024   17.9087 H   0  0  0  0  0  0
  -26.7646  -18.9466   19.6047 H   0  0  0  0  0  0
  -26.3731  -20.6147   20.2423 H   0  0  0  0  0  0
  -29.0868  -16.0015   22.2482 H   0  0  0  0  0  0
  -30.5679  -16.9042   22.0919 H   0  0  0  0  0  0
  -31.5401  -17.1863   19.7287 H   0  0  0  0  0  0
  -30.6949  -16.3988   18.4238 H   0  0  0  0  0  0
  -28.6113  -18.4480   22.2694 H   0  0  0  0  0  0
  -27.8284  -17.6486   20.9354 H   0  0  0  0  0  0
  -28.7431  -17.8533   18.6983 H   0  0  0  0  0  0
  -30.2043  -18.7897   18.4506 H   0  0  0  0  0  0
  -26.0623  -24.5655   21.2843 H   0  0  0  0  0  0
  -26.2727  -22.8371   21.1797 H   0  0  0  0  0  0
  -26.4745  -23.8215   19.7347 H   0  0  0  0  0  0
  -29.7934  -21.2154   21.6706 H   0  0  0  0  0  0
  -28.0996  -21.4225   21.9054 H   0  0  0  0  0  0
  -29.7575  -25.4628   21.1395 H   0  0  0  0  0  0
  -28.3688  -25.9486   22.0220 H   0  0  0  0  0  0
  -28.2186  -23.7423   22.2062 H   0  0  0  0  0  0
  -28.8911  -22.7803   19.5446 H   0  0  0  0  0  0
  -29.9728  -23.0758   20.6930 H   0  0  0  0  0  0
  1 25  1  0  0  0
  1 30  2  0  0  0
  1 82  1  0  0  0
  2  3  1  0  0  0
  2 25  1  0  0  0
  2 85  1  0  0  0
  2 86  1  0  0  0
  3  4  1  0  0  0
  3 87  1  0  0  0
  3 88  1  0  0  0
  4  5  1  0  0  0
  4 89  1  0  0  0
  4 90  1  0  0  0
  5  6  1  0  0  0
  5 26  1  0  0  0
  5 91  1  0  0  0
  6 25  1  0  0  0
  6 92  1  0  0  0
  6 93  1  0  0  0
  7  8  2  0  0  0
  7 26  1  0  0  0
  7 29  1  0  0  0
  8  9  1  0  0  0
  8 22  1  0  0  0
  9 10  1  0  0  0
  9 27  2  0  0  0
 10 11  2  0  0  0
 10 15  1  0  0  0
 11 12  1  0  0  0
 11 94  1  0  0  0
 12 13  2  0  0  0
 12 95  1  0  0  0
 13 14  1  0  0  0
 13 31  1  0  0  0
 14 15  2  0  0  0
 14 96  1  0  0  0
 15 97  1  0  0  0
 16 17  2  0  0  0
 16 21  1  0  0  0
 16 31  1  0  0  0
 17 18  1  0  0  0
 17 98  1  0  0  0
 18 19  2  0  0  0
 18 99  1  0  0  0
 19 20  1  0  0  0
 19 24  1  0  0  0
 20 21  2  0  0  0
 20100  1  0  0  0
 21 23  1  0  0  0
 22 28  1  0  0  0
 22 32  2  0  0  0
 26 27  1  0  0  0
 28101  1  0  0  0
 28102  1  0  0  0
 29103  1  0  0  0
 29104  1  0  0  0
 33 34  1  0  0  0
 33 66  1  0  0  0
 33 70  2  0  0  0
 34 36  1  0  0  0
 34 59  1  0  0  0
 34105  1  0  0  0
 35 44  2  0  0  0
 35 45  1  0  0  0
 35 68  1  0  0  0
 36 56  1  0  0  0
 36106  1  0  0  0
 37 39  1  0  0  0
 37 47  1  0  0  0
 37 66  1  0  0  0
 37107  1  0  0  0
 38 43  2  0  0  0
 38 46  1  0  0  0
 38 47  1  0  0  0
 39 64  1  0  0  0
 39 67  2  0  0  0
 40 52  1  0  0  0
 40 53  2  0  0  0
 40 58  1  0  0  0
 41108  1  0  0  0
 41109  1  0  0  0
 41110  1  0  0  0
 41 48  1  0  0  0
 42 43  1  0  0  0
 42 66  1  0  0  0
 42111  1  0  0  0
 42112  1  0  0  0
 43 44  1  0  0  0
 44113  1  0  0  0
 45 46  2  0  0  0
 45114  1  0  0  0
 46115  1  0  0  0
 47116  1  0  0  0
 47117  1  0  0  0
 48 56  1  0  0  0
 48 65  1  0  0  0
 48118  1  0  0  0
 49 50  1  0  0  0
 49 53  1  0  0  0
 49 64  1  0  0  0
 49119  1  0  0  0
 50 51  1  0  0  0
 50120  1  0  0  0
 50121  1  0  0  0
 51 52  1  0  0  0
 51122  1  0  0  0
 51123  1  0  0  0
 52124  1  0  0  0
 52125  1  0  0  0
 53 54  1  0  0  0
 54 55  2  0  0  0
 54126  1  0  0  0
 55 57  1  0  0  0
 55127  1  0  0  0
 56 69  2  0  0  0
 57 58  2  0  0  0
 57128  1  0  0  0
 58129  1  0  0  0
 59 60  1  0  0  0
 59 61  1  0  0  0
 59 62  1  0  0  0
 60130  1  0  0  0
 60131  1  0  0  0
 60132  1  0  0  0
 61133  1  0  0  0
 61134  1  0  0  0
 61135  1  0  0  0
 62136  1  0  0  0
 62137  1  0  0  0
 62138  1  0  0  0
 63 65  1  0  0  0
 63139  1  0  0  0
 63140  1  0  0  0
 63141  1  0  0  0
 64142  1  0  0  0
 65143  1  0  0  0
 68 80  1  0  0  0
 71 72  1  0  0  0
 71 77  1  0  0  0
 71144  1  0  0  0
 71145  1  0  0  0
 72 77  1  0  0  0
 72146  1  0  0  0
 72147  1  0  0  0
 73 75  1  0  0  0
 73 82  1  0  0  0
 73148  1  0  0  0
 73149  1  0  0  0
 74 76  1  0  0  0
 74 82  1  0  0  0
 74150  1  0  0  0
 74151  1  0  0  0
 75 83  1  0  0  0
 75152  1  0  0  0
 75153  1  0  0  0
 76 83  1  0  0  0
 76154  1  0  0  0
 76155  1  0  0  0
 77 79  1  0  0  0
 77 83  1  0  0  0
 78156  1  0  0  0
 78157  1  0  0  0
 78158  1  0  0  0
 78 81  1  0  0  0
 79 84  1  0  0  0
 79159  1  0  0  0
 79160  1  0  0  0
 80 81  1  0  0  0
 80161  1  0  0  0
 80162  1  0  0  0
 81 84  1  0  0  0
 81163  1  0  0  0
 84164  1  0  0  0
 84165  1  0  0  0
M  CHG  1  84   1
M  ISO  4   1 100  68 101  80 101  82 100
M  END
> <chiral flag>
0

> <version>
0

> <s_m_source_file>
/data/baiqing/PycharmProjects/Reinvent-master-3.2/result/LINK_invent/BTK/process_docking_weight1_custom_sum_contain_oxygen_bond_distance_aromatic_linkinvent_7_9_3/rearranged_h_0190.sdf

> <i_m_source_file_index>
80

> <r_mmod_Potential_Energy-OPLS-2005>
310.034729003906

> <r_mmod_Stretch_Energy-OPLS-2005>
97.1725463867188

> <r_mmod_Bend_Energy-OPLS-2005>
195.79704284668

> <r_mmod_Torsional_Energy-OPLS-2005>
459.112121582031

> <r_mmod_Improper_Torsional_Energy-OPLS-2005>
18.3395328521729

> <r_mmod_Van_der_Waal_Energy-OPLS-2005>
131.6455078125

> <r_mmod_Electrostatic_Energy-OPLS-2005>
-228.236877441406

> <r_mmod_Solvation_Energy-OPLS-2005>
-422.661376953125

> <b_mmod_Minimization_Converged-OPLS-2005>
0

> <r_mmod_RMS_Derivative-OPLS-2005>
2.91789221763611

$$$$
80
                    3D
 Structure written by MMmdl.
157166  0  0  1  0            999 V2000
  -30.6549  -14.6948   20.4894 C   0  0  0  0  0  0
  -30.4265  -12.4336   19.4591 C   0  0  0  0  0  0
  -29.5016  -12.5144   18.2260 C   0  0  0  0  0  0
  -28.0254  -12.3507   18.6385 C   0  0  0  0  0  0
  -27.6461  -13.2274   19.8624 C   0  0  2  0  0  0
  -28.6964  -13.1087   20.9880 C   0  0  0  0  0  0
  -25.2507  -13.8176   20.5675 C   0  0  0  0  0  0
  -24.1802  -13.0427   20.9203 C   0  0  0  0  0  0
  -24.6401  -11.6909   20.8766 C   0  0  0  0  0  0
  -23.9075  -10.4291   21.0415 C   0  0  0  0  0  0
  -24.3619   -9.4200   21.9192 C   0  0  0  0  0  0
  -23.6291   -8.2238   22.0752 C   0  0  0  0  0  0
  -22.4274   -8.0284   21.3541 C   0  0  0  0  0  0
  -21.9917   -9.0258   20.4641 C   0  0  0  0  0  0
  -22.7250  -10.2137   20.3056 C   0  0  0  0  0  0
  -21.6846   -6.0742   22.5277 C   0  0  0  0  0  0
  -21.4007   -6.5648   23.8212 C   0  0  0  0  0  0
  -21.3659   -5.6794   24.9173 C   0  0  0  0  0  0
  -21.6043   -4.3059   24.7220 C   0  0  0  0  0  0
  -21.8814   -3.8154   23.4338 C   0  0  0  0  0  0
  -21.9189   -4.6969   22.3395 C   0  0  0  0  0  0
  -22.7823  -13.5213   21.1853 C   0  0  0  0  0  0
  -22.1658   -4.2160   21.0975 F   0  0  0  0  0  0
  -21.5630   -3.4543   25.7729 F   0  0  0  0  0  0
  -29.9917  -13.4871   20.4066 N   0  0  0  0  0  0
  -26.2961  -12.9388   20.3352 N   0  0  0  0  0  0
  -25.9338  -11.6531   20.5805 N   0  0  0  0  0  0
  -22.0473  -12.8206   22.0413 N   0  0  0  0  0  0
  -25.4147  -15.1893   20.4001 N   0  0  0  0  0  0
  -31.8348  -14.7522   20.1267 O   0  0  0  0  0  0
  -21.6631   -6.8887   21.4242 O   0  0  0  0  0  0
  -22.3504  -14.5522   20.6708 O   0  0  0  0  0  0
  -24.6287  -31.8583   23.2019 C   0  0  0  0  0  0
  -25.9133  -32.4766   23.8355 C   0  0  1  0  0  0
  -27.2200  -27.3030   20.1213 C   0  0  0  0  0  0
  -25.5948  -33.8568   24.2288 N   0  0  0  0  0  0
  -23.4242  -30.4820   21.5438 C   0  0  2  0  0  0
  -24.8732  -28.9363   20.1090 C   0  0  0  0  0  0
  -22.7488  -29.4621   22.4920 C   0  0  0  0  0  0
  -18.0289  -28.1385   22.8481 C   0  0  0  0  0  0
  -24.1483  -36.7273   23.2640 C   0  0  0  0  0  0
  -25.9676  -30.7824   21.3775 C   0  0  0  0  0  0
  -26.0436  -29.4093   20.7188 C   0  0  0  0  0  0
  -27.2247  -28.6042   20.7164 C   0  0  0  0  0  0
  -26.0346  -26.8931   19.4764 C   0  0  0  0  0  0
  -24.8712  -27.6837   19.4766 C   0  0  0  0  0  0
  -23.6418  -29.8178   20.1590 C   0  0  0  0  0  0
  -25.4111  -36.3072   24.0335 C   0  0  1  0  0  0
  -20.5890  -28.3692   23.1268 C   0  0  2  0  0  0
  -20.6775  -26.9410   22.5405 C   0  0  0  0  0  0
  -19.5757  -26.6383   21.5203 C   0  0  0  0  0  0
  -18.1935  -26.7935   22.1604 C   0  0  0  0  0  0
  -19.1542  -28.8853   23.2875 C   0  0  0  0  0  0
  -18.9466  -30.1450   23.8898 C   0  0  0  0  0  0
  -17.6466  -30.6585   24.0560 C   0  0  0  0  0  0
  -25.9052  -34.9446   23.5105 C   0  0  0  0  0  0
  -16.5356  -29.9082   23.6335 C   0  0  0  0  0  0
  -16.7273  -28.6498   23.0358 C   0  0  0  0  0  0
  -26.4517  -31.6575   25.0729 C   0  0  0  0  0  0
  -25.3746  -31.3702   26.1451 C   0  0  0  0  0  0
  -27.0361  -30.2999   24.6187 C   0  0  0  0  0  0
  -27.6077  -32.4310   25.7502 C   0  0  0  0  0  0
  -27.5579  -37.1791   24.8466 C   0  0  0  0  0  0
  -21.4198  -29.3045   22.3661 N   0  0  0  0  0  0
  -26.4283  -37.3777   23.9420 N   0  0  0  0  0  0
  -24.6921  -31.0579   22.0978 N   0  0  0  0  0  0
  -23.4201  -28.8162   23.3010 O   0  0  0  0  0  0
  -28.2868  -26.3888   20.1574 O   0  0  0  0  0  0
  -26.5610  -34.8920   22.4663 O   0  0  0  0  0  0
  -23.5446  -32.1386   23.7335 O   0  0  0  0  0  0
  -29.8884  -23.3137   20.9358 C   0  0  0  0  0  0
  -28.5953  -23.7082   20.5289 C   0  0  0  0  0  0
  -27.8283  -22.6095   20.0413 C   0  0  0  0  0  0
  -29.5114  -21.0610   20.4696 C   0  0  0  0  0  0
  -28.9425  -17.8049   21.7486 C   0  0  0  0  0  0
  -28.9571  -16.2572   21.6117 C   0  0  0  0  0  0
  -30.3734  -17.1915   19.9715 C   0  0  0  0  0  0
  -29.4191  -18.3735   20.4096 C   0  0  2  0  0  0
  -26.4069  -22.7937   19.5457 C   0  0  0  0  0  0
  -27.9850  -25.1309   20.8904 C   0  0  0  0  0  0
  -30.3300  -22.0200   20.8942 N   0  0  0  0  0  0
  -28.2848  -21.3147   20.0223 N   0  0  0  0  0  0
  -29.9378  -15.8869   20.5815 N   0  0  0  0  0  0
  -30.0356  -19.7408   20.5050 N   0  0  0  0  0  0
  -31.4676  -12.5440   19.1514 H   0  0  0  0  0  0
  -30.3649  -11.4483   19.9241 H   0  0  0  0  0  0
  -29.7734  -11.7514   17.4960 H   0  0  0  0  0  0
  -29.6387  -13.4750   17.7268 H   0  0  0  0  0  0
  -27.8635  -11.2982   18.8741 H   0  0  0  0  0  0
  -27.3694  -12.5768   17.7971 H   0  0  0  0  0  0
  -27.6529  -14.2597   19.5115 H   0  0  0  0  0  0
  -28.7349  -12.0852   21.3648 H   0  0  0  0  0  0
  -28.4347  -13.7189   21.8488 H   0  0  0  0  0  0
  -25.2756   -9.5678   22.4779 H   0  0  0  0  0  0
  -23.9997   -7.4624   22.7466 H   0  0  0  0  0  0
  -21.0854   -8.8778   19.8937 H   0  0  0  0  0  0
  -22.3710  -10.9680   19.6169 H   0  0  0  0  0  0
  -21.1997   -7.6152   23.9721 H   0  0  0  0  0  0
  -21.1485   -6.0522   25.9078 H   0  0  0  0  0  0
  -22.0594   -2.7616   23.2828 H   0  0  0  0  0  0
  -22.4087  -11.9857   22.4781 H   0  0  0  0  0  0
  -21.1094  -13.1231   22.2631 H   0  0  0  0  0  0
  -24.6373  -15.8354   20.4819 H   0  0  0  0  0  0
  -26.2586  -15.6277   20.0554 H   0  0  0  0  0  0
  -26.7203  -32.5431   23.1105 H   0  0  0  0  0  0
  -25.0141  -33.9710   25.0466 H   0  0  0  0  0  0
  -22.7196  -31.3035   21.3991 H   0  0  0  0  0  0
  -23.3757  -35.9589   23.3291 H   0  0  0  0  0  0
  -24.3581  -36.8896   22.2055 H   0  0  0  0  0  0
  -23.7219  -37.6467   23.6662 H   0  0  0  0  0  0
  -26.1032  -31.5449   20.6097 H   0  0  0  0  0  0
  -26.8465  -30.8308   22.0081 H   0  0  0  0  0  0
  -28.1201  -28.9577   21.2083 H   0  0  0  0  0  0
  -25.9985  -25.9298   18.9888 H   0  0  0  0  0  0
  -23.9776  -27.3176   18.9899 H   0  0  0  0  0  0
  -23.7646  -30.5958   19.4046 H   0  0  0  0  0  0
  -22.7611  -29.2500   19.8524 H   0  0  0  0  0  0
  -25.1292  -36.1916   25.0827 H   0  0  0  0  0  0
  -20.9981  -28.3264   24.1386 H   0  0  0  0  0  0
  -20.5656  -26.2303   23.3610 H   0  0  0  0  0  0
  -21.6645  -26.7431   22.1200 H   0  0  0  0  0  0
  -19.6913  -25.6291   21.1242 H   0  0  0  0  0  0
  -19.6703  -27.3188   20.6732 H   0  0  0  0  0  0
  -17.4206  -26.6686   21.4004 H   0  0  0  0  0  0
  -18.0327  -26.0072   22.8991 H   0  0  0  0  0  0
  -19.7943  -30.7266   24.2270 H   0  0  0  0  0  0
  -17.5023  -31.6272   24.5154 H   0  0  0  0  0  0
  -15.5360  -30.2983   23.7673 H   0  0  0  0  0  0
  -15.8667  -28.0820   22.7085 H   0  0  0  0  0  0
  -24.5962  -30.7002   25.7787 H   0  0  0  0  0  0
  -24.8890  -32.2849   26.4854 H   0  0  0  0  0  0
  -25.8083  -30.8916   27.0239 H   0  0  0  0  0  0
  -26.2931  -29.6740   24.1231 H   0  0  0  0  0  0
  -27.4082  -29.7270   25.4691 H   0  0  0  0  0  0
  -27.8795  -30.4288   23.9399 H   0  0  0  0  0  0
  -27.2705  -33.3631   26.2049 H   0  0  0  0  0  0
  -28.3909  -32.6828   25.0338 H   0  0  0  0  0  0
  -28.0718  -31.8444   26.5441 H   0  0  0  0  0  0
  -28.2582  -38.0102   24.7534 H   0  0  0  0  0  0
  -28.1089  -36.2639   24.6261 H   0  0  0  0  0  0
  -27.2304  -37.1391   25.8869 H   0  0  0  0  0  0
  -20.9381  -29.8767   21.6869 H   0  0  0  0  0  0
  -26.0158  -38.2842   24.1444 H   0  0  0  0  0  0
  -30.5638  -24.0322   21.3761 H   0  0  0  0  0  0
  -29.6369  -18.0947   22.5387 H   0  0  0  0  0  0
  -27.9604  -18.1854   22.0327 H   0  0  0  0  0  0
  -27.9715  -15.9123   21.3040 H   0  0  0  0  0  0
  -29.1912  -15.7898   22.5697 H   0  0  0  0  0  0
  -31.3921  -17.3937   20.3054 H   0  0  0  0  0  0
  -30.4096  -17.1065   18.8845 H   0  0  0  0  0  0
  -28.5713  -18.4180   19.7231 H   0  0  0  0  0  0
  -26.3703  -23.5669   18.7792 H   0  0  0  0  0  0
  -25.7460  -23.0811   20.3626 H   0  0  0  0  0  0
  -26.0149  -21.8759   19.1071 H   0  0  0  0  0  0
  -28.3123  -25.3265   21.9123 H   0  0  0  0  0  0
  -26.9098  -24.9995   21.0037 H   0  0  0  0  0  0
  -31.0002  -19.7273   20.8103 H   0  0  0  0  0  0
  1 25  1  0  0  0
  1 30  2  0  0  0
  1 83  1  0  0  0
  2  3  1  0  0  0
  2 25  1  0  0  0
  2 85  1  0  0  0
  2 86  1  0  0  0
  3  4  1  0  0  0
  3 87  1  0  0  0
  3 88  1  0  0  0
  4  5  1  0  0  0
  4 89  1  0  0  0
  4 90  1  0  0  0
  5  6  1  0  0  0
  5 26  1  0  0  0
  5 91  1  0  0  0
  6 25  1  0  0  0
  6 92  1  0  0  0
  6 93  1  0  0  0
  7  8  2  0  0  0
  7 26  1  0  0  0
  7 29  1  0  0  0
  8  9  1  0  0  0
  8 22  1  0  0  0
  9 10  1  0  0  0
  9 27  2  0  0  0
 10 11  2  0  0  0
 10 15  1  0  0  0
 11 12  1  0  0  0
 11 94  1  0  0  0
 12 13  2  0  0  0
 12 95  1  0  0  0
 13 14  1  0  0  0
 13 31  1  0  0  0
 14 15  2  0  0  0
 14 96  1  0  0  0
 15 97  1  0  0  0
 16 17  2  0  0  0
 16 21  1  0  0  0
 16 31  1  0  0  0
 17 18  1  0  0  0
 17 98  1  0  0  0
 18 19  2  0  0  0
 18 99  1  0  0  0
 19 20  1  0  0  0
 19 24  1  0  0  0
 20 21  2  0  0  0
 20100  1  0  0  0
 21 23  1  0  0  0
 22 28  1  0  0  0
 22 32  2  0  0  0
 26 27  1  0  0  0
 28101  1  0  0  0
 28102  1  0  0  0
 29103  1  0  0  0
 29104  1  0  0  0
 33 34  1  0  0  0
 33 66  1  0  0  0
 33 70  2  0  0  0
 34 36  1  0  0  0
 34 59  1  0  0  0
 34105  1  0  0  0
 35 44  2  0  0  0
 35 45  1  0  0  0
 35 68  1  0  0  0
 36 56  1  0  0  0
 36106  1  0  0  0
 37 39  1  0  0  0
 37 47  1  0  0  0
 37 66  1  0  0  0
 37107  1  0  0  0
 38 43  2  0  0  0
 38 46  1  0  0  0
 38 47  1  0  0  0
 39 64  1  0  0  0
 39 67  2  0  0  0
 40 52  1  0  0  0
 40 53  2  0  0  0
 40 58  1  0  0  0
 41108  1  0  0  0
 41109  1  0  0  0
 41110  1  0  0  0
 41 48  1  0  0  0
 42 43  1  0  0  0
 42 66  1  0  0  0
 42111  1  0  0  0
 42112  1  0  0  0
 43 44  1  0  0  0
 44113  1  0  0  0
 45 46  2  0  0  0
 45114  1  0  0  0
 46115  1  0  0  0
 47116  1  0  0  0
 47117  1  0  0  0
 48 56  1  0  0  0
 48 65  1  0  0  0
 48118  1  0  0  0
 49 50  1  0  0  0
 49 53  1  0  0  0
 49 64  1  0  0  0
 49119  1  0  0  0
 50 51  1  0  0  0
 50120  1  0  0  0
 50121  1  0  0  0
 51 52  1  0  0  0
 51122  1  0  0  0
 51123  1  0  0  0
 52124  1  0  0  0
 52125  1  0  0  0
 53 54  1  0  0  0
 54 55  2  0  0  0
 54126  1  0  0  0
 55 57  1  0  0  0
 55127  1  0  0  0
 56 69  2  0  0  0
 57 58  2  0  0  0
 57128  1  0  0  0
 58129  1  0  0  0
 59 60  1  0  0  0
 59 61  1  0  0  0
 59 62  1  0  0  0
 60130  1  0  0  0
 60131  1  0  0  0
 60132  1  0  0  0
 61133  1  0  0  0
 61134  1  0  0  0
 61135  1  0  0  0
 62136  1  0  0  0
 62137  1  0  0  0
 62138  1  0  0  0
 63 65  1  0  0  0
 63139  1  0  0  0
 63140  1  0  0  0
 63141  1  0  0  0
 64142  1  0  0  0
 65143  1  0  0  0
 68 80  1  0  0  0
 71 72  2  0  0  0
 71 81  1  0  0  0
 71144  1  0  0  0
 72 73  1  0  0  0
 72 80  1  0  0  0
 73 79  1  0  0  0
 73 82  2  0  0  0
 74 81  2  0  0  0
 74 82  1  0  0  0
 74 84  1  0  0  0
 75 76  1  0  0  0
 75 78  1  0  0  0
 75145  1  0  0  0
 75146  1  0  0  0
 76 83  1  0  0  0
 76147  1  0  0  0
 76148  1  0  0  0
 77 78  1  0  0  0
 77 83  1  0  0  0
 77149  1  0  0  0
 77150  1  0  0  0
 78 84  1  0  0  0
 78151  1  0  0  0
 79152  1  0  0  0
 79153  1  0  0  0
 79154  1  0  0  0
 80155  1  0  0  0
 80156  1  0  0  0
 84157  1  0  0  0
M  ISO  4   1 100  68 101  80 101  83 100
M  END
> <chiral flag>
0

> <version>
0

> <s_m_source_file>
/data/baiqing/PycharmProjects/Reinvent-master-3.2/result/LINK_invent/BTK/process_docking_weight1_custom_sum_contain_oxygen_bond_distance_aromatic_linkinvent_7_9_3/rearranged_h_0190.sdf

> <i_m_source_file_index>
81

> <r_mmod_Potential_Energy-OPLS-2005>
-214.688247680664

> <r_mmod_Stretch_Energy-OPLS-2005>
86.5154876708984

> <r_mmod_Bend_Energy-OPLS-2005>
190.556076049805

> <r_mmod_Torsional_Energy-OPLS-2005>
338.353942871094

> <r_mmod_Improper_Torsional_Energy-OPLS-2005>
15.0767135620117

> <r_mmod_Van_der_Waal_Energy-OPLS-2005>
142.029724121094

> <r_mmod_Electrostatic_Energy-OPLS-2005>
-818.404357910156

> <r_mmod_Solvation_Energy-OPLS-2005>
-233.702056884766

> <b_mmod_Minimization_Converged-OPLS-2005>
0

> <r_mmod_RMS_Derivative-OPLS-2005>
1.25563061237335

$$$$
81
                    3D
 Structure written by MMmdl.
158167  0  0  1  0            999 V2000
  -30.6150  -14.6841   20.4877 C   0  0  0  0  0  0
  -30.4337  -12.4209   19.4624 C   0  0  0  0  0  0
  -29.5075  -12.5085   18.2293 C   0  0  0  0  0  0
  -28.0324  -12.3349   18.6428 C   0  0  0  0  0  0
  -27.6456  -13.2210   19.8560 C   0  0  2  0  0  0
  -28.6889  -13.1165   20.9904 C   0  0  0  0  0  0
  -25.2530  -13.8176   20.5694 C   0  0  0  0  0  0
  -24.1805  -13.0437   20.9198 C   0  0  0  0  0  0
  -24.6376  -11.6910   20.8738 C   0  0  0  0  0  0
  -23.9051  -10.4292   21.0402 C   0  0  0  0  0  0
  -24.3605   -9.4208   21.9177 C   0  0  0  0  0  0
  -23.6282   -8.2245   22.0748 C   0  0  0  0  0  0
  -22.4265   -8.0282   21.3539 C   0  0  0  0  0  0
  -21.9893   -9.0253   20.4642 C   0  0  0  0  0  0
  -22.7221  -10.2134   20.3052 C   0  0  0  0  0  0
  -21.6858   -6.0727   22.5271 C   0  0  0  0  0  0
  -21.4019   -6.5631   23.8206 C   0  0  0  0  0  0
  -21.3660   -5.6786   24.9169 C   0  0  0  0  0  0
  -21.6042   -4.3047   24.7221 C   0  0  0  0  0  0
  -21.8820   -3.8140   23.4344 C   0  0  0  0  0  0
  -21.9194   -4.6956   22.3398 C   0  0  0  0  0  0
  -22.7832  -13.5232   21.1861 C   0  0  0  0  0  0
  -22.1662   -4.2142   21.0975 F   0  0  0  0  0  0
  -21.5629   -3.4534   25.7736 F   0  0  0  0  0  0
  -29.9971  -13.4607   20.4178 N   0  0  0  0  0  0
  -26.2946  -12.9358   20.3284 N   0  0  0  0  0  0
  -25.9302  -11.6514   20.5740 N   0  0  0  0  0  0
  -22.0466  -12.8234   22.0421 N   0  0  0  0  0  0
  -25.4256  -15.1900   20.4112 N   0  0  0  0  0  0
  -31.7924  -14.8172   20.1455 O   0  0  0  0  0  0
  -21.6639   -6.8874   21.4234 O   0  0  0  0  0  0
  -22.3527  -14.5541   20.6708 O   0  0  0  0  0  0
  -24.6263  -31.8576   23.1994 C   0  0  0  0  0  0
  -25.9102  -32.4765   23.8339 C   0  0  1  0  0  0
  -27.2284  -27.2927   20.1320 C   0  0  0  0  0  0
  -25.5915  -33.8566   24.2269 N   0  0  0  0  0  0
  -23.4224  -30.4774   21.5418 C   0  0  2  0  0  0
  -24.8699  -28.9205   20.1167 C   0  0  0  0  0  0
  -22.7481  -29.4603   22.4929 C   0  0  0  0  0  0
  -18.0289  -28.1386   22.8482 C   0  0  0  0  0  0
  -24.1486  -36.7291   23.2638 C   0  0  0  0  0  0
  -25.9628  -30.7792   21.3745 C   0  0  0  0  0  0
  -26.0359  -29.4001   20.7253 C   0  0  0  0  0  0
  -27.2152  -28.5968   20.7247 C   0  0  0  0  0  0
  -26.0398  -26.8680   19.4967 C   0  0  0  0  0  0
  -24.8736  -27.6603   19.4957 C   0  0  0  0  0  0
  -23.6398  -29.8057   20.1596 C   0  0  0  0  0  0
  -25.4109  -36.3074   24.0327 C   0  0  1  0  0  0
  -20.5888  -28.3687   23.1281 C   0  0  2  0  0  0
  -20.6774  -26.9408   22.5412 C   0  0  0  0  0  0
  -19.5750  -26.6381   21.5213 C   0  0  0  0  0  0
  -18.1930  -26.7929   22.1622 C   0  0  0  0  0  0
  -19.1541  -28.8855   23.2876 C   0  0  0  0  0  0
  -18.9461  -30.1454   23.8896 C   0  0  0  0  0  0
  -17.6462  -30.6585   24.0563 C   0  0  0  0  0  0
  -25.9051  -34.9443   23.5105 C   0  0  0  0  0  0
  -16.5353  -29.9085   23.6327 C   0  0  0  0  0  0
  -16.7276  -28.6503   23.0348 C   0  0  0  0  0  0
  -26.4485  -31.6583   25.0718 C   0  0  0  0  0  0
  -25.3717  -31.3742   26.1451 C   0  0  0  0  0  0
  -27.0317  -30.2998   24.6188 C   0  0  0  0  0  0
  -27.6053  -32.4317   25.7480 C   0  0  0  0  0  0
  -27.5579  -37.1790   24.8457 C   0  0  0  0  0  0
  -21.4194  -29.3034   22.3672 N   0  0  0  0  0  0
  -26.4286  -37.3769   23.9409 N   0  0  0  0  0  0
  -24.6891  -31.0564   22.0955 N   0  0  0  0  0  0
  -23.4195  -28.8154   23.3022 O   0  0  0  0  0  0
  -28.3790  -26.4819   20.1291 O   0  0  0  0  0  0
  -26.5631  -34.8915   22.4677 O   0  0  0  0  0  0
  -23.5421  -32.1388   23.7309 O   0  0  0  0  0  0
  -28.3032  -23.0031   19.2214 C   0  0  0  0  0  0
  -28.5204  -22.3006   20.4341 C   0  0  0  0  0  0
  -28.6537  -23.1825   21.5406 C   0  0  0  0  0  0
  -28.3058  -25.0958   20.2412 C   0  0  0  0  0  0
  -30.5201  -17.8727   19.3507 C   0  0  0  0  0  0
  -30.2523  -19.4127   19.4488 C   0  0  0  0  0  0
  -29.0335  -18.2960   21.1280 C   0  0  0  0  0  0
  -30.1560  -17.2669   20.7175 C   0  0  1  0  0  0
  -28.8594  -22.6553   22.9469 C   0  0  0  0  0  0
  -28.3210  -20.7178   20.5448 C   0  0  0  0  0  0
  -28.2155  -24.3641   19.1264 N   0  0  0  0  0  0
  -28.5659  -24.5439   21.4316 N   0  0  0  0  0  0
  -29.8217  -15.7810   20.7471 N   0  0  0  0  0  0
  -29.4452  -19.6800   20.6690 N   0  3  2  0  0  0
  -31.4750  -12.5460   19.1618 H   0  0  0  0  0  0
  -30.3718  -11.4340   19.9242 H   0  0  0  0  0  0
  -29.7816  -11.7499   17.4949 H   0  0  0  0  0  0
  -29.6400  -13.4734   17.7377 H   0  0  0  0  0  0
  -27.8824  -11.2834   18.8921 H   0  0  0  0  0  0
  -27.3764  -12.5431   17.7966 H   0  0  0  0  0  0
  -27.6530  -14.2488   19.4932 H   0  0  0  0  0  0
  -28.7107  -12.1070   21.4036 H   0  0  0  0  0  0
  -28.4297  -13.7764   21.8195 H   0  0  0  0  0  0
  -25.2747   -9.5691   22.4753 H   0  0  0  0  0  0
  -23.9993   -7.4639   22.7467 H   0  0  0  0  0  0
  -21.0820   -8.8766   19.8957 H   0  0  0  0  0  0
  -22.3665  -10.9669   19.6168 H   0  0  0  0  0  0
  -21.2014   -7.6137   23.9706 H   0  0  0  0  0  0
  -21.1480   -6.0515   25.9070 H   0  0  0  0  0  0
  -22.0598   -2.7601   23.2847 H   0  0  0  0  0  0
  -22.4077  -11.9896   22.4817 H   0  0  0  0  0  0
  -21.1088  -13.1272   22.2621 H   0  0  0  0  0  0
  -24.6562  -15.8425   20.5143 H   0  0  0  0  0  0
  -26.2616  -15.6215   20.0412 H   0  0  0  0  0  0
  -26.7167  -32.5432   23.1083 H   0  0  0  0  0  0
  -25.0040  -33.9708   25.0398 H   0  0  0  0  0  0
  -22.7167  -31.2973   21.3941 H   0  0  0  0  0  0
  -23.3745  -35.9626   23.3296 H   0  0  0  0  0  0
  -24.3582  -36.8921   22.2053 H   0  0  0  0  0  0
  -23.7243  -37.6493   23.6668 H   0  0  0  0  0  0
  -26.0946  -31.5365   20.6007 H   0  0  0  0  0  0
  -26.8427  -30.8335   22.0037 H   0  0  0  0  0  0
  -28.1148  -28.9652   21.1981 H   0  0  0  0  0  0
  -26.0000  -25.9090   18.9996 H   0  0  0  0  0  0
  -23.9797  -27.2901   19.0124 H   0  0  0  0  0  0
  -23.7642  -30.5784   19.4001 H   0  0  0  0  0  0
  -22.7590  -29.2371   19.8565 H   0  0  0  0  0  0
  -25.1285  -36.1926   25.0820 H   0  0  0  0  0  0
  -20.9978  -28.3265   24.1402 H   0  0  0  0  0  0
  -20.5667  -26.2298   23.3613 H   0  0  0  0  0  0
  -21.6643  -26.7433   22.1209 H   0  0  0  0  0  0
  -19.6908  -25.6292   21.1240 H   0  0  0  0  0  0
  -19.6683  -27.3191   20.6743 H   0  0  0  0  0  0
  -17.4196  -26.6673   21.4028 H   0  0  0  0  0  0
  -18.0329  -26.0077   22.9024 H   0  0  0  0  0  0
  -19.7939  -30.7269   24.2267 H   0  0  0  0  0  0
  -17.5016  -31.6266   24.5164 H   0  0  0  0  0  0
  -15.5351  -30.2981   23.7654 H   0  0  0  0  0  0
  -15.8680  -28.0820   22.7061 H   0  0  0  0  0  0
  -24.5873  -30.7111   25.7785 H   0  0  0  0  0  0
  -24.8931  -32.2917   26.4884 H   0  0  0  0  0  0
  -25.8033  -30.8908   27.0223 H   0  0  0  0  0  0
  -26.2885  -29.6755   24.1214 H   0  0  0  0  0  0
  -27.3998  -29.7257   25.4702 H   0  0  0  0  0  0
  -27.8768  -30.4271   23.9418 H   0  0  0  0  0  0
  -27.2673  -33.3617   26.2063 H   0  0  0  0  0  0
  -28.3852  -32.6877   25.0294 H   0  0  0  0  0  0
  -28.0733  -31.8441   26.5387 H   0  0  0  0  0  0
  -28.2582  -38.0100   24.7522 H   0  0  0  0  0  0
  -28.1091  -36.2636   24.6254 H   0  0  0  0  0  0
  -27.2310  -37.1411   25.8863 H   0  0  0  0  0  0
  -20.9381  -29.8755   21.6877 H   0  0  0  0  0  0
  -26.0169  -38.2841   24.1425 H   0  0  0  0  0  0
  -28.1378  -22.4593   18.3030 H   0  0  0  0  0  0
  -31.5511  -17.6561   19.0685 H   0  0  0  0  0  0
  -29.8799  -17.4462   18.5775 H   0  0  0  0  0  0
  -29.7440  -19.7655   18.5507 H   0  0  0  0  0  0
  -31.1880  -19.9677   19.5246 H   0  0  0  0  0  0
  -28.8403  -18.2825   22.2016 H   0  0  0  0  0  0
  -28.0993  -18.0265   20.6319 H   0  0  0  0  0  0
  -31.0018  -17.4140   21.3917 H   0  0  0  0  0  0
  -29.6105  -21.8664   22.9577 H   0  0  0  0  0  0
  -27.9270  -22.2523   23.3412 H   0  0  0  0  0  0
  -29.1994  -23.4423   23.6205 H   0  0  0  0  0  0
  -27.6971  -20.4122   19.7033 H   0  0  0  0  0  0
  -27.6784  -20.5681   21.4135 H   0  0  0  0  0  0
  -28.8700  -15.5513   20.9916 H   0  0  0  0  0  0
  -30.0920  -20.0058   21.3712 H   0  0  0  0  0  0
  1 25  1  0  0  0
  1 30  2  0  0  0
  1 83  1  0  0  0
  2  3  1  0  0  0
  2 25  1  0  0  0
  2 85  1  0  0  0
  2 86  1  0  0  0
  3  4  1  0  0  0
  3 87  1  0  0  0
  3 88  1  0  0  0
  4  5  1  0  0  0
  4 89  1  0  0  0
  4 90  1  0  0  0
  5  6  1  0  0  0
  5 26  1  0  0  0
  5 91  1  0  0  0
  6 25  1  0  0  0
  6 92  1  0  0  0
  6 93  1  0  0  0
  7  8  2  0  0  0
  7 26  1  0  0  0
  7 29  1  0  0  0
  8  9  1  0  0  0
  8 22  1  0  0  0
  9 10  1  0  0  0
  9 27  2  0  0  0
 10 11  2  0  0  0
 10 15  1  0  0  0
 11 12  1  0  0  0
 11 94  1  0  0  0
 12 13  2  0  0  0
 12 95  1  0  0  0
 13 14  1  0  0  0
 13 31  1  0  0  0
 14 15  2  0  0  0
 14 96  1  0  0  0
 15 97  1  0  0  0
 16 17  2  0  0  0
 16 21  1  0  0  0
 16 31  1  0  0  0
 17 18  1  0  0  0
 17 98  1  0  0  0
 18 19  2  0  0  0
 18 99  1  0  0  0
 19 20  1  0  0  0
 19 24  1  0  0  0
 20 21  2  0  0  0
 20100  1  0  0  0
 21 23  1  0  0  0
 22 28  1  0  0  0
 22 32  2  0  0  0
 26 27  1  0  0  0
 28101  1  0  0  0
 28102  1  0  0  0
 29103  1  0  0  0
 29104  1  0  0  0
 33 34  1  0  0  0
 33 66  1  0  0  0
 33 70  2  0  0  0
 34 36  1  0  0  0
 34 59  1  0  0  0
 34105  1  0  0  0
 35 44  2  0  0  0
 35 45  1  0  0  0
 35 68  1  0  0  0
 36 56  1  0  0  0
 36106  1  0  0  0
 37 39  1  0  0  0
 37 47  1  0  0  0
 37 66  1  0  0  0
 37107  1  0  0  0
 38 43  2  0  0  0
 38 46  1  0  0  0
 38 47  1  0  0  0
 39 64  1  0  0  0
 39 67  2  0  0  0
 40 52  1  0  0  0
 40 53  2  0  0  0
 40 58  1  0  0  0
 41108  1  0  0  0
 41109  1  0  0  0
 41110  1  0  0  0
 41 48  1  0  0  0
 42 43  1  0  0  0
 42 66  1  0  0  0
 42111  1  0  0  0
 42112  1  0  0  0
 43 44  1  0  0  0
 44113  1  0  0  0
 45 46  2  0  0  0
 45114  1  0  0  0
 46115  1  0  0  0
 47116  1  0  0  0
 47117  1  0  0  0
 48 56  1  0  0  0
 48 65  1  0  0  0
 48118  1  0  0  0
 49 50  1  0  0  0
 49 53  1  0  0  0
 49 64  1  0  0  0
 49119  1  0  0  0
 50 51  1  0  0  0
 50120  1  0  0  0
 50121  1  0  0  0
 51 52  1  0  0  0
 51122  1  0  0  0
 51123  1  0  0  0
 52124  1  0  0  0
 52125  1  0  0  0
 53 54  1  0  0  0
 54 55  2  0  0  0
 54126  1  0  0  0
 55 57  1  0  0  0
 55127  1  0  0  0
 56 69  2  0  0  0
 57 58  2  0  0  0
 57128  1  0  0  0
 58129  1  0  0  0
 59 60  1  0  0  0
 59 61  1  0  0  0
 59 62  1  0  0  0
 60130  1  0  0  0
 60131  1  0  0  0
 60132  1  0  0  0
 61133  1  0  0  0
 61134  1  0  0  0
 61135  1  0  0  0
 62136  1  0  0  0
 62137  1  0  0  0
 62138  1  0  0  0
 63 65  1  0  0  0
 63139  1  0  0  0
 63140  1  0  0  0
 63141  1  0  0  0
 64142  1  0  0  0
 65143  1  0  0  0
 68 74  1  0  0  0
 71 72  2  0  0  0
 71 81  1  0  0  0
 71144  1  0  0  0
 72 73  1  0  0  0
 72 80  1  0  0  0
 73 79  1  0  0  0
 73 82  2  0  0  0
 74 81  2  0  0  0
 74 82  1  0  0  0
 75 76  1  0  0  0
 75 78  1  0  0  0
 75145  1  0  0  0
 75146  1  0  0  0
 76 84  1  0  0  0
 76147  1  0  0  0
 76148  1  0  0  0
 77 78  1  0  0  0
 77 84  1  0  0  0
 77149  1  0  0  0
 77150  1  0  0  0
 78 83  1  0  0  0
 78151  1  0  0  0
 79152  1  0  0  0
 79153  1  0  0  0
 79154  1  0  0  0
 80155  1  0  0  0
 80156  1  0  0  0
 80 84  1  0  0  0
 83157  1  0  0  0
 84158  1  0  0  0
M  CHG  1  84   1
M  ISO  4   1 100  68 101  74 101  83 100
M  END
> <chiral flag>
0

> <version>
0

> <s_m_source_file>
/data/baiqing/PycharmProjects/Reinvent-master-3.2/result/LINK_invent/BTK/process_docking_weight1_custom_sum_contain_oxygen_bond_distance_aromatic_linkinvent_7_9_3/rearranged_h_0190.sdf

> <i_m_source_file_index>
82

> <r_mmod_Potential_Energy-OPLS-2005>
-342.4228515625

> <r_mmod_Stretch_Energy-OPLS-2005>
86.4868011474609

> <r_mmod_Bend_Energy-OPLS-2005>
182.924240112305

> <r_mmod_Torsional_Energy-OPLS-2005>
275.944183349609

> <r_mmod_Improper_Torsional_Energy-OPLS-2005>
8.05534934997559

> <r_mmod_Van_der_Waal_Energy-OPLS-2005>
135.474868774414

> <r_mmod_Electrostatic_Energy-OPLS-2005>
-592.91015625

> <r_mmod_Solvation_Energy-OPLS-2005>
-497.273162841797

> <b_mmod_Minimization_Converged-OPLS-2005>
0

> <r_mmod_RMS_Derivative-OPLS-2005>
0.983379065990448

$$$$
82
                    3D
 Structure written by MMmdl.
158166  0  0  1  0            999 V2000
  -30.5848  -14.9850   20.4507 C   0  0  0  0  0  0
  -30.4344  -12.6247   19.5043 C   0  0  0  0  0  0
  -29.5212  -12.5390   18.2589 C   0  0  0  0  0  0
  -28.0588  -12.3053   18.6776 C   0  0  0  0  0  0
  -27.6259  -13.2479   19.8301 C   0  0  2  0  0  0
  -28.6679  -13.3024   20.9691 C   0  0  0  0  0  0
  -25.2420  -13.8195   20.5667 C   0  0  0  0  0  0
  -24.1758  -13.0432   20.9232 C   0  0  0  0  0  0
  -24.6380  -11.6921   20.8755 C   0  0  0  0  0  0
  -23.9061  -10.4294   21.0415 C   0  0  0  0  0  0
  -24.3601   -9.4222   21.9209 C   0  0  0  0  0  0
  -23.6285   -8.2253   22.0760 C   0  0  0  0  0  0
  -22.4273   -8.0289   21.3545 C   0  0  0  0  0  0
  -21.9909   -9.0260   20.4651 C   0  0  0  0  0  0
  -22.7225  -10.2143   20.3073 C   0  0  0  0  0  0
  -21.6861   -6.0737   22.5278 C   0  0  0  0  0  0
  -21.4014   -6.5633   23.8211 C   0  0  0  0  0  0
  -21.3646   -5.6779   24.9172 C   0  0  0  0  0  0
  -21.6042   -4.3043   24.7219 C   0  0  0  0  0  0
  -21.8818   -3.8146   23.4335 C   0  0  0  0  0  0
  -21.9190   -4.6965   22.3397 C   0  0  0  0  0  0
  -22.7782  -13.5244   21.1831 C   0  0  0  0  0  0
  -22.1669   -4.2148   21.0975 F   0  0  0  0  0  0
  -21.5621   -3.4533   25.7731 F   0  0  0  0  0  0
  -29.9382  -13.7413   20.3700 N   0  0  0  0  0  0
  -26.2867  -12.9442   20.3224 N   0  0  0  0  0  0
  -25.9317  -11.6580   20.5754 N   0  0  0  0  0  0
  -22.0359  -12.8314   22.0383 N   0  0  0  0  0  0
  -25.4006  -15.1902   20.3969 N   0  0  0  0  0  0
  -31.7849  -14.9783   20.1441 O   0  0  0  0  0  0
  -21.6639   -6.8885   21.4244 O   0  0  0  0  0  0
  -22.3510  -14.5550   20.6635 O   0  0  0  0  0  0
  -24.6426  -31.8399   23.1890 C   0  0  0  0  0  0
  -25.9186  -32.4677   23.8289 C   0  0  1  0  0  0
  -27.2115  -27.1144   20.1610 C   0  0  0  0  0  0
  -25.5952  -33.8482   24.2201 N   0  0  0  0  0  0
  -23.4488  -30.4614   21.5323 C   0  0  2  0  0  0
  -24.8978  -28.8832   20.1118 C   0  0  0  0  0  0
  -22.7575  -29.4529   22.4850 C   0  0  0  0  0  0
  -18.0286  -28.1375   22.8479 C   0  0  0  0  0  0
  -24.1493  -36.7246   23.2647 C   0  0  0  0  0  0
  -26.0058  -30.7096   21.3884 C   0  0  0  0  0  0
  -26.0776  -29.3184   20.7313 C   0  0  0  0  0  0
  -27.2364  -28.4524   20.7346 C   0  0  0  0  0  0
  -26.0075  -26.7870   19.4976 C   0  0  0  0  0  0
  -24.8781  -27.6326   19.4776 C   0  0  0  0  0  0
  -23.6758  -29.7882   20.1526 C   0  0  0  0  0  0
  -25.4123  -36.3023   24.0329 C   0  0  1  0  0  0
  -20.5903  -28.3695   23.1212 C   0  0  2  0  0  0
  -20.6756  -26.9387   22.5378 C   0  0  0  0  0  0
  -19.5734  -26.6357   21.5179 C   0  0  0  0  0  0
  -18.1920  -26.7909   22.1606 C   0  0  0  0  0  0
  -19.1548  -28.8849   23.2848 C   0  0  0  0  0  0
  -18.9471  -30.1443   23.8878 C   0  0  0  0  0  0
  -17.6476  -30.6583   24.0540 C   0  0  0  0  0  0
  -25.9068  -34.9394   23.5070 C   0  0  0  0  0  0
  -16.5362  -29.9073   23.6340 C   0  0  0  0  0  0
  -16.7275  -28.6475   23.0392 C   0  0  0  0  0  0
  -26.4518  -31.6552   25.0732 C   0  0  0  0  0  0
  -25.3732  -31.3726   26.1462 C   0  0  0  0  0  0
  -27.0394  -30.2958   24.6316 C   0  0  0  0  0  0
  -27.6056  -32.4328   25.7518 C   0  0  0  0  0  0
  -27.5582  -37.1789   24.8473 C   0  0  0  0  0  0
  -21.4255  -29.3045   22.3617 N   0  0  0  0  0  0
  -26.4281  -37.3737   23.9418 N   0  0  0  0  0  0
  -24.7185  -31.0254   22.0916 N   0  0  0  0  0  0
  -23.4205  -28.8057   23.2987 O   0  0  0  0  0  0
  -28.2515  -26.1120   20.2439 O   0  0  0  0  0  0
  -26.5650  -34.8876   22.4652 O   0  0  0  0  0  0
  -23.5540  -32.1295   23.7082 O   0  0  0  0  0  0
  -28.4567  -18.1518   21.4098 C   0  0  0  0  0  0
  -28.6584  -16.5883   21.2671 C   0  0  0  0  0  0
  -30.4186  -17.6865   20.2317 C   0  0  0  0  0  0
  -29.2712  -18.8588   20.3149 C   0  0  2  0  0  0
  -30.6494  -22.8325   22.3335 C   0  0  0  0  0  0
  -28.5770  -21.6091   20.3589 C   0  0  0  0  0  0
  -27.9558  -24.5742   20.1180 C   0  0  0  0  0  0
  -28.9759  -23.2688   20.5080 C   0  0  1  0  0  0
  -29.9158  -16.2579   20.5696 N   0  0  0  0  0  0
  -29.5743  -20.3954   20.4772 N   0  0  0  0  0  0
  -29.4227  -23.5306   21.8992 N   0  3  0  0  0  0
  -31.4678  -12.7725   19.1872 H   0  0  0  0  0  0
  -30.4362  -11.6834   20.0567 H   0  0  0  0  0  0
  -29.8583  -11.7393   17.5974 H   0  0  0  0  0  0
  -29.5965  -13.4664   17.6850 H   0  0  0  0  0  0
  -27.9716  -11.2676   19.0037 H   0  0  0  0  0  0
  -27.3932  -12.4098   17.8176 H   0  0  0  0  0  0
  -27.5820  -14.2390   19.3798 H   0  0  0  0  0  0
  -28.7779  -12.3324   21.4533 H   0  0  0  0  0  0
  -28.3402  -13.9857   21.7504 H   0  0  0  0  0  0
  -25.2729   -9.5726   22.4808 H   0  0  0  0  0  0
  -23.9977   -7.4664   22.7505 H   0  0  0  0  0  0
  -21.0832   -8.8783   19.8977 H   0  0  0  0  0  0
  -22.3672  -10.9685   19.6191 H   0  0  0  0  0  0
  -21.2020   -7.6140   23.9724 H   0  0  0  0  0  0
  -21.1462   -6.0505   25.9072 H   0  0  0  0  0  0
  -22.0610   -2.7611   23.2833 H   0  0  0  0  0  0
  -22.3889  -12.0002   22.4877 H   0  0  0  0  0  0
  -21.0973  -13.1415   22.2448 H   0  0  0  0  0  0
  -24.6242  -15.8375   20.4832 H   0  0  0  0  0  0
  -26.2323  -15.6196   20.0136 H   0  0  0  0  0  0
  -26.7262  -32.5267   23.1023 H   0  0  0  0  0  0
  -25.0105  -33.9592   25.0361 H   0  0  0  0  0  0
  -22.7536  -31.2889   21.3765 H   0  0  0  0  0  0
  -23.3748  -35.9582   23.3287 H   0  0  0  0  0  0
  -24.3592  -36.8885   22.2067 H   0  0  0  0  0  0
  -23.7235  -37.6437   23.6687 H   0  0  0  0  0  0
  -26.1667  -31.4624   20.6160 H   0  0  0  0  0  0
  -26.8754  -30.7596   22.0330 H   0  0  0  0  0  0
  -28.1380  -28.7830   21.2335 H   0  0  0  0  0  0
  -25.9028  -25.8335   19.0030 H   0  0  0  0  0  0
  -23.9810  -27.2921   18.9760 H   0  0  0  0  0  0
  -23.8103  -30.5595   19.3932 H   0  0  0  0  0  0
  -22.7909  -29.2287   19.8430 H   0  0  0  0  0  0
  -25.1304  -36.1878   25.0820 H   0  0  0  0  0  0
  -21.0007  -28.3248   24.1327 H   0  0  0  0  0  0
  -20.5563  -26.2311   23.3593 H   0  0  0  0  0  0
  -21.6632  -26.7331   22.1237 H   0  0  0  0  0  0
  -19.6869  -25.6249   21.1239 H   0  0  0  0  0  0
  -19.6673  -27.3133   20.6684 H   0  0  0  0  0  0
  -17.4182  -26.6647   21.4020 H   0  0  0  0  0  0
  -18.0347  -26.0041   22.9000 H   0  0  0  0  0  0
  -19.7952  -30.7258   24.2245 H   0  0  0  0  0  0
  -17.5037  -31.6272   24.5126 H   0  0  0  0  0  0
  -15.5360  -30.2985   23.7659 H   0  0  0  0  0  0
  -15.8675  -28.0771   22.7164 H   0  0  0  0  0  0
  -24.5916  -30.7052   25.7819 H   0  0  0  0  0  0
  -24.8909  -32.2882   26.4889 H   0  0  0  0  0  0
  -25.8064  -30.8931   27.0250 H   0  0  0  0  0  0
  -26.3004  -29.6699   24.1305 H   0  0  0  0  0  0
  -27.3987  -29.7259   25.4892 H   0  0  0  0  0  0
  -27.8929  -30.4210   23.9652 H   0  0  0  0  0  0
  -27.2661  -33.3647   26.2064 H   0  0  0  0  0  0
  -28.3898  -32.6863   25.0370 H   0  0  0  0  0  0
  -28.0700  -31.8474   26.5470 H   0  0  0  0  0  0
  -28.2591  -38.0096   24.7517 H   0  0  0  0  0  0
  -28.1083  -36.2618   24.6303 H   0  0  0  0  0  0
  -27.2298  -37.1448   25.8876 H   0  0  0  0  0  0
  -20.9433  -29.8864   21.6908 H   0  0  0  0  0  0
  -26.0145  -38.2800   24.1431 H   0  0  0  0  0  0
  -28.8130  -18.4653   22.3926 H   0  0  0  0  0  0
  -27.3965  -18.4110   21.3582 H   0  0  0  0  0  0
  -27.8457  -16.1726   20.6798 H   0  0  0  0  0  0
  -28.6300  -16.1223   22.2539 H   0  0  0  0  0  0
  -31.2171  -17.9208   20.9394 H   0  0  0  0  0  0
  -30.8812  -17.6826   19.2456 H   0  0  0  0  0  0
  -28.7035  -18.7717   19.3873 H   0  0  0  0  0  0
  -30.9879  -23.2320   23.2901 H   0  0  0  0  0  0
  -31.4537  -22.9650   21.6091 H   0  0  0  0  0  0
  -30.4813  -21.7665   22.4794 H   0  0  0  0  0  0
  -28.1107  -21.5001   19.3793 H   0  0  0  0  0  0
  -27.7688  -21.4102   21.0649 H   0  0  0  0  0  0
  -27.0332  -24.4087   20.6776 H   0  0  0  0  0  0
  -27.6697  -24.4202   19.0776 H   0  0  0  0  0  0
  -29.8464  -23.4213   19.8689 H   0  0  0  0  0  0
  -30.3488  -20.5974   19.8471 H   0  0  0  0  0  0
  -29.6126  -24.5197   21.9629 H   0  0  0  0  0  0
  -28.6811  -23.3333   22.5528 H   0  0  0  0  0  0
  1 25  1  0  0  0
  1 30  2  0  0  0
  1 79  1  0  0  0
  2  3  1  0  0  0
  2 25  1  0  0  0
  2 82  1  0  0  0
  2 83  1  0  0  0
  3  4  1  0  0  0
  3 84  1  0  0  0
  3 85  1  0  0  0
  4  5  1  0  0  0
  4 86  1  0  0  0
  4 87  1  0  0  0
  5  6  1  0  0  0
  5 26  1  0  0  0
  5 88  1  0  0  0
  6 25  1  0  0  0
  6 89  1  0  0  0
  6 90  1  0  0  0
  7  8  2  0  0  0
  7 26  1  0  0  0
  7 29  1  0  0  0
  8  9  1  0  0  0
  8 22  1  0  0  0
  9 10  1  0  0  0
  9 27  2  0  0  0
 10 11  2  0  0  0
 10 15  1  0  0  0
 11 12  1  0  0  0
 11 91  1  0  0  0
 12 13  2  0  0  0
 12 92  1  0  0  0
 13 14  1  0  0  0
 13 31  1  0  0  0
 14 15  2  0  0  0
 14 93  1  0  0  0
 15 94  1  0  0  0
 16 17  2  0  0  0
 16 21  1  0  0  0
 16 31  1  0  0  0
 17 18  1  0  0  0
 17 95  1  0  0  0
 18 19  2  0  0  0
 18 96  1  0  0  0
 19 20  1  0  0  0
 19 24  1  0  0  0
 20 21  2  0  0  0
 20 97  1  0  0  0
 21 23  1  0  0  0
 22 28  1  0  0  0
 22 32  2  0  0  0
 26 27  1  0  0  0
 28 98  1  0  0  0
 28 99  1  0  0  0
 29100  1  0  0  0
 29101  1  0  0  0
 33 34  1  0  0  0
 33 66  1  0  0  0
 33 70  2  0  0  0
 34 36  1  0  0  0
 34 59  1  0  0  0
 34102  1  0  0  0
 35 44  2  0  0  0
 35 45  1  0  0  0
 35 68  1  0  0  0
 36 56  1  0  0  0
 36103  1  0  0  0
 37 39  1  0  0  0
 37 47  1  0  0  0
 37 66  1  0  0  0
 37104  1  0  0  0
 38 43  2  0  0  0
 38 46  1  0  0  0
 38 47  1  0  0  0
 39 64  1  0  0  0
 39 67  2  0  0  0
 40 52  1  0  0  0
 40 53  2  0  0  0
 40 58  1  0  0  0
 41105  1  0  0  0
 41106  1  0  0  0
 41107  1  0  0  0
 41 48  1  0  0  0
 42 43  1  0  0  0
 42 66  1  0  0  0
 42108  1  0  0  0
 42109  1  0  0  0
 43 44  1  0  0  0
 44110  1  0  0  0
 45 46  2  0  0  0
 45111  1  0  0  0
 46112  1  0  0  0
 47113  1  0  0  0
 47114  1  0  0  0
 48 56  1  0  0  0
 48 65  1  0  0  0
 48115  1  0  0  0
 49 50  1  0  0  0
 49 53  1  0  0  0
 49 64  1  0  0  0
 49116  1  0  0  0
 50 51  1  0  0  0
 50117  1  0  0  0
 50118  1  0  0  0
 51 52  1  0  0  0
 51119  1  0  0  0
 51120  1  0  0  0
 52121  1  0  0  0
 52122  1  0  0  0
 53 54  1  0  0  0
 54 55  2  0  0  0
 54123  1  0  0  0
 55 57  1  0  0  0
 55124  1  0  0  0
 56 69  2  0  0  0
 57 58  2  0  0  0
 57125  1  0  0  0
 58126  1  0  0  0
 59 60  1  0  0  0
 59 61  1  0  0  0
 59 62  1  0  0  0
 60127  1  0  0  0
 60128  1  0  0  0
 60129  1  0  0  0
 61130  1  0  0  0
 61131  1  0  0  0
 61132  1  0  0  0
 62133  1  0  0  0
 62134  1  0  0  0
 62135  1  0  0  0
 63 65  1  0  0  0
 63136  1  0  0  0
 63137  1  0  0  0
 63138  1  0  0  0
 64139  1  0  0  0
 65140  1  0  0  0
 68 77  1  0  0  0
 71 72  1  0  0  0
 71 74  1  0  0  0
 71141  1  0  0  0
 71142  1  0  0  0
 72 79  1  0  0  0
 72143  1  0  0  0
 72144  1  0  0  0
 73 74  1  0  0  0
 73 79  1  0  0  0
 73145  1  0  0  0
 73146  1  0  0  0
 74 80  1  0  0  0
 74147  1  0  0  0
 75 81  1  0  0  0
 75148  1  0  0  0
 75149  1  0  0  0
 75150  1  0  0  0
 76 80  1  0  0  0
 76151  1  0  0  0
 76152  1  0  0  0
 76 78  1  0  0  0
 77 78  1  0  0  0
 77153  1  0  0  0
 77154  1  0  0  0
 78 81  1  0  0  0
 78155  1  0  0  0
 80156  1  0  0  0
 81157  1  0  0  0
 81158  1  0  0  0
M  CHG  1  81   1
M  ISO  4   1 100  68 101  77 101  79 100
M  END
> <chiral flag>
0

> <version>
0

> <s_m_source_file>
/data/baiqing/PycharmProjects/Reinvent-master-3.2/result/LINK_invent/BTK/process_docking_weight1_custom_sum_contain_oxygen_bond_distance_aromatic_linkinvent_7_9_3/rearranged_h_0190.sdf

> <i_m_source_file_index>
83

> <r_mmod_Potential_Energy-OPLS-2005>
572.12353515625

> <r_mmod_Stretch_Energy-OPLS-2005>
283.620361328125

> <r_mmod_Bend_Energy-OPLS-2005>
322.243927001953

> <r_mmod_Torsional_Energy-OPLS-2005>
311.026550292969

> <r_mmod_Improper_Torsional_Energy-OPLS-2005>
7.59367561340332

> <r_mmod_Van_der_Waal_Energy-OPLS-2005>
111.526351928711

> <r_mmod_Electrostatic_Energy-OPLS-2005>
-234.038665771484

> <r_mmod_Solvation_Energy-OPLS-2005>
-442.769104003906

> <b_mmod_Minimization_Converged-OPLS-2005>
0

> <r_mmod_RMS_Derivative-OPLS-2005>
3.53620076179504

$$$$
83
                    3D
 Structure written by MMmdl.
157166  0  0  1  0            999 V2000
  -30.6314  -14.8057   20.4204 C   0  0  0  0  0  0
  -30.4196  -12.4978   19.4758 C   0  0  0  0  0  0
  -29.4990  -12.4790   18.2385 C   0  0  0  0  0  0
  -28.0364  -12.2817   18.6732 C   0  0  0  0  0  0
  -27.6220  -13.2284   19.8293 C   0  0  2  0  0  0
  -28.6702  -13.2563   20.9619 C   0  0  0  0  0  0
  -25.2459  -13.8191   20.5775 C   0  0  0  0  0  0
  -24.1770  -13.0398   20.9240 C   0  0  0  0  0  0
  -24.6380  -11.6886   20.8790 C   0  0  0  0  0  0
  -23.9075  -10.4265   21.0410 C   0  0  0  0  0  0
  -24.3645   -9.4175   21.9158 C   0  0  0  0  0  0
  -23.6318   -8.2214   22.0721 C   0  0  0  0  0  0
  -22.4299   -8.0263   21.3513 C   0  0  0  0  0  0
  -21.9930   -9.0247   20.4638 C   0  0  0  0  0  0
  -22.7256  -10.2121   20.3050 C   0  0  0  0  0  0
  -21.6847   -6.0756   22.5289 C   0  0  0  0  0  0
  -21.4017   -6.5658   23.8223 C   0  0  0  0  0  0
  -21.3658   -5.6809   24.9175 C   0  0  0  0  0  0
  -21.6018   -4.3063   24.7233 C   0  0  0  0  0  0
  -21.8829   -3.8162   23.4355 C   0  0  0  0  0  0
  -21.9192   -4.6983   22.3411 C   0  0  0  0  0  0
  -22.7802  -13.5152   21.1919 C   0  0  0  0  0  0
  -22.1647   -4.2157   21.0989 F   0  0  0  0  0  0
  -21.5632   -3.4543   25.7744 F   0  0  0  0  0  0
  -29.9580  -13.6027   20.3532 N   0  0  0  0  0  0
  -26.2854  -12.9371   20.3259 N   0  0  0  0  0  0
  -25.9294  -11.6523   20.5782 N   0  0  0  0  0  0
  -22.0524  -12.8112   22.0536 N   0  0  0  0  0  0
  -25.4104  -15.1934   20.4341 N   0  0  0  0  0  0
  -31.8484  -14.8002   20.2147 O   0  0  0  0  0  0
  -21.6634   -6.8884   21.4236 O   0  0  0  0  0  0
  -22.3424  -14.5423   20.6744 O   0  0  0  0  0  0
  -24.6321  -31.8550   23.2006 C   0  0  0  0  0  0
  -25.9132  -32.4763   23.8340 C   0  0  1  0  0  0
  -27.2091  -27.2265   20.1102 C   0  0  0  0  0  0
  -25.5933  -33.8571   24.2256 N   0  0  0  0  0  0
  -23.4327  -30.4828   21.5474 C   0  0  2  0  0  0
  -24.8789  -28.9457   20.1070 C   0  0  0  0  0  0
  -22.7546  -29.4547   22.4876 C   0  0  0  0  0  0
  -18.0282  -28.1359   22.8482 C   0  0  0  0  0  0
  -24.1483  -36.7273   23.2648 C   0  0  0  0  0  0
  -25.9871  -30.7541   21.3955 C   0  0  0  0  0  0
  -26.0585  -29.3798   20.7252 C   0  0  0  0  0  0
  -27.2232  -28.5350   20.7201 C   0  0  0  0  0  0
  -25.9979  -26.8949   19.4424 C   0  0  0  0  0  0
  -24.8589  -27.7111   19.4536 C   0  0  0  0  0  0
  -23.6561  -29.8369   20.1588 C   0  0  0  0  0  0
  -25.4116  -36.3069   24.0332 C   0  0  1  0  0  0
  -20.5905  -28.3652   23.1238 C   0  0  2  0  0  0
  -20.6772  -26.9378   22.5365 C   0  0  0  0  0  0
  -19.5725  -26.6354   21.5191 C   0  0  0  0  0  0
  -18.1929  -26.7885   22.1662 C   0  0  0  0  0  0
  -19.1559  -28.8836   23.2849 C   0  0  0  0  0  0
  -18.9491  -30.1442   23.8844 C   0  0  0  0  0  0
  -17.6500  -30.6584   24.0530 C   0  0  0  0  0  0
  -25.9054  -34.9439   23.5091 C   0  0  0  0  0  0
  -16.5375  -29.9070   23.6317 C   0  0  0  0  0  0
  -16.7276  -28.6480   23.0345 C   0  0  0  0  0  0
  -26.4511  -31.6616   25.0749 C   0  0  0  0  0  0
  -25.3781  -31.3757   26.1518 C   0  0  0  0  0  0
  -27.0397  -30.3041   24.6291 C   0  0  0  0  0  0
  -27.6032  -32.4418   25.7499 C   0  0  0  0  0  0
  -27.5571  -37.1788   24.8475 C   0  0  0  0  0  0
  -21.4245  -29.3013   22.3664 N   0  0  0  0  0  0
  -26.4271  -37.3784   23.9442 N   0  0  0  0  0  0
  -24.7033  -31.0476   22.1024 N   0  0  0  0  0  0
  -23.4230  -28.8038   23.2953 O   0  0  0  0  0  0
  -28.2566  -26.2531   20.1771 O   0  0  0  0  0  0
  -26.5610  -34.8902   22.4645 O   0  0  0  0  0  0
  -23.5456  -32.1370   23.7279 O   0  0  0  0  0  0
  -28.6733  -21.2369   19.0865 C   0  0  0  0  0  0
  -29.1724  -22.7851   21.2444 C   0  0  0  0  0  0
  -28.6215  -23.4142   20.0728 C   0  0  0  0  0  0
  -29.1647  -20.5848   20.2563 C   0  0  0  0  0  0
  -29.4364  -23.5759   22.4693 C   0  0  0  0  0  0
  -29.8481  -18.4744   21.5830 C   0  0  0  0  0  0
  -28.8814  -18.1483   19.3552 C   0  0  0  0  0  0
  -30.6821  -17.1605   21.3113 C   0  0  0  0  0  0
  -28.8564  -16.5949   19.8053 C   0  0  0  0  0  0
  -27.8123  -24.8104   19.9948 C   0  0  0  0  0  0
  -28.4179  -22.5865   18.9965 N   0  0  0  0  0  0
  -29.4430  -21.4164   21.3129 N   0  0  0  0  0  0
  -29.8706  -23.0775   23.5501 N   0  0  0  0  0  0
  -29.3655  -19.1361   20.3619 N   0  0  0  0  0  0
  -29.9740  -16.0338   20.6340 N   0  0  0  0  0  0
  -31.4552  -12.6234   19.1593 H   0  0  0  0  0  0
  -30.3824  -11.5461   20.0086 H   0  0  0  0  0  0
  -29.7957  -11.6746   17.5627 H   0  0  0  0  0  0
  -29.6025  -13.4110   17.6833 H   0  0  0  0  0  0
  -27.9432  -11.2477   19.0035 H   0  0  0  0  0  0
  -27.3593  -12.3826   17.8240 H   0  0  0  0  0  0
  -27.5666  -14.2175   19.3832 H   0  0  0  0  0  0
  -28.7269  -12.2925   21.4689 H   0  0  0  0  0  0
  -28.3955  -13.9941   21.7180 H   0  0  0  0  0  0
  -25.2808   -9.5625   22.4702 H   0  0  0  0  0  0
  -24.0027   -7.4597   22.7433 H   0  0  0  0  0  0
  -21.0845   -8.8770   19.8973 H   0  0  0  0  0  0
  -22.3703  -10.9658   19.6164 H   0  0  0  0  0  0
  -21.2004   -7.6165   23.9724 H   0  0  0  0  0  0
  -21.1447   -6.0532   25.9068 H   0  0  0  0  0  0
  -22.0601   -2.7621   23.2853 H   0  0  0  0  0  0
  -22.4235  -11.9793   22.4898 H   0  0  0  0  0  0
  -21.1109  -13.1001   22.2770 H   0  0  0  0  0  0
  -24.6517  -15.8428   20.6124 H   0  0  0  0  0  0
  -26.2769  -15.6548   20.1926 H   0  0  0  0  0  0
  -26.7178  -32.5401   23.1056 H   0  0  0  0  0  0
  -25.0097  -33.9712   25.0420 H   0  0  0  0  0  0
  -22.7298  -31.3065   21.4061 H   0  0  0  0  0  0
  -23.3750  -35.9591   23.3296 H   0  0  0  0  0  0
  -24.3555  -36.8920   22.2060 H   0  0  0  0  0  0
  -23.7222  -37.6479   23.6657 H   0  0  0  0  0  0
  -26.1496  -31.5249   20.6406 H   0  0  0  0  0  0
  -26.8548  -30.7831   22.0420 H   0  0  0  0  0  0
  -28.1181  -28.8575   21.2342 H   0  0  0  0  0  0
  -25.8595  -25.9758   18.8975 H   0  0  0  0  0  0
  -23.9614  -27.3880   18.9435 H   0  0  0  0  0  0
  -23.7956  -30.6219   19.4159 H   0  0  0  0  0  0
  -22.7713  -29.2868   19.8362 H   0  0  0  0  0  0
  -25.1306  -36.1905   25.0827 H   0  0  0  0  0  0
  -20.9985  -28.3180   24.1356 H   0  0  0  0  0  0
  -20.5692  -26.2246   23.3554 H   0  0  0  0  0  0
  -21.6620  -26.7395   22.1134 H   0  0  0  0  0  0
  -19.6880  -25.6260   21.1206 H   0  0  0  0  0  0
  -19.6628  -27.3160   20.6720 H   0  0  0  0  0  0
  -17.4167  -26.6552   21.4110 H   0  0  0  0  0  0
  -18.0401  -26.0057   22.9114 H   0  0  0  0  0  0
  -19.7978  -30.7267   24.2177 H   0  0  0  0  0  0
  -17.5054  -31.6255   24.5148 H   0  0  0  0  0  0
  -15.5370  -30.2971   23.7675 H   0  0  0  0  0  0
  -15.8664  -28.0795   22.7071 H   0  0  0  0  0  0
  -24.5628  -30.7580   25.7749 H   0  0  0  0  0  0
  -24.9434  -32.2969   26.5401 H   0  0  0  0  0  0
  -25.8057  -30.8419   27.0023 H   0  0  0  0  0  0
  -26.3013  -29.6775   24.1288 H   0  0  0  0  0  0
  -27.4039  -29.7323   25.4838 H   0  0  0  0  0  0
  -27.8893  -30.4331   23.9587 H   0  0  0  0  0  0
  -27.2533  -33.3575   26.2278 H   0  0  0  0  0  0
  -28.3679  -32.7307   25.0272 H   0  0  0  0  0  0
  -28.0922  -31.8534   26.5281 H   0  0  0  0  0  0
  -28.2605  -38.0084   24.7536 H   0  0  0  0  0  0
  -28.1070  -36.2612   24.6282 H   0  0  0  0  0  0
  -27.2280  -37.1409   25.8883 H   0  0  0  0  0  0
  -20.9418  -29.8790   21.6933 H   0  0  0  0  0  0
  -26.0143  -38.2850   24.1507 H   0  0  0  0  0  0
  -28.4431  -20.6610   18.2021 H   0  0  0  0  0  0
  -29.2469  -24.6519   22.4125 H   0  0  0  0  0  0
  -30.4610  -19.1696   22.1589 H   0  0  0  0  0  0
  -28.9878  -18.2433   22.2138 H   0  0  0  0  0  0
  -27.8741  -18.4252   19.0189 H   0  0  0  0  0  0
  -29.5038  -18.2499   18.4604 H   0  0  0  0  0  0
  -31.0318  -16.7846   22.2737 H   0  0  0  0  0  0
  -31.5784  -17.4217   20.7464 H   0  0  0  0  0  0
  -28.7212  -15.9877   18.9100 H   0  0  0  0  0  0
  -27.9650  -16.4354   20.4123 H   0  0  0  0  0  0
  -26.9479  -24.6558   20.6440 H   0  0  0  0  0  0
  -27.4513  -24.7719   18.9704 H   0  0  0  0  0  0
  -29.9888  -22.0777   23.4096 H   0  0  0  0  0  0
  1 25  1  0  0  0
  1 30  2  0  0  0
  1 85  1  0  0  0
  2  3  1  0  0  0
  2 25  1  0  0  0
  2 86  1  0  0  0
  2 87  1  0  0  0
  3  4  1  0  0  0
  3 88  1  0  0  0
  3 89  1  0  0  0
  4  5  1  0  0  0
  4 90  1  0  0  0
  4 91  1  0  0  0
  5  6  1  0  0  0
  5 26  1  0  0  0
  5 92  1  0  0  0
  6 25  1  0  0  0
  6 93  1  0  0  0
  6 94  1  0  0  0
  7  8  2  0  0  0
  7 26  1  0  0  0
  7 29  1  0  0  0
  8  9  1  0  0  0
  8 22  1  0  0  0
  9 10  1  0  0  0
  9 27  2  0  0  0
 10 11  2  0  0  0
 10 15  1  0  0  0
 11 12  1  0  0  0
 11 95  1  0  0  0
 12 13  2  0  0  0
 12 96  1  0  0  0
 13 14  1  0  0  0
 13 31  1  0  0  0
 14 15  2  0  0  0
 14 97  1  0  0  0
 15 98  1  0  0  0
 16 17  2  0  0  0
 16 21  1  0  0  0
 16 31  1  0  0  0
 17 18  1  0  0  0
 17 99  1  0  0  0
 18 19  2  0  0  0
 18100  1  0  0  0
 19 20  1  0  0  0
 19 24  1  0  0  0
 20 21  2  0  0  0
 20101  1  0  0  0
 21 23  1  0  0  0
 22 28  1  0  0  0
 22 32  2  0  0  0
 26 27  1  0  0  0
 28102  1  0  0  0
 28103  1  0  0  0
 29104  1  0  0  0
 29105  1  0  0  0
 33 34  1  0  0  0
 33 66  1  0  0  0
 33 70  2  0  0  0
 34 36  1  0  0  0
 34 59  1  0  0  0
 34106  1  0  0  0
 35 44  2  0  0  0
 35 45  1  0  0  0
 35 68  1  0  0  0
 36 56  1  0  0  0
 36107  1  0  0  0
 37 39  1  0  0  0
 37 47  1  0  0  0
 37 66  1  0  0  0
 37108  1  0  0  0
 38 43  2  0  0  0
 38 46  1  0  0  0
 38 47  1  0  0  0
 39 64  1  0  0  0
 39 67  2  0  0  0
 40 52  1  0  0  0
 40 53  2  0  0  0
 40 58  1  0  0  0
 41109  1  0  0  0
 41110  1  0  0  0
 41111  1  0  0  0
 41 48  1  0  0  0
 42 43  1  0  0  0
 42 66  1  0  0  0
 42112  1  0  0  0
 42113  1  0  0  0
 43 44  1  0  0  0
 44114  1  0  0  0
 45 46  2  0  0  0
 45115  1  0  0  0
 46116  1  0  0  0
 47117  1  0  0  0
 47118  1  0  0  0
 48 56  1  0  0  0
 48 65  1  0  0  0
 48119  1  0  0  0
 49 50  1  0  0  0
 49 53  1  0  0  0
 49 64  1  0  0  0
 49120  1  0  0  0
 50 51  1  0  0  0
 50121  1  0  0  0
 50122  1  0  0  0
 51 52  1  0  0  0
 51123  1  0  0  0
 51124  1  0  0  0
 52125  1  0  0  0
 52126  1  0  0  0
 53 54  1  0  0  0
 54 55  2  0  0  0
 54127  1  0  0  0
 55 57  1  0  0  0
 55128  1  0  0  0
 56 69  2  0  0  0
 57 58  2  0  0  0
 57129  1  0  0  0
 58130  1  0  0  0
 59 60  1  0  0  0
 59 61  1  0  0  0
 59 62  1  0  0  0
 60131  1  0  0  0
 60132  1  0  0  0
 60133  1  0  0  0
 61134  1  0  0  0
 61135  1  0  0  0
 61136  1  0  0  0
 62137  1  0  0  0
 62138  1  0  0  0
 62139  1  0  0  0
 63 65  1  0  0  0
 63140  1  0  0  0
 63141  1  0  0  0
 63142  1  0  0  0
 64143  1  0  0  0
 65144  1  0  0  0
 68 80  1  0  0  0
 71 74  2  0  0  0
 71 81  1  0  0  0
 71145  1  0  0  0
 72 73  1  0  0  0
 72 75  1  0  0  0
 72 82  2  0  0  0
 73 80  1  0  0  0
 73 81  2  0  0  0
 74 82  1  0  0  0
 74 84  1  0  0  0
 75 83  2  0  0  0
 75146  1  0  0  0
 76 78  1  0  0  0
 76 84  1  0  0  0
 76147  1  0  0  0
 76148  1  0  0  0
 77 79  1  0  0  0
 77 84  1  0  0  0
 77149  1  0  0  0
 77150  1  0  0  0
 78 85  1  0  0  0
 78151  1  0  0  0
 78152  1  0  0  0
 79 85  1  0  0  0
 79153  1  0  0  0
 79154  1  0  0  0
 80155  1  0  0  0
 80156  1  0  0  0
 83157  1  0  0  0
M  ISO  4   1 100  68 101  80 101  85 100
M  END
> <chiral flag>
0

> <version>
0

> <s_m_source_file>
/data/baiqing/PycharmProjects/Reinvent-master-3.2/result/LINK_invent/BTK/process_docking_weight1_custom_sum_contain_oxygen_bond_distance_aromatic_linkinvent_7_9_3/rearranged_h_0190.sdf

> <i_m_source_file_index>
84

> <r_mmod_Potential_Energy-OPLS-2005>
553.900756835938

> <r_mmod_Stretch_Energy-OPLS-2005>
143.610229492188

> <r_mmod_Bend_Energy-OPLS-2005>
234.55256652832

> <r_mmod_Torsional_Energy-OPLS-2005>
352.978912353516

> <r_mmod_Improper_Torsional_Energy-OPLS-2005>
6.88994407653809

> <r_mmod_Van_der_Waal_Energy-OPLS-2005>
165.158630371094

> <r_mmod_Electrostatic_Energy-OPLS-2005>
-228.637451171875

> <r_mmod_Solvation_Energy-OPLS-2005>
-245.745040893555

> <b_mmod_Minimization_Converged-OPLS-2005>
0

> <r_mmod_RMS_Derivative-OPLS-2005>
5.59809064865112

$$$$
84
                    3D
 Structure written by MMmdl.
166174  0  0  1  0            999 V2000
  -30.5260  -14.9633   20.4483 C   0  0  0  0  0  0
  -30.4414  -12.6085   19.4860 C   0  0  0  0  0  0
  -29.5230  -12.5492   18.2451 C   0  0  0  0  0  0
  -28.0528  -12.3348   18.6600 C   0  0  0  0  0  0
  -27.6260  -13.2527   19.8363 C   0  0  2  0  0  0
  -28.6727  -13.2693   20.9674 C   0  0  0  0  0  0
  -25.2427  -13.8221   20.5677 C   0  0  0  0  0  0
  -24.1764  -13.0423   20.9222 C   0  0  0  0  0  0
  -24.6387  -11.6921   20.8734 C   0  0  0  0  0  0
  -23.9086  -10.4280   21.0397 C   0  0  0  0  0  0
  -24.3625   -9.4209   21.9178 C   0  0  0  0  0  0
  -23.6308   -8.2241   22.0747 C   0  0  0  0  0  0
  -22.4268   -8.0277   21.3567 C   0  0  0  0  0  0
  -21.9919   -9.0243   20.4654 C   0  0  0  0  0  0
  -22.7256  -10.2120   20.3056 C   0  0  0  0  0  0
  -21.6874   -6.0700   22.5284 C   0  0  0  0  0  0
  -21.4034   -6.5613   23.8206 C   0  0  0  0  0  0
  -21.3663   -5.6770   24.9169 C   0  0  0  0  0  0
  -21.6055   -4.3034   24.7229 C   0  0  0  0  0  0
  -21.8819   -3.8120   23.4350 C   0  0  0  0  0  0
  -21.9200   -4.6930   22.3402 C   0  0  0  0  0  0
  -22.7764  -13.5164   21.1885 C   0  0  0  0  0  0
  -22.1659   -4.2116   21.0980 F   0  0  0  0  0  0
  -21.5632   -3.4524   25.7739 F   0  0  0  0  0  0
  -29.9388  -13.7036   20.3603 N   0  0  0  0  0  0
  -26.2873  -12.9463   20.3216 N   0  0  0  0  0  0
  -25.9340  -11.6584   20.5712 N   0  0  0  0  0  0
  -22.0450  -12.8139   22.0457 N   0  0  0  0  0  0
  -25.4068  -15.1958   20.3998 N   0  0  0  0  0  0
  -31.7455  -15.0364   20.2686 O   0  0  0  0  0  0
  -21.6666   -6.8857   21.4245 O   0  0  0  0  0  0
  -22.3434  -14.5445   20.6722 O   0  0  0  0  0  0
  -24.6458  -31.8412   23.1859 C   0  0  0  0  0  0
  -25.9230  -32.4678   23.8250 C   0  0  1  0  0  0
  -27.2221  -27.1163   20.1730 C   0  0  0  0  0  0
  -25.5964  -33.8487   24.2153 N   0  0  0  0  0  0
  -23.4488  -30.4592   21.5312 C   0  0  2  0  0  0
  -24.8979  -28.8706   20.1202 C   0  0  0  0  0  0
  -22.7571  -29.4544   22.4858 C   0  0  0  0  0  0
  -18.0306  -28.1386   22.8477 C   0  0  0  0  0  0
  -24.1485  -36.7254   23.2639 C   0  0  0  0  0  0
  -26.0053  -30.7103   21.3848 C   0  0  0  0  0  0
  -26.0769  -29.3164   20.7339 C   0  0  0  0  0  0
  -27.2416  -28.4585   20.7345 C   0  0  0  0  0  0
  -26.0133  -26.7613   19.5398 C   0  0  0  0  0  0
  -24.8787  -27.6048   19.5126 C   0  0  0  0  0  0
  -23.6771  -29.7796   20.1536 C   0  0  0  0  0  0
  -25.4118  -36.3013   24.0300 C   0  0  1  0  0  0
  -20.5920  -28.3719   23.1234 C   0  0  2  0  0  0
  -20.6795  -26.9429   22.5401 C   0  0  0  0  0  0
  -19.5764  -26.6373   21.5212 C   0  0  0  0  0  0
  -18.1942  -26.7924   22.1623 C   0  0  0  0  0  0
  -19.1559  -28.8864   23.2842 C   0  0  0  0  0  0
  -18.9478  -30.1467   23.8866 C   0  0  0  0  0  0
  -17.6474  -30.6589   24.0561 C   0  0  0  0  0  0
  -25.9083  -34.9397   23.5033 C   0  0  0  0  0  0
  -16.5367  -29.9078   23.6346 C   0  0  0  0  0  0
  -16.7291  -28.6492   23.0366 C   0  0  0  0  0  0
  -26.4517  -31.6585   25.0727 C   0  0  0  0  0  0
  -25.3695  -31.3819   26.1424 C   0  0  0  0  0  0
  -27.0391  -30.2975   24.6361 C   0  0  0  0  0  0
  -27.6007  -32.4390   25.7535 C   0  0  0  0  0  0
  -27.5578  -37.1773   24.8449 C   0  0  0  0  0  0
  -21.4252  -29.3049   22.3614 N   0  0  0  0  0  0
  -26.4274  -37.3745   23.9416 N   0  0  0  0  0  0
  -24.7199  -31.0249   22.0894 N   0  0  0  0  0  0
  -23.4204  -28.8116   23.3039 O   0  0  0  0  0  0
  -28.2999  -26.1553   20.1638 O   0  0  0  0  0  0
  -26.5664  -34.8906   22.4609 O   0  0  0  0  0  0
  -23.5573  -32.1298   23.7071 O   0  0  0  0  0  0
  -30.9499  -18.9343   19.1595 C   0  0  0  0  0  0
  -30.8223  -20.0264   18.0980 C   0  0  0  0  0  0
  -28.3962  -20.2455   18.5965 C   0  0  0  0  0  0
  -28.8720  -20.3499   20.0787 C   0  0  1  0  0  0
  -30.0352  -19.1427   20.3901 C   0  0  1  0  0  0
  -29.8661  -23.6873   18.9074 C   0  0  0  0  0  0
  -29.2503  -20.7330   16.3567 C   0  0  0  0  0  0
  -29.8544  -17.6057   21.1125 C   0  0  0  0  0  0
  -28.1606  -24.6535   20.6036 C   0  0  0  0  0  0
  -28.6992  -23.2475   19.8075 C   0  0  2  0  0  0
  -29.4479  -19.9852   17.5957 N   0  0  0  0  0  0
  -30.8528  -19.8604   21.3653 N   0  0  0  0  0  0
  -29.7153  -16.1332   20.5356 N   0  0  0  0  0  0
  -29.0861  -21.8677   20.5513 N   0  3  0  0  0  0
  -31.4738  -12.7759   19.1766 H   0  0  0  0  0  0
  -30.4371  -11.6580   20.0184 H   0  0  0  0  0  0
  -29.8486  -11.7534   17.5721 H   0  0  0  0  0  0
  -29.6156  -13.4786   17.6827 H   0  0  0  0  0  0
  -27.9446  -11.2922   18.9543 H   0  0  0  0  0  0
  -27.3908  -12.4816   17.8062 H   0  0  0  0  0  0
  -27.5842  -14.2614   19.4263 H   0  0  0  0  0  0
  -28.7761  -12.2832   21.4243 H   0  0  0  0  0  0
  -28.3714  -13.9517   21.7624 H   0  0  0  0  0  0
  -25.2779   -9.5669   22.4739 H   0  0  0  0  0  0
  -24.0039   -7.4621   22.7443 H   0  0  0  0  0  0
  -21.0862   -8.8716   19.8946 H   0  0  0  0  0  0
  -22.3708  -10.9625   19.6141 H   0  0  0  0  0  0
  -21.2021   -7.6122   23.9697 H   0  0  0  0  0  0
  -21.1503   -6.0503   25.9070 H   0  0  0  0  0  0
  -22.0600   -2.7586   23.2863 H   0  0  0  0  0  0
  -22.4084  -11.9835   22.4890 H   0  0  0  0  0  0
  -21.1047  -13.1131   22.2641 H   0  0  0  0  0  0
  -24.6290  -15.8393   20.4867 H   0  0  0  0  0  0
  -26.2292  -15.6315   20.0075 H   0  0  0  0  0  0
  -26.7312  -32.5255   23.0990 H   0  0  0  0  0  0
  -25.0108  -33.9602   25.0295 H   0  0  0  0  0  0
  -22.7538  -31.2867   21.3717 H   0  0  0  0  0  0
  -23.3759  -35.9576   23.3232 H   0  0  0  0  0  0
  -24.3605  -36.8966   22.2079 H   0  0  0  0  0  0
  -23.7233  -37.6417   23.6738 H   0  0  0  0  0  0
  -26.1644  -31.4621   20.6082 H   0  0  0  0  0  0
  -26.8745  -30.7608   22.0297 H   0  0  0  0  0  0
  -28.1438  -28.8057   21.2197 H   0  0  0  0  0  0
  -25.9310  -25.7887   19.0761 H   0  0  0  0  0  0
  -23.9760  -27.2500   19.0351 H   0  0  0  0  0  0
  -23.8236  -30.5505   19.3962 H   0  0  0  0  0  0
  -22.7889  -29.2281   19.8404 H   0  0  0  0  0  0
  -25.1313  -36.1808   25.0795 H   0  0  0  0  0  0
  -21.0010  -28.3294   24.1348 H   0  0  0  0  0  0
  -20.5685  -26.2333   23.3614 H   0  0  0  0  0  0
  -21.6661  -26.7420   22.1199 H   0  0  0  0  0  0
  -19.6930  -25.6264   21.1273 H   0  0  0  0  0  0
  -19.6711  -27.3150   20.6713 H   0  0  0  0  0  0
  -17.4225  -26.6672   21.4020 H   0  0  0  0  0  0
  -18.0342  -26.0062   22.9007 H   0  0  0  0  0  0
  -19.7964  -30.7289   24.2220 H   0  0  0  0  0  0
  -17.5036  -31.6274   24.5157 H   0  0  0  0  0  0
  -15.5364  -30.2971   23.7687 H   0  0  0  0  0  0
  -15.8694  -28.0801   22.7103 H   0  0  0  0  0  0
  -24.5804  -30.7247   25.7747 H   0  0  0  0  0  0
  -24.8967  -32.3036   26.4838 H   0  0  0  0  0  0
  -25.7952  -30.8977   27.0218 H   0  0  0  0  0  0
  -26.3024  -29.6691   24.1342 H   0  0  0  0  0  0
  -27.3940  -29.7304   25.4971 H   0  0  0  0  0  0
  -27.8954  -30.4184   23.9724 H   0  0  0  0  0  0
  -27.2536  -33.3688   26.2058 H   0  0  0  0  0  0
  -28.3856  -32.6975   25.0418 H   0  0  0  0  0  0
  -28.0636  -31.8577   26.5519 H   0  0  0  0  0  0
  -28.2521  -38.0137   24.7558 H   0  0  0  0  0  0
  -28.1132  -36.2662   24.6162 H   0  0  0  0  0  0
  -27.2315  -37.1296   25.8854 H   0  0  0  0  0  0
  -20.9469  -29.8761   21.6786 H   0  0  0  0  0  0
  -26.0101  -38.2790   24.1462 H   0  0  0  0  0  0
  -31.9965  -18.8227   19.4473 H   0  0  0  0  0  0
  -30.6935  -17.9854   18.6836 H   0  0  0  0  0  0
  -31.5235  -19.8203   17.2867 H   0  0  0  0  0  0
  -31.1084  -20.9921   18.5162 H   0  0  0  0  0  0
  -27.7917  -21.1041   18.3136 H   0  0  0  0  0  0
  -27.7045  -19.4065   18.5312 H   0  0  0  0  0  0
  -28.0062  -20.0627   20.6754 H   0  0  0  0  0  0
  -29.5538  -24.5078   18.2585 H   0  0  0  0  0  0
  -30.2187  -22.8964   18.2565 H   0  0  0  0  0  0
  -30.7101  -24.0403   19.4989 H   0  0  0  0  0  0
  -30.0412  -20.5286   15.6336 H   0  0  0  0  0  0
  -29.2252  -21.8089   16.5301 H   0  0  0  0  0  0
  -28.3074  -20.4467   15.8848 H   0  0  0  0  0  0
  -29.0122  -17.7113   21.7977 H   0  0  0  0  0  0
  -30.7084  -17.4815   21.7824 H   0  0  0  0  0  0
  -28.6424  -24.6390   21.5823 H   0  0  0  0  0  0
  -27.1083  -24.4908   20.8369 H   0  0  0  0  0  0
  -27.8704  -23.0057   19.1466 H   0  0  0  0  0  0
  -30.5026  -19.6298   22.2897 H   0  0  0  0  0  0
  -31.7768  -19.4417   21.3528 H   0  0  0  0  0  0
  -28.7451  -15.8791   20.4381 H   0  0  0  0  0  0
  -30.0618  -21.8673   20.8283 H   0  0  0  0  0  0
  -28.5976  -21.8806   21.4323 H   0  0  0  0  0  0
  1 25  1  0  0  0
  1 30  2  0  0  0
  1 83  1  0  0  0
  2  3  1  0  0  0
  2 25  1  0  0  0
  2 85  1  0  0  0
  2 86  1  0  0  0
  3  4  1  0  0  0
  3 87  1  0  0  0
  3 88  1  0  0  0
  4  5  1  0  0  0
  4 89  1  0  0  0
  4 90  1  0  0  0
  5  6  1  0  0  0
  5 26  1  0  0  0
  5 91  1  0  0  0
  6 25  1  0  0  0
  6 92  1  0  0  0
  6 93  1  0  0  0
  7  8  2  0  0  0
  7 26  1  0  0  0
  7 29  1  0  0  0
  8  9  1  0  0  0
  8 22  1  0  0  0
  9 10  1  0  0  0
  9 27  2  0  0  0
 10 11  2  0  0  0
 10 15  1  0  0  0
 11 12  1  0  0  0
 11 94  1  0  0  0
 12 13  2  0  0  0
 12 95  1  0  0  0
 13 14  1  0  0  0
 13 31  1  0  0  0
 14 15  2  0  0  0
 14 96  1  0  0  0
 15 97  1  0  0  0
 16 17  2  0  0  0
 16 21  1  0  0  0
 16 31  1  0  0  0
 17 18  1  0  0  0
 17 98  1  0  0  0
 18 19  2  0  0  0
 18 99  1  0  0  0
 19 20  1  0  0  0
 19 24  1  0  0  0
 20 21  2  0  0  0
 20100  1  0  0  0
 21 23  1  0  0  0
 22 28  1  0  0  0
 22 32  2  0  0  0
 26 27  1  0  0  0
 28101  1  0  0  0
 28102  1  0  0  0
 29103  1  0  0  0
 29104  1  0  0  0
 33 34  1  0  0  0
 33 66  1  0  0  0
 33 70  2  0  0  0
 34 36  1  0  0  0
 34 59  1  0  0  0
 34105  1  0  0  0
 35 44  2  0  0  0
 35 45  1  0  0  0
 35 68  1  0  0  0
 36 56  1  0  0  0
 36106  1  0  0  0
 37 39  1  0  0  0
 37 47  1  0  0  0
 37 66  1  0  0  0
 37107  1  0  0  0
 38 43  2  0  0  0
 38 46  1  0  0  0
 38 47  1  0  0  0
 39 64  1  0  0  0
 39 67  2  0  0  0
 40 52  1  0  0  0
 40 53  2  0  0  0
 40 58  1  0  0  0
 41108  1  0  0  0
 41109  1  0  0  0
 41110  1  0  0  0
 41 48  1  0  0  0
 42 43  1  0  0  0
 42 66  1  0  0  0
 42111  1  0  0  0
 42112  1  0  0  0
 43 44  1  0  0  0
 44113  1  0  0  0
 45 46  2  0  0  0
 45114  1  0  0  0
 46115  1  0  0  0
 47116  1  0  0  0
 47117  1  0  0  0
 48 56  1  0  0  0
 48 65  1  0  0  0
 48118  1  0  0  0
 49 50  1  0  0  0
 49 53  1  0  0  0
 49 64  1  0  0  0
 49119  1  0  0  0
 50 51  1  0  0  0
 50120  1  0  0  0
 50121  1  0  0  0
 51 52  1  0  0  0
 51122  1  0  0  0
 51123  1  0  0  0
 52124  1  0  0  0
 52125  1  0  0  0
 53 54  1  0  0  0
 54 55  2  0  0  0
 54126  1  0  0  0
 55 57  1  0  0  0
 55127  1  0  0  0
 56 69  2  0  0  0
 57 58  2  0  0  0
 57128  1  0  0  0
 58129  1  0  0  0
 59 60  1  0  0  0
 59 61  1  0  0  0
 59 62  1  0  0  0
 60130  1  0  0  0
 60131  1  0  0  0
 60132  1  0  0  0
 61133  1  0  0  0
 61134  1  0  0  0
 61135  1  0  0  0
 62136  1  0  0  0
 62137  1  0  0  0
 62138  1  0  0  0
 63 65  1  0  0  0
 63139  1  0  0  0
 63140  1  0  0  0
 63141  1  0  0  0
 64142  1  0  0  0
 65143  1  0  0  0
 68 79  1  0  0  0
 71 72  1  0  0  0
 71 75  1  0  0  0
 71144  1  0  0  0
 71145  1  0  0  0
 72 81  1  0  0  0
 72146  1  0  0  0
 72147  1  0  0  0
 73 74  1  0  0  0
 73 81  1  0  0  0
 73148  1  0  0  0
 73149  1  0  0  0
 74 75  1  0  0  0
 74 84  1  0  0  0
 74150  1  0  0  0
 75 78  1  0  0  0
 75 82  1  0  0  0
 76151  1  0  0  0
 76152  1  0  0  0
 76153  1  0  0  0
 76 80  1  0  0  0
 77 81  1  0  0  0
 77154  1  0  0  0
 77155  1  0  0  0
 77156  1  0  0  0
 78 83  1  0  0  0
 78157  1  0  0  0
 78158  1  0  0  0
 79 80  1  0  0  0
 79159  1  0  0  0
 79160  1  0  0  0
 80 84  1  0  0  0
 80161  1  0  0  0
 82162  1  0  0  0
 82163  1  0  0  0
 83164  1  0  0  0
 84165  1  0  0  0
 84166  1  0  0  0
M  CHG  1  84   1
M  ISO  4   1 100  68 101  79 101  83 100
M  END
> <chiral flag>
0

> <version>
0

> <s_m_source_file>
/data/baiqing/PycharmProjects/Reinvent-master-3.2/result/LINK_invent/BTK/process_docking_weight1_custom_sum_contain_oxygen_bond_distance_aromatic_linkinvent_7_9_3/rearranged_h_0190.sdf

> <i_m_source_file_index>
85

> <r_mmod_Potential_Energy-OPLS-2005>
480.928497314453

> <r_mmod_Stretch_Energy-OPLS-2005>
308.464019775391

> <r_mmod_Bend_Energy-OPLS-2005>
362.271759033203

> <r_mmod_Torsional_Energy-OPLS-2005>
346.422241210938

> <r_mmod_Improper_Torsional_Energy-OPLS-2005>
5.40150928497314

> <r_mmod_Van_der_Waal_Energy-OPLS-2005>
123.619514465332

> <r_mmod_Electrostatic_Energy-OPLS-2005>
-404.211334228516

> <r_mmod_Solvation_Energy-OPLS-2005>
-465.220092773438

> <b_mmod_Minimization_Converged-OPLS-2005>
0

> <r_mmod_RMS_Derivative-OPLS-2005>
4.35861492156982

$$$$
85
                    3D
 Structure written by MMmdl.
151160  0  0  1  0            999 V2000
  -30.4108  -15.4668   20.3442 C   0  0  0  0  0  0
  -30.4147  -12.9610   19.5292 C   0  0  0  0  0  0
  -29.5326  -12.6062   18.3052 C   0  0  0  0  0  0
  -28.0979  -12.2906   18.7515 C   0  0  0  0  0  0
  -27.5951  -13.2985   19.8133 C   0  0  2  0  0  0
  -28.6191  -13.5900   20.9335 C   0  0  0  0  0  0
  -25.2324  -13.8298   20.5827 C   0  0  0  0  0  0
  -24.1702  -13.0445   20.9297 C   0  0  0  0  0  0
  -24.6388  -11.6951   20.8774 C   0  0  0  0  0  0
  -23.9102  -10.4294   21.0405 C   0  0  0  0  0  0
  -24.3643   -9.4205   21.9186 C   0  0  0  0  0  0
  -23.6311   -8.2240   22.0753 C   0  0  0  0  0  0
  -22.4290   -8.0285   21.3543 C   0  0  0  0  0  0
  -21.9928   -9.0265   20.4646 C   0  0  0  0  0  0
  -22.7271  -10.2137   20.3057 C   0  0  0  0  0  0
  -21.6857   -6.0739   22.5282 C   0  0  0  0  0  0
  -21.4026   -6.5639   23.8216 C   0  0  0  0  0  0
  -21.3667   -5.6793   24.9179 C   0  0  0  0  0  0
  -21.6041   -4.3052   24.7228 C   0  0  0  0  0  0
  -21.8814   -3.8146   23.4350 C   0  0  0  0  0  0
  -21.9186   -4.6961   22.3402 C   0  0  0  0  0  0
  -22.7714  -13.5170   21.1933 C   0  0  0  0  0  0
  -22.1647   -4.2144   21.0981 F   0  0  0  0  0  0
  -21.5626   -3.4539   25.7745 F   0  0  0  0  0  0
  -29.8125  -14.1517   20.2707 N   0  0  0  0  0  0
  -26.2753  -12.9610   20.3254 N   0  0  0  0  0  0
  -25.9328  -11.6687   20.5724 N   0  0  0  0  0  0
  -22.0373  -12.8149   22.0484 N   0  0  0  0  0  0
  -25.3932  -15.2045   20.4289 N   0  0  0  0  0  0
  -31.6366  -15.3567   20.1686 O   0  0  0  0  0  0
  -21.6643   -6.8885   21.4242 O   0  0  0  0  0  0
  -22.3389  -14.5467   20.6770 O   0  0  0  0  0  0
  -24.6748  -31.8093   23.1590 C   0  0  0  0  0  0
  -25.9371  -32.4516   23.8107 C   0  0  1  0  0  0
  -27.2189  -26.7956   20.1975 C   0  0  0  0  0  0
  -25.5981  -33.8336   24.2000 N   0  0  0  0  0  0
  -23.4970  -30.4152   21.5102 C   0  0  2  0  0  0
  -24.9522  -28.7757   20.1122 C   0  0  0  0  0  0
  -22.7732  -29.4359   22.4731 C   0  0  0  0  0  0
  -18.0332  -28.1413   22.8454 C   0  0  0  0  0  0
  -24.1497  -36.7181   23.2652 C   0  0  0  0  0  0
  -26.0725  -30.5716   21.4104 C   0  0  0  0  0  0
  -26.1374  -29.1470   20.7576 C   0  0  0  0  0  0
  -27.2584  -28.1805   20.7730 C   0  0  0  0  0  0
  -26.0058  -26.6110   19.4927 C   0  0  0  0  0  0
  -24.9195  -27.5320   19.4575 C   0  0  0  0  0  0
  -23.7457  -29.7207   20.1412 C   0  0  0  0  0  0
  -25.4141  -36.2926   24.0291 C   0  0  1  0  0  0
  -20.5963  -28.3767   23.1157 C   0  0  2  0  0  0
  -20.6801  -26.9434   22.5401 C   0  0  0  0  0  0
  -19.5776  -26.6370   21.5211 C   0  0  0  0  0  0
  -18.1959  -26.7940   22.1618 C   0  0  0  0  0  0
  -19.1596  -28.8912   23.2787 C   0  0  0  0  0  0
  -18.9505  -30.1498   23.8831 C   0  0  0  0  0  0
  -17.6495  -30.6595   24.0553 C   0  0  0  0  0  0
  -25.9112  -34.9311   23.4977 C   0  0  0  0  0  0
  -16.5385  -29.9085   23.6342 C   0  0  0  0  0  0
  -16.7311  -28.6506   23.0357 C   0  0  0  0  0  0
  -26.4571  -31.6518   25.0696 C   0  0  0  0  0  0
  -25.3658  -31.3809   26.1325 C   0  0  0  0  0  0
  -27.0494  -30.2871   24.6535 C   0  0  0  0  0  0
  -27.6035  -32.4358   25.7509 C   0  0  0  0  0  0
  -27.5567  -37.1747   24.8463 C   0  0  0  0  0  0
  -21.4386  -29.3035   22.3490 N   0  0  0  0  0  0
  -26.4272  -37.3678   23.9407 N   0  0  0  0  0  0
  -24.7708  -30.9628   22.0797 N   0  0  0  0  0  0
  -23.4218  -28.7941   23.3030 O   0  0  0  0  0  0
  -28.1952  -25.6263   20.3036 O   0  0  0  0  0  0
  -26.5740  -34.8869   22.4587 O   0  0  0  0  0  0
  -23.5785  -32.1124   23.6600 O   0  0  0  0  0  0
  -29.9751  -18.9306   18.5150 C   0  0  0  0  0  0
  -28.5500  -17.7287   20.6877 C   0  0  0  0  0  0
  -29.5238  -20.4495   18.7167 C   0  0  0  0  0  0
  -30.3086  -18.3438   19.8979 C   0  0  1  0  0  0
  -29.3003  -19.2196   20.7614 C   0  0  1  0  0  0
  -28.8576  -22.3216   20.5537 C   0  0  0  0  0  0
  -28.0581  -23.9380   20.0042 C   0  0  0  0  0  0
  -29.7999  -16.8794   20.2974 N   0  0  0  0  0  0
  -28.8234  -20.6695   20.0302 N   0  3  1  0  0  0
  -31.4241  -13.1730   19.1757 H   0  0  0  0  0  0
  -30.5233  -12.1013   20.1923 H   0  0  0  0  0  0
  -29.9531  -11.7577   17.7628 H   0  0  0  0  0  0
  -29.5247  -13.4445   17.6074 H   0  0  0  0  0  0
  -28.1003  -11.2870   19.1783 H   0  0  0  0  0  0
  -27.4249  -12.2585   17.8938 H   0  0  0  0  0  0
  -27.4725  -14.2327   19.2625 H   0  0  0  0  0  0
  -28.8436  -12.6992   21.5227 H   0  0  0  0  0  0
  -28.2186  -14.3308   21.6274 H   0  0  0  0  0  0
  -25.2781   -9.5680   22.4780 H   0  0  0  0  0  0
  -24.0007   -7.4632   22.7479 H   0  0  0  0  0  0
  -21.0856   -8.8805   19.8962 H   0  0  0  0  0  0
  -22.3731  -10.9689   19.6177 H   0  0  0  0  0  0
  -21.2033   -7.6150   23.9726 H   0  0  0  0  0  0
  -21.1492   -6.0518   25.9083 H   0  0  0  0  0  0
  -22.0582   -2.7604   23.2852 H   0  0  0  0  0  0
  -22.4010  -11.9832   22.4896 H   0  0  0  0  0  0
  -21.0984  -13.1162   22.2690 H   0  0  0  0  0  0
  -24.6232  -15.8532   20.5565 H   0  0  0  0  0  0
  -26.2404  -15.6513   20.1051 H   0  0  0  0  0  0
  -26.7450  -32.5011   23.0822 H   0  0  0  0  0  0
  -25.0054  -33.9388   25.0101 H   0  0  0  0  0  0
  -22.8176  -31.2504   21.3281 H   0  0  0  0  0  0
  -23.3774  -35.9495   23.3262 H   0  0  0  0  0  0
  -24.3577  -36.8890   22.2078 H   0  0  0  0  0  0
  -23.7242  -37.6344   23.6754 H   0  0  0  0  0  0
  -26.2674  -31.3028   20.6247 H   0  0  0  0  0  0
  -26.9271  -30.6341   22.0721 H   0  0  0  0  0  0
  -28.1499  -28.4643   21.3149 H   0  0  0  0  0  0
  -25.8565  -25.6660   18.9908 H   0  0  0  0  0  0
  -24.0228  -27.2425   18.9267 H   0  0  0  0  0  0
  -23.9188  -30.4846   19.3825 H   0  0  0  0  0  0
  -22.8521  -29.1857   19.8152 H   0  0  0  0  0  0
  -25.1345  -36.1706   25.0781 H   0  0  0  0  0  0
  -21.0041  -28.3389   24.1285 H   0  0  0  0  0  0
  -20.5667  -26.2391   23.3658 H   0  0  0  0  0  0
  -21.6666  -26.7389   22.1221 H   0  0  0  0  0  0
  -19.6936  -25.6264   21.1285 H   0  0  0  0  0  0
  -19.6716  -27.3144   20.6711 H   0  0  0  0  0  0
  -17.4226  -26.6673   21.4025 H   0  0  0  0  0  0
  -18.0355  -26.0101   22.9034 H   0  0  0  0  0  0
  -19.7981  -30.7328   24.2177 H   0  0  0  0  0  0
  -17.5046  -31.6266   24.5176 H   0  0  0  0  0  0
  -15.5382  -30.2966   23.7700 H   0  0  0  0  0  0
  -15.8713  -28.0806   22.7104 H   0  0  0  0  0  0
  -24.5851  -30.7151   25.7626 H   0  0  0  0  0  0
  -24.8831  -32.3021   26.4598 H   0  0  0  0  0  0
  -25.7848  -30.9069   27.0210 H   0  0  0  0  0  0
  -26.3185  -29.6497   24.1544 H   0  0  0  0  0  0
  -27.3974  -29.7303   25.5247 H   0  0  0  0  0  0
  -27.9147  -30.4025   24.0007 H   0  0  0  0  0  0
  -27.2584  -33.3712   26.1929 H   0  0  0  0  0  0
  -28.3926  -32.6837   25.0396 H   0  0  0  0  0  0
  -28.0617  -31.8594   26.5557 H   0  0  0  0  0  0
  -28.2551  -38.0072   24.7515 H   0  0  0  0  0  0
  -28.1092  -36.2596   24.6279 H   0  0  0  0  0  0
  -27.2280  -37.1375   25.8862 H   0  0  0  0  0  0
  -20.9672  -29.8722   21.6594 H   0  0  0  0  0  0
  -26.0109  -38.2729   24.1418 H   0  0  0  0  0  0
  -30.8258  -18.8665   17.8365 H   0  0  0  0  0  0
  -29.1661  -18.3735   18.0421 H   0  0  0  0  0  0
  -27.7656  -17.6899   19.9301 H   0  0  0  0  0  0
  -28.1166  -17.4423   21.6462 H   0  0  0  0  0  0
  -28.9013  -20.7916   17.8894 H   0  0  0  0  0  0
  -30.4204  -21.0697   18.7094 H   0  0  0  0  0  0
  -31.3379  -18.5393   20.2038 H   0  0  0  0  0  0
  -29.7026  -19.4015   21.7576 H   0  0  0  0  0  0
  -28.5756  -22.2431   21.6030 H   0  0  0  0  0  0
  -29.9226  -22.5482   20.5909 H   0  0  0  0  0  0
  -26.9923  -23.7588   20.1465 H   0  0  0  0  0  0
  -28.1757  -23.9111   18.9211 H   0  0  0  0  0  0
  -27.8426  -20.5140   19.8481 H   0  0  0  0  0  0
  1 25  1  0  0  0
  1 30  2  0  0  0
  1 78  1  0  0  0
  2  3  1  0  0  0
  2 25  1  0  0  0
  2 80  1  0  0  0
  2 81  1  0  0  0
  3  4  1  0  0  0
  3 82  1  0  0  0
  3 83  1  0  0  0
  4  5  1  0  0  0
  4 84  1  0  0  0
  4 85  1  0  0  0
  5  6  1  0  0  0
  5 26  1  0  0  0
  5 86  1  0  0  0
  6 25  1  0  0  0
  6 87  1  0  0  0
  6 88  1  0  0  0
  7  8  2  0  0  0
  7 26  1  0  0  0
  7 29  1  0  0  0
  8  9  1  0  0  0
  8 22  1  0  0  0
  9 10  1  0  0  0
  9 27  2  0  0  0
 10 11  2  0  0  0
 10 15  1  0  0  0
 11 12  1  0  0  0
 11 89  1  0  0  0
 12 13  2  0  0  0
 12 90  1  0  0  0
 13 14  1  0  0  0
 13 31  1  0  0  0
 14 15  2  0  0  0
 14 91  1  0  0  0
 15 92  1  0  0  0
 16 17  2  0  0  0
 16 21  1  0  0  0
 16 31  1  0  0  0
 17 18  1  0  0  0
 17 93  1  0  0  0
 18 19  2  0  0  0
 18 94  1  0  0  0
 19 20  1  0  0  0
 19 24  1  0  0  0
 20 21  2  0  0  0
 20 95  1  0  0  0
 21 23  1  0  0  0
 22 28  1  0  0  0
 22 32  2  0  0  0
 26 27  1  0  0  0
 28 96  1  0  0  0
 28 97  1  0  0  0
 29 98  1  0  0  0
 29 99  1  0  0  0
 33 34  1  0  0  0
 33 66  1  0  0  0
 33 70  2  0  0  0
 34 36  1  0  0  0
 34 59  1  0  0  0
 34100  1  0  0  0
 35 44  2  0  0  0
 35 45  1  0  0  0
 35 68  1  0  0  0
 36 56  1  0  0  0
 36101  1  0  0  0
 37 39  1  0  0  0
 37 47  1  0  0  0
 37 66  1  0  0  0
 37102  1  0  0  0
 38 43  2  0  0  0
 38 46  1  0  0  0
 38 47  1  0  0  0
 39 64  1  0  0  0
 39 67  2  0  0  0
 40 52  1  0  0  0
 40 53  2  0  0  0
 40 58  1  0  0  0
 41103  1  0  0  0
 41104  1  0  0  0
 41105  1  0  0  0
 41 48  1  0  0  0
 42 43  1  0  0  0
 42 66  1  0  0  0
 42106  1  0  0  0
 42107  1  0  0  0
 43 44  1  0  0  0
 44108  1  0  0  0
 45 46  2  0  0  0
 45109  1  0  0  0
 46110  1  0  0  0
 47111  1  0  0  0
 47112  1  0  0  0
 48 56  1  0  0  0
 48 65  1  0  0  0
 48113  1  0  0  0
 49 50  1  0  0  0
 49 53  1  0  0  0
 49 64  1  0  0  0
 49114  1  0  0  0
 50 51  1  0  0  0
 50115  1  0  0  0
 50116  1  0  0  0
 51 52  1  0  0  0
 51117  1  0  0  0
 51118  1  0  0  0
 52119  1  0  0  0
 52120  1  0  0  0
 53 54  1  0  0  0
 54 55  2  0  0  0
 54121  1  0  0  0
 55 57  1  0  0  0
 55122  1  0  0  0
 56 69  2  0  0  0
 57 58  2  0  0  0
 57123  1  0  0  0
 58124  1  0  0  0
 59 60  1  0  0  0
 59 61  1  0  0  0
 59 62  1  0  0  0
 60125  1  0  0  0
 60126  1  0  0  0
 60127  1  0  0  0
 61128  1  0  0  0
 61129  1  0  0  0
 61130  1  0  0  0
 62131  1  0  0  0
 62132  1  0  0  0
 62133  1  0  0  0
 63 65  1  0  0  0
 63134  1  0  0  0
 63135  1  0  0  0
 63136  1  0  0  0
 64137  1  0  0  0
 65138  1  0  0  0
 68 77  1  0  0  0
 71 73  1  0  0  0
 71139  1  0  0  0
 71140  1  0  0  0
 71 74  1  0  0  0
 72 78  1  0  0  0
 72141  1  0  0  0
 72142  1  0  0  0
 72 75  1  0  0  0
 73 79  1  0  0  0
 73143  1  0  0  0
 73144  1  0  0  0
 74 75  1  0  0  0
 74 78  1  0  0  0
 74145  1  0  0  0
 75 79  1  0  0  0
 75146  1  0  0  0
 76 77  1  0  0  0
 76147  1  0  0  0
 76148  1  0  0  0
 76 79  1  0  0  0
 77149  1  0  0  0
 77150  1  0  0  0
 79151  1  0  0  0
M  CHG  1  79   1
M  ISO  4   1 100  68 101  77 101  78 100
M  END
> <chiral flag>
0

> <version>
0

> <s_m_source_file>
/data/baiqing/PycharmProjects/Reinvent-master-3.2/result/LINK_invent/BTK/process_docking_weight1_custom_sum_contain_oxygen_bond_distance_aromatic_linkinvent_7_9_3/rearranged_h_0190.sdf

> <i_m_source_file_index>
86

> <r_mmod_Potential_Energy-OPLS-2005>
1912.98376464844

> <r_mmod_Stretch_Energy-OPLS-2005>
780.109313964844

> <r_mmod_Bend_Energy-OPLS-2005>
644.383605957031

> <r_mmod_Torsional_Energy-OPLS-2005>
358.101379394531

> <r_mmod_Improper_Torsional_Energy-OPLS-2005>
8.07961177825928

> <r_mmod_Van_der_Waal_Energy-OPLS-2005>
107.500305175781

> <r_mmod_Electrostatic_Energy-OPLS-2005>
-204.343688964844

> <r_mmod_Solvation_Energy-OPLS-2005>
-466.349914550781

> <b_mmod_Minimization_Converged-OPLS-2005>
0

> <r_mmod_RMS_Derivative-OPLS-2005>
1.30615317821503

$$$$
86
                    3D
 Structure written by MMmdl.
164173  0  0  1  0            999 V2000
  -30.7435  -14.4630   20.5422 C   0  0  0  0  0  0
  -30.4039  -12.2904   19.4366 C   0  0  0  0  0  0
  -29.4891  -12.4906   18.2125 C   0  0  0  0  0  0
  -28.0114  -12.3599   18.6246 C   0  0  0  0  0  0
  -27.6575  -13.2156   19.8709 C   0  0  2  0  0  0
  -28.7004  -13.0360   20.9992 C   0  0  0  0  0  0
  -25.2566  -13.8190   20.5685 C   0  0  0  0  0  0
  -24.1831  -13.0450   20.9195 C   0  0  0  0  0  0
  -24.6402  -11.6920   20.8756 C   0  0  0  0  0  0
  -23.9075  -10.4298   21.0417 C   0  0  0  0  0  0
  -24.3625   -9.4208   21.9194 C   0  0  0  0  0  0
  -23.6297   -8.2246   22.0760 C   0  0  0  0  0  0
  -22.4280   -8.0286   21.3546 C   0  0  0  0  0  0
  -21.9919   -9.0267   20.4652 C   0  0  0  0  0  0
  -22.7250  -10.2144   20.3064 C   0  0  0  0  0  0
  -21.6851   -6.0743   22.5283 C   0  0  0  0  0  0
  -21.4015   -6.5647   23.8217 C   0  0  0  0  0  0
  -21.3657   -5.6797   24.9179 C   0  0  0  0  0  0
  -21.6043   -4.3060   24.7227 C   0  0  0  0  0  0
  -21.8818   -3.8152   23.4347 C   0  0  0  0  0  0
  -21.9192   -4.6971   22.3403 C   0  0  0  0  0  0
  -22.7855  -13.5239   21.1851 C   0  0  0  0  0  0
  -22.1659   -4.2156   21.0980 F   0  0  0  0  0  0
  -21.5628   -3.4542   25.7739 F   0  0  0  0  0  0
  -30.0321  -13.3061   20.4370 N   0  0  0  0  0  0
  -26.3008  -12.9379   20.3368 N   0  0  0  0  0  0
  -25.9332  -11.6532   20.5796 N   0  0  0  0  0  0
  -22.0493  -12.8227   22.0401 N   0  0  0  0  0  0
  -25.4276  -15.1906   20.4054 N   0  0  0  0  0  0
  -31.8903  -14.5412   20.0931 O   0  0  0  0  0  0
  -21.6639   -6.8886   21.4242 O   0  0  0  0  0  0
  -22.3542  -14.5547   20.6695 O   0  0  0  0  0  0
  -24.6149  -31.8694   23.2110 C   0  0  0  0  0  0
  -25.9049  -32.4829   23.8402 C   0  0  1  0  0  0
  -27.2250  -27.4346   20.1035 C   0  0  0  0  0  0
  -25.5911  -33.8625   24.2334 N   0  0  0  0  0  0
  -23.4022  -30.4940   21.5521 C   0  0  2  0  0  0
  -24.8484  -28.9644   20.1108 C   0  0  0  0  0  0
  -22.7418  -29.4663   22.4995 C   0  0  0  0  0  0
  -18.0278  -28.1369   22.8488 C   0  0  0  0  0  0
  -24.1491  -36.7318   23.2638 C   0  0  0  0  0  0
  -25.9314  -30.8356   21.3648 C   0  0  0  0  0  0
  -26.0090  -29.4715   20.7098 C   0  0  0  0  0  0
  -27.2044  -28.7153   20.7019 C   0  0  0  0  0  0
  -26.0541  -26.9543   19.4762 C   0  0  0  0  0  0
  -24.8660  -27.7054   19.4883 C   0  0  0  0  0  0
  -23.6103  -29.8306   20.1647 C   0  0  0  0  0  0
  -25.4107  -36.3118   24.0341 C   0  0  1  0  0  0
  -20.5868  -28.3658   23.1317 C   0  0  2  0  0  0
  -20.6767  -26.9396   22.5416 C   0  0  0  0  0  0
  -19.5743  -26.6385   21.5206 C   0  0  0  0  0  0
  -18.1921  -26.7916   22.1621 C   0  0  0  0  0  0
  -19.1528  -28.8828   23.2897 C   0  0  0  0  0  0
  -18.9455  -30.1433   23.8913 C   0  0  0  0  0  0
  -17.6459  -30.6583   24.0559 C   0  0  0  0  0  0
  -25.9032  -34.9481   23.5132 C   0  0  0  0  0  0
  -16.5351  -29.9083   23.6322 C   0  0  0  0  0  0
  -16.7269  -28.6497   23.0345 C   0  0  0  0  0  0
  -26.4470  -31.6599   25.0725 C   0  0  0  0  0  0
  -25.3739  -31.3710   26.1482 C   0  0  0  0  0  0
  -27.0281  -30.3039   24.6086 C   0  0  0  0  0  0
  -27.6061  -32.4300   25.7481 C   0  0  0  0  0  0
  -27.5581  -37.1816   24.8466 C   0  0  0  0  0  0
  -21.4146  -29.3037   22.3738 N   0  0  0  0  0  0
  -26.4298  -37.3799   23.9403 N   0  0  0  0  0  0
  -24.6676  -31.0803   22.1011 N   0  0  0  0  0  0
  -23.4200  -28.8196   23.3022 O   0  0  0  0  0  0
  -28.3629  -26.6573   20.1332 O   0  0  0  0  0  0
  -26.5595  -34.8931   22.4693 O   0  0  0  0  0  0
  -23.5343  -32.1448   23.7508 O   0  0  0  0  0  0
  -29.4707  -17.9151   20.8518 C   0  0  0  0  0  0
  -29.8658  -19.2515   20.6153 C   0  0  0  0  0  0
  -30.4704  -16.9171   20.8864 C   0  0  0  0  0  0
  -32.0459  -18.5781   20.5411 C   0  0  0  0  0  0
  -27.0488  -21.3212   18.9025 C   0  0  0  0  0  0
  -28.0717  -20.1913   19.0915 C   0  0  0  0  0  0
  -27.7293  -22.6992   18.9318 C   0  0  0  0  0  0
  -29.4853  -21.8171   20.4336 C   0  0  0  0  0  0
  -28.8512  -20.3870   20.4029 C   0  0  2  0  0  0
  -33.5016  -18.9360   20.3402 C   0  0  0  0  0  0
  -29.1280  -24.2838   20.2113 C   0  0  0  0  0  0
  -28.1778  -25.3728   20.7643 C   0  0  0  0  0  0
  -31.1616  -19.5554   20.4259 N   0  0  0  0  0  0
  -31.7599  -17.3060   20.7758 N   0  0  0  0  0  0
  -30.0753  -15.5451   21.0053 N   0  0  0  0  0  0
  -28.5053  -22.9197   20.1846 N   0  3  1  0  0  0
  -31.4519  -12.3444   19.1369 H   0  0  0  0  0  0
  -30.2720  -11.2909   19.8542 H   0  0  0  0  0  0
  -29.7258  -11.7574   17.4400 H   0  0  0  0  0  0
  -29.6668  -13.4722   17.7702 H   0  0  0  0  0  0
  -27.8202  -11.3062   18.8317 H   0  0  0  0  0  0
  -27.3621  -12.6263   17.7895 H   0  0  0  0  0  0
  -27.6910  -14.2577   19.5516 H   0  0  0  0  0  0
  -28.6699  -12.0178   21.3896 H   0  0  0  0  0  0
  -28.4728  -13.6839   21.8465 H   0  0  0  0  0  0
  -25.2771   -9.5679   22.4769 H   0  0  0  0  0  0
  -24.0006   -7.4636   22.7478 H   0  0  0  0  0  0
  -21.0854   -8.8793   19.8955 H   0  0  0  0  0  0
  -22.3719  -10.9688   19.6174 H   0  0  0  0  0  0
  -21.2007   -7.6155   23.9722 H   0  0  0  0  0  0
  -21.1479   -6.0528   25.9081 H   0  0  0  0  0  0
  -22.0596   -2.7614   23.2847 H   0  0  0  0  0  0
  -22.4101  -11.9878   22.4779 H   0  0  0  0  0  0
  -21.1113  -13.1258   22.2613 H   0  0  0  0  0  0
  -24.6562  -15.8420   20.5004 H   0  0  0  0  0  0
  -26.2692  -15.6242   20.0482 H   0  0  0  0  0  0
  -26.7124  -32.5545   23.1169 H   0  0  0  0  0  0
  -25.0066  -33.9780   25.0484 H   0  0  0  0  0  0
  -22.6905  -31.3110   21.4160 H   0  0  0  0  0  0
  -23.3756  -35.9647   23.3297 H   0  0  0  0  0  0
  -24.3590  -36.8929   22.2055 H   0  0  0  0  0  0
  -23.7235  -37.6519   23.6647 H   0  0  0  0  0  0
  -26.0443  -31.6031   20.5977 H   0  0  0  0  0  0
  -26.8191  -30.8876   21.9831 H   0  0  0  0  0  0
  -28.0990  -29.0980   21.1739 H   0  0  0  0  0  0
  -26.0506  -25.9942   18.9797 H   0  0  0  0  0  0
  -23.9771  -27.3124   19.0141 H   0  0  0  0  0  0
  -23.7186  -30.6086   19.4083 H   0  0  0  0  0  0
  -22.7337  -29.2516   19.8686 H   0  0  0  0  0  0
  -25.1281  -36.1996   25.0834 H   0  0  0  0  0  0
  -20.9951  -28.3228   24.1439 H   0  0  0  0  0  0
  -20.5672  -26.2269   23.3602 H   0  0  0  0  0  0
  -21.6640  -26.7448   22.1204 H   0  0  0  0  0  0
  -19.6910  -25.6298   21.1223 H   0  0  0  0  0  0
  -19.6679  -27.3210   20.6743 H   0  0  0  0  0  0
  -17.4193  -26.6669   21.4023 H   0  0  0  0  0  0
  -18.0319  -26.0051   22.9010 H   0  0  0  0  0  0
  -19.7932  -30.7229   24.2315 H   0  0  0  0  0  0
  -17.5020  -31.6267   24.5153 H   0  0  0  0  0  0
  -15.5353  -30.2992   23.7629 H   0  0  0  0  0  0
  -15.8667  -28.0821   22.7055 H   0  0  0  0  0  0
  -24.5889  -30.7088   25.7818 H   0  0  0  0  0  0
  -24.8961  -32.2871   26.4966 H   0  0  0  0  0  0
  -25.8093  -30.8844   27.0220 H   0  0  0  0  0  0
  -26.2807  -29.6816   24.1148 H   0  0  0  0  0  0
  -27.4060  -29.7269   25.4533 H   0  0  0  0  0  0
  -27.8651  -30.4350   23.9219 H   0  0  0  0  0  0
  -27.2707  -33.3611   26.2066 H   0  0  0  0  0  0
  -28.3874  -32.6836   25.0302 H   0  0  0  0  0  0
  -28.0720  -31.8406   26.5384 H   0  0  0  0  0  0
  -28.2617  -38.0102   24.7509 H   0  0  0  0  0  0
  -28.1063  -36.2633   24.6301 H   0  0  0  0  0  0
  -27.2299  -37.1487   25.8872 H   0  0  0  0  0  0
  -20.9313  -29.8778   21.6971 H   0  0  0  0  0  0
  -26.0196  -38.2882   24.1393 H   0  0  0  0  0  0
  -28.4220  -17.6648   20.9419 H   0  0  0  0  0  0
  -26.2822  -21.2668   19.6770 H   0  0  0  0  0  0
  -26.5296  -21.1913   17.9521 H   0  0  0  0  0  0
  -28.7647  -20.1651   18.2485 H   0  0  0  0  0  0
  -27.5591  -19.2285   19.0985 H   0  0  0  0  0  0
  -26.9728  -23.4773   18.8178 H   0  0  0  0  0  0
  -28.3945  -22.7895   18.0711 H   0  0  0  0  0  0
  -30.2682  -21.8911   19.6780 H   0  0  0  0  0  0
  -29.9708  -21.9725   21.3980 H   0  0  0  0  0  0
  -28.1450  -20.3195   21.2317 H   0  0  0  0  0  0
  -33.6791  -19.9924   20.5421 H   0  0  0  0  0  0
  -33.7972  -18.7321   19.3110 H   0  0  0  0  0  0
  -34.1408  -18.3542   21.0042 H   0  0  0  0  0  0
  -30.0309  -24.2817   20.8232 H   0  0  0  0  0  0
  -29.4582  -24.5529   19.2068 H   0  0  0  0  0  0
  -28.3516  -25.4921   21.8342 H   0  0  0  0  0  0
  -27.1500  -25.0190   20.6911 H   0  0  0  0  0  0
  -29.1300  -15.3754   21.3034 H   0  0  0  0  0  0
  -27.8515  -22.8803   20.9542 H   0  0  0  0  0  0
  1 25  1  0  0  0
  1 30  2  0  0  0
  1 85  1  0  0  0
  2  3  1  0  0  0
  2 25  1  0  0  0
  2 87  1  0  0  0
  2 88  1  0  0  0
  3  4  1  0  0  0
  3 89  1  0  0  0
  3 90  1  0  0  0
  4  5  1  0  0  0
  4 91  1  0  0  0
  4 92  1  0  0  0
  5  6  1  0  0  0
  5 26  1  0  0  0
  5 93  1  0  0  0
  6 25  1  0  0  0
  6 94  1  0  0  0
  6 95  1  0  0  0
  7  8  2  0  0  0
  7 26  1  0  0  0
  7 29  1  0  0  0
  8  9  1  0  0  0
  8 22  1  0  0  0
  9 10  1  0  0  0
  9 27  2  0  0  0
 10 11  2  0  0  0
 10 15  1  0  0  0
 11 12  1  0  0  0
 11 96  1  0  0  0
 12 13  2  0  0  0
 12 97  1  0  0  0
 13 14  1  0  0  0
 13 31  1  0  0  0
 14 15  2  0  0  0
 14 98  1  0  0  0
 15 99  1  0  0  0
 16 17  2  0  0  0
 16 21  1  0  0  0
 16 31  1  0  0  0
 17 18  1  0  0  0
 17100  1  0  0  0
 18 19  2  0  0  0
 18101  1  0  0  0
 19 20  1  0  0  0
 19 24  1  0  0  0
 20 21  2  0  0  0
 20102  1  0  0  0
 21 23  1  0  0  0
 22 28  1  0  0  0
 22 32  2  0  0  0
 26 27  1  0  0  0
 28103  1  0  0  0
 28104  1  0  0  0
 29105  1  0  0  0
 29106  1  0  0  0
 33 34  1  0  0  0
 33 66  1  0  0  0
 33 70  2  0  0  0
 34 36  1  0  0  0
 34 59  1  0  0  0
 34107  1  0  0  0
 35 44  2  0  0  0
 35 45  1  0  0  0
 35 68  1  0  0  0
 36 56  1  0  0  0
 36108  1  0  0  0
 37 39  1  0  0  0
 37 47  1  0  0  0
 37 66  1  0  0  0
 37109  1  0  0  0
 38 43  2  0  0  0
 38 46  1  0  0  0
 38 47  1  0  0  0
 39 64  1  0  0  0
 39 67  2  0  0  0
 40 52  1  0  0  0
 40 53  2  0  0  0
 40 58  1  0  0  0
 41110  1  0  0  0
 41111  1  0  0  0
 41112  1  0  0  0
 41 48  1  0  0  0
 42 43  1  0  0  0
 42 66  1  0  0  0
 42113  1  0  0  0
 42114  1  0  0  0
 43 44  1  0  0  0
 44115  1  0  0  0
 45 46  2  0  0  0
 45116  1  0  0  0
 46117  1  0  0  0
 47118  1  0  0  0
 47119  1  0  0  0
 48 56  1  0  0  0
 48 65  1  0  0  0
 48120  1  0  0  0
 49 50  1  0  0  0
 49 53  1  0  0  0
 49 64  1  0  0  0
 49121  1  0  0  0
 50 51  1  0  0  0
 50122  1  0  0  0
 50123  1  0  0  0
 51 52  1  0  0  0
 51124  1  0  0  0
 51125  1  0  0  0
 52126  1  0  0  0
 52127  1  0  0  0
 53 54  1  0  0  0
 54 55  2  0  0  0
 54128  1  0  0  0
 55 57  1  0  0  0
 55129  1  0  0  0
 56 69  2  0  0  0
 57 58  2  0  0  0
 57130  1  0  0  0
 58131  1  0  0  0
 59 60  1  0  0  0
 59 61  1  0  0  0
 59 62  1  0  0  0
 60132  1  0  0  0
 60133  1  0  0  0
 60134  1  0  0  0
 61135  1  0  0  0
 61136  1  0  0  0
 61137  1  0  0  0
 62138  1  0  0  0
 62139  1  0  0  0
 62140  1  0  0  0
 63 65  1  0  0  0
 63141  1  0  0  0
 63142  1  0  0  0
 63143  1  0  0  0
 64144  1  0  0  0
 65145  1  0  0  0
 68 82  1  0  0  0
 71 72  2  0  0  0
 71 73  1  0  0  0
 71146  1  0  0  0
 72 83  1  0  0  0
 72 79  1  0  0  0
 73 84  2  0  0  0
 73 85  1  0  0  0
 74 80  1  0  0  0
 74 83  2  0  0  0
 74 84  1  0  0  0
 75 76  1  0  0  0
 75 77  1  0  0  0
 75147  1  0  0  0
 75148  1  0  0  0
 76 79  1  0  0  0
 76149  1  0  0  0
 76150  1  0  0  0
 77 86  1  0  0  0
 77151  1  0  0  0
 77152  1  0  0  0
 78 79  1  0  0  0
 78 86  1  0  0  0
 78153  1  0  0  0
 78154  1  0  0  0
 79155  1  0  0  0
 80156  1  0  0  0
 80157  1  0  0  0
 80158  1  0  0  0
 81 82  1  0  0  0
 81159  1  0  0  0
 81160  1  0  0  0
 81 86  1  0  0  0
 82161  1  0  0  0
 82162  1  0  0  0
 85163  1  0  0  0
 86164  1  0  0  0
M  CHG  1  86   1
M  ISO  4   1 100  68 101  82 101  85 100
M  END
> <chiral flag>
0

> <version>
0

> <s_m_source_file>
/data/baiqing/PycharmProjects/Reinvent-master-3.2/result/LINK_invent/BTK/process_docking_weight1_custom_sum_contain_oxygen_bond_distance_aromatic_linkinvent_7_9_3/rearranged_h_0190.sdf

> <i_m_source_file_index>
87

> <r_mmod_Potential_Energy-OPLS-2005>
-485.583435058594

> <r_mmod_Stretch_Energy-OPLS-2005>
39.8675384521484

> <r_mmod_Bend_Energy-OPLS-2005>
98.4123001098633

> <r_mmod_Torsional_Energy-OPLS-2005>
266.507720947266

> <r_mmod_Improper_Torsional_Energy-OPLS-2005>
4.63664674758911

> <r_mmod_Van_der_Waal_Energy-OPLS-2005>
173.049606323242

> <r_mmod_Electrostatic_Energy-OPLS-2005>
-617.638916015625

> <r_mmod_Solvation_Energy-OPLS-2005>
-467.85205078125

> <b_mmod_Minimization_Converged-OPLS-2005>
0

> <r_mmod_RMS_Derivative-OPLS-2005>
0.98017430305481

$$$$
87
                    3D
 Structure written by MMmdl.
154163  0  0  1  0            999 V2000
  -30.4110  -15.3919   20.3431 C   0  0  0  0  0  0
  -30.4300  -12.9098   19.5075 C   0  0  0  0  0  0
  -29.5319  -12.5876   18.2866 C   0  0  0  0  0  0
  -28.0922  -12.2851   18.7330 C   0  0  0  0  0  0
  -27.5993  -13.2838   19.8077 C   0  0  2  0  0  0
  -28.6320  -13.5346   20.9260 C   0  0  0  0  0  0
  -25.2342  -13.8240   20.5764 C   0  0  0  0  0  0
  -24.1711  -13.0421   20.9269 C   0  0  0  0  0  0
  -24.6384  -11.6926   20.8770 C   0  0  0  0  0  0
  -23.9087  -10.4284   21.0410 C   0  0  0  0  0  0
  -24.3633   -9.4198   21.9186 C   0  0  0  0  0  0
  -23.6296   -8.2239   22.0754 C   0  0  0  0  0  0
  -22.4276   -8.0279   21.3545 C   0  0  0  0  0  0
  -21.9915   -9.0256   20.4649 C   0  0  0  0  0  0
  -22.7259  -10.2125   20.3059 C   0  0  0  0  0  0
  -21.6853   -6.0730   22.5275 C   0  0  0  0  0  0
  -21.4019   -6.5634   23.8208 C   0  0  0  0  0  0
  -21.3658   -5.6784   24.9168 C   0  0  0  0  0  0
  -21.6040   -4.3049   24.7221 C   0  0  0  0  0  0
  -21.8820   -3.8142   23.4346 C   0  0  0  0  0  0
  -21.9196   -4.6956   22.3399 C   0  0  0  0  0  0
  -22.7730  -13.5179   21.1908 C   0  0  0  0  0  0
  -22.1664   -4.2146   21.0976 F   0  0  0  0  0  0
  -21.5625   -3.4530   25.7734 F   0  0  0  0  0  0
  -29.8329  -14.0794   20.2658 N   0  0  0  0  0  0
  -26.2770  -12.9539   20.3203 N   0  0  0  0  0  0
  -25.9324  -11.6637   20.5715 N   0  0  0  0  0  0
  -22.0388  -12.8167   22.0464 N   0  0  0  0  0  0
  -25.3942  -15.1968   20.4197 N   0  0  0  0  0  0
  -31.6497  -15.3236   20.2689 O   0  0  0  0  0  0
  -21.6637   -6.8874   21.4239 O   0  0  0  0  0  0
  -22.3418  -14.5484   20.6747 O   0  0  0  0  0  0
  -24.6698  -31.8161   23.1633 C   0  0  0  0  0  0
  -25.9340  -32.4548   23.8125 C   0  0  1  0  0  0
  -27.2161  -26.8499   20.2026 C   0  0  0  0  0  0
  -25.5974  -33.8366   24.2026 N   0  0  0  0  0  0
  -23.4871  -30.4240   21.5152 C   0  0  2  0  0  0
  -24.9383  -28.7892   20.1218 C   0  0  0  0  0  0
  -22.7693  -29.4406   22.4769 C   0  0  0  0  0  0
  -18.0328  -28.1413   22.8466 C   0  0  0  0  0  0
  -24.1502  -36.7199   23.2660 C   0  0  0  0  0  0
  -26.0600  -30.5984   21.4026 C   0  0  0  0  0  0
  -26.1263  -29.1777   20.7536 C   0  0  0  0  0  0
  -27.2599  -28.2340   20.7585 C   0  0  0  0  0  0
  -25.9939  -26.6266   19.5291 C   0  0  0  0  0  0
  -24.9017  -27.5363   19.4874 C   0  0  0  0  0  0
  -23.7306  -29.7300   20.1462 C   0  0  0  0  0  0
  -25.4153  -36.2949   24.0290 C   0  0  1  0  0  0
  -20.5954  -28.3764   23.1177 C   0  0  2  0  0  0
  -20.6801  -26.9439   22.5402 C   0  0  0  0  0  0
  -19.5774  -26.6377   21.5215 C   0  0  0  0  0  0
  -18.1958  -26.7944   22.1622 C   0  0  0  0  0  0
  -19.1589  -28.8911   23.2806 C   0  0  0  0  0  0
  -18.9499  -30.1499   23.8845 C   0  0  0  0  0  0
  -17.6494  -30.6603   24.0554 C   0  0  0  0  0  0
  -25.9104  -34.9329   23.4986 C   0  0  0  0  0  0
  -16.5384  -29.9089   23.6348 C   0  0  0  0  0  0
  -16.7309  -28.6508   23.0367 C   0  0  0  0  0  0
  -26.4565  -31.6523   25.0687 C   0  0  0  0  0  0
  -25.3668  -31.3797   26.1328 C   0  0  0  0  0  0
  -27.0476  -30.2882   24.6477 C   0  0  0  0  0  0
  -27.6034  -32.4354   25.7503 C   0  0  0  0  0  0
  -27.5543  -37.1804   24.8499 C   0  0  0  0  0  0
  -21.4357  -29.3040   22.3515 N   0  0  0  0  0  0
  -26.4315  -37.3666   23.9348 N   0  0  0  0  0  0
  -24.7613  -30.9754   22.0803 N   0  0  0  0  0  0
  -23.4210  -28.7989   23.3044 O   0  0  0  0  0  0
  -28.2380  -25.7370   20.1977 O   0  0  0  0  0  0
  -26.5727  -34.8872   22.4591 O   0  0  0  0  0  0
  -23.5749  -32.1165   23.6680 O   0  0  0  0  0  0
  -28.4004  -18.7382   19.2395 C   0  0  0  0  0  0
  -29.1793  -23.5750   21.5685 C   0  0  0  0  0  0
  -28.5080  -17.1453   19.5635 C   0  0  0  0  0  0
  -30.0947  -18.2924   20.7097 C   0  0  0  0  0  0
  -29.2288  -21.9743   21.7158 C   0  0  0  0  0  0
  -28.3315  -22.5226   19.6749 C   0  0  0  0  0  0
  -28.9528  -19.5810   20.4228 C   0  0  1  0  0  0
  -28.1457  -24.0719   20.5048 C   0  0  2  0  0  0
  -29.7106  -16.7431   20.3616 N   0  0  0  0  0  0
  -29.1419  -21.2863   20.3886 N   0  3  2  0  0  0
  -31.4361  -13.1388   19.1536 H   0  0  0  0  0  0
  -30.5414  -12.0375   20.1534 H   0  0  0  0  0  0
  -29.9376  -11.7435   17.7275 H   0  0  0  0  0  0
  -29.5303  -13.4373   17.6028 H   0  0  0  0  0  0
  -28.0820  -11.2754   19.1462 H   0  0  0  0  0  0
  -27.4182  -12.2737   17.8757 H   0  0  0  0  0  0
  -27.4875  -14.2269   19.2719 H   0  0  0  0  0  0
  -28.8423  -12.6277   21.4950 H   0  0  0  0  0  0
  -28.2474  -14.2668   21.6378 H   0  0  0  0  0  0
  -25.2780   -9.5667   22.4762 H   0  0  0  0  0  0
  -23.9998   -7.4630   22.7480 H   0  0  0  0  0  0
  -21.0842   -8.8789   19.8962 H   0  0  0  0  0  0
  -22.3727  -10.9665   19.6170 H   0  0  0  0  0  0
  -21.2017   -7.6142   23.9711 H   0  0  0  0  0  0
  -21.1475   -6.0512   25.9068 H   0  0  0  0  0  0
  -22.0602   -2.7606   23.2841 H   0  0  0  0  0  0
  -22.4019  -11.9846   22.4871 H   0  0  0  0  0  0
  -21.1006  -13.1194   22.2670 H   0  0  0  0  0  0
  -24.6226  -15.8452   20.5348 H   0  0  0  0  0  0
  -26.2369  -15.6381   20.0785 H   0  0  0  0  0  0
  -26.7419  -32.5068   23.0842 H   0  0  0  0  0  0
  -25.0044  -33.9433   25.0123 H   0  0  0  0  0  0
  -22.8043  -31.2572   21.3375 H   0  0  0  0  0  0
  -23.3714  -35.9596   23.3458 H   0  0  0  0  0  0
  -24.3518  -36.8705   22.2044 H   0  0  0  0  0  0
  -23.7360  -37.6471   23.6631 H   0  0  0  0  0  0
  -26.2463  -31.3331   20.6181 H   0  0  0  0  0  0
  -26.9175  -30.6597   22.0606 H   0  0  0  0  0  0
  -28.1670  -28.5397   21.2609 H   0  0  0  0  0  0
  -25.8585  -25.6732   19.0381 H   0  0  0  0  0  0
  -24.0012  -27.2331   18.9716 H   0  0  0  0  0  0
  -23.8958  -30.4940   19.3854 H   0  0  0  0  0  0
  -22.8375  -29.1905   19.8262 H   0  0  0  0  0  0
  -25.1382  -36.1762   25.0791 H   0  0  0  0  0  0
  -21.0038  -28.3378   24.1302 H   0  0  0  0  0  0
  -20.5685  -26.2382   23.3648 H   0  0  0  0  0  0
  -21.6666  -26.7412   22.1208 H   0  0  0  0  0  0
  -19.6935  -25.6274   21.1282 H   0  0  0  0  0  0
  -19.6713  -27.3155   20.6720 H   0  0  0  0  0  0
  -17.4225  -26.6684   21.4029 H   0  0  0  0  0  0
  -18.0356  -26.0101   22.9034 H   0  0  0  0  0  0
  -19.7975  -30.7327   24.2189 H   0  0  0  0  0  0
  -17.5046  -31.6276   24.5162 H   0  0  0  0  0  0
  -15.5380  -30.2973   23.7705 H   0  0  0  0  0  0
  -15.8707  -28.0805   22.7118 H   0  0  0  0  0  0
  -24.5862  -30.7141   25.7630 H   0  0  0  0  0  0
  -24.8845  -32.3008   26.4610 H   0  0  0  0  0  0
  -25.7874  -30.9051   27.0202 H   0  0  0  0  0  0
  -26.3160  -29.6534   24.1470 H   0  0  0  0  0  0
  -27.3967  -29.7277   25.5161 H   0  0  0  0  0  0
  -27.9116  -30.4046   23.9932 H   0  0  0  0  0  0
  -27.2580  -33.3696   26.1944 H   0  0  0  0  0  0
  -28.3919  -32.6854   25.0392 H   0  0  0  0  0  0
  -28.0627  -31.8579   26.5536 H   0  0  0  0  0  0
  -28.2696  -37.9953   24.7305 H   0  0  0  0  0  0
  -28.0896  -36.2476   24.6663 H   0  0  0  0  0  0
  -27.2207  -37.1862   25.8890 H   0  0  0  0  0  0
  -20.9629  -29.8703   21.6610 H   0  0  0  0  0  0
  -26.0172  -38.2764   24.1190 H   0  0  0  0  0  0
  -27.3737  -19.0197   19.0027 H   0  0  0  0  0  0
  -28.9894  -18.9601   18.3484 H   0  0  0  0  0  0
  -30.1664  -23.9208   21.2630 H   0  0  0  0  0  0
  -28.9835  -24.0394   22.5344 H   0  0  0  0  0  0
  -28.4666  -16.5698   18.6373 H   0  0  0  0  0  0
  -27.6379  -16.8501   20.1484 H   0  0  0  0  0  0
  -30.4051  -18.3283   21.7538 H   0  0  0  0  0  0
  -30.9970  -18.5114   20.1368 H   0  0  0  0  0  0
  -28.3767  -21.6522   22.3157 H   0  0  0  0  0  0
  -30.1233  -21.6539   22.2505 H   0  0  0  0  0  0
  -28.8208  -22.7060   18.7183 H   0  0  0  0  0  0
  -27.3362  -22.1591   19.4169 H   0  0  0  0  0  0
  -28.2019  -19.4639   21.2052 H   0  0  0  0  0  0
  -27.1667  -23.9903   20.9781 H   0  0  0  0  0  0
  -30.0662  -21.3851   19.9952 H   0  0  0  0  0  0
  1 25  1  0  0  0
  1 30  2  0  0  0
  1 79  1  0  0  0
  2  3  1  0  0  0
  2 25  1  0  0  0
  2 81  1  0  0  0
  2 82  1  0  0  0
  3  4  1  0  0  0
  3 83  1  0  0  0
  3 84  1  0  0  0
  4  5  1  0  0  0
  4 85  1  0  0  0
  4 86  1  0  0  0
  5  6  1  0  0  0
  5 26  1  0  0  0
  5 87  1  0  0  0
  6 25  1  0  0  0
  6 88  1  0  0  0
  6 89  1  0  0  0
  7  8  2  0  0  0
  7 26  1  0  0  0
  7 29  1  0  0  0
  8  9  1  0  0  0
  8 22  1  0  0  0
  9 10  1  0  0  0
  9 27  2  0  0  0
 10 11  2  0  0  0
 10 15  1  0  0  0
 11 12  1  0  0  0
 11 90  1  0  0  0
 12 13  2  0  0  0
 12 91  1  0  0  0
 13 14  1  0  0  0
 13 31  1  0  0  0
 14 15  2  0  0  0
 14 92  1  0  0  0
 15 93  1  0  0  0
 16 17  2  0  0  0
 16 21  1  0  0  0
 16 31  1  0  0  0
 17 18  1  0  0  0
 17 94  1  0  0  0
 18 19  2  0  0  0
 18 95  1  0  0  0
 19 20  1  0  0  0
 19 24  1  0  0  0
 20 21  2  0  0  0
 20 96  1  0  0  0
 21 23  1  0  0  0
 22 28  1  0  0  0
 22 32  2  0  0  0
 26 27  1  0  0  0
 28 97  1  0  0  0
 28 98  1  0  0  0
 29 99  1  0  0  0
 29100  1  0  0  0
 33 34  1  0  0  0
 33 66  1  0  0  0
 33 70  2  0  0  0
 34 36  1  0  0  0
 34 59  1  0  0  0
 34101  1  0  0  0
 35 44  2  0  0  0
 35 45  1  0  0  0
 35 68  1  0  0  0
 36 56  1  0  0  0
 36102  1  0  0  0
 37 39  1  0  0  0
 37 47  1  0  0  0
 37 66  1  0  0  0
 37103  1  0  0  0
 38 43  2  0  0  0
 38 46  1  0  0  0
 38 47  1  0  0  0
 39 64  1  0  0  0
 39 67  2  0  0  0
 40 52  1  0  0  0
 40 53  2  0  0  0
 40 58  1  0  0  0
 41104  1  0  0  0
 41105  1  0  0  0
 41106  1  0  0  0
 41 48  1  0  0  0
 42 43  1  0  0  0
 42 66  1  0  0  0
 42107  1  0  0  0
 42108  1  0  0  0
 43 44  1  0  0  0
 44109  1  0  0  0
 45 46  2  0  0  0
 45110  1  0  0  0
 46111  1  0  0  0
 47112  1  0  0  0
 47113  1  0  0  0
 48 56  1  0  0  0
 48 65  1  0  0  0
 48114  1  0  0  0
 49 50  1  0  0  0
 49 53  1  0  0  0
 49 64  1  0  0  0
 49115  1  0  0  0
 50 51  1  0  0  0
 50116  1  0  0  0
 50117  1  0  0  0
 51 52  1  0  0  0
 51118  1  0  0  0
 51119  1  0  0  0
 52120  1  0  0  0
 52121  1  0  0  0
 53 54  1  0  0  0
 54 55  2  0  0  0
 54122  1  0  0  0
 55 57  1  0  0  0
 55123  1  0  0  0
 56 69  2  0  0  0
 57 58  2  0  0  0
 57124  1  0  0  0
 58125  1  0  0  0
 59 60  1  0  0  0
 59 61  1  0  0  0
 59 62  1  0  0  0
 60126  1  0  0  0
 60127  1  0  0  0
 60128  1  0  0  0
 61129  1  0  0  0
 61130  1  0  0  0
 61131  1  0  0  0
 62132  1  0  0  0
 62133  1  0  0  0
 62134  1  0  0  0
 63 65  1  0  0  0
 63135  1  0  0  0
 63136  1  0  0  0
 63137  1  0  0  0
 64138  1  0  0  0
 65139  1  0  0  0
 68 78  1  0  0  0
 71 73  1  0  0  0
 71140  1  0  0  0
 71141  1  0  0  0
 71 77  1  0  0  0
 72 75  1  0  0  0
 72 78  1  0  0  0
 72142  1  0  0  0
 72143  1  0  0  0
 73 79  1  0  0  0
 73144  1  0  0  0
 73145  1  0  0  0
 74 77  1  0  0  0
 74 79  1  0  0  0
 74146  1  0  0  0
 74147  1  0  0  0
 75148  1  0  0  0
 75149  1  0  0  0
 75 80  1  0  0  0
 76 78  1  0  0  0
 76 80  1  0  0  0
 76150  1  0  0  0
 76151  1  0  0  0
 77 80  1  0  0  0
 77152  1  0  0  0
 78153  1  0  0  0
 80154  1  0  0  0
M  CHG  1  80   1
M  ISO  4   1 100  68 101  78 101  79 100
M  END
> <chiral flag>
0

> <version>
0

> <s_m_source_file>
/data/baiqing/PycharmProjects/Reinvent-master-3.2/result/LINK_invent/BTK/process_docking_weight1_custom_sum_contain_oxygen_bond_distance_aromatic_linkinvent_7_9_3/rearranged_h_0190.sdf

> <i_m_source_file_index>
88

> <r_mmod_Potential_Energy-OPLS-2005>
1701.02966308594

> <r_mmod_Stretch_Energy-OPLS-2005>
641.844604492188

> <r_mmod_Bend_Energy-OPLS-2005>
615.462341308594

> <r_mmod_Torsional_Energy-OPLS-2005>
391.878753662109

> <r_mmod_Improper_Torsional_Energy-OPLS-2005>
4.27464866638184

> <r_mmod_Van_der_Waal_Energy-OPLS-2005>
96.6061782836914

> <r_mmod_Electrostatic_Energy-OPLS-2005>
-194.222106933594

> <r_mmod_Solvation_Energy-OPLS-2005>
-440.650390625

> <b_mmod_Minimization_Converged-OPLS-2005>
0

> <r_mmod_RMS_Derivative-OPLS-2005>
1.03757381439209

$$$$
88
                    3D
 Structure written by MMmdl.
161169  0  0  1  0            999 V2000
  -30.6978  -14.5169   20.4607 C   0  0  0  0  0  0
  -30.4176  -12.3088   19.4271 C   0  0  0  0  0  0
  -29.4899  -12.4753   18.2065 C   0  0  0  0  0  0
  -28.0119  -12.3375   18.6228 C   0  0  0  0  0  0
  -27.6487  -13.1945   19.8651 C   0  0  2  0  0  0
  -28.7063  -13.0577   20.9852 C   0  0  0  0  0  0
  -25.2568  -13.8106   20.5719 C   0  0  0  0  0  0
  -24.1818  -13.0407   20.9201 C   0  0  0  0  0  0
  -24.6358  -11.6866   20.8761 C   0  0  0  0  0  0
  -23.9018  -10.4265   21.0415 C   0  0  0  0  0  0
  -24.3583   -9.4181   21.9186 C   0  0  0  0  0  0
  -23.6268   -8.2216   22.0743 C   0  0  0  0  0  0
  -22.4253   -8.0258   21.3535 C   0  0  0  0  0  0
  -21.9883   -9.0228   20.4633 C   0  0  0  0  0  0
  -22.7201  -10.2107   20.3050 C   0  0  0  0  0  0
  -21.6851   -6.0709   22.5267 C   0  0  0  0  0  0
  -21.4019   -6.5617   23.8200 C   0  0  0  0  0  0
  -21.3667   -5.6777   24.9165 C   0  0  0  0  0  0
  -21.6053   -4.3038   24.7221 C   0  0  0  0  0  0
  -21.8824   -3.8122   23.4345 C   0  0  0  0  0  0
  -21.9192   -4.6938   22.3396 C   0  0  0  0  0  0
  -22.7841  -13.5219   21.1843 C   0  0  0  0  0  0
  -22.1658   -4.2121   21.0973 F   0  0  0  0  0  0
  -21.5635   -3.4525   25.7735 F   0  0  0  0  0  0
  -30.0254  -13.3353   20.3997 N   0  0  0  0  0  0
  -26.2973  -12.9232   20.3395 N   0  0  0  0  0  0
  -25.9281  -11.6413   20.5809 N   0  0  0  0  0  0
  -22.0470  -12.8229   22.0406 N   0  0  0  0  0  0
  -25.4311  -15.1829   20.4130 N   0  0  0  0  0  0
  -31.8987  -14.6201   20.1980 O   0  0  0  0  0  0
  -21.6633   -6.8849   21.4226 O   0  0  0  0  0  0
  -22.3538  -14.5522   20.6668 O   0  0  0  0  0  0
  -24.6165  -31.8673   23.2123 C   0  0  0  0  0  0
  -25.9060  -32.4819   23.8412 C   0  0  1  0  0  0
  -27.2268  -27.4169   20.0955 C   0  0  0  0  0  0
  -25.5914  -33.8621   24.2345 N   0  0  0  0  0  0
  -23.4040  -30.4949   21.5522 C   0  0  2  0  0  0
  -24.8494  -28.9674   20.1098 C   0  0  0  0  0  0
  -22.7410  -29.4657   22.4970 C   0  0  0  0  0  0
  -18.0276  -28.1377   22.8491 C   0  0  0  0  0  0
  -24.1481  -36.7307   23.2644 C   0  0  0  0  0  0
  -25.9366  -30.8276   21.3703 C   0  0  0  0  0  0
  -26.0121  -29.4644   20.7114 C   0  0  0  0  0  0
  -27.2029  -28.6971   20.7029 C   0  0  0  0  0  0
  -26.0441  -26.9541   19.4686 C   0  0  0  0  0  0
  -24.8622  -27.7122   19.4849 C   0  0  0  0  0  0
  -23.6130  -29.8357   20.1639 C   0  0  0  0  0  0
  -25.4102  -36.3110   24.0340 C   0  0  1  0  0  0
  -20.5866  -28.3658   23.1311 C   0  0  2  0  0  0
  -20.6768  -26.9393   22.5418 C   0  0  0  0  0  0
  -19.5748  -26.6383   21.5213 C   0  0  0  0  0  0
  -18.1922  -26.7923   22.1621 C   0  0  0  0  0  0
  -19.1526  -28.8832   23.2898 C   0  0  0  0  0  0
  -18.9461  -30.1440   23.8907 C   0  0  0  0  0  0
  -17.6465  -30.6582   24.0562 C   0  0  0  0  0  0
  -25.9039  -34.9473   23.5136 C   0  0  0  0  0  0
  -16.5352  -29.9084   23.6339 C   0  0  0  0  0  0
  -16.7266  -28.6505   23.0352 C   0  0  0  0  0  0
  -26.4484  -31.6602   25.0743 C   0  0  0  0  0  0
  -25.3752  -31.3712   26.1494 C   0  0  0  0  0  0
  -27.0337  -30.3054   24.6134 C   0  0  0  0  0  0
  -27.6061  -32.4317   25.7498 C   0  0  0  0  0  0
  -27.5570  -37.1807   24.8467 C   0  0  0  0  0  0
  -21.4137  -29.3026   22.3713 N   0  0  0  0  0  0
  -26.4286  -37.3795   23.9408 N   0  0  0  0  0  0
  -24.6707  -31.0766   22.1033 N   0  0  0  0  0  0
  -23.4185  -28.8190   23.3004 O   0  0  0  0  0  0
  -28.3784  -26.6447   20.1425 O   0  0  0  0  0  0
  -26.5583  -34.8910   22.4688 O   0  0  0  0  0  0
  -23.5352  -32.1425   23.7509 O   0  0  0  0  0  0
  -29.7860  -17.7124   19.1823 C   0  0  0  0  0  0
  -29.5745  -16.1975   19.1298 C   0  0  0  0  0  0
  -30.2284  -16.7928   21.3192 C   0  0  0  0  0  0
  -29.5675  -18.0186   20.6513 C   0  0  1  0  0  0
  -29.5697  -22.0231   22.6415 C   0  0  0  0  0  0
  -29.3040  -24.3245   20.5758 C   0  0  0  0  0  0
  -29.2464  -20.5028   20.5972 C   0  0  0  0  0  0
  -28.1969  -25.2229   19.9740 C   0  0  0  0  0  0
  -29.7090  -21.9027   21.1110 C   0  0  1  0  0  0
  -29.9206  -15.6318   20.4548 N   0  0  0  0  0  0
  -28.8699  -22.9218   20.4664 N   0  0  0  0  0  0
  -30.0582  -19.3566   21.0898 N   0  3  0  0  0  0
  -31.4634  -12.3961   19.1260 H   0  0  0  0  0  0
  -30.3121  -11.3155   19.8650 H   0  0  0  0  0  0
  -29.7337  -11.7330   17.4464 H   0  0  0  0  0  0
  -29.6519  -13.4478   17.7396 H   0  0  0  0  0  0
  -27.8264  -11.2831   18.8322 H   0  0  0  0  0  0
  -27.3614  -12.5969   17.7859 H   0  0  0  0  0  0
  -27.6461  -14.2234   19.5296 H   0  0  0  0  0  0
  -28.6943  -12.0505   21.4045 H   0  0  0  0  0  0
  -28.4894  -13.7395   21.8092 H   0  0  0  0  0  0
  -25.2725   -9.5668   22.4764 H   0  0  0  0  0  0
  -23.9984   -7.4606   22.7462 H   0  0  0  0  0  0
  -21.0813   -8.8735   19.8937 H   0  0  0  0  0  0
  -22.3656  -10.9646   19.6158 H   0  0  0  0  0  0
  -21.2014   -7.6123   23.9696 H   0  0  0  0  0  0
  -21.1494   -6.0502   25.9069 H   0  0  0  0  0  0
  -22.0604   -2.7580   23.2848 H   0  0  0  0  0  0
  -22.4072  -11.9899   22.4825 H   0  0  0  0  0  0
  -21.1077  -13.1243   22.2571 H   0  0  0  0  0  0
  -24.6700  -15.8433   20.5309 H   0  0  0  0  0  0
  -26.2949  -15.6218   20.1223 H   0  0  0  0  0  0
  -26.7122  -32.5523   23.1163 H   0  0  0  0  0  0
  -25.0089  -33.9786   25.0509 H   0  0  0  0  0  0
  -22.6932  -31.3126   21.4167 H   0  0  0  0  0  0
  -23.3737  -35.9646   23.3329 H   0  0  0  0  0  0
  -24.3592  -36.8899   22.2057 H   0  0  0  0  0  0
  -23.7220  -37.6513   23.6644 H   0  0  0  0  0  0
  -26.0550  -31.5961   20.6053 H   0  0  0  0  0  0
  -26.8233  -30.8745   21.9915 H   0  0  0  0  0  0
  -28.0946  -29.0719   21.1857 H   0  0  0  0  0  0
  -26.0054  -26.0010   18.9601 H   0  0  0  0  0  0
  -23.9717  -27.3251   19.0099 H   0  0  0  0  0  0
  -23.7221  -30.6158   19.4104 H   0  0  0  0  0  0
  -22.7352  -29.2610   19.8638 H   0  0  0  0  0  0
  -25.1274  -36.1988   25.0831 H   0  0  0  0  0  0
  -20.9966  -28.3228   24.1425 H   0  0  0  0  0  0
  -20.5685  -26.2257   23.3601 H   0  0  0  0  0  0
  -21.6635  -26.7442   22.1197 H   0  0  0  0  0  0
  -19.6914  -25.6302   21.1222 H   0  0  0  0  0  0
  -19.6698  -27.3206   20.6754 H   0  0  0  0  0  0
  -17.4198  -26.6678   21.4016 H   0  0  0  0  0  0
  -18.0318  -26.0059   22.9013 H   0  0  0  0  0  0
  -19.7942  -30.7247   24.2279 H   0  0  0  0  0  0
  -17.5028  -31.6269   24.5151 H   0  0  0  0  0  0
  -15.5355  -30.2989   23.7667 H   0  0  0  0  0  0
  -15.8663  -28.0831   22.7060 H   0  0  0  0  0  0
  -24.5923  -30.7053   25.7844 H   0  0  0  0  0  0
  -24.8941  -32.2869   26.4950 H   0  0  0  0  0  0
  -25.8113  -30.8887   27.0252 H   0  0  0  0  0  0
  -26.2904  -29.6781   24.1201 H   0  0  0  0  0  0
  -27.4135  -29.7319   25.4600 H   0  0  0  0  0  0
  -27.8715  -30.4391   23.9282 H   0  0  0  0  0  0
  -27.2701  -33.3614   26.2097 H   0  0  0  0  0  0
  -28.3864  -32.6877   25.0319 H   0  0  0  0  0  0
  -28.0732  -31.8422   26.5400 H   0  0  0  0  0  0
  -28.2600  -38.0092   24.7512 H   0  0  0  0  0  0
  -28.1050  -36.2627   24.6303 H   0  0  0  0  0  0
  -27.2293  -37.1461   25.8871 H   0  0  0  0  0  0
  -20.9291  -29.8775   21.6960 H   0  0  0  0  0  0
  -26.0180  -38.2872   24.1427 H   0  0  0  0  0  0
  -29.1034  -18.2506   18.5223 H   0  0  0  0  0  0
  -30.8076  -17.9554   18.8866 H   0  0  0  0  0  0
  -30.1517  -15.7628   18.3103 H   0  0  0  0  0  0
  -28.5261  -16.0118   18.9086 H   0  0  0  0  0  0
  -29.8524  -16.6376   22.3315 H   0  0  0  0  0  0
  -31.3097  -16.9305   21.3854 H   0  0  0  0  0  0
  -28.4974  -17.9662   20.8603 H   0  0  0  0  0  0
  -30.1719  -21.2729   23.1551 H   0  0  0  0  0  0
  -28.5371  -21.8905   22.9673 H   0  0  0  0  0  0
  -29.9112  -22.9880   23.0130 H   0  0  0  0  0  0
  -29.4532  -24.6040   21.6192 H   0  0  0  0  0  0
  -30.2532  -24.4753   20.0581 H   0  0  0  0  0  0
  -29.2748  -20.4977   19.5065 H   0  0  0  0  0  0
  -28.2041  -20.3365   20.8762 H   0  0  0  0  0  0
  -27.2680  -24.9166   20.4595 H   0  0  0  0  0  0
  -28.0923  -25.0070   18.9093 H   0  0  0  0  0  0
  -30.7487  -22.0685   20.8207 H   0  0  0  0  0  0
  -27.9223  -22.8469   20.8254 H   0  0  0  0  0  0
  -31.0132  -19.4844   20.7954 H   0  0  0  0  0  0
  -30.0422  -19.3811   22.0960 H   0  0  0  0  0  0
  1 25  1  0  0  0
  1 30  2  0  0  0
  1 80  1  0  0  0
  2  3  1  0  0  0
  2 25  1  0  0  0
  2 83  1  0  0  0
  2 84  1  0  0  0
  3  4  1  0  0  0
  3 85  1  0  0  0
  3 86  1  0  0  0
  4  5  1  0  0  0
  4 87  1  0  0  0
  4 88  1  0  0  0
  5  6  1  0  0  0
  5 26  1  0  0  0
  5 89  1  0  0  0
  6 25  1  0  0  0
  6 90  1  0  0  0
  6 91  1  0  0  0
  7  8  2  0  0  0
  7 26  1  0  0  0
  7 29  1  0  0  0
  8  9  1  0  0  0
  8 22  1  0  0  0
  9 10  1  0  0  0
  9 27  2  0  0  0
 10 11  2  0  0  0
 10 15  1  0  0  0
 11 12  1  0  0  0
 11 92  1  0  0  0
 12 13  2  0  0  0
 12 93  1  0  0  0
 13 14  1  0  0  0
 13 31  1  0  0  0
 14 15  2  0  0  0
 14 94  1  0  0  0
 15 95  1  0  0  0
 16 17  2  0  0  0
 16 21  1  0  0  0
 16 31  1  0  0  0
 17 18  1  0  0  0
 17 96  1  0  0  0
 18 19  2  0  0  0
 18 97  1  0  0  0
 19 20  1  0  0  0
 19 24  1  0  0  0
 20 21  2  0  0  0
 20 98  1  0  0  0
 21 23  1  0  0  0
 22 28  1  0  0  0
 22 32  2  0  0  0
 26 27  1  0  0  0
 28 99  1  0  0  0
 28100  1  0  0  0
 29101  1  0  0  0
 29102  1  0  0  0
 33 34  1  0  0  0
 33 66  1  0  0  0
 33 70  2  0  0  0
 34 36  1  0  0  0
 34 59  1  0  0  0
 34103  1  0  0  0
 35 44  2  0  0  0
 35 45  1  0  0  0
 35 68  1  0  0  0
 36 56  1  0  0  0
 36104  1  0  0  0
 37 39  1  0  0  0
 37 47  1  0  0  0
 37 66  1  0  0  0
 37105  1  0  0  0
 38 43  2  0  0  0
 38 46  1  0  0  0
 38 47  1  0  0  0
 39 64  1  0  0  0
 39 67  2  0  0  0
 40 52  1  0  0  0
 40 53  2  0  0  0
 40 58  1  0  0  0
 41106  1  0  0  0
 41107  1  0  0  0
 41108  1  0  0  0
 41 48  1  0  0  0
 42 43  1  0  0  0
 42 66  1  0  0  0
 42109  1  0  0  0
 42110  1  0  0  0
 43 44  1  0  0  0
 44111  1  0  0  0
 45 46  2  0  0  0
 45112  1  0  0  0
 46113  1  0  0  0
 47114  1  0  0  0
 47115  1  0  0  0
 48 56  1  0  0  0
 48 65  1  0  0  0
 48116  1  0  0  0
 49 50  1  0  0  0
 49 53  1  0  0  0
 49 64  1  0  0  0
 49117  1  0  0  0
 50 51  1  0  0  0
 50118  1  0  0  0
 50119  1  0  0  0
 51 52  1  0  0  0
 51120  1  0  0  0
 51121  1  0  0  0
 52122  1  0  0  0
 52123  1  0  0  0
 53 54  1  0  0  0
 54 55  2  0  0  0
 54124  1  0  0  0
 55 57  1  0  0  0
 55125  1  0  0  0
 56 69  2  0  0  0
 57 58  2  0  0  0
 57126  1  0  0  0
 58127  1  0  0  0
 59 60  1  0  0  0
 59 61  1  0  0  0
 59 62  1  0  0  0
 60128  1  0  0  0
 60129  1  0  0  0
 60130  1  0  0  0
 61131  1  0  0  0
 61132  1  0  0  0
 61133  1  0  0  0
 62134  1  0  0  0
 62135  1  0  0  0
 62136  1  0  0  0
 63 65  1  0  0  0
 63137  1  0  0  0
 63138  1  0  0  0
 63139  1  0  0  0
 64140  1  0  0  0
 65141  1  0  0  0
 68 78  1  0  0  0
 71 72  1  0  0  0
 71 74  1  0  0  0
 71142  1  0  0  0
 71143  1  0  0  0
 72 80  1  0  0  0
 72144  1  0  0  0
 72145  1  0  0  0
 73 74  1  0  0  0
 73 80  1  0  0  0
 73146  1  0  0  0
 73147  1  0  0  0
 74 82  1  0  0  0
 74148  1  0  0  0
 75149  1  0  0  0
 75150  1  0  0  0
 75151  1  0  0  0
 75 79  1  0  0  0
 76 78  1  0  0  0
 76 81  1  0  0  0
 76152  1  0  0  0
 76153  1  0  0  0
 77 79  1  0  0  0
 77 82  1  0  0  0
 77154  1  0  0  0
 77155  1  0  0  0
 78156  1  0  0  0
 78157  1  0  0  0
 79 81  1  0  0  0
 79158  1  0  0  0
 81159  1  0  0  0
 82160  1  0  0  0
 82161  1  0  0  0
M  CHG  1  82   1
M  ISO  4   1 100  68 101  78 101  80 100
M  END
> <chiral flag>
0

> <version>
0

> <s_m_source_file>
/data/baiqing/PycharmProjects/Reinvent-master-3.2/result/LINK_invent/BTK/process_docking_weight1_custom_sum_contain_oxygen_bond_distance_aromatic_linkinvent_7_9_3/rearranged_h_0190.sdf

> <i_m_source_file_index>
89

> <r_mmod_Potential_Energy-OPLS-2005>
32.7781448364258

> <r_mmod_Stretch_Energy-OPLS-2005>
40.5576782226562

> <r_mmod_Bend_Energy-OPLS-2005>
132.670028686523

> <r_mmod_Torsional_Energy-OPLS-2005>
345.525970458984

> <r_mmod_Improper_Torsional_Energy-OPLS-2005>
14.1413116455078

> <r_mmod_Van_der_Waal_Energy-OPLS-2005>
136.105316162109

> <r_mmod_Electrostatic_Energy-OPLS-2005>
-202.263870239258

> <r_mmod_Solvation_Energy-OPLS-2005>
-459.985107421875

> <b_mmod_Minimization_Converged-OPLS-2005>
0

> <r_mmod_RMS_Derivative-OPLS-2005>
1.97646880149841

$$$$
89
                    3D
 Structure written by MMmdl.
150159  0  0  1  0            999 V2000
  -30.6392  -14.9044   20.4160 C   0  0  0  0  0  0
  -30.4194  -12.5716   19.4914 C   0  0  0  0  0  0
  -29.5075  -12.5088   18.2481 C   0  0  0  0  0  0
  -28.0464  -12.2951   18.6795 C   0  0  0  0  0  0
  -27.6243  -13.2529   19.8255 C   0  0  2  0  0  0
  -28.6700  -13.3249   20.9584 C   0  0  0  0  0  0
  -25.2449  -13.8228   20.5735 C   0  0  0  0  0  0
  -24.1756  -13.0445   20.9239 C   0  0  0  0  0  0
  -24.6380  -11.6941   20.8766 C   0  0  0  0  0  0
  -23.9072  -10.4302   21.0413 C   0  0  0  0  0  0
  -24.3629   -9.4209   21.9187 C   0  0  0  0  0  0
  -23.6301   -8.2237   22.0750 C   0  0  0  0  0  0
  -22.4283   -8.0284   21.3536 C   0  0  0  0  0  0
  -21.9924   -9.0267   20.4645 C   0  0  0  0  0  0
  -22.7250  -10.2144   20.3059 C   0  0  0  0  0  0
  -21.6854   -6.0735   22.5278 C   0  0  0  0  0  0
  -21.4024   -6.5640   23.8212 C   0  0  0  0  0  0
  -21.3661   -5.6790   24.9172 C   0  0  0  0  0  0
  -21.6044   -4.3050   24.7226 C   0  0  0  0  0  0
  -21.8816   -3.8143   23.4346 C   0  0  0  0  0  0
  -21.9194   -4.6961   22.3404 C   0  0  0  0  0  0
  -22.7765  -13.5211   21.1874 C   0  0  0  0  0  0
  -22.1651   -4.2147   21.0979 F   0  0  0  0  0  0
  -21.5630   -3.4536   25.7735 F   0  0  0  0  0  0
  -29.9445  -13.7019   20.3396 N   0  0  0  0  0  0
  -26.2884  -12.9471   20.3248 N   0  0  0  0  0  0
  -25.9314  -11.6601   20.5750 N   0  0  0  0  0  0
  -22.0412  -12.8232   22.0439 N   0  0  0  0  0  0
  -25.4108  -15.1951   20.4159 N   0  0  0  0  0  0
  -31.8522  -14.8495   20.2036 O   0  0  0  0  0  0
  -21.6644   -6.8888   21.4238 O   0  0  0  0  0  0
  -22.3456  -14.5505   20.6693 O   0  0  0  0  0  0
  -24.6401  -31.8475   23.1909 C   0  0  0  0  0  0
  -25.9194  -32.4705   23.8278 C   0  0  1  0  0  0
  -27.2071  -27.1629   20.1466 C   0  0  0  0  0  0
  -25.5958  -33.8512   24.2196 N   0  0  0  0  0  0
  -23.4402  -30.4685   21.5384 C   0  0  2  0  0  0
  -24.8872  -28.9013   20.1127 C   0  0  0  0  0  0
  -22.7544  -29.4566   22.4893 C   0  0  0  0  0  0
  -18.0292  -28.1390   22.8479 C   0  0  0  0  0  0
  -24.1491  -36.7266   23.2641 C   0  0  0  0  0  0
  -25.9944  -30.7289   21.3860 C   0  0  0  0  0  0
  -26.0655  -29.3421   20.7298 C   0  0  0  0  0  0
  -27.2296  -28.4890   20.7306 C   0  0  0  0  0  0
  -26.0087  -26.8223   19.4840 C   0  0  0  0  0  0
  -24.8702  -27.6525   19.4736 C   0  0  0  0  0  0
  -23.6635  -29.8011   20.1563 C   0  0  0  0  0  0
  -25.4122  -36.3041   24.0310 C   0  0  1  0  0  0
  -20.5903  -28.3705   23.1257 C   0  0  2  0  0  0
  -20.6781  -26.9418   22.5405 C   0  0  0  0  0  0
  -19.5750  -26.6373   21.5218 C   0  0  0  0  0  0
  -18.1935  -26.7923   22.1634 C   0  0  0  0  0  0
  -19.1548  -28.8864   23.2855 C   0  0  0  0  0  0
  -18.9471  -30.1473   23.8866 C   0  0  0  0  0  0
  -17.6470  -30.6586   24.0557 C   0  0  0  0  0  0
  -25.9078  -34.9415   23.5061 C   0  0  0  0  0  0
  -16.5359  -29.9081   23.6339 C   0  0  0  0  0  0
  -16.7285  -28.6501   23.0352 C   0  0  0  0  0  0
  -26.4525  -31.6567   25.0706 C   0  0  0  0  0  0
  -25.3714  -31.3758   26.1401 C   0  0  0  0  0  0
  -27.0392  -30.2970   24.6259 C   0  0  0  0  0  0
  -27.6064  -32.4322   25.7492 C   0  0  0  0  0  0
  -27.5572  -37.1789   24.8462 C   0  0  0  0  0  0
  -21.4236  -29.3040   22.3633 N   0  0  0  0  0  0
  -26.4293  -37.3752   23.9405 N   0  0  0  0  0  0
  -24.7116  -31.0352   22.0939 N   0  0  0  0  0  0
  -23.4213  -28.8108   23.3024 O   0  0  0  0  0  0
  -28.2588  -26.1848   20.1645 O   0  0  0  0  0  0
  -26.5662  -34.8907   22.4635 O   0  0  0  0  0  0
  -23.5530  -32.1352   23.7149 O   0  0  0  0  0  0
  -30.1986  -22.4200   18.6646 C   0  0  0  0  0  0
  -28.7503  -23.3746   20.0772 C   0  0  0  0  0  0
  -29.1990  -21.0433   20.1011 C   0  0  0  0  0  0
  -30.7415  -17.5427   20.7119 C   0  0  0  0  0  0
  -28.7623  -16.9423   20.4692 C   0  0  0  0  0  0
  -29.5167  -18.2905   20.0719 C   0  0  0  0  0  0
  -27.9389  -24.7184   20.5515 C   0  0  0  0  0  0
  -29.6078  -23.5432   19.0765 N   0  0  0  0  0  0
  -30.0522  -21.1682   19.1055 N   0  0  0  0  0  0
  -28.5180  -22.1180   20.6292 N   0  0  0  0  0  0
  -30.0658  -16.2009   20.5661 N   0  0  0  0  0  0
  -29.0458  -19.6766   20.6058 N   0  0  0  0  0  0
  -31.4566  -12.6860   19.1755 H   0  0  0  0  0  0
  -30.3848  -11.6339   20.0482 H   0  0  0  0  0  0
  -29.8276  -11.7007   17.5886 H   0  0  0  0  0  0
  -29.5951  -13.4311   17.6712 H   0  0  0  0  0  0
  -27.9602  -11.2627   19.0200 H   0  0  0  0  0  0
  -27.3761  -12.3915   17.8256 H   0  0  0  0  0  0
  -27.5753  -14.2426   19.3705 H   0  0  0  0  0  0
  -28.7512  -12.3715   21.4819 H   0  0  0  0  0  0
  -28.3767  -14.0685   21.7019 H   0  0  0  0  0  0
  -25.2778   -9.5680   22.4760 H   0  0  0  0  0  0
  -24.0007   -7.4634   22.7478 H   0  0  0  0  0  0
  -21.0849   -8.8795   19.8965 H   0  0  0  0  0  0
  -22.3709  -10.9687   19.6170 H   0  0  0  0  0  0
  -21.2018   -7.6147   23.9718 H   0  0  0  0  0  0
  -21.1484   -6.0516   25.9078 H   0  0  0  0  0  0
  -22.0593   -2.7605   23.2841 H   0  0  0  0  0  0
  -22.4034  -11.9932   22.4898 H   0  0  0  0  0  0
  -21.1017  -13.1249   22.2611 H   0  0  0  0  0  0
  -24.6453  -15.8503   20.5374 H   0  0  0  0  0  0
  -26.2664  -15.6370   20.1073 H   0  0  0  0  0  0
  -26.7252  -32.5313   23.1008 H   0  0  0  0  0  0
  -25.0081  -33.9625   25.0320 H   0  0  0  0  0  0
  -22.7397  -31.2933   21.3901 H   0  0  0  0  0  0
  -23.3755  -35.9600   23.3299 H   0  0  0  0  0  0
  -24.3586  -36.8899   22.2058 H   0  0  0  0  0  0
  -23.7249  -37.6457   23.6687 H   0  0  0  0  0  0
  -26.1427  -31.4826   20.6118 H   0  0  0  0  0  0
  -26.8673  -30.7821   22.0247 H   0  0  0  0  0  0
  -28.1281  -28.8241   21.2298 H   0  0  0  0  0  0
  -25.9297  -25.8757   18.9681 H   0  0  0  0  0  0
  -23.9748  -27.3125   18.9712 H   0  0  0  0  0  0
  -23.7977  -30.5785   19.4029 H   0  0  0  0  0  0
  -22.7758  -29.2454   19.8468 H   0  0  0  0  0  0
  -25.1315  -36.1874   25.0808 H   0  0  0  0  0  0
  -20.9996  -28.3291   24.1380 H   0  0  0  0  0  0
  -20.5692  -26.2320   23.3618 H   0  0  0  0  0  0
  -21.6648  -26.7433   22.1198 H   0  0  0  0  0  0
  -19.6917  -25.6280   21.1257 H   0  0  0  0  0  0
  -19.6686  -27.3173   20.6739 H   0  0  0  0  0  0
  -17.4206  -26.6661   21.4041 H   0  0  0  0  0  0
  -18.0344  -26.0073   22.9040 H   0  0  0  0  0  0
  -19.7952  -30.7293   24.2217 H   0  0  0  0  0  0
  -17.5025  -31.6265   24.5161 H   0  0  0  0  0  0
  -15.5358  -30.2970   23.7674 H   0  0  0  0  0  0
  -15.8689  -28.0811   22.7077 H   0  0  0  0  0  0
  -24.5841  -30.7180   25.7702 H   0  0  0  0  0  0
  -24.8962  -32.2950   26.4835 H   0  0  0  0  0  0
  -25.7968  -30.8884   27.0178 H   0  0  0  0  0  0
  -26.3005  -29.6685   24.1265 H   0  0  0  0  0  0
  -27.4033  -29.7270   25.4816 H   0  0  0  0  0  0
  -27.8901  -30.4222   23.9559 H   0  0  0  0  0  0
  -27.2663  -33.3627   26.2049 H   0  0  0  0  0  0
  -28.3889  -32.6868   25.0334 H   0  0  0  0  0  0
  -28.0724  -31.8458   26.5419 H   0  0  0  0  0  0
  -28.2589  -38.0085   24.7509 H   0  0  0  0  0  0
  -28.1070  -36.2614   24.6302 H   0  0  0  0  0  0
  -27.2290  -37.1449   25.8865 H   0  0  0  0  0  0
  -20.9446  -29.8775   21.6832 H   0  0  0  0  0  0
  -26.0153  -38.2823   24.1407 H   0  0  0  0  0  0
  -30.8934  -22.5416   17.8462 H   0  0  0  0  0  0
  -30.9260  -17.8195   21.7521 H   0  0  0  0  0  0
  -31.6583  -17.6536   20.1292 H   0  0  0  0  0  0
  -28.0934  -16.5860   19.6862 H   0  0  0  0  0  0
  -28.2401  -17.0021   21.4251 H   0  0  0  0  0  0
  -29.6384  -18.3432   18.9885 H   0  0  0  0  0  0
  -27.9975  -24.7074   21.6397 H   0  0  0  0  0  0
  -26.8927  -24.5003   20.3441 H   0  0  0  0  0  0
  -28.3914  -19.6249   21.3756 H   0  0  0  0  0  0
  1 25  1  0  0  0
  1 30  2  0  0  0
  1 81  1  0  0  0
  2  3  1  0  0  0
  2 25  1  0  0  0
  2 83  1  0  0  0
  2 84  1  0  0  0
  3  4  1  0  0  0
  3 85  1  0  0  0
  3 86  1  0  0  0
  4  5  1  0  0  0
  4 87  1  0  0  0
  4 88  1  0  0  0
  5  6  1  0  0  0
  5 26  1  0  0  0
  5 89  1  0  0  0
  6 25  1  0  0  0
  6 90  1  0  0  0
  6 91  1  0  0  0
  7  8  2  0  0  0
  7 26  1  0  0  0
  7 29  1  0  0  0
  8  9  1  0  0  0
  8 22  1  0  0  0
  9 10  1  0  0  0
  9 27  2  0  0  0
 10 11  2  0  0  0
 10 15  1  0  0  0
 11 12  1  0  0  0
 11 92  1  0  0  0
 12 13  2  0  0  0
 12 93  1  0  0  0
 13 14  1  0  0  0
 13 31  1  0  0  0
 14 15  2  0  0  0
 14 94  1  0  0  0
 15 95  1  0  0  0
 16 17  2  0  0  0
 16 21  1  0  0  0
 16 31  1  0  0  0
 17 18  1  0  0  0
 17 96  1  0  0  0
 18 19  2  0  0  0
 18 97  1  0  0  0
 19 20  1  0  0  0
 19 24  1  0  0  0
 20 21  2  0  0  0
 20 98  1  0  0  0
 21 23  1  0  0  0
 22 28  1  0  0  0
 22 32  2  0  0  0
 26 27  1  0  0  0
 28 99  1  0  0  0
 28100  1  0  0  0
 29101  1  0  0  0
 29102  1  0  0  0
 33 34  1  0  0  0
 33 66  1  0  0  0
 33 70  2  0  0  0
 34 36  1  0  0  0
 34 59  1  0  0  0
 34103  1  0  0  0
 35 44  2  0  0  0
 35 45  1  0  0  0
 35 68  1  0  0  0
 36 56  1  0  0  0
 36104  1  0  0  0
 37 39  1  0  0  0
 37 47  1  0  0  0
 37 66  1  0  0  0
 37105  1  0  0  0
 38 43  2  0  0  0
 38 46  1  0  0  0
 38 47  1  0  0  0
 39 64  1  0  0  0
 39 67  2  0  0  0
 40 52  1  0  0  0
 40 53  2  0  0  0
 40 58  1  0  0  0
 41106  1  0  0  0
 41107  1  0  0  0
 41108  1  0  0  0
 41 48  1  0  0  0
 42 43  1  0  0  0
 42 66  1  0  0  0
 42109  1  0  0  0
 42110  1  0  0  0
 43 44  1  0  0  0
 44111  1  0  0  0
 45 46  2  0  0  0
 45112  1  0  0  0
 46113  1  0  0  0
 47114  1  0  0  0
 47115  1  0  0  0
 48 56  1  0  0  0
 48 65  1  0  0  0
 48116  1  0  0  0
 49 50  1  0  0  0
 49 53  1  0  0  0
 49 64  1  0  0  0
 49117  1  0  0  0
 50 51  1  0  0  0
 50118  1  0  0  0
 50119  1  0  0  0
 51 52  1  0  0  0
 51120  1  0  0  0
 51121  1  0  0  0
 52122  1  0  0  0
 52123  1  0  0  0
 53 54  1  0  0  0
 54 55  2  0  0  0
 54124  1  0  0  0
 55 57  1  0  0  0
 55125  1  0  0  0
 56 69  2  0  0  0
 57 58  2  0  0  0
 57126  1  0  0  0
 58127  1  0  0  0
 59 60  1  0  0  0
 59 61  1  0  0  0
 59 62  1  0  0  0
 60128  1  0  0  0
 60129  1  0  0  0
 60130  1  0  0  0
 61131  1  0  0  0
 61132  1  0  0  0
 61133  1  0  0  0
 62134  1  0  0  0
 62135  1  0  0  0
 62136  1  0  0  0
 63 65  1  0  0  0
 63137  1  0  0  0
 63138  1  0  0  0
 63139  1  0  0  0
 64140  1  0  0  0
 65141  1  0  0  0
 68 77  1  0  0  0
 71 78  2  0  0  0
 71 79  1  0  0  0
 71142  1  0  0  0
 72 77  1  0  0  0
 72 78  1  0  0  0
 72 80  2  0  0  0
 73 79  2  0  0  0
 73 80  1  0  0  0
 73 82  1  0  0  0
 74 76  1  0  0  0
 74 81  1  0  0  0
 74143  1  0  0  0
 74144  1  0  0  0
 75 76  1  0  0  0
 75 81  1  0  0  0
 75145  1  0  0  0
 75146  1  0  0  0
 76 82  1  0  0  0
 76147  1  0  0  0
 77148  1  0  0  0
 77149  1  0  0  0
 82150  1  0  0  0
M  ISO  4   1 100  68 101  77 101  81 100
M  END
> <chiral flag>
0

> <version>
0

> <s_m_source_file>
/data/baiqing/PycharmProjects/Reinvent-master-3.2/result/LINK_invent/BTK/process_docking_weight1_custom_sum_contain_oxygen_bond_distance_aromatic_linkinvent_7_9_3/rearranged_h_0190.sdf

> <i_m_source_file_index>
90

> <r_mmod_Potential_Energy-OPLS-2005>
-308.686584472656

> <r_mmod_Stretch_Energy-OPLS-2005>
187.616485595703

> <r_mmod_Bend_Energy-OPLS-2005>
266.170745849609

> <r_mmod_Torsional_Energy-OPLS-2005>
257.508056640625

> <r_mmod_Improper_Torsional_Energy-OPLS-2005>
3.51790046691895

> <r_mmod_Van_der_Waal_Energy-OPLS-2005>
147.151718139648

> <r_mmod_Electrostatic_Energy-OPLS-2005>
-1090.1015625

> <r_mmod_Solvation_Energy-OPLS-2005>
-251.847473144531

> <b_mmod_Minimization_Converged-OPLS-2005>
0

> <r_mmod_RMS_Derivative-OPLS-2005>
2.68266844749451

$$$$
90
                    3D
 Structure written by MMmdl.
162172  0  0  1  0            999 V2000
  -30.6064  -14.6851   20.4979 C   0  0  0  0  0  0
  -30.4351  -12.4248   19.4489 C   0  0  0  0  0  0
  -29.4993  -12.5018   18.2213 C   0  0  0  0  0  0
  -28.0287  -12.3182   18.6471 C   0  0  0  0  0  0
  -27.6488  -13.2061   19.8635 C   0  0  2  0  0  0
  -28.6982  -13.0505   20.9856 C   0  0  0  0  0  0
  -25.2559  -13.8145   20.5687 C   0  0  0  0  0  0
  -24.1823  -13.0430   20.9184 C   0  0  0  0  0  0
  -24.6378  -11.6886   20.8747 C   0  0  0  0  0  0
  -23.9063  -10.4273   21.0423 C   0  0  0  0  0  0
  -24.3613   -9.4183   21.9201 C   0  0  0  0  0  0
  -23.6282   -8.2225   22.0768 C   0  0  0  0  0  0
  -22.4275   -8.0276   21.3546 C   0  0  0  0  0  0
  -21.9912   -9.0248   20.4653 C   0  0  0  0  0  0
  -22.7242  -10.2116   20.3061 C   0  0  0  0  0  0
  -21.6853   -6.0749   22.5282 C   0  0  0  0  0  0
  -21.4007   -6.5651   23.8218 C   0  0  0  0  0  0
  -21.3650   -5.6798   24.9178 C   0  0  0  0  0  0
  -21.6040   -4.3066   24.7224 C   0  0  0  0  0  0
  -21.8818   -3.8161   23.4351 C   0  0  0  0  0  0
  -21.9184   -4.6976   22.3403 C   0  0  0  0  0  0
  -22.7853  -13.5237   21.1837 C   0  0  0  0  0  0
  -22.1661   -4.2165   21.0982 F   0  0  0  0  0  0
  -21.5622   -3.4541   25.7742 F   0  0  0  0  0  0
  -29.9865  -13.4580   20.4128 N   0  0  0  0  0  0
  -26.2970  -12.9298   20.3343 N   0  0  0  0  0  0
  -25.9300  -11.6473   20.5791 N   0  0  0  0  0  0
  -22.0501  -12.8208   22.0392 N   0  0  0  0  0  0
  -25.4305  -15.1856   20.4062 N   0  0  0  0  0  0
  -31.7782  -14.7896   20.1167 O   0  0  0  0  0  0
  -21.6633   -6.8879   21.4253 O   0  0  0  0  0  0
  -22.3537  -14.5554   20.6706 O   0  0  0  0  0  0
  -24.6278  -31.8576   23.2067 C   0  0  0  0  0  0
  -25.9130  -32.4773   23.8362 C   0  0  1  0  0  0
  -27.2369  -27.3241   20.1065 C   0  0  0  0  0  0
  -25.5968  -33.8571   24.2304 N   0  0  0  0  0  0
  -23.4203  -30.4786   21.5495 C   0  0  2  0  0  0
  -24.8691  -28.9286   20.1226 C   0  0  0  0  0  0
  -22.7454  -29.4594   22.4981 C   0  0  0  0  0  0
  -18.0267  -28.1371   22.8507 C   0  0  0  0  0  0
  -24.1485  -36.7248   23.2646 C   0  0  0  0  0  0
  -25.9607  -30.7872   21.3793 C   0  0  0  0  0  0
  -26.0364  -29.4128   20.7260 C   0  0  0  0  0  0
  -27.2214  -28.6198   20.7137 C   0  0  0  0  0  0
  -26.0472  -26.8908   19.4811 C   0  0  0  0  0  0
  -24.8728  -27.6710   19.4974 C   0  0  0  0  0  0
  -23.6385  -29.8120   20.1654 C   0  0  0  0  0  0
  -25.4115  -36.3060   24.0333 C   0  0  1  0  0  0
  -20.5871  -28.3656   23.1305 C   0  0  2  0  0  0
  -20.6770  -26.9381   22.5420 C   0  0  0  0  0  0
  -19.5739  -26.6367   21.5223 C   0  0  0  0  0  0
  -18.1911  -26.7916   22.1603 C   0  0  0  0  0  0
  -19.1529  -28.8819   23.2880 C   0  0  0  0  0  0
  -18.9454  -30.1449   23.8866 C   0  0  0  0  0  0
  -17.6457  -30.6591   24.0564 C   0  0  0  0  0  0
  -25.9052  -34.9433   23.5092 C   0  0  0  0  0  0
  -16.5343  -29.9077   23.6376 C   0  0  0  0  0  0
  -16.7268  -28.6500   23.0395 C   0  0  0  0  0  0
  -26.4560  -31.6603   25.0729 C   0  0  0  0  0  0
  -25.3802  -31.3715   26.1464 C   0  0  0  0  0  0
  -27.0472  -30.3055   24.6194 C   0  0  0  0  0  0
  -27.6161  -32.4349   25.7436 C   0  0  0  0  0  0
  -27.5557  -37.1765   24.8474 C   0  0  0  0  0  0
  -21.4167  -29.2996   22.3694 N   0  0  0  0  0  0
  -26.4283  -37.3756   23.9406 N   0  0  0  0  0  0
  -24.6874  -31.0577   22.1024 N   0  0  0  0  0  0
  -23.4166  -28.8106   23.3052 O   0  0  0  0  0  0
  -28.3963  -26.5334   20.0320 O   0  0  0  0  0  0
  -26.5567  -34.8901   22.4632 O   0  0  0  0  0  0
  -23.5458  -32.1339   23.7440 O   0  0  0  0  0  0
  -27.8018  -23.2301   21.2824 C   0  0  0  0  0  0
  -28.7099  -22.4126   20.5642 C   0  0  0  0  0  0
  -29.4064  -23.1305   19.5635 C   0  0  0  0  0  0
  -28.3664  -25.1464   20.1266 C   0  0  0  0  0  0
  -31.7953  -22.2209   19.3293 C   0  0  0  0  0  0
  -31.6619  -23.1198   18.1315 C   0  0  0  0  0  0
  -28.8726  -16.1756   21.6920 C   0  0  0  0  0  0
  -28.5669  -17.7055   21.6344 C   0  0  0  0  0  0
  -30.1319  -17.1721   20.0090 C   0  0  0  0  0  0
  -30.4333  -22.4538   18.7091 C   0  0  0  0  0  0
  -29.0137  -20.9254   21.0433 C   0  0  0  0  0  0
  -29.2259  -19.6457   20.0927 C   0  0  0  0  0  0
  -27.6370  -24.5659   21.0763 N   0  0  0  0  0  0
  -29.2303  -24.4683   19.3605 N   0  0  0  0  0  0
  -29.8278  -15.8362   20.6201 N   0  0  0  0  0  0
  -29.6047  -18.3390   20.8017 N   0  3  1  0  0  0
  -31.4735  -12.5575   19.1383 H   0  0  0  0  0  0
  -30.3923  -11.4304   19.8973 H   0  0  0  0  0  0
  -29.7723  -11.7407   17.4892 H   0  0  0  0  0  0
  -29.6177  -13.4646   17.7205 H   0  0  0  0  0  0
  -27.8994  -11.2682   18.9144 H   0  0  0  0  0  0
  -27.3569  -12.5022   17.8075 H   0  0  0  0  0  0
  -27.6680  -14.2382   19.5150 H   0  0  0  0  0  0
  -28.7397  -12.0077   21.3035 H   0  0  0  0  0  0
  -28.4499  -13.5966   21.8914 H   0  0  0  0  0  0
  -25.2764   -9.5661   22.4766 H   0  0  0  0  0  0
  -24.0002   -7.4620   22.7483 H   0  0  0  0  0  0
  -21.0849   -8.8753   19.8951 H   0  0  0  0  0  0
  -22.3721  -10.9649   19.6153 H   0  0  0  0  0  0
  -21.2006   -7.6155   23.9724 H   0  0  0  0  0  0
  -21.1474   -6.0533   25.9077 H   0  0  0  0  0  0
  -22.0602   -2.7624   23.2843 H   0  0  0  0  0  0
  -22.4127  -11.9838   22.4717 H   0  0  0  0  0  0
  -21.1127  -13.1232   22.2637 H   0  0  0  0  0  0
  -24.6630  -15.8414   20.5027 H   0  0  0  0  0  0
  -26.2746  -15.6118   20.0514 H   0  0  0  0  0  0
  -26.7175  -32.5451   23.1089 H   0  0  0  0  0  0
  -25.0319  -33.9753   25.0582 H   0  0  0  0  0  0
  -22.7176  -31.3018   21.4057 H   0  0  0  0  0  0
  -23.3806  -35.9524   23.3287 H   0  0  0  0  0  0
  -24.3582  -36.8900   22.2068 H   0  0  0  0  0  0
  -23.7176  -37.6407   23.6699 H   0  0  0  0  0  0
  -26.0894  -31.5542   20.6165 H   0  0  0  0  0  0
  -26.8403  -30.8355   22.0084 H   0  0  0  0  0  0
  -28.1267  -29.0010   21.1710 H   0  0  0  0  0  0
  -26.0177  -25.9373   18.9741 H   0  0  0  0  0  0
  -23.9780  -27.2961   19.0220 H   0  0  0  0  0  0
  -23.7626  -30.5891   19.4107 H   0  0  0  0  0  0
  -22.7615  -29.2413   19.8594 H   0  0  0  0  0  0
  -25.1311  -36.1904   25.0830 H   0  0  0  0  0  0
  -20.9945  -28.3208   24.1419 H   0  0  0  0  0  0
  -20.5727  -26.2228   23.3595 H   0  0  0  0  0  0
  -21.6626  -26.7448   22.1151 H   0  0  0  0  0  0
  -19.6898  -25.6277   21.1247 H   0  0  0  0  0  0
  -19.6712  -27.3202   20.6773 H   0  0  0  0  0  0
  -17.4205  -26.6744   21.3967 H   0  0  0  0  0  0
  -18.0257  -26.0028   22.8949 H   0  0  0  0  0  0
  -19.7921  -30.7309   24.2170 H   0  0  0  0  0  0
  -17.5007  -31.6277   24.5145 H   0  0  0  0  0  0
  -15.5344  -30.2972   23.7735 H   0  0  0  0  0  0
  -15.8646  -28.0829   22.7124 H   0  0  0  0  0  0
  -24.6111  -30.6884   25.7818 H   0  0  0  0  0  0
  -24.8831  -32.2852   26.4746 H   0  0  0  0  0  0
  -25.8159  -30.9056   27.0309 H   0  0  0  0  0  0
  -26.3042  -29.6691   24.1379 H   0  0  0  0  0  0
  -27.4389  -29.7439   25.4682 H   0  0  0  0  0  0
  -27.8789  -30.4407   23.9276 H   0  0  0  0  0  0
  -27.2908  -33.3827   26.1733 H   0  0  0  0  0  0
  -28.4073  -32.6583   25.0263 H   0  0  0  0  0  0
  -28.0674  -31.8602   26.5538 H   0  0  0  0  0  0
  -28.2604  -38.0039   24.7563 H   0  0  0  0  0  0
  -28.1028  -36.2583   24.6289 H   0  0  0  0  0  0
  -27.2260  -37.1399   25.8871 H   0  0  0  0  0  0
  -20.9367  -29.8703   21.6888 H   0  0  0  0  0  0
  -26.0175  -38.2813   24.1478 H   0  0  0  0  0  0
  -27.2336  -22.8210   22.1044 H   0  0  0  0  0  0
  -32.0087  -22.7104   20.2787 H   0  0  0  0  0  0
  -32.2505  -21.2412   19.1991 H   0  0  0  0  0  0
  -32.0186  -22.7270   17.1819 H   0  0  0  0  0  0
  -31.7805  -24.1917   18.2689 H   0  0  0  0  0  0
  -27.9362  -15.6349   21.5804 H   0  0  0  0  0  0
  -29.2949  -15.9063   22.6619 H   0  0  0  0  0  0
  -28.5271  -18.1574   22.6263 H   0  0  0  0  0  0
  -27.5918  -17.8663   21.1706 H   0  0  0  0  0  0
  -29.6684  -17.1832   19.0209 H   0  0  0  0  0  0
  -31.2028  -17.3048   19.8502 H   0  0  0  0  0  0
  -29.9807  -21.6694   18.1049 H   0  0  0  0  0  0
  -28.2026  -20.6692   21.7261 H   0  0  0  0  0  0
  -29.8929  -21.0064   21.6825 H   0  0  0  0  0  0
  -30.0292  -19.8419   19.3853 H   0  0  0  0  0  0
  -28.3335  -19.4821   19.4888 H   0  0  0  0  0  0
  -30.3580  -18.5768   21.4311 H   0  0  0  0  0  0
  1 25  1  0  0  0
  1 30  2  0  0  0
  1 85  1  0  0  0
  2  3  1  0  0  0
  2 25  1  0  0  0
  2 87  1  0  0  0
  2 88  1  0  0  0
  3  4  1  0  0  0
  3 89  1  0  0  0
  3 90  1  0  0  0
  4  5  1  0  0  0
  4 91  1  0  0  0
  4 92  1  0  0  0
  5  6  1  0  0  0
  5 26  1  0  0  0
  5 93  1  0  0  0
  6 25  1  0  0  0
  6 94  1  0  0  0
  6 95  1  0  0  0
  7  8  2  0  0  0
  7 26  1  0  0  0
  7 29  1  0  0  0
  8  9  1  0  0  0
  8 22  1  0  0  0
  9 10  1  0  0  0
  9 27  2  0  0  0
 10 11  2  0  0  0
 10 15  1  0  0  0
 11 12  1  0  0  0
 11 96  1  0  0  0
 12 13  2  0  0  0
 12 97  1  0  0  0
 13 14  1  0  0  0
 13 31  1  0  0  0
 14 15  2  0  0  0
 14 98  1  0  0  0
 15 99  1  0  0  0
 16 17  2  0  0  0
 16 21  1  0  0  0
 16 31  1  0  0  0
 17 18  1  0  0  0
 17100  1  0  0  0
 18 19  2  0  0  0
 18101  1  0  0  0
 19 20  1  0  0  0
 19 24  1  0  0  0
 20 21  2  0  0  0
 20102  1  0  0  0
 21 23  1  0  0  0
 22 28  1  0  0  0
 22 32  2  0  0  0
 26 27  1  0  0  0
 28103  1  0  0  0
 28104  1  0  0  0
 29105  1  0  0  0
 29106  1  0  0  0
 33 34  1  0  0  0
 33 66  1  0  0  0
 33 70  2  0  0  0
 34 36  1  0  0  0
 34 59  1  0  0  0
 34107  1  0  0  0
 35 44  2  0  0  0
 35 45  1  0  0  0
 35 68  1  0  0  0
 36 56  1  0  0  0
 36108  1  0  0  0
 37 39  1  0  0  0
 37 47  1  0  0  0
 37 66  1  0  0  0
 37109  1  0  0  0
 38 43  2  0  0  0
 38 46  1  0  0  0
 38 47  1  0  0  0
 39 64  1  0  0  0
 39 67  2  0  0  0
 40 52  1  0  0  0
 40 53  2  0  0  0
 40 58  1  0  0  0
 41110  1  0  0  0
 41111  1  0  0  0
 41112  1  0  0  0
 41 48  1  0  0  0
 42 43  1  0  0  0
 42 66  1  0  0  0
 42113  1  0  0  0
 42114  1  0  0  0
 43 44  1  0  0  0
 44115  1  0  0  0
 45 46  2  0  0  0
 45116  1  0  0  0
 46117  1  0  0  0
 47118  1  0  0  0
 47119  1  0  0  0
 48 56  1  0  0  0
 48 65  1  0  0  0
 48120  1  0  0  0
 49 50  1  0  0  0
 49 53  1  0  0  0
 49 64  1  0  0  0
 49121  1  0  0  0
 50 51  1  0  0  0
 50122  1  0  0  0
 50123  1  0  0  0
 51 52  1  0  0  0
 51124  1  0  0  0
 51125  1  0  0  0
 52126  1  0  0  0
 52127  1  0  0  0
 53 54  1  0  0  0
 54 55  2  0  0  0
 54128  1  0  0  0
 55 57  1  0  0  0
 55129  1  0  0  0
 56 69  2  0  0  0
 57 58  2  0  0  0
 57130  1  0  0  0
 58131  1  0  0  0
 59 60  1  0  0  0
 59 61  1  0  0  0
 59 62  1  0  0  0
 60132  1  0  0  0
 60133  1  0  0  0
 60134  1  0  0  0
 61135  1  0  0  0
 61136  1  0  0  0
 61137  1  0  0  0
 62138  1  0  0  0
 62139  1  0  0  0
 62140  1  0  0  0
 63 65  1  0  0  0
 63141  1  0  0  0
 63142  1  0  0  0
 63143  1  0  0  0
 64144  1  0  0  0
 65145  1  0  0  0
 68 74  1  0  0  0
 71 72  2  0  0  0
 71 83  1  0  0  0
 71146  1  0  0  0
 72 73  1  0  0  0
 72 81  1  0  0  0
 73 84  2  0  0  0
 73 80  1  0  0  0
 74 83  2  0  0  0
 74 84  1  0  0  0
 75 76  1  0  0  0
 75 80  1  0  0  0
 75147  1  0  0  0
 75148  1  0  0  0
 76 80  1  0  0  0
 76149  1  0  0  0
 76150  1  0  0  0
 77 78  1  0  0  0
 77 85  1  0  0  0
 77151  1  0  0  0
 77152  1  0  0  0
 78 86  1  0  0  0
 78153  1  0  0  0
 78154  1  0  0  0
 79 85  1  0  0  0
 79 86  1  0  0  0
 79155  1  0  0  0
 79156  1  0  0  0
 80157  1  0  0  0
 81 82  1  0  0  0
 81158  1  0  0  0
 81159  1  0  0  0
 82160  1  0  0  0
 82161  1  0  0  0
 82 86  1  0  0  0
 86162  1  0  0  0
M  CHG  1  86   1
M  ISO  4   1 100  68 101  74 101  85 100
M  END
> <chiral flag>
0

> <version>
0

> <s_m_source_file>
/data/baiqing/PycharmProjects/Reinvent-master-3.2/result/LINK_invent/BTK/process_docking_weight1_custom_sum_contain_oxygen_bond_distance_aromatic_linkinvent_7_9_3/rearranged_h_0190.sdf

> <i_m_source_file_index>
91

> <r_mmod_Potential_Energy-OPLS-2005>
-273.552825927734

> <r_mmod_Stretch_Energy-OPLS-2005>
85.5801620483398

> <r_mmod_Bend_Energy-OPLS-2005>
191.011917114258

> <r_mmod_Torsional_Energy-OPLS-2005>
359.371612548828

> <r_mmod_Improper_Torsional_Energy-OPLS-2005>
14.7083826065063

> <r_mmod_Van_der_Waal_Energy-OPLS-2005>
141.153778076172

> <r_mmod_Electrostatic_Energy-OPLS-2005>
-628.388671875

> <r_mmod_Solvation_Energy-OPLS-2005>
-486.278869628906

> <b_mmod_Minimization_Converged-OPLS-2005>
0

> <r_mmod_RMS_Derivative-OPLS-2005>
4.14924097061157

$$$$
91
                    3D
 Structure written by MMmdl.
182193  0  0  1  0            999 V2000
  -29.8427  -16.0507   20.4938 C   0  0  0  0  0  0
  -30.3390  -13.4507   19.5938 C   0  0  0  0  0  0
  -29.5641  -12.7875   18.4031 C   0  0  0  0  0  0
  -28.1765  -12.2920   18.8315 C   0  0  0  0  0  0
  -27.5505  -13.2992   19.8139 C   0  0  2  0  0  0
  -28.4840  -13.7571   20.9465 C   0  0  0  0  0  0
  -25.1950  -13.7785   20.5567 C   0  0  0  0  0  0
  -24.1464  -13.0077   20.9373 C   0  0  0  0  0  0
  -24.6284  -11.6664   20.8853 C   0  0  0  0  0  0
  -23.9041  -10.4074   21.0450 C   0  0  0  0  0  0
  -24.3590   -9.4035   21.9255 C   0  0  0  0  0  0
  -23.6235   -8.2114   22.0820 C   0  0  0  0  0  0
  -22.4258   -8.0174   21.3539 C   0  0  0  0  0  0
  -21.9867   -9.0157   20.4674 C   0  0  0  0  0  0
  -22.7224  -10.1990   20.3064 C   0  0  0  0  0  0
  -21.6821   -6.0695   22.5300 C   0  0  0  0  0  0
  -21.3999   -6.5615   23.8226 C   0  0  0  0  0  0
  -21.3637   -5.6775   24.9185 C   0  0  0  0  0  0
  -21.6027   -4.3039   24.7231 C   0  0  0  0  0  0
  -21.8818   -3.8128   23.4354 C   0  0  0  0  0  0
  -21.9176   -4.6933   22.3410 C   0  0  0  0  0  0
  -22.7512  -13.4910   21.2004 C   0  0  0  0  0  0
  -22.1669   -4.2114   21.0994 F   0  0  0  0  0  0
  -21.5603   -3.4543   25.7756 F   0  0  0  0  0  0
  -29.5248  -14.5878   20.2971 N   0  0  0  0  0  0
  -26.2444  -12.9255   20.3080 N   0  0  0  0  0  0
  -25.9201  -11.6368   20.5654 N   0  0  0  0  0  0
  -22.0173  -12.7973   22.0610 N   0  0  0  0  0  0
  -25.3255  -15.1265   20.3300 N   0  0  0  0  0  0
  -31.1053  -16.0288   20.4563 O   0  0  0  0  0  0
  -21.6576   -6.8819   21.4258 O   0  0  0  0  0  0
  -22.3248  -14.5246   20.6828 O   0  0  0  0  0  0
  -24.5255  -31.8274   23.2944 C   0  0  0  0  0  0
  -25.8415  -32.4709   23.8682 C   0  0  1  0  0  0
  -27.7046  -26.7682   19.5625 C   0  0  0  0  0  0
  -25.5489  -33.8623   24.2416 N   0  0  0  0  0  0
  -23.6047  -30.0026   21.7367 C   0  0  2  0  0  0
  -25.8837  -28.0126   20.0243 C   0  0  0  0  0  0
  -22.6376  -29.4750   22.7733 C   0  0  0  0  0  0
  -17.9903  -28.1373   22.8613 C   0  0  0  0  0  0
  -24.1473  -36.7411   23.2631 C   0  0  0  0  0  0
  -25.7380  -30.4344   21.7282 C   0  0  0  0  0  0
  -25.7494  -28.7265   21.0466 C   0  0  0  0  0  0
  -26.9425  -27.9364   19.9507 C   0  0  0  0  0  0
  -26.8401  -26.3309   18.5396 C   0  0  0  0  0  0
  -25.6895  -27.1396   18.4341 C   0  0  0  0  0  0
  -24.3572  -28.5828   21.2697 C   0  0  0  0  0  0
  -25.4071  -36.3149   24.0369 C   0  0  1  0  0  0
  -20.5190  -28.3680   23.1605 C   0  0  2  0  0  0
  -20.6515  -26.9407   22.5744 C   0  0  0  0  0  0
  -19.5551  -26.6122   21.5551 C   0  0  0  0  0  0
  -18.1701  -26.7814   22.1902 C   0  0  0  0  0  0
  -19.1061  -28.8906   23.2922 C   0  0  0  0  0  0
  -18.9179  -30.1603   23.8797 C   0  0  0  0  0  0
  -17.6213  -30.6791   24.0414 C   0  0  0  0  0  0
  -25.8912  -34.9414   23.5234 C   0  0  0  0  0  0
  -16.5102  -29.9223   23.6253 C   0  0  0  0  0  0
  -16.6946  -28.6542   23.0412 C   0  0  0  0  0  0
  -26.4343  -31.6681   25.1030 C   0  0  0  0  0  0
  -25.3770  -31.3702   26.1887 C   0  0  0  0  0  0
  -27.0515  -30.3054   24.7044 C   0  0  0  0  0  0
  -27.5938  -32.4591   25.7507 C   0  0  0  0  0  0
  -27.5578  -37.1817   24.8455 C   0  0  0  0  0  0
  -21.3609  -29.3000   22.4339 N   0  0  0  0  0  0
  -26.4304  -37.3791   23.9386 N   0  0  0  0  0  0
  -24.5914  -30.8205   22.3700 N   0  0  0  0  0  0
  -23.1353  -28.9859   23.7837 O   0  0  0  0  0  0
  -29.0518  -26.6913   19.7742 O   0  0  0  0  0  0
  -26.5563  -34.8794   22.4838 O   0  0  0  0  0  0
  -23.4443  -32.2122   23.7380 O   0  0  0  0  0  0
  -25.8045  -25.9319   21.2587 C   0  0  0  0  0  0
  -24.2797  -26.4825   20.2130 C   0  0  0  0  0  0
  -26.1405  -24.2512   21.0098 C   0  0  0  0  0  0
  -24.0569  -24.2426   19.7272 C   0  0  0  0  0  0
  -27.3259  -27.4483   22.1593 C   0  0  0  0  0  0
  -24.2229  -28.9111   18.9744 C   0  0  0  0  0  0
  -26.2064  -19.6678   22.6546 C   0  0  0  0  0  0
  -26.0278  -17.8837   20.8918 C   0  0  0  0  0  0
  -26.5390  -30.1920   19.4558 C   0  0  0  0  0  0
  -25.3690  -20.6108   21.7649 C   0  0  0  0  0  0
  -25.8296  -19.8314   19.3828 C   0  0  0  0  0  0
  -27.0128  -18.6553   21.8275 C   0  0  1  0  0  0
  -28.3067  -19.2006   21.1135 C   0  0  2  0  0  0
  -27.4680  -21.1349   20.6535 C   0  0  2  0  0  0
  -23.2614  -23.2988   18.8430 C   0  0  0  0  0  0
  -29.3897  -29.2277   20.8845 C   0  0  0  0  0  0
  -29.7883  -27.6829   20.6095 C   0  0  0  0  0  0
  -23.5753  -25.4837   19.6704 N   0  0  0  0  0  0
  -25.1504  -23.6753   20.2721 N   0  0  0  0  0  0
  -25.2088  -18.6239   19.9262 N   0  0  0  0  0  0
  -27.1679  -22.8919   21.2128 N   0  0  0  0  0  0
  -28.8844  -17.4191   20.5321 N   0  0  0  0  0  0
  -27.9391  -29.4081   21.2210 N   0  3  1  0  0  0
  -26.0449  -20.8351   20.4461 N   0  3  2  0  0  0
  -31.2605  -13.8740   19.1925 H   0  0  0  0  0  0
  -30.6679  -12.6910   20.3107 H   0  0  0  0  0  0
  -30.1486  -11.9784   17.9694 H   0  0  0  0  0  0
  -29.4429  -13.5288   17.6122 H   0  0  0  0  0  0
  -28.2979  -11.3302   19.3267 H   0  0  0  0  0  0
  -27.5280  -12.1186   17.9682 H   0  0  0  0  0  0
  -27.3724  -14.1730   19.1860 H   0  0  0  0  0  0
  -28.8696  -12.9153   21.5261 H   0  0  0  0  0  0
  -27.9332  -14.3762   21.6551 H   0  0  0  0  0  0
  -25.2675   -9.5531   22.4913 H   0  0  0  0  0  0
  -23.9876   -7.4496   22.7563 H   0  0  0  0  0  0
  -21.0788   -8.8663   19.9021 H   0  0  0  0  0  0
  -22.3650  -10.9540   19.6210 H   0  0  0  0  0  0
  -21.2041   -7.6141   23.9677 H   0  0  0  0  0  0
  -21.1458   -6.0560   25.9065 H   0  0  0  0  0  0
  -22.0623   -2.7594   23.2868 H   0  0  0  0  0  0
  -22.3661  -11.9612   22.5077 H   0  0  0  0  0  0
  -21.0822  -13.1121   22.2746 H   0  0  0  0  0  0
  -24.4684  -15.6642   20.2698 H   0  0  0  0  0  0
  -26.0204  -15.4161   19.6567 H   0  0  0  0  0  0
  -26.6084  -32.5323   23.0982 H   0  0  0  0  0  0
  -24.9618  -34.0003   25.0523 H   0  0  0  0  0  0
  -23.0720  -30.5756   20.9805 H   0  0  0  0  0  0
  -23.3677  -35.9807   23.3321 H   0  0  0  0  0  0
  -24.3575  -36.8970   22.2032 H   0  0  0  0  0  0
  -23.7277  -37.6665   23.6598 H   0  0  0  0  0  0
  -25.6301  -31.3315   21.1133 H   0  0  0  0  0  0
  -26.5458  -30.6640   22.3822 H   0  0  0  0  0  0
  -27.7737  -28.3916   19.3161 H   0  0  0  0  0  0
  -27.0718  -25.5549   17.8215 H   0  0  0  0  0  0
  -24.8796  -26.9529   17.7292 H   0  0  0  0  0  0
  -23.3388  -28.2912   20.9401 H   0  0  0  0  0  0
  -24.2576  -27.8590   22.1501 H   0  0  0  0  0  0
  -25.1210  -36.2119   25.0874 H   0  0  0  0  0  0
  -20.8426  -28.3202   24.2001 H   0  0  0  0  0  0
  -20.5722  -26.2241   23.3950 H   0  0  0  0  0  0
  -21.6401  -26.7683   22.1520 H   0  0  0  0  0  0
  -19.6491  -27.2690   20.6865 H   0  0  0  0  0  0
  -19.6592  -25.5929   21.1933 H   0  0  0  0  0  0
  -18.0141  -26.0019   22.9434 H   0  0  0  0  0  0
  -17.4034  -26.6461   21.4293 H   0  0  0  0  0  0
  -19.7701  -30.7394   24.2038 H   0  0  0  0  0  0
  -17.4779  -31.6527   24.4847 H   0  0  0  0  0  0
  -15.5140  -30.3135   23.7524 H   0  0  0  0  0  0
  -15.8286  -28.0842   22.7354 H   0  0  0  0  0  0
  -24.6116  -30.6738   25.8415 H   0  0  0  0  0  0
  -24.8729  -32.2751   26.5266 H   0  0  0  0  0  0
  -25.8387  -30.9097   27.0634 H   0  0  0  0  0  0
  -26.3019  -29.6202   24.3096 H   0  0  0  0  0  0
  -27.4876  -29.7997   25.5652 H   0  0  0  0  0  0
  -27.8662  -30.4213   23.9913 H   0  0  0  0  0  0
  -27.2549  -33.3831   26.2205 H   0  0  0  0  0  0
  -28.3537  -32.7207   25.0134 H   0  0  0  0  0  0
  -28.0885  -31.8723   26.5255 H   0  0  0  0  0  0
  -28.2629  -38.0074   24.7428 H   0  0  0  0  0  0
  -28.1045  -36.2593   24.6380 H   0  0  0  0  0  0
  -27.2296  -37.1590   25.8862 H   0  0  0  0  0  0
  -21.0004  -29.6792   21.5685 H   0  0  0  0  0  0
  -26.0246  -38.2925   24.1282 H   0  0  0  0  0  0
  -28.1877  -26.8625   22.4728 H   0  0  0  0  0  0
  -26.8891  -27.7139   23.1256 H   0  0  0  0  0  0
  -23.3634  -29.5342   19.2024 H   0  0  0  0  0  0
  -24.0468  -28.8432   17.8976 H   0  0  0  0  0  0
  -25.5402  -19.1283   23.3368 H   0  0  0  0  0  0
  -26.8843  -20.2446   23.2834 H   0  0  0  0  0  0
  -25.3238  -17.3400   21.5234 H   0  0  0  0  0  0
  -26.5646  -17.1221   20.3394 H   0  0  0  0  0  0
  -26.4930  -31.2724   19.3512 H   0  0  0  0  0  0
  -27.1250  -30.0742   18.5438 H   0  0  0  0  0  0
  -24.3421  -20.2565   21.6249 H   0  0  0  0  0  0
  -25.2570  -21.5590   22.3019 H   0  0  0  0  0  0
  -25.1578  -20.2905   18.6504 H   0  0  0  0  0  0
  -26.7523  -19.5968   18.8495 H   0  0  0  0  0  0
  -27.3694  -17.9153   22.5414 H   0  0  0  0  0  0
  -29.0425  -19.4313   21.8867 H   0  0  0  0  0  0
  -27.9217  -21.3557   19.6884 H   0  0  0  0  0  0
  -23.1732  -23.7248   17.8436 H   0  0  0  0  0  0
  -22.2489  -23.1470   19.2175 H   0  0  0  0  0  0
  -23.7646  -22.3358   18.7407 H   0  0  0  0  0  0
  -29.6346  -29.8463   20.0193 H   0  0  0  0  0  0
  -30.0000  -29.5967   21.7185 H   0  0  0  0  0  0
  -30.0125  -27.2010   21.5612 H   0  0  0  0  0  0
  -30.7728  -27.7070   20.1410 H   0  0  0  0  0  0
  -24.9187  -18.0169   19.1589 H   0  0  0  0  0  0
  -27.9234  -23.1701   21.8311 H   0  0  0  0  0  0
  -28.0266  -17.0161   20.1883 H   0  0  0  0  0  0
  -27.8661  -28.6953   20.5091 H   0  0  0  0  0  0
  -25.6785  -21.7077   20.0834 H   0  0  0  0  0  0
  1 25  1  0  0  0
  1 30  2  0  0  0
  1 92  1  0  0  0
  2  3  1  0  0  0
  2 25  1  0  0  0
  2 95  1  0  0  0
  2 96  1  0  0  0
  3  4  1  0  0  0
  3 97  1  0  0  0
  3 98  1  0  0  0
  4  5  1  0  0  0
  4 99  1  0  0  0
  4100  1  0  0  0
  5  6  1  0  0  0
  5 26  1  0  0  0
  5101  1  0  0  0
  6 25  1  0  0  0
  6102  1  0  0  0
  6103  1  0  0  0
  7  8  2  0  0  0
  7 26  1  0  0  0
  7 29  1  0  0  0
  8  9  1  0  0  0
  8 22  1  0  0  0
  9 10  1  0  0  0
  9 27  2  0  0  0
 10 11  2  0  0  0
 10 15  1  0  0  0
 11 12  1  0  0  0
 11104  1  0  0  0
 12 13  2  0  0  0
 12105  1  0  0  0
 13 14  1  0  0  0
 13 31  1  0  0  0
 14 15  2  0  0  0
 14106  1  0  0  0
 15107  1  0  0  0
 16 17  2  0  0  0
 16 21  1  0  0  0
 16 31  1  0  0  0
 17 18  1  0  0  0
 17108  1  0  0  0
 18 19  2  0  0  0
 18109  1  0  0  0
 19 20  1  0  0  0
 19 24  1  0  0  0
 20 21  2  0  0  0
 20110  1  0  0  0
 21 23  1  0  0  0
 22 28  1  0  0  0
 22 32  2  0  0  0
 26 27  1  0  0  0
 28111  1  0  0  0
 28112  1  0  0  0
 29113  1  0  0  0
 29114  1  0  0  0
 33 34  1  0  0  0
 33 66  1  0  0  0
 33 70  2  0  0  0
 34 36  1  0  0  0
 34 59  1  0  0  0
 34115  1  0  0  0
 35 44  2  0  0  0
 35 45  1  0  0  0
 35 68  1  0  0  0
 36 56  1  0  0  0
 36116  1  0  0  0
 37 39  1  0  0  0
 37 47  1  0  0  0
 37 66  1  0  0  0
 37117  1  0  0  0
 38 43  2  0  0  0
 38 46  1  0  0  0
 38 47  1  0  0  0
 39 64  1  0  0  0
 39 67  2  0  0  0
 40 52  1  0  0  0
 40 53  2  0  0  0
 40 58  1  0  0  0
 41118  1  0  0  0
 41119  1  0  0  0
 41120  1  0  0  0
 41 48  1  0  0  0
 42 43  1  0  0  0
 42 66  1  0  0  0
 42121  1  0  0  0
 42122  1  0  0  0
 43 44  1  0  0  0
 44123  1  0  0  0
 45 46  2  0  0  0
 45124  1  0  0  0
 46125  1  0  0  0
 47126  1  0  0  0
 47127  1  0  0  0
 48 56  1  0  0  0
 48 65  1  0  0  0
 48128  1  0  0  0
 49 50  1  0  0  0
 49 53  1  0  0  0
 49 64  1  0  0  0
 49129  1  0  0  0
 50 51  1  0  0  0
 50130  1  0  0  0
 50131  1  0  0  0
 51 52  1  0  0  0
 51132  1  0  0  0
 51133  1  0  0  0
 52134  1  0  0  0
 52135  1  0  0  0
 53 54  1  0  0  0
 54 55  2  0  0  0
 54136  1  0  0  0
 55 57  1  0  0  0
 55137  1  0  0  0
 56 69  2  0  0  0
 57 58  2  0  0  0
 57138  1  0  0  0
 58139  1  0  0  0
 59 60  1  0  0  0
 59 61  1  0  0  0
 59 62  1  0  0  0
 60140  1  0  0  0
 60141  1  0  0  0
 60142  1  0  0  0
 61143  1  0  0  0
 61144  1  0  0  0
 61145  1  0  0  0
 62146  1  0  0  0
 62147  1  0  0  0
 62148  1  0  0  0
 63 65  1  0  0  0
 63149  1  0  0  0
 63150  1  0  0  0
 63151  1  0  0  0
 64152  1  0  0  0
 65153  1  0  0  0
 68 87  1  0  0  0
 71 72  2  0  0  0
 71 73  1  0  0  0
 71 75  1  0  0  0
 72 76  1  0  0  0
 72 88  1  0  0  0
 73 89  2  0  0  0
 73 91  1  0  0  0
 74 85  1  0  0  0
 74 88  2  0  0  0
 74 89  1  0  0  0
 75 93  1  0  0  0
 75154  1  0  0  0
 75155  1  0  0  0
 76 79  1  0  0  0
 76156  1  0  0  0
 76157  1  0  0  0
 77 80  1  0  0  0
 77158  1  0  0  0
 77159  1  0  0  0
 77 82  1  0  0  0
 78 82  1  0  0  0
 78 90  1  0  0  0
 78160  1  0  0  0
 78161  1  0  0  0
 79 93  1  0  0  0
 79162  1  0  0  0
 79163  1  0  0  0
 80164  1  0  0  0
 80165  1  0  0  0
 80 94  1  0  0  0
 81 90  1  0  0  0
 81 94  1  0  0  0
 81166  1  0  0  0
 81167  1  0  0  0
 82 83  1  0  0  0
 82168  1  0  0  0
 83 84  1  0  0  0
 83 92  1  0  0  0
 83169  1  0  0  0
 84 91  1  0  0  0
 84 94  1  0  0  0
 84170  1  0  0  0
 85171  1  0  0  0
 85172  1  0  0  0
 85173  1  0  0  0
 86 87  1  0  0  0
 86174  1  0  0  0
 86175  1  0  0  0
 86 93  1  0  0  0
 87176  1  0  0  0
 87177  1  0  0  0
 90178  1  0  0  0
 91179  1  0  0  0
 92180  1  0  0  0
 93181  1  0  0  0
 94182  1  0  0  0
M  CHG  2  93   1  94   1
M  ISO  4   1 100  68 101  87 101  92 100
M  END
> <chiral flag>
0

> <version>
0

> <s_m_source_file>
/data/baiqing/PycharmProjects/Reinvent-master-3.2/result/LINK_invent/BTK/process_docking_weight1_custom_sum_contain_oxygen_bond_distance_aromatic_linkinvent_7_9_3/rearranged_h_0190.sdf

> <i_m_source_file_index>
92

> <r_mmod_Potential_Energy-OPLS-2005>
19276.28515625

> <r_mmod_Stretch_Energy-OPLS-2005>
10331.5986328125

> <r_mmod_Bend_Energy-OPLS-2005>
3025.13598632812

> <r_mmod_Torsional_Energy-OPLS-2005>
744.395690917969

> <r_mmod_Improper_Torsional_Energy-OPLS-2005>
59.9548568725586

> <r_mmod_Van_der_Waal_Energy-OPLS-2005>
3923.71923828125

> <r_mmod_Electrostatic_Energy-OPLS-2005>
-529.757568359375

> <r_mmod_Solvation_Energy-OPLS-2005>
-805.345458984375

> <b_mmod_Minimization_Converged-OPLS-2005>
0

> <r_mmod_RMS_Derivative-OPLS-2005>
21.1759357452393

$$$$
92
                    3D
 Structure written by MMmdl.
153162  0  0  1  0            999 V2000
  -30.5093  -15.1302   20.3880 C   0  0  0  0  0  0
  -30.4406  -12.7127   19.5157 C   0  0  0  0  0  0
  -29.5267  -12.5432   18.2767 C   0  0  0  0  0  0
  -28.0683  -12.2998   18.7019 C   0  0  0  0  0  0
  -27.6212  -13.2631   19.8308 C   0  0  2  0  0  0
  -28.6617  -13.3779   20.9678 C   0  0  0  0  0  0
  -25.2439  -13.8250   20.5701 C   0  0  0  0  0  0
  -24.1777  -13.0457   20.9243 C   0  0  0  0  0  0
  -24.6409  -11.6946   20.8765 C   0  0  0  0  0  0
  -23.9100  -10.4303   21.0412 C   0  0  0  0  0  0
  -24.3637   -9.4207   21.9180 C   0  0  0  0  0  0
  -23.6305   -8.2243   22.0751 C   0  0  0  0  0  0
  -22.4291   -8.0279   21.3545 C   0  0  0  0  0  0
  -21.9936   -9.0255   20.4647 C   0  0  0  0  0  0
  -22.7272  -10.2134   20.3056 C   0  0  0  0  0  0
  -21.6858   -6.0735   22.5284 C   0  0  0  0  0  0
  -21.4016   -6.5642   23.8217 C   0  0  0  0  0  0
  -21.3657   -5.6793   24.9180 C   0  0  0  0  0  0
  -21.6049   -4.3059   24.7226 C   0  0  0  0  0  0
  -21.8820   -3.8152   23.4346 C   0  0  0  0  0  0
  -21.9196   -4.6965   22.3400 C   0  0  0  0  0  0
  -22.7796  -13.5208   21.1898 C   0  0  0  0  0  0
  -22.1666   -4.2150   21.0976 F   0  0  0  0  0  0
  -21.5631   -3.4539   25.7739 F   0  0  0  0  0  0
  -29.9124  -13.8477   20.3500 N   0  0  0  0  0  0
  -26.2872  -12.9497   20.3266 N   0  0  0  0  0  0
  -25.9355  -11.6614   20.5783 N   0  0  0  0  0  0
  -22.0451  -12.8172   22.0449 N   0  0  0  0  0  0
  -25.4118  -15.1959   20.3986 N   0  0  0  0  0  0
  -31.7049  -15.1318   20.0638 O   0  0  0  0  0  0
  -21.6648   -6.8879   21.4248 O   0  0  0  0  0  0
  -22.3474  -14.5507   20.6754 O   0  0  0  0  0  0
  -24.6540  -31.8316   23.1761 C   0  0  0  0  0  0
  -25.9245  -32.4625   23.8222 C   0  0  1  0  0  0
  -27.2324  -27.0181   20.1569 C   0  0  0  0  0  0
  -25.5929  -33.8442   24.2120 N   0  0  0  0  0  0
  -23.4658  -30.4435   21.5212 C   0  0  2  0  0  0
  -24.9226  -28.8467   20.1018 C   0  0  0  0  0  0
  -22.7653  -29.4477   22.4801 C   0  0  0  0  0  0
  -18.0317  -28.1381   22.8507 C   0  0  0  0  0  0
  -24.1485  -36.7254   23.2647 C   0  0  0  0  0  0
  -26.0268  -30.6643   21.3956 C   0  0  0  0  0  0
  -26.0975  -29.2625   20.7382 C   0  0  0  0  0  0
  -27.2415  -28.3605   20.7565 C   0  0  0  0  0  0
  -26.0347  -26.7372   19.4636 C   0  0  0  0  0  0
  -24.9110  -27.6033   19.4459 C   0  0  0  0  0  0
  -23.7013  -29.7600   20.1444 C   0  0  0  0  0  0
  -25.4119  -36.2994   24.0309 C   0  0  1  0  0  0
  -20.5938  -28.3745   23.1207 C   0  0  2  0  0  0
  -20.6786  -26.9449   22.5365 C   0  0  0  0  0  0
  -19.5721  -26.6380   21.5232 C   0  0  0  0  0  0
  -18.1946  -26.7880   22.1721 C   0  0  0  0  0  0
  -19.1579  -28.8883   23.2836 C   0  0  0  0  0  0
  -18.9494  -30.1492   23.8841 C   0  0  0  0  0  0
  -17.6485  -30.6595   24.0544 C   0  0  0  0  0  0
  -25.9083  -34.9368   23.5036 C   0  0  0  0  0  0
  -16.5381  -29.9077   23.6336 C   0  0  0  0  0  0
  -16.7305  -28.6485   23.0382 C   0  0  0  0  0  0
  -26.4528  -31.6544   25.0724 C   0  0  0  0  0  0
  -25.3683  -31.3770   26.1403 C   0  0  0  0  0  0
  -27.0417  -30.2921   24.6398 C   0  0  0  0  0  0
  -27.6016  -32.4363   25.7510 C   0  0  0  0  0  0
  -27.5566  -37.1788   24.8459 C   0  0  0  0  0  0
  -21.4327  -29.3069   22.3596 N   0  0  0  0  0  0
  -26.4278  -37.3714   23.9398 N   0  0  0  0  0  0
  -24.7357  -31.0070   22.0836 N   0  0  0  0  0  0
  -23.4253  -28.8051   23.3001 O   0  0  0  0  0  0
  -28.2403  -25.9606   20.3294 O   0  0  0  0  0  0
  -26.5711  -34.8882   22.4640 O   0  0  0  0  0  0
  -23.5626  -32.1239   23.6898 O   0  0  0  0  0  0
  -27.5859  -20.9416   20.0962 C   0  0  0  0  0  0
  -28.4016  -22.9649   20.0961 C   0  0  0  0  0  0
  -29.8873  -17.8163   19.7472 C   0  0  0  0  0  0
  -28.9450  -16.8431   21.6002 C   0  0  0  0  0  0
  -29.6099  -19.2079   20.6576 C   0  0  2  0  0  0
  -29.1343  -18.3955   21.9140 C   0  0  2  0  0  0
  -28.4461  -24.5799   19.5425 C   0  0  0  0  0  0
  -27.2224  -22.2506   20.0050 N   0  0  0  0  0  0
  -29.4315  -22.0141   20.2804 N   0  0  0  0  0  0
  -28.8854  -20.6538   20.2990 N   0  0  0  0  0  0
  -29.7783  -16.4009   20.4664 N   0  0  0  0  0  0
  -28.0026  -18.9645   22.6717 N   0  3  0  0  0  0
  -31.4646  -12.8869   19.1824 H   0  0  0  0  0  0
  -30.4827  -11.7920   20.0997 H   0  0  0  0  0  0
  -29.8797  -11.7167   17.6563 H   0  0  0  0  0  0
  -29.5818  -13.4369   17.6542 H   0  0  0  0  0  0
  -27.9963  -11.2696   19.0530 H   0  0  0  0  0  0
  -27.3992  -12.3741   17.8431 H   0  0  0  0  0  0
  -27.5588  -14.2445   19.3585 H   0  0  0  0  0  0
  -28.7986  -12.4257   21.4810 H   0  0  0  0  0  0
  -28.3262  -14.0873   21.7236 H   0  0  0  0  0  0
  -25.2766   -9.5692   22.4777 H   0  0  0  0  0  0
  -24.0016   -7.4645   22.7463 H   0  0  0  0  0  0
  -21.0884   -8.8787   19.8937 H   0  0  0  0  0  0
  -22.3736  -10.9676   19.6174 H   0  0  0  0  0  0
  -21.2014   -7.6154   23.9722 H   0  0  0  0  0  0
  -21.1476   -6.0528   25.9079 H   0  0  0  0  0  0
  -22.0602   -2.7610   23.2860 H   0  0  0  0  0  0
  -22.4046  -11.9799   22.4784 H   0  0  0  0  0  0
  -21.1068  -13.1187   22.2631 H   0  0  0  0  0  0
  -24.6252  -15.8361   20.4260 H   0  0  0  0  0  0
  -26.2404  -15.6011   19.9816 H   0  0  0  0  0  0
  -26.7323  -32.5189   23.0961 H   0  0  0  0  0  0
  -24.9952  -33.9534   25.0186 H   0  0  0  0  0  0
  -22.7727  -31.2718   21.3547 H   0  0  0  0  0  0
  -23.3730  -35.9602   23.3282 H   0  0  0  0  0  0
  -24.3551  -36.8933   22.2063 H   0  0  0  0  0  0
  -23.7277  -37.6448   23.6729 H   0  0  0  0  0  0
  -26.1936  -31.4104   20.6181 H   0  0  0  0  0  0
  -26.8913  -30.7210   22.0464 H   0  0  0  0  0  0
  -28.1240  -28.6648   21.3016 H   0  0  0  0  0  0
  -25.9180  -25.7774   18.9813 H   0  0  0  0  0  0
  -24.0170  -27.2808   18.9301 H   0  0  0  0  0  0
  -23.8499  -30.5290   19.3853 H   0  0  0  0  0  0
  -22.8150  -29.2073   19.8272 H   0  0  0  0  0  0
  -25.1314  -36.1797   25.0807 H   0  0  0  0  0  0
  -21.0036  -28.3316   24.1309 H   0  0  0  0  0  0
  -20.5724  -26.2374   23.3615 H   0  0  0  0  0  0
  -21.6619  -26.7473   22.1089 H   0  0  0  0  0  0
  -19.6905  -25.6291   21.1281 H   0  0  0  0  0  0
  -19.6576  -27.3185   20.6739 H   0  0  0  0  0  0
  -17.4148  -26.6549   21.4202 H   0  0  0  0  0  0
  -18.0462  -26.0059   22.9183 H   0  0  0  0  0  0
  -19.7956  -30.7345   24.2149 H   0  0  0  0  0  0
  -17.5017  -31.6265   24.5159 H   0  0  0  0  0  0
  -15.5372  -30.2963   23.7656 H   0  0  0  0  0  0
  -15.8725  -28.0787   22.7102 H   0  0  0  0  0  0
  -24.5865  -30.7114   25.7725 H   0  0  0  0  0  0
  -24.8873  -32.2970   26.4739 H   0  0  0  0  0  0
  -25.7947  -30.9001   27.0240 H   0  0  0  0  0  0
  -26.3064  -29.6608   24.1390 H   0  0  0  0  0  0
  -27.3963  -29.7249   25.5008 H   0  0  0  0  0  0
  -27.8993  -30.4102   23.9772 H   0  0  0  0  0  0
  -27.2560  -33.3685   26.1988 H   0  0  0  0  0  0
  -28.3868  -32.6915   25.0384 H   0  0  0  0  0  0
  -28.0646  -31.8583   26.5514 H   0  0  0  0  0  0
  -28.2574  -38.0087   24.7476 H   0  0  0  0  0  0
  -28.1079  -36.2619   24.6317 H   0  0  0  0  0  0
  -27.2289  -37.1463   25.8863 H   0  0  0  0  0  0
  -20.9584  -29.8831   21.6788 H   0  0  0  0  0  0
  -26.0129  -38.2783   24.1376 H   0  0  0  0  0  0
  -26.8449  -20.1559   20.0580 H   0  0  0  0  0  0
  -29.1784  -17.7982   18.9178 H   0  0  0  0  0  0
  -30.8717  -17.8833   19.2806 H   0  0  0  0  0  0
  -29.1638  -16.2462   22.4864 H   0  0  0  0  0  0
  -27.9101  -16.6332   21.3293 H   0  0  0  0  0  0
  -30.6216  -19.5288   20.9063 H   0  0  0  0  0  0
  -29.9718  -18.4407   22.6126 H   0  0  0  0  0  0
  -27.7888  -24.6193   18.6763 H   0  0  0  0  0  0
  -29.4373  -24.6882   19.1013 H   0  0  0  0  0  0
  -28.2060  -19.9032   22.9698 H   0  0  0  0  0  0
  -27.8396  -18.4157   23.4966 H   0  0  0  0  0  0
  -27.1541  -18.9638   22.1372 H   0  0  0  0  0  0
  1 25  1  0  0  0
  1 30  2  0  0  0
  1 81  1  0  0  0
  2  3  1  0  0  0
  2 25  1  0  0  0
  2 83  1  0  0  0
  2 84  1  0  0  0
  3  4  1  0  0  0
  3 85  1  0  0  0
  3 86  1  0  0  0
  4  5  1  0  0  0
  4 87  1  0  0  0
  4 88  1  0  0  0
  5  6  1  0  0  0
  5 26  1  0  0  0
  5 89  1  0  0  0
  6 25  1  0  0  0
  6 90  1  0  0  0
  6 91  1  0  0  0
  7  8  2  0  0  0
  7 26  1  0  0  0
  7 29  1  0  0  0
  8  9  1  0  0  0
  8 22  1  0  0  0
  9 10  1  0  0  0
  9 27  2  0  0  0
 10 11  2  0  0  0
 10 15  1  0  0  0
 11 12  1  0  0  0
 11 92  1  0  0  0
 12 13  2  0  0  0
 12 93  1  0  0  0
 13 14  1  0  0  0
 13 31  1  0  0  0
 14 15  2  0  0  0
 14 94  1  0  0  0
 15 95  1  0  0  0
 16 17  2  0  0  0
 16 21  1  0  0  0
 16 31  1  0  0  0
 17 18  1  0  0  0
 17 96  1  0  0  0
 18 19  2  0  0  0
 18 97  1  0  0  0
 19 20  1  0  0  0
 19 24  1  0  0  0
 20 21  2  0  0  0
 20 98  1  0  0  0
 21 23  1  0  0  0
 22 28  1  0  0  0
 22 32  2  0  0  0
 26 27  1  0  0  0
 28 99  1  0  0  0
 28100  1  0  0  0
 29101  1  0  0  0
 29102  1  0  0  0
 33 34  1  0  0  0
 33 66  1  0  0  0
 33 70  2  0  0  0
 34 36  1  0  0  0
 34 59  1  0  0  0
 34103  1  0  0  0
 35 44  2  0  0  0
 35 45  1  0  0  0
 35 68  1  0  0  0
 36 56  1  0  0  0
 36104  1  0  0  0
 37 39  1  0  0  0
 37 47  1  0  0  0
 37 66  1  0  0  0
 37105  1  0  0  0
 38 43  2  0  0  0
 38 46  1  0  0  0
 38 47  1  0  0  0
 39 64  1  0  0  0
 39 67  2  0  0  0
 40 52  1  0  0  0
 40 53  2  0  0  0
 40 58  1  0  0  0
 41106  1  0  0  0
 41107  1  0  0  0
 41108  1  0  0  0
 41 48  1  0  0  0
 42 43  1  0  0  0
 42 66  1  0  0  0
 42109  1  0  0  0
 42110  1  0  0  0
 43 44  1  0  0  0
 44111  1  0  0  0
 45 46  2  0  0  0
 45112  1  0  0  0
 46113  1  0  0  0
 47114  1  0  0  0
 47115  1  0  0  0
 48 56  1  0  0  0
 48 65  1  0  0  0
 48116  1  0  0  0
 49 50  1  0  0  0
 49 53  1  0  0  0
 49 64  1  0  0  0
 49117  1  0  0  0
 50 51  1  0  0  0
 50118  1  0  0  0
 50119  1  0  0  0
 51 52  1  0  0  0
 51120  1  0  0  0
 51121  1  0  0  0
 52122  1  0  0  0
 52123  1  0  0  0
 53 54  1  0  0  0
 54 55  2  0  0  0
 54124  1  0  0  0
 55 57  1  0  0  0
 55125  1  0  0  0
 56 69  2  0  0  0
 57 58  2  0  0  0
 57126  1  0  0  0
 58127  1  0  0  0
 59 60  1  0  0  0
 59 61  1  0  0  0
 59 62  1  0  0  0
 60128  1  0  0  0
 60129  1  0  0  0
 60130  1  0  0  0
 61131  1  0  0  0
 61132  1  0  0  0
 61133  1  0  0  0
 62134  1  0  0  0
 62135  1  0  0  0
 62136  1  0  0  0
 63 65  1  0  0  0
 63137  1  0  0  0
 63138  1  0  0  0
 63139  1  0  0  0
 64140  1  0  0  0
 65141  1  0  0  0
 68 77  1  0  0  0
 71 78  2  0  0  0
 71 80  1  0  0  0
 71142  1  0  0  0
 72 77  1  0  0  0
 72 78  1  0  0  0
 72 79  2  0  0  0
 73 75  1  0  0  0
 73 81  1  0  0  0
 73143  1  0  0  0
 73144  1  0  0  0
 74 76  1  0  0  0
 74 81  1  0  0  0
 74145  1  0  0  0
 74146  1  0  0  0
 75 76  1  0  0  0
 75 80  1  0  0  0
 75147  1  0  0  0
 76 82  1  0  0  0
 76148  1  0  0  0
 77149  1  0  0  0
 77150  1  0  0  0
 79 80  1  0  0  0
 82151  1  0  0  0
 82152  1  0  0  0
 82153  1  0  0  0
M  CHG  1  82   1
M  ISO  4   1 100  68 101  77 101  81 100
M  END
> <chiral flag>
0

> <version>
0

> <s_m_source_file>
/data/baiqing/PycharmProjects/Reinvent-master-3.2/result/LINK_invent/BTK/process_docking_weight1_custom_sum_contain_oxygen_bond_distance_aromatic_linkinvent_7_9_3/rearranged_h_0190.sdf

> <i_m_source_file_index>
93

> <r_mmod_Potential_Energy-OPLS-2005>
898.725219726562

> <r_mmod_Stretch_Energy-OPLS-2005>
405.593475341797

> <r_mmod_Bend_Energy-OPLS-2005>
449.012115478516

> <r_mmod_Torsional_Energy-OPLS-2005>
377.210021972656

> <r_mmod_Improper_Torsional_Energy-OPLS-2005>
14.5639905929565

> <r_mmod_Van_der_Waal_Energy-OPLS-2005>
100.63697052002

> <r_mmod_Electrostatic_Energy-OPLS-2005>
-224.246475219727

> <r_mmod_Solvation_Energy-OPLS-2005>
-556.034484863281

> <b_mmod_Minimization_Converged-OPLS-2005>
0

> <r_mmod_RMS_Derivative-OPLS-2005>
2.90314984321594

$$$$
93
                    3D
 Structure written by MMmdl.
156165  0  0  1  0            999 V2000
  -30.6245  -14.7798   20.5385 C   0  0  0  0  0  0
  -30.4338  -12.5023   19.4794 C   0  0  0  0  0  0
  -29.5138  -12.5410   18.2396 C   0  0  0  0  0  0
  -28.0372  -12.3644   18.6397 C   0  0  0  0  0  0
  -27.6442  -13.2432   19.8587 C   0  0  2  0  0  0
  -28.6863  -13.1642   20.9948 C   0  0  0  0  0  0
  -25.2507  -13.8217   20.5715 C   0  0  0  0  0  0
  -24.1808  -13.0441   20.9191 C   0  0  0  0  0  0
  -24.6398  -11.6911   20.8703 C   0  0  0  0  0  0
  -23.9083  -10.4282   21.0379 C   0  0  0  0  0  0
  -24.3662   -9.4208   21.9164 C   0  0  0  0  0  0
  -23.6325   -8.2252   22.0730 C   0  0  0  0  0  0
  -22.4290   -8.0296   21.3531 C   0  0  0  0  0  0
  -21.9936   -9.0256   20.4616 C   0  0  0  0  0  0
  -22.7260  -10.2135   20.3018 C   0  0  0  0  0  0
  -21.6891   -6.0736   22.5289 C   0  0  0  0  0  0
  -21.4020   -6.5629   23.8219 C   0  0  0  0  0  0
  -21.3659   -5.6766   24.9174 C   0  0  0  0  0  0
  -21.6057   -4.3035   24.7215 C   0  0  0  0  0  0
  -21.8831   -3.8135   23.4325 C   0  0  0  0  0  0
  -21.9201   -4.6955   22.3391 C   0  0  0  0  0  0
  -22.7829  -13.5200   21.1846 C   0  0  0  0  0  0
  -22.1676   -4.2147   21.0964 F   0  0  0  0  0  0
  -21.5635   -3.4515   25.7722 F   0  0  0  0  0  0
  -29.9804  -13.5592   20.4216 N   0  0  0  0  0  0
  -26.2953  -12.9452   20.3319 N   0  0  0  0  0  0
  -25.9356  -11.6558   20.5748 N   0  0  0  0  0  0
  -22.0469  -12.8186   22.0397 N   0  0  0  0  0  0
  -25.4212  -15.1930   20.4190 N   0  0  0  0  0  0
  -31.7777  -14.8830   20.1103 O   0  0  0  0  0  0
  -21.6674   -6.8874   21.4239 O   0  0  0  0  0  0
  -22.3511  -14.5503   20.6668 O   0  0  0  0  0  0
  -24.6297  -31.8561   23.1980 C   0  0  0  0  0  0
  -25.9094  -32.4777   23.8374 C   0  0  1  0  0  0
  -27.2418  -27.2537   20.1671 C   0  0  0  0  0  0
  -25.5892  -33.8585   24.2312 N   0  0  0  0  0  0
  -23.4333  -30.4693   21.5392 C   0  0  2  0  0  0
  -24.8925  -28.9145   20.1162 C   0  0  0  0  0  0
  -22.7522  -29.4560   22.4913 C   0  0  0  0  0  0
  -18.0291  -28.1359   22.8481 C   0  0  0  0  0  0
  -24.1488  -36.7307   23.2641 C   0  0  0  0  0  0
  -25.9765  -30.7661   21.3804 C   0  0  0  0  0  0
  -26.0589  -29.3852   20.7346 C   0  0  0  0  0  0
  -27.2351  -28.5666   20.7497 C   0  0  0  0  0  0
  -26.0608  -26.8663   19.4947 C   0  0  0  0  0  0
  -24.8999  -27.6636   19.4805 C   0  0  0  0  0  0
  -23.6589  -29.7921   20.1611 C   0  0  0  0  0  0
  -25.4112  -36.3108   24.0345 C   0  0  1  0  0  0
  -20.5896  -28.3680   23.1260 C   0  0  2  0  0  0
  -20.6775  -26.9387   22.5397 C   0  0  0  0  0  0
  -19.5748  -26.6349   21.5200 C   0  0  0  0  0  0
  -18.1930  -26.7896   22.1604 C   0  0  0  0  0  0
  -19.1539  -28.8834   23.2859 C   0  0  0  0  0  0
  -18.9456  -30.1444   23.8883 C   0  0  0  0  0  0
  -17.6449  -30.6569   24.0552 C   0  0  0  0  0  0
  -25.9050  -34.9466   23.5146 C   0  0  0  0  0  0
  -16.5348  -29.9065   23.6321 C   0  0  0  0  0  0
  -16.7266  -28.6463   23.0367 C   0  0  0  0  0  0
  -26.4465  -31.6593   25.0757 C   0  0  0  0  0  0
  -25.3702  -31.3686   26.1480 C   0  0  0  0  0  0
  -27.0331  -30.3044   24.6188 C   0  0  0  0  0  0
  -27.6055  -32.4298   25.7490 C   0  0  0  0  0  0
  -27.5592  -37.1809   24.8457 C   0  0  0  0  0  0
  -21.4216  -29.3054   22.3680 N   0  0  0  0  0  0
  -26.4297  -37.3790   23.9412 N   0  0  0  0  0  0
  -24.6987  -31.0502   22.0958 N   0  0  0  0  0  0
  -23.4199  -28.8079   23.3000 O   0  0  0  0  0  0
  -28.3262  -26.3444   20.2265 O   0  0  0  0  0  0
  -26.5601  -34.8913   22.4704 O   0  0  0  0  0  0
  -23.5429  -32.1345   23.7267 O   0  0  0  0  0  0
  -28.7693  -20.6533   22.8549 C   0  0  0  0  0  0
  -28.6436  -22.7862   22.8291 C   0  0  0  0  0  0
  -29.0974  -21.0315   21.5665 C   0  0  0  0  0  0
  -30.7329  -17.2231   22.3432 C   0  0  0  0  0  0
  -29.6482  -16.1448   22.3720 C   0  0  0  0  0  0
  -30.3287  -17.4356   20.8908 C   0  0  2  0  0  0
  -29.2027  -18.5808   20.5903 C   0  0  0  0  0  0
  -29.0866  -23.6654   20.5594 C   0  0  0  0  0  0
  -28.0423  -24.9264   20.6675 C   0  0  0  0  0  0
  -28.5077  -21.7569   23.6491 N   0  0  0  0  0  0
  -28.9306  -22.4967   21.5424 N   0  0  0  0  0  0
  -29.9175  -15.9329   20.9404 N   0  0  0  0  0  0
  -29.5394  -20.0786   20.5657 N   0  0  0  0  0  0
  -31.4713  -12.6416   19.1696 H   0  0  0  0  0  0
  -30.4015  -11.5210   19.9562 H   0  0  0  0  0  0
  -29.8028  -11.7658   17.5288 H   0  0  0  0  0  0
  -29.6474  -13.4971   17.7246 H   0  0  0  0  0  0
  -27.8797  -11.3126   18.8756 H   0  0  0  0  0  0
  -27.3925  -12.5830   17.7873 H   0  0  0  0  0  0
  -27.6363  -14.2727   19.5058 H   0  0  0  0  0  0
  -28.7356  -12.1548   21.4016 H   0  0  0  0  0  0
  -28.3953  -13.8122   21.8227 H   0  0  0  0  0  0
  -25.2801   -9.5737   22.4746 H   0  0  0  0  0  0
  -24.0059   -7.4651   22.7458 H   0  0  0  0  0  0
  -21.0861   -8.8741   19.8926 H   0  0  0  0  0  0
  -22.3682  -10.9673   19.6146 H   0  0  0  0  0  0
  -21.2007   -7.6139   23.9718 H   0  0  0  0  0  0
  -21.1489   -6.0494   25.9077 H   0  0  0  0  0  0
  -22.0609   -2.7596   23.2829 H   0  0  0  0  0  0
  -22.4095  -11.9925   22.4899 H   0  0  0  0  0  0
  -21.1060  -13.1215   22.2467 H   0  0  0  0  0  0
  -24.6642  -15.8531   20.5598 H   0  0  0  0  0  0
  -26.2807  -15.6388   20.1247 H   0  0  0  0  0  0
  -26.7161  -32.5457   23.1129 H   0  0  0  0  0  0
  -25.0124  -33.9736   25.0503 H   0  0  0  0  0  0
  -22.7290  -31.2889   21.3819 H   0  0  0  0  0  0
  -23.3773  -35.9615   23.3271 H   0  0  0  0  0  0
  -24.3583  -36.8952   22.2062 H   0  0  0  0  0  0
  -23.7194  -37.6482   23.6664 H   0  0  0  0  0  0
  -26.1100  -31.5163   20.6014 H   0  0  0  0  0  0
  -26.8566  -30.8336   22.0098 H   0  0  0  0  0  0
  -28.1225  -28.9174   21.2586 H   0  0  0  0  0  0
  -26.0210  -25.9199   18.9790 H   0  0  0  0  0  0
  -24.0150  -27.2998   18.9783 H   0  0  0  0  0  0
  -23.7773  -30.5572   19.3951 H   0  0  0  0  0  0
  -22.7856  -29.2112   19.8621 H   0  0  0  0  0  0
  -25.1287  -36.2002   25.0833 H   0  0  0  0  0  0
  -20.9976  -28.3241   24.1384 H   0  0  0  0  0  0
  -20.5655  -26.2294   23.3608 H   0  0  0  0  0  0
  -21.6649  -26.7405   22.1200 H   0  0  0  0  0  0
  -19.6929  -25.6249   21.1262 H   0  0  0  0  0  0
  -19.6708  -27.3145   20.6717 H   0  0  0  0  0  0
  -17.4214  -26.6643   21.4001 H   0  0  0  0  0  0
  -18.0339  -26.0032   22.8993 H   0  0  0  0  0  0
  -19.7941  -30.7260   24.2249 H   0  0  0  0  0  0
  -17.5010  -31.6253   24.5144 H   0  0  0  0  0  0
  -15.5349  -30.2968   23.7645 H   0  0  0  0  0  0
  -15.8658  -28.0772   22.7122 H   0  0  0  0  0  0
  -24.5879  -30.7040   25.7772 H   0  0  0  0  0  0
  -24.8886  -32.2838   26.4953 H   0  0  0  0  0  0
  -25.8040  -30.8811   27.0233 H   0  0  0  0  0  0
  -26.2929  -29.6775   24.1219 H   0  0  0  0  0  0
  -27.4068  -29.7294   25.4668 H   0  0  0  0  0  0
  -27.8761  -30.4352   23.9403 H   0  0  0  0  0  0
  -27.2721  -33.3605   26.2073 H   0  0  0  0  0  0
  -28.3848  -32.6837   25.0296 H   0  0  0  0  0  0
  -28.0741  -31.8421   26.5384 H   0  0  0  0  0  0
  -28.2594  -38.0125   24.7566 H   0  0  0  0  0  0
  -28.1115  -36.2676   24.6230 H   0  0  0  0  0  0
  -27.2324  -37.1394   25.8856 H   0  0  0  0  0  0
  -20.9411  -29.8843   21.6947 H   0  0  0  0  0  0
  -26.0212  -38.2875   24.1406 H   0  0  0  0  0  0
  -28.7523  -19.6660   23.2972 H   0  0  0  0  0  0
  -28.5364  -23.7921   23.2051 H   0  0  0  0  0  0
  -31.7453  -16.8218   22.4516 H   0  0  0  0  0  0
  -30.5653  -18.0708   23.0092 H   0  0  0  0  0  0
  -28.6480  -16.5380   22.5740 H   0  0  0  0  0  0
  -29.8807  -15.3162   23.0440 H   0  0  0  0  0  0
  -31.2184  -17.5903   20.2750 H   0  0  0  0  0  0
  -28.3628  -18.4485   21.2717 H   0  0  0  0  0  0
  -28.7701  -18.3583   19.6116 H   0  0  0  0  0  0
  -30.0926  -24.0619   20.7048 H   0  0  0  0  0  0
  -29.0737  -23.2666   19.5470 H   0  0  0  0  0  0
  -27.7555  -25.0509   21.7071 H   0  0  0  0  0  0
  -27.1297  -24.5700   20.1941 H   0  0  0  0  0  0
  -29.8545  -20.4234   19.6618 H   0  0  0  0  0  0
  1 25  1  0  0  0
  1 30  2  0  0  0
  1 82  1  0  0  0
  2  3  1  0  0  0
  2 25  1  0  0  0
  2 84  1  0  0  0
  2 85  1  0  0  0
  3  4  1  0  0  0
  3 86  1  0  0  0
  3 87  1  0  0  0
  4  5  1  0  0  0
  4 88  1  0  0  0
  4 89  1  0  0  0
  5  6  1  0  0  0
  5 26  1  0  0  0
  5 90  1  0  0  0
  6 25  1  0  0  0
  6 91  1  0  0  0
  6 92  1  0  0  0
  7  8  2  0  0  0
  7 26  1  0  0  0
  7 29  1  0  0  0
  8  9  1  0  0  0
  8 22  1  0  0  0
  9 10  1  0  0  0
  9 27  2  0  0  0
 10 11  2  0  0  0
 10 15  1  0  0  0
 11 12  1  0  0  0
 11 93  1  0  0  0
 12 13  2  0  0  0
 12 94  1  0  0  0
 13 14  1  0  0  0
 13 31  1  0  0  0
 14 15  2  0  0  0
 14 95  1  0  0  0
 15 96  1  0  0  0
 16 17  2  0  0  0
 16 21  1  0  0  0
 16 31  1  0  0  0
 17 18  1  0  0  0
 17 97  1  0  0  0
 18 19  2  0  0  0
 18 98  1  0  0  0
 19 20  1  0  0  0
 19 24  1  0  0  0
 20 21  2  0  0  0
 20 99  1  0  0  0
 21 23  1  0  0  0
 22 28  1  0  0  0
 22 32  2  0  0  0
 26 27  1  0  0  0
 28100  1  0  0  0
 28101  1  0  0  0
 29102  1  0  0  0
 29103  1  0  0  0
 33 34  1  0  0  0
 33 66  1  0  0  0
 33 70  2  0  0  0
 34 36  1  0  0  0
 34 59  1  0  0  0
 34104  1  0  0  0
 35 44  2  0  0  0
 35 45  1  0  0  0
 35 68  1  0  0  0
 36 56  1  0  0  0
 36105  1  0  0  0
 37 39  1  0  0  0
 37 47  1  0  0  0
 37 66  1  0  0  0
 37106  1  0  0  0
 38 43  2  0  0  0
 38 46  1  0  0  0
 38 47  1  0  0  0
 39 64  1  0  0  0
 39 67  2  0  0  0
 40 52  1  0  0  0
 40 53  2  0  0  0
 40 58  1  0  0  0
 41107  1  0  0  0
 41108  1  0  0  0
 41109  1  0  0  0
 41 48  1  0  0  0
 42 43  1  0  0  0
 42 66  1  0  0  0
 42110  1  0  0  0
 42111  1  0  0  0
 43 44  1  0  0  0
 44112  1  0  0  0
 45 46  2  0  0  0
 45113  1  0  0  0
 46114  1  0  0  0
 47115  1  0  0  0
 47116  1  0  0  0
 48 56  1  0  0  0
 48 65  1  0  0  0
 48117  1  0  0  0
 49 50  1  0  0  0
 49 53  1  0  0  0
 49 64  1  0  0  0
 49118  1  0  0  0
 50 51  1  0  0  0
 50119  1  0  0  0
 50120  1  0  0  0
 51 52  1  0  0  0
 51121  1  0  0  0
 51122  1  0  0  0
 52123  1  0  0  0
 52124  1  0  0  0
 53 54  1  0  0  0
 54 55  2  0  0  0
 54125  1  0  0  0
 55 57  1  0  0  0
 55126  1  0  0  0
 56 69  2  0  0  0
 57 58  2  0  0  0
 57127  1  0  0  0
 58128  1  0  0  0
 59 60  1  0  0  0
 59 61  1  0  0  0
 59 62  1  0  0  0
 60129  1  0  0  0
 60130  1  0  0  0
 60131  1  0  0  0
 61132  1  0  0  0
 61133  1  0  0  0
 61134  1  0  0  0
 62135  1  0  0  0
 62136  1  0  0  0
 62137  1  0  0  0
 63 65  1  0  0  0
 63138  1  0  0  0
 63139  1  0  0  0
 63140  1  0  0  0
 64141  1  0  0  0
 65142  1  0  0  0
 68 79  1  0  0  0
 71 73  2  0  0  0
 71 80  1  0  0  0
 71143  1  0  0  0
 72 80  2  0  0  0
 72 81  1  0  0  0
 72144  1  0  0  0
 73 81  1  0  0  0
 73 83  1  0  0  0
 74 75  1  0  0  0
 74 76  1  0  0  0
 74145  1  0  0  0
 74146  1  0  0  0
 75 82  1  0  0  0
 75147  1  0  0  0
 75148  1  0  0  0
 76 77  1  0  0  0
 76 82  1  0  0  0
 76149  1  0  0  0
 77 83  1  0  0  0
 77150  1  0  0  0
 77151  1  0  0  0
 78 79  1  0  0  0
 78 81  1  0  0  0
 78152  1  0  0  0
 78153  1  0  0  0
 79154  1  0  0  0
 79155  1  0  0  0
 83156  1  0  0  0
M  ISO  4   1 100  68 101  79 101  82 100
M  END
> <chiral flag>
0

> <version>
0

> <s_m_source_file>
/data/baiqing/PycharmProjects/Reinvent-master-3.2/result/LINK_invent/BTK/process_docking_weight1_custom_sum_contain_oxygen_bond_distance_aromatic_linkinvent_7_9_3/rearranged_h_0190.sdf

> <i_m_source_file_index>
94

> <r_mmod_Potential_Energy-OPLS-2005>
358.983734130859

> <r_mmod_Stretch_Energy-OPLS-2005>
165.506057739258

> <r_mmod_Bend_Energy-OPLS-2005>
225.477127075195

> <r_mmod_Torsional_Energy-OPLS-2005>
297.839080810547

> <r_mmod_Improper_Torsional_Energy-OPLS-2005>
12.4978494644165

> <r_mmod_Van_der_Waal_Energy-OPLS-2005>
122.372825622559

> <r_mmod_Electrostatic_Energy-OPLS-2005>
-322.46142578125

> <r_mmod_Solvation_Energy-OPLS-2005>
-237.190078735352

> <b_mmod_Minimization_Converged-OPLS-2005>
0

> <r_mmod_RMS_Derivative-OPLS-2005>
5.32795429229736

$$$$
94
                    3D
 Structure written by MMmdl.
162171  0  0  1  0            999 V2000
  -30.6280  -14.7273   20.4279 C   0  0  0  0  0  0
  -30.4309  -12.4390   19.4598 C   0  0  0  0  0  0
  -29.5054  -12.4919   18.2255 C   0  0  0  0  0  0
  -28.0306  -12.3255   18.6441 C   0  0  0  0  0  0
  -27.6376  -13.2228   19.8490 C   0  0  2  0  0  0
  -28.6916  -13.1743   20.9757 C   0  0  0  0  0  0
  -25.2518  -13.8168   20.5736 C   0  0  0  0  0  0
  -24.1793  -13.0428   20.9218 C   0  0  0  0  0  0
  -24.6375  -11.6902   20.8760 C   0  0  0  0  0  0
  -23.9050  -10.4285   21.0413 C   0  0  0  0  0  0
  -24.3609   -9.4201   21.9186 C   0  0  0  0  0  0
  -23.6290   -8.2236   22.0750 C   0  0  0  0  0  0
  -22.4270   -8.0275   21.3546 C   0  0  0  0  0  0
  -21.9904   -9.0246   20.4646 C   0  0  0  0  0  0
  -22.7227  -10.2126   20.3055 C   0  0  0  0  0  0
  -21.6856   -6.0728   22.5277 C   0  0  0  0  0  0
  -21.4016   -6.5633   23.8208 C   0  0  0  0  0  0
  -21.3658   -5.6788   24.9172 C   0  0  0  0  0  0
  -21.6043   -4.3050   24.7227 C   0  0  0  0  0  0
  -21.8821   -3.8141   23.4349 C   0  0  0  0  0  0
  -21.9195   -4.6956   22.3404 C   0  0  0  0  0  0
  -22.7816  -13.5225   21.1868 C   0  0  0  0  0  0
  -22.1664   -4.2141   21.0983 F   0  0  0  0  0  0
  -21.5629   -3.4534   25.7739 F   0  0  0  0  0  0
  -29.9893  -13.5098   20.3773 N   0  0  0  0  0  0
  -26.2928  -12.9348   20.3332 N   0  0  0  0  0  0
  -25.9306  -11.6503   20.5787 N   0  0  0  0  0  0
  -22.0454  -12.8221   22.0419 N   0  0  0  0  0  0
  -25.4247  -15.1894   20.4188 N   0  0  0  0  0  0
  -31.8424  -14.7989   20.2176 O   0  0  0  0  0  0
  -21.6641   -6.8869   21.4239 O   0  0  0  0  0  0
  -22.3506  -14.5526   20.6699 O   0  0  0  0  0  0
  -24.6303  -31.8571   23.2005 C   0  0  0  0  0  0
  -25.9135  -32.4762   23.8345 C   0  0  1  0  0  0
  -27.2162  -27.2745   20.1198 C   0  0  0  0  0  0
  -25.5936  -33.8563   24.2267 N   0  0  0  0  0  0
  -23.4257  -30.4821   21.5440 C   0  0  2  0  0  0
  -24.8718  -28.9358   20.1081 C   0  0  0  0  0  0
  -22.7498  -29.4617   22.4917 C   0  0  0  0  0  0
  -18.0291  -28.1386   22.8484 C   0  0  0  0  0  0
  -24.1491  -36.7290   23.2639 C   0  0  0  0  0  0
  -25.9724  -30.7728   21.3805 C   0  0  0  0  0  0
  -26.0439  -29.3986   20.7190 C   0  0  0  0  0  0
  -27.2187  -28.5807   20.7151 C   0  0  0  0  0  0
  -26.0205  -26.8854   19.4702 C   0  0  0  0  0  0
  -24.8650  -27.6868   19.4730 C   0  0  0  0  0  0
  -23.6424  -29.8206   20.1584 C   0  0  0  0  0  0
  -25.4116  -36.3076   24.0326 C   0  0  1  0  0  0
  -20.5897  -28.3697   23.1268 C   0  0  2  0  0  0
  -20.6779  -26.9417   22.5405 C   0  0  0  0  0  0
  -19.5755  -26.6383   21.5211 C   0  0  0  0  0  0
  -18.1935  -26.7927   22.1623 C   0  0  0  0  0  0
  -19.1545  -28.8859   23.2871 C   0  0  0  0  0  0
  -18.9466  -30.1459   23.8891 C   0  0  0  0  0  0
  -17.6465  -30.6586   24.0564 C   0  0  0  0  0  0
  -25.9056  -34.9445   23.5097 C   0  0  0  0  0  0
  -16.5357  -29.9082   23.6334 C   0  0  0  0  0  0
  -16.7278  -28.6502   23.0351 C   0  0  0  0  0  0
  -26.4499  -31.6581   25.0730 C   0  0  0  0  0  0
  -25.3721  -31.3734   26.1448 C   0  0  0  0  0  0
  -27.0349  -30.2997   24.6225 C   0  0  0  0  0  0
  -27.6052  -32.4325   25.7502 C   0  0  0  0  0  0
  -27.5580  -37.1802   24.8467 C   0  0  0  0  0  0
  -21.4208  -29.3048   22.3660 N   0  0  0  0  0  0
  -26.4294  -37.3770   23.9405 N   0  0  0  0  0  0
  -24.6952  -31.0549   22.0978 N   0  0  0  0  0  0
  -23.4206  -28.8146   23.3001 O   0  0  0  0  0  0
  -28.3074  -26.3760   20.1905 O   0  0  0  0  0  0
  -26.5631  -34.8916   22.4668 O   0  0  0  0  0  0
  -23.5457  -32.1390   23.7308 O   0  0  0  0  0  0
  -30.0740  -17.1597   21.1809 C   0  0  0  0  0  0
  -29.4489  -16.4237   19.0855 C   0  0  0  0  0  0
  -28.9165  -18.1594   20.7900 C   0  0  2  0  0  0
  -28.6663  -17.7172   19.3665 C   0  0  1  0  0  0
  -28.8127  -19.6415   20.1659 C   0  0  1  0  0  0
  -29.6531  -21.0899   22.1197 C   0  0  0  0  0  0
  -28.7307  -19.4966   17.7199 C   0  0  0  0  0  0
  -29.0541  -23.7388   20.4416 C   0  0  0  0  0  0
  -28.0442  -24.9111   19.9784 C   0  0  0  0  0  0
  -29.4384  -21.0633   20.5986 C   0  0  2  0  0  0
  -29.8492  -15.8794   20.4044 N   0  0  0  0  0  0
  -29.3106  -18.9826   18.9560 N   0  0  0  0  0  0
  -28.6192  -22.2881   20.1439 N   0  3  0  0  0  0
  -31.4716  -12.5598   19.1554 H   0  0  0  0  0  0
  -30.3706  -11.4665   19.9507 H   0  0  0  0  0  0
  -29.7808  -11.7109   17.5149 H   0  0  0  0  0  0
  -29.6391  -13.4399   17.7023 H   0  0  0  0  0  0
  -27.8834  -11.2768   18.9052 H   0  0  0  0  0  0
  -27.3724  -12.5200   17.7960 H   0  0  0  0  0  0
  -27.6112  -14.2395   19.4697 H   0  0  0  0  0  0
  -28.7265  -12.1873   21.4389 H   0  0  0  0  0  0
  -28.4369  -13.8820   21.7666 H   0  0  0  0  0  0
  -25.2755   -9.5681   22.4757 H   0  0  0  0  0  0
  -24.0002   -7.4628   22.7465 H   0  0  0  0  0  0
  -21.0835   -8.8763   19.8952 H   0  0  0  0  0  0
  -22.3689  -10.9664   19.6159 H   0  0  0  0  0  0
  -21.2006   -7.6141   23.9710 H   0  0  0  0  0  0
  -21.1479   -6.0518   25.9075 H   0  0  0  0  0  0
  -22.0602   -2.7604   23.2853 H   0  0  0  0  0  0
  -22.4084  -11.9898   22.4827 H   0  0  0  0  0  0
  -21.1059  -13.1228   22.2597 H   0  0  0  0  0  0
  -24.6646  -15.8488   20.5454 H   0  0  0  0  0  0
  -26.2935  -15.6303   20.1468 H   0  0  0  0  0  0
  -26.7201  -32.5416   23.1086 H   0  0  0  0  0  0
  -25.0077  -33.9705   25.0409 H   0  0  0  0  0  0
  -22.7214  -31.3045   21.4008 H   0  0  0  0  0  0
  -23.3753  -35.9625   23.3304 H   0  0  0  0  0  0
  -24.3587  -36.8911   22.2055 H   0  0  0  0  0  0
  -23.7244  -37.6490   23.6663 H   0  0  0  0  0  0
  -26.1146  -31.5355   20.6132 H   0  0  0  0  0  0
  -26.8488  -30.8175   22.0154 H   0  0  0  0  0  0
  -28.1137  -28.9286   21.2115 H   0  0  0  0  0  0
  -25.9378  -25.9377   18.9603 H   0  0  0  0  0  0
  -23.9696  -27.3302   18.9825 H   0  0  0  0  0  0
  -23.7651  -30.5994   19.4046 H   0  0  0  0  0  0
  -22.7608  -29.2543   19.8529 H   0  0  0  0  0  0
  -25.1297  -36.1927   25.0818 H   0  0  0  0  0  0
  -20.9991  -28.3275   24.1389 H   0  0  0  0  0  0
  -20.5678  -26.2312   23.3609 H   0  0  0  0  0  0
  -21.6643  -26.7440   22.1199 H   0  0  0  0  0  0
  -19.6914  -25.6293   21.1241 H   0  0  0  0  0  0
  -19.6682  -27.3193   20.6742 H   0  0  0  0  0  0
  -17.4200  -26.6676   21.4028 H   0  0  0  0  0  0
  -18.0336  -26.0069   22.9022 H   0  0  0  0  0  0
  -19.7942  -30.7279   24.2252 H   0  0  0  0  0  0
  -17.5018  -31.6264   24.5167 H   0  0  0  0  0  0
  -15.5357  -30.2979   23.7658 H   0  0  0  0  0  0
  -15.8681  -28.0817   22.7065 H   0  0  0  0  0  0
  -24.5900  -30.7074   25.7778 H   0  0  0  0  0  0
  -24.8903  -32.2906   26.4852 H   0  0  0  0  0  0
  -25.8030  -30.8926   27.0240 H   0  0  0  0  0  0
  -26.2937  -29.6740   24.1235 H   0  0  0  0  0  0
  -27.4011  -29.7259   25.4751 H   0  0  0  0  0  0
  -27.8826  -30.4265   23.9485 H   0  0  0  0  0  0
  -27.2656  -33.3631   26.2062 H   0  0  0  0  0  0
  -28.3866  -32.6876   25.0331 H   0  0  0  0  0  0
  -28.0716  -31.8463   26.5431 H   0  0  0  0  0  0
  -28.2596  -38.0100   24.7509 H   0  0  0  0  0  0
  -28.1071  -36.2628   24.6293 H   0  0  0  0  0  0
  -27.2300  -37.1455   25.8872 H   0  0  0  0  0  0
  -20.9387  -29.8786   21.6881 H   0  0  0  0  0  0
  -26.0175  -38.2847   24.1392 H   0  0  0  0  0  0
  -30.0708  -16.9519   22.2516 H   0  0  0  0  0  0
  -31.0542  -17.5736   20.9367 H   0  0  0  0  0  0
  -30.3388  -16.6195   18.4835 H   0  0  0  0  0  0
  -28.8478  -15.7163   18.5180 H   0  0  0  0  0  0
  -28.0334  -17.9699   21.4025 H   0  0  0  0  0  0
  -27.6031  -17.7020   19.1093 H   0  0  0  0  0  0
  -27.7376  -19.7991   20.0375 H   0  0  0  0  0  0
  -30.1894  -21.9826   22.4388 H   0  0  0  0  0  0
  -30.2453  -20.2316   22.4375 H   0  0  0  0  0  0
  -28.7049  -21.0511   22.6562 H   0  0  0  0  0  0
  -29.1223  -20.4891   17.4959 H   0  0  0  0  0  0
  -27.6419  -19.5605   17.7618 H   0  0  0  0  0  0
  -28.9931  -18.8481   16.8827 H   0  0  0  0  0  0
  -29.2085  -23.8441   21.5145 H   0  0  0  0  0  0
  -30.0260  -23.9047   19.9771 H   0  0  0  0  0  0
  -27.0962  -24.6807   20.4670 H   0  0  0  0  0  0
  -27.8757  -24.7790   18.9093 H   0  0  0  0  0  0
  -30.4245  -21.1593   20.1409 H   0  0  0  0  0  0
  -28.5285  -22.2102   19.1429 H   0  0  0  0  0  0
  -27.6898  -22.1695   20.5178 H   0  0  0  0  0  0
  1 25  1  0  0  0
  1 30  2  0  0  0
  1 81  1  0  0  0
  2  3  1  0  0  0
  2 25  1  0  0  0
  2 84  1  0  0  0
  2 85  1  0  0  0
  3  4  1  0  0  0
  3 86  1  0  0  0
  3 87  1  0  0  0
  4  5  1  0  0  0
  4 88  1  0  0  0
  4 89  1  0  0  0
  5  6  1  0  0  0
  5 26  1  0  0  0
  5 90  1  0  0  0
  6 25  1  0  0  0
  6 91  1  0  0  0
  6 92  1  0  0  0
  7  8  2  0  0  0
  7 26  1  0  0  0
  7 29  1  0  0  0
  8  9  1  0  0  0
  8 22  1  0  0  0
  9 10  1  0  0  0
  9 27  2  0  0  0
 10 11  2  0  0  0
 10 15  1  0  0  0
 11 12  1  0  0  0
 11 93  1  0  0  0
 12 13  2  0  0  0
 12 94  1  0  0  0
 13 14  1  0  0  0
 13 31  1  0  0  0
 14 15  2  0  0  0
 14 95  1  0  0  0
 15 96  1  0  0  0
 16 17  2  0  0  0
 16 21  1  0  0  0
 16 31  1  0  0  0
 17 18  1  0  0  0
 17 97  1  0  0  0
 18 19  2  0  0  0
 18 98  1  0  0  0
 19 20  1  0  0  0
 19 24  1  0  0  0
 20 21  2  0  0  0
 20 99  1  0  0  0
 21 23  1  0  0  0
 22 28  1  0  0  0
 22 32  2  0  0  0
 26 27  1  0  0  0
 28100  1  0  0  0
 28101  1  0  0  0
 29102  1  0  0  0
 29103  1  0  0  0
 33 34  1  0  0  0
 33 66  1  0  0  0
 33 70  2  0  0  0
 34 36  1  0  0  0
 34 59  1  0  0  0
 34104  1  0  0  0
 35 44  2  0  0  0
 35 45  1  0  0  0
 35 68  1  0  0  0
 36 56  1  0  0  0
 36105  1  0  0  0
 37 39  1  0  0  0
 37 47  1  0  0  0
 37 66  1  0  0  0
 37106  1  0  0  0
 38 43  2  0  0  0
 38 46  1  0  0  0
 38 47  1  0  0  0
 39 64  1  0  0  0
 39 67  2  0  0  0
 40 52  1  0  0  0
 40 53  2  0  0  0
 40 58  1  0  0  0
 41107  1  0  0  0
 41108  1  0  0  0
 41109  1  0  0  0
 41 48  1  0  0  0
 42 43  1  0  0  0
 42 66  1  0  0  0
 42110  1  0  0  0
 42111  1  0  0  0
 43 44  1  0  0  0
 44112  1  0  0  0
 45 46  2  0  0  0
 45113  1  0  0  0
 46114  1  0  0  0
 47115  1  0  0  0
 47116  1  0  0  0
 48 56  1  0  0  0
 48 65  1  0  0  0
 48117  1  0  0  0
 49 50  1  0  0  0
 49 53  1  0  0  0
 49 64  1  0  0  0
 49118  1  0  0  0
 50 51  1  0  0  0
 50119  1  0  0  0
 50120  1  0  0  0
 51 52  1  0  0  0
 51121  1  0  0  0
 51122  1  0  0  0
 52123  1  0  0  0
 52124  1  0  0  0
 53 54  1  0  0  0
 54 55  2  0  0  0
 54125  1  0  0  0
 55 57  1  0  0  0
 55126  1  0  0  0
 56 69  2  0  0  0
 57 58  2  0  0  0
 57127  1  0  0  0
 58128  1  0  0  0
 59 60  1  0  0  0
 59 61  1  0  0  0
 59 62  1  0  0  0
 60129  1  0  0  0
 60130  1  0  0  0
 60131  1  0  0  0
 61132  1  0  0  0
 61133  1  0  0  0
 61134  1  0  0  0
 62135  1  0  0  0
 62136  1  0  0  0
 62137  1  0  0  0
 63 65  1  0  0  0
 63138  1  0  0  0
 63139  1  0  0  0
 63140  1  0  0  0
 64141  1  0  0  0
 65142  1  0  0  0
 68 79  1  0  0  0
 71 81  1  0  0  0
 71143  1  0  0  0
 71144  1  0  0  0
 71 73  1  0  0  0
 72 81  1  0  0  0
 72145  1  0  0  0
 72146  1  0  0  0
 72 74  1  0  0  0
 73 74  1  0  0  0
 73 75  1  0  0  0
 73147  1  0  0  0
 74 82  1  0  0  0
 74148  1  0  0  0
 75 80  1  0  0  0
 75 82  1  0  0  0
 75149  1  0  0  0
 76150  1  0  0  0
 76151  1  0  0  0
 76152  1  0  0  0
 76 80  1  0  0  0
 77 82  1  0  0  0
 77153  1  0  0  0
 77154  1  0  0  0
 77155  1  0  0  0
 78 79  1  0  0  0
 78 83  1  0  0  0
 78156  1  0  0  0
 78157  1  0  0  0
 79158  1  0  0  0
 79159  1  0  0  0
 80 83  1  0  0  0
 80160  1  0  0  0
 83161  1  0  0  0
 83162  1  0  0  0
M  CHG  1  83   1
M  ISO  4   1 100  68 101  79 101  81 100
M  END
> <chiral flag>
0

> <version>
0

> <s_m_source_file>
/data/baiqing/PycharmProjects/Reinvent-master-3.2/result/LINK_invent/BTK/process_docking_weight1_custom_sum_contain_oxygen_bond_distance_aromatic_linkinvent_7_9_3/rearranged_h_0190.sdf

> <i_m_source_file_index>
95

> <r_mmod_Potential_Energy-OPLS-2005>
328.366455078125

> <r_mmod_Stretch_Energy-OPLS-2005>
114.963310241699

> <r_mmod_Bend_Energy-OPLS-2005>
264.019683837891

> <r_mmod_Torsional_Energy-OPLS-2005>
381.358764648438

> <r_mmod_Improper_Torsional_Energy-OPLS-2005>
11.8565912246704

> <r_mmod_Van_der_Waal_Energy-OPLS-2005>
119.333572387695

> <r_mmod_Electrostatic_Energy-OPLS-2005>
-206.616165161133

> <r_mmod_Solvation_Energy-OPLS-2005>
-439.951171875

> <b_mmod_Minimization_Converged-OPLS-2005>
0

> <r_mmod_RMS_Derivative-OPLS-2005>
0.911718845367432

$$$$
95
                    3D
 Structure written by MMmdl.
147155  0  0  1  0            999 V2000
  -30.5290  -15.0761   20.3984 C   0  0  0  0  0  0
  -30.4294  -12.6674   19.5276 C   0  0  0  0  0  0
  -29.5354  -12.5601   18.2698 C   0  0  0  0  0  0
  -28.0620  -12.3393   18.6673 C   0  0  0  0  0  0
  -27.6164  -13.2737   19.8229 C   0  0  2  0  0  0
  -28.6519  -13.3711   20.9643 C   0  0  0  0  0  0
  -25.2374  -13.8258   20.5709 C   0  0  0  0  0  0
  -24.1727  -13.0440   20.9230 C   0  0  0  0  0  0
  -24.6382  -11.6940   20.8730 C   0  0  0  0  0  0
  -23.9086  -10.4294   21.0384 C   0  0  0  0  0  0
  -24.3630   -9.4207   21.9163 C   0  0  0  0  0  0
  -23.6300   -8.2244   22.0744 C   0  0  0  0  0  0
  -22.4273   -8.0290   21.3545 C   0  0  0  0  0  0
  -21.9911   -9.0259   20.4649 C   0  0  0  0  0  0
  -22.7251  -10.2123   20.3046 C   0  0  0  0  0  0
  -21.6850   -6.0729   22.5273 C   0  0  0  0  0  0
  -21.4022   -6.5634   23.8206 C   0  0  0  0  0  0
  -21.3669   -5.6794   24.9166 C   0  0  0  0  0  0
  -21.6038   -4.3052   24.7223 C   0  0  0  0  0  0
  -21.8819   -3.8142   23.4344 C   0  0  0  0  0  0
  -21.9187   -4.6955   22.3397 C   0  0  0  0  0  0
  -22.7741  -13.5188   21.1892 C   0  0  0  0  0  0
  -22.1660   -4.2146   21.0974 F   0  0  0  0  0  0
  -21.5626   -3.4533   25.7734 F   0  0  0  0  0  0
  -29.9169  -13.8074   20.3569 N   0  0  0  0  0  0
  -26.2815  -12.9545   20.3163 N   0  0  0  0  0  0
  -25.9319  -11.6646   20.5669 N   0  0  0  0  0  0
  -22.0407  -12.8173   22.0455 N   0  0  0  0  0  0
  -25.3992  -15.1994   20.4142 N   0  0  0  0  0  0
  -31.7452  -15.0487   20.1670 O   0  0  0  0  0  0
  -21.6642   -6.8869   21.4235 O   0  0  0  0  0  0
  -22.3410  -14.5486   20.6732 O   0  0  0  0  0  0
  -24.6523  -31.8344   23.1788 C   0  0  0  0  0  0
  -25.9248  -32.4647   23.8212 C   0  0  1  0  0  0
  -27.2204  -27.0460   20.1743 C   0  0  0  0  0  0
  -25.5958  -33.8456   24.2139 N   0  0  0  0  0  0
  -23.4604  -30.4520   21.5239 C   0  0  2  0  0  0
  -24.9136  -28.8578   20.1123 C   0  0  0  0  0  0
  -22.7603  -29.4505   22.4796 C   0  0  0  0  0  0
  -18.0311  -28.1409   22.8464 C   0  0  0  0  0  0
  -24.1498  -36.7248   23.2644 C   0  0  0  0  0  0
  -26.0214  -30.6828   21.3873 C   0  0  0  0  0  0
  -26.0933  -29.2823   20.7362 C   0  0  0  0  0  0
  -27.2452  -28.3945   20.7454 C   0  0  0  0  0  0
  -26.0117  -26.7416   19.5095 C   0  0  0  0  0  0
  -24.8909  -27.6052   19.4810 C   0  0  0  0  0  0
  -23.6942  -29.7720   20.1477 C   0  0  0  0  0  0
  -25.4130  -36.3005   24.0310 C   0  0  1  0  0  0
  -20.5937  -28.3746   23.1209 C   0  0  2  0  0  0
  -20.6800  -26.9435   22.5415 C   0  0  0  0  0  0
  -19.5778  -26.6374   21.5221 C   0  0  0  0  0  0
  -18.1951  -26.7937   22.1615 C   0  0  0  0  0  0
  -19.1570  -28.8890   23.2831 C   0  0  0  0  0  0
  -18.9482  -30.1474   23.8870 C   0  0  0  0  0  0
  -17.6481  -30.6597   24.0555 C   0  0  0  0  0  0
  -25.9086  -34.9378   23.5041 C   0  0  0  0  0  0
  -16.5371  -29.9088   23.6329 C   0  0  0  0  0  0
  -16.7296  -28.6507   23.0349 C   0  0  0  0  0  0
  -26.4548  -31.6530   25.0675 C   0  0  0  0  0  0
  -25.3713  -31.3731   26.1357 C   0  0  0  0  0  0
  -27.0423  -30.2915   24.6291 C   0  0  0  0  0  0
  -27.6060  -32.4310   25.7478 C   0  0  0  0  0  0
  -27.5585  -37.1778   24.8457 C   0  0  0  0  0  0
  -21.4289  -29.3054   22.3555 N   0  0  0  0  0  0
  -26.4288  -37.3728   23.9412 N   0  0  0  0  0  0
  -24.7320  -31.0137   22.0851 N   0  0  0  0  0  0
  -23.4201  -28.8055   23.2986 O   0  0  0  0  0  0
  -28.2568  -26.0155   20.2473 O   0  0  0  0  0  0
  -26.5675  -34.8898   22.4626 O   0  0  0  0  0  0
  -23.5626  -32.1228   23.6974 O   0  0  0  0  0  0
  -31.8317  -19.3605   20.4245 C   0  0  0  0  0  0
  -30.9957  -20.4951   20.4017 C   0  0  0  0  0  0
  -29.6036  -20.3007   20.3914 C   0  0  0  0  0  0
  -30.1039  -17.8057   20.4431 C   0  0  0  0  0  0
  -29.0628  -23.0928   20.3889 C   0  0  0  0  0  0
  -27.9930  -24.4422   20.1521 C   0  0  0  0  0  0
  -31.4031  -18.0753   20.4443 N   0  0  0  0  0  0
  -29.1984  -18.9117   20.4196 N   0  0  0  0  0  0
  -28.7171  -21.5271   20.3497 N   0  0  0  0  0  0
  -29.7865  -16.3264   20.4871 N   0  0  0  0  0  0
  -31.5508  -21.7339   20.3981 F   0  0  0  0  0  0
  -31.4705  -12.8066   19.2333 H   0  0  0  0  0  0
  -30.4102  -11.7367   20.0972 H   0  0  0  0  0  0
  -29.8815  -11.7523   17.6247 H   0  0  0  0  0  0
  -29.6258  -13.4765   17.6846 H   0  0  0  0  0  0
  -27.9460  -11.2981   18.9662 H   0  0  0  0  0  0
  -27.4166  -12.4811   17.7984 H   0  0  0  0  0  0
  -27.5573  -14.2650   19.3723 H   0  0  0  0  0  0
  -28.7576  -12.4168   21.4841 H   0  0  0  0  0  0
  -28.3263  -14.0966   21.7113 H   0  0  0  0  0  0
  -25.2779   -9.5691   22.4742 H   0  0  0  0  0  0
  -24.0015   -7.4627   22.7451 H   0  0  0  0  0  0
  -21.0848   -8.8770   19.8953 H   0  0  0  0  0  0
  -22.3705  -10.9657   19.6152 H   0  0  0  0  0  0
  -21.2036   -7.6145   23.9717 H   0  0  0  0  0  0
  -21.1493   -6.0516   25.9076 H   0  0  0  0  0  0
  -22.0593   -2.7602   23.2836 H   0  0  0  0  0  0
  -22.4045  -11.9878   22.4897 H   0  0  0  0  0  0
  -21.1019  -13.1172   22.2658 H   0  0  0  0  0  0
  -24.6217  -15.8435   20.5181 H   0  0  0  0  0  0
  -26.2319  -15.6421   20.0485 H   0  0  0  0  0  0
  -26.7307  -32.5242   23.0931 H   0  0  0  0  0  0
  -25.0074  -33.9541   25.0269 H   0  0  0  0  0  0
  -22.7668  -31.2807   21.3612 H   0  0  0  0  0  0
  -23.3761  -35.9583   23.3281 H   0  0  0  0  0  0
  -24.3579  -36.8912   22.2064 H   0  0  0  0  0  0
  -23.7263  -37.6438   23.6708 H   0  0  0  0  0  0
  -26.1830  -31.4247   20.6045 H   0  0  0  0  0  0
  -26.8891  -30.7431   22.0320 H   0  0  0  0  0  0
  -28.1434  -28.7122   21.2561 H   0  0  0  0  0  0
  -25.9002  -25.7812   19.0270 H   0  0  0  0  0  0
  -23.9911  -27.2757   18.9797 H   0  0  0  0  0  0
  -23.8407  -30.5400   19.3875 H   0  0  0  0  0  0
  -22.8046  -29.2213   19.8364 H   0  0  0  0  0  0
  -25.1332  -36.1813   25.0802 H   0  0  0  0  0  0
  -21.0037  -28.3374   24.1327 H   0  0  0  0  0  0
  -20.5685  -26.2374   23.3651 H   0  0  0  0  0  0
  -21.6675  -26.7423   22.1236 H   0  0  0  0  0  0
  -19.6956  -25.6266   21.1292 H   0  0  0  0  0  0
  -19.6735  -27.3150   20.6720 H   0  0  0  0  0  0
  -17.4233  -26.6673   21.4007 H   0  0  0  0  0  0
  -18.0345  -26.0089   22.9016 H   0  0  0  0  0  0
  -19.7956  -30.7299   24.2247 H   0  0  0  0  0  0
  -17.5025  -31.6275   24.5163 H   0  0  0  0  0  0
  -15.5370  -30.2987   23.7661 H   0  0  0  0  0  0
  -15.8685  -28.0814   22.7087 H   0  0  0  0  0  0
  -24.5904  -30.7074   25.7667 H   0  0  0  0  0  0
  -24.8892  -32.2913   26.4713 H   0  0  0  0  0  0
  -25.7975  -30.8937   27.0177 H   0  0  0  0  0  0
  -26.3041  -29.6612   24.1314 H   0  0  0  0  0  0
  -27.4039  -29.7246   25.4881 H   0  0  0  0  0  0
  -27.8956  -30.4140   23.9616 H   0  0  0  0  0  0
  -27.2640  -33.3639   26.1977 H   0  0  0  0  0  0
  -28.3918  -32.6817   25.0338 H   0  0  0  0  0  0
  -28.0675  -31.8474   26.5457 H   0  0  0  0  0  0
  -28.2579  -38.0095   24.7515 H   0  0  0  0  0  0
  -28.1101  -36.2621   24.6268 H   0  0  0  0  0  0
  -27.2301  -37.1413   25.8857 H   0  0  0  0  0  0
  -20.9508  -29.8747   21.6707 H   0  0  0  0  0  0
  -26.0143  -38.2800   24.1398 H   0  0  0  0  0  0
  -32.9047  -19.4878   20.4314 H   0  0  0  0  0  0
  -29.5331  -23.2499   21.3610 H   0  0  0  0  0  0
  -29.8725  -23.2321   19.6713 H   0  0  0  0  0  0
  -27.1561  -24.2736   20.8292 H   0  0  0  0  0  0
  -27.5791  -24.2920   19.1544 H   0  0  0  0  0  0
  -27.7300  -21.3161   20.4342 H   0  0  0  0  0  0
  -28.8016  -16.1609   20.6010 H   0  0  0  0  0  0
  1 25  1  0  0  0
  1 30  2  0  0  0
  1 80  1  0  0  0
  2  3  1  0  0  0
  2 25  1  0  0  0
  2 82  1  0  0  0
  2 83  1  0  0  0
  3  4  1  0  0  0
  3 84  1  0  0  0
  3 85  1  0  0  0
  4  5  1  0  0  0
  4 86  1  0  0  0
  4 87  1  0  0  0
  5  6  1  0  0  0
  5 26  1  0  0  0
  5 88  1  0  0  0
  6 25  1  0  0  0
  6 89  1  0  0  0
  6 90  1  0  0  0
  7  8  2  0  0  0
  7 26  1  0  0  0
  7 29  1  0  0  0
  8  9  1  0  0  0
  8 22  1  0  0  0
  9 10  1  0  0  0
  9 27  2  0  0  0
 10 11  2  0  0  0
 10 15  1  0  0  0
 11 12  1  0  0  0
 11 91  1  0  0  0
 12 13  2  0  0  0
 12 92  1  0  0  0
 13 14  1  0  0  0
 13 31  1  0  0  0
 14 15  2  0  0  0
 14 93  1  0  0  0
 15 94  1  0  0  0
 16 17  2  0  0  0
 16 21  1  0  0  0
 16 31  1  0  0  0
 17 18  1  0  0  0
 17 95  1  0  0  0
 18 19  2  0  0  0
 18 96  1  0  0  0
 19 20  1  0  0  0
 19 24  1  0  0  0
 20 21  2  0  0  0
 20 97  1  0  0  0
 21 23  1  0  0  0
 22 28  1  0  0  0
 22 32  2  0  0  0
 26 27  1  0  0  0
 28 98  1  0  0  0
 28 99  1  0  0  0
 29100  1  0  0  0
 29101  1  0  0  0
 33 34  1  0  0  0
 33 66  1  0  0  0
 33 70  2  0  0  0
 34 36  1  0  0  0
 34 59  1  0  0  0
 34102  1  0  0  0
 35 44  2  0  0  0
 35 45  1  0  0  0
 35 68  1  0  0  0
 36 56  1  0  0  0
 36103  1  0  0  0
 37 39  1  0  0  0
 37 47  1  0  0  0
 37 66  1  0  0  0
 37104  1  0  0  0
 38 43  2  0  0  0
 38 46  1  0  0  0
 38 47  1  0  0  0
 39 64  1  0  0  0
 39 67  2  0  0  0
 40 52  1  0  0  0
 40 53  2  0  0  0
 40 58  1  0  0  0
 41105  1  0  0  0
 41106  1  0  0  0
 41107  1  0  0  0
 41 48  1  0  0  0
 42 43  1  0  0  0
 42 66  1  0  0  0
 42108  1  0  0  0
 42109  1  0  0  0
 43 44  1  0  0  0
 44110  1  0  0  0
 45 46  2  0  0  0
 45111  1  0  0  0
 46112  1  0  0  0
 47113  1  0  0  0
 47114  1  0  0  0
 48 56  1  0  0  0
 48 65  1  0  0  0
 48115  1  0  0  0
 49 50  1  0  0  0
 49 53  1  0  0  0
 49 64  1  0  0  0
 49116  1  0  0  0
 50 51  1  0  0  0
 50117  1  0  0  0
 50118  1  0  0  0
 51 52  1  0  0  0
 51119  1  0  0  0
 51120  1  0  0  0
 52121  1  0  0  0
 52122  1  0  0  0
 53 54  1  0  0  0
 54 55  2  0  0  0
 54123  1  0  0  0
 55 57  1  0  0  0
 55124  1  0  0  0
 56 69  2  0  0  0
 57 58  2  0  0  0
 57125  1  0  0  0
 58126  1  0  0  0
 59 60  1  0  0  0
 59 61  1  0  0  0
 59 62  1  0  0  0
 60127  1  0  0  0
 60128  1  0  0  0
 60129  1  0  0  0
 61130  1  0  0  0
 61131  1  0  0  0
 61132  1  0  0  0
 62133  1  0  0  0
 62134  1  0  0  0
 62135  1  0  0  0
 63 65  1  0  0  0
 63136  1  0  0  0
 63137  1  0  0  0
 63138  1  0  0  0
 64139  1  0  0  0
 65140  1  0  0  0
 68 76  1  0  0  0
 71 72  2  0  0  0
 71 77  1  0  0  0
 71141  1  0  0  0
 72 73  1  0  0  0
 72 81  1  0  0  0
 73 78  2  0  0  0
 73 79  1  0  0  0
 74 77  2  0  0  0
 74 78  1  0  0  0
 74 80  1  0  0  0
 75 76  1  0  0  0
 75 79  1  0  0  0
 75142  1  0  0  0
 75143  1  0  0  0
 76144  1  0  0  0
 76145  1  0  0  0
 79146  1  0  0  0
 80147  1  0  0  0
M  ISO  4   1 100  68 101  76 101  80 100
M  END
> <chiral flag>
0

> <version>
0

> <s_m_source_file>
/data/baiqing/PycharmProjects/Reinvent-master-3.2/result/LINK_invent/BTK/process_docking_weight1_custom_sum_contain_oxygen_bond_distance_aromatic_linkinvent_7_9_3/rearranged_h_0190.sdf

> <i_m_source_file_index>
96

> <r_mmod_Potential_Energy-OPLS-2005>
327.813659667969

> <r_mmod_Stretch_Energy-OPLS-2005>
361.238433837891

> <r_mmod_Bend_Energy-OPLS-2005>
312.173034667969

> <r_mmod_Torsional_Energy-OPLS-2005>
193.70280456543

> <r_mmod_Improper_Torsional_Energy-OPLS-2005>
4.58929347991943

> <r_mmod_Van_der_Waal_Energy-OPLS-2005>
139.389007568359

> <r_mmod_Electrostatic_Energy-OPLS-2005>
-717.489013671875

> <r_mmod_Solvation_Energy-OPLS-2005>
-249.755325317383

> <b_mmod_Minimization_Converged-OPLS-2005>
0

> <r_mmod_RMS_Derivative-OPLS-2005>
2.61825489997864

$$$$
96
                    3D
 Structure written by MMmdl.
168178  0  0  1  0            999 V2000
  -30.6081  -14.9097   20.4155 C   0  0  0  0  0  0
  -30.4227  -12.5694   19.4859 C   0  0  0  0  0  0
  -29.5038  -12.4915   18.2481 C   0  0  0  0  0  0
  -28.0447  -12.2687   18.6835 C   0  0  0  0  0  0
  -27.6184  -13.2253   19.8242 C   0  0  2  0  0  0
  -28.6647  -13.3085   20.9571 C   0  0  0  0  0  0
  -25.2457  -13.8153   20.5737 C   0  0  0  0  0  0
  -24.1755  -13.0412   20.9257 C   0  0  0  0  0  0
  -24.6343  -11.6889   20.8795 C   0  0  0  0  0  0
  -23.9032  -10.4269   21.0438 C   0  0  0  0  0  0
  -24.3591   -9.4177   21.9205 C   0  0  0  0  0  0
  -23.6273   -8.2210   22.0754 C   0  0  0  0  0  0
  -22.4255   -8.0259   21.3542 C   0  0  0  0  0  0
  -21.9886   -9.0234   20.4646 C   0  0  0  0  0  0
  -22.7215  -10.2114   20.3070 C   0  0  0  0  0  0
  -21.6841   -6.0723   22.5283 C   0  0  0  0  0  0
  -21.3997   -6.5633   23.8215 C   0  0  0  0  0  0
  -21.3658   -5.6792   24.9185 C   0  0  0  0  0  0
  -21.6039   -4.3053   24.7238 C   0  0  0  0  0  0
  -21.8824   -3.8141   23.4363 C   0  0  0  0  0  0
  -21.9190   -4.6952   22.3413 C   0  0  0  0  0  0
  -22.7786  -13.5211   21.1916 C   0  0  0  0  0  0
  -22.1666   -4.2132   21.0996 F   0  0  0  0  0  0
  -21.5629   -3.4544   25.7756 F   0  0  0  0  0  0
  -29.9383  -13.6918   20.3393 N   0  0  0  0  0  0
  -26.2832  -12.9332   20.3249 N   0  0  0  0  0  0
  -25.9260  -11.6492   20.5781 N   0  0  0  0  0  0
  -22.0433  -12.8189   22.0460 N   0  0  0  0  0  0
  -25.4172  -15.1879   20.4169 N   0  0  0  0  0  0
  -31.8265  -14.8752   20.2091 O   0  0  0  0  0  0
  -21.6629   -6.8854   21.4240 O   0  0  0  0  0  0
  -22.3476  -14.5522   20.6762 O   0  0  0  0  0  0
  -24.6413  -31.8466   23.1930 C   0  0  0  0  0  0
  -25.9197  -32.4709   23.8301 C   0  0  1  0  0  0
  -27.2128  -27.1688   20.1526 C   0  0  0  0  0  0
  -25.5968  -33.8513   24.2233 N   0  0  0  0  0  0
  -23.4439  -30.4677   21.5372 C   0  0  2  0  0  0
  -24.8933  -28.8994   20.1128 C   0  0  0  0  0  0
  -22.7538  -29.4568   22.4881 C   0  0  0  0  0  0
  -18.0291  -28.1396   22.8497 C   0  0  0  0  0  0
  -24.1494  -36.7249   23.2650 C   0  0  0  0  0  0
  -25.9976  -30.7321   21.3852 C   0  0  0  0  0  0
  -26.0700  -29.3446   20.7294 C   0  0  0  0  0  0
  -27.2371  -28.4962   20.7300 C   0  0  0  0  0  0
  -26.0126  -26.8136   19.5066 C   0  0  0  0  0  0
  -24.8747  -27.6445   19.4876 C   0  0  0  0  0  0
  -23.6690  -29.7974   20.1556 C   0  0  0  0  0  0
  -25.4117  -36.3046   24.0334 C   0  0  1  0  0  0
  -20.5907  -28.3723   23.1253 C   0  0  2  0  0  0
  -20.6794  -26.9436   22.5411 C   0  0  0  0  0  0
  -19.5768  -26.6393   21.5226 C   0  0  0  0  0  0
  -18.1941  -26.7949   22.1616 C   0  0  0  0  0  0
  -19.1554  -28.8873   23.2868 C   0  0  0  0  0  0
  -18.9476  -30.1473   23.8890 C   0  0  0  0  0  0
  -17.6479  -30.6607   24.0564 C   0  0  0  0  0  0
  -25.9072  -34.9417   23.5080 C   0  0  0  0  0  0
  -16.5365  -29.9106   23.6340 C   0  0  0  0  0  0
  -16.7278  -28.6513   23.0377 C   0  0  0  0  0  0
  -26.4540  -31.6571   25.0731 C   0  0  0  0  0  0
  -25.3722  -31.3733   26.1422 C   0  0  0  0  0  0
  -27.0412  -30.2984   24.6290 C   0  0  0  0  0  0
  -27.6117  -32.4308   25.7469 C   0  0  0  0  0  0
  -27.5574  -37.1771   24.8463 C   0  0  0  0  0  0
  -21.4237  -29.3054   22.3622 N   0  0  0  0  0  0
  -26.4269  -37.3768   23.9426 N   0  0  0  0  0  0
  -24.7144  -31.0352   22.0942 N   0  0  0  0  0  0
  -23.4187  -28.8094   23.3020 O   0  0  0  0  0  0
  -28.2551  -26.1856   20.1576 O   0  0  0  0  0  0
  -26.5649  -34.8899   22.4656 O   0  0  0  0  0  0
  -23.5539  -32.1318   23.7173 O   0  0  0  0  0  0
  -28.8016  -22.1449   20.8502 C   0  0  0  0  0  0
  -29.1161  -21.0350   19.9308 C   0  0  0  0  0  0
  -29.0316  -21.7026   18.7187 C   0  0  0  0  0  0
  -28.5261  -23.3919   20.2294 C   0  0  0  0  0  0
  -30.1374  -18.8020   21.3666 C   0  0  0  0  0  0
  -28.4922  -18.3070   19.7279 C   0  0  0  0  0  0
  -28.3694  -23.9747   17.7822 C   0  0  0  0  0  0
  -30.7649  -17.3263   21.1950 C   0  0  0  0  0  0
  -29.0082  -16.7804   19.6054 C   0  0  0  0  0  0
  -28.7291  -23.4022   16.3967 C   0  0  0  0  0  0
  -29.5271  -19.4337   20.0758 C   0  0  0  0  0  0
  -29.2529  -21.1676   17.3193 C   0  0  2  0  0  0
  -30.7483  -21.0873   16.9485 C   0  0  0  0  0  0
  -27.9642  -24.8153   20.7918 C   0  0  0  0  0  0
  -28.6626  -23.0610   18.8854 N   0  0  0  0  0  0
  -29.9704  -16.1786   20.6013 N   0  0  0  0  0  0
  -28.4894  -21.9457   16.3204 N   0  3  0  0  0  0
  -31.4561  -12.7021   19.1610 H   0  0  0  0  0  0
  -30.4068  -11.6316   20.0420 H   0  0  0  0  0  0
  -29.8208  -11.6783   17.5940 H   0  0  0  0  0  0
  -29.5822  -13.4088   17.6623 H   0  0  0  0  0  0
  -27.9605  -11.2364   19.0261 H   0  0  0  0  0  0
  -27.3698  -12.3615   17.8320 H   0  0  0  0  0  0
  -27.5535  -14.1931   19.3392 H   0  0  0  0  0  0
  -28.7524  -12.3567   21.4817 H   0  0  0  0  0  0
  -28.3641  -14.0511   21.6978 H   0  0  0  0  0  0
  -25.2731   -9.5658   22.4786 H   0  0  0  0  0  0
  -23.9986   -7.4594   22.7466 H   0  0  0  0  0  0
  -21.0817   -8.8745   19.8951 H   0  0  0  0  0  0
  -22.3671  -10.9653   19.6177 H   0  0  0  0  0  0
  -21.1972   -7.6141   23.9709 H   0  0  0  0  0  0
  -21.1476   -6.0530   25.9083 H   0  0  0  0  0  0
  -22.0598   -2.7602   23.2883 H   0  0  0  0  0  0
  -22.4039  -11.9844   22.4841 H   0  0  0  0  0  0
  -21.1053  -13.1208   22.2684 H   0  0  0  0  0  0
  -24.6536  -15.8453   20.5308 H   0  0  0  0  0  0
  -26.2780  -15.6258   20.1163 H   0  0  0  0  0  0
  -26.7260  -32.5326   23.1029 H   0  0  0  0  0  0
  -25.0121  -33.9651   25.0387 H   0  0  0  0  0  0
  -22.7489  -31.2947   21.3834 H   0  0  0  0  0  0
  -23.3785  -35.9553   23.3282 H   0  0  0  0  0  0
  -24.3593  -36.8896   22.2074 H   0  0  0  0  0  0
  -23.7208  -37.6418   23.6694 H   0  0  0  0  0  0
  -26.1449  -31.4863   20.6109 H   0  0  0  0  0  0
  -26.8732  -30.7847   22.0209 H   0  0  0  0  0  0
  -28.1362  -28.8369   21.2218 H   0  0  0  0  0  0
  -25.9364  -25.8469   19.0301 H   0  0  0  0  0  0
  -23.9747  -27.2968   18.9986 H   0  0  0  0  0  0
  -23.8006  -30.5718   19.4000 H   0  0  0  0  0  0
  -22.7864  -29.2351   19.8458 H   0  0  0  0  0  0
  -25.1301  -36.1881   25.0827 H   0  0  0  0  0  0
  -20.9999  -28.3303   24.1372 H   0  0  0  0  0  0
  -20.5727  -26.2326   23.3615 H   0  0  0  0  0  0
  -21.6654  -26.7479   22.1185 H   0  0  0  0  0  0
  -19.6939  -25.6300   21.1257 H   0  0  0  0  0  0
  -19.6713  -27.3201   20.6753 H   0  0  0  0  0  0
  -17.4222  -26.6710   21.4008 H   0  0  0  0  0  0
  -18.0325  -26.0088   22.9000 H   0  0  0  0  0  0
  -19.7951  -30.7283   24.2282 H   0  0  0  0  0  0
  -17.5030  -31.6300   24.5147 H   0  0  0  0  0  0
  -15.5370  -30.3005   23.7692 H   0  0  0  0  0  0
  -15.8659  -28.0815   22.7147 H   0  0  0  0  0  0
  -24.5940  -30.7051   25.7718 H   0  0  0  0  0  0
  -24.8862  -32.2897   26.4784 H   0  0  0  0  0  0
  -25.7989  -30.8935   27.0242 H   0  0  0  0  0  0
  -26.3025  -29.6688   24.1321 H   0  0  0  0  0  0
  -27.4084  -29.7302   25.4849 H   0  0  0  0  0  0
  -27.8905  -30.4259   23.9568 H   0  0  0  0  0  0
  -27.2810  -33.3681   26.1944 H   0  0  0  0  0  0
  -28.3956  -32.6730   25.0281 H   0  0  0  0  0  0
  -28.0752  -31.8473   26.5433 H   0  0  0  0  0  0
  -28.2575  -38.0094   24.7558 H   0  0  0  0  0  0
  -28.1079  -36.2621   24.6219 H   0  0  0  0  0  0
  -27.2287  -37.1324   25.8864 H   0  0  0  0  0  0
  -20.9442  -29.8727   21.6761 H   0  0  0  0  0  0
  -26.0137  -38.2824   24.1470 H   0  0  0  0  0  0
  -28.7493  -22.0259   21.9239 H   0  0  0  0  0  0
  -30.9233  -19.4601   21.7357 H   0  0  0  0  0  0
  -29.3829  -18.7841   22.1553 H   0  0  0  0  0  0
  -27.6934  -18.3421   20.4714 H   0  0  0  0  0  0
  -28.0022  -18.5618   18.7891 H   0  0  0  0  0  0
  -27.3039  -24.2035   17.8129 H   0  0  0  0  0  0
  -28.9006  -24.9129   17.9395 H   0  0  0  0  0  0
  -31.1247  -16.9979   22.1711 H   0  0  0  0  0  0
  -31.6640  -17.4397   20.5862 H   0  0  0  0  0  0
  -29.4535  -16.6545   18.6171 H   0  0  0  0  0  0
  -28.1147  -16.1668   19.6025 H   0  0  0  0  0  0
  -29.7745  -23.6086   16.1680 H   0  0  0  0  0  0
  -28.1467  -23.9045   15.6234 H   0  0  0  0  0  0
  -30.3182  -19.3299   19.3365 H   0  0  0  0  0  0
  -28.8576  -20.1525   17.2679 H   0  0  0  0  0  0
  -31.2396  -22.0580   17.0120 H   0  0  0  0  0  0
  -30.8900  -20.7081   15.9361 H   0  0  0  0  0  0
  -31.2887  -20.4197   17.6177 H   0  0  0  0  0  0
  -28.3173  -24.9076   21.8198 H   0  0  0  0  0  0
  -26.8851  -24.7070   20.9034 H   0  0  0  0  0  0
  -28.7083  -21.6135   15.3954 H   0  0  0  0  0  0
  -27.5105  -21.7733   16.4781 H   0  0  0  0  0  0
  1 25  1  0  0  0
  1 30  2  0  0  0
  1 86  1  0  0  0
  2  3  1  0  0  0
  2 25  1  0  0  0
  2 88  1  0  0  0
  2 89  1  0  0  0
  3  4  1  0  0  0
  3 90  1  0  0  0
  3 91  1  0  0  0
  4  5  1  0  0  0
  4 92  1  0  0  0
  4 93  1  0  0  0
  5  6  1  0  0  0
  5 26  1  0  0  0
  5 94  1  0  0  0
  6 25  1  0  0  0
  6 95  1  0  0  0
  6 96  1  0  0  0
  7  8  2  0  0  0
  7 26  1  0  0  0
  7 29  1  0  0  0
  8  9  1  0  0  0
  8 22  1  0  0  0
  9 10  1  0  0  0
  9 27  2  0  0  0
 10 11  2  0  0  0
 10 15  1  0  0  0
 11 12  1  0  0  0
 11 97  1  0  0  0
 12 13  2  0  0  0
 12 98  1  0  0  0
 13 14  1  0  0  0
 13 31  1  0  0  0
 14 15  2  0  0  0
 14 99  1  0  0  0
 15100  1  0  0  0
 16 17  2  0  0  0
 16 21  1  0  0  0
 16 31  1  0  0  0
 17 18  1  0  0  0
 17101  1  0  0  0
 18 19  2  0  0  0
 18102  1  0  0  0
 19 20  1  0  0  0
 19 24  1  0  0  0
 20 21  2  0  0  0
 20103  1  0  0  0
 21 23  1  0  0  0
 22 28  1  0  0  0
 22 32  2  0  0  0
 26 27  1  0  0  0
 28104  1  0  0  0
 28105  1  0  0  0
 29106  1  0  0  0
 29107  1  0  0  0
 33 34  1  0  0  0
 33 66  1  0  0  0
 33 70  2  0  0  0
 34 36  1  0  0  0
 34 59  1  0  0  0
 34108  1  0  0  0
 35 44  2  0  0  0
 35 45  1  0  0  0
 35 68  1  0  0  0
 36 56  1  0  0  0
 36109  1  0  0  0
 37 39  1  0  0  0
 37 47  1  0  0  0
 37 66  1  0  0  0
 37110  1  0  0  0
 38 43  2  0  0  0
 38 46  1  0  0  0
 38 47  1  0  0  0
 39 64  1  0  0  0
 39 67  2  0  0  0
 40 52  1  0  0  0
 40 53  2  0  0  0
 40 58  1  0  0  0
 41111  1  0  0  0
 41112  1  0  0  0
 41113  1  0  0  0
 41 48  1  0  0  0
 42 43  1  0  0  0
 42 66  1  0  0  0
 42114  1  0  0  0
 42115  1  0  0  0
 43 44  1  0  0  0
 44116  1  0  0  0
 45 46  2  0  0  0
 45117  1  0  0  0
 46118  1  0  0  0
 47119  1  0  0  0
 47120  1  0  0  0
 48 56  1  0  0  0
 48 65  1  0  0  0
 48121  1  0  0  0
 49 50  1  0  0  0
 49 53  1  0  0  0
 49 64  1  0  0  0
 49122  1  0  0  0
 50 51  1  0  0  0
 50123  1  0  0  0
 50124  1  0  0  0
 51 52  1  0  0  0
 51125  1  0  0  0
 51126  1  0  0  0
 52127  1  0  0  0
 52128  1  0  0  0
 53 54  1  0  0  0
 54 55  2  0  0  0
 54129  1  0  0  0
 55 57  1  0  0  0
 55130  1  0  0  0
 56 69  2  0  0  0
 57 58  2  0  0  0
 57131  1  0  0  0
 58132  1  0  0  0
 59 60  1  0  0  0
 59 61  1  0  0  0
 59 62  1  0  0  0
 60133  1  0  0  0
 60134  1  0  0  0
 60135  1  0  0  0
 61136  1  0  0  0
 61137  1  0  0  0
 61138  1  0  0  0
 62139  1  0  0  0
 62140  1  0  0  0
 62141  1  0  0  0
 63 65  1  0  0  0
 63142  1  0  0  0
 63143  1  0  0  0
 63144  1  0  0  0
 64145  1  0  0  0
 65146  1  0  0  0
 68 84  1  0  0  0
 71 72  1  0  0  0
 71 74  2  0  0  0
 71147  1  0  0  0
 72 73  2  0  0  0
 72 81  1  0  0  0
 73 82  1  0  0  0
 73 85  1  0  0  0
 74 84  1  0  0  0
 74 85  1  0  0  0
 75 78  1  0  0  0
 75 81  1  0  0  0
 75148  1  0  0  0
 75149  1  0  0  0
 76 79  1  0  0  0
 76 81  1  0  0  0
 76150  1  0  0  0
 76151  1  0  0  0
 77 80  1  0  0  0
 77 85  1  0  0  0
 77152  1  0  0  0
 77153  1  0  0  0
 78 86  1  0  0  0
 78154  1  0  0  0
 78155  1  0  0  0
 79 86  1  0  0  0
 79156  1  0  0  0
 79157  1  0  0  0
 80 87  1  0  0  0
 80158  1  0  0  0
 80159  1  0  0  0
 81160  1  0  0  0
 82 83  1  0  0  0
 82 87  1  0  0  0
 82161  1  0  0  0
 83162  1  0  0  0
 83163  1  0  0  0
 83164  1  0  0  0
 84165  1  0  0  0
 84166  1  0  0  0
 87167  1  0  0  0
 87168  1  0  0  0
M  CHG  1  87   1
M  ISO  4   1 100  68 101  84 101  86 100
M  END
> <chiral flag>
0

> <version>
0

> <s_m_source_file>
/data/baiqing/PycharmProjects/Reinvent-master-3.2/result/LINK_invent/BTK/process_docking_weight1_custom_sum_contain_oxygen_bond_distance_aromatic_linkinvent_7_9_3/rearranged_h_0190.sdf

> <i_m_source_file_index>
97

> <r_mmod_Potential_Energy-OPLS-2005>
435.445556640625

> <r_mmod_Stretch_Energy-OPLS-2005>
198.775527954102

> <r_mmod_Bend_Energy-OPLS-2005>
275.717224121094

> <r_mmod_Torsional_Energy-OPLS-2005>
374.363983154297

> <r_mmod_Improper_Torsional_Energy-OPLS-2005>
6.46934509277344

> <r_mmod_Van_der_Waal_Energy-OPLS-2005>
117.282241821289

> <r_mmod_Electrostatic_Energy-OPLS-2005>
-245.132507324219

> <r_mmod_Solvation_Energy-OPLS-2005>
-463.362518310547

> <b_mmod_Minimization_Converged-OPLS-2005>
0

> <r_mmod_RMS_Derivative-OPLS-2005>
2.45231914520264

$$$$
