0
                    3D
 Structure written by MMmdl.
154163  0  0  1  0            999 V2000
  -30.0343  -16.3808   20.4326 C   0  0  0  0  0  0
  -30.3892  -13.5921   19.6400 C   0  0  0  0  0  0
  -29.6123  -12.8978   18.4437 C   0  0  0  0  0  0
  -28.2385  -12.3617   18.8596 C   0  0  0  0  0  0
  -27.5988  -13.3847   19.7998 C   0  0  2  0  0  0
  -28.5417  -13.9299   20.9125 C   0  0  0  0  0  0
  -25.2295  -13.8365   20.5754 C   0  0  0  0  0  0
  -24.1740  -13.0435   20.9235 C   0  0  0  0  0  0
  -24.6527  -11.6977   20.8636 C   0  0  0  0  0  0
  -23.9202  -10.4299   21.0292 C   0  0  0  0  0  0
  -24.3699   -9.4211   21.9097 C   0  0  0  0  0  0
  -23.6341   -8.2256   22.0717 C   0  0  0  0  0  0
  -22.4302   -8.0294   21.3535 C   0  0  0  0  0  0
  -21.9966   -9.0256   20.4606 C   0  0  0  0  0  0
  -22.7335  -10.2120   20.2980 C   0  0  0  0  0  0
  -21.6866   -6.0742   22.5283 C   0  0  0  0  0  0
  -21.4018   -6.5638   23.8219 C   0  0  0  0  0  0
  -21.3672   -5.6790   24.9181 C   0  0  0  0  0  0
  -21.6057   -4.3055   24.7229 C   0  0  0  0  0  0
  -21.8810   -3.8144   23.4348 C   0  0  0  0  0  0
  -21.9195   -4.6966   22.3407 C   0  0  0  0  0  0
  -22.7729  -13.5100   21.1926 C   0  0  0  0  0  0
  -22.1655   -4.2148   21.0987 F   0  0  0  0  0  0
  -21.5638   -3.4539   25.7742 F   0  0  0  0  0  0
  -29.6756  -14.8177   20.3851 N   0  0  0  0  0  0
  -26.2838  -12.9847   20.3084 N   0  0  0  0  0  0
  -25.9520  -11.6833   20.5520 N   0  0  0  0  0  0
  -22.0440  -12.8060   22.0503 N   0  0  0  0  0  0
  -25.3827  -15.2124   20.4340 N   0  0  0  0  0  0
  -31.0771  -16.1772   19.7165 O   0  0  0  0  0  0
  -21.6661   -6.8889   21.4243 O   0  0  0  0  0  0
  -22.3345  -14.5381   20.6784 O   0  0  0  0  0  0
  -24.7252  -31.7491   23.1136 C   0  0  0  0  0  0
  -25.9602  -32.4229   23.7851 C   0  0  1  0  0  0
  -27.2698  -26.2362   20.2626 C   0  0  0  0  0  0
  -25.5987  -33.8082   24.1697 N   0  0  0  0  0  0
  -23.5745  -30.3245   21.4841 C   0  0  2  0  0  0
  -25.0398  -28.5612   20.1485 C   0  0  0  0  0  0
  -22.7954  -29.4057   22.4666 C   0  0  0  0  0  0
  -18.0377  -28.1460   22.8448 C   0  0  0  0  0  0
  -24.1515  -36.7020   23.2667 C   0  0  0  0  0  0
  -26.1729  -30.3243   21.4534 C   0  0  0  0  0  0
  -26.2408  -28.8367   20.8130 C   0  0  0  0  0  0
  -27.3180  -27.7222   20.8171 C   0  0  0  0  0  0
  -26.0260  -26.2939   19.5364 C   0  0  0  0  0  0
  -25.0004  -27.3192   19.4831 C   0  0  0  0  0  0
  -23.8526  -29.5676   20.1471 C   0  0  0  0  0  0
  -25.4189  -36.2759   24.0252 C   0  0  1  0  0  0
  -20.6027  -28.3828   23.1088 C   0  0  2  0  0  0
  -20.6840  -26.9461   22.5420 C   0  0  0  0  0  0
  -19.5817  -26.6367   21.5249 C   0  0  0  0  0  0
  -18.1993  -26.7984   22.1623 C   0  0  0  0  0  0
  -19.1651  -28.8986   23.2721 C   0  0  0  0  0  0
  -18.9543  -30.1568   23.8769 C   0  0  0  0  0  0
  -17.6522  -30.6631   24.0548 C   0  0  0  0  0  0
  -25.9181  -34.9157   23.4852 C   0  0  0  0  0  0
  -16.5413  -29.9092   23.6380 C   0  0  0  0  0  0
  -16.7350  -28.6522   23.0388 C   0  0  0  0  0  0
  -26.4647  -31.6450   25.0650 C   0  0  0  0  0  0
  -25.3539  -31.3874   26.1118 C   0  0  0  0  0  0
  -27.0656  -30.2739   24.6913 C   0  0  0  0  0  0
  -27.6061  -32.4397   25.7433 C   0  0  0  0  0  0
  -27.5577  -37.1664   24.8468 C   0  0  0  0  0  0
  -21.4578  -29.2969   22.3353 N   0  0  0  0  0  0
  -26.4289  -37.3558   23.9397 N   0  0  0  0  0  0
  -24.8533  -30.8439   22.0672 N   0  0  0  0  0  0
  -23.4175  -28.7786   23.3265 O   0  0  0  0  0  0
  -28.2200  -24.8305   20.2344 O   0  0  0  0  0  0
  -26.5907  -34.8819   22.4529 O   0  0  0  0  0  0
  -23.6169  -32.0793   23.5771 O   0  0  0  0  0  0
  -31.1264  -16.6664   22.4250 C   0  0  0  0  0  0
  -31.3339  -18.1546   21.2538 C   0  0  0  0  0  0
  -29.1443  -16.2901   22.5696 C   0  0  0  0  0  0
  -30.2760  -19.8712   22.4381 C   0  0  0  0  0  0
  -30.7184  -18.6733   23.6927 C   0  0  0  0  0  0
  -31.5497  -19.1123   22.4439 C   0  0  0  0  0  0
  -28.4233  -15.5409   23.6530 C   0  0  0  0  0  0
  -28.9554  -20.7467   19.9367 C   0  0  0  0  0  0
  -28.3244  -22.8311   20.4753 C   0  0  0  0  0  0
  -28.1864  -17.5094   21.2583 N   0  0  0  0  0  0
  -29.4997  -18.8067   20.3952 N   0  0  0  0  0  0
  -29.7374  -18.3777   22.5182 N   0  0  0  0  0  0
  -31.3579  -13.8985   19.2429 H   0  0  0  0  0  0
  -30.6755  -12.8368   20.3723 H   0  0  0  0  0  0
  -30.2159  -12.0895   18.0259 H   0  0  0  0  0  0
  -29.4813  -13.6311   17.6465 H   0  0  0  0  0  0
  -28.3719  -11.4130   19.3823 H   0  0  0  0  0  0
  -27.6069  -12.1606   17.9928 H   0  0  0  0  0  0
  -27.4005  -14.2394   19.1486 H   0  0  0  0  0  0
  -28.8891  -13.1421   21.5821 H   0  0  0  0  0  0
  -27.8574  -14.5362   21.4857 H   0  0  0  0  0  0
  -25.2836   -9.5701   22.4672 H   0  0  0  0  0  0
  -24.0041   -7.4669   22.7465 H   0  0  0  0  0  0
  -21.0878   -8.8764   19.8939 H   0  0  0  0  0  0
  -22.3747  -10.9631   19.6080 H   0  0  0  0  0  0
  -21.1993   -7.6143   23.9726 H   0  0  0  0  0  0
  -21.1512   -6.0518   25.9092 H   0  0  0  0  0  0
  -22.0576   -2.7605   23.2856 H   0  0  0  0  0  0
  -22.4132  -11.9755   22.4889 H   0  0  0  0  0  0
  -21.1041  -13.1003   22.2722 H   0  0  0  0  0  0
  -24.6259  -15.8672   20.5960 H   0  0  0  0  0  0
  -26.2619  -15.6714   20.2232 H   0  0  0  0  0  0
  -26.7732  -32.4646   23.0600 H   0  0  0  0  0  0
  -24.9933  -33.9061   24.9714 H   0  0  0  0  0  0
  -22.9265  -31.1710   21.2492 H   0  0  0  0  0  0
  -23.3845  -35.9276   23.3236 H   0  0  0  0  0  0
  -24.3571  -36.8797   22.2100 H   0  0  0  0  0  0
  -23.7208  -37.6126   23.6841 H   0  0  0  0  0  0
  -26.4291  -31.0239   20.6574 H   0  0  0  0  0  0
  -27.0001  -30.4048   22.1433 H   0  0  0  0  0  0
  -28.2219  -27.9745   21.3558 H   0  0  0  0  0  0
  -25.7894  -25.3957   18.9862 H   0  0  0  0  0  0
  -24.1091  -27.0882   18.9159 H   0  0  0  0  0  0
  -24.0568  -30.2992   19.3661 H   0  0  0  0  0  0
  -22.9514  -29.0446   19.8223 H   0  0  0  0  0  0
  -25.1442  -36.1476   25.0746 H   0  0  0  0  0  0
  -21.0085  -28.3498   24.1226 H   0  0  0  0  0  0
  -20.5740  -26.2461   23.3710 H   0  0  0  0  0  0
  -21.6693  -26.7402   22.1222 H   0  0  0  0  0  0
  -19.6975  -25.6247   21.1360 H   0  0  0  0  0  0
  -19.6780  -27.3117   20.6737 H   0  0  0  0  0  0
  -17.4280  -26.6752   21.4004 H   0  0  0  0  0  0
  -18.0343  -26.0149   22.9033 H   0  0  0  0  0  0
  -19.8015  -30.7439   24.2059 H   0  0  0  0  0  0
  -17.5065  -31.6308   24.5162 H   0  0  0  0  0  0
  -15.5405  -30.2943   23.7794 H   0  0  0  0  0  0
  -15.8757  -28.0802   22.7159 H   0  0  0  0  0  0
  -24.5775  -30.7245   25.7280 H   0  0  0  0  0  0
  -24.8669  -32.3116   26.4226 H   0  0  0  0  0  0
  -25.7492  -30.9147   27.0108 H   0  0  0  0  0  0
  -26.3462  -29.6161   24.2028 H   0  0  0  0  0  0
  -27.3989  -29.7451   25.5851 H   0  0  0  0  0  0
  -27.9481  -30.3756   24.0597 H   0  0  0  0  0  0
  -27.2644  -33.3860   26.1633 H   0  0  0  0  0  0
  -28.3998  -32.6685   25.0307 H   0  0  0  0  0  0
  -28.0591  -31.8774   26.5604 H   0  0  0  0  0  0
  -28.2550  -38.0005   24.7557 H   0  0  0  0  0  0
  -28.1129  -36.2528   24.6285 H   0  0  0  0  0  0
  -27.2276  -37.1261   25.8863 H   0  0  0  0  0  0
  -21.0016  -29.8429   21.6178 H   0  0  0  0  0  0
  -26.0096  -38.2599   24.1395 H   0  0  0  0  0  0
  -31.9084  -16.2465   23.0476 H   0  0  0  0  0  0
  -29.9882  -20.6568   23.1641 H   0  0  0  0  0  0
  -30.5177  -20.4702   21.5712 H   0  0  0  0  0  0
  -31.1517  -17.8803   24.3058 H   0  0  0  0  0  0
  -30.4169  -19.3379   24.5242 H   0  0  0  0  0  0
  -32.4779  -19.6772   22.5577 H   0  0  0  0  0  0
  -28.6923  -15.9470   24.6278 H   0  0  0  0  0  0
  -28.6978  -14.4881   23.6609 H   0  0  0  0  0  0
  -27.3424  -15.6216   23.5417 H   0  0  0  0  0  0
  -29.8126  -21.0058   19.3158 H   0  0  0  0  0  0
  -28.1805  -20.5515   19.1976 H   0  0  0  0  0  0
  -28.8051  -22.8701   21.4515 H   0  0  0  0  0  0
  -27.2788  -22.6526   20.7217 H   0  0  0  0  0  0
  1 25  1  0  0  0
  1 30  2  0  0  0
  1 82  1  0  0  0
  2  3  1  0  0  0
  2 25  1  0  0  0
  2 83  1  0  0  0
  2 84  1  0  0  0
  3  4  1  0  0  0
  3 85  1  0  0  0
  3 86  1  0  0  0
  4  5  1  0  0  0
  4 87  1  0  0  0
  4 88  1  0  0  0
  5  6  1  0  0  0
  5 26  1  0  0  0
  5 89  1  0  0  0
  6 25  1  0  0  0
  6 90  1  0  0  0
  6 91  1  0  0  0
  7  8  2  0  0  0
  7 26  1  0  0  0
  7 29  1  0  0  0
  8  9  1  0  0  0
  8 22  1  0  0  0
  9 10  1  0  0  0
  9 27  2  0  0  0
 10 11  2  0  0  0
 10 15  1  0  0  0
 11 12  1  0  0  0
 11 92  1  0  0  0
 12 13  2  0  0  0
 12 93  1  0  0  0
 13 14  1  0  0  0
 13 31  1  0  0  0
 14 15  2  0  0  0
 14 94  1  0  0  0
 15 95  1  0  0  0
 16 17  2  0  0  0
 16 21  1  0  0  0
 16 31  1  0  0  0
 17 18  1  0  0  0
 17 96  1  0  0  0
 18 19  2  0  0  0
 18 97  1  0  0  0
 19 20  1  0  0  0
 19 24  1  0  0  0
 20 21  2  0  0  0
 20 98  1  0  0  0
 21 23  1  0  0  0
 22 28  1  0  0  0
 22 32  2  0  0  0
 26 27  1  0  0  0
 28 99  1  0  0  0
 28100  1  0  0  0
 29101  1  0  0  0
 29102  1  0  0  0
 33 34  1  0  0  0
 33 66  1  0  0  0
 33 70  2  0  0  0
 34 36  1  0  0  0
 34 59  1  0  0  0
 34103  1  0  0  0
 35 44  2  0  0  0
 35 45  1  0  0  0
 35 68  1  0  0  0
 36 56  1  0  0  0
 36104  1  0  0  0
 37 39  1  0  0  0
 37 47  1  0  0  0
 37 66  1  0  0  0
 37105  1  0  0  0
 38 43  2  0  0  0
 38 46  1  0  0  0
 38 47  1  0  0  0
 39 64  1  0  0  0
 39 67  2  0  0  0
 40 52  1  0  0  0
 40 53  2  0  0  0
 40 58  1  0  0  0
 41106  1  0  0  0
 41107  1  0  0  0
 41108  1  0  0  0
 41 48  1  0  0  0
 42 43  1  0  0  0
 42 66  1  0  0  0
 42109  1  0  0  0
 42110  1  0  0  0
 43 44  1  0  0  0
 44111  1  0  0  0
 45 46  2  0  0  0
 45112  1  0  0  0
 46113  1  0  0  0
 47114  1  0  0  0
 47115  1  0  0  0
 48 56  1  0  0  0
 48 65  1  0  0  0
 48116  1  0  0  0
 49 50  1  0  0  0
 49 53  1  0  0  0
 49 64  1  0  0  0
 49117  1  0  0  0
 50 51  1  0  0  0
 50118  1  0  0  0
 50119  1  0  0  0
 51 52  1  0  0  0
 51120  1  0  0  0
 51121  1  0  0  0
 52122  1  0  0  0
 52123  1  0  0  0
 53 54  1  0  0  0
 54 55  2  0  0  0
 54124  1  0  0  0
 55 57  1  0  0  0
 55125  1  0  0  0
 56 69  2  0  0  0
 57 58  2  0  0  0
 57126  1  0  0  0
 58127  1  0  0  0
 59 60  1  0  0  0
 59 61  1  0  0  0
 59 62  1  0  0  0
 60128  1  0  0  0
 60129  1  0  0  0
 60130  1  0  0  0
 61131  1  0  0  0
 61132  1  0  0  0
 61133  1  0  0  0
 62134  1  0  0  0
 62135  1  0  0  0
 62136  1  0  0  0
 63 65  1  0  0  0
 63137  1  0  0  0
 63138  1  0  0  0
 63139  1  0  0  0
 64140  1  0  0  0
 65141  1  0  0  0
 68 79  1  0  0  0
 71 72  2  0  0  0
 71 73  1  0  0  0
 71142  1  0  0  0
 72 81  1  0  0  0
 72 76  1  0  0  0
 73 77  1  0  0  0
 73 80  2  0  0  0
 74 76  1  0  0  0
 74 82  1  0  0  0
 74143  1  0  0  0
 74144  1  0  0  0
 75 76  1  0  0  0
 75 82  1  0  0  0
 75145  1  0  0  0
 75146  1  0  0  0
 76147  1  0  0  0
 77148  1  0  0  0
 77149  1  0  0  0
 77150  1  0  0  0
 78 79  1  0  0  0
 78 81  1  0  0  0
 78151  1  0  0  0
 78152  1  0  0  0
 79153  1  0  0  0
 79154  1  0  0  0
 80 81  1  0  0  0
M  ISO  4   1 100  68 101  79 101  82 100
M  END
> <chiral flag>
0

> <version>
0

> <s_m_source_file>
/data/baiqing/PycharmProjects/Reinvent-master-3.2/result/LINK_invent/BTK/process_docking_weight1_custom_sum_contain_oxygen_bond_distance_aromatic_linkinvent_7_9_3/rearranged_h_0191.sdf

> <i_m_source_file_index>
1

> <r_mmod_Potential_Energy-OPLS-2005>
18106.94921875

> <r_mmod_Stretch_Energy-OPLS-2005>
11303.1142578125

> <r_mmod_Bend_Energy-OPLS-2005>
1287.23474121094

> <r_mmod_Torsional_Energy-OPLS-2005>
421.812408447266

> <r_mmod_Improper_Torsional_Energy-OPLS-2005>
97.0499420166016

> <r_mmod_Van_der_Waal_Energy-OPLS-2005>
3365.02807617188

> <r_mmod_Electrostatic_Energy-OPLS-2005>
-364.857299804688

> <r_mmod_Solvation_Energy-OPLS-2005>
-222.861206054688

> <b_mmod_Minimization_Converged-OPLS-2005>
0

> <r_mmod_RMS_Derivative-OPLS-2005>
4.97937870025635

$$$$
1
                    3D
 Structure written by MMmdl.
165174  0  0  1  0            999 V2000
  -30.6959  -14.4641   20.5186 C   0  0  0  0  0  0
  -30.4266  -12.2841   19.4115 C   0  0  0  0  0  0
  -29.4976  -12.4769   18.1953 C   0  0  0  0  0  0
  -28.0189  -12.3403   18.6149 C   0  0  0  0  0  0
  -27.6631  -13.1955   19.8628 C   0  0  2  0  0  0
  -28.7106  -12.9983   20.9833 C   0  0  0  0  0  0
  -25.2632  -13.8136   20.5647 C   0  0  0  0  0  0
  -24.1857  -13.0442   20.9130 C   0  0  0  0  0  0
  -24.6379  -11.6893   20.8689 C   0  0  0  0  0  0
  -23.9030  -10.4290   21.0357 C   0  0  0  0  0  0
  -24.3581   -9.4216   21.9151 C   0  0  0  0  0  0
  -23.6264   -8.2249   22.0750 C   0  0  0  0  0  0
  -22.4248   -8.0263   21.3545 C   0  0  0  0  0  0
  -21.9868   -9.0237   20.4652 C   0  0  0  0  0  0
  -22.7185  -10.2121   20.3033 C   0  0  0  0  0  0
  -21.6886   -6.0683   22.5254 C   0  0  0  0  0  0
  -21.4034   -6.5600   23.8175 C   0  0  0  0  0  0
  -21.3654   -5.6762   24.9148 C   0  0  0  0  0  0
  -21.6051   -4.3025   24.7212 C   0  0  0  0  0  0
  -21.8830   -3.8096   23.4343 C   0  0  0  0  0  0
  -21.9211   -4.6906   22.3387 C   0  0  0  0  0  0
  -22.7874  -13.5242   21.1771 C   0  0  0  0  0  0
  -22.1667   -4.2079   21.0966 F   0  0  0  0  0  0
  -21.5639   -3.4525   25.7735 F   0  0  0  0  0  0
  -30.0374  -13.2827   20.4162 N   0  0  0  0  0  0
  -26.3049  -12.9275   20.3315 N   0  0  0  0  0  0
  -25.9309  -11.6452   20.5718 N   0  0  0  0  0  0
  -22.0514  -12.8294   22.0362 N   0  0  0  0  0  0
  -25.4415  -15.1864   20.4062 N   0  0  0  0  0  0
  -31.8625  -14.6199   20.1458 O   0  0  0  0  0  0
  -21.6662   -6.8830   21.4204 O   0  0  0  0  0  0
  -22.3558  -14.5529   20.6577 O   0  0  0  0  0  0
  -24.6160  -31.8715   23.2113 C   0  0  0  0  0  0
  -25.9054  -32.4847   23.8416 C   0  0  1  0  0  0
  -27.2270  -27.4461   20.0810 C   0  0  0  0  0  0
  -25.5912  -33.8641   24.2349 N   0  0  0  0  0  0
  -23.4012  -30.4987   21.5507 C   0  0  2  0  0  0
  -24.8433  -28.9641   20.1160 C   0  0  0  0  0  0
  -22.7412  -29.4704   22.4966 C   0  0  0  0  0  0
  -18.0270  -28.1409   22.8486 C   0  0  0  0  0  0
  -24.1481  -36.7303   23.2645 C   0  0  0  0  0  0
  -25.9324  -30.8411   21.3623 C   0  0  0  0  0  0
  -26.0063  -29.4789   20.7015 C   0  0  0  0  0  0
  -27.2049  -28.7302   20.6706 C   0  0  0  0  0  0
  -26.0449  -26.9363   19.5011 C   0  0  0  0  0  0
  -24.8565  -27.6926   19.5142 C   0  0  0  0  0  0
  -23.6091  -29.8368   20.1637 C   0  0  0  0  0  0
  -25.4107  -36.3126   24.0348 C   0  0  1  0  0  0
  -20.5873  -28.3705   23.1311 C   0  0  2  0  0  0
  -20.6778  -26.9439   22.5420 C   0  0  0  0  0  0
  -19.5755  -26.6405   21.5221 C   0  0  0  0  0  0
  -18.1926  -26.7953   22.1617 C   0  0  0  0  0  0
  -19.1525  -28.8866   23.2903 C   0  0  0  0  0  0
  -18.9447  -30.1462   23.8928 C   0  0  0  0  0  0
  -17.6450  -30.6614   24.0570 C   0  0  0  0  0  0
  -25.9040  -34.9494   23.5146 C   0  0  0  0  0  0
  -16.5344  -29.9121   23.6325 C   0  0  0  0  0  0
  -16.7256  -28.6541   23.0345 C   0  0  0  0  0  0
  -26.4466  -31.6639   25.0759 C   0  0  0  0  0  0
  -25.3714  -31.3748   26.1492 C   0  0  0  0  0  0
  -27.0334  -30.3085   24.6188 C   0  0  0  0  0  0
  -27.6064  -32.4357   25.7503 C   0  0  0  0  0  0
  -27.5577  -37.1811   24.8467 C   0  0  0  0  0  0
  -21.4143  -29.3066   22.3699 N   0  0  0  0  0  0
  -26.4291  -37.3809   23.9413 N   0  0  0  0  0  0
  -24.6675  -31.0848   22.0998 N   0  0  0  0  0  0
  -23.4189  -28.8244   23.2999 O   0  0  0  0  0  0
  -28.3990  -26.7271   20.0326 O   0  0  0  0  0  0
  -26.5586  -34.8947   22.4694 O   0  0  0  0  0  0
  -23.5348  -32.1441   23.7527 O   0  0  0  0  0  0
  -31.6934  -20.3006   21.7485 C   0  0  0  0  0  0
  -29.8874  -20.1208   20.7392 C   0  0  0  0  0  0
  -30.0278  -16.3974   21.9013 C   0  0  0  0  0  0
  -29.9898  -16.7120   19.8405 C   0  0  0  0  0  0
  -29.6171  -17.5917   21.0227 C   0  0  0  0  0  0
  -32.9277  -20.8790   22.3420 C   0  0  0  0  0  0
  -29.4141  -25.5096   21.7584 C   0  0  0  0  0  0
  -28.6361  -20.4310   19.9631 C   0  0  0  0  0  0
  -28.6508  -21.8158   19.2516 C   0  0  0  0  0  0
  -28.6941  -24.3160   19.6038 C   0  0  0  0  0  0
  -28.3768  -25.4273   20.6359 C   0  0  2  0  0  0
  -30.7468  -21.0621   21.1308 N   0  0  0  0  0  0
  -31.4397  -18.9962   21.7968 N   0  0  0  0  0  0
  -30.2375  -18.8901   21.1710 N   0  0  0  0  0  0
  -29.8936  -15.5319   20.7213 N   0  0  0  0  0  0
  -28.6252  -22.9533   20.2060 N   0  3  0  0  0  0
  -30.3145  -11.2789   19.8186 H   0  0  0  0  0  0
  -31.4738  -12.3732   19.1163 H   0  0  0  0  0  0
  -29.7288  -11.7419   17.4236 H   0  0  0  0  0  0
  -29.6765  -13.4555   17.7458 H   0  0  0  0  0  0
  -27.8394  -11.2840   18.8238 H   0  0  0  0  0  0
  -27.3656  -12.5924   17.7787 H   0  0  0  0  0  0
  -27.7018  -14.2369   19.5464 H   0  0  0  0  0  0
  -28.6820  -11.9738   21.3572 H   0  0  0  0  0  0
  -28.4943  -13.6443   21.8353 H   0  0  0  0  0  0
  -25.2736   -9.5723   22.4713 H   0  0  0  0  0  0
  -23.9986   -7.4661   22.7489 H   0  0  0  0  0  0
  -21.0794   -8.8727   19.8982 H   0  0  0  0  0  0
  -22.3607  -10.9632   19.6130 H   0  0  0  0  0  0
  -21.2024   -7.6103   23.9659 H   0  0  0  0  0  0
  -21.1475   -6.0492   25.9049 H   0  0  0  0  0  0
  -22.0618   -2.7554   23.2879 H   0  0  0  0  0  0
  -22.4131  -11.9982   22.4806 H   0  0  0  0  0  0
  -21.1100  -13.1292   22.2477 H   0  0  0  0  0  0
  -24.6849  -15.8512   20.5274 H   0  0  0  0  0  0
  -26.3105  -15.6235   20.1232 H   0  0  0  0  0  0
  -26.7138  -32.5559   23.1188 H   0  0  0  0  0  0
  -25.0088  -33.9819   25.0507 H   0  0  0  0  0  0
  -22.6909  -31.3168   21.4179 H   0  0  0  0  0  0
  -23.3759  -35.9622   23.3332 H   0  0  0  0  0  0
  -24.3567  -36.8887   22.2056 H   0  0  0  0  0  0
  -23.7220  -37.6508   23.6634 H   0  0  0  0  0  0
  -26.0575  -31.6187   20.6070 H   0  0  0  0  0  0
  -26.8150  -30.8811   21.9879 H   0  0  0  0  0  0
  -28.1119  -29.1364   21.0951 H   0  0  0  0  0  0
  -26.0412  -25.9672   19.0228 H   0  0  0  0  0  0
  -23.9580  -27.2985   19.0594 H   0  0  0  0  0  0
  -23.7209  -30.6198   19.4123 H   0  0  0  0  0  0
  -22.7298  -29.2641   19.8603 H   0  0  0  0  0  0
  -25.1282  -36.1994   25.0840 H   0  0  0  0  0  0
  -20.9961  -28.3286   24.1435 H   0  0  0  0  0  0
  -20.5722  -26.2306   23.3605 H   0  0  0  0  0  0
  -21.6645  -26.7507   22.1197 H   0  0  0  0  0  0
  -19.6922  -25.6310   21.1265 H   0  0  0  0  0  0
  -19.6719  -27.3209   20.6749 H   0  0  0  0  0  0
  -17.4206  -26.6708   21.4013 H   0  0  0  0  0  0
  -18.0317  -26.0104   22.9020 H   0  0  0  0  0  0
  -19.7924  -30.7266   24.2338 H   0  0  0  0  0  0
  -17.5010  -31.6299   24.5158 H   0  0  0  0  0  0
  -15.5354  -30.3035   23.7642 H   0  0  0  0  0  0
  -15.8651  -28.0871   22.7052 H   0  0  0  0  0  0
  -24.5872  -30.7131   25.7781 H   0  0  0  0  0  0
  -24.8919  -32.2918   26.4944 H   0  0  0  0  0  0
  -25.8032  -30.8877   27.0250 H   0  0  0  0  0  0
  -26.2926  -29.6822   24.1210 H   0  0  0  0  0  0
  -27.4056  -29.7355   25.4693 H   0  0  0  0  0  0
  -27.8766  -30.4399   23.9403 H   0  0  0  0  0  0
  -27.2711  -33.3656   26.2104 H   0  0  0  0  0  0
  -28.3842  -32.6926   25.0298 H   0  0  0  0  0  0
  -28.0768  -31.8468   26.5385 H   0  0  0  0  0  0
  -28.2617  -38.0088   24.7514 H   0  0  0  0  0  0
  -28.1057  -36.2630   24.6297 H   0  0  0  0  0  0
  -27.2301  -37.1463   25.8872 H   0  0  0  0  0  0
  -20.9284  -29.8752   21.6895 H   0  0  0  0  0  0
  -26.0190  -38.2891   24.1409 H   0  0  0  0  0  0
  -31.0450  -16.4529   22.2982 H   0  0  0  0  0  0
  -29.3179  -16.1835   22.7029 H   0  0  0  0  0  0
  -29.2645  -16.7308   19.0266 H   0  0  0  0  0  0
  -30.9927  -16.9300   19.4669 H   0  0  0  0  0  0
  -28.5355  -17.7487   21.0679 H   0  0  0  0  0  0
  -33.7665  -20.7792   21.6533 H   0  0  0  0  0  0
  -33.1824  -20.3728   23.2725 H   0  0  0  0  0  0
  -32.7772  -21.9374   22.5562 H   0  0  0  0  0  0
  -29.1238  -26.2705   22.4821 H   0  0  0  0  0  0
  -30.3941  -25.7819   21.3622 H   0  0  0  0  0  0
  -29.5118  -24.5681   22.2967 H   0  0  0  0  0  0
  -27.7816  -20.3543   20.6360 H   0  0  0  0  0  0
  -28.5039  -19.6508   19.2130 H   0  0  0  0  0  0
  -29.5346  -21.8930   18.6168 H   0  0  0  0  0  0
  -27.7898  -21.8950   18.5893 H   0  0  0  0  0  0
  -29.6817  -24.4757   19.1687 H   0  0  0  0  0  0
  -27.9783  -24.3817   18.7842 H   0  0  0  0  0  0
  -27.4011  -25.2190   21.0822 H   0  0  0  0  0  0
  -29.4172  -22.8167   20.8223 H   0  0  0  0  0  0
  -27.7861  -22.8759   20.7604 H   0  0  0  0  0  0
  1 25  1  0  0  0
  1 30  2  0  0  0
  1 85  1  0  0  0
  2  3  1  0  0  0
  2 25  1  0  0  0
  2 87  1  0  0  0
  2 88  1  0  0  0
  3  4  1  0  0  0
  3 89  1  0  0  0
  3 90  1  0  0  0
  4  5  1  0  0  0
  4 91  1  0  0  0
  4 92  1  0  0  0
  5  6  1  0  0  0
  5 26  1  0  0  0
  5 93  1  0  0  0
  6 25  1  0  0  0
  6 94  1  0  0  0
  6 95  1  0  0  0
  7  8  2  0  0  0
  7 26  1  0  0  0
  7 29  1  0  0  0
  8  9  1  0  0  0
  8 22  1  0  0  0
  9 10  1  0  0  0
  9 27  2  0  0  0
 10 11  2  0  0  0
 10 15  1  0  0  0
 11 12  1  0  0  0
 11 96  1  0  0  0
 12 13  2  0  0  0
 12 97  1  0  0  0
 13 14  1  0  0  0
 13 31  1  0  0  0
 14 15  2  0  0  0
 14 98  1  0  0  0
 15 99  1  0  0  0
 16 17  2  0  0  0
 16 21  1  0  0  0
 16 31  1  0  0  0
 17 18  1  0  0  0
 17100  1  0  0  0
 18 19  2  0  0  0
 18101  1  0  0  0
 19 20  1  0  0  0
 19 24  1  0  0  0
 20 21  2  0  0  0
 20102  1  0  0  0
 21 23  1  0  0  0
 22 28  1  0  0  0
 22 32  2  0  0  0
 26 27  1  0  0  0
 28103  1  0  0  0
 28104  1  0  0  0
 29105  1  0  0  0
 29106  1  0  0  0
 33 34  1  0  0  0
 33 66  1  0  0  0
 33 70  2  0  0  0
 34 36  1  0  0  0
 34 59  1  0  0  0
 34107  1  0  0  0
 35 44  2  0  0  0
 35 45  1  0  0  0
 35 68  1  0  0  0
 36 56  1  0  0  0
 36108  1  0  0  0
 37 39  1  0  0  0
 37 47  1  0  0  0
 37 66  1  0  0  0
 37109  1  0  0  0
 38 43  2  0  0  0
 38 46  1  0  0  0
 38 47  1  0  0  0
 39 64  1  0  0  0
 39 67  2  0  0  0
 40 52  1  0  0  0
 40 53  2  0  0  0
 40 58  1  0  0  0
 41110  1  0  0  0
 41111  1  0  0  0
 41112  1  0  0  0
 41 48  1  0  0  0
 42 43  1  0  0  0
 42 66  1  0  0  0
 42113  1  0  0  0
 42114  1  0  0  0
 43 44  1  0  0  0
 44115  1  0  0  0
 45 46  2  0  0  0
 45116  1  0  0  0
 46117  1  0  0  0
 47118  1  0  0  0
 47119  1  0  0  0
 48 56  1  0  0  0
 48 65  1  0  0  0
 48120  1  0  0  0
 49 50  1  0  0  0
 49 53  1  0  0  0
 49 64  1  0  0  0
 49121  1  0  0  0
 50 51  1  0  0  0
 50122  1  0  0  0
 50123  1  0  0  0
 51 52  1  0  0  0
 51124  1  0  0  0
 51125  1  0  0  0
 52126  1  0  0  0
 52127  1  0  0  0
 53 54  1  0  0  0
 54 55  2  0  0  0
 54128  1  0  0  0
 55 57  1  0  0  0
 55129  1  0  0  0
 56 69  2  0  0  0
 57 58  2  0  0  0
 57130  1  0  0  0
 58131  1  0  0  0
 59 60  1  0  0  0
 59 61  1  0  0  0
 59 62  1  0  0  0
 60132  1  0  0  0
 60133  1  0  0  0
 60134  1  0  0  0
 61135  1  0  0  0
 61136  1  0  0  0
 61137  1  0  0  0
 62138  1  0  0  0
 62139  1  0  0  0
 62140  1  0  0  0
 63 65  1  0  0  0
 63141  1  0  0  0
 63142  1  0  0  0
 63143  1  0  0  0
 64144  1  0  0  0
 65145  1  0  0  0
 68 81  1  0  0  0
 71 76  1  0  0  0
 71 82  1  0  0  0
 71 83  2  0  0  0
 72 78  1  0  0  0
 72 82  2  0  0  0
 72 84  1  0  0  0
 73 75  1  0  0  0
 73 85  1  0  0  0
 73146  1  0  0  0
 73147  1  0  0  0
 74 75  1  0  0  0
 74 85  1  0  0  0
 74148  1  0  0  0
 74149  1  0  0  0
 75 84  1  0  0  0
 75150  1  0  0  0
 76151  1  0  0  0
 76152  1  0  0  0
 76153  1  0  0  0
 77154  1  0  0  0
 77155  1  0  0  0
 77156  1  0  0  0
 77 81  1  0  0  0
 78 79  1  0  0  0
 78157  1  0  0  0
 78158  1  0  0  0
 79 86  1  0  0  0
 79159  1  0  0  0
 79160  1  0  0  0
 80 81  1  0  0  0
 80 86  1  0  0  0
 80161  1  0  0  0
 80162  1  0  0  0
 81163  1  0  0  0
 83 84  1  0  0  0
 86164  1  0  0  0
 86165  1  0  0  0
M  CHG  1  86   1
M  ISO  4   1 100  68 101  81 101  85 100
M  END
> <chiral flag>
0

> <version>
0

> <s_m_source_file>
/data/baiqing/PycharmProjects/Reinvent-master-3.2/result/LINK_invent/BTK/process_docking_weight1_custom_sum_contain_oxygen_bond_distance_aromatic_linkinvent_7_9_3/rearranged_h_0191.sdf

> <i_m_source_file_index>
2

> <r_mmod_Potential_Energy-OPLS-2005>
-158.16667175293

> <r_mmod_Stretch_Energy-OPLS-2005>
35.9450874328613

> <r_mmod_Bend_Energy-OPLS-2005>
101.077415466309

> <r_mmod_Torsional_Energy-OPLS-2005>
322.941375732422

> <r_mmod_Improper_Torsional_Energy-OPLS-2005>
16.1987628936768

> <r_mmod_Van_der_Waal_Energy-OPLS-2005>
123.776748657227

> <r_mmod_Electrostatic_Energy-OPLS-2005>
-330.790283203125

> <r_mmod_Solvation_Energy-OPLS-2005>
-442.30859375

> <b_mmod_Minimization_Converged-OPLS-2005>
0

> <r_mmod_RMS_Derivative-OPLS-2005>
3.46792697906494

$$$$
2
                    3D
 Structure written by MMmdl.
166175  0  0  1  0            999 V2000
  -30.6798  -14.5156   20.4239 C   0  0  0  0  0  0
  -30.4221  -12.2992   19.4104 C   0  0  0  0  0  0
  -29.4841  -12.4730   18.1982 C   0  0  0  0  0  0
  -28.0052  -12.3442   18.6231 C   0  0  0  0  0  0
  -27.6531  -13.2088   19.8641 C   0  0  2  0  0  0
  -28.7118  -13.0558   20.9808 C   0  0  0  0  0  0
  -25.2546  -13.8205   20.5688 C   0  0  0  0  0  0
  -24.1822  -13.0450   20.9254 C   0  0  0  0  0  0
  -24.6415  -11.6939   20.8820 C   0  0  0  0  0  0
  -23.9077  -10.4310   21.0444 C   0  0  0  0  0  0
  -24.3632   -9.4213   21.9190 C   0  0  0  0  0  0
  -23.6306   -8.2240   22.0749 C   0  0  0  0  0  0
  -22.4309   -8.0296   21.3512 C   0  0  0  0  0  0
  -21.9932   -9.0268   20.4637 C   0  0  0  0  0  0
  -22.7270  -10.2164   20.3058 C   0  0  0  0  0  0
  -21.6854   -6.0763   22.5268 C   0  0  0  0  0  0
  -21.4024   -6.5640   23.8229 C   0  0  0  0  0  0
  -21.3669   -5.6797   24.9169 C   0  0  0  0  0  0
  -21.6032   -4.3049   24.7219 C   0  0  0  0  0  0
  -21.8825   -3.8159   23.4329 C   0  0  0  0  0  0
  -21.9202   -4.6972   22.3404 C   0  0  0  0  0  0
  -22.7833  -13.5228   21.1888 C   0  0  0  0  0  0
  -22.1663   -4.2156   21.0970 F   0  0  0  0  0  0
  -21.5636   -3.4545   25.7729 F   0  0  0  0  0  0
  -30.0296  -13.3228   20.3867 N   0  0  0  0  0  0
  -26.3001  -12.9382   20.3412 N   0  0  0  0  0  0
  -25.9340  -11.6538   20.5863 N   0  0  0  0  0  0
  -22.0482  -12.8164   22.0462 N   0  0  0  0  0  0
  -25.4177  -15.1900   20.3885 N   0  0  0  0  0  0
  -31.8779  -14.6299   20.1538 O   0  0  0  0  0  0
  -21.6651   -6.8897   21.4248 O   0  0  0  0  0  0
  -22.3505  -14.5541   20.6799 O   0  0  0  0  0  0
  -24.6102  -31.8782   23.2169 C   0  0  0  0  0  0
  -25.9004  -32.4860   23.8472 C   0  0  1  0  0  0
  -27.2105  -27.4728   20.0922 C   0  0  0  0  0  0
  -25.5860  -33.8683   24.2422 N   0  0  0  0  0  0
  -23.3929  -30.5131   21.5612 C   0  0  2  0  0  0
  -24.8256  -28.9929   20.1154 C   0  0  0  0  0  0
  -22.7336  -29.4701   22.4967 C   0  0  0  0  0  0
  -18.0246  -28.1172   22.8529 C   0  0  0  0  0  0
  -24.1466  -36.7295   23.2668 C   0  0  0  0  0  0
  -25.9242  -30.8572   21.3639 C   0  0  0  0  0  0
  -25.9915  -29.4965   20.7107 C   0  0  0  0  0  0
  -27.1914  -28.7473   20.7010 C   0  0  0  0  0  0
  -26.0391  -26.9885   19.4780 C   0  0  0  0  0  0
  -24.8419  -27.7267   19.5080 C   0  0  0  0  0  0
  -23.5819  -29.8576   20.1680 C   0  0  0  0  0  0
  -25.4089  -36.3190   24.0420 C   0  0  1  0  0  0
  -20.5807  -28.3578   23.1201 C   0  0  2  0  0  0
  -20.6655  -26.9261   22.5321 C   0  0  0  0  0  0
  -19.5706  -26.6322   21.5088 C   0  0  0  0  0  0
  -18.1893  -26.7773   22.1523 C   0  0  0  0  0  0
  -19.1493  -28.8708   23.2756 C   0  0  0  0  0  0
  -18.9553  -30.1389   23.8570 C   0  0  0  0  0  0
  -17.6619  -30.6625   24.0331 C   0  0  0  0  0  0
  -25.9022  -34.9514   23.5214 C   0  0  0  0  0  0
  -16.5437  -29.9086   23.6336 C   0  0  0  0  0  0
  -16.7305  -28.6360   23.0517 C   0  0  0  0  0  0
  -26.4380  -31.6588   25.0744 C   0  0  0  0  0  0
  -25.3650  -31.3648   26.1510 C   0  0  0  0  0  0
  -27.0275  -30.3088   24.6074 C   0  0  0  0  0  0
  -27.6009  -32.4292   25.7388 C   0  0  0  0  0  0
  -27.5593  -37.1801   24.8498 C   0  0  0  0  0  0
  -21.4099  -29.2952   22.3570 N   0  0  0  0  0  0
  -26.4294  -37.3864   23.9450 N   0  0  0  0  0  0
  -24.6616  -31.0985   22.1025 N   0  0  0  0  0  0
  -23.4103  -28.8277   23.3047 O   0  0  0  0  0  0
  -28.3583  -26.7137   20.1105 O   0  0  0  0  0  0
  -26.5642  -34.8940   22.4812 O   0  0  0  0  0  0
  -23.5331  -32.1597   23.7579 O   0  0  0  0  0  0
  -27.0161  -20.5369   22.7110 C   0  0  0  0  0  0
  -30.2204  -16.8207   19.5000 C   0  0  0  0  0  0
  -29.1190  -16.3048   21.2510 C   0  0  0  0  0  0
  -28.3268  -19.8850   22.2975 C   0  0  0  0  0  0
  -29.4178  -17.6224   20.5284 C   0  0  0  0  0  0
  -26.5297  -20.1600   21.3057 C   0  0  1  0  0  0
  -28.2744  -18.5938   20.1263 C   0  0  0  0  0  0
  -26.4680  -21.2105   20.1554 C   0  0  0  0  0  0
  -27.7508  -21.9162   19.6146 C   0  0  0  0  0  0
  -28.6469  -24.3073   19.7348 C   0  0  0  0  0  0
  -28.1977  -25.4185   20.7005 C   0  0  0  0  0  0
  -29.8705  -15.5824   20.2242 N   0  0  0  0  0  0
  -27.5631  -19.0926   21.3356 N   0  3  2  0  0  0
  -27.5366  -23.3686   19.3921 N   0  3  0  0  0  0
  -31.4633  -12.3928   19.0934 H   0  0  0  0  0  0
  -30.3309  -11.3006   19.8405 H   0  0  0  0  0  0
  -29.7185  -11.7309   17.4326 H   0  0  0  0  0  0
  -29.6444  -13.4494   17.7363 H   0  0  0  0  0  0
  -27.8177  -11.2909   18.8339 H   0  0  0  0  0  0
  -27.3545  -12.6063   17.7897 H   0  0  0  0  0  0
  -27.6751  -14.2440   19.5262 H   0  0  0  0  0  0
  -28.6888  -12.0613   21.4235 H   0  0  0  0  0  0
  -28.5124  -13.7558   21.7920 H   0  0  0  0  0  0
  -25.2792   -9.5690   22.4734 H   0  0  0  0  0  0
  -24.0046   -7.4628   22.7425 H   0  0  0  0  0  0
  -21.0892   -8.8787   19.8902 H   0  0  0  0  0  0
  -22.3745  -10.9696   19.6152 H   0  0  0  0  0  0
  -21.2013   -7.6151   23.9717 H   0  0  0  0  0  0
  -21.1485   -6.0521   25.9075 H   0  0  0  0  0  0
  -22.0596   -2.7610   23.2832 H   0  0  0  0  0  0
  -22.4119  -11.9818   22.4829 H   0  0  0  0  0  0
  -21.1062  -13.1112   22.2659 H   0  0  0  0  0  0
  -24.6092  -15.8032   20.3839 H   0  0  0  0  0  0
  -26.1979  -15.5596   19.8630 H   0  0  0  0  0  0
  -26.7061  -32.5611   23.1249 H   0  0  0  0  0  0
  -24.9808  -33.9864   25.0419 H   0  0  0  0  0  0
  -22.6857  -31.3395   21.4417 H   0  0  0  0  0  0
  -23.3783  -35.9565   23.3327 H   0  0  0  0  0  0
  -24.3547  -36.8877   22.2071 H   0  0  0  0  0  0
  -23.7133  -37.6474   23.6630 H   0  0  0  0  0  0
  -26.0521  -31.6353   20.6108 H   0  0  0  0  0  0
  -26.8068  -30.9006   21.9855 H   0  0  0  0  0  0
  -28.0827  -29.1253   21.1862 H   0  0  0  0  0  0
  -26.0418  -26.0382   18.9743 H   0  0  0  0  0  0
  -23.9468  -27.3275   19.0568 H   0  0  0  0  0  0
  -23.6512  -30.6421   19.4123 H   0  0  0  0  0  0
  -22.6965  -29.2812   19.8876 H   0  0  0  0  0  0
  -25.1241  -36.2071   25.0929 H   0  0  0  0  0  0
  -20.9755  -28.3400   24.1333 H   0  0  0  0  0  0
  -20.5515  -26.2084   23.3448 H   0  0  0  0  0  0
  -21.6448  -26.7228   22.0971 H   0  0  0  0  0  0
  -19.6817  -25.6294   21.0887 H   0  0  0  0  0  0
  -19.6738  -27.3484   20.6952 H   0  0  0  0  0  0
  -17.4237  -26.6516   21.3918 H   0  0  0  0  0  0
  -18.0468  -25.9597   22.8613 H   0  0  0  0  0  0
  -19.8091  -30.7294   24.1422 H   0  0  0  0  0  0
  -17.5395  -31.6483   24.4561 H   0  0  0  0  0  0
  -15.5521  -30.3153   23.7552 H   0  0  0  0  0  0
  -15.8733  -28.0668   22.7305 H   0  0  0  0  0  0
  -24.5803  -30.7018   25.7829 H   0  0  0  0  0  0
  -24.8794  -32.2760   26.5030 H   0  0  0  0  0  0
  -25.7983  -30.8734   27.0242 H   0  0  0  0  0  0
  -26.2879  -29.6797   24.1124 H   0  0  0  0  0  0
  -27.4155  -29.7336   25.4490 H   0  0  0  0  0  0
  -27.8614  -30.4523   23.9214 H   0  0  0  0  0  0
  -27.2712  -33.3648   26.1943 H   0  0  0  0  0  0
  -28.3685  -32.6789   25.0036 H   0  0  0  0  0  0
  -28.0792  -31.8406   26.5238 H   0  0  0  0  0  0
  -28.2684  -38.0054   24.7575 H   0  0  0  0  0  0
  -28.1031  -36.2590   24.6270 H   0  0  0  0  0  0
  -27.2309  -37.1401   25.8914 H   0  0  0  0  0  0
  -20.9314  -29.8569   21.6690 H   0  0  0  0  0  0
  -26.0206  -38.2977   24.1388 H   0  0  0  0  0  0
  -27.0731  -21.6001   22.9416 H   0  0  0  0  0  0
  -26.4914  -20.0010   23.5075 H   0  0  0  0  0  0
  -31.2861  -17.0721   19.5248 H   0  0  0  0  0  0
  -29.8360  -16.8673   18.4801 H   0  0  0  0  0  0
  -28.0649  -16.0418   21.2862 H   0  0  0  0  0  0
  -29.5720  -16.2374   22.2399 H   0  0  0  0  0  0
  -28.8141  -19.3070   23.0836 H   0  0  0  0  0  0
  -29.0286  -20.5768   21.8409 H   0  0  0  0  0  0
  -30.1479  -18.1780   21.1208 H   0  0  0  0  0  0
  -25.5549  -19.6721   21.3845 H   0  0  0  0  0  0
  -27.5665  -18.0882   19.4658 H   0  0  0  0  0  0
  -28.6724  -19.4337   19.5573 H   0  0  0  0  0  0
  -25.8311  -22.0104   20.5458 H   0  0  0  0  0  0
  -25.9019  -20.7881   19.3182 H   0  0  0  0  0  0
  -27.9985  -21.4753   18.6410 H   0  0  0  0  0  0
  -28.6174  -21.7486   20.2387 H   0  0  0  0  0  0
  -29.5232  -23.8091   20.1563 H   0  0  0  0  0  0
  -28.9983  -24.7867   18.8196 H   0  0  0  0  0  0
  -28.7948  -25.3736   21.6101 H   0  0  0  0  0  0
  -27.1864  -25.2350   21.0664 H   0  0  0  0  0  0
  -27.1891  -18.2901   21.8192 H   0  0  0  0  0  0
  -26.6889  -23.6222   19.8843 H   0  0  0  0  0  0
  -27.3122  -23.5125   18.4188 H   0  0  0  0  0  0
  1 25  1  0  0  0
  1 30  2  0  0  0
  1 82  1  0  0  0
  2  3  1  0  0  0
  2 25  1  0  0  0
  2 85  1  0  0  0
  2 86  1  0  0  0
  3  4  1  0  0  0
  3 87  1  0  0  0
  3 88  1  0  0  0
  4  5  1  0  0  0
  4 89  1  0  0  0
  4 90  1  0  0  0
  5  6  1  0  0  0
  5 26  1  0  0  0
  5 91  1  0  0  0
  6 25  1  0  0  0
  6 92  1  0  0  0
  6 93  1  0  0  0
  7  8  2  0  0  0
  7 26  1  0  0  0
  7 29  1  0  0  0
  8  9  1  0  0  0
  8 22  1  0  0  0
  9 10  1  0  0  0
  9 27  2  0  0  0
 10 11  2  0  0  0
 10 15  1  0  0  0
 11 12  1  0  0  0
 11 94  1  0  0  0
 12 13  2  0  0  0
 12 95  1  0  0  0
 13 14  1  0  0  0
 13 31  1  0  0  0
 14 15  2  0  0  0
 14 96  1  0  0  0
 15 97  1  0  0  0
 16 17  2  0  0  0
 16 21  1  0  0  0
 16 31  1  0  0  0
 17 18  1  0  0  0
 17 98  1  0  0  0
 18 19  2  0  0  0
 18 99  1  0  0  0
 19 20  1  0  0  0
 19 24  1  0  0  0
 20 21  2  0  0  0
 20100  1  0  0  0
 21 23  1  0  0  0
 22 28  1  0  0  0
 22 32  2  0  0  0
 26 27  1  0  0  0
 28101  1  0  0  0
 28102  1  0  0  0
 29103  1  0  0  0
 29104  1  0  0  0
 33 34  1  0  0  0
 33 66  1  0  0  0
 33 70  2  0  0  0
 34 36  1  0  0  0
 34 59  1  0  0  0
 34105  1  0  0  0
 35 44  2  0  0  0
 35 45  1  0  0  0
 35 68  1  0  0  0
 36 56  1  0  0  0
 36106  1  0  0  0
 37 39  1  0  0  0
 37 47  1  0  0  0
 37 66  1  0  0  0
 37107  1  0  0  0
 38 43  2  0  0  0
 38 46  1  0  0  0
 38 47  1  0  0  0
 39 64  1  0  0  0
 39 67  2  0  0  0
 40 52  1  0  0  0
 40 53  2  0  0  0
 40 58  1  0  0  0
 41108  1  0  0  0
 41109  1  0  0  0
 41110  1  0  0  0
 41 48  1  0  0  0
 42 43  1  0  0  0
 42 66  1  0  0  0
 42111  1  0  0  0
 42112  1  0  0  0
 43 44  1  0  0  0
 44113  1  0  0  0
 45 46  2  0  0  0
 45114  1  0  0  0
 46115  1  0  0  0
 47116  1  0  0  0
 47117  1  0  0  0
 48 56  1  0  0  0
 48 65  1  0  0  0
 48118  1  0  0  0
 49 50  1  0  0  0
 49 53  1  0  0  0
 49 64  1  0  0  0
 49119  1  0  0  0
 50 51  1  0  0  0
 50120  1  0  0  0
 50121  1  0  0  0
 51 52  1  0  0  0
 51122  1  0  0  0
 51123  1  0  0  0
 52124  1  0  0  0
 52125  1  0  0  0
 53 54  1  0  0  0
 54 55  2  0  0  0
 54126  1  0  0  0
 55 57  1  0  0  0
 55127  1  0  0  0
 56 69  2  0  0  0
 57 58  2  0  0  0
 57128  1  0  0  0
 58129  1  0  0  0
 59 60  1  0  0  0
 59 61  1  0  0  0
 59 62  1  0  0  0
 60130  1  0  0  0
 60131  1  0  0  0
 60132  1  0  0  0
 61133  1  0  0  0
 61134  1  0  0  0
 61135  1  0  0  0
 62136  1  0  0  0
 62137  1  0  0  0
 62138  1  0  0  0
 63 65  1  0  0  0
 63139  1  0  0  0
 63140  1  0  0  0
 63141  1  0  0  0
 64142  1  0  0  0
 65143  1  0  0  0
 68 81  1  0  0  0
 71 74  1  0  0  0
 71 76  1  0  0  0
 71144  1  0  0  0
 71145  1  0  0  0
 72 75  1  0  0  0
 72 82  1  0  0  0
 72146  1  0  0  0
 72147  1  0  0  0
 73 75  1  0  0  0
 73 82  1  0  0  0
 73148  1  0  0  0
 73149  1  0  0  0
 74 83  1  0  0  0
 74150  1  0  0  0
 74151  1  0  0  0
 75 77  1  0  0  0
 75152  1  0  0  0
 76 78  1  0  0  0
 76 83  1  0  0  0
 76153  1  0  0  0
 77154  1  0  0  0
 77155  1  0  0  0
 77 83  1  0  0  0
 78 79  1  0  0  0
 78156  1  0  0  0
 78157  1  0  0  0
 79 84  1  0  0  0
 79158  1  0  0  0
 79159  1  0  0  0
 80 81  1  0  0  0
 80 84  1  0  0  0
 80160  1  0  0  0
 80161  1  0  0  0
 81162  1  0  0  0
 81163  1  0  0  0
 83164  1  0  0  0
 84165  1  0  0  0
 84166  1  0  0  0
M  CHG  2  83   1  84   1
M  ISO  4   1 100  68 101  81 101  82 100
M  END
> <chiral flag>
0

> <version>
0

> <s_m_source_file>
/data/baiqing/PycharmProjects/Reinvent-master-3.2/result/LINK_invent/BTK/process_docking_weight1_custom_sum_contain_oxygen_bond_distance_aromatic_linkinvent_7_9_3/rearranged_h_0191.sdf

> <i_m_source_file_index>
3

> <r_mmod_Potential_Energy-OPLS-2005>
-19.6240615844727

> <r_mmod_Stretch_Energy-OPLS-2005>
39.8035545349121

> <r_mmod_Bend_Energy-OPLS-2005>
149.52262878418

> <r_mmod_Torsional_Energy-OPLS-2005>
396.700317382812

> <r_mmod_Improper_Torsional_Energy-OPLS-2005>
24.7381362915039

> <r_mmod_Van_der_Waal_Energy-OPLS-2005>
129.541030883789

> <r_mmod_Electrostatic_Energy-OPLS-2005>
192.953842163086

> <r_mmod_Solvation_Energy-OPLS-2005>
-976.586181640625

> <b_mmod_Minimization_Converged-OPLS-2005>
0

> <r_mmod_RMS_Derivative-OPLS-2005>
13.1428203582764

$$$$
3
                    3D
 Structure written by MMmdl.
152161  0  0  1  0            999 V2000
  -30.5797  -14.8865   20.4402 C   0  0  0  0  0  0
  -30.4264  -12.5448   19.5085 C   0  0  0  0  0  0
  -29.5190  -12.5282   18.2588 C   0  0  0  0  0  0
  -28.0435  -12.3438   18.6572 C   0  0  0  0  0  0
  -27.6278  -13.2532   19.8431 C   0  0  2  0  0  0
  -28.6667  -13.2593   20.9841 C   0  0  0  0  0  0
  -25.2432  -13.8238   20.5735 C   0  0  0  0  0  0
  -24.1735  -13.0458   20.9203 C   0  0  0  0  0  0
  -24.6354  -11.6942   20.8729 C   0  0  0  0  0  0
  -23.9045  -10.4298   21.0377 C   0  0  0  0  0  0
  -24.3597   -9.4220   21.9157 C   0  0  0  0  0  0
  -23.6286   -8.2251   22.0744 C   0  0  0  0  0  0
  -22.4266   -8.0273   21.3538 C   0  0  0  0  0  0
  -21.9884   -9.0247   20.4642 C   0  0  0  0  0  0
  -22.7209  -10.2129   20.3044 C   0  0  0  0  0  0
  -21.6861   -6.0707   22.5269 C   0  0  0  0  0  0
  -21.4022   -6.5609   23.8201 C   0  0  0  0  0  0
  -21.3669   -5.6774   24.9167 C   0  0  0  0  0  0
  -21.6045   -4.3032   24.7217 C   0  0  0  0  0  0
  -21.8823   -3.8111   23.4337 C   0  0  0  0  0  0
  -21.9197   -4.6931   22.3390 C   0  0  0  0  0  0
  -22.7750  -13.5227   21.1840 C   0  0  0  0  0  0
  -22.1667   -4.2119   21.0972 F   0  0  0  0  0  0
  -21.5642   -3.4514   25.7726 F   0  0  0  0  0  0
  -29.9541  -13.6443   20.3944 N   0  0  0  0  0  0
  -26.2857  -12.9474   20.3243 N   0  0  0  0  0  0
  -25.9285  -11.6600   20.5696 N   0  0  0  0  0  0
  -22.0401  -12.8263   22.0428 N   0  0  0  0  0  0
  -25.4101  -15.1978   20.4254 N   0  0  0  0  0  0
  -31.7784  -14.9258   20.1429 O   0  0  0  0  0  0
  -21.6647   -6.8852   21.4230 O   0  0  0  0  0  0
  -22.3424  -14.5511   20.6657 O   0  0  0  0  0  0
  -24.6413  -31.8442   23.1885 C   0  0  0  0  0  0
  -25.9191  -32.4689   23.8271 C   0  0  1  0  0  0
  -27.2074  -27.1438   20.1544 C   0  0  0  0  0  0
  -25.5934  -33.8492   24.2173 N   0  0  0  0  0  0
  -23.4435  -30.4661   21.5330 C   0  0  2  0  0  0
  -24.8920  -28.8952   20.1015 C   0  0  0  0  0  0
  -22.7552  -29.4551   22.4852 C   0  0  0  0  0  0
  -18.0301  -28.1394   22.8483 C   0  0  0  0  0  0
  -24.1491  -36.7255   23.2644 C   0  0  0  0  0  0
  -25.9992  -30.7171   21.3915 C   0  0  0  0  0  0
  -26.0667  -29.3332   20.7259 C   0  0  0  0  0  0
  -27.2228  -28.4715   20.7379 C   0  0  0  0  0  0
  -26.0151  -26.8079   19.4755 C   0  0  0  0  0  0
  -24.8799  -27.6478   19.4586 C   0  0  0  0  0  0
  -23.6688  -29.7967   20.1503 C   0  0  0  0  0  0
  -25.4125  -36.3021   24.0309 C   0  0  1  0  0  0
  -20.5916  -28.3708   23.1235 C   0  0  2  0  0  0
  -20.6779  -26.9412   22.5402 C   0  0  0  0  0  0
  -19.5749  -26.6366   21.5209 C   0  0  0  0  0  0
  -18.1933  -26.7932   22.1623 C   0  0  0  0  0  0
  -19.1559  -28.8874   23.2851 C   0  0  0  0  0  0
  -18.9475  -30.1478   23.8865 C   0  0  0  0  0  0
  -17.6470  -30.6595   24.0563 C   0  0  0  0  0  0
  -25.9083  -34.9400   23.5051 C   0  0  0  0  0  0
  -16.5363  -29.9087   23.6346 C   0  0  0  0  0  0
  -16.7281  -28.6507   23.0360 C   0  0  0  0  0  0
  -26.4494  -31.6581   25.0740 C   0  0  0  0  0  0
  -25.3661  -31.3794   26.1433 C   0  0  0  0  0  0
  -27.0374  -30.2967   24.6377 C   0  0  0  0  0  0
  -27.6006  -32.4369   25.7508 C   0  0  0  0  0  0
  -27.5574  -37.1785   24.8451 C   0  0  0  0  0  0
  -21.4242  -29.3026   22.3594 N   0  0  0  0  0  0
  -26.4277  -37.3748   23.9408 N   0  0  0  0  0  0
  -24.7134  -31.0329   22.0911 N   0  0  0  0  0  0
  -23.4215  -28.8109   23.2988 O   0  0  0  0  0  0
  -28.2539  -26.1635   20.2821 O   0  0  0  0  0  0
  -26.5677  -34.8897   22.4643 O   0  0  0  0  0  0
  -23.5534  -32.1302   23.7121 O   0  0  0  0  0  0
  -28.3415  -21.9655   22.5189 C   0  0  0  0  0  0
  -28.4597  -23.2113   20.6259 C   0  0  0  0  0  0
  -28.9396  -20.8737   20.6693 C   0  0  0  0  0  0
  -30.5120  -17.4035   21.1427 C   0  0  0  0  0  0
  -29.1475  -16.9780   19.7282 C   0  0  0  0  0  0
  -29.2653  -18.2436   20.6708 C   0  0  0  0  0  0
  -27.9901  -21.8922   23.9930 C   0  0  0  0  0  0
  -28.1317  -24.6613   19.8767 C   0  0  0  0  0  0
  -28.2294  -23.1651   21.9441 N   0  0  0  0  0  0
  -28.6805  -20.8041   21.9618 N   0  0  0  0  0  0
  -28.8406  -22.0531   19.9483 N   0  0  0  0  0  0
  -29.8770  -16.0910   20.7105 N   0  0  0  0  0  0
  -29.3457  -19.6580   20.0504 O   0  0  0  0  0  0
  -31.4689  -12.6693   19.2119 H   0  0  0  0  0  0
  -30.3806  -11.5884   20.0311 H   0  0  0  0  0  0
  -29.8235  -11.7367   17.5705 H   0  0  0  0  0  0
  -29.6326  -13.4665   17.7161 H   0  0  0  0  0  0
  -27.9001  -11.2949   18.9209 H   0  0  0  0  0  0
  -27.3980  -12.5331   17.7984 H   0  0  0  0  0  0
  -27.6001  -14.2653   19.4440 H   0  0  0  0  0  0
  -28.7297  -12.2817   21.4642 H   0  0  0  0  0  0
  -28.3722  -13.9702   21.7598 H   0  0  0  0  0  0
  -25.2734   -9.5715   22.4731 H   0  0  0  0  0  0
  -23.9995   -7.4644   22.7468 H   0  0  0  0  0  0
  -21.0802   -8.8759   19.8957 H   0  0  0  0  0  0
  -22.3644  -10.9665   19.6166 H   0  0  0  0  0  0
  -21.2031   -7.6119   23.9696 H   0  0  0  0  0  0
  -21.1495   -6.0494   25.9072 H   0  0  0  0  0  0
  -22.0599   -2.7566   23.2843 H   0  0  0  0  0  0
  -22.4033  -11.9995   22.4924 H   0  0  0  0  0  0
  -21.1016  -13.1303   22.2593 H   0  0  0  0  0  0
  -24.6438  -15.8498   20.5530 H   0  0  0  0  0  0
  -26.2665  -15.6407   20.1216 H   0  0  0  0  0  0
  -26.7261  -32.5276   23.1003 H   0  0  0  0  0  0
  -25.0020  -33.9605   25.0269 H   0  0  0  0  0  0
  -22.7458  -31.2922   21.3810 H   0  0  0  0  0  0
  -23.3747  -35.9596   23.3292 H   0  0  0  0  0  0
  -24.3576  -36.8901   22.2062 H   0  0  0  0  0  0
  -23.7249  -37.6444   23.6699 H   0  0  0  0  0  0
  -26.1747  -31.4789   20.6306 H   0  0  0  0  0  0
  -26.8604  -30.7512   22.0465 H   0  0  0  0  0  0
  -28.1136  -28.7951   21.2584 H   0  0  0  0  0  0
  -25.9232  -25.8511   18.9830 H   0  0  0  0  0  0
  -23.9839  -27.3114   18.9524 H   0  0  0  0  0  0
  -23.8036  -30.5714   19.3943 H   0  0  0  0  0  0
  -22.7832  -29.2401   19.8384 H   0  0  0  0  0  0
  -25.1323  -36.1841   25.0801 H   0  0  0  0  0  0
  -21.0019  -28.3301   24.1351 H   0  0  0  0  0  0
  -20.5647  -26.2334   23.3627 H   0  0  0  0  0  0
  -21.6653  -26.7401   22.1221 H   0  0  0  0  0  0
  -19.6894  -25.6259   21.1264 H   0  0  0  0  0  0
  -19.6683  -27.3158   20.6725 H   0  0  0  0  0  0
  -17.4205  -26.6685   21.4020 H   0  0  0  0  0  0
  -18.0326  -26.0077   22.9019 H   0  0  0  0  0  0
  -19.7951  -30.7307   24.2207 H   0  0  0  0  0  0
  -17.5025  -31.6266   24.5173 H   0  0  0  0  0  0
  -15.5363  -30.2975   23.7680 H   0  0  0  0  0  0
  -15.8685  -28.0808   22.7090 H   0  0  0  0  0  0
  -24.5812  -30.7188   25.7737 H   0  0  0  0  0  0
  -24.8897  -32.3000   26.4815 H   0  0  0  0  0  0
  -25.7923  -30.8965   27.0237 H   0  0  0  0  0  0
  -26.3033  -29.6676   24.1346 H   0  0  0  0  0  0
  -27.3899  -29.7293   25.4996 H   0  0  0  0  0  0
  -27.8966  -30.4166   23.9779 H   0  0  0  0  0  0
  -27.2571  -33.3659   26.2068 H   0  0  0  0  0  0
  -28.3816  -32.6961   25.0350 H   0  0  0  0  0  0
  -28.0698  -31.8538   26.5439 H   0  0  0  0  0  0
  -28.2576  -38.0097   24.7535 H   0  0  0  0  0  0
  -28.1090  -36.2634   24.6243 H   0  0  0  0  0  0
  -27.2310  -37.1394   25.8856 H   0  0  0  0  0  0
  -20.9458  -29.8766   21.6785 H   0  0  0  0  0  0
  -26.0130  -38.2805   24.1427 H   0  0  0  0  0  0
  -31.4245  -17.6513   20.5967 H   0  0  0  0  0  0
  -30.6977  -17.4824   22.2146 H   0  0  0  0  0  0
  -29.6726  -17.0934   18.7769 H   0  0  0  0  0  0
  -28.1134  -16.6845   19.5462 H   0  0  0  0  0  0
  -28.4818  -18.2073   21.4273 H   0  0  0  0  0  0
  -28.7950  -21.4182   24.5581 H   0  0  0  0  0  0
  -27.0815  -21.3064   24.1345 H   0  0  0  0  0  0
  -27.8181  -22.8793   24.4205 H   0  0  0  0  0  0
  -29.1833  -24.7729   20.1428 H   0  0  0  0  0  0
  -27.2317  -24.6693   20.4907 H   0  0  0  0  0  0
  1 25  1  0  0  0
  1 30  2  0  0  0
  1 82  1  0  0  0
  2  3  1  0  0  0
  2 25  1  0  0  0
  2 84  1  0  0  0
  2 85  1  0  0  0
  3  4  1  0  0  0
  3 86  1  0  0  0
  3 87  1  0  0  0
  4  5  1  0  0  0
  4 88  1  0  0  0
  4 89  1  0  0  0
  5  6  1  0  0  0
  5 26  1  0  0  0
  5 90  1  0  0  0
  6 25  1  0  0  0
  6 91  1  0  0  0
  6 92  1  0  0  0
  7  8  2  0  0  0
  7 26  1  0  0  0
  7 29  1  0  0  0
  8  9  1  0  0  0
  8 22  1  0  0  0
  9 10  1  0  0  0
  9 27  2  0  0  0
 10 11  2  0  0  0
 10 15  1  0  0  0
 11 12  1  0  0  0
 11 93  1  0  0  0
 12 13  2  0  0  0
 12 94  1  0  0  0
 13 14  1  0  0  0
 13 31  1  0  0  0
 14 15  2  0  0  0
 14 95  1  0  0  0
 15 96  1  0  0  0
 16 17  2  0  0  0
 16 21  1  0  0  0
 16 31  1  0  0  0
 17 18  1  0  0  0
 17 97  1  0  0  0
 18 19  2  0  0  0
 18 98  1  0  0  0
 19 20  1  0  0  0
 19 24  1  0  0  0
 20 21  2  0  0  0
 20 99  1  0  0  0
 21 23  1  0  0  0
 22 28  1  0  0  0
 22 32  2  0  0  0
 26 27  1  0  0  0
 28100  1  0  0  0
 28101  1  0  0  0
 29102  1  0  0  0
 29103  1  0  0  0
 33 34  1  0  0  0
 33 66  1  0  0  0
 33 70  2  0  0  0
 34 36  1  0  0  0
 34 59  1  0  0  0
 34104  1  0  0  0
 35 44  2  0  0  0
 35 45  1  0  0  0
 35 68  1  0  0  0
 36 56  1  0  0  0
 36105  1  0  0  0
 37 39  1  0  0  0
 37 47  1  0  0  0
 37 66  1  0  0  0
 37106  1  0  0  0
 38 43  2  0  0  0
 38 46  1  0  0  0
 38 47  1  0  0  0
 39 64  1  0  0  0
 39 67  2  0  0  0
 40 52  1  0  0  0
 40 53  2  0  0  0
 40 58  1  0  0  0
 41107  1  0  0  0
 41108  1  0  0  0
 41109  1  0  0  0
 41 48  1  0  0  0
 42 43  1  0  0  0
 42 66  1  0  0  0
 42110  1  0  0  0
 42111  1  0  0  0
 43 44  1  0  0  0
 44112  1  0  0  0
 45 46  2  0  0  0
 45113  1  0  0  0
 46114  1  0  0  0
 47115  1  0  0  0
 47116  1  0  0  0
 48 56  1  0  0  0
 48 65  1  0  0  0
 48117  1  0  0  0
 49 50  1  0  0  0
 49 53  1  0  0  0
 49 64  1  0  0  0
 49118  1  0  0  0
 50 51  1  0  0  0
 50119  1  0  0  0
 50120  1  0  0  0
 51 52  1  0  0  0
 51121  1  0  0  0
 51122  1  0  0  0
 52123  1  0  0  0
 52124  1  0  0  0
 53 54  1  0  0  0
 54 55  2  0  0  0
 54125  1  0  0  0
 55 57  1  0  0  0
 55126  1  0  0  0
 56 69  2  0  0  0
 57 58  2  0  0  0
 57127  1  0  0  0
 58128  1  0  0  0
 59 60  1  0  0  0
 59 61  1  0  0  0
 59 62  1  0  0  0
 60129  1  0  0  0
 60130  1  0  0  0
 60131  1  0  0  0
 61132  1  0  0  0
 61133  1  0  0  0
 61134  1  0  0  0
 62135  1  0  0  0
 62136  1  0  0  0
 62137  1  0  0  0
 63 65  1  0  0  0
 63138  1  0  0  0
 63139  1  0  0  0
 63140  1  0  0  0
 64141  1  0  0  0
 65142  1  0  0  0
 68 78  1  0  0  0
 71 77  1  0  0  0
 71 79  2  0  0  0
 71 80  1  0  0  0
 72 78  1  0  0  0
 72 79  1  0  0  0
 72 81  2  0  0  0
 73 80  2  0  0  0
 73 81  1  0  0  0
 73 83  1  0  0  0
 74 76  1  0  0  0
 74 82  1  0  0  0
 74143  1  0  0  0
 74144  1  0  0  0
 75 76  1  0  0  0
 75 82  1  0  0  0
 75145  1  0  0  0
 75146  1  0  0  0
 76 83  1  0  0  0
 76147  1  0  0  0
 77148  1  0  0  0
 77149  1  0  0  0
 77150  1  0  0  0
 78151  1  0  0  0
 78152  1  0  0  0
M  ISO  4   1 100  68 101  78 101  82 100
M  END
> <chiral flag>
0

> <version>
0

> <s_m_source_file>
/data/baiqing/PycharmProjects/Reinvent-master-3.2/result/LINK_invent/BTK/process_docking_weight1_custom_sum_contain_oxygen_bond_distance_aromatic_linkinvent_7_9_3/rearranged_h_0191.sdf

> <i_m_source_file_index>
4

> <r_mmod_Potential_Energy-OPLS-2005>
6.98564338684082

> <r_mmod_Stretch_Energy-OPLS-2005>
212.729202270508

> <r_mmod_Bend_Energy-OPLS-2005>
451.889831542969

> <r_mmod_Torsional_Energy-OPLS-2005>
261.858245849609

> <r_mmod_Improper_Torsional_Energy-OPLS-2005>
9.99388217926025

> <r_mmod_Van_der_Waal_Energy-OPLS-2005>
156.342559814453

> <r_mmod_Electrostatic_Energy-OPLS-2005>
-1022.89349365234

> <r_mmod_Solvation_Energy-OPLS-2005>
-233.003707885742

> <b_mmod_Minimization_Converged-OPLS-2005>
0

> <r_mmod_RMS_Derivative-OPLS-2005>
3.10511159896851

$$$$
4
                    3D
 Structure written by MMmdl.
158167  0  0  1  0            999 V2000
  -30.5636  -14.9406   20.3959 C   0  0  0  0  0  0
  -30.4366  -12.5812   19.4822 C   0  0  0  0  0  0
  -29.5153  -12.5167   18.2440 C   0  0  0  0  0  0
  -28.0493  -12.3046   18.6686 C   0  0  0  0  0  0
  -27.6260  -13.2387   19.8322 C   0  0  2  0  0  0
  -28.6755  -13.2915   20.9611 C   0  0  0  0  0  0
  -25.2481  -13.8190   20.5738 C   0  0  0  0  0  0
  -24.1781  -13.0428   20.9221 C   0  0  0  0  0  0
  -24.6389  -11.6909   20.8759 C   0  0  0  0  0  0
  -23.9071  -10.4289   21.0414 C   0  0  0  0  0  0
  -24.3623   -9.4203   21.9190 C   0  0  0  0  0  0
  -23.6294   -8.2241   22.0757 C   0  0  0  0  0  0
  -22.4277   -8.0282   21.3547 C   0  0  0  0  0  0
  -21.9916   -9.0257   20.4648 C   0  0  0  0  0  0
  -22.7246  -10.2134   20.3059 C   0  0  0  0  0  0
  -21.6854   -6.0738   22.5281 C   0  0  0  0  0  0
  -21.4014   -6.5641   23.8215 C   0  0  0  0  0  0
  -21.3659   -5.6794   24.9176 C   0  0  0  0  0  0
  -21.6045   -4.3057   24.7225 C   0  0  0  0  0  0
  -21.8821   -3.8150   23.4344 C   0  0  0  0  0  0
  -21.9195   -4.6967   22.3402 C   0  0  0  0  0  0
  -22.7806  -13.5209   21.1877 C   0  0  0  0  0  0
  -22.1664   -4.2156   21.0980 F   0  0  0  0  0  0
  -21.5628   -3.4539   25.7736 F   0  0  0  0  0  0
  -29.9450  -13.6924   20.3422 N   0  0  0  0  0  0
  -26.2887  -12.9399   20.3265 N   0  0  0  0  0  0
  -25.9321  -11.6540   20.5756 N   0  0  0  0  0  0
  -22.0453  -12.8198   22.0429 N   0  0  0  0  0  0
  -25.4181  -15.1922   20.4213 N   0  0  0  0  0  0
  -31.7898  -14.9581   20.2371 O   0  0  0  0  0  0
  -21.6641   -6.8881   21.4244 O   0  0  0  0  0  0
  -22.3498  -14.5522   20.6731 O   0  0  0  0  0  0
  -24.6456  -31.8445   23.1901 C   0  0  0  0  0  0
  -25.9231  -32.4694   23.8282 C   0  0  1  0  0  0
  -27.2099  -27.1251   20.1407 C   0  0  0  0  0  0
  -25.5982  -33.8499   24.2199 N   0  0  0  0  0  0
  -23.4488  -30.4676   21.5363 C   0  0  2  0  0  0
  -24.8970  -28.9007   20.1092 C   0  0  0  0  0  0
  -22.7576  -29.4558   22.4851 C   0  0  0  0  0  0
  -18.0307  -28.1398   22.8475 C   0  0  0  0  0  0
  -24.1495  -36.7247   23.2640 C   0  0  0  0  0  0
  -26.0085  -30.7142   21.3931 C   0  0  0  0  0  0
  -26.0782  -29.3266   20.7303 C   0  0  0  0  0  0
  -27.2359  -28.4556   20.7312 C   0  0  0  0  0  0
  -25.9999  -26.8169   19.4730 C   0  0  0  0  0  0
  -24.8721  -27.6590   19.4653 C   0  0  0  0  0  0
  -23.6755  -29.8045   20.1538 C   0  0  0  0  0  0
  -25.4126  -36.3025   24.0314 C   0  0  1  0  0  0
  -20.5923  -28.3733   23.1223 C   0  0  2  0  0  0
  -20.6791  -26.9434   22.5396 C   0  0  0  0  0  0
  -19.5764  -26.6381   21.5208 C   0  0  0  0  0  0
  -18.1946  -26.7937   22.1619 C   0  0  0  0  0  0
  -19.1565  -28.8881   23.2842 C   0  0  0  0  0  0
  -18.9481  -30.1478   23.8869 C   0  0  0  0  0  0
  -17.6476  -30.6597   24.0559 C   0  0  0  0  0  0
  -25.9081  -34.9404   23.5059 C   0  0  0  0  0  0
  -16.5367  -29.9087   23.6337 C   0  0  0  0  0  0
  -16.7292  -28.6506   23.0362 C   0  0  0  0  0  0
  -26.4543  -31.6559   25.0725 C   0  0  0  0  0  0
  -25.3724  -31.3757   26.1417 C   0  0  0  0  0  0
  -27.0408  -30.2948   24.6325 C   0  0  0  0  0  0
  -27.6070  -32.4324   25.7512 C   0  0  0  0  0  0
  -27.5579  -37.1781   24.8465 C   0  0  0  0  0  0
  -21.4266  -29.3064   22.3601 N   0  0  0  0  0  0
  -26.4287  -37.3742   23.9412 N   0  0  0  0  0  0
  -24.7211  -31.0294   22.0947 N   0  0  0  0  0  0
  -23.4215  -28.8095   23.2997 O   0  0  0  0  0  0
  -28.2341  -26.1007   20.2150 O   0  0  0  0  0  0
  -26.5658  -34.8902   22.4633 O   0  0  0  0  0  0
  -23.5571  -32.1330   23.7114 O   0  0  0  0  0  0
  -29.0503  -20.9521   21.3758 C   0  0  0  0  0  0
  -28.7069  -22.3703   21.3709 C   0  0  0  0  0  0
  -29.2463  -21.0881   19.0603 C   0  0  0  0  0  0
  -29.3144  -20.1872   20.1865 C   0  0  0  0  0  0
  -28.6309  -23.1699   20.1798 C   0  0  0  0  0  0
  -29.3856  -18.0456   18.7889 C   0  0  0  0  0  0
  -29.1938  -16.5277   19.0604 C   0  0  0  0  0  0
  -29.9057  -17.5653   21.0289 C   0  0  1  0  0  0
  -31.3879  -16.9870   23.0609 C   0  0  0  0  0  0
  -27.8167  -24.6094   20.0150 C   0  0  0  0  0  0
  -31.2340  -17.8104   21.7722 C   0  0  0  0  0  0
  -28.9305  -22.4461   19.0494 N   0  0  0  0  0  0
  -29.5768  -18.7134   20.0663 N   0  0  0  0  0  0
  -29.8010  -16.1558   20.3499 N   0  0  0  0  0  0
  -31.4697  -12.7349   19.1665 H   0  0  0  0  0  0
  -30.4251  -11.6361   20.0272 H   0  0  0  0  0  0
  -29.8311  -11.7142   17.5761 H   0  0  0  0  0  0
  -29.6021  -13.4420   17.6728 H   0  0  0  0  0  0
  -27.9445  -11.2634   18.9756 H   0  0  0  0  0  0
  -27.3849  -12.4376   17.8139 H   0  0  0  0  0  0
  -27.5744  -14.2296   19.3902 H   0  0  0  0  0  0
  -28.7669  -12.3276   21.4636 H   0  0  0  0  0  0
  -28.3815  -14.0167   21.7221 H   0  0  0  0  0  0
  -25.2770   -9.5684   22.4764 H   0  0  0  0  0  0
  -24.0008   -7.4636   22.7477 H   0  0  0  0  0  0
  -21.0850   -8.8777   19.8951 H   0  0  0  0  0  0
  -22.3707  -10.9675   19.6171 H   0  0  0  0  0  0
  -21.2003   -7.6148   23.9719 H   0  0  0  0  0  0
  -21.1479   -6.0523   25.9080 H   0  0  0  0  0  0
  -22.0599   -2.7609   23.2847 H   0  0  0  0  0  0
  -22.4068  -11.9852   22.4806 H   0  0  0  0  0  0
  -21.1075  -13.1236   22.2647 H   0  0  0  0  0  0
  -24.6548  -15.8482   20.5466 H   0  0  0  0  0  0
  -26.2826  -15.6390   20.1456 H   0  0  0  0  0  0
  -26.7300  -32.5297   23.1010 H   0  0  0  0  0  0
  -25.0129  -33.9617   25.0346 H   0  0  0  0  0  0
  -22.7518  -31.2949   21.3855 H   0  0  0  0  0  0
  -23.3768  -35.9569   23.3276 H   0  0  0  0  0  0
  -24.3582  -36.8904   22.2061 H   0  0  0  0  0  0
  -23.7241  -37.6431   23.6693 H   0  0  0  0  0  0
  -26.1694  -31.4709   20.6240 H   0  0  0  0  0  0
  -26.8768  -30.7599   22.0384 H   0  0  0  0  0  0
  -28.1319  -28.7752   21.2447 H   0  0  0  0  0  0
  -25.8652  -25.8794   18.9585 H   0  0  0  0  0  0
  -23.9727  -27.3292   18.9634 H   0  0  0  0  0  0
  -23.8151  -30.5831   19.4028 H   0  0  0  0  0  0
  -22.7885  -29.2514   19.8392 H   0  0  0  0  0  0
  -25.1312  -36.1848   25.0807 H   0  0  0  0  0  0
  -21.0015  -28.3326   24.1345 H   0  0  0  0  0  0
  -20.5683  -26.2348   23.3618 H   0  0  0  0  0  0
  -21.6658  -26.7434   22.1201 H   0  0  0  0  0  0
  -19.6926  -25.6282   21.1259 H   0  0  0  0  0  0
  -19.6699  -27.3171   20.6721 H   0  0  0  0  0  0
  -17.4212  -26.6683   21.4025 H   0  0  0  0  0  0
  -18.0348  -26.0086   22.9021 H   0  0  0  0  0  0
  -19.7957  -30.7304   24.2227 H   0  0  0  0  0  0
  -17.5031  -31.6274   24.5165 H   0  0  0  0  0  0
  -15.5369  -30.2984   23.7675 H   0  0  0  0  0  0
  -15.8689  -28.0814   22.7095 H   0  0  0  0  0  0
  -24.5909  -30.7097   25.7737 H   0  0  0  0  0  0
  -24.8910  -32.2944   26.4778 H   0  0  0  0  0  0
  -25.8005  -30.8970   27.0233 H   0  0  0  0  0  0
  -26.3032  -29.6668   24.1316 H   0  0  0  0  0  0
  -27.3988  -29.7252   25.4910 H   0  0  0  0  0  0
  -27.8956  -30.4164   23.9670 H   0  0  0  0  0  0
  -27.2668  -33.3654   26.2017 H   0  0  0  0  0  0
  -28.3925  -32.6833   25.0371 H   0  0  0  0  0  0
  -28.0692  -31.8494   26.5490 H   0  0  0  0  0  0
  -28.2572  -38.0101   24.7526 H   0  0  0  0  0  0
  -28.1098  -36.2627   24.6269 H   0  0  0  0  0  0
  -27.2298  -37.1407   25.8868 H   0  0  0  0  0  0
  -20.9473  -29.8798   21.6799 H   0  0  0  0  0  0
  -26.0145  -38.2803   24.1429 H   0  0  0  0  0  0
  -29.0489  -20.4332   22.3229 H   0  0  0  0  0  0
  -28.4214  -22.8271   22.3086 H   0  0  0  0  0  0
  -29.4329  -20.6908   18.0737 H   0  0  0  0  0  0
  -28.5345  -18.4476   18.2365 H   0  0  0  0  0  0
  -30.2762  -18.2008   18.1772 H   0  0  0  0  0  0
  -29.5682  -15.9323   18.2249 H   0  0  0  0  0  0
  -28.1252  -16.3335   19.1341 H   0  0  0  0  0  0
  -29.1091  -17.5832   21.7752 H   0  0  0  0  0  0
  -32.3227  -17.2347   23.5644 H   0  0  0  0  0  0
  -31.3959  -15.9147   22.8745 H   0  0  0  0  0  0
  -30.5758  -17.1954   23.7581 H   0  0  0  0  0  0
  -26.9197  -24.4706   20.6198 H   0  0  0  0  0  0
  -27.4805  -24.5555   18.9802 H   0  0  0  0  0  0
  -31.3038  -18.8635   22.0475 H   0  0  0  0  0  0
  -32.0763  -17.6244   21.1045 H   0  0  0  0  0  0
  1 25  1  0  0  0
  1 30  2  0  0  0
  1 84  1  0  0  0
  2  3  1  0  0  0
  2 25  1  0  0  0
  2 85  1  0  0  0
  2 86  1  0  0  0
  3  4  1  0  0  0
  3 87  1  0  0  0
  3 88  1  0  0  0
  4  5  1  0  0  0
  4 89  1  0  0  0
  4 90  1  0  0  0
  5  6  1  0  0  0
  5 26  1  0  0  0
  5 91  1  0  0  0
  6 25  1  0  0  0
  6 92  1  0  0  0
  6 93  1  0  0  0
  7  8  2  0  0  0
  7 26  1  0  0  0
  7 29  1  0  0  0
  8  9  1  0  0  0
  8 22  1  0  0  0
  9 10  1  0  0  0
  9 27  2  0  0  0
 10 11  2  0  0  0
 10 15  1  0  0  0
 11 12  1  0  0  0
 11 94  1  0  0  0
 12 13  2  0  0  0
 12 95  1  0  0  0
 13 14  1  0  0  0
 13 31  1  0  0  0
 14 15  2  0  0  0
 14 96  1  0  0  0
 15 97  1  0  0  0
 16 17  2  0  0  0
 16 21  1  0  0  0
 16 31  1  0  0  0
 17 18  1  0  0  0
 17 98  1  0  0  0
 18 19  2  0  0  0
 18 99  1  0  0  0
 19 20  1  0  0  0
 19 24  1  0  0  0
 20 21  2  0  0  0
 20100  1  0  0  0
 21 23  1  0  0  0
 22 28  1  0  0  0
 22 32  2  0  0  0
 26 27  1  0  0  0
 28101  1  0  0  0
 28102  1  0  0  0
 29103  1  0  0  0
 29104  1  0  0  0
 33 34  1  0  0  0
 33 66  1  0  0  0
 33 70  2  0  0  0
 34 36  1  0  0  0
 34 59  1  0  0  0
 34105  1  0  0  0
 35 44  2  0  0  0
 35 45  1  0  0  0
 35 68  1  0  0  0
 36 56  1  0  0  0
 36106  1  0  0  0
 37 39  1  0  0  0
 37 47  1  0  0  0
 37 66  1  0  0  0
 37107  1  0  0  0
 38 43  2  0  0  0
 38 46  1  0  0  0
 38 47  1  0  0  0
 39 64  1  0  0  0
 39 67  2  0  0  0
 40 52  1  0  0  0
 40 53  2  0  0  0
 40 58  1  0  0  0
 41108  1  0  0  0
 41109  1  0  0  0
 41110  1  0  0  0
 41 48  1  0  0  0
 42 43  1  0  0  0
 42 66  1  0  0  0
 42111  1  0  0  0
 42112  1  0  0  0
 43 44  1  0  0  0
 44113  1  0  0  0
 45 46  2  0  0  0
 45114  1  0  0  0
 46115  1  0  0  0
 47116  1  0  0  0
 47117  1  0  0  0
 48 56  1  0  0  0
 48 65  1  0  0  0
 48118  1  0  0  0
 49 50  1  0  0  0
 49 53  1  0  0  0
 49 64  1  0  0  0
 49119  1  0  0  0
 50 51  1  0  0  0
 50120  1  0  0  0
 50121  1  0  0  0
 51 52  1  0  0  0
 51122  1  0  0  0
 51123  1  0  0  0
 52124  1  0  0  0
 52125  1  0  0  0
 53 54  1  0  0  0
 54 55  2  0  0  0
 54126  1  0  0  0
 55 57  1  0  0  0
 55127  1  0  0  0
 56 69  2  0  0  0
 57 58  2  0  0  0
 57128  1  0  0  0
 58129  1  0  0  0
 59 60  1  0  0  0
 59 61  1  0  0  0
 59 62  1  0  0  0
 60130  1  0  0  0
 60131  1  0  0  0
 60132  1  0  0  0
 61133  1  0  0  0
 61134  1  0  0  0
 61135  1  0  0  0
 62136  1  0  0  0
 62137  1  0  0  0
 62138  1  0  0  0
 63 65  1  0  0  0
 63139  1  0  0  0
 63140  1  0  0  0
 63141  1  0  0  0
 64142  1  0  0  0
 65143  1  0  0  0
 68 80  1  0  0  0
 71 72  2  0  0  0
 71 74  1  0  0  0
 71144  1  0  0  0
 72 75  1  0  0  0
 72145  1  0  0  0
 73 74  2  0  0  0
 73 82  1  0  0  0
 73146  1  0  0  0
 74 83  1  0  0  0
 75 80  1  0  0  0
 75 82  2  0  0  0
 76 77  1  0  0  0
 76 83  1  0  0  0
 76147  1  0  0  0
 76148  1  0  0  0
 77 84  1  0  0  0
 77149  1  0  0  0
 77150  1  0  0  0
 78 81  1  0  0  0
 78 83  1  0  0  0
 78 84  1  0  0  0
 78151  1  0  0  0
 79 81  1  0  0  0
 79152  1  0  0  0
 79153  1  0  0  0
 79154  1  0  0  0
 80155  1  0  0  0
 80156  1  0  0  0
 81157  1  0  0  0
 81158  1  0  0  0
M  ISO  4   1 100  68 101  80 101  84 100
M  END
> <chiral flag>
0

> <version>
0

> <s_m_source_file>
/data/baiqing/PycharmProjects/Reinvent-master-3.2/result/LINK_invent/BTK/process_docking_weight1_custom_sum_contain_oxygen_bond_distance_aromatic_linkinvent_7_9_3/rearranged_h_0191.sdf

> <i_m_source_file_index>
5

> <r_mmod_Potential_Energy-OPLS-2005>
661.346435546875

> <r_mmod_Stretch_Energy-OPLS-2005>
229.012145996094

> <r_mmod_Bend_Energy-OPLS-2005>
315.809204101562

> <r_mmod_Torsional_Energy-OPLS-2005>
341.214691162109

> <r_mmod_Improper_Torsional_Energy-OPLS-2005>
12.4429702758789

> <r_mmod_Van_der_Waal_Energy-OPLS-2005>
131.223388671875

> <r_mmod_Electrostatic_Energy-OPLS-2005>
-348.678985595703

> <r_mmod_Solvation_Energy-OPLS-2005>
-220.672378540039

> <b_mmod_Minimization_Converged-OPLS-2005>
0

> <r_mmod_RMS_Derivative-OPLS-2005>
0.831424057483673

$$$$
5
                    3D
 Structure written by MMmdl.
153162  0  0  1  0            999 V2000
  -30.6426  -14.6692   20.4954 C   0  0  0  0  0  0
  -30.4538  -12.4126   19.4769 C   0  0  0  0  0  0
  -29.5343  -12.5097   18.2393 C   0  0  0  0  0  0
  -28.0491  -12.3434   18.6316 C   0  0  0  0  0  0
  -27.6547  -13.2234   19.8499 C   0  0  2  0  0  0
  -28.6975  -13.1148   20.9863 C   0  0  0  0  0  0
  -25.2542  -13.8163   20.5634 C   0  0  0  0  0  0
  -24.1813  -13.0446   20.9150 C   0  0  0  0  0  0
  -24.6383  -11.6909   20.8702 C   0  0  0  0  0  0
  -23.9059  -10.4291   21.0389 C   0  0  0  0  0  0
  -24.3610   -9.4243   21.9181 C   0  0  0  0  0  0
  -23.6290   -8.2273   22.0761 C   0  0  0  0  0  0
  -22.4283   -8.0299   21.3539 C   0  0  0  0  0  0
  -21.9921   -9.0270   20.4664 C   0  0  0  0  0  0
  -22.7230  -10.2149   20.3058 C   0  0  0  0  0  0
  -21.6862   -6.0748   22.5277 C   0  0  0  0  0  0
  -21.4019   -6.5646   23.8211 C   0  0  0  0  0  0
  -21.3647   -5.6780   24.9161 C   0  0  0  0  0  0
  -21.6031   -4.3045   24.7204 C   0  0  0  0  0  0
  -21.8820   -3.8154   23.4328 C   0  0  0  0  0  0
  -21.9186   -4.6974   22.3387 C   0  0  0  0  0  0
  -22.7826  -13.5276   21.1780 C   0  0  0  0  0  0
  -22.1661   -4.2158   21.0960 F   0  0  0  0  0  0
  -21.5628   -3.4518   25.7724 F   0  0  0  0  0  0
  -30.0104  -13.4567   20.4194 N   0  0  0  0  0  0
  -26.2997  -12.9369   20.3241 N   0  0  0  0  0  0
  -25.9310  -11.6509   20.5671 N   0  0  0  0  0  0
  -22.0358  -12.8392   22.0317 N   0  0  0  0  0  0
  -25.4234  -15.1889   20.4086 N   0  0  0  0  0  0
  -31.8309  -14.7825   20.1724 O   0  0  0  0  0  0
  -21.6645   -6.8905   21.4243 O   0  0  0  0  0  0
  -22.3550  -14.5557   20.6535 O   0  0  0  0  0  0
  -24.6185  -31.8597   23.1966 C   0  0  0  0  0  0
  -25.9051  -32.4783   23.8292 C   0  0  1  0  0  0
  -27.2499  -27.3361   20.1577 C   0  0  0  0  0  0
  -25.5858  -33.8566   24.2232 N   0  0  0  0  0  0
  -23.4140  -30.4765   21.5386 C   0  0  2  0  0  0
  -24.8663  -28.9203   20.1253 C   0  0  0  0  0  0
  -22.7424  -29.4616   22.4939 C   0  0  0  0  0  0
  -18.0265  -28.1382   22.8483 C   0  0  0  0  0  0
  -24.1481  -36.7321   23.2638 C   0  0  0  0  0  0
  -25.9439  -30.8040   21.3532 C   0  0  0  0  0  0
  -26.0265  -29.4221   20.7245 C   0  0  0  0  0  0
  -27.2124  -28.6370   20.7431 C   0  0  0  0  0  0
  -26.0652  -26.8798   19.5315 C   0  0  0  0  0  0
  -24.8843  -27.6493   19.5298 C   0  0  0  0  0  0
  -23.6339  -29.7998   20.1585 C   0  0  0  0  0  0
  -25.4094  -36.3085   24.0327 C   0  0  1  0  0  0
  -20.5859  -28.3684   23.1296 C   0  0  2  0  0  0
  -20.6739  -26.9412   22.5420 C   0  0  0  0  0  0
  -19.5721  -26.6376   21.5207 C   0  0  0  0  0  0
  -18.1903  -26.7922   22.1623 C   0  0  0  0  0  0
  -19.1523  -28.8845   23.2879 C   0  0  0  0  0  0
  -18.9450  -30.1443   23.8892 C   0  0  0  0  0  0
  -17.6462  -30.6595   24.0560 C   0  0  0  0  0  0
  -25.9028  -34.9464   23.5095 C   0  0  0  0  0  0
  -16.5346  -29.9108   23.6322 C   0  0  0  0  0  0
  -16.7260  -28.6525   23.0340 C   0  0  0  0  0  0
  -26.4445  -31.6572   25.0647 C   0  0  0  0  0  0
  -25.3712  -31.3711   26.1409 C   0  0  0  0  0  0
  -27.0257  -30.3008   24.6016 C   0  0  0  0  0  0
  -27.5995  -32.4300   25.7439 C   0  0  0  0  0  0
  -27.5587  -37.1785   24.8438 C   0  0  0  0  0  0
  -21.4140  -29.3058   22.3712 N   0  0  0  0  0  0
  -26.4263  -37.3789   23.9440 N   0  0  0  0  0  0
  -24.6775  -31.0646   22.0889 N   0  0  0  0  0  0
  -23.4148  -28.8153   23.3008 O   0  0  0  0  0  0
  -28.3989  -26.5408   20.2856 O   0  0  0  0  0  0
  -26.5631  -34.8942   22.4684 O   0  0  0  0  0  0
  -23.5357  -32.1371   23.7331 O   0  0  0  0  0  0
  -29.1829  -22.6515   21.8745 C   0  0  0  0  0  0
  -28.8386  -24.0179   20.3253 C   0  0  0  0  0  0
  -29.9698  -17.0260   19.6789 C   0  0  0  0  0  0
  -29.4438  -16.6397   21.6543 C   0  0  0  0  0  0
  -30.0303  -17.8930   20.9542 C   0  0  0  0  0  0
  -28.6264  -25.3193   19.5045 C   0  0  0  0  0  0
  -29.3191  -19.3114   21.1110 C   0  0  0  0  0  0
  -30.0344  -20.6043   20.5326 C   0  0  0  0  0  0
  -28.8119  -23.9300   21.6942 N   0  0  0  0  0  0
  -29.1679  -22.8501   19.7220 N   0  0  0  0  0  0
  -29.4053  -21.9578   20.7483 N   0  0  0  0  0  0
  -29.8397  -15.7915   20.5070 N   0  0  0  0  0  0
  -31.4950  -12.5460   19.1767 H   0  0  0  0  0  0
  -30.4042  -11.4274   19.9462 H   0  0  0  0  0  0
  -29.8369  -11.7758   17.4919 H   0  0  0  0  0  0
  -29.6659  -13.4867   17.7683 H   0  0  0  0  0  0
  -27.8866  -11.2907   18.8680 H   0  0  0  0  0  0
  -27.4121  -12.5663   17.7745 H   0  0  0  0  0  0
  -27.6646  -14.2523   19.4851 H   0  0  0  0  0  0
  -28.7084  -12.1073   21.4014 H   0  0  0  0  0  0
  -28.4421  -13.7859   21.8063 H   0  0  0  0  0  0
  -25.2729   -9.5771   22.4760 H   0  0  0  0  0  0
  -24.0009   -7.4693   22.7531 H   0  0  0  0  0  0
  -21.0825   -8.8790   19.9004 H   0  0  0  0  0  0
  -22.3652  -10.9687   19.6186 H   0  0  0  0  0  0
  -21.2024   -7.6148   23.9737 H   0  0  0  0  0  0
  -21.1462   -6.0494   25.9074 H   0  0  0  0  0  0
  -22.0611   -2.7629   23.2794 H   0  0  0  0  0  0
  -22.3889  -12.0150   22.4933 H   0  0  0  0  0  0
  -21.0965  -13.1558   22.2312 H   0  0  0  0  0  0
  -24.6552  -15.8422   20.5224 H   0  0  0  0  0  0
  -26.2833  -15.6350   20.1116 H   0  0  0  0  0  0
  -26.7123  -32.5487   23.1043 H   0  0  0  0  0  0
  -24.9917  -33.9669   25.0316 H   0  0  0  0  0  0
  -22.7082  -31.2950   21.3845 H   0  0  0  0  0  0
  -23.3743  -35.9650   23.3232 H   0  0  0  0  0  0
  -24.3598  -36.9014   22.2072 H   0  0  0  0  0  0
  -23.7228  -37.6493   23.6713 H   0  0  0  0  0  0
  -26.0440  -31.5468   20.5590 H   0  0  0  0  0  0
  -26.8356  -30.8782   21.9632 H   0  0  0  0  0  0
  -28.0922  -29.0236   21.2389 H   0  0  0  0  0  0
  -25.9987  -25.9010   19.0859 H   0  0  0  0  0  0
  -23.9875  -27.2366   19.0902 H   0  0  0  0  0  0
  -23.7797  -30.5685   19.3985 H   0  0  0  0  0  0
  -22.7527  -29.2366   19.8465 H   0  0  0  0  0  0
  -25.1270  -36.1904   25.0811 H   0  0  0  0  0  0
  -20.9931  -28.3251   24.1420 H   0  0  0  0  0  0
  -20.5590  -26.2301   23.3617 H   0  0  0  0  0  0
  -21.6618  -26.7415   22.1264 H   0  0  0  0  0  0
  -19.6878  -25.6282   21.1254 H   0  0  0  0  0  0
  -19.6659  -27.3167   20.6726 H   0  0  0  0  0  0
  -17.4171  -26.6670   21.4029 H   0  0  0  0  0  0
  -18.0309  -26.0067   22.9023 H   0  0  0  0  0  0
  -19.7932  -30.7244   24.2266 H   0  0  0  0  0  0
  -17.5035  -31.6274   24.5165 H   0  0  0  0  0  0
  -15.5353  -30.3025   23.7622 H   0  0  0  0  0  0
  -15.8659  -28.0852   22.7034 H   0  0  0  0  0  0
  -24.5847  -30.7075   25.7790 H   0  0  0  0  0  0
  -24.8926  -32.2875   26.4875 H   0  0  0  0  0  0
  -25.8054  -30.8880   27.0171 H   0  0  0  0  0  0
  -26.2777  -29.6791   24.1063 H   0  0  0  0  0  0
  -27.4024  -29.7210   25.4454 H   0  0  0  0  0  0
  -27.8621  -30.4322   23.9143 H   0  0  0  0  0  0
  -27.2575  -33.3583   26.2031 H   0  0  0  0  0  0
  -28.3810  -32.6887   25.0287 H   0  0  0  0  0  0
  -28.0658  -31.8419   26.5350 H   0  0  0  0  0  0
  -28.2526  -38.0164   24.7604 H   0  0  0  0  0  0
  -28.1154  -36.2701   24.6086 H   0  0  0  0  0  0
  -27.2339  -37.1233   25.8841 H   0  0  0  0  0  0
  -20.9287  -29.8844   21.7001 H   0  0  0  0  0  0
  -26.0132  -38.2839   24.1506 H   0  0  0  0  0  0
  -29.3584  -22.2300   22.8550 H   0  0  0  0  0  0
  -30.8724  -17.0994   19.0661 H   0  0  0  0  0  0
  -29.0863  -17.2392   19.0713 H   0  0  0  0  0  0
  -28.3591  -16.7009   21.7744 H   0  0  0  0  0  0
  -29.9234  -16.4142   22.6066 H   0  0  0  0  0  0
  -31.0842  -17.9694   21.2435 H   0  0  0  0  0  0
  -27.8997  -25.1536   18.7138 H   0  0  0  0  0  0
  -29.5708  -25.5028   18.9922 H   0  0  0  0  0  0
  -29.1699  -19.4845   22.1789 H   0  0  0  0  0  0
  -28.3185  -19.2535   20.6787 H   0  0  0  0  0  0
  -30.2177  -20.4680   19.4682 H   0  0  0  0  0  0
  -31.0248  -20.6609   20.9850 H   0  0  0  0  0  0
  1 25  1  0  0  0
  1 30  2  0  0  0
  1 82  1  0  0  0
  2  3  1  0  0  0
  2 25  1  0  0  0
  2 83  1  0  0  0
  2 84  1  0  0  0
  3  4  1  0  0  0
  3 85  1  0  0  0
  3 86  1  0  0  0
  4  5  1  0  0  0
  4 87  1  0  0  0
  4 88  1  0  0  0
  5  6  1  0  0  0
  5 26  1  0  0  0
  5 89  1  0  0  0
  6 25  1  0  0  0
  6 90  1  0  0  0
  6 91  1  0  0  0
  7  8  2  0  0  0
  7 26  1  0  0  0
  7 29  1  0  0  0
  8  9  1  0  0  0
  8 22  1  0  0  0
  9 10  1  0  0  0
  9 27  2  0  0  0
 10 11  2  0  0  0
 10 15  1  0  0  0
 11 12  1  0  0  0
 11 92  1  0  0  0
 12 13  2  0  0  0
 12 93  1  0  0  0
 13 14  1  0  0  0
 13 31  1  0  0  0
 14 15  2  0  0  0
 14 94  1  0  0  0
 15 95  1  0  0  0
 16 17  2  0  0  0
 16 21  1  0  0  0
 16 31  1  0  0  0
 17 18  1  0  0  0
 17 96  1  0  0  0
 18 19  2  0  0  0
 18 97  1  0  0  0
 19 20  1  0  0  0
 19 24  1  0  0  0
 20 21  2  0  0  0
 20 98  1  0  0  0
 21 23  1  0  0  0
 22 28  1  0  0  0
 22 32  2  0  0  0
 26 27  1  0  0  0
 28 99  1  0  0  0
 28100  1  0  0  0
 29101  1  0  0  0
 29102  1  0  0  0
 33 34  1  0  0  0
 33 66  1  0  0  0
 33 70  2  0  0  0
 34 36  1  0  0  0
 34 59  1  0  0  0
 34103  1  0  0  0
 35 44  2  0  0  0
 35 45  1  0  0  0
 35 68  1  0  0  0
 36 56  1  0  0  0
 36104  1  0  0  0
 37 39  1  0  0  0
 37 47  1  0  0  0
 37 66  1  0  0  0
 37105  1  0  0  0
 38 43  2  0  0  0
 38 46  1  0  0  0
 38 47  1  0  0  0
 39 64  1  0  0  0
 39 67  2  0  0  0
 40 52  1  0  0  0
 40 53  2  0  0  0
 40 58  1  0  0  0
 41106  1  0  0  0
 41107  1  0  0  0
 41108  1  0  0  0
 41 48  1  0  0  0
 42 43  1  0  0  0
 42 66  1  0  0  0
 42109  1  0  0  0
 42110  1  0  0  0
 43 44  1  0  0  0
 44111  1  0  0  0
 45 46  2  0  0  0
 45112  1  0  0  0
 46113  1  0  0  0
 47114  1  0  0  0
 47115  1  0  0  0
 48 56  1  0  0  0
 48 65  1  0  0  0
 48116  1  0  0  0
 49 50  1  0  0  0
 49 53  1  0  0  0
 49 64  1  0  0  0
 49117  1  0  0  0
 50 51  1  0  0  0
 50118  1  0  0  0
 50119  1  0  0  0
 51 52  1  0  0  0
 51120  1  0  0  0
 51121  1  0  0  0
 52122  1  0  0  0
 52123  1  0  0  0
 53 54  1  0  0  0
 54 55  2  0  0  0
 54124  1  0  0  0
 55 57  1  0  0  0
 55125  1  0  0  0
 56 69  2  0  0  0
 57 58  2  0  0  0
 57126  1  0  0  0
 58127  1  0  0  0
 59 60  1  0  0  0
 59 61  1  0  0  0
 59 62  1  0  0  0
 60128  1  0  0  0
 60129  1  0  0  0
 60130  1  0  0  0
 61131  1  0  0  0
 61132  1  0  0  0
 61133  1  0  0  0
 62134  1  0  0  0
 62135  1  0  0  0
 62136  1  0  0  0
 63 65  1  0  0  0
 63137  1  0  0  0
 63138  1  0  0  0
 63139  1  0  0  0
 64140  1  0  0  0
 65141  1  0  0  0
 68 76  1  0  0  0
 71 79  2  0  0  0
 71 81  1  0  0  0
 71142  1  0  0  0
 72 76  1  0  0  0
 72 79  1  0  0  0
 72 80  2  0  0  0
 73 75  1  0  0  0
 73 82  1  0  0  0
 73143  1  0  0  0
 73144  1  0  0  0
 74 75  1  0  0  0
 74 82  1  0  0  0
 74145  1  0  0  0
 74146  1  0  0  0
 75 77  1  0  0  0
 75147  1  0  0  0
 76148  1  0  0  0
 76149  1  0  0  0
 77 78  1  0  0  0
 77150  1  0  0  0
 77151  1  0  0  0
 78 81  1  0  0  0
 78152  1  0  0  0
 78153  1  0  0  0
 80 81  1  0  0  0
M  ISO  4   1 100  68 101  76 101  82 100
M  END
> <chiral flag>
0

> <version>
0

> <s_m_source_file>
/data/baiqing/PycharmProjects/Reinvent-master-3.2/result/LINK_invent/BTK/process_docking_weight1_custom_sum_contain_oxygen_bond_distance_aromatic_linkinvent_7_9_3/rearranged_h_0191.sdf

> <i_m_source_file_index>
6

> <r_mmod_Potential_Energy-OPLS-2005>
222.163955688477

> <r_mmod_Stretch_Energy-OPLS-2005>
75.5917434692383

> <r_mmod_Bend_Energy-OPLS-2005>
160.381881713867

> <r_mmod_Torsional_Energy-OPLS-2005>
291.580017089844

> <r_mmod_Improper_Torsional_Energy-OPLS-2005>
19.2439765930176

> <r_mmod_Van_der_Waal_Energy-OPLS-2005>
112.037338256836

> <r_mmod_Electrostatic_Energy-OPLS-2005>
-264.286499023438

> <r_mmod_Solvation_Energy-OPLS-2005>
-227.881118774414

> <b_mmod_Minimization_Converged-OPLS-2005>
0

> <r_mmod_RMS_Derivative-OPLS-2005>
6.17001438140869

$$$$
6
                    3D
 Structure written by MMmdl.
175184  0  0  1  0            999 V2000
  -30.7477  -14.4866   20.6131 C   0  0  0  0  0  0
  -30.4117  -12.3250   19.4544 C   0  0  0  0  0  0
  -29.5003  -12.5100   18.2258 C   0  0  0  0  0  0
  -28.0220  -12.3447   18.6253 C   0  0  0  0  0  0
  -27.6554  -13.1915   19.8664 C   0  0  2  0  0  0
  -28.6973  -13.0046   21.0040 C   0  0  0  0  0  0
  -25.2604  -13.8120   20.5661 C   0  0  0  0  0  0
  -24.1856  -13.0417   20.9207 C   0  0  0  0  0  0
  -24.6382  -11.6885   20.8746 C   0  0  0  0  0  0
  -23.9047  -10.4278   21.0404 C   0  0  0  0  0  0
  -24.3609   -9.4211   21.9191 C   0  0  0  0  0  0
  -23.6287   -8.2252   22.0766 C   0  0  0  0  0  0
  -22.4272   -8.0279   21.3552 C   0  0  0  0  0  0
  -21.9888   -9.0254   20.4662 C   0  0  0  0  0  0
  -22.7221  -10.2125   20.3064 C   0  0  0  0  0  0
  -21.6862   -6.0740   22.5288 C   0  0  0  0  0  0
  -21.4020   -6.5652   23.8219 C   0  0  0  0  0  0
  -21.3659   -5.6805   24.9180 C   0  0  0  0  0  0
  -21.6037   -4.3068   24.7231 C   0  0  0  0  0  0
  -21.8832   -3.8156   23.4355 C   0  0  0  0  0  0
  -21.9200   -4.6968   22.3406 C   0  0  0  0  0  0
  -22.7895  -13.5256   21.1826 C   0  0  0  0  0  0
  -22.1671   -4.2162   21.0978 F   0  0  0  0  0  0
  -21.5605   -3.4555   25.7741 F   0  0  0  0  0  0
  -30.0276  -13.3307   20.4681 N   0  0  0  0  0  0
  -26.2987  -12.9241   20.3288 N   0  0  0  0  0  0
  -25.9286  -11.6431   20.5734 N   0  0  0  0  0  0
  -22.0515  -12.8255   22.0375 N   0  0  0  0  0  0
  -25.4246  -15.1828   20.3999 N   0  0  0  0  0  0
  -31.8299  -14.6184   20.0326 O   0  0  0  0  0  0
  -21.6633   -6.8883   21.4258 O   0  0  0  0  0  0
  -22.3621  -14.5564   20.6668 O   0  0  0  0  0  0
  -24.6083  -31.8717   23.2131 C   0  0  0  0  0  0
  -25.8991  -32.4852   23.8411 C   0  0  1  0  0  0
  -27.2416  -27.4767   20.1050 C   0  0  0  0  0  0
  -25.5873  -33.8645   24.2359 N   0  0  0  0  0  0
  -23.3954  -30.4927   21.5532 C   0  0  2  0  0  0
  -24.8457  -28.9622   20.1194 C   0  0  0  0  0  0
  -22.7378  -29.4663   22.5026 C   0  0  0  0  0  0
  -18.0259  -28.1364   22.8507 C   0  0  0  0  0  0
  -24.1479  -36.7317   23.2638 C   0  0  0  0  0  0
  -25.9165  -30.8548   21.3556 C   0  0  0  0  0  0
  -26.0010  -29.4888   20.7109 C   0  0  0  0  0  0
  -27.2045  -28.7541   20.7002 C   0  0  0  0  0  0
  -26.0748  -26.9555   19.5058 C   0  0  0  0  0  0
  -24.8749  -27.6916   19.5160 C   0  0  0  0  0  0
  -23.6039  -29.8225   20.1687 C   0  0  0  0  0  0
  -25.4099  -36.3131   24.0352 C   0  0  1  0  0  0
  -20.5843  -28.3643   23.1352 C   0  0  2  0  0  0
  -20.6747  -26.9386   22.5438 C   0  0  0  0  0  0
  -19.5730  -26.6384   21.5223 C   0  0  0  0  0  0
  -18.1905  -26.7917   22.1624 C   0  0  0  0  0  0
  -19.1508  -28.8818   23.2930 C   0  0  0  0  0  0
  -18.9441  -30.1425   23.8939 C   0  0  0  0  0  0
  -17.6447  -30.6578   24.0569 C   0  0  0  0  0  0
  -25.9023  -34.9496   23.5156 C   0  0  0  0  0  0
  -16.5338  -29.9085   23.6323 C   0  0  0  0  0  0
  -16.7254  -28.6498   23.0354 C   0  0  0  0  0  0
  -26.4453  -31.6601   25.0700 C   0  0  0  0  0  0
  -25.3745  -31.3681   26.1464 C   0  0  0  0  0  0
  -27.0269  -30.3061   24.6006 C   0  0  0  0  0  0
  -27.6064  -32.4289   25.7440 C   0  0  0  0  0  0
  -27.5596  -37.1797   24.8459 C   0  0  0  0  0  0
  -21.4109  -29.3020   22.3769 N   0  0  0  0  0  0
  -26.4287  -37.3817   23.9438 N   0  0  0  0  0  0
  -24.6587  -31.0846   22.1016 N   0  0  0  0  0  0
  -23.4175  -28.8204   23.3050 O   0  0  0  0  0  0
  -28.4093  -26.7568   20.1106 O   0  0  0  0  0  0
  -26.5588  -34.8941   22.4717 O   0  0  0  0  0  0
  -23.5291  -32.1444   23.7565 O   0  0  0  0  0  0
  -29.5005  -21.2441   21.7791 C   0  0  0  0  0  0
  -31.3495  -16.4425   21.9536 C   0  0  0  0  0  0
  -29.1385  -22.7403   21.7278 C   0  0  0  0  0  0
  -31.4534  -17.6559   20.9951 C   0  0  0  0  0  0
  -29.1852  -21.9429   19.5066 C   0  0  0  0  0  0
  -28.9994  -17.4444   20.6147 C   0  0  0  0  0  0
  -29.2196  -20.6716   20.3745 C   0  0  1  0  0  0
  -29.0149  -16.1452   21.4646 C   0  0  2  0  0  0
  -28.4322  -16.3299   22.8806 C   0  0  0  0  0  0
  -30.8170  -20.0454   17.4188 C   0  0  0  0  0  0
  -30.0800  -19.1478   18.4291 C   0  0  0  0  0  0
  -28.8311  -24.3835   19.8327 C   0  0  0  0  0  0
  -28.3272  -25.4929   20.7717 C   0  0  0  0  0  0
  -30.2191  -19.5546   19.9281 C   0  0  2  0  0  0
  -30.3385  -15.4768   21.4724 N   0  0  0  0  0  0
  -28.6247  -23.0058   20.3650 N   0  3  2  0  0  0
  -30.1518  -18.3658   20.8506 N   0  3  2  0  0  0
  -31.4614  -12.3853   19.1604 H   0  0  0  0  0  0
  -30.2887  -11.3221   19.8681 H   0  0  0  0  0  0
  -29.7605  -11.7912   17.4490 H   0  0  0  0  0  0
  -29.6667  -13.4976   17.7942 H   0  0  0  0  0  0
  -27.8509  -11.2887   18.8341 H   0  0  0  0  0  0
  -27.3731  -12.6050   17.7865 H   0  0  0  0  0  0
  -27.6707  -14.2166   19.5065 H   0  0  0  0  0  0
  -28.6908  -11.9690   21.3473 H   0  0  0  0  0  0
  -28.4482  -13.5812   21.8929 H   0  0  0  0  0  0
  -25.2777   -9.5690   22.4735 H   0  0  0  0  0  0
  -24.0022   -7.4654   22.7486 H   0  0  0  0  0  0
  -21.0817   -8.8774   19.8963 H   0  0  0  0  0  0
  -22.3713  -10.9651   19.6151 H   0  0  0  0  0  0
  -21.2029   -7.6164   23.9734 H   0  0  0  0  0  0
  -21.1441   -6.0522   25.9076 H   0  0  0  0  0  0
  -22.0597   -2.7618   23.2848 H   0  0  0  0  0  0
  -22.4168  -11.9926   22.4733 H   0  0  0  0  0  0
  -21.1111  -13.1232   22.2534 H   0  0  0  0  0  0
  -24.6298  -15.8076   20.4833 H   0  0  0  0  0  0
  -26.2179  -15.6099   19.9434 H   0  0  0  0  0  0
  -26.7072  -32.5609   23.1201 H   0  0  0  0  0  0
  -25.0026  -33.9820   25.0505 H   0  0  0  0  0  0
  -22.6818  -31.3065   21.4134 H   0  0  0  0  0  0
  -23.3767  -35.9621   23.3268 H   0  0  0  0  0  0
  -24.3593  -36.8958   22.2061 H   0  0  0  0  0  0
  -23.7187  -37.6496   23.6661 H   0  0  0  0  0  0
  -26.0051  -31.6185   20.5817 H   0  0  0  0  0  0
  -26.8108  -30.9240   21.9617 H   0  0  0  0  0  0
  -28.0957  -29.1585   21.1619 H   0  0  0  0  0  0
  -26.0936  -25.9837   19.0344 H   0  0  0  0  0  0
  -23.9864  -27.2765   19.0606 H   0  0  0  0  0  0
  -23.7112  -30.5961   19.4074 H   0  0  0  0  0  0
  -22.7308  -29.2378   19.8740 H   0  0  0  0  0  0
  -25.1269  -36.2003   25.0844 H   0  0  0  0  0  0
  -20.9932  -28.3196   24.1473 H   0  0  0  0  0  0
  -20.5635  -26.2258   23.3623 H   0  0  0  0  0  0
  -21.6624  -26.7422   22.1241 H   0  0  0  0  0  0
  -19.6894  -25.6303   21.1231 H   0  0  0  0  0  0
  -19.6676  -27.3223   20.6778 H   0  0  0  0  0  0
  -17.4189  -26.6701   21.4007 H   0  0  0  0  0  0
  -18.0281  -26.0033   22.8988 H   0  0  0  0  0  0
  -19.7918  -30.7225   24.2340 H   0  0  0  0  0  0
  -17.5004  -31.6264   24.5154 H   0  0  0  0  0  0
  -15.5343  -30.3004   23.7611 H   0  0  0  0  0  0
  -15.8655  -28.0824   22.7054 H   0  0  0  0  0  0
  -24.5935  -30.7006   25.7801 H   0  0  0  0  0  0
  -24.8908  -32.2824   26.4916 H   0  0  0  0  0  0
  -25.8117  -30.8854   27.0215 H   0  0  0  0  0  0
  -26.2777  -29.6819   24.1120 H   0  0  0  0  0  0
  -27.4144  -29.7291   25.4414 H   0  0  0  0  0  0
  -27.8563  -30.4411   23.9058 H   0  0  0  0  0  0
  -27.2730  -33.3598   26.2038 H   0  0  0  0  0  0
  -28.3856  -32.6824   25.0236 H   0  0  0  0  0  0
  -28.0745  -31.8379   26.5327 H   0  0  0  0  0  0
  -28.2581  -38.0126   24.7589 H   0  0  0  0  0  0
  -28.1122  -36.2674   24.6173 H   0  0  0  0  0  0
  -27.2336  -37.1318   25.8861 H   0  0  0  0  0  0
  -20.9255  -29.8776   21.7027 H   0  0  0  0  0  0
  -26.0181  -38.2888   24.1488 H   0  0  0  0  0  0
  -28.9160  -20.7309   22.5437 H   0  0  0  0  0  0
  -30.5525  -21.1420   22.0526 H   0  0  0  0  0  0
  -31.1031  -16.7730   22.9632 H   0  0  0  0  0  0
  -32.3311  -15.9753   22.0630 H   0  0  0  0  0  0
  -30.0289  -23.3392   21.9286 H   0  0  0  0  0  0
  -28.3951  -23.0033   22.4813 H   0  0  0  0  0  0
  -31.7996  -17.3290   20.0135 H   0  0  0  0  0  0
  -32.2079  -18.3523   21.3659 H   0  0  0  0  0  0
  -28.5943  -21.8188   18.5977 H   0  0  0  0  0  0
  -30.1991  -22.2260   19.2156 H   0  0  0  0  0  0
  -28.0671  -17.9815   20.7891 H   0  0  0  0  0  0
  -28.9711  -17.1341   19.5708 H   0  0  0  0  0  0
  -28.2062  -20.2683   20.3692 H   0  0  0  0  0  0
  -28.2878  -15.5242   20.9688 H   0  0  0  0  0  0
  -28.9449  -17.1008   23.4557 H   0  0  0  0  0  0
  -28.4717  -15.4006   23.4508 H   0  0  0  0  0  0
  -27.3845  -16.6303   22.8243 H   0  0  0  0  0  0
  -30.8670  -19.5587   16.4429 H   0  0  0  0  0  0
  -31.8447  -20.2406   17.7285 H   0  0  0  0  0  0
  -30.3224  -21.0013   17.2599 H   0  0  0  0  0  0
  -30.5006  -18.1550   18.2822 H   0  0  0  0  0  0
  -29.0271  -19.0641   18.1538 H   0  0  0  0  0  0
  -29.8848  -24.5538   19.6087 H   0  0  0  0  0  0
  -28.2962  -24.4597   18.8856 H   0  0  0  0  0  0
  -28.9484  -25.5441   21.6661 H   0  0  0  0  0  0
  -27.3182  -25.2650   21.1195 H   0  0  0  0  0  0
  -31.2185  -19.9783   20.0383 H   0  0  0  0  0  0
  -27.6278  -22.8394   20.4028 H   0  0  0  0  0  0
  -29.9927  -18.7566   21.7680 H   0  0  0  0  0  0
  1 25  1  0  0  0
  1 30  2  0  0  0
  1 85  1  0  0  0
  2  3  1  0  0  0
  2 25  1  0  0  0
  2 88  1  0  0  0
  2 89  1  0  0  0
  3  4  1  0  0  0
  3 90  1  0  0  0
  3 91  1  0  0  0
  4  5  1  0  0  0
  4 92  1  0  0  0
  4 93  1  0  0  0
  5  6  1  0  0  0
  5 26  1  0  0  0
  5 94  1  0  0  0
  6 25  1  0  0  0
  6 95  1  0  0  0
  6 96  1  0  0  0
  7  8  2  0  0  0
  7 26  1  0  0  0
  7 29  1  0  0  0
  8  9  1  0  0  0
  8 22  1  0  0  0
  9 10  1  0  0  0
  9 27  2  0  0  0
 10 11  2  0  0  0
 10 15  1  0  0  0
 11 12  1  0  0  0
 11 97  1  0  0  0
 12 13  2  0  0  0
 12 98  1  0  0  0
 13 14  1  0  0  0
 13 31  1  0  0  0
 14 15  2  0  0  0
 14 99  1  0  0  0
 15100  1  0  0  0
 16 17  2  0  0  0
 16 21  1  0  0  0
 16 31  1  0  0  0
 17 18  1  0  0  0
 17101  1  0  0  0
 18 19  2  0  0  0
 18102  1  0  0  0
 19 20  1  0  0  0
 19 24  1  0  0  0
 20 21  2  0  0  0
 20103  1  0  0  0
 21 23  1  0  0  0
 22 28  1  0  0  0
 22 32  2  0  0  0
 26 27  1  0  0  0
 28104  1  0  0  0
 28105  1  0  0  0
 29106  1  0  0  0
 29107  1  0  0  0
 33 34  1  0  0  0
 33 66  1  0  0  0
 33 70  2  0  0  0
 34 36  1  0  0  0
 34 59  1  0  0  0
 34108  1  0  0  0
 35 44  2  0  0  0
 35 45  1  0  0  0
 35 68  1  0  0  0
 36 56  1  0  0  0
 36109  1  0  0  0
 37 39  1  0  0  0
 37 47  1  0  0  0
 37 66  1  0  0  0
 37110  1  0  0  0
 38 43  2  0  0  0
 38 46  1  0  0  0
 38 47  1  0  0  0
 39 64  1  0  0  0
 39 67  2  0  0  0
 40 52  1  0  0  0
 40 53  2  0  0  0
 40 58  1  0  0  0
 41111  1  0  0  0
 41112  1  0  0  0
 41113  1  0  0  0
 41 48  1  0  0  0
 42 43  1  0  0  0
 42 66  1  0  0  0
 42114  1  0  0  0
 42115  1  0  0  0
 43 44  1  0  0  0
 44116  1  0  0  0
 45 46  2  0  0  0
 45117  1  0  0  0
 46118  1  0  0  0
 47119  1  0  0  0
 47120  1  0  0  0
 48 56  1  0  0  0
 48 65  1  0  0  0
 48121  1  0  0  0
 49 50  1  0  0  0
 49 53  1  0  0  0
 49 64  1  0  0  0
 49122  1  0  0  0
 50 51  1  0  0  0
 50123  1  0  0  0
 50124  1  0  0  0
 51 52  1  0  0  0
 51125  1  0  0  0
 51126  1  0  0  0
 52127  1  0  0  0
 52128  1  0  0  0
 53 54  1  0  0  0
 54 55  2  0  0  0
 54129  1  0  0  0
 55 57  1  0  0  0
 55130  1  0  0  0
 56 69  2  0  0  0
 57 58  2  0  0  0
 57131  1  0  0  0
 58132  1  0  0  0
 59 60  1  0  0  0
 59 61  1  0  0  0
 59 62  1  0  0  0
 60133  1  0  0  0
 60134  1  0  0  0
 60135  1  0  0  0
 61136  1  0  0  0
 61137  1  0  0  0
 61138  1  0  0  0
 62139  1  0  0  0
 62140  1  0  0  0
 62141  1  0  0  0
 63 65  1  0  0  0
 63142  1  0  0  0
 63143  1  0  0  0
 63144  1  0  0  0
 64145  1  0  0  0
 65146  1  0  0  0
 68 83  1  0  0  0
 71 73  1  0  0  0
 71147  1  0  0  0
 71148  1  0  0  0
 71 77  1  0  0  0
 72 74  1  0  0  0
 72 85  1  0  0  0
 72149  1  0  0  0
 72150  1  0  0  0
 73 86  1  0  0  0
 73151  1  0  0  0
 73152  1  0  0  0
 74153  1  0  0  0
 74154  1  0  0  0
 74 87  1  0  0  0
 75 77  1  0  0  0
 75 86  1  0  0  0
 75155  1  0  0  0
 75156  1  0  0  0
 76 78  1  0  0  0
 76 87  1  0  0  0
 76157  1  0  0  0
 76158  1  0  0  0
 77 84  1  0  0  0
 77159  1  0  0  0
 78 79  1  0  0  0
 78 85  1  0  0  0
 78160  1  0  0  0
 79161  1  0  0  0
 79162  1  0  0  0
 79163  1  0  0  0
 80 81  1  0  0  0
 80164  1  0  0  0
 80165  1  0  0  0
 80166  1  0  0  0
 81167  1  0  0  0
 81168  1  0  0  0
 81 84  1  0  0  0
 82 83  1  0  0  0
 82169  1  0  0  0
 82170  1  0  0  0
 82 86  1  0  0  0
 83171  1  0  0  0
 83172  1  0  0  0
 84 87  1  0  0  0
 84173  1  0  0  0
 86174  1  0  0  0
 87175  1  0  0  0
M  CHG  2  86   1  87   1
M  ISO  4   1 100  68 101  83 101  85 100
M  END
> <chiral flag>
0

> <version>
0

> <s_m_source_file>
/data/baiqing/PycharmProjects/Reinvent-master-3.2/result/LINK_invent/BTK/process_docking_weight1_custom_sum_contain_oxygen_bond_distance_aromatic_linkinvent_7_9_3/rearranged_h_0191.sdf

> <i_m_source_file_index>
7

> <r_mmod_Potential_Energy-OPLS-2005>
133.59065246582

> <r_mmod_Stretch_Energy-OPLS-2005>
44.6950340270996

> <r_mmod_Bend_Energy-OPLS-2005>
147.811752319336

> <r_mmod_Torsional_Energy-OPLS-2005>
479.396392822266

> <r_mmod_Improper_Torsional_Energy-OPLS-2005>
5.64652061462402

> <r_mmod_Van_der_Waal_Energy-OPLS-2005>
147.849685668945

> <r_mmod_Electrostatic_Energy-OPLS-2005>
183.628555297852

> <r_mmod_Solvation_Energy-OPLS-2005>
-887.872009277344

> <b_mmod_Minimization_Converged-OPLS-2005>
0

> <r_mmod_RMS_Derivative-OPLS-2005>
2.87751984596252

$$$$
7
                    3D
 Structure written by MMmdl.
153161  0  0  1  0            999 V2000
  -30.4815  -15.3157   20.3556 C   0  0  0  0  0  0
  -30.4131  -12.8426   19.5370 C   0  0  0  0  0  0
  -29.5333  -12.5942   18.2878 C   0  0  0  0  0  0
  -28.0809  -12.3190   18.7013 C   0  0  0  0  0  0
  -27.6052  -13.2919   19.8105 C   0  0  2  0  0  0
  -28.6286  -13.5234   20.9439 C   0  0  0  0  0  0
  -25.2385  -13.8300   20.5724 C   0  0  0  0  0  0
  -24.1765  -13.0457   20.9240 C   0  0  0  0  0  0
  -24.6400  -11.6958   20.8728 C   0  0  0  0  0  0
  -23.9092  -10.4320   21.0356 C   0  0  0  0  0  0
  -24.3660   -9.4241   21.9130 C   0  0  0  0  0  0
  -23.6325   -8.2269   22.0731 C   0  0  0  0  0  0
  -22.4283   -8.0287   21.3562 C   0  0  0  0  0  0
  -21.9931   -9.0240   20.4647 C   0  0  0  0  0  0
  -22.7258  -10.2124   20.3030 C   0  0  0  0  0  0
  -21.6866   -6.0721   22.5248 C   0  0  0  0  0  0
  -21.4046   -6.5624   23.8181 C   0  0  0  0  0  0
  -21.3681   -5.6775   24.9143 C   0  0  0  0  0  0
  -21.6039   -4.3034   24.7182 C   0  0  0  0  0  0
  -21.8833   -3.8124   23.4311 C   0  0  0  0  0  0
  -21.9228   -4.6953   22.3376 C   0  0  0  0  0  0
  -22.7783  -13.5200   21.1863 C   0  0  0  0  0  0
  -22.1669   -4.2135   21.0940 F   0  0  0  0  0  0
  -21.5641   -3.4514   25.7695 F   0  0  0  0  0  0
  -29.8539  -14.0259   20.3115 N   0  0  0  0  0  0
  -26.2804  -12.9588   20.3172 N   0  0  0  0  0  0
  -25.9326  -11.6656   20.5650 N   0  0  0  0  0  0
  -22.0447  -12.8208   22.0445 N   0  0  0  0  0  0
  -25.4023  -15.2048   20.4146 N   0  0  0  0  0  0
  -31.6937  -15.2046   20.1296 O   0  0  0  0  0  0
  -21.6685   -6.8861   21.4203 O   0  0  0  0  0  0
  -22.3415  -14.5435   20.6612 O   0  0  0  0  0  0
  -24.6674  -31.8208   23.1683 C   0  0  0  0  0  0
  -25.9340  -32.4585   23.8176 C   0  0  1  0  0  0
  -27.1991  -26.8912   20.1953 C   0  0  0  0  0  0
  -25.6001  -33.8407   24.2087 N   0  0  0  0  0  0
  -23.4799  -30.4306   21.5222 C   0  0  2  0  0  0
  -24.9283  -28.8126   20.1115 C   0  0  0  0  0  0
  -22.7668  -29.4426   22.4816 C   0  0  0  0  0  0
  -18.0304  -28.1378   22.8458 C   0  0  0  0  0  0
  -24.1501  -36.7209   23.2644 C   0  0  0  0  0  0
  -26.0502  -30.6109   21.4010 C   0  0  0  0  0  0
  -26.1142  -29.1996   20.7486 C   0  0  0  0  0  0
  -27.2451  -28.2621   20.7629 C   0  0  0  0  0  0
  -25.9877  -26.6633   19.5042 C   0  0  0  0  0  0
  -24.8945  -27.5667   19.4661 C   0  0  0  0  0  0
  -23.7182  -29.7469   20.1470 C   0  0  0  0  0  0
  -25.4158  -36.2988   24.0302 C   0  0  1  0  0  0
  -20.5936  -28.3738   23.1193 C   0  0  2  0  0  0
  -20.6794  -26.9423   22.5403 C   0  0  0  0  0  0
  -19.5779  -26.6348   21.5227 C   0  0  0  0  0  0
  -18.1957  -26.7902   22.1618 C   0  0  0  0  0  0
  -19.1563  -28.8883   23.2796 C   0  0  0  0  0  0
  -18.9483  -30.1480   23.8828 C   0  0  0  0  0  0
  -17.6471  -30.6586   24.0554 C   0  0  0  0  0  0
  -25.9129  -34.9361   23.5022 C   0  0  0  0  0  0
  -16.5356  -29.9072   23.6336 C   0  0  0  0  0  0
  -16.7279  -28.6475   23.0372 C   0  0  0  0  0  0
  -26.4574  -31.6504   25.0690 C   0  0  0  0  0  0
  -25.3735  -31.3752   26.1367 C   0  0  0  0  0  0
  -27.0430  -30.2854   24.6419 C   0  0  0  0  0  0
  -27.6063  -32.4300   25.7503 C   0  0  0  0  0  0
  -27.5585  -37.1784   24.8469 C   0  0  0  0  0  0
  -21.4336  -29.3034   22.3559 N   0  0  0  0  0  0
  -26.4295  -37.3734   23.9411 N   0  0  0  0  0  0
  -24.7545  -30.9829   22.0838 N   0  0  0  0  0  0
  -23.4201  -28.8019   23.3076 O   0  0  0  0  0  0
  -28.1905  -25.7705   20.2673 O   0  0  0  0  0  0
  -26.5746  -34.8889   22.4616 O   0  0  0  0  0  0
  -23.5734  -32.1191   23.6751 O   0  0  0  0  0  0
  -30.2775  -19.1530   21.5228 C   0  0  0  0  0  0
  -30.8545  -17.6730   21.3154 C   0  0  0  0  0  0
  -28.9962  -17.8775   20.0240 C   0  0  0  0  0  0
  -29.4367  -19.5551   20.2849 C   0  0  1  0  0  0
  -29.7111  -22.8231   21.7305 C   0  0  0  0  0  0
  -27.9186  -24.1236   20.2224 C   0  0  0  0  0  0
  -28.9403  -22.6169   20.4059 C   0  0  2  0  0  0
  -29.9304  -16.6967   20.6413 N   0  0  0  0  0  0
  -28.5215  -20.9816   20.2884 N   0  3  0  0  0  0
  -31.4429  -13.0031   19.2137 H   0  0  0  0  0  0
  -30.4498  -11.9438   20.1541 H   0  0  0  0  0  0
  -29.9203  -11.7544   17.7072 H   0  0  0  0  0  0
  -29.5699  -13.4661   17.6351 H   0  0  0  0  0  0
  -28.0249  -11.2893   19.0517 H   0  0  0  0  0  0
  -27.4228  -12.3849   17.8331 H   0  0  0  0  0  0
  -27.5033  -14.2483   19.2949 H   0  0  0  0  0  0
  -28.8061  -12.6145   21.5193 H   0  0  0  0  0  0
  -28.2507  -14.2691   21.6460 H   0  0  0  0  0  0
  -25.2814   -9.5709   22.4706 H   0  0  0  0  0  0
  -24.0045   -7.4658   22.7461 H   0  0  0  0  0  0
  -21.0856   -8.8727   19.8961 H   0  0  0  0  0  0
  -22.3675  -10.9633   19.6148 H   0  0  0  0  0  0
  -21.2013   -7.6125   23.9683 H   0  0  0  0  0  0
  -21.1512   -6.0500   25.9060 H   0  0  0  0  0  0
  -22.0606   -2.7581   23.2802 H   0  0  0  0  0  0
  -22.4050  -11.9911   22.4918 H   0  0  0  0  0  0
  -21.1016  -13.1170   22.2528 H   0  0  0  0  0  0
  -24.6339  -15.8547   20.5386 H   0  0  0  0  0  0
  -26.2529  -15.6515   20.0908 H   0  0  0  0  0  0
  -26.7422  -32.5101   23.0890 H   0  0  0  0  0  0
  -25.0132  -33.9519   25.0219 H   0  0  0  0  0  0
  -22.7940  -31.2650   21.3603 H   0  0  0  0  0  0
  -23.3794  -35.9500   23.3269 H   0  0  0  0  0  0
  -24.3573  -36.8884   22.2065 H   0  0  0  0  0  0
  -23.7211  -37.6375   23.6702 H   0  0  0  0  0  0
  -26.2379  -31.3417   20.6125 H   0  0  0  0  0  0
  -26.9085  -30.6706   22.0587 H   0  0  0  0  0  0
  -28.1399  -28.5526   21.2963 H   0  0  0  0  0  0
  -25.8420  -25.7112   19.0159 H   0  0  0  0  0  0
  -23.9933  -27.2692   18.9448 H   0  0  0  0  0  0
  -23.8762  -30.5175   19.3926 H   0  0  0  0  0  0
  -22.8199  -29.2081   19.8356 H   0  0  0  0  0  0
  -25.1348  -36.1811   25.0800 H   0  0  0  0  0  0
  -20.9988  -28.3344   24.1329 H   0  0  0  0  0  0
  -20.5727  -26.2350   23.3645 H   0  0  0  0  0  0
  -21.6661  -26.7457   22.1197 H   0  0  0  0  0  0
  -19.6963  -25.6255   21.1287 H   0  0  0  0  0  0
  -19.6706  -27.3127   20.6754 H   0  0  0  0  0  0
  -17.4229  -26.6628   21.4022 H   0  0  0  0  0  0
  -18.0360  -26.0039   22.9015 H   0  0  0  0  0  0
  -19.7971  -30.7321   24.2123 H   0  0  0  0  0  0
  -17.5037  -31.6259   24.5175 H   0  0  0  0  0  0
  -15.5360  -30.2980   23.7691 H   0  0  0  0  0  0
  -15.8667  -28.0801   22.7133 H   0  0  0  0  0  0
  -24.5887  -30.7127   25.7698 H   0  0  0  0  0  0
  -24.8966  -32.2938   26.4793 H   0  0  0  0  0  0
  -25.7999  -30.8920   27.0165 H   0  0  0  0  0  0
  -26.3062  -29.6551   24.1414 H   0  0  0  0  0  0
  -27.3916  -29.7218   25.5090 H   0  0  0  0  0  0
  -27.9038  -30.4016   23.9832 H   0  0  0  0  0  0
  -27.2619  -33.3620   26.2012 H   0  0  0  0  0  0
  -28.3903  -32.6841   25.0350 H   0  0  0  0  0  0
  -28.0672  -31.8467   26.5487 H   0  0  0  0  0  0
  -28.2599  -38.0094   24.7535 H   0  0  0  0  0  0
  -28.1082  -36.2618   24.6262 H   0  0  0  0  0  0
  -27.2284  -37.1378   25.8866 H   0  0  0  0  0  0
  -20.9588  -29.8705   21.6677 H   0  0  0  0  0  0
  -26.0145  -38.2792   24.1392 H   0  0  0  0  0  0
  -31.1008  -19.8513   21.6840 H   0  0  0  0  0  0
  -29.6656  -19.1803   22.4251 H   0  0  0  0  0  0
  -31.2225  -17.2736   22.2635 H   0  0  0  0  0  0
  -31.7387  -17.7672   20.6794 H   0  0  0  0  0  0
  -28.9109  -17.7006   18.9495 H   0  0  0  0  0  0
  -27.9887  -17.7132   20.4148 H   0  0  0  0  0  0
  -30.1529  -19.7590   19.4866 H   0  0  0  0  0  0
  -30.3338  -23.7195   21.6720 H   0  0  0  0  0  0
  -30.3825  -21.9982   21.9702 H   0  0  0  0  0  0
  -29.0334  -22.9479   22.5786 H   0  0  0  0  0  0
  -27.1472  -24.0108   20.9831 H   0  0  0  0  0  0
  -27.3742  -23.9733   19.2902 H   0  0  0  0  0  0
  -29.6801  -22.7111   19.6112 H   0  0  0  0  0  0
  -27.7935  -20.8376   20.9735 H   0  0  0  0  0  0
  -28.0341  -20.9369   19.4040 H   0  0  0  0  0  0
  1 25  1  0  0  0
  1 30  2  0  0  0
  1 78  1  0  0  0
  2  3  1  0  0  0
  2 25  1  0  0  0
  2 80  1  0  0  0
  2 81  1  0  0  0
  3  4  1  0  0  0
  3 82  1  0  0  0
  3 83  1  0  0  0
  4  5  1  0  0  0
  4 84  1  0  0  0
  4 85  1  0  0  0
  5  6  1  0  0  0
  5 26  1  0  0  0
  5 86  1  0  0  0
  6 25  1  0  0  0
  6 87  1  0  0  0
  6 88  1  0  0  0
  7  8  2  0  0  0
  7 26  1  0  0  0
  7 29  1  0  0  0
  8  9  1  0  0  0
  8 22  1  0  0  0
  9 10  1  0  0  0
  9 27  2  0  0  0
 10 11  2  0  0  0
 10 15  1  0  0  0
 11 12  1  0  0  0
 11 89  1  0  0  0
 12 13  2  0  0  0
 12 90  1  0  0  0
 13 14  1  0  0  0
 13 31  1  0  0  0
 14 15  2  0  0  0
 14 91  1  0  0  0
 15 92  1  0  0  0
 16 17  2  0  0  0
 16 21  1  0  0  0
 16 31  1  0  0  0
 17 18  1  0  0  0
 17 93  1  0  0  0
 18 19  2  0  0  0
 18 94  1  0  0  0
 19 20  1  0  0  0
 19 24  1  0  0  0
 20 21  2  0  0  0
 20 95  1  0  0  0
 21 23  1  0  0  0
 22 28  1  0  0  0
 22 32  2  0  0  0
 26 27  1  0  0  0
 28 96  1  0  0  0
 28 97  1  0  0  0
 29 98  1  0  0  0
 29 99  1  0  0  0
 33 34  1  0  0  0
 33 66  1  0  0  0
 33 70  2  0  0  0
 34 36  1  0  0  0
 34 59  1  0  0  0
 34100  1  0  0  0
 35 44  2  0  0  0
 35 45  1  0  0  0
 35 68  1  0  0  0
 36 56  1  0  0  0
 36101  1  0  0  0
 37 39  1  0  0  0
 37 47  1  0  0  0
 37 66  1  0  0  0
 37102  1  0  0  0
 38 43  2  0  0  0
 38 46  1  0  0  0
 38 47  1  0  0  0
 39 64  1  0  0  0
 39 67  2  0  0  0
 40 52  1  0  0  0
 40 53  2  0  0  0
 40 58  1  0  0  0
 41103  1  0  0  0
 41104  1  0  0  0
 41105  1  0  0  0
 41 48  1  0  0  0
 42 43  1  0  0  0
 42 66  1  0  0  0
 42106  1  0  0  0
 42107  1  0  0  0
 43 44  1  0  0  0
 44108  1  0  0  0
 45 46  2  0  0  0
 45109  1  0  0  0
 46110  1  0  0  0
 47111  1  0  0  0
 47112  1  0  0  0
 48 56  1  0  0  0
 48 65  1  0  0  0
 48113  1  0  0  0
 49 50  1  0  0  0
 49 53  1  0  0  0
 49 64  1  0  0  0
 49114  1  0  0  0
 50 51  1  0  0  0
 50115  1  0  0  0
 50116  1  0  0  0
 51 52  1  0  0  0
 51117  1  0  0  0
 51118  1  0  0  0
 52119  1  0  0  0
 52120  1  0  0  0
 53 54  1  0  0  0
 54 55  2  0  0  0
 54121  1  0  0  0
 55 57  1  0  0  0
 55122  1  0  0  0
 56 69  2  0  0  0
 57 58  2  0  0  0
 57123  1  0  0  0
 58124  1  0  0  0
 59 60  1  0  0  0
 59 61  1  0  0  0
 59 62  1  0  0  0
 60125  1  0  0  0
 60126  1  0  0  0
 60127  1  0  0  0
 61128  1  0  0  0
 61129  1  0  0  0
 61130  1  0  0  0
 62131  1  0  0  0
 62132  1  0  0  0
 62133  1  0  0  0
 63 65  1  0  0  0
 63134  1  0  0  0
 63135  1  0  0  0
 63136  1  0  0  0
 64137  1  0  0  0
 65138  1  0  0  0
 68 76  1  0  0  0
 71 72  1  0  0  0
 71 74  1  0  0  0
 71139  1  0  0  0
 71140  1  0  0  0
 72 78  1  0  0  0
 72141  1  0  0  0
 72142  1  0  0  0
 73 74  1  0  0  0
 73 78  1  0  0  0
 73143  1  0  0  0
 73144  1  0  0  0
 74 79  1  0  0  0
 74145  1  0  0  0
 75146  1  0  0  0
 75147  1  0  0  0
 75148  1  0  0  0
 75 77  1  0  0  0
 76 77  1  0  0  0
 76149  1  0  0  0
 76150  1  0  0  0
 77 79  1  0  0  0
 77151  1  0  0  0
 79152  1  0  0  0
 79153  1  0  0  0
M  CHG  1  79   1
M  ISO  4   1 100  68 101  76 101  78 100
M  END
> <chiral flag>
0

> <version>
0

> <s_m_source_file>
/data/baiqing/PycharmProjects/Reinvent-master-3.2/result/LINK_invent/BTK/process_docking_weight1_custom_sum_contain_oxygen_bond_distance_aromatic_linkinvent_7_9_3/rearranged_h_0191.sdf

> <i_m_source_file_index>
8

> <r_mmod_Potential_Energy-OPLS-2005>
1509.46105957031

> <r_mmod_Stretch_Energy-OPLS-2005>
644.001281738281

> <r_mmod_Bend_Energy-OPLS-2005>
543.06298828125

> <r_mmod_Torsional_Energy-OPLS-2005>
338.124084472656

> <r_mmod_Improper_Torsional_Energy-OPLS-2005>
4.76600360870361

> <r_mmod_Van_der_Waal_Energy-OPLS-2005>
108.242568969727

> <r_mmod_Electrostatic_Energy-OPLS-2005>
-176.094635009766

> <r_mmod_Solvation_Energy-OPLS-2005>
-458.685363769531

> <b_mmod_Minimization_Converged-OPLS-2005>
0

> <r_mmod_RMS_Derivative-OPLS-2005>
6.76454162597656

$$$$
8
                    3D
 Structure written by MMmdl.
158167  0  0  1  0            999 V2000
  -30.6200  -14.7445   20.5058 C   0  0  0  0  0  0
  -30.4361  -12.4684   19.4725 C   0  0  0  0  0  0
  -29.5107  -12.5230   18.2358 C   0  0  0  0  0  0
  -28.0346  -12.3384   18.6434 C   0  0  0  0  0  0
  -27.6436  -13.2198   19.8590 C   0  0  2  0  0  0
  -28.6908  -13.1051   20.9886 C   0  0  0  0  0  0
  -25.2487  -13.8150   20.5610 C   0  0  0  0  0  0
  -24.1792  -13.0429   20.9185 C   0  0  0  0  0  0
  -24.6374  -11.6901   20.8767 C   0  0  0  0  0  0
  -23.9045  -10.4295   21.0428 C   0  0  0  0  0  0
  -24.3602   -9.4212   21.9205 C   0  0  0  0  0  0
  -23.6283   -8.2250   22.0761 C   0  0  0  0  0  0
  -22.4272   -8.0291   21.3544 C   0  0  0  0  0  0
  -21.9908   -9.0265   20.4646 C   0  0  0  0  0  0
  -22.7229  -10.2149   20.3061 C   0  0  0  0  0  0
  -21.6847   -6.0746   22.5286 C   0  0  0  0  0  0
  -21.4007   -6.5645   23.8219 C   0  0  0  0  0  0
  -21.3654   -5.6793   24.9181 C   0  0  0  0  0  0
  -21.6048   -4.3054   24.7220 C   0  0  0  0  0  0
  -21.8818   -3.8155   23.4342 C   0  0  0  0  0  0
  -21.9189   -4.6977   22.3404 C   0  0  0  0  0  0
  -22.7818  -13.5250   21.1837 C   0  0  0  0  0  0
  -22.1651   -4.2169   21.0981 F   0  0  0  0  0  0
  -21.5640   -3.4533   25.7731 F   0  0  0  0  0  0
  -29.9803  -13.5196   20.4172 N   0  0  0  0  0  0
  -26.2937  -12.9340   20.3300 N   0  0  0  0  0  0
  -25.9304  -11.6501   20.5789 N   0  0  0  0  0  0
  -22.0447  -12.8277   22.0390 N   0  0  0  0  0  0
  -25.4113  -15.1854   20.3872 N   0  0  0  0  0  0
  -31.7971  -14.8169   20.1337 O   0  0  0  0  0  0
  -21.6633   -6.8890   21.4243 O   0  0  0  0  0  0
  -22.3537  -14.5573   20.6678 O   0  0  0  0  0  0
  -24.6295  -31.8565   23.2000 C   0  0  0  0  0  0
  -25.9133  -32.4749   23.8363 C   0  0  1  0  0  0
  -27.2276  -27.2889   20.1378 C   0  0  0  0  0  0
  -25.5956  -33.8559   24.2287 N   0  0  0  0  0  0
  -23.4258  -30.4739   21.5437 C   0  0  2  0  0  0
  -24.8735  -28.9156   20.1182 C   0  0  0  0  0  0
  -22.7505  -29.4590   22.4967 C   0  0  0  0  0  0
  -18.0285  -28.1363   22.8493 C   0  0  0  0  0  0
  -24.1481  -36.7251   23.2647 C   0  0  0  0  0  0
  -25.9681  -30.7754   21.3765 C   0  0  0  0  0  0
  -26.0429  -29.3998   20.7196 C   0  0  0  0  0  0
  -27.2267  -28.6010   20.7102 C   0  0  0  0  0  0
  -26.0396  -26.8561   19.5153 C   0  0  0  0  0  0
  -24.8749  -27.6504   19.5054 C   0  0  0  0  0  0
  -23.6420  -29.7987   20.1628 C   0  0  0  0  0  0
  -25.4111  -36.3062   24.0339 C   0  0  1  0  0  0
  -20.5889  -28.3661   23.1277 C   0  0  2  0  0  0
  -20.6754  -26.9380   22.5404 C   0  0  0  0  0  0
  -19.5726  -26.6368   21.5208 C   0  0  0  0  0  0
  -18.1912  -26.7912   22.1624 C   0  0  0  0  0  0
  -19.1542  -28.8838   23.2870 C   0  0  0  0  0  0
  -18.9464  -30.1447   23.8877 C   0  0  0  0  0  0
  -17.6459  -30.6569   24.0554 C   0  0  0  0  0  0
  -25.9062  -34.9436   23.5110 C   0  0  0  0  0  0
  -16.5348  -29.9057   23.6339 C   0  0  0  0  0  0
  -16.7270  -28.6474   23.0360 C   0  0  0  0  0  0
  -26.4525  -31.6584   25.0755 C   0  0  0  0  0  0
  -25.3771  -31.3657   26.1482 C   0  0  0  0  0  0
  -27.0407  -30.3029   24.6234 C   0  0  0  0  0  0
  -27.6107  -32.4321   25.7497 C   0  0  0  0  0  0
  -27.5575  -37.1763   24.8468 C   0  0  0  0  0  0
  -21.4218  -29.3022   22.3697 N   0  0  0  0  0  0
  -26.4274  -37.3776   23.9437 N   0  0  0  0  0  0
  -24.6930  -31.0537   22.0963 N   0  0  0  0  0  0
  -23.4211  -28.8154   23.3079 O   0  0  0  0  0  0
  -28.3406  -26.4331   20.1357 O   0  0  0  0  0  0
  -26.5631  -34.8909   22.4678 O   0  0  0  0  0  0
  -23.5448  -32.1398   23.7293 O   0  0  0  0  0  0
  -30.2535  -20.5251   21.3311 C   0  0  0  0  0  0
  -30.0617  -22.0561   21.3013 C   0  0  0  0  0  0
  -28.5722  -17.7324   21.7175 C   0  0  0  0  0  0
  -28.7854  -16.2000   21.5926 C   0  0  0  0  0  0
  -28.5262  -20.9143   19.8780 C   0  0  0  0  0  0
  -30.3060  -17.3114   20.1777 C   0  0  0  0  0  0
  -28.6947  -22.3028   20.6384 C   0  0  2  0  0  0
  -29.1376  -18.3598   20.4402 C   0  0  2  0  0  0
  -28.5141  -23.7258   19.8769 C   0  0  0  0  0  0
  -28.2178  -25.0652   20.7231 C   0  0  0  0  0  0
  -29.3837  -19.8716   20.5381 N   0  0  0  0  0  0
  -29.8953  -15.9363   20.6644 N   0  0  0  0  0  0
  -31.1099  -19.9942   22.0418 O   0  0  0  0  0  0
  -31.4752  -12.6002   19.1677 H   0  0  0  0  0  0
  -30.3975  -11.4846   19.9428 H   0  0  0  0  0  0
  -29.7982  -11.7586   17.5135 H   0  0  0  0  0  0
  -29.6333  -13.4827   17.7302 H   0  0  0  0  0  0
  -27.8861  -11.2863   18.8902 H   0  0  0  0  0  0
  -27.3800  -12.5461   17.7957 H   0  0  0  0  0  0
  -27.6498  -14.2466   19.4949 H   0  0  0  0  0  0
  -28.7467  -12.0761   21.3484 H   0  0  0  0  0  0
  -28.4172  -13.6840   21.8662 H   0  0  0  0  0  0
  -25.2733   -9.5709   22.4794 H   0  0  0  0  0  0
  -23.9999   -7.4641   22.7476 H   0  0  0  0  0  0
  -21.0849   -8.8777   19.8947 H   0  0  0  0  0  0
  -22.3682  -10.9691   19.6179 H   0  0  0  0  0  0
  -21.1985   -7.6145   23.9739 H   0  0  0  0  0  0
  -21.1473   -6.0510   25.9088 H   0  0  0  0  0  0
  -22.0600   -2.7616   23.2830 H   0  0  0  0  0  0
  -22.4000  -11.9906   22.4765 H   0  0  0  0  0  0
  -21.1079  -13.1355   22.2602 H   0  0  0  0  0  0
  -24.6430  -15.8391   20.4884 H   0  0  0  0  0  0
  -26.2547  -15.6175   20.0337 H   0  0  0  0  0  0
  -26.7198  -32.5392   23.1108 H   0  0  0  0  0  0
  -25.0149  -33.9727   25.0459 H   0  0  0  0  0  0
  -22.7194  -31.2934   21.3942 H   0  0  0  0  0  0
  -23.3783  -35.9540   23.3277 H   0  0  0  0  0  0
  -24.3576  -36.8914   22.2067 H   0  0  0  0  0  0
  -23.7179  -37.6415   23.6697 H   0  0  0  0  0  0
  -26.1111  -31.5377   20.6095 H   0  0  0  0  0  0
  -26.8437  -30.8182   22.0128 H   0  0  0  0  0  0
  -28.1291  -28.9755   21.1734 H   0  0  0  0  0  0
  -26.0124  -25.8872   19.0370 H   0  0  0  0  0  0
  -23.9807  -27.2710   19.0301 H   0  0  0  0  0  0
  -23.7585  -30.5694   19.3999 H   0  0  0  0  0  0
  -22.7635  -29.2223   19.8657 H   0  0  0  0  0  0
  -25.1279  -36.1913   25.0830 H   0  0  0  0  0  0
  -20.9960  -28.3201   24.1404 H   0  0  0  0  0  0
  -20.5603  -26.2280   23.3608 H   0  0  0  0  0  0
  -21.6620  -26.7361   22.1212 H   0  0  0  0  0  0
  -19.6864  -25.6280   21.1226 H   0  0  0  0  0  0
  -19.6651  -27.3189   20.6746 H   0  0  0  0  0  0
  -17.4181  -26.6689   21.4023 H   0  0  0  0  0  0
  -18.0285  -26.0038   22.8995 H   0  0  0  0  0  0
  -19.7942  -30.7279   24.2217 H   0  0  0  0  0  0
  -17.5008  -31.6250   24.5151 H   0  0  0  0  0  0
  -15.5339  -30.2938   23.7685 H   0  0  0  0  0  0
  -15.8676  -28.0780   22.7079 H   0  0  0  0  0  0
  -24.5971  -30.6996   25.7779 H   0  0  0  0  0  0
  -24.8936  -32.2771   26.5003 H   0  0  0  0  0  0
  -25.8125  -30.8765   27.0208 H   0  0  0  0  0  0
  -26.2992  -29.6721   24.1323 H   0  0  0  0  0  0
  -27.4184  -29.7348   25.4748 H   0  0  0  0  0  0
  -27.8822  -30.4348   23.9432 H   0  0  0  0  0  0
  -27.2782  -33.3648   26.2067 H   0  0  0  0  0  0
  -28.3906  -32.6838   25.0296 H   0  0  0  0  0  0
  -28.0806  -31.8454   26.5403 H   0  0  0  0  0  0
  -28.2554  -38.0098   24.7596 H   0  0  0  0  0  0
  -28.1107  -36.2640   24.6189 H   0  0  0  0  0  0
  -27.2305  -37.1273   25.8869 H   0  0  0  0  0  0
  -20.9420  -29.8741   21.6891 H   0  0  0  0  0  0
  -26.0144  -38.2830   24.1514 H   0  0  0  0  0  0
  -30.8677  -22.4928   20.7118 H   0  0  0  0  0  0
  -30.1063  -22.4793   22.3048 H   0  0  0  0  0  0
  -29.1272  -18.0931   22.5849 H   0  0  0  0  0  0
  -27.5246  -17.9913   21.8783 H   0  0  0  0  0  0
  -27.8745  -15.7612   21.1973 H   0  0  0  0  0  0
  -28.9720  -15.7591   22.5723 H   0  0  0  0  0  0
  -28.8450  -21.0118   18.8390 H   0  0  0  0  0  0
  -27.4814  -20.5996   19.8663 H   0  0  0  0  0  0
  -31.2091  -17.6051   20.7152 H   0  0  0  0  0  0
  -30.5667  -17.2781   19.1187 H   0  0  0  0  0  0
  -27.9499  -22.2924   21.4370 H   0  0  0  0  0  0
  -28.3994  -18.2199   19.6494 H   0  0  0  0  0  0
  -27.6959  -23.6236   19.1635 H   0  0  0  0  0  0
  -29.3984  -23.8983   19.2638 H   0  0  0  0  0  0
  -28.9260  -25.0613   21.5516 H   0  0  0  0  0  0
  -27.2433  -24.9606   21.2047 H   0  0  0  0  0  0
  1 25  1  0  0  0
  1 30  2  0  0  0
  1 82  1  0  0  0
  2  3  1  0  0  0
  2 25  1  0  0  0
  2 84  1  0  0  0
  2 85  1  0  0  0
  3  4  1  0  0  0
  3 86  1  0  0  0
  3 87  1  0  0  0
  4  5  1  0  0  0
  4 88  1  0  0  0
  4 89  1  0  0  0
  5  6  1  0  0  0
  5 26  1  0  0  0
  5 90  1  0  0  0
  6 25  1  0  0  0
  6 91  1  0  0  0
  6 92  1  0  0  0
  7  8  2  0  0  0
  7 26  1  0  0  0
  7 29  1  0  0  0
  8  9  1  0  0  0
  8 22  1  0  0  0
  9 10  1  0  0  0
  9 27  2  0  0  0
 10 11  2  0  0  0
 10 15  1  0  0  0
 11 12  1  0  0  0
 11 93  1  0  0  0
 12 13  2  0  0  0
 12 94  1  0  0  0
 13 14  1  0  0  0
 13 31  1  0  0  0
 14 15  2  0  0  0
 14 95  1  0  0  0
 15 96  1  0  0  0
 16 17  2  0  0  0
 16 21  1  0  0  0
 16 31  1  0  0  0
 17 18  1  0  0  0
 17 97  1  0  0  0
 18 19  2  0  0  0
 18 98  1  0  0  0
 19 20  1  0  0  0
 19 24  1  0  0  0
 20 21  2  0  0  0
 20 99  1  0  0  0
 21 23  1  0  0  0
 22 28  1  0  0  0
 22 32  2  0  0  0
 26 27  1  0  0  0
 28100  1  0  0  0
 28101  1  0  0  0
 29102  1  0  0  0
 29103  1  0  0  0
 33 34  1  0  0  0
 33 66  1  0  0  0
 33 70  2  0  0  0
 34 36  1  0  0  0
 34 59  1  0  0  0
 34104  1  0  0  0
 35 44  2  0  0  0
 35 45  1  0  0  0
 35 68  1  0  0  0
 36 56  1  0  0  0
 36105  1  0  0  0
 37 39  1  0  0  0
 37 47  1  0  0  0
 37 66  1  0  0  0
 37106  1  0  0  0
 38 43  2  0  0  0
 38 46  1  0  0  0
 38 47  1  0  0  0
 39 64  1  0  0  0
 39 67  2  0  0  0
 40 52  1  0  0  0
 40 53  2  0  0  0
 40 58  1  0  0  0
 41107  1  0  0  0
 41108  1  0  0  0
 41109  1  0  0  0
 41 48  1  0  0  0
 42 43  1  0  0  0
 42 66  1  0  0  0
 42110  1  0  0  0
 42111  1  0  0  0
 43 44  1  0  0  0
 44112  1  0  0  0
 45 46  2  0  0  0
 45113  1  0  0  0
 46114  1  0  0  0
 47115  1  0  0  0
 47116  1  0  0  0
 48 56  1  0  0  0
 48 65  1  0  0  0
 48117  1  0  0  0
 49 50  1  0  0  0
 49 53  1  0  0  0
 49 64  1  0  0  0
 49118  1  0  0  0
 50 51  1  0  0  0
 50119  1  0  0  0
 50120  1  0  0  0
 51 52  1  0  0  0
 51121  1  0  0  0
 51122  1  0  0  0
 52123  1  0  0  0
 52124  1  0  0  0
 53 54  1  0  0  0
 54 55  2  0  0  0
 54125  1  0  0  0
 55 57  1  0  0  0
 55126  1  0  0  0
 56 69  2  0  0  0
 57 58  2  0  0  0
 57127  1  0  0  0
 58128  1  0  0  0
 59 60  1  0  0  0
 59 61  1  0  0  0
 59 62  1  0  0  0
 60129  1  0  0  0
 60130  1  0  0  0
 60131  1  0  0  0
 61132  1  0  0  0
 61133  1  0  0  0
 61134  1  0  0  0
 62135  1  0  0  0
 62136  1  0  0  0
 62137  1  0  0  0
 63 65  1  0  0  0
 63138  1  0  0  0
 63139  1  0  0  0
 63140  1  0  0  0
 64141  1  0  0  0
 65142  1  0  0  0
 68 80  1  0  0  0
 71 72  1  0  0  0
 71 81  1  0  0  0
 71 83  2  0  0  0
 72 77  1  0  0  0
 72143  1  0  0  0
 72144  1  0  0  0
 73 74  1  0  0  0
 73 78  1  0  0  0
 73145  1  0  0  0
 73146  1  0  0  0
 74 82  1  0  0  0
 74147  1  0  0  0
 74148  1  0  0  0
 75 77  1  0  0  0
 75 81  1  0  0  0
 75149  1  0  0  0
 75150  1  0  0  0
 76 78  1  0  0  0
 76 82  1  0  0  0
 76151  1  0  0  0
 76152  1  0  0  0
 77 79  1  0  0  0
 77153  1  0  0  0
 78 81  1  0  0  0
 78154  1  0  0  0
 79 80  1  0  0  0
 79155  1  0  0  0
 79156  1  0  0  0
 80157  1  0  0  0
 80158  1  0  0  0
M  ISO  4   1 100  68 101  80 101  82 100
M  END
> <chiral flag>
0

> <version>
0

> <s_m_source_file>
/data/baiqing/PycharmProjects/Reinvent-master-3.2/result/LINK_invent/BTK/process_docking_weight1_custom_sum_contain_oxygen_bond_distance_aromatic_linkinvent_7_9_3/rearranged_h_0191.sdf

> <i_m_source_file_index>
9

> <r_mmod_Potential_Energy-OPLS-2005>
389.023193359375

> <r_mmod_Stretch_Energy-OPLS-2005>
110.274467468262

> <r_mmod_Bend_Energy-OPLS-2005>
225.014831542969

> <r_mmod_Torsional_Energy-OPLS-2005>
359.850799560547

> <r_mmod_Improper_Torsional_Energy-OPLS-2005>
9.90750312805176

> <r_mmod_Van_der_Waal_Energy-OPLS-2005>
109.127090454102

> <r_mmod_Electrostatic_Energy-OPLS-2005>
-272.086547851562

> <r_mmod_Solvation_Energy-OPLS-2005>
-224.558792114258

> <b_mmod_Minimization_Converged-OPLS-2005>
0

> <r_mmod_RMS_Derivative-OPLS-2005>
1.9539749622345

$$$$
9
                    3D
 Structure written by MMmdl.
154163  0  0  1  0            999 V2000
  -30.6320  -14.8119   20.4434 C   0  0  0  0  0  0
  -30.4211  -12.5053   19.4748 C   0  0  0  0  0  0
  -29.5039  -12.5155   18.2344 C   0  0  0  0  0  0
  -28.0330  -12.3334   18.6538 C   0  0  0  0  0  0
  -27.6329  -13.2448   19.8461 C   0  0  2  0  0  0
  -28.6836  -13.2162   20.9762 C   0  0  0  0  0  0
  -25.2473  -13.8226   20.5726 C   0  0  0  0  0  0
  -24.1780  -13.0450   20.9225 C   0  0  0  0  0  0
  -24.6393  -11.6932   20.8767 C   0  0  0  0  0  0
  -23.9076  -10.4299   21.0416 C   0  0  0  0  0  0
  -24.3624   -9.4211   21.9189 C   0  0  0  0  0  0
  -23.6295   -8.2248   22.0756 C   0  0  0  0  0  0
  -22.4278   -8.0285   21.3546 C   0  0  0  0  0  0
  -21.9917   -9.0259   20.4648 C   0  0  0  0  0  0
  -22.7250  -10.2136   20.3063 C   0  0  0  0  0  0
  -21.6853   -6.0741   22.5281 C   0  0  0  0  0  0
  -21.4015   -6.5643   23.8215 C   0  0  0  0  0  0
  -21.3661   -5.6794   24.9176 C   0  0  0  0  0  0
  -21.6045   -4.3057   24.7228 C   0  0  0  0  0  0
  -21.8817   -3.8150   23.4348 C   0  0  0  0  0  0
  -21.9191   -4.6968   22.3403 C   0  0  0  0  0  0
  -22.7797  -13.5218   21.1874 C   0  0  0  0  0  0
  -22.1656   -4.2156   21.0978 F   0  0  0  0  0  0
  -21.5631   -3.4538   25.7739 F   0  0  0  0  0  0
  -29.9604  -13.6020   20.3668 N   0  0  0  0  0  0
  -26.2903  -12.9455   20.3305 N   0  0  0  0  0  0
  -25.9329  -11.6585   20.5778 N   0  0  0  0  0  0
  -22.0445  -12.8205   22.0427 N   0  0  0  0  0  0
  -25.4161  -15.1948   20.4147 N   0  0  0  0  0  0
  -31.8420  -14.7911   20.1940 O   0  0  0  0  0  0
  -21.6643   -6.8881   21.4242 O   0  0  0  0  0  0
  -22.3479  -14.5517   20.6710 O   0  0  0  0  0  0
  -24.6363  -31.8516   23.1952 C   0  0  0  0  0  0
  -25.9171  -32.4730   23.8310 C   0  0  1  0  0  0
  -27.2157  -27.2182   20.1174 C   0  0  0  0  0  0
  -25.5951  -33.8534   24.2233 N   0  0  0  0  0  0
  -23.4338  -30.4752   21.5404 C   0  0  2  0  0  0
  -24.8785  -28.9187   20.1063 C   0  0  0  0  0  0
  -22.7523  -29.4590   22.4896 C   0  0  0  0  0  0
  -18.0295  -28.1393   22.8484 C   0  0  0  0  0  0
  -24.1492  -36.7266   23.2640 C   0  0  0  0  0  0
  -25.9842  -30.7500   21.3816 C   0  0  0  0  0  0
  -26.0533  -29.3703   20.7188 C   0  0  0  0  0  0
  -27.2199  -28.5317   20.7156 C   0  0  0  0  0  0
  -26.0061  -26.8416   19.4890 C   0  0  0  0  0  0
  -24.8626  -27.6639   19.4827 C   0  0  0  0  0  0
  -23.6522  -29.8110   20.1561 C   0  0  0  0  0  0
  -25.4120  -36.3053   24.0323 C   0  0  1  0  0  0
  -20.5903  -28.3707   23.1259 C   0  0  2  0  0  0
  -20.6784  -26.9421   22.5407 C   0  0  0  0  0  0
  -19.5758  -26.6386   21.5213 C   0  0  0  0  0  0
  -18.1937  -26.7937   22.1624 C   0  0  0  0  0  0
  -19.1550  -28.8868   23.2865 C   0  0  0  0  0  0
  -18.9470  -30.1467   23.8885 C   0  0  0  0  0  0
  -17.6467  -30.6592   24.0562 C   0  0  0  0  0  0
  -25.9066  -34.9425   23.5082 C   0  0  0  0  0  0
  -16.5359  -29.9086   23.6334 C   0  0  0  0  0  0
  -16.7281  -28.6505   23.0358 C   0  0  0  0  0  0
  -26.4521  -31.6569   25.0719 C   0  0  0  0  0  0
  -25.3727  -31.3729   26.1426 C   0  0  0  0  0  0
  -27.0379  -30.2977   24.6241 C   0  0  0  0  0  0
  -27.6064  -32.4319   25.7499 C   0  0  0  0  0  0
  -27.5581  -37.1786   24.8463 C   0  0  0  0  0  0
  -21.4225  -29.3049   22.3640 N   0  0  0  0  0  0
  -26.4286  -37.3759   23.9416 N   0  0  0  0  0  0
  -24.7042  -31.0445   22.0948 N   0  0  0  0  0  0
  -23.4205  -28.8131   23.3011 O   0  0  0  0  0  0
  -28.3015  -26.2998   20.2167 O   0  0  0  0  0  0
  -26.5640  -34.8911   22.4653 O   0  0  0  0  0  0
  -23.5504  -32.1360   23.7225 O   0  0  0  0  0  0
  -27.5750  -22.6679   20.4783 C   0  0  0  0  0  0
  -27.7766  -21.2522   20.6438 C   0  0  0  0  0  0
  -28.6251  -23.5084   20.0127 C   0  0  0  0  0  0
  -29.0418  -20.6451   20.3394 C   0  0  0  0  0  0
  -30.5989  -18.5956   19.9390 C   0  0  0  0  0  0
  -28.4156  -18.1559   20.9328 C   0  0  0  0  0  0
  -30.4554  -17.1161   19.3769 C   0  0  0  0  0  0
  -29.0343  -16.7098   21.2927 C   0  0  0  0  0  0
  -28.3982  -25.0047   19.4283 C   0  0  0  0  0  0
  -29.8204  -22.8693   19.7639 N   0  0  0  0  0  0
  -30.0186  -21.5229   19.9279 N   0  0  0  0  0  0
  -29.3409  -19.2006   20.4173 N   0  0  0  0  0  0
  -29.9550  -16.0487   20.3106 N   0  0  0  0  0  0
  -26.7280  -20.4940   21.0528 F   0  0  0  0  0  0
  -31.4604  -12.6210   19.1639 H   0  0  0  0  0  0
  -30.3720  -11.5429   19.9866 H   0  0  0  0  0  0
  -29.7962  -11.7292   17.5369 H   0  0  0  0  0  0
  -29.6200  -13.4598   17.6998 H   0  0  0  0  0  0
  -27.9005  -11.2860   18.9279 H   0  0  0  0  0  0
  -27.3728  -12.5102   17.8040 H   0  0  0  0  0  0
  -27.6136  -14.2608   19.4507 H   0  0  0  0  0  0
  -28.7489  -12.2222   21.4217 H   0  0  0  0  0  0
  -28.4146  -13.8890   21.7891 H   0  0  0  0  0  0
  -25.2770   -9.5686   22.4766 H   0  0  0  0  0  0
  -24.0005   -7.4639   22.7475 H   0  0  0  0  0  0
  -21.0850   -8.8783   19.8948 H   0  0  0  0  0  0
  -22.3715  -10.9674   19.6173 H   0  0  0  0  0  0
  -21.2009   -7.6150   23.9718 H   0  0  0  0  0  0
  -21.1484   -6.0528   25.9078 H   0  0  0  0  0  0
  -22.0594   -2.7612   23.2852 H   0  0  0  0  0  0
  -22.4064  -11.9868   22.4816 H   0  0  0  0  0  0
  -21.1063  -13.1231   22.2630 H   0  0  0  0  0  0
  -24.6488  -15.8493   20.5239 H   0  0  0  0  0  0
  -26.2654  -15.6298   20.0799 H   0  0  0  0  0  0
  -26.7233  -32.5360   23.1042 H   0  0  0  0  0  0
  -25.0095  -33.9661   25.0379 H   0  0  0  0  0  0
  -22.7326  -31.2992   21.3942 H   0  0  0  0  0  0
  -23.3764  -35.9587   23.3281 H   0  0  0  0  0  0
  -24.3584  -36.8912   22.2059 H   0  0  0  0  0  0
  -23.7228  -37.6452   23.6682 H   0  0  0  0  0  0
  -26.1324  -31.5105   20.6141 H   0  0  0  0  0  0
  -26.8584  -30.7950   22.0196 H   0  0  0  0  0  0
  -28.1161  -28.8721   21.2153 H   0  0  0  0  0  0
  -25.8746  -25.8743   19.0344 H   0  0  0  0  0  0
  -23.9577  -27.3068   19.0103 H   0  0  0  0  0  0
  -23.7801  -30.5884   19.4022 H   0  0  0  0  0  0
  -22.7683  -29.2489   19.8494 H   0  0  0  0  0  0
  -25.1303  -36.1891   25.0813 H   0  0  0  0  0  0
  -20.9997  -28.3290   24.1379 H   0  0  0  0  0  0
  -20.5686  -26.2318   23.3615 H   0  0  0  0  0  0
  -21.6651  -26.7443   22.1197 H   0  0  0  0  0  0
  -19.6920  -25.6292   21.1250 H   0  0  0  0  0  0
  -19.6696  -27.3191   20.6738 H   0  0  0  0  0  0
  -17.4209  -26.6685   21.4025 H   0  0  0  0  0  0
  -18.0336  -26.0078   22.9019 H   0  0  0  0  0  0
  -19.7943  -30.7290   24.2249 H   0  0  0  0  0  0
  -17.5018  -31.6273   24.5165 H   0  0  0  0  0  0
  -15.5358  -30.2986   23.7666 H   0  0  0  0  0  0
  -15.8681  -28.0819   22.7084 H   0  0  0  0  0  0
  -24.5912  -30.7072   25.7745 H   0  0  0  0  0  0
  -24.8913  -32.2902   26.4825 H   0  0  0  0  0  0
  -25.8029  -30.8919   27.0217 H   0  0  0  0  0  0
  -26.2978  -29.6707   24.1255 H   0  0  0  0  0  0
  -27.4032  -29.7262   25.4784 H   0  0  0  0  0  0
  -27.8870  -30.4238   23.9520 H   0  0  0  0  0  0
  -27.2667  -33.3630   26.2049 H   0  0  0  0  0  0
  -28.3892  -32.6858   25.0339 H   0  0  0  0  0  0
  -28.0714  -31.8461   26.5438 H   0  0  0  0  0  0
  -28.2577  -38.0105   24.7536 H   0  0  0  0  0  0
  -28.1101  -36.2635   24.6257 H   0  0  0  0  0  0
  -27.2303  -37.1392   25.8866 H   0  0  0  0  0  0
  -20.9419  -29.8763   21.6831 H   0  0  0  0  0  0
  -26.0160  -38.2827   24.1430 H   0  0  0  0  0  0
  -26.5942  -23.0870   20.6422 H   0  0  0  0  0  0
  -31.0172  -19.2228   19.1504 H   0  0  0  0  0  0
  -31.3256  -18.6115   20.7529 H   0  0  0  0  0  0
  -27.9174  -18.5404   21.8240 H   0  0  0  0  0  0
  -27.6293  -18.0242   20.1877 H   0  0  0  0  0  0
  -31.4206  -16.8378   18.9520 H   0  0  0  0  0  0
  -29.7778  -17.1308   18.5224 H   0  0  0  0  0  0
  -28.2000  -16.0427   21.5019 H   0  0  0  0  0  0
  -29.5834  -16.7942   22.2314 H   0  0  0  0  0  0
  -27.6139  -24.9164   18.6833 H   0  0  0  0  0  0
  -29.2747  -25.1790   18.8041 H   0  0  0  0  0  0
  1 25  1  0  0  0
  1 30  2  0  0  0
  1 83  1  0  0  0
  2  3  1  0  0  0
  2 25  1  0  0  0
  2 85  1  0  0  0
  2 86  1  0  0  0
  3  4  1  0  0  0
  3 87  1  0  0  0
  3 88  1  0  0  0
  4  5  1  0  0  0
  4 89  1  0  0  0
  4 90  1  0  0  0
  5  6  1  0  0  0
  5 26  1  0  0  0
  5 91  1  0  0  0
  6 25  1  0  0  0
  6 92  1  0  0  0
  6 93  1  0  0  0
  7  8  2  0  0  0
  7 26  1  0  0  0
  7 29  1  0  0  0
  8  9  1  0  0  0
  8 22  1  0  0  0
  9 10  1  0  0  0
  9 27  2  0  0  0
 10 11  2  0  0  0
 10 15  1  0  0  0
 11 12  1  0  0  0
 11 94  1  0  0  0
 12 13  2  0  0  0
 12 95  1  0  0  0
 13 14  1  0  0  0
 13 31  1  0  0  0
 14 15  2  0  0  0
 14 96  1  0  0  0
 15 97  1  0  0  0
 16 17  2  0  0  0
 16 21  1  0  0  0
 16 31  1  0  0  0
 17 18  1  0  0  0
 17 98  1  0  0  0
 18 19  2  0  0  0
 18 99  1  0  0  0
 19 20  1  0  0  0
 19 24  1  0  0  0
 20 21  2  0  0  0
 20100  1  0  0  0
 21 23  1  0  0  0
 22 28  1  0  0  0
 22 32  2  0  0  0
 26 27  1  0  0  0
 28101  1  0  0  0
 28102  1  0  0  0
 29103  1  0  0  0
 29104  1  0  0  0
 33 34  1  0  0  0
 33 66  1  0  0  0
 33 70  2  0  0  0
 34 36  1  0  0  0
 34 59  1  0  0  0
 34105  1  0  0  0
 35 44  2  0  0  0
 35 45  1  0  0  0
 35 68  1  0  0  0
 36 56  1  0  0  0
 36106  1  0  0  0
 37 39  1  0  0  0
 37 47  1  0  0  0
 37 66  1  0  0  0
 37107  1  0  0  0
 38 43  2  0  0  0
 38 46  1  0  0  0
 38 47  1  0  0  0
 39 64  1  0  0  0
 39 67  2  0  0  0
 40 52  1  0  0  0
 40 53  2  0  0  0
 40 58  1  0  0  0
 41108  1  0  0  0
 41109  1  0  0  0
 41110  1  0  0  0
 41 48  1  0  0  0
 42 43  1  0  0  0
 42 66  1  0  0  0
 42111  1  0  0  0
 42112  1  0  0  0
 43 44  1  0  0  0
 44113  1  0  0  0
 45 46  2  0  0  0
 45114  1  0  0  0
 46115  1  0  0  0
 47116  1  0  0  0
 47117  1  0  0  0
 48 56  1  0  0  0
 48 65  1  0  0  0
 48118  1  0  0  0
 49 50  1  0  0  0
 49 53  1  0  0  0
 49 64  1  0  0  0
 49119  1  0  0  0
 50 51  1  0  0  0
 50120  1  0  0  0
 50121  1  0  0  0
 51 52  1  0  0  0
 51122  1  0  0  0
 51123  1  0  0  0
 52124  1  0  0  0
 52125  1  0  0  0
 53 54  1  0  0  0
 54 55  2  0  0  0
 54126  1  0  0  0
 55 57  1  0  0  0
 55127  1  0  0  0
 56 69  2  0  0  0
 57 58  2  0  0  0
 57128  1  0  0  0
 58129  1  0  0  0
 59 60  1  0  0  0
 59 61  1  0  0  0
 59 62  1  0  0  0
 60130  1  0  0  0
 60131  1  0  0  0
 60132  1  0  0  0
 61133  1  0  0  0
 61134  1  0  0  0
 61135  1  0  0  0
 62136  1  0  0  0
 62137  1  0  0  0
 62138  1  0  0  0
 63 65  1  0  0  0
 63139  1  0  0  0
 63140  1  0  0  0
 63141  1  0  0  0
 64142  1  0  0  0
 65143  1  0  0  0
 68 79  1  0  0  0
 71 72  2  0  0  0
 71 73  1  0  0  0
 71144  1  0  0  0
 72 74  1  0  0  0
 72 84  1  0  0  0
 73 79  1  0  0  0
 73 80  2  0  0  0
 74 81  2  0  0  0
 74 82  1  0  0  0
 75 77  1  0  0  0
 75 82  1  0  0  0
 75145  1  0  0  0
 75146  1  0  0  0
 76 78  1  0  0  0
 76 82  1  0  0  0
 76147  1  0  0  0
 76148  1  0  0  0
 77 83  1  0  0  0
 77149  1  0  0  0
 77150  1  0  0  0
 78 83  1  0  0  0
 78151  1  0  0  0
 78152  1  0  0  0
 79153  1  0  0  0
 79154  1  0  0  0
 80 81  1  0  0  0
M  ISO  4   1 100  68 101  79 101  83 100
M  END
> <chiral flag>
0

> <version>
0

> <s_m_source_file>
/data/baiqing/PycharmProjects/Reinvent-master-3.2/result/LINK_invent/BTK/process_docking_weight1_custom_sum_contain_oxygen_bond_distance_aromatic_linkinvent_7_9_3/rearranged_h_0191.sdf

> <i_m_source_file_index>
10

> <r_mmod_Potential_Energy-OPLS-2005>
525.184936523438

> <r_mmod_Stretch_Energy-OPLS-2005>
151.620452880859

> <r_mmod_Bend_Energy-OPLS-2005>
241.580062866211

> <r_mmod_Torsional_Energy-OPLS-2005>
341.360290527344

> <r_mmod_Improper_Torsional_Energy-OPLS-2005>
18.9721164703369

> <r_mmod_Van_der_Waal_Energy-OPLS-2005>
153.043334960938

> <r_mmod_Electrostatic_Energy-OPLS-2005>
-264.948333740234

> <r_mmod_Solvation_Energy-OPLS-2005>
-232.974990844727

> <b_mmod_Minimization_Converged-OPLS-2005>
0

> <r_mmod_RMS_Derivative-OPLS-2005>
0.663349390029907

$$$$
10
                    3D
 Structure written by MMmdl.
162171  0  0  1  0            999 V2000
  -30.6954  -14.5756   20.4843 C   0  0  0  0  0  0
  -30.4173  -12.3477   19.4552 C   0  0  0  0  0  0
  -29.5026  -12.4873   18.2224 C   0  0  0  0  0  0
  -28.0245  -12.3428   18.6362 C   0  0  0  0  0  0
  -27.6491  -13.2269   19.8569 C   0  0  2  0  0  0
  -28.6935  -13.1157   20.9900 C   0  0  0  0  0  0
  -25.2543  -13.8204   20.5696 C   0  0  0  0  0  0
  -24.1823  -13.0453   20.9199 C   0  0  0  0  0  0
  -24.6403  -11.6930   20.8741 C   0  0  0  0  0  0
  -23.9070  -10.4301   21.0401 C   0  0  0  0  0  0
  -24.3617   -9.4212   21.9181 C   0  0  0  0  0  0
  -23.6289   -8.2250   22.0754 C   0  0  0  0  0  0
  -22.4276   -8.0282   21.3542 C   0  0  0  0  0  0
  -21.9908   -9.0259   20.4648 C   0  0  0  0  0  0
  -22.7236  -10.2138   20.3053 C   0  0  0  0  0  0
  -21.6856   -6.0737   22.5278 C   0  0  0  0  0  0
  -21.4015   -6.5639   23.8211 C   0  0  0  0  0  0
  -21.3654   -5.6792   24.9172 C   0  0  0  0  0  0
  -21.6043   -4.3056   24.7228 C   0  0  0  0  0  0
  -21.8818   -3.8149   23.4350 C   0  0  0  0  0  0
  -21.9197   -4.6964   22.3406 C   0  0  0  0  0  0
  -22.7837  -13.5229   21.1881 C   0  0  0  0  0  0
  -22.1661   -4.2149   21.0982 F   0  0  0  0  0  0
  -21.5628   -3.4542   25.7739 F   0  0  0  0  0  0
  -30.0103  -13.3969   20.4069 N   0  0  0  0  0  0
  -26.2985  -12.9410   20.3321 N   0  0  0  0  0  0
  -25.9341  -11.6560   20.5774 N   0  0  0  0  0  0
  -22.0491  -12.8204   22.0424 N   0  0  0  0  0  0
  -25.4237  -15.1924   20.4114 N   0  0  0  0  0  0
  -31.8967  -14.6341   20.2035 O   0  0  0  0  0  0
  -21.6639   -6.8883   21.4237 O   0  0  0  0  0  0
  -22.3509  -14.5540   20.6738 O   0  0  0  0  0  0
  -24.6263  -31.8625   23.2063 C   0  0  0  0  0  0
  -25.9127  -32.4769   23.8374 C   0  0  1  0  0  0
  -27.2068  -27.3388   20.0968 C   0  0  0  0  0  0
  -25.5923  -33.8567   24.2275 N   0  0  0  0  0  0
  -23.4162  -30.4938   21.5484 C   0  0  2  0  0  0
  -24.8549  -28.9599   20.1078 C   0  0  0  0  0  0
  -22.7469  -29.4665   22.4926 C   0  0  0  0  0  0
  -18.0293  -28.1399   22.8479 C   0  0  0  0  0  0
  -24.1482  -36.7318   23.2637 C   0  0  0  0  0  0
  -25.9581  -30.7988   21.3745 C   0  0  0  0  0  0
  -26.0270  -29.4294   20.7149 C   0  0  0  0  0  0
  -27.2050  -28.6279   20.7071 C   0  0  0  0  0  0
  -26.0064  -26.9264   19.4637 C   0  0  0  0  0  0
  -24.8453  -27.7112   19.4765 C   0  0  0  0  0  0
  -23.6260  -29.8392   20.1602 C   0  0  0  0  0  0
  -25.4097  -36.3063   24.0326 C   0  0  1  0  0  0
  -20.5892  -28.3702   23.1275 C   0  0  2  0  0  0
  -20.6774  -26.9423   22.5408 C   0  0  0  0  0  0
  -19.5749  -26.6393   21.5214 C   0  0  0  0  0  0
  -18.1930  -26.7941   22.1632 C   0  0  0  0  0  0
  -19.1548  -28.8868   23.2873 C   0  0  0  0  0  0
  -18.9475  -30.1470   23.8885 C   0  0  0  0  0  0
  -17.6471  -30.6586   24.0574 C   0  0  0  0  0  0
  -25.9044  -34.9439   23.5102 C   0  0  0  0  0  0
  -16.5359  -29.9088   23.6339 C   0  0  0  0  0  0
  -16.7285  -28.6523   23.0330 C   0  0  0  0  0  0
  -26.4504  -31.6564   25.0737 C   0  0  0  0  0  0
  -25.3734  -31.3714   26.1461 C   0  0  0  0  0  0
  -27.0347  -30.2981   24.6201 C   0  0  0  0  0  0
  -27.6067  -32.4289   25.7509 C   0  0  0  0  0  0
  -27.5566  -37.1804   24.8462 C   0  0  0  0  0  0
  -21.4185  -29.3060   22.3670 N   0  0  0  0  0  0
  -26.4276  -37.3753   23.9410 N   0  0  0  0  0  0
  -24.6862  -31.0680   22.0995 N   0  0  0  0  0  0
  -23.4205  -28.8170   23.2967 O   0  0  0  0  0  0
  -28.3160  -26.4821   20.1427 O   0  0  0  0  0  0
  -26.5621  -34.8898   22.4666 O   0  0  0  0  0  0
  -23.5439  -32.1411   23.7408 O   0  0  0  0  0  0
  -27.3090  -19.9670   19.1006 C   0  0  0  0  0  0
  -26.9874  -19.8891   20.5665 C   0  0  0  0  0  0
  -30.0014  -16.6482   21.6196 C   0  0  0  0  0  0
  -30.1398  -16.5605   19.2503 C   0  0  0  0  0  0
  -29.0669  -17.9036   21.4917 C   0  0  0  0  0  0
  -29.1515  -17.7476   19.1490 C   0  0  0  0  0  0
  -28.4491  -19.9507   20.1291 C   0  0  0  0  0  0
  -29.2518  -21.2850   20.3556 C   0  0  0  0  0  0
  -29.0644  -23.9090   20.2581 C   0  0  0  0  0  0
  -28.0168  -25.0494   19.9672 C   0  0  0  0  0  0
  -29.9568  -15.7297   20.4605 N   0  0  0  0  0  0
  -29.2902  -18.6986   20.2649 N   0  0  0  0  0  0
  -28.4446  -22.5358   20.1102 N   0  3  0  0  0  0
  -31.4647  -12.4289   19.1587 H   0  0  0  0  0  0
  -30.3133  -11.3599   19.9061 H   0  0  0  0  0  0
  -29.7578  -11.7344   17.4758 H   0  0  0  0  0  0
  -29.6620  -13.4574   17.7485 H   0  0  0  0  0  0
  -27.8565  -11.2922   18.8775 H   0  0  0  0  0  0
  -27.3708  -12.5659   17.7920 H   0  0  0  0  0  0
  -27.6616  -14.2577   19.5019 H   0  0  0  0  0  0
  -28.6832  -12.1217   21.4400 H   0  0  0  0  0  0
  -28.4635  -13.8203   21.7912 H   0  0  0  0  0  0
  -25.2765   -9.5692   22.4757 H   0  0  0  0  0  0
  -24.0001   -7.4643   22.7471 H   0  0  0  0  0  0
  -21.0849   -8.8773   19.8954 H   0  0  0  0  0  0
  -22.3692  -10.9674   19.6160 H   0  0  0  0  0  0
  -21.1997   -7.6147   23.9716 H   0  0  0  0  0  0
  -21.1476   -6.0523   25.9075 H   0  0  0  0  0  0
  -22.0602   -2.7612   23.2853 H   0  0  0  0  0  0
  -22.4098  -11.9840   22.4780 H   0  0  0  0  0  0
  -21.1109  -13.1215   22.2660 H   0  0  0  0  0  0
  -24.6580  -15.8484   20.5222 H   0  0  0  0  0  0
  -26.2844  -15.6307   20.1100 H   0  0  0  0  0  0
  -26.7185  -32.5453   23.1121 H   0  0  0  0  0  0
  -25.0048  -33.9710   25.0395 H   0  0  0  0  0  0
  -22.7107  -31.3148   21.4091 H   0  0  0  0  0  0
  -23.3711  -35.9684   23.3290 H   0  0  0  0  0  0
  -24.3578  -36.8964   22.2056 H   0  0  0  0  0  0
  -23.7279  -37.6531   23.6679 H   0  0  0  0  0  0
  -26.0865  -31.5596   20.6021 H   0  0  0  0  0  0
  -26.8437  -30.8486   21.9972 H   0  0  0  0  0  0
  -28.1003  -28.9759   21.2038 H   0  0  0  0  0  0
  -25.9102  -25.9818   18.9525 H   0  0  0  0  0  0
  -23.9463  -27.3493   18.9948 H   0  0  0  0  0  0
  -23.7395  -30.6190   19.4067 H   0  0  0  0  0  0
  -22.7461  -29.2688   19.8586 H   0  0  0  0  0  0
  -25.1258  -36.1917   25.0818 H   0  0  0  0  0  0
  -20.9996  -28.3285   24.1390 H   0  0  0  0  0  0
  -20.5690  -26.2312   23.3610 H   0  0  0  0  0  0
  -21.6640  -26.7454   22.1189 H   0  0  0  0  0  0
  -19.6920  -25.6307   21.1240 H   0  0  0  0  0  0
  -19.6686  -27.3207   20.6742 H   0  0  0  0  0  0
  -17.4191  -26.6685   21.4034 H   0  0  0  0  0  0
  -18.0335  -26.0090   22.9040 H   0  0  0  0  0  0
  -19.7952  -30.7297   24.2229 H   0  0  0  0  0  0
  -17.5024  -31.6262   24.5190 H   0  0  0  0  0  0
  -15.5360  -30.2978   23.7674 H   0  0  0  0  0  0
  -15.8691  -28.0855   22.7010 H   0  0  0  0  0  0
  -24.5918  -30.7050   25.7801 H   0  0  0  0  0  0
  -24.8919  -32.2881   26.4872 H   0  0  0  0  0  0
  -25.8049  -30.8910   27.0250 H   0  0  0  0  0  0
  -26.2926  -29.6711   24.1251 H   0  0  0  0  0  0
  -27.4050  -29.7257   25.4721 H   0  0  0  0  0  0
  -27.8778  -30.4241   23.9402 H   0  0  0  0  0  0
  -27.2695  -33.3609   26.2054 H   0  0  0  0  0  0
  -28.3897  -32.6819   25.0345 H   0  0  0  0  0  0
  -28.0698  -31.8426   26.5460 H   0  0  0  0  0  0
  -28.2560  -38.0114   24.7472 H   0  0  0  0  0  0
  -28.1070  -36.2640   24.6294 H   0  0  0  0  0  0
  -27.2293  -37.1457   25.8867 H   0  0  0  0  0  0
  -20.9352  -29.8821   21.6914 H   0  0  0  0  0  0
  -26.0154  -38.2826   24.1398 H   0  0  0  0  0  0
  -27.0765  -20.8958   18.5851 H   0  0  0  0  0  0
  -27.0460  -19.0850   18.5219 H   0  0  0  0  0  0
  -26.5510  -18.9506   20.8965 H   0  0  0  0  0  0
  -26.5391  -20.7708   21.0207 H   0  0  0  0  0  0
  -29.7235  -16.0940   22.5181 H   0  0  0  0  0  0
  -31.0318  -16.9727   21.7770 H   0  0  0  0  0  0
  -31.1645  -16.9364   19.2070 H   0  0  0  0  0  0
  -30.0112  -15.9335   18.3647 H   0  0  0  0  0  0
  -29.2063  -18.5476   22.3616 H   0  0  0  0  0  0
  -28.0359  -17.5530   21.5286 H   0  0  0  0  0  0
  -28.1374  -17.3485   19.1067 H   0  0  0  0  0  0
  -29.3248  -18.2718   18.2083 H   0  0  0  0  0  0
  -30.1166  -21.2911   19.6911 H   0  0  0  0  0  0
  -29.6354  -21.3012   21.3761 H   0  0  0  0  0  0
  -29.4678  -24.0210   21.2648 H   0  0  0  0  0  0
  -29.9006  -23.9983   19.5632 H   0  0  0  0  0  0
  -27.1552  -24.8269   20.6001 H   0  0  0  0  0  0
  -27.7048  -24.8978   18.9327 H   0  0  0  0  0  0
  -27.6536  -22.4871   20.7334 H   0  0  0  0  0  0
  -28.0867  -22.4579   19.1705 H   0  0  0  0  0  0
  1 25  1  0  0  0
  1 30  2  0  0  0
  1 81  1  0  0  0
  2  3  1  0  0  0
  2 25  1  0  0  0
  2 84  1  0  0  0
  2 85  1  0  0  0
  3  4  1  0  0  0
  3 86  1  0  0  0
  3 87  1  0  0  0
  4  5  1  0  0  0
  4 88  1  0  0  0
  4 89  1  0  0  0
  5  6  1  0  0  0
  5 26  1  0  0  0
  5 90  1  0  0  0
  6 25  1  0  0  0
  6 91  1  0  0  0
  6 92  1  0  0  0
  7  8  2  0  0  0
  7 26  1  0  0  0
  7 29  1  0  0  0
  8  9  1  0  0  0
  8 22  1  0  0  0
  9 10  1  0  0  0
  9 27  2  0  0  0
 10 11  2  0  0  0
 10 15  1  0  0  0
 11 12  1  0  0  0
 11 93  1  0  0  0
 12 13  2  0  0  0
 12 94  1  0  0  0
 13 14  1  0  0  0
 13 31  1  0  0  0
 14 15  2  0  0  0
 14 95  1  0  0  0
 15 96  1  0  0  0
 16 17  2  0  0  0
 16 21  1  0  0  0
 16 31  1  0  0  0
 17 18  1  0  0  0
 17 97  1  0  0  0
 18 19  2  0  0  0
 18 98  1  0  0  0
 19 20  1  0  0  0
 19 24  1  0  0  0
 20 21  2  0  0  0
 20 99  1  0  0  0
 21 23  1  0  0  0
 22 28  1  0  0  0
 22 32  2  0  0  0
 26 27  1  0  0  0
 28100  1  0  0  0
 28101  1  0  0  0
 29102  1  0  0  0
 29103  1  0  0  0
 33 34  1  0  0  0
 33 66  1  0  0  0
 33 70  2  0  0  0
 34 36  1  0  0  0
 34 59  1  0  0  0
 34104  1  0  0  0
 35 44  2  0  0  0
 35 45  1  0  0  0
 35 68  1  0  0  0
 36 56  1  0  0  0
 36105  1  0  0  0
 37 39  1  0  0  0
 37 47  1  0  0  0
 37 66  1  0  0  0
 37106  1  0  0  0
 38 43  2  0  0  0
 38 46  1  0  0  0
 38 47  1  0  0  0
 39 64  1  0  0  0
 39 67  2  0  0  0
 40 52  1  0  0  0
 40 53  2  0  0  0
 40 58  1  0  0  0
 41107  1  0  0  0
 41108  1  0  0  0
 41109  1  0  0  0
 41 48  1  0  0  0
 42 43  1  0  0  0
 42 66  1  0  0  0
 42110  1  0  0  0
 42111  1  0  0  0
 43 44  1  0  0  0
 44112  1  0  0  0
 45 46  2  0  0  0
 45113  1  0  0  0
 46114  1  0  0  0
 47115  1  0  0  0
 47116  1  0  0  0
 48 56  1  0  0  0
 48 65  1  0  0  0
 48117  1  0  0  0
 49 50  1  0  0  0
 49 53  1  0  0  0
 49 64  1  0  0  0
 49118  1  0  0  0
 50 51  1  0  0  0
 50119  1  0  0  0
 50120  1  0  0  0
 51 52  1  0  0  0
 51121  1  0  0  0
 51122  1  0  0  0
 52123  1  0  0  0
 52124  1  0  0  0
 53 54  1  0  0  0
 54 55  2  0  0  0
 54125  1  0  0  0
 55 57  1  0  0  0
 55126  1  0  0  0
 56 69  2  0  0  0
 57 58  2  0  0  0
 57127  1  0  0  0
 58128  1  0  0  0
 59 60  1  0  0  0
 59 61  1  0  0  0
 59 62  1  0  0  0
 60129  1  0  0  0
 60130  1  0  0  0
 60131  1  0  0  0
 61132  1  0  0  0
 61133  1  0  0  0
 61134  1  0  0  0
 62135  1  0  0  0
 62136  1  0  0  0
 62137  1  0  0  0
 63 65  1  0  0  0
 63138  1  0  0  0
 63139  1  0  0  0
 63140  1  0  0  0
 64141  1  0  0  0
 65142  1  0  0  0
 68 80  1  0  0  0
 71 72  1  0  0  0
 71 77  1  0  0  0
 71143  1  0  0  0
 71144  1  0  0  0
 72 77  1  0  0  0
 72145  1  0  0  0
 72146  1  0  0  0
 73 75  1  0  0  0
 73 81  1  0  0  0
 73147  1  0  0  0
 73148  1  0  0  0
 74 76  1  0  0  0
 74 81  1  0  0  0
 74149  1  0  0  0
 74150  1  0  0  0
 75 82  1  0  0  0
 75151  1  0  0  0
 75152  1  0  0  0
 76 82  1  0  0  0
 76153  1  0  0  0
 76154  1  0  0  0
 77 78  1  0  0  0
 77 82  1  0  0  0
 78 83  1  0  0  0
 78155  1  0  0  0
 78156  1  0  0  0
 79 80  1  0  0  0
 79 83  1  0  0  0
 79157  1  0  0  0
 79158  1  0  0  0
 80159  1  0  0  0
 80160  1  0  0  0
 83161  1  0  0  0
 83162  1  0  0  0
M  CHG  1  83   1
M  ISO  4   1 100  68 101  80 101  81 100
M  END
> <chiral flag>
0

> <version>
0

> <s_m_source_file>
/data/baiqing/PycharmProjects/Reinvent-master-3.2/result/LINK_invent/BTK/process_docking_weight1_custom_sum_contain_oxygen_bond_distance_aromatic_linkinvent_7_9_3/rearranged_h_0191.sdf

> <i_m_source_file_index>
11

> <r_mmod_Potential_Energy-OPLS-2005>
186.003997802734

> <r_mmod_Stretch_Energy-OPLS-2005>
70.4508514404297

> <r_mmod_Bend_Energy-OPLS-2005>
140.80598449707

> <r_mmod_Torsional_Energy-OPLS-2005>
424.790008544922

> <r_mmod_Improper_Torsional_Energy-OPLS-2005>
16.7458686828613

> <r_mmod_Van_der_Waal_Energy-OPLS-2005>
150.275665283203

> <r_mmod_Electrostatic_Energy-OPLS-2005>
-224.195983886719

> <r_mmod_Solvation_Energy-OPLS-2005>
-436.888061523438

> <b_mmod_Minimization_Converged-OPLS-2005>
0

> <r_mmod_RMS_Derivative-OPLS-2005>
2.31135177612305

$$$$
11
                    3D
 Structure written by MMmdl.
157166  0  0  1  0            999 V2000
  -30.6981  -14.5423   20.5259 C   0  0  0  0  0  0
  -30.4093  -12.3374   19.4389 C   0  0  0  0  0  0
  -29.4897  -12.4913   18.2088 C   0  0  0  0  0  0
  -28.0116  -12.3514   18.6238 C   0  0  0  0  0  0
  -27.6479  -13.2203   19.8588 C   0  0  2  0  0  0
  -28.6930  -13.0678   20.9858 C   0  0  0  0  0  0
  -25.2511  -13.8190   20.5685 C   0  0  0  0  0  0
  -24.1792  -13.0444   20.9202 C   0  0  0  0  0  0
  -24.6368  -11.6920   20.8753 C   0  0  0  0  0  0
  -23.9055  -10.4296   21.0414 C   0  0  0  0  0  0
  -24.3619   -9.4214   21.9188 C   0  0  0  0  0  0
  -23.6300   -8.2244   22.0755 C   0  0  0  0  0  0
  -22.4283   -8.0274   21.3549 C   0  0  0  0  0  0
  -21.9915   -9.0249   20.4655 C   0  0  0  0  0  0
  -22.7231  -10.2130   20.3057 C   0  0  0  0  0  0
  -21.6846   -6.0743   22.5291 C   0  0  0  0  0  0
  -21.4018   -6.5645   23.8226 C   0  0  0  0  0  0
  -21.3667   -5.6793   24.9189 C   0  0  0  0  0  0
  -21.6039   -4.3055   24.7241 C   0  0  0  0  0  0
  -21.8816   -3.8146   23.4359 C   0  0  0  0  0  0
  -21.9194   -4.6969   22.3417 C   0  0  0  0  0  0
  -22.7816  -13.5229   21.1880 C   0  0  0  0  0  0
  -22.1656   -4.2153   21.1002 F   0  0  0  0  0  0
  -21.5635   -3.4541   25.7754 F   0  0  0  0  0  0
  -30.0122  -13.3677   20.4158 N   0  0  0  0  0  0
  -26.2949  -12.9387   20.3308 N   0  0  0  0  0  0
  -25.9297  -11.6537   20.5766 N   0  0  0  0  0  0
  -22.0459  -12.8216   22.0431 N   0  0  0  0  0  0
  -25.4187  -15.1914   20.4102 N   0  0  0  0  0  0
  -31.8597  -14.6460   20.1259 O   0  0  0  0  0  0
  -21.6637   -6.8878   21.4247 O   0  0  0  0  0  0
  -22.3515  -14.5544   20.6730 O   0  0  0  0  0  0
  -24.6176  -31.8661   23.2062 C   0  0  0  0  0  0
  -25.9059  -32.4808   23.8370 C   0  0  1  0  0  0
  -27.2260  -27.4015   20.1045 C   0  0  0  0  0  0
  -25.5915  -33.8611   24.2311 N   0  0  0  0  0  0
  -23.4053  -30.4899   21.5478 C   0  0  2  0  0  0
  -24.8496  -28.9449   20.1181 C   0  0  0  0  0  0
  -22.7419  -29.4669   22.4985 C   0  0  0  0  0  0
  -18.0280  -28.1364   22.8492 C   0  0  0  0  0  0
  -24.1482  -36.7315   23.2635 C   0  0  0  0  0  0
  -25.9356  -30.8227   21.3591 C   0  0  0  0  0  0
  -26.0128  -29.4527   20.7104 C   0  0  0  0  0  0
  -27.2076  -28.6909   20.6941 C   0  0  0  0  0  0
  -26.0468  -26.9139   19.5054 C   0  0  0  0  0  0
  -24.8628  -27.6766   19.5107 C   0  0  0  0  0  0
  -23.6140  -29.8168   20.1659 C   0  0  0  0  0  0
  -25.4102  -36.3106   24.0333 C   0  0  1  0  0  0
  -20.5866  -28.3671   23.1309 C   0  0  2  0  0  0
  -20.6761  -26.9400   22.5412 C   0  0  0  0  0  0
  -19.5739  -26.6382   21.5204 C   0  0  0  0  0  0
  -18.1923  -26.7909   22.1626 C   0  0  0  0  0  0
  -19.1524  -28.8832   23.2897 C   0  0  0  0  0  0
  -18.9454  -30.1435   23.8906 C   0  0  0  0  0  0
  -17.6456  -30.6576   24.0561 C   0  0  0  0  0  0
  -25.9038  -34.9477   23.5122 C   0  0  0  0  0  0
  -16.5348  -29.9072   23.6326 C   0  0  0  0  0  0
  -16.7263  -28.6485   23.0353 C   0  0  0  0  0  0
  -26.4471  -31.6576   25.0696 C   0  0  0  0  0  0
  -25.3749  -31.3681   26.1465 C   0  0  0  0  0  0
  -27.0286  -30.3014   24.6052 C   0  0  0  0  0  0
  -27.6043  -32.4284   25.7467 C   0  0  0  0  0  0
  -27.5571  -37.1804   24.8468 C   0  0  0  0  0  0
  -21.4140  -29.3063   22.3736 N   0  0  0  0  0  0
  -26.4282  -37.3794   23.9412 N   0  0  0  0  0  0
  -24.6720  -31.0748   22.0966 N   0  0  0  0  0  0
  -23.4185  -28.8209   23.3041 O   0  0  0  0  0  0
  -28.3797  -26.6403   20.0756 O   0  0  0  0  0  0
  -26.5599  -34.8940   22.4681 O   0  0  0  0  0  0
  -23.5365  -32.1426   23.7439 O   0  0  0  0  0  0
  -29.1155  -18.9353   19.9335 C   0  0  0  0  0  0
  -29.8686  -18.2522   20.8586 C   0  0  0  0  0  0
  -28.9991  -20.2770   20.4661 C   0  0  0  0  0  0
  -31.1080  -17.1907   22.6156 C   0  0  0  0  0  0
  -30.9096  -18.6936   22.9516 C   0  0  0  0  0  0
  -30.6470  -16.9790   21.1411 C   0  0  1  0  0  0
  -28.3564  -21.5224   19.8266 C   0  0  0  0  0  0
  -28.2346  -24.0799   19.8530 C   0  0  0  0  0  0
  -28.3425  -25.3572   20.7527 C   0  0  0  0  0  0
  -29.5899  -20.3737   21.6630 N   0  0  0  0  0  0
  -30.0977  -19.1374   21.8555 N   0  0  0  0  0  0
  -30.0183  -15.6412   20.9455 N   0  0  0  0  0  0
  -28.6108  -22.8016   20.5576 N   0  3  0  0  0  0
  -31.4580  -12.4164   19.1444 H   0  0  0  0  0  0
  -30.2973  -11.3441   19.8775 H   0  0  0  0  0  0
  -29.7364  -11.7447   17.4525 H   0  0  0  0  0  0
  -29.6519  -13.4646   17.7422 H   0  0  0  0  0  0
  -27.8309  -11.2997   18.8479 H   0  0  0  0  0  0
  -27.3594  -12.5937   17.7836 H   0  0  0  0  0  0
  -27.6695  -14.2580   19.5244 H   0  0  0  0  0  0
  -28.6824  -12.0491   21.3780 H   0  0  0  0  0  0
  -28.4574  -13.7197   21.8282 H   0  0  0  0  0  0
  -25.2757   -9.5699   22.4765 H   0  0  0  0  0  0
  -24.0020   -7.4631   22.7463 H   0  0  0  0  0  0
  -21.0849   -8.8766   19.8953 H   0  0  0  0  0  0
  -22.3685  -10.9678   19.6176 H   0  0  0  0  0  0
  -21.1999   -7.6147   23.9741 H   0  0  0  0  0  0
  -21.1498   -6.0520   25.9098 H   0  0  0  0  0  0
  -22.0583   -2.7605   23.2868 H   0  0  0  0  0  0
  -22.4070  -11.9887   22.4859 H   0  0  0  0  0  0
  -21.1075  -13.1255   22.2636 H   0  0  0  0  0  0
  -24.6471  -15.8401   20.5208 H   0  0  0  0  0  0
  -26.2645  -15.6371   20.0792 H   0  0  0  0  0  0
  -26.7127  -32.5510   23.1124 H   0  0  0  0  0  0
  -25.0073  -33.9767   25.0463 H   0  0  0  0  0  0
  -22.6952  -31.3081   21.4051 H   0  0  0  0  0  0
  -23.3743  -35.9649   23.3310 H   0  0  0  0  0  0
  -24.3592  -36.8932   22.2055 H   0  0  0  0  0  0
  -23.7245  -37.6520   23.6651 H   0  0  0  0  0  0
  -26.0469  -31.5841   20.5859 H   0  0  0  0  0  0
  -26.8239  -30.8822   21.9746 H   0  0  0  0  0  0
  -28.1070  -29.0837   21.1469 H   0  0  0  0  0  0
  -26.0408  -25.9480   19.0227 H   0  0  0  0  0  0
  -23.9692  -27.2810   19.0469 H   0  0  0  0  0  0
  -23.7269  -30.5879   19.4031 H   0  0  0  0  0  0
  -22.7345  -29.2403   19.8705 H   0  0  0  0  0  0
  -25.1277  -36.1957   25.0822 H   0  0  0  0  0  0
  -20.9956  -28.3218   24.1430 H   0  0  0  0  0  0
  -20.5630  -26.2278   23.3602 H   0  0  0  0  0  0
  -21.6633  -26.7422   22.1213 H   0  0  0  0  0  0
  -19.6898  -25.6293   21.1230 H   0  0  0  0  0  0
  -19.6661  -27.3195   20.6731 H   0  0  0  0  0  0
  -17.4184  -26.6656   21.4037 H   0  0  0  0  0  0
  -18.0322  -26.0043   22.9015 H   0  0  0  0  0  0
  -19.7933  -30.7248   24.2266 H   0  0  0  0  0  0
  -17.5018  -31.6254   24.5164 H   0  0  0  0  0  0
  -15.5349  -30.2976   23.7644 H   0  0  0  0  0  0
  -15.8664  -28.0808   22.7057 H   0  0  0  0  0  0
  -24.8956  -32.2850   26.4924 H   0  0  0  0  0  0
  -24.5908  -30.7039   25.7815 H   0  0  0  0  0  0
  -25.8129  -30.8846   27.0205 H   0  0  0  0  0  0
  -26.2818  -29.6786   24.1122 H   0  0  0  0  0  0
  -27.4079  -29.7235   25.4485 H   0  0  0  0  0  0
  -27.8638  -30.4343   23.9174 H   0  0  0  0  0  0
  -27.2641  -33.3545   26.2114 H   0  0  0  0  0  0
  -28.3816  -32.6916   25.0293 H   0  0  0  0  0  0
  -28.0747  -31.8381   26.5343 H   0  0  0  0  0  0
  -28.2588  -38.0095   24.7511 H   0  0  0  0  0  0
  -28.1062  -36.2639   24.6284 H   0  0  0  0  0  0
  -27.2311  -37.1456   25.8874 H   0  0  0  0  0  0
  -20.9286  -29.8835   21.7010 H   0  0  0  0  0  0
  -26.0170  -38.2867   24.1409 H   0  0  0  0  0  0
  -28.7603  -18.5660   18.9815 H   0  0  0  0  0  0
  -30.4686  -16.6164   23.2861 H   0  0  0  0  0  0
  -32.1318  -16.8556   22.7810 H   0  0  0  0  0  0
  -31.8539  -19.2390   22.9410 H   0  0  0  0  0  0
  -30.3976  -18.8550   23.9002 H   0  0  0  0  0  0
  -31.5366  -17.0494   20.5112 H   0  0  0  0  0  0
  -27.2787  -21.3799   19.7429 H   0  0  0  0  0  0
  -28.7242  -21.6276   18.8061 H   0  0  0  0  0  0
  -28.8924  -24.1988   18.9911 H   0  0  0  0  0  0
  -27.2212  -23.9947   19.4587 H   0  0  0  0  0  0
  -29.2781  -25.3000   21.3104 H   0  0  0  0  0  0
  -27.5548  -25.3490   21.5075 H   0  0  0  0  0  0
  -29.0452  -15.5374   21.1857 H   0  0  0  0  0  0
  -29.5932  -22.8069   20.7819 H   0  0  0  0  0  0
  -28.1208  -22.7237   21.4341 H   0  0  0  0  0  0
  1 25  1  0  0  0
  1 30  2  0  0  0
  1 82  1  0  0  0
  2  3  1  0  0  0
  2 25  1  0  0  0
  2 84  1  0  0  0
  2 85  1  0  0  0
  3  4  1  0  0  0
  3 86  1  0  0  0
  3 87  1  0  0  0
  4  5  1  0  0  0
  4 88  1  0  0  0
  4 89  1  0  0  0
  5  6  1  0  0  0
  5 26  1  0  0  0
  5 90  1  0  0  0
  6 25  1  0  0  0
  6 91  1  0  0  0
  6 92  1  0  0  0
  7  8  2  0  0  0
  7 26  1  0  0  0
  7 29  1  0  0  0
  8  9  1  0  0  0
  8 22  1  0  0  0
  9 10  1  0  0  0
  9 27  2  0  0  0
 10 11  2  0  0  0
 10 15  1  0  0  0
 11 12  1  0  0  0
 11 93  1  0  0  0
 12 13  2  0  0  0
 12 94  1  0  0  0
 13 14  1  0  0  0
 13 31  1  0  0  0
 14 15  2  0  0  0
 14 95  1  0  0  0
 15 96  1  0  0  0
 16 17  2  0  0  0
 16 21  1  0  0  0
 16 31  1  0  0  0
 17 18  1  0  0  0
 17 97  1  0  0  0
 18 19  2  0  0  0
 18 98  1  0  0  0
 19 20  1  0  0  0
 19 24  1  0  0  0
 20 21  2  0  0  0
 20 99  1  0  0  0
 21 23  1  0  0  0
 22 28  1  0  0  0
 22 32  2  0  0  0
 26 27  1  0  0  0
 28100  1  0  0  0
 28101  1  0  0  0
 29102  1  0  0  0
 29103  1  0  0  0
 33 34  1  0  0  0
 33 66  1  0  0  0
 33 70  2  0  0  0
 34 36  1  0  0  0
 34 59  1  0  0  0
 34104  1  0  0  0
 35 44  2  0  0  0
 35 45  1  0  0  0
 35 68  1  0  0  0
 36 56  1  0  0  0
 36105  1  0  0  0
 37 39  1  0  0  0
 37 47  1  0  0  0
 37 66  1  0  0  0
 37106  1  0  0  0
 38 43  2  0  0  0
 38 46  1  0  0  0
 38 47  1  0  0  0
 39 64  1  0  0  0
 39 67  2  0  0  0
 40 52  1  0  0  0
 40 53  2  0  0  0
 40 58  1  0  0  0
 41107  1  0  0  0
 41108  1  0  0  0
 41109  1  0  0  0
 41 48  1  0  0  0
 42 43  1  0  0  0
 42 66  1  0  0  0
 42110  1  0  0  0
 42111  1  0  0  0
 43 44  1  0  0  0
 44112  1  0  0  0
 45 46  2  0  0  0
 45113  1  0  0  0
 46114  1  0  0  0
 47115  1  0  0  0
 47116  1  0  0  0
 48 56  1  0  0  0
 48 65  1  0  0  0
 48117  1  0  0  0
 49 50  1  0  0  0
 49 53  1  0  0  0
 49 64  1  0  0  0
 49118  1  0  0  0
 50 51  1  0  0  0
 50119  1  0  0  0
 50120  1  0  0  0
 51 52  1  0  0  0
 51121  1  0  0  0
 51122  1  0  0  0
 52123  1  0  0  0
 52124  1  0  0  0
 53 54  1  0  0  0
 54 55  2  0  0  0
 54125  1  0  0  0
 55 57  1  0  0  0
 55126  1  0  0  0
 56 69  2  0  0  0
 57 58  2  0  0  0
 57127  1  0  0  0
 58128  1  0  0  0
 59 60  1  0  0  0
 59 61  1  0  0  0
 59 62  1  0  0  0
 60129  1  0  0  0
 60130  1  0  0  0
 60131  1  0  0  0
 61132  1  0  0  0
 61133  1  0  0  0
 61134  1  0  0  0
 62135  1  0  0  0
 62136  1  0  0  0
 62137  1  0  0  0
 63 65  1  0  0  0
 63138  1  0  0  0
 63139  1  0  0  0
 63140  1  0  0  0
 64141  1  0  0  0
 65142  1  0  0  0
 68 79  1  0  0  0
 71 72  2  0  0  0
 71 73  1  0  0  0
 71143  1  0  0  0
 72 76  1  0  0  0
 72 81  1  0  0  0
 73 77  1  0  0  0
 73 80  2  0  0  0
 74 75  1  0  0  0
 74 76  1  0  0  0
 74144  1  0  0  0
 74145  1  0  0  0
 75 81  1  0  0  0
 75146  1  0  0  0
 75147  1  0  0  0
 76 82  1  0  0  0
 76148  1  0  0  0
 77 83  1  0  0  0
 77149  1  0  0  0
 77150  1  0  0  0
 78 79  1  0  0  0
 78 83  1  0  0  0
 78151  1  0  0  0
 78152  1  0  0  0
 79153  1  0  0  0
 79154  1  0  0  0
 80 81  1  0  0  0
 82155  1  0  0  0
 83156  1  0  0  0
 83157  1  0  0  0
M  CHG  1  83   1
M  ISO  4   1 100  68 101  79 101  82 100
M  END
> <chiral flag>
0

> <version>
0

> <s_m_source_file>
/data/baiqing/PycharmProjects/Reinvent-master-3.2/result/LINK_invent/BTK/process_docking_weight1_custom_sum_contain_oxygen_bond_distance_aromatic_linkinvent_7_9_3/rearranged_h_0191.sdf

> <i_m_source_file_index>
12

> <r_mmod_Potential_Energy-OPLS-2005>
-258.298156738281

> <r_mmod_Stretch_Energy-OPLS-2005>
49.9268531799316

> <r_mmod_Bend_Energy-OPLS-2005>
174.047134399414

> <r_mmod_Torsional_Energy-OPLS-2005>
239.786041259766

> <r_mmod_Improper_Torsional_Energy-OPLS-2005>
3.81928992271423

> <r_mmod_Van_der_Waal_Energy-OPLS-2005>
120.866027832031

> <r_mmod_Electrostatic_Energy-OPLS-2005>
-422.228576660156

> <r_mmod_Solvation_Energy-OPLS-2005>
-447.090698242188

> <b_mmod_Minimization_Converged-OPLS-2005>
0

> <r_mmod_RMS_Derivative-OPLS-2005>
2.3520131111145

$$$$
12
                    3D
 Structure written by MMmdl.
154163  0  0  1  0            999 V2000
  -30.6556  -14.8917   20.4365 C   0  0  0  0  0  0
  -30.4101  -12.5693   19.4815 C   0  0  0  0  0  0
  -29.4985  -12.5146   18.2403 C   0  0  0  0  0  0
  -28.0364  -12.3101   18.6708 C   0  0  0  0  0  0
  -27.6206  -13.2540   19.8307 C   0  0  2  0  0  0
  -28.6711  -13.3110   20.9610 C   0  0  0  0  0  0
  -25.2417  -13.8233   20.5725 C   0  0  0  0  0  0
  -24.1752  -13.0443   20.9246 C   0  0  0  0  0  0
  -24.6385  -11.6936   20.8776 C   0  0  0  0  0  0
  -23.9078  -10.4294   21.0411 C   0  0  0  0  0  0
  -24.3629   -9.4207   21.9184 C   0  0  0  0  0  0
  -23.6302   -8.2244   22.0751 C   0  0  0  0  0  0
  -22.4283   -8.0281   21.3543 C   0  0  0  0  0  0
  -21.9922   -9.0256   20.4645 C   0  0  0  0  0  0
  -22.7254  -10.2134   20.3056 C   0  0  0  0  0  0
  -21.6854   -6.0739   22.5279 C   0  0  0  0  0  0
  -21.4013   -6.5644   23.8212 C   0  0  0  0  0  0
  -21.3656   -5.6797   24.9175 C   0  0  0  0  0  0
  -21.6043   -4.3059   24.7228 C   0  0  0  0  0  0
  -21.8821   -3.8151   23.4350 C   0  0  0  0  0  0
  -21.9194   -4.6966   22.3405 C   0  0  0  0  0  0
  -22.7769  -13.5199   21.1893 C   0  0  0  0  0  0
  -22.1662   -4.2150   21.0983 F   0  0  0  0  0  0
  -21.5627   -3.4545   25.7740 F   0  0  0  0  0  0
  -29.9368  -13.7031   20.3311 N   0  0  0  0  0  0
  -26.2850  -12.9483   20.3271 N   0  0  0  0  0  0
  -25.9321  -11.6608   20.5783 N   0  0  0  0  0  0
  -22.0432  -12.8175   22.0449 N   0  0  0  0  0  0
  -25.4042  -15.1958   20.4112 N   0  0  0  0  0  0
  -31.8699  -14.7838   20.2327 O   0  0  0  0  0  0
  -21.6644   -6.8881   21.4239 O   0  0  0  0  0  0
  -22.3444  -14.5498   20.6735 O   0  0  0  0  0  0
  -24.6403  -31.8476   23.1918 C   0  0  0  0  0  0
  -25.9193  -32.4714   23.8289 C   0  0  1  0  0  0
  -27.2069  -27.1673   20.1546 C   0  0  0  0  0  0
  -25.5947  -33.8514   24.2207 N   0  0  0  0  0  0
  -23.4419  -30.4687   21.5369 C   0  0  2  0  0  0
  -24.8903  -28.9010   20.1117 C   0  0  0  0  0  0
  -22.7551  -29.4568   22.4877 C   0  0  0  0  0  0
  -18.0301  -28.1396   22.8481 C   0  0  0  0  0  0
  -24.1490  -36.7262   23.2645 C   0  0  0  0  0  0
  -25.9959  -30.7317   21.3868 C   0  0  0  0  0  0
  -26.0674  -29.3453   20.7293 C   0  0  0  0  0  0
  -27.2330  -28.4943   20.7335 C   0  0  0  0  0  0
  -26.0112  -26.8193   19.4934 C   0  0  0  0  0  0
  -24.8726  -27.6501   19.4777 C   0  0  0  0  0  0
  -23.6664  -29.8003   20.1553 C   0  0  0  0  0  0
  -25.4121  -36.3041   24.0318 C   0  0  1  0  0  0
  -20.5912  -28.3720   23.1246 C   0  0  2  0  0  0
  -20.6788  -26.9427   22.5408 C   0  0  0  0  0  0
  -19.5760  -26.6383   21.5217 C   0  0  0  0  0  0
  -18.1941  -26.7936   22.1625 C   0  0  0  0  0  0
  -19.1557  -28.8876   23.2856 C   0  0  0  0  0  0
  -18.9475  -30.1472   23.8881 C   0  0  0  0  0  0
  -17.6474  -30.6595   24.0562 C   0  0  0  0  0  0
  -25.9071  -34.9415   23.5073 C   0  0  0  0  0  0
  -16.5364  -29.9088   23.6341 C   0  0  0  0  0  0
  -16.7287  -28.6505   23.0362 C   0  0  0  0  0  0
  -26.4525  -31.6571   25.0720 C   0  0  0  0  0  0
  -25.3712  -31.3741   26.1417 C   0  0  0  0  0  0
  -27.0400  -30.2973   24.6286 C   0  0  0  0  0  0
  -27.6057  -32.4339   25.7502 C   0  0  0  0  0  0
  -27.5573  -37.1784   24.8465 C   0  0  0  0  0  0
  -21.4248  -29.3050   22.3620 N   0  0  0  0  0  0
  -26.4285  -37.3750   23.9408 N   0  0  0  0  0  0
  -24.7123  -31.0363   22.0939 N   0  0  0  0  0  0
  -23.4213  -28.8116   23.3014 O   0  0  0  0  0  0
  -28.2423  -26.1772   20.1779 O   0  0  0  0  0  0
  -26.5660  -34.8910   22.4654 O   0  0  0  0  0  0
  -23.5531  -32.1334   23.7161 O   0  0  0  0  0  0
  -28.6717  -22.1197   21.0772 C   0  0  0  0  0  0
  -29.1090  -21.6002   19.0652 C   0  0  0  0  0  0
  -28.5096  -23.3286   20.3355 C   0  0  0  0  0  0
  -30.5464  -18.8215   19.7501 C   0  0  0  0  0  0
  -28.3892  -18.3334   20.6276 C   0  0  0  0  0  0
  -31.0637  -17.3750   20.1836 C   0  0  0  0  0  0
  -28.8496  -16.8106   20.9961 C   0  0  0  0  0  0
  -29.4615  -19.5009   20.6422 C   0  0  0  0  0  0
  -27.9171  -24.7910   20.7695 C   0  0  0  0  0  0
  -28.8003  -22.9210   19.0246 N   0  0  0  0  0  0
  -29.0826  -20.9902   20.2728 N   0  0  0  0  0  0
  -30.1092  -16.2221   20.4088 N   0  0  0  0  0  0
  -31.4464  -12.6790   19.1592 H   0  0  0  0  0  0
  -30.3750  -11.6286   20.0335 H   0  0  0  0  0  0
  -29.8099  -11.7094   17.5736 H   0  0  0  0  0  0
  -29.5912  -13.4411   17.6714 H   0  0  0  0  0  0
  -27.9346  -11.2713   18.9876 H   0  0  0  0  0  0
  -27.3672  -12.4341   17.8183 H   0  0  0  0  0  0
  -27.5748  -14.2485   19.3863 H   0  0  0  0  0  0
  -28.7615  -12.3486   21.4665 H   0  0  0  0  0  0
  -28.3830  -14.0340   21.7248 H   0  0  0  0  0  0
  -25.2772   -9.5684   22.4766 H   0  0  0  0  0  0
  -24.0009   -7.4635   22.7474 H   0  0  0  0  0  0
  -21.0853   -8.8779   19.8952 H   0  0  0  0  0  0
  -22.3709  -10.9676   19.6171 H   0  0  0  0  0  0
  -21.2003   -7.6151   23.9714 H   0  0  0  0  0  0
  -21.1474   -6.0529   25.9076 H   0  0  0  0  0  0
  -22.0602   -2.7613   23.2853 H   0  0  0  0  0  0
  -22.4076  -11.9847   22.4837 H   0  0  0  0  0  0
  -21.1043  -13.1174   22.2661 H   0  0  0  0  0  0
  -24.6348  -15.8462   20.5241 H   0  0  0  0  0  0
  -26.2497  -15.6371   20.0736 H   0  0  0  0  0  0
  -26.7260  -32.5334   23.1022 H   0  0  0  0  0  0
  -25.0049  -33.9626   25.0321 H   0  0  0  0  0  0
  -22.7432  -31.2944   21.3858 H   0  0  0  0  0  0
  -23.3756  -35.9588   23.3296 H   0  0  0  0  0  0
  -24.3569  -36.8905   22.2061 H   0  0  0  0  0  0
  -23.7244  -37.6450   23.6693 H   0  0  0  0  0  0
  -26.1481  -31.4885   20.6159 H   0  0  0  0  0  0
  -26.8675  -30.7811   22.0275 H   0  0  0  0  0  0
  -28.1323  -28.8280   21.2320 H   0  0  0  0  0  0
  -25.9414  -25.8602   18.9999 H   0  0  0  0  0  0
  -23.9752  -27.3076   18.9812 H   0  0  0  0  0  0
  -23.8000  -30.5758   19.4004 H   0  0  0  0  0  0
  -22.7815  -29.2408   19.8463 H   0  0  0  0  0  0
  -25.1310  -36.1868   25.0808 H   0  0  0  0  0  0
  -21.0003  -28.3316   24.1368 H   0  0  0  0  0  0
  -20.5694  -26.2332   23.3622 H   0  0  0  0  0  0
  -21.6653  -26.7447   22.1199 H   0  0  0  0  0  0
  -19.6926  -25.6291   21.1257 H   0  0  0  0  0  0
  -19.6699  -27.3186   20.6742 H   0  0  0  0  0  0
  -17.4211  -26.6684   21.4026 H   0  0  0  0  0  0
  -18.0336  -26.0081   22.9022 H   0  0  0  0  0  0
  -19.7953  -30.7287   24.2245 H   0  0  0  0  0  0
  -17.5031  -31.6275   24.5166 H   0  0  0  0  0  0
  -15.5364  -30.2984   23.7678 H   0  0  0  0  0  0
  -15.8684  -28.0818   22.7092 H   0  0  0  0  0  0
  -24.5903  -30.7086   25.7723 H   0  0  0  0  0  0
  -24.8887  -32.2911   26.4804 H   0  0  0  0  0  0
  -25.7993  -30.8932   27.0221 H   0  0  0  0  0  0
  -26.3019  -29.6683   24.1299 H   0  0  0  0  0  0
  -27.4031  -29.7286   25.4855 H   0  0  0  0  0  0
  -27.8914  -30.4218   23.9593 H   0  0  0  0  0  0
  -27.2658  -33.3663   26.2021 H   0  0  0  0  0  0
  -28.3892  -32.6861   25.0345 H   0  0  0  0  0  0
  -28.0699  -31.8503   26.5459 H   0  0  0  0  0  0
  -28.2587  -38.0085   24.7515 H   0  0  0  0  0  0
  -28.1075  -36.2614   24.6295 H   0  0  0  0  0  0
  -27.2285  -37.1432   25.8866 H   0  0  0  0  0  0
  -20.9455  -29.8751   21.6790 H   0  0  0  0  0  0
  -26.0156  -38.2817   24.1416 H   0  0  0  0  0  0
  -28.5187  -21.9760   22.1386 H   0  0  0  0  0  0
  -29.3879  -21.0597   18.1710 H   0  0  0  0  0  0
  -30.1723  -18.7561   18.7274 H   0  0  0  0  0  0
  -31.4094  -19.4862   19.6949 H   0  0  0  0  0  0
  -27.5754  -18.6120   21.2978 H   0  0  0  0  0  0
  -27.9342  -18.3106   19.6361 H   0  0  0  0  0  0
  -31.6405  -17.4868   21.1030 H   0  0  0  0  0  0
  -31.7898  -17.0865   19.4214 H   0  0  0  0  0  0
  -28.0239  -16.1433   20.7611 H   0  0  0  0  0  0
  -28.9664  -16.7498   22.0789 H   0  0  0  0  0  0
  -29.8641  -19.5530   21.6545 H   0  0  0  0  0  0
  -28.1587  -24.9137   21.8254 H   0  0  0  0  0  0
  -26.8329  -24.6845   20.7851 H   0  0  0  0  0  0
  1 25  1  0  0  0
  1 30  2  0  0  0
  1 82  1  0  0  0
  2  3  1  0  0  0
  2 25  1  0  0  0
  2 83  1  0  0  0
  2 84  1  0  0  0
  3  4  1  0  0  0
  3 85  1  0  0  0
  3 86  1  0  0  0
  4  5  1  0  0  0
  4 87  1  0  0  0
  4 88  1  0  0  0
  5  6  1  0  0  0
  5 26  1  0  0  0
  5 89  1  0  0  0
  6 25  1  0  0  0
  6 90  1  0  0  0
  6 91  1  0  0  0
  7  8  2  0  0  0
  7 26  1  0  0  0
  7 29  1  0  0  0
  8  9  1  0  0  0
  8 22  1  0  0  0
  9 10  1  0  0  0
  9 27  2  0  0  0
 10 11  2  0  0  0
 10 15  1  0  0  0
 11 12  1  0  0  0
 11 92  1  0  0  0
 12 13  2  0  0  0
 12 93  1  0  0  0
 13 14  1  0  0  0
 13 31  1  0  0  0
 14 15  2  0  0  0
 14 94  1  0  0  0
 15 95  1  0  0  0
 16 17  2  0  0  0
 16 21  1  0  0  0
 16 31  1  0  0  0
 17 18  1  0  0  0
 17 96  1  0  0  0
 18 19  2  0  0  0
 18 97  1  0  0  0
 19 20  1  0  0  0
 19 24  1  0  0  0
 20 21  2  0  0  0
 20 98  1  0  0  0
 21 23  1  0  0  0
 22 28  1  0  0  0
 22 32  2  0  0  0
 26 27  1  0  0  0
 28 99  1  0  0  0
 28100  1  0  0  0
 29101  1  0  0  0
 29102  1  0  0  0
 33 34  1  0  0  0
 33 66  1  0  0  0
 33 70  2  0  0  0
 34 36  1  0  0  0
 34 59  1  0  0  0
 34103  1  0  0  0
 35 44  2  0  0  0
 35 45  1  0  0  0
 35 68  1  0  0  0
 36 56  1  0  0  0
 36104  1  0  0  0
 37 39  1  0  0  0
 37 47  1  0  0  0
 37 66  1  0  0  0
 37105  1  0  0  0
 38 43  2  0  0  0
 38 46  1  0  0  0
 38 47  1  0  0  0
 39 64  1  0  0  0
 39 67  2  0  0  0
 40 52  1  0  0  0
 40 53  2  0  0  0
 40 58  1  0  0  0
 41106  1  0  0  0
 41107  1  0  0  0
 41108  1  0  0  0
 41 48  1  0  0  0
 42 43  1  0  0  0
 42 66  1  0  0  0
 42109  1  0  0  0
 42110  1  0  0  0
 43 44  1  0  0  0
 44111  1  0  0  0
 45 46  2  0  0  0
 45112  1  0  0  0
 46113  1  0  0  0
 47114  1  0  0  0
 47115  1  0  0  0
 48 56  1  0  0  0
 48 65  1  0  0  0
 48116  1  0  0  0
 49 50  1  0  0  0
 49 53  1  0  0  0
 49 64  1  0  0  0
 49117  1  0  0  0
 50 51  1  0  0  0
 50118  1  0  0  0
 50119  1  0  0  0
 51 52  1  0  0  0
 51120  1  0  0  0
 51121  1  0  0  0
 52122  1  0  0  0
 52123  1  0  0  0
 53 54  1  0  0  0
 54 55  2  0  0  0
 54124  1  0  0  0
 55 57  1  0  0  0
 55125  1  0  0  0
 56 69  2  0  0  0
 57 58  2  0  0  0
 57126  1  0  0  0
 58127  1  0  0  0
 59 60  1  0  0  0
 59 61  1  0  0  0
 59 62  1  0  0  0
 60128  1  0  0  0
 60129  1  0  0  0
 60130  1  0  0  0
 61131  1  0  0  0
 61132  1  0  0  0
 61133  1  0  0  0
 62134  1  0  0  0
 62135  1  0  0  0
 62136  1  0  0  0
 63 65  1  0  0  0
 63137  1  0  0  0
 63138  1  0  0  0
 63139  1  0  0  0
 64140  1  0  0  0
 65141  1  0  0  0
 68 79  1  0  0  0
 71 73  2  0  0  0
 71 81  1  0  0  0
 71142  1  0  0  0
 72 80  2  0  0  0
 72 81  1  0  0  0
 72143  1  0  0  0
 73 79  1  0  0  0
 73 80  1  0  0  0
 74 76  1  0  0  0
 74 78  1  0  0  0
 74144  1  0  0  0
 74145  1  0  0  0
 75 77  1  0  0  0
 75 78  1  0  0  0
 75146  1  0  0  0
 75147  1  0  0  0
 76 82  1  0  0  0
 76148  1  0  0  0
 76149  1  0  0  0
 77 82  1  0  0  0
 77150  1  0  0  0
 77151  1  0  0  0
 78 81  1  0  0  0
 78152  1  0  0  0
 79153  1  0  0  0
 79154  1  0  0  0
M  ISO  4   1 100  68 101  79 101  82 100
M  END
> <chiral flag>
0

> <version>
0

> <s_m_source_file>
/data/baiqing/PycharmProjects/Reinvent-master-3.2/result/LINK_invent/BTK/process_docking_weight1_custom_sum_contain_oxygen_bond_distance_aromatic_linkinvent_7_9_3/rearranged_h_0191.sdf

> <i_m_source_file_index>
13

> <r_mmod_Potential_Energy-OPLS-2005>
652.461547851562

> <r_mmod_Stretch_Energy-OPLS-2005>
200.601257324219

> <r_mmod_Bend_Energy-OPLS-2005>
278.732543945312

> <r_mmod_Torsional_Energy-OPLS-2005>
344.674346923828

> <r_mmod_Improper_Torsional_Energy-OPLS-2005>
11.3062314987183

> <r_mmod_Van_der_Waal_Energy-OPLS-2005>
121.110992431641

> <r_mmod_Electrostatic_Energy-OPLS-2005>
-244.731918334961

> <r_mmod_Solvation_Energy-OPLS-2005>
-226.766525268555

> <b_mmod_Minimization_Converged-OPLS-2005>
0

> <r_mmod_RMS_Derivative-OPLS-2005>
0.726971685886383

$$$$
13
                    3D
 Structure written by MMmdl.
164174  0  0  1  0            999 V2000
  -30.7416  -14.4107   20.6413 C   0  0  0  0  0  0
  -30.4171  -12.2998   19.4040 C   0  0  0  0  0  0
  -29.4864  -12.5177   18.1959 C   0  0  0  0  0  0
  -28.0095  -12.3756   18.6118 C   0  0  0  0  0  0
  -27.6630  -13.2045   19.8769 C   0  0  2  0  0  0
  -28.7024  -12.9634   20.9937 C   0  0  0  0  0  0
  -25.2595  -13.8157   20.5678 C   0  0  0  0  0  0
  -24.1839  -13.0438   20.9166 C   0  0  0  0  0  0
  -24.6386  -11.6903   20.8719 C   0  0  0  0  0  0
  -23.9052  -10.4291   21.0394 C   0  0  0  0  0  0
  -24.3609   -9.4211   21.9174 C   0  0  0  0  0  0
  -23.6290   -8.2244   22.0750 C   0  0  0  0  0  0
  -22.4269   -8.0278   21.3542 C   0  0  0  0  0  0
  -21.9900   -9.0249   20.4644 C   0  0  0  0  0  0
  -22.7222  -10.2131   20.3049 C   0  0  0  0  0  0
  -21.6852   -6.0735   22.5281 C   0  0  0  0  0  0
  -21.4012   -6.5640   23.8212 C   0  0  0  0  0  0
  -21.3660   -5.6791   24.9176 C   0  0  0  0  0  0
  -21.6043   -4.3056   24.7225 C   0  0  0  0  0  0
  -21.8820   -3.8146   23.4346 C   0  0  0  0  0  0
  -21.9193   -4.6962   22.3401 C   0  0  0  0  0  0
  -22.7864  -13.5241   21.1834 C   0  0  0  0  0  0
  -22.1662   -4.2148   21.0980 F   0  0  0  0  0  0
  -21.5628   -3.4540   25.7736 F   0  0  0  0  0  0
  -30.0385  -13.2637   20.4482 N   0  0  0  0  0  0
  -26.3028  -12.9324   20.3367 N   0  0  0  0  0  0
  -25.9311  -11.6482   20.5749 N   0  0  0  0  0  0
  -22.0504  -12.8237   22.0395 N   0  0  0  0  0  0
  -25.4342  -15.1876   20.4103 N   0  0  0  0  0  0
  -31.8197  -14.6413   20.0858 O   0  0  0  0  0  0
  -21.6637   -6.8876   21.4240 O   0  0  0  0  0  0
  -22.3552  -14.5549   20.6688 O   0  0  0  0  0  0
  -24.6135  -31.8691   23.2123 C   0  0  0  0  0  0
  -25.9037  -32.4826   23.8405 C   0  0  1  0  0  0
  -27.2318  -27.4420   20.0810 C   0  0  0  0  0  0
  -25.5899  -33.8625   24.2333 N   0  0  0  0  0  0
  -23.3996  -30.4945   21.5535 C   0  0  2  0  0  0
  -24.8428  -28.9625   20.1153 C   0  0  0  0  0  0
  -22.7398  -29.4663   22.5000 C   0  0  0  0  0  0
  -18.0269  -28.1374   22.8493 C   0  0  0  0  0  0
  -24.1485  -36.7320   23.2636 C   0  0  0  0  0  0
  -25.9285  -30.8330   21.3671 C   0  0  0  0  0  0
  -26.0022  -29.4680   20.7147 C   0  0  0  0  0  0
  -27.1947  -28.7105   20.7036 C   0  0  0  0  0  0
  -26.0498  -26.9516   19.4758 C   0  0  0  0  0  0
  -24.8600  -27.7013   19.4979 C   0  0  0  0  0  0
  -23.6062  -29.8301   20.1668 C   0  0  0  0  0  0
  -25.4103  -36.3114   24.0336 C   0  0  1  0  0  0
  -20.5859  -28.3658   23.1323 C   0  0  2  0  0  0
  -20.6761  -26.9397   22.5420 C   0  0  0  0  0  0
  -19.5740  -26.6383   21.5213 C   0  0  0  0  0  0
  -18.1918  -26.7920   22.1624 C   0  0  0  0  0  0
  -19.1518  -28.8831   23.2906 C   0  0  0  0  0  0
  -18.9448  -30.1440   23.8911 C   0  0  0  0  0  0
  -17.6451  -30.6585   24.0563 C   0  0  0  0  0  0
  -25.9032  -34.9478   23.5130 C   0  0  0  0  0  0
  -16.5343  -29.9086   23.6326 C   0  0  0  0  0  0
  -16.7260  -28.6503   23.0344 C   0  0  0  0  0  0
  -26.4469  -31.6605   25.0734 C   0  0  0  0  0  0
  -25.3741  -31.3715   26.1490 C   0  0  0  0  0  0
  -27.0304  -30.3046   24.6116 C   0  0  0  0  0  0
  -27.6049  -32.4326   25.7491 C   0  0  0  0  0  0
  -27.5584  -37.1807   24.8456 C   0  0  0  0  0  0
  -21.4130  -29.3029   22.3734 N   0  0  0  0  0  0
  -26.4286  -37.3803   23.9417 N   0  0  0  0  0  0
  -24.6654  -31.0797   22.1024 N   0  0  0  0  0  0
  -23.4173  -28.8204   23.3037 O   0  0  0  0  0  0
  -28.4173  -26.7332   20.0964 O   0  0  0  0  0  0
  -26.5595  -34.8927   22.4693 O   0  0  0  0  0  0
  -23.5333  -32.1444   23.7523 O   0  0  0  0  0  0
  -29.5636  -22.3924   20.7630 C   0  0  0  0  0  0
  -30.2656  -21.5465   19.8714 C   0  0  0  0  0  0
  -29.1872  -21.7744   21.9772 C   0  0  0  0  0  0
  -30.2558  -19.8123   21.4017 C   0  0  0  0  0  0
  -29.8787  -24.8570   19.5144 C   0  0  0  0  0  0
  -27.8656  -24.2768   19.8841 C   0  0  0  0  0  0
  -29.8505  -17.6168   22.4467 C   0  0  0  0  0  0
  -31.1144  -17.5747   20.7899 C   0  0  0  0  0  0
  -29.2093  -23.8758   20.5039 C   0  0  1  0  0  0
  -30.8146  -16.5526   21.8991 C   0  0  0  0  0  0
  -28.5223  -25.5462   19.3032 C   0  0  1  0  0  0
  -30.6940  -21.9394   18.4728 C   0  0  0  0  0  0
  -28.3668  -22.4827   23.0403 C   0  0  0  0  0  0
  -30.6062  -20.2892   20.2164 N   0  0  0  0  0  0
  -29.5424  -20.5087   22.2741 N   0  0  0  0  0  0
  -30.7702  -18.5569   21.8138 N   0  0  0  0  0  0
  -30.1763  -15.3109   21.4580 N   0  0  0  0  0  0
  -31.4601  -12.3995   19.0988 H   0  0  0  0  0  0
  -30.3171  -11.2823   19.7840 H   0  0  0  0  0  0
  -29.7215  -11.8044   17.4050 H   0  0  0  0  0  0
  -29.6565  -13.5096   17.7743 H   0  0  0  0  0  0
  -27.8170  -11.3182   18.7975 H   0  0  0  0  0  0
  -27.3569  -12.6614   17.7857 H   0  0  0  0  0  0
  -27.7161  -14.2564   19.5948 H   0  0  0  0  0  0
  -28.6719  -11.9223   21.3186 H   0  0  0  0  0  0
  -28.4544  -13.5464   21.8812 H   0  0  0  0  0  0
  -25.2756   -9.5691   22.4743 H   0  0  0  0  0  0
  -24.0002   -7.4637   22.7468 H   0  0  0  0  0  0
  -21.0829   -8.8764   19.8953 H   0  0  0  0  0  0
  -22.3675  -10.9668   19.6157 H   0  0  0  0  0  0
  -21.2006   -7.6147   23.9716 H   0  0  0  0  0  0
  -21.1482   -6.0521   25.9079 H   0  0  0  0  0  0
  -22.0599   -2.7607   23.2843 H   0  0  0  0  0  0
  -22.4116  -11.9895   22.4780 H   0  0  0  0  0  0
  -21.1127  -13.1272   22.2608 H   0  0  0  0  0  0
  -24.6709  -15.8465   20.5194 H   0  0  0  0  0  0
  -26.2935  -15.6252   20.1014 H   0  0  0  0  0  0
  -26.7107  -32.5539   23.1169 H   0  0  0  0  0  0
  -25.0046  -33.9790   25.0475 H   0  0  0  0  0  0
  -22.6881  -31.3116   21.4179 H   0  0  0  0  0  0
  -23.3744  -35.9655   23.3292 H   0  0  0  0  0  0
  -24.3586  -36.8943   22.2053 H   0  0  0  0  0  0
  -23.7232  -37.6522   23.6653 H   0  0  0  0  0  0
  -26.0431  -31.5983   20.5984 H   0  0  0  0  0  0
  -26.8164  -30.8840   21.9859 H   0  0  0  0  0  0
  -28.0900  -29.0981   21.1700 H   0  0  0  0  0  0
  -26.0194  -25.9913   18.9841 H   0  0  0  0  0  0
  -23.9672  -27.3051   19.0340 H   0  0  0  0  0  0
  -23.7151  -30.6067   19.4086 H   0  0  0  0  0  0
  -22.7290  -29.2522   19.8706 H   0  0  0  0  0  0
  -25.1274  -36.1978   25.0827 H   0  0  0  0  0  0
  -20.9953  -28.3222   24.1442 H   0  0  0  0  0  0
  -20.5669  -26.2263   23.3603 H   0  0  0  0  0  0
  -21.6632  -26.7448   22.1208 H   0  0  0  0  0  0
  -19.6902  -25.6297   21.1232 H   0  0  0  0  0  0
  -19.6679  -27.3205   20.6751 H   0  0  0  0  0  0
  -17.4190  -26.6670   21.4023 H   0  0  0  0  0  0
  -18.0319  -26.0057   22.9016 H   0  0  0  0  0  0
  -19.7926  -30.7250   24.2284 H   0  0  0  0  0  0
  -17.5011  -31.6266   24.5166 H   0  0  0  0  0  0
  -15.5344  -30.2994   23.7644 H   0  0  0  0  0  0
  -15.8657  -28.0834   22.7043 H   0  0  0  0  0  0
  -24.5889  -30.7091   25.7829 H   0  0  0  0  0  0
  -24.8960  -32.2876   26.4968 H   0  0  0  0  0  0
  -25.8094  -30.8854   27.0231 H   0  0  0  0  0  0
  -26.2853  -29.6807   24.1165 H   0  0  0  0  0  0
  -27.4070  -29.7284   25.4579 H   0  0  0  0  0  0
  -27.8689  -30.4365   23.9272 H   0  0  0  0  0  0
  -27.2663  -33.3606   26.2112 H   0  0  0  0  0  0
  -28.3831  -32.6922   25.0302 H   0  0  0  0  0  0
  -28.0749  -31.8427   26.5372 H   0  0  0  0  0  0
  -28.2582  -38.0127   24.7544 H   0  0  0  0  0  0
  -28.1100  -36.2661   24.6220 H   0  0  0  0  0  0
  -27.2314  -37.1388   25.8861 H   0  0  0  0  0  0
  -20.9283  -29.8750   21.6963 H   0  0  0  0  0  0
  -26.0173  -38.2877   24.1440 H   0  0  0  0  0  0
  -30.2167  -24.4475   18.5681 H   0  0  0  0  0  0
  -30.6510  -25.4885   19.9559 H   0  0  0  0  0  0
  -27.0664  -24.4456   20.6063 H   0  0  0  0  0  0
  -27.5456  -23.5931   19.0958 H   0  0  0  0  0  0
  -29.8132  -17.6942   23.5340 H   0  0  0  0  0  0
  -28.8593  -17.6170   21.9875 H   0  0  0  0  0  0
  -30.4122  -17.5575   19.9533 H   0  0  0  0  0  0
  -32.1551  -17.6130   20.4669 H   0  0  0  0  0  0
  -29.2847  -24.3747   21.4718 H   0  0  0  0  0  0
  -31.6717  -16.3848   22.5579 H   0  0  0  0  0  0
  -28.3009  -25.7182   18.2479 H   0  0  0  0  0  0
  -31.5162  -22.6528   18.5098 H   0  0  0  0  0  0
  -29.8574  -22.3630   17.9175 H   0  0  0  0  0  0
  -31.0439  -21.0749   17.9080 H   0  0  0  0  0  0
  -28.9605  -23.2517   23.5340 H   0  0  0  0  0  0
  -28.0188  -21.7882   23.8054 H   0  0  0  0  0  0
  -27.4867  -22.9520   22.6011 H   0  0  0  0  0  0
  -29.2870  -15.0665   21.8673 H   0  0  0  0  0  0
  1 25  1  0  0  0
  1 30  2  0  0  0
  1 87  1  0  0  0
  2  3  1  0  0  0
  2 25  1  0  0  0
  2 88  1  0  0  0
  2 89  1  0  0  0
  3  4  1  0  0  0
  3 90  1  0  0  0
  3 91  1  0  0  0
  4  5  1  0  0  0
  4 92  1  0  0  0
  4 93  1  0  0  0
  5  6  1  0  0  0
  5 26  1  0  0  0
  5 94  1  0  0  0
  6 25  1  0  0  0
  6 95  1  0  0  0
  6 96  1  0  0  0
  7  8  2  0  0  0
  7 26  1  0  0  0
  7 29  1  0  0  0
  8  9  1  0  0  0
  8 22  1  0  0  0
  9 10  1  0  0  0
  9 27  2  0  0  0
 10 11  2  0  0  0
 10 15  1  0  0  0
 11 12  1  0  0  0
 11 97  1  0  0  0
 12 13  2  0  0  0
 12 98  1  0  0  0
 13 14  1  0  0  0
 13 31  1  0  0  0
 14 15  2  0  0  0
 14 99  1  0  0  0
 15100  1  0  0  0
 16 17  2  0  0  0
 16 21  1  0  0  0
 16 31  1  0  0  0
 17 18  1  0  0  0
 17101  1  0  0  0
 18 19  2  0  0  0
 18102  1  0  0  0
 19 20  1  0  0  0
 19 24  1  0  0  0
 20 21  2  0  0  0
 20103  1  0  0  0
 21 23  1  0  0  0
 22 28  1  0  0  0
 22 32  2  0  0  0
 26 27  1  0  0  0
 28104  1  0  0  0
 28105  1  0  0  0
 29106  1  0  0  0
 29107  1  0  0  0
 33 34  1  0  0  0
 33 66  1  0  0  0
 33 70  2  0  0  0
 34 36  1  0  0  0
 34 59  1  0  0  0
 34108  1  0  0  0
 35 44  2  0  0  0
 35 45  1  0  0  0
 35 68  1  0  0  0
 36 56  1  0  0  0
 36109  1  0  0  0
 37 39  1  0  0  0
 37 47  1  0  0  0
 37 66  1  0  0  0
 37110  1  0  0  0
 38 43  2  0  0  0
 38 46  1  0  0  0
 38 47  1  0  0  0
 39 64  1  0  0  0
 39 67  2  0  0  0
 40 52  1  0  0  0
 40 53  2  0  0  0
 40 58  1  0  0  0
 41111  1  0  0  0
 41112  1  0  0  0
 41113  1  0  0  0
 41 48  1  0  0  0
 42 43  1  0  0  0
 42 66  1  0  0  0
 42114  1  0  0  0
 42115  1  0  0  0
 43 44  1  0  0  0
 44116  1  0  0  0
 45 46  2  0  0  0
 45117  1  0  0  0
 46118  1  0  0  0
 47119  1  0  0  0
 47120  1  0  0  0
 48 56  1  0  0  0
 48 65  1  0  0  0
 48121  1  0  0  0
 49 50  1  0  0  0
 49 53  1  0  0  0
 49 64  1  0  0  0
 49122  1  0  0  0
 50 51  1  0  0  0
 50123  1  0  0  0
 50124  1  0  0  0
 51 52  1  0  0  0
 51125  1  0  0  0
 51126  1  0  0  0
 52127  1  0  0  0
 52128  1  0  0  0
 53 54  1  0  0  0
 54 55  2  0  0  0
 54129  1  0  0  0
 55 57  1  0  0  0
 55130  1  0  0  0
 56 69  2  0  0  0
 57 58  2  0  0  0
 57131  1  0  0  0
 58132  1  0  0  0
 59 60  1  0  0  0
 59 61  1  0  0  0
 59 62  1  0  0  0
 60133  1  0  0  0
 60134  1  0  0  0
 60135  1  0  0  0
 61136  1  0  0  0
 61137  1  0  0  0
 61138  1  0  0  0
 62139  1  0  0  0
 62140  1  0  0  0
 62141  1  0  0  0
 63 65  1  0  0  0
 63142  1  0  0  0
 63143  1  0  0  0
 63144  1  0  0  0
 64145  1  0  0  0
 65146  1  0  0  0
 68 81  1  0  0  0
 71 72  2  0  0  0
 71 73  1  0  0  0
 71 79  1  0  0  0
 72 82  1  0  0  0
 72 84  1  0  0  0
 73 83  1  0  0  0
 73 85  2  0  0  0
 74 84  2  0  0  0
 74 85  1  0  0  0
 74 86  1  0  0  0
 75 79  1  0  0  0
 75 81  1  0  0  0
 75147  1  0  0  0
 75148  1  0  0  0
 76 79  1  0  0  0
 76 81  1  0  0  0
 76149  1  0  0  0
 76150  1  0  0  0
 77 80  1  0  0  0
 77 86  1  0  0  0
 77151  1  0  0  0
 77152  1  0  0  0
 78 80  1  0  0  0
 78 86  1  0  0  0
 78153  1  0  0  0
 78154  1  0  0  0
 79155  1  0  0  0
 80 87  1  0  0  0
 80156  1  0  0  0
 81157  1  0  0  0
 82158  1  0  0  0
 82159  1  0  0  0
 82160  1  0  0  0
 83161  1  0  0  0
 83162  1  0  0  0
 83163  1  0  0  0
 87164  1  0  0  0
M  ISO  4   1 100  68 101  81 101  87 100
M  END
> <chiral flag>
0

> <version>
0

> <s_m_source_file>
/data/baiqing/PycharmProjects/Reinvent-master-3.2/result/LINK_invent/BTK/process_docking_weight1_custom_sum_contain_oxygen_bond_distance_aromatic_linkinvent_7_9_3/rearranged_h_0191.sdf

> <i_m_source_file_index>
14

> <r_mmod_Potential_Energy-OPLS-2005>
-516.295593261719

> <r_mmod_Stretch_Energy-OPLS-2005>
34.7769737243652

> <r_mmod_Bend_Energy-OPLS-2005>
160.826904296875

> <r_mmod_Torsional_Energy-OPLS-2005>
245.265701293945

> <r_mmod_Improper_Torsional_Energy-OPLS-2005>
9.74068069458008

> <r_mmod_Van_der_Waal_Energy-OPLS-2005>
174.843185424805

> <r_mmod_Electrostatic_Energy-OPLS-2005>
-891.006652832031

> <r_mmod_Solvation_Energy-OPLS-2005>
-260.016845703125

> <b_mmod_Minimization_Converged-OPLS-2005>
0

> <r_mmod_RMS_Derivative-OPLS-2005>
0.730113625526428

$$$$
14
                    3D
 Structure written by MMmdl.
165174  0  0  1  0            999 V2000
  -30.7691  -14.4929   20.4674 C   0  0  0  0  0  0
  -30.4152  -12.2956   19.4343 C   0  0  0  0  0  0
  -29.4914  -12.4201   18.2109 C   0  0  0  0  0  0
  -28.0170  -12.3091   18.6413 C   0  0  0  0  0  0
  -27.6518  -13.2144   19.8490 C   0  0  2  0  0  0
  -28.7083  -13.1156   20.9773 C   0  0  0  0  0  0
  -25.2551  -13.8181   20.5681 C   0  0  0  0  0  0
  -24.1819  -13.0447   20.9209 C   0  0  0  0  0  0
  -24.6396  -11.6925   20.8758 C   0  0  0  0  0  0
  -23.9060  -10.4293   21.0359 C   0  0  0  0  0  0
  -24.3609   -9.4213   21.9153 C   0  0  0  0  0  0
  -23.6269   -8.2252   22.0740 C   0  0  0  0  0  0
  -22.4258   -8.0286   21.3524 C   0  0  0  0  0  0
  -21.9874   -9.0251   20.4624 C   0  0  0  0  0  0
  -22.7208  -10.2131   20.3017 C   0  0  0  0  0  0
  -21.6848   -6.0743   22.5272 C   0  0  0  0  0  0
  -21.4014   -6.5641   23.8212 C   0  0  0  0  0  0
  -21.3652   -5.6789   24.9170 C   0  0  0  0  0  0
  -21.6020   -4.3052   24.7215 C   0  0  0  0  0  0
  -21.8818   -3.8135   23.4345 C   0  0  0  0  0  0
  -21.9182   -4.6959   22.3394 C   0  0  0  0  0  0
  -22.7843  -13.5248   21.1880 C   0  0  0  0  0  0
  -22.1660   -4.2155   21.0972 F   0  0  0  0  0  0
  -21.5605   -3.4529   25.7720 F   0  0  0  0  0  0
  -30.0342  -13.3508   20.3855 N   0  0  0  0  0  0
  -26.2992  -12.9380   20.3309 N   0  0  0  0  0  0
  -25.9331  -11.6552   20.5796 N   0  0  0  0  0  0
  -22.0461  -12.8253   22.0405 N   0  0  0  0  0  0
  -25.4213  -15.1907   20.4119 N   0  0  0  0  0  0
  -31.9660  -14.5305   20.1693 O   0  0  0  0  0  0
  -21.6629   -6.8887   21.4240 O   0  0  0  0  0  0
  -22.3554  -14.5570   20.6760 O   0  0  0  0  0  0
  -24.6061  -31.8689   23.2091 C   0  0  0  0  0  0
  -25.8990  -32.4828   23.8369 C   0  0  1  0  0  0
  -27.2539  -27.4842   20.0945 C   0  0  0  0  0  0
  -25.5864  -33.8608   24.2314 N   0  0  0  0  0  0
  -23.3889  -30.4947   21.5474 C   0  0  2  0  0  0
  -24.8350  -28.9568   20.1167 C   0  0  0  0  0  0
  -22.7348  -29.4665   22.4981 C   0  0  0  0  0  0
  -18.0286  -28.1356   22.8517 C   0  0  0  0  0  0
  -24.1492  -36.7328   23.2641 C   0  0  0  0  0  0
  -25.9064  -30.8578   21.3432 C   0  0  0  0  0  0
  -25.9876  -29.4915   20.6998 C   0  0  0  0  0  0
  -27.1970  -28.7727   20.6777 C   0  0  0  0  0  0
  -26.0814  -26.9572   19.5107 C   0  0  0  0  0  0
  -24.8754  -27.6861   19.5148 C   0  0  0  0  0  0
  -23.5923  -29.8147   20.1654 C   0  0  0  0  0  0
  -25.4110  -36.3105   24.0339 C   0  0  1  0  0  0
  -20.5865  -28.3638   23.1331 C   0  0  2  0  0  0
  -20.6739  -26.9367   22.5422 C   0  0  0  0  0  0
  -19.5724  -26.6366   21.5214 C   0  0  0  0  0  0
  -18.1919  -26.7914   22.1637 C   0  0  0  0  0  0
  -19.1527  -28.8812   23.2942 C   0  0  0  0  0  0
  -18.9435  -30.1417   23.8968 C   0  0  0  0  0  0
  -17.6433  -30.6570   24.0559 C   0  0  0  0  0  0
  -25.9018  -34.9467   23.5124 C   0  0  0  0  0  0
  -16.5333  -29.9073   23.6305 C   0  0  0  0  0  0
  -16.7276  -28.6470   23.0374 C   0  0  0  0  0  0
  -26.4450  -31.6604   25.0675 C   0  0  0  0  0  0
  -25.3763  -31.3683   26.1464 C   0  0  0  0  0  0
  -27.0230  -30.3058   24.5961 C   0  0  0  0  0  0
  -27.6027  -32.4309   25.7468 C   0  0  0  0  0  0
  -27.5591  -37.1821   24.8472 C   0  0  0  0  0  0
  -21.4074  -29.3017   22.3729 N   0  0  0  0  0  0
  -26.4311  -37.3778   23.9405 N   0  0  0  0  0  0
  -24.6522  -31.0871   22.0945 N   0  0  0  0  0  0
  -23.4171  -28.8199   23.2976 O   0  0  0  0  0  0
  -28.3892  -26.6966   20.0509 O   0  0  0  0  0  0
  -26.5570  -34.8918   22.4681 O   0  0  0  0  0  0
  -23.5253  -32.1379   23.7566 O   0  0  0  0  0  0
  -29.4425  -21.2421   20.1645 C   0  0  0  0  0  0
  -30.0531  -20.1455   20.8352 C   0  0  0  0  0  0
  -31.1325  -22.5936   20.8724 C   0  0  0  0  0  0
  -28.3488  -17.0273   19.4800 C   0  0  0  0  0  0
  -28.5594  -18.5258   19.7391 C   0  0  0  0  0  0
  -29.6559  -16.2411   19.3082 C   0  0  0  0  0  0
  -29.8266  -17.8564   21.8563 C   0  0  0  0  0  0
  -30.7654  -16.7172   21.3937 C   0  0  0  0  0  0
  -31.8051  -23.9665   20.8728 C   0  0  0  0  0  0
  -30.2312  -25.8392   21.3938 C   0  0  0  0  0  0
  -29.5225  -27.0818   20.8365 C   0  0  0  0  0  0
  -29.9941  -22.4760   20.1774 N   0  0  0  0  0  0
  -31.2008  -20.3730   21.5307 N   0  0  0  0  0  0
  -31.7434  -21.6039   21.5488 N   0  0  0  0  0  0
  -29.5458  -18.8238   20.7825 N   0  0  0  0  0  0
  -30.1000  -15.6633   20.5935 N   0  0  0  0  0  0
  -30.9147  -25.0273   20.3531 N   0  3  0  0  0  0
  -31.4565  -12.3611   19.1110 H   0  0  0  0  0  0
  -30.3090  -11.3145   19.9032 H   0  0  0  0  0  0
  -29.7284  -11.6233   17.5008 H   0  0  0  0  0  0
  -29.6700  -13.3574   17.6833 H   0  0  0  0  0  0
  -27.8479  -11.2660   18.9141 H   0  0  0  0  0  0
  -27.3562  -12.5143   17.7974 H   0  0  0  0  0  0
  -27.6589  -14.2366   19.4737 H   0  0  0  0  0  0
  -28.6810  -12.1359   21.4522 H   0  0  0  0  0  0
  -28.5015  -13.8443   21.7658 H   0  0  0  0  0  0
  -25.2756   -9.5712   22.4755 H   0  0  0  0  0  0
  -23.9965   -7.4650   22.7501 H   0  0  0  0  0  0
  -21.0782   -8.8776   19.8958 H   0  0  0  0  0  0
  -22.3635  -10.9687   19.6146 H   0  0  0  0  0  0
  -21.2048   -7.6156   23.9724 H   0  0  0  0  0  0
  -21.1456   -6.0520   25.9079 H   0  0  0  0  0  0
  -22.0603   -2.7605   23.2837 H   0  0  0  0  0  0
  -22.4019  -11.9937   22.4907 H   0  0  0  0  0  0
  -21.1067  -13.1322   22.2543 H   0  0  0  0  0  0
  -24.6584  -15.8502   20.5301 H   0  0  0  0  0  0
  -26.2830  -15.6248   20.1084 H   0  0  0  0  0  0
  -26.7072  -32.5573   23.1153 H   0  0  0  0  0  0
  -25.0082  -33.9783   25.0502 H   0  0  0  0  0  0
  -22.6743  -31.3102   21.4072 H   0  0  0  0  0  0
  -23.3726  -35.9695   23.3310 H   0  0  0  0  0  0
  -24.3600  -36.8913   22.2057 H   0  0  0  0  0  0
  -23.7278  -37.6558   23.6626 H   0  0  0  0  0  0
  -25.9985  -31.6165   20.5649 H   0  0  0  0  0  0
  -26.8003  -30.9232   21.9506 H   0  0  0  0  0  0
  -28.0665  -29.2441   21.1093 H   0  0  0  0  0  0
  -26.1050  -25.9771   19.0540 H   0  0  0  0  0  0
  -23.9896  -27.2656   19.0591 H   0  0  0  0  0  0
  -23.6905  -30.5789   19.3920 H   0  0  0  0  0  0
  -22.7193  -29.2250   19.8804 H   0  0  0  0  0  0
  -25.1288  -36.1964   25.0829 H   0  0  0  0  0  0
  -21.0024  -28.3194   24.1426 H   0  0  0  0  0  0
  -20.5573  -26.2247   23.3608 H   0  0  0  0  0  0
  -21.6615  -26.7352   22.1250 H   0  0  0  0  0  0
  -19.6830  -25.6274   21.1244 H   0  0  0  0  0  0
  -19.6660  -27.3173   20.6743 H   0  0  0  0  0  0
  -17.4167  -26.6703   21.4051 H   0  0  0  0  0  0
  -18.0300  -26.0047   22.9010 H   0  0  0  0  0  0
  -19.7903  -30.7220   24.2376 H   0  0  0  0  0  0
  -17.4984  -31.6277   24.5114 H   0  0  0  0  0  0
  -15.5334  -30.2983   23.7577 H   0  0  0  0  0  0
  -15.8688  -28.0788   22.7084 H   0  0  0  0  0  0
  -24.5943  -30.7016   25.7823 H   0  0  0  0  0  0
  -24.8979  -32.2831   26.4964 H   0  0  0  0  0  0
  -25.8189  -30.8839   27.0180 H   0  0  0  0  0  0
  -26.2694  -29.6897   24.1042 H   0  0  0  0  0  0
  -27.4042  -29.7219   25.4350 H   0  0  0  0  0  0
  -27.8515  -30.4411   23.9010 H   0  0  0  0  0  0
  -27.2637  -33.3576   26.2124 H   0  0  0  0  0  0
  -28.3838  -32.6932   25.0319 H   0  0  0  0  0  0
  -28.0700  -31.8389   26.5357 H   0  0  0  0  0  0
  -28.2613  -38.0107   24.7477 H   0  0  0  0  0  0
  -28.1066  -36.2630   24.6325 H   0  0  0  0  0  0
  -27.2306  -37.1523   25.8875 H   0  0  0  0  0  0
  -20.9167  -29.8820   21.7065 H   0  0  0  0  0  0
  -26.0180  -38.2849   24.1383 H   0  0  0  0  0  0
  -28.5138  -21.1522   19.6180 H   0  0  0  0  0  0
  -27.7575  -16.9193   18.5695 H   0  0  0  0  0  0
  -27.7489  -16.5912   20.2779 H   0  0  0  0  0  0
  -27.6022  -18.9867   19.9931 H   0  0  0  0  0  0
  -28.8877  -18.9800   18.8005 H   0  0  0  0  0  0
  -30.4292  -16.8795   18.8757 H   0  0  0  0  0  0
  -29.4979  -15.4706   18.5527 H   0  0  0  0  0  0
  -30.2888  -18.3611   22.7061 H   0  0  0  0  0  0
  -28.8907  -17.4551   22.2445 H   0  0  0  0  0  0
  -31.6180  -17.1310   20.8512 H   0  0  0  0  0  0
  -31.1926  -16.2593   22.2883 H   0  0  0  0  0  0
  -32.6729  -23.9127   20.2155 H   0  0  0  0  0  0
  -32.1786  -24.2175   21.8660 H   0  0  0  0  0  0
  -29.5149  -25.2284   21.9393 H   0  0  0  0  0  0
  -30.9675  -26.1798   22.1211 H   0  0  0  0  0  0
  -30.1966  -27.7048   20.2498 H   0  0  0  0  0  0
  -29.2345  -27.6562   21.7151 H   0  0  0  0  0  0
  -30.2391  -24.5269   19.7889 H   0  0  0  0  0  0
  -31.4692  -25.6174   19.7565 H   0  0  0  0  0  0
  1 25  1  0  0  0
  1 30  2  0  0  0
  1 86  1  0  0  0
  2  3  1  0  0  0
  2 25  1  0  0  0
  2 88  1  0  0  0
  2 89  1  0  0  0
  3  4  1  0  0  0
  3 90  1  0  0  0
  3 91  1  0  0  0
  4  5  1  0  0  0
  4 92  1  0  0  0
  4 93  1  0  0  0
  5  6  1  0  0  0
  5 26  1  0  0  0
  5 94  1  0  0  0
  6 25  1  0  0  0
  6 95  1  0  0  0
  6 96  1  0  0  0
  7  8  2  0  0  0
  7 26  1  0  0  0
  7 29  1  0  0  0
  8  9  1  0  0  0
  8 22  1  0  0  0
  9 10  1  0  0  0
  9 27  2  0  0  0
 10 11  2  0  0  0
 10 15  1  0  0  0
 11 12  1  0  0  0
 11 97  1  0  0  0
 12 13  2  0  0  0
 12 98  1  0  0  0
 13 14  1  0  0  0
 13 31  1  0  0  0
 14 15  2  0  0  0
 14 99  1  0  0  0
 15100  1  0  0  0
 16 17  2  0  0  0
 16 21  1  0  0  0
 16 31  1  0  0  0
 17 18  1  0  0  0
 17101  1  0  0  0
 18 19  2  0  0  0
 18102  1  0  0  0
 19 20  1  0  0  0
 19 24  1  0  0  0
 20 21  2  0  0  0
 20103  1  0  0  0
 21 23  1  0  0  0
 22 28  1  0  0  0
 22 32  2  0  0  0
 26 27  1  0  0  0
 28104  1  0  0  0
 28105  1  0  0  0
 29106  1  0  0  0
 29107  1  0  0  0
 33 34  1  0  0  0
 33 66  1  0  0  0
 33 70  2  0  0  0
 34 36  1  0  0  0
 34 59  1  0  0  0
 34108  1  0  0  0
 35 44  2  0  0  0
 35 45  1  0  0  0
 35 68  1  0  0  0
 36 56  1  0  0  0
 36109  1  0  0  0
 37 39  1  0  0  0
 37 47  1  0  0  0
 37 66  1  0  0  0
 37110  1  0  0  0
 38 43  2  0  0  0
 38 46  1  0  0  0
 38 47  1  0  0  0
 39 64  1  0  0  0
 39 67  2  0  0  0
 40 52  1  0  0  0
 40 53  2  0  0  0
 40 58  1  0  0  0
 41111  1  0  0  0
 41112  1  0  0  0
 41113  1  0  0  0
 41 48  1  0  0  0
 42 43  1  0  0  0
 42 66  1  0  0  0
 42114  1  0  0  0
 42115  1  0  0  0
 43 44  1  0  0  0
 44116  1  0  0  0
 45 46  2  0  0  0
 45117  1  0  0  0
 46118  1  0  0  0
 47119  1  0  0  0
 47120  1  0  0  0
 48 56  1  0  0  0
 48 65  1  0  0  0
 48121  1  0  0  0
 49 50  1  0  0  0
 49 53  1  0  0  0
 49 64  1  0  0  0
 49122  1  0  0  0
 50 51  1  0  0  0
 50123  1  0  0  0
 50124  1  0  0  0
 51 52  1  0  0  0
 51125  1  0  0  0
 51126  1  0  0  0
 52127  1  0  0  0
 52128  1  0  0  0
 53 54  1  0  0  0
 54 55  2  0  0  0
 54129  1  0  0  0
 55 57  1  0  0  0
 55130  1  0  0  0
 56 69  2  0  0  0
 57 58  2  0  0  0
 57131  1  0  0  0
 58132  1  0  0  0
 59 60  1  0  0  0
 59 61  1  0  0  0
 59 62  1  0  0  0
 60133  1  0  0  0
 60134  1  0  0  0
 60135  1  0  0  0
 61136  1  0  0  0
 61137  1  0  0  0
 61138  1  0  0  0
 62139  1  0  0  0
 62140  1  0  0  0
 62141  1  0  0  0
 63 65  1  0  0  0
 63142  1  0  0  0
 63143  1  0  0  0
 63144  1  0  0  0
 64145  1  0  0  0
 65146  1  0  0  0
 68 81  1  0  0  0
 71 72  2  0  0  0
 71 82  1  0  0  0
 71147  1  0  0  0
 72 83  1  0  0  0
 72 85  1  0  0  0
 73 79  1  0  0  0
 73 82  2  0  0  0
 73 84  1  0  0  0
 74 75  1  0  0  0
 74 76  1  0  0  0
 74148  1  0  0  0
 74149  1  0  0  0
 75 85  1  0  0  0
 75150  1  0  0  0
 75151  1  0  0  0
 76 86  1  0  0  0
 76152  1  0  0  0
 76153  1  0  0  0
 77 78  1  0  0  0
 77 85  1  0  0  0
 77154  1  0  0  0
 77155  1  0  0  0
 78 86  1  0  0  0
 78156  1  0  0  0
 78157  1  0  0  0
 79 87  1  0  0  0
 79158  1  0  0  0
 79159  1  0  0  0
 80 81  1  0  0  0
 80 87  1  0  0  0
 80160  1  0  0  0
 80161  1  0  0  0
 81162  1  0  0  0
 81163  1  0  0  0
 83 84  2  0  0  0
 87164  1  0  0  0
 87165  1  0  0  0
M  CHG  1  87   1
M  ISO  4   1 100  68 101  81 101  86 100
M  END
> <chiral flag>
0

> <version>
0

> <s_m_source_file>
/data/baiqing/PycharmProjects/Reinvent-master-3.2/result/LINK_invent/BTK/process_docking_weight1_custom_sum_contain_oxygen_bond_distance_aromatic_linkinvent_7_9_3/rearranged_h_0191.sdf

> <i_m_source_file_index>
15

> <r_mmod_Potential_Energy-OPLS-2005>
-51.06884765625

> <r_mmod_Stretch_Energy-OPLS-2005>
42.8387985229492

> <r_mmod_Bend_Energy-OPLS-2005>
135.476287841797

> <r_mmod_Torsional_Energy-OPLS-2005>
343.517028808594

> <r_mmod_Improper_Torsional_Energy-OPLS-2005>
12.2458295822144

> <r_mmod_Van_der_Waal_Energy-OPLS-2005>
184.838394165039

> <r_mmod_Electrostatic_Energy-OPLS-2005>
-314.737945556641

> <r_mmod_Solvation_Energy-OPLS-2005>
-481.305511474609

> <b_mmod_Minimization_Converged-OPLS-2005>
0

> <r_mmod_RMS_Derivative-OPLS-2005>
5.09720182418823

$$$$
15
                    3D
 Structure written by MMmdl.
157166  0  0  1  0            999 V2000
  -30.4449  -15.3856   20.3710 C   0  0  0  0  0  0
  -30.4237  -12.9114   19.5093 C   0  0  0  0  0  0
  -29.5295  -12.5944   18.2855 C   0  0  0  0  0  0
  -28.0917  -12.2882   18.7312 C   0  0  0  0  0  0
  -27.6001  -13.2865   19.8072 C   0  0  2  0  0  0
  -28.6335  -13.5484   20.9248 C   0  0  0  0  0  0
  -25.2367  -13.8265   20.5776 C   0  0  0  0  0  0
  -24.1728  -13.0438   20.9264 C   0  0  0  0  0  0
  -24.6397  -11.6933   20.8762 C   0  0  0  0  0  0
  -23.9091  -10.4293   21.0400 C   0  0  0  0  0  0
  -24.3637   -9.4206   21.9177 C   0  0  0  0  0  0
  -23.6304   -8.2248   22.0752 C   0  0  0  0  0  0
  -22.4283   -8.0292   21.3547 C   0  0  0  0  0  0
  -21.9924   -9.0258   20.4647 C   0  0  0  0  0  0
  -22.7256  -10.2133   20.3053 C   0  0  0  0  0  0
  -21.6867   -6.0741   22.5279 C   0  0  0  0  0  0
  -21.4020   -6.5639   23.8210 C   0  0  0  0  0  0
  -21.3662   -5.6794   24.9171 C   0  0  0  0  0  0
  -21.6046   -4.3056   24.7226 C   0  0  0  0  0  0
  -21.8818   -3.8146   23.4345 C   0  0  0  0  0  0
  -21.9194   -4.6966   22.3401 C   0  0  0  0  0  0
  -22.7747  -13.5187   21.1902 C   0  0  0  0  0  0
  -22.1657   -4.2150   21.0981 F   0  0  0  0  0  0
  -21.5633   -3.4538   25.7737 F   0  0  0  0  0  0
  -29.8326  -14.0919   20.2593 N   0  0  0  0  0  0
  -26.2785  -12.9550   20.3210 N   0  0  0  0  0  0
  -25.9338  -11.6643   20.5708 N   0  0  0  0  0  0
  -22.0416  -12.8171   22.0467 N   0  0  0  0  0  0
  -25.4026  -15.2004   20.4249 N   0  0  0  0  0  0
  -31.6786  -15.2678   20.2690 O   0  0  0  0  0  0
  -21.6651   -6.8885   21.4240 O   0  0  0  0  0  0
  -22.3418  -14.5476   20.6725 O   0  0  0  0  0  0
  -24.6702  -31.8162   23.1640 C   0  0  0  0  0  0
  -25.9350  -32.4553   23.8130 C   0  0  1  0  0  0
  -27.2178  -26.8526   20.2013 C   0  0  0  0  0  0
  -25.5994  -33.8376   24.2037 N   0  0  0  0  0  0
  -23.4873  -30.4252   21.5140 C   0  0  2  0  0  0
  -24.9404  -28.7936   20.1173 C   0  0  0  0  0  0
  -22.7690  -29.4405   22.4750 C   0  0  0  0  0  0
  -18.0325  -28.1406   22.8462 C   0  0  0  0  0  0
  -24.1493  -36.7185   23.2651 C   0  0  0  0  0  0
  -26.0613  -30.5977   21.4048 C   0  0  0  0  0  0
  -26.1270  -29.1793   20.7529 C   0  0  0  0  0  0
  -27.2590  -28.2345   20.7615 C   0  0  0  0  0  0
  -25.9971  -26.6335   19.5205 C   0  0  0  0  0  0
  -24.9044  -27.5421   19.4807 C   0  0  0  0  0  0
  -23.7322  -29.7336   20.1440 C   0  0  0  0  0  0
  -25.4138  -36.2943   24.0296 C   0  0  1  0  0  0
  -20.5953  -28.3763   23.1168 C   0  0  2  0  0  0
  -20.6798  -26.9441   22.5393 C   0  0  0  0  0  0
  -19.5768  -26.6371   21.5210 C   0  0  0  0  0  0
  -18.1952  -26.7940   22.1624 C   0  0  0  0  0  0
  -19.1589  -28.8908   23.2800 C   0  0  0  0  0  0
  -18.9500  -30.1493   23.8844 C   0  0  0  0  0  0
  -17.6495  -30.6601   24.0553 C   0  0  0  0  0  0
  -25.9108  -34.9329   23.4987 C   0  0  0  0  0  0
  -16.5382  -29.9083   23.6353 C   0  0  0  0  0  0
  -16.7305  -28.6500   23.0371 C   0  0  0  0  0  0
  -26.4573  -31.6533   25.0694 C   0  0  0  0  0  0
  -25.3684  -31.3810   26.1341 C   0  0  0  0  0  0
  -27.0495  -30.2891   24.6502 C   0  0  0  0  0  0
  -27.6038  -32.4375   25.7507 C   0  0  0  0  0  0
  -27.5566  -37.1749   24.8469 C   0  0  0  0  0  0
  -21.4350  -29.3041   22.3507 N   0  0  0  0  0  0
  -26.4275  -37.3683   23.9406 N   0  0  0  0  0  0
  -24.7616  -30.9749   22.0818 N   0  0  0  0  0  0
  -23.4209  -28.7982   23.3024 O   0  0  0  0  0  0
  -28.2286  -25.7294   20.2476 O   0  0  0  0  0  0
  -26.5718  -34.8878   22.4584 O   0  0  0  0  0  0
  -23.5755  -32.1171   23.6680 O   0  0  0  0  0  0
  -27.5150  -23.2050   19.1305 C   0  0  0  0  0  0
  -29.7191  -19.0692   18.8432 C   0  0  0  0  0  0
  -29.2253  -18.0816   20.8612 C   0  0  0  0  0  0
  -27.6302  -21.5953   19.3337 C   0  0  0  0  0  0
  -29.1537  -22.7125   20.6576 C   0  0  0  0  0  0
  -29.4891  -19.7062   20.2313 C   0  0  2  0  0  0
  -28.0606  -24.0439   20.3357 C   0  0  1  0  0  0
  -30.3842  -17.6097   18.9859 C   0  0  2  0  0  0
  -30.3827  -16.8825   17.6271 C   0  0  0  0  0  0
  -29.8289  -16.7539   20.0974 N   0  0  0  0  0  0
  -28.6420  -21.1908   20.3728 N   0  3  2  0  0  0
  -31.4330  -13.1243   19.1544 H   0  0  0  0  0  0
  -30.5237  -12.0396   20.1568 H   0  0  0  0  0  0
  -29.9367  -11.7540   17.7212 H   0  0  0  0  0  0
  -29.5275  -13.4490   17.6073 H   0  0  0  0  0  0
  -28.0841  -11.2774   19.1391 H   0  0  0  0  0  0
  -27.4171  -12.2782   17.8752 H   0  0  0  0  0  0
  -27.4841  -14.2274   19.2669 H   0  0  0  0  0  0
  -28.8460  -12.6483   21.5040 H   0  0  0  0  0  0
  -28.2449  -14.2883   21.6266 H   0  0  0  0  0  0
  -25.2783   -9.5682   22.4748 H   0  0  0  0  0  0
  -24.0023   -7.4640   22.7466 H   0  0  0  0  0  0
  -21.0860   -8.8761   19.8951 H   0  0  0  0  0  0
  -22.3703  -10.9666   19.6165 H   0  0  0  0  0  0
  -21.2008   -7.6146   23.9711 H   0  0  0  0  0  0
  -21.1489   -6.0527   25.9077 H   0  0  0  0  0  0
  -22.0594   -2.7608   23.2842 H   0  0  0  0  0  0
  -22.4052  -11.9852   22.4872 H   0  0  0  0  0  0
  -21.1019  -13.1157   22.2648 H   0  0  0  0  0  0
  -24.6385  -15.8554   20.5476 H   0  0  0  0  0  0
  -26.2599  -15.6428   20.1174 H   0  0  0  0  0  0
  -26.7414  -32.5063   23.0830 H   0  0  0  0  0  0
  -25.0100  -33.9448   25.0160 H   0  0  0  0  0  0
  -22.8045  -31.2585   21.3357 H   0  0  0  0  0  0
  -23.3770  -35.9501   23.3282 H   0  0  0  0  0  0
  -24.3558  -36.8867   22.2071 H   0  0  0  0  0  0
  -23.7243  -37.6359   23.6736 H   0  0  0  0  0  0
  -26.2514  -31.3336   20.6229 H   0  0  0  0  0  0
  -26.9157  -30.6550   22.0667 H   0  0  0  0  0  0
  -28.1600  -28.5352   21.2761 H   0  0  0  0  0  0
  -25.8573  -25.6845   19.0260 H   0  0  0  0  0  0
  -24.0039  -27.2398   18.9633 H   0  0  0  0  0  0
  -23.9000  -30.4993   19.3850 H   0  0  0  0  0  0
  -22.8400  -29.1948   19.8223 H   0  0  0  0  0  0
  -25.1338  -36.1731   25.0785 H   0  0  0  0  0  0
  -21.0041  -28.3376   24.1289 H   0  0  0  0  0  0
  -20.5669  -26.2393   23.3643 H   0  0  0  0  0  0
  -21.6659  -26.7398   22.1204 H   0  0  0  0  0  0
  -19.6928  -25.6266   21.1280 H   0  0  0  0  0  0
  -19.6709  -27.3142   20.6707 H   0  0  0  0  0  0
  -17.4223  -26.6685   21.4026 H   0  0  0  0  0  0
  -18.0341  -26.0089   22.9027 H   0  0  0  0  0  0
  -19.7974  -30.7314   24.2194 H   0  0  0  0  0  0
  -17.5051  -31.6277   24.5149 H   0  0  0  0  0  0
  -15.5382  -30.2972   23.7700 H   0  0  0  0  0  0
  -15.8703  -28.0794   22.7130 H   0  0  0  0  0  0
  -24.5847  -30.7189   25.7639 H   0  0  0  0  0  0
  -24.8905  -32.3033   26.4657 H   0  0  0  0  0  0
  -25.7889  -30.9030   27.0196 H   0  0  0  0  0  0
  -26.3190  -29.6532   24.1494 H   0  0  0  0  0  0
  -27.3969  -29.7302   25.5200 H   0  0  0  0  0  0
  -27.9148  -30.4042   23.9973 H   0  0  0  0  0  0
  -27.2561  -33.3702   26.1952 H   0  0  0  0  0  0
  -28.3909  -32.6905   25.0393 H   0  0  0  0  0  0
  -28.0647  -31.8620   26.5539 H   0  0  0  0  0  0
  -28.2563  -38.0063   24.7490 H   0  0  0  0  0  0
  -28.1082  -36.2584   24.6319 H   0  0  0  0  0  0
  -27.2281  -37.1405   25.8873 H   0  0  0  0  0  0
  -20.9626  -29.8730   21.6620 H   0  0  0  0  0  0
  -26.0118  -38.2740   24.1410 H   0  0  0  0  0  0
  -26.4889  -23.4801   18.8925 H   0  0  0  0  0  0
  -28.1062  -23.4734   18.2551 H   0  0  0  0  0  0
  -30.3310  -19.7214   18.2189 H   0  0  0  0  0  0
  -28.7590  -18.9655   18.3360 H   0  0  0  0  0  0
  -28.1484  -17.9222   20.9171 H   0  0  0  0  0  0
  -29.5688  -18.0547   21.8967 H   0  0  0  0  0  0
  -27.8638  -21.1309   18.3767 H   0  0  0  0  0  0
  -26.6643  -21.1937   19.6401 H   0  0  0  0  0  0
  -29.5122  -22.7733   21.6856 H   0  0  0  0  0  0
  -30.0368  -22.8616   20.0343 H   0  0  0  0  0  0
  -30.4752  -19.9792   20.6092 H   0  0  0  0  0  0
  -27.3070  -23.9534   21.1187 H   0  0  0  0  0  0
  -31.4300  -17.7808   19.2514 H   0  0  0  0  0  0
  -29.3717  -16.6117   17.3226 H   0  0  0  0  0  0
  -30.9870  -15.9751   17.6423 H   0  0  0  0  0  0
  -30.8002  -17.5231   16.8491 H   0  0  0  0  0  0
  -28.0797  -21.0122   21.1926 H   0  0  0  0  0  0
  1 25  1  0  0  0
  1 30  2  0  0  0
  1 80  1  0  0  0
  2  3  1  0  0  0
  2 25  1  0  0  0
  2 82  1  0  0  0
  2 83  1  0  0  0
  3  4  1  0  0  0
  3 84  1  0  0  0
  3 85  1  0  0  0
  4  5  1  0  0  0
  4 86  1  0  0  0
  4 87  1  0  0  0
  5  6  1  0  0  0
  5 26  1  0  0  0
  5 88  1  0  0  0
  6 25  1  0  0  0
  6 89  1  0  0  0
  6 90  1  0  0  0
  7  8  2  0  0  0
  7 26  1  0  0  0
  7 29  1  0  0  0
  8  9  1  0  0  0
  8 22  1  0  0  0
  9 10  1  0  0  0
  9 27  2  0  0  0
 10 11  2  0  0  0
 10 15  1  0  0  0
 11 12  1  0  0  0
 11 91  1  0  0  0
 12 13  2  0  0  0
 12 92  1  0  0  0
 13 14  1  0  0  0
 13 31  1  0  0  0
 14 15  2  0  0  0
 14 93  1  0  0  0
 15 94  1  0  0  0
 16 17  2  0  0  0
 16 21  1  0  0  0
 16 31  1  0  0  0
 17 18  1  0  0  0
 17 95  1  0  0  0
 18 19  2  0  0  0
 18 96  1  0  0  0
 19 20  1  0  0  0
 19 24  1  0  0  0
 20 21  2  0  0  0
 20 97  1  0  0  0
 21 23  1  0  0  0
 22 28  1  0  0  0
 22 32  2  0  0  0
 26 27  1  0  0  0
 28 98  1  0  0  0
 28 99  1  0  0  0
 29100  1  0  0  0
 29101  1  0  0  0
 33 34  1  0  0  0
 33 66  1  0  0  0
 33 70  2  0  0  0
 34 36  1  0  0  0
 34 59  1  0  0  0
 34102  1  0  0  0
 35 44  2  0  0  0
 35 45  1  0  0  0
 35 68  1  0  0  0
 36 56  1  0  0  0
 36103  1  0  0  0
 37 39  1  0  0  0
 37 47  1  0  0  0
 37 66  1  0  0  0
 37104  1  0  0  0
 38 43  2  0  0  0
 38 46  1  0  0  0
 38 47  1  0  0  0
 39 64  1  0  0  0
 39 67  2  0  0  0
 40 52  1  0  0  0
 40 53  2  0  0  0
 40 58  1  0  0  0
 41105  1  0  0  0
 41106  1  0  0  0
 41107  1  0  0  0
 41 48  1  0  0  0
 42 43  1  0  0  0
 42 66  1  0  0  0
 42108  1  0  0  0
 42109  1  0  0  0
 43 44  1  0  0  0
 44110  1  0  0  0
 45 46  2  0  0  0
 45111  1  0  0  0
 46112  1  0  0  0
 47113  1  0  0  0
 47114  1  0  0  0
 48 56  1  0  0  0
 48 65  1  0  0  0
 48115  1  0  0  0
 49 50  1  0  0  0
 49 53  1  0  0  0
 49 64  1  0  0  0
 49116  1  0  0  0
 50 51  1  0  0  0
 50117  1  0  0  0
 50118  1  0  0  0
 51 52  1  0  0  0
 51119  1  0  0  0
 51120  1  0  0  0
 52121  1  0  0  0
 52122  1  0  0  0
 53 54  1  0  0  0
 54 55  2  0  0  0
 54123  1  0  0  0
 55 57  1  0  0  0
 55124  1  0  0  0
 56 69  2  0  0  0
 57 58  2  0  0  0
 57125  1  0  0  0
 58126  1  0  0  0
 59 60  1  0  0  0
 59 61  1  0  0  0
 59 62  1  0  0  0
 60127  1  0  0  0
 60128  1  0  0  0
 60129  1  0  0  0
 61130  1  0  0  0
 61131  1  0  0  0
 61132  1  0  0  0
 62133  1  0  0  0
 62134  1  0  0  0
 62135  1  0  0  0
 63 65  1  0  0  0
 63136  1  0  0  0
 63137  1  0  0  0
 63138  1  0  0  0
 64139  1  0  0  0
 65140  1  0  0  0
 68 77  1  0  0  0
 71 74  1  0  0  0
 71 77  1  0  0  0
 71141  1  0  0  0
 71142  1  0  0  0
 72 78  1  0  0  0
 72143  1  0  0  0
 72144  1  0  0  0
 72 76  1  0  0  0
 73 76  1  0  0  0
 73 80  1  0  0  0
 73145  1  0  0  0
 73146  1  0  0  0
 74147  1  0  0  0
 74148  1  0  0  0
 74 81  1  0  0  0
 75 77  1  0  0  0
 75 81  1  0  0  0
 75149  1  0  0  0
 75150  1  0  0  0
 76 81  1  0  0  0
 76151  1  0  0  0
 77152  1  0  0  0
 78 79  1  0  0  0
 78 80  1  0  0  0
 78153  1  0  0  0
 79154  1  0  0  0
 79155  1  0  0  0
 79156  1  0  0  0
 81157  1  0  0  0
M  CHG  1  81   1
M  ISO  4   1 100  68 101  77 101  80 100
M  END
> <chiral flag>
0

> <version>
0

> <s_m_source_file>
/data/baiqing/PycharmProjects/Reinvent-master-3.2/result/LINK_invent/BTK/process_docking_weight1_custom_sum_contain_oxygen_bond_distance_aromatic_linkinvent_7_9_3/rearranged_h_0191.sdf

> <i_m_source_file_index>
16

> <r_mmod_Potential_Energy-OPLS-2005>
1763.41442871094

> <r_mmod_Stretch_Energy-OPLS-2005>
648.671630859375

> <r_mmod_Bend_Energy-OPLS-2005>
616.60791015625

> <r_mmod_Torsional_Energy-OPLS-2005>
401.143188476562

> <r_mmod_Improper_Torsional_Energy-OPLS-2005>
20.9761066436768

> <r_mmod_Van_der_Waal_Energy-OPLS-2005>
101.385925292969

> <r_mmod_Electrostatic_Energy-OPLS-2005>
-171.683410644531

> <r_mmod_Solvation_Energy-OPLS-2005>
-433.836364746094

> <b_mmod_Minimization_Converged-OPLS-2005>
0

> <r_mmod_RMS_Derivative-OPLS-2005>
1.83167588710785

$$$$
16
                    3D
 Structure written by MMmdl.
160169  0  0  1  0            999 V2000
  -30.6622  -14.6911   20.5159 C   0  0  0  0  0  0
  -30.4371  -12.4414   19.4526 C   0  0  0  0  0  0
  -29.5151  -12.5384   18.2202 C   0  0  0  0  0  0
  -28.0379  -12.3671   18.6274 C   0  0  0  0  0  0
  -27.6536  -13.2280   19.8620 C   0  0  2  0  0  0
  -28.7045  -13.1037   20.9872 C   0  0  0  0  0  0
  -25.2561  -13.8194   20.5665 C   0  0  0  0  0  0
  -24.1838  -13.0447   20.9204 C   0  0  0  0  0  0
  -24.6422  -11.6928   20.8724 C   0  0  0  0  0  0
  -23.9088  -10.4292   21.0368 C   0  0  0  0  0  0
  -24.3620   -9.4205   21.9156 C   0  0  0  0  0  0
  -23.6304   -8.2237   22.0753 C   0  0  0  0  0  0
  -22.4287   -8.0251   21.3549 C   0  0  0  0  0  0
  -21.9907   -9.0241   20.4660 C   0  0  0  0  0  0
  -22.7240  -10.2117   20.3039 C   0  0  0  0  0  0
  -21.6845   -6.0697   22.5274 C   0  0  0  0  0  0
  -21.3993   -6.5614   23.8218 C   0  0  0  0  0  0
  -21.3674   -5.6773   24.9178 C   0  0  0  0  0  0
  -21.6063   -4.3044   24.7226 C   0  0  0  0  0  0
  -21.8824   -3.8116   23.4343 C   0  0  0  0  0  0
  -21.9196   -4.6936   22.3404 C   0  0  0  0  0  0
  -22.7841  -13.5223   21.1868 C   0  0  0  0  0  0
  -22.1653   -4.2127   21.0968 F   0  0  0  0  0  0
  -21.5665   -3.4535   25.7731 F   0  0  0  0  0  0
  -30.0021  -13.4838   20.4149 N   0  0  0  0  0  0
  -26.3011  -12.9399   20.3325 N   0  0  0  0  0  0
  -25.9365  -11.6534   20.5738 N   0  0  0  0  0  0
  -22.0466  -12.8227   22.0412 N   0  0  0  0  0  0
  -25.4247  -15.1913   20.4023 N   0  0  0  0  0  0
  -31.8346  -14.7629   20.1322 O   0  0  0  0  0  0
  -21.6658   -6.8850   21.4233 O   0  0  0  0  0  0
  -22.3530  -14.5538   20.6727 O   0  0  0  0  0  0
  -24.6271  -31.8596   23.1980 C   0  0  0  0  0  0
  -25.9101  -32.4765   23.8355 C   0  0  1  0  0  0
  -27.2421  -27.2755   20.1393 C   0  0  0  0  0  0
  -25.5892  -33.8571   24.2277 N   0  0  0  0  0  0
  -23.4246  -30.4769   21.5430 C   0  0  2  0  0  0
  -24.8804  -28.9301   20.1093 C   0  0  0  0  0  0
  -22.7522  -29.4590   22.4953 C   0  0  0  0  0  0
  -18.0279  -28.1369   22.8485 C   0  0  0  0  0  0
  -24.1476  -36.7289   23.2644 C   0  0  0  0  0  0
  -25.9691  -30.7765   21.3776 C   0  0  0  0  0  0
  -26.0466  -29.3977   20.7276 C   0  0  0  0  0  0
  -27.2221  -28.5806   20.7392 C   0  0  0  0  0  0
  -26.0557  -26.8935   19.4625 C   0  0  0  0  0  0
  -24.8900  -27.6857   19.4680 C   0  0  0  0  0  0
  -23.6437  -29.8086   20.1594 C   0  0  0  0  0  0
  -25.4093  -36.3082   24.0343 C   0  0  1  0  0  0
  -20.5893  -28.3673   23.1284 C   0  0  2  0  0  0
  -20.6761  -26.9393   22.5421 C   0  0  0  0  0  0
  -19.5726  -26.6354   21.5232 C   0  0  0  0  0  0
  -18.1909  -26.7898   22.1642 C   0  0  0  0  0  0
  -19.1540  -28.8841   23.2863 C   0  0  0  0  0  0
  -18.9471  -30.1442   23.8869 C   0  0  0  0  0  0
  -17.6474  -30.6576   24.0546 C   0  0  0  0  0  0
  -25.9053  -34.9448   23.5121 C   0  0  0  0  0  0
  -16.5358  -29.9074   23.6320 C   0  0  0  0  0  0
  -16.7268  -28.6491   23.0346 C   0  0  0  0  0  0
  -26.4456  -31.6555   25.0728 C   0  0  0  0  0  0
  -25.3676  -31.3758   26.1456 C   0  0  0  0  0  0
  -27.0270  -30.2950   24.6194 C   0  0  0  0  0  0
  -27.6025  -32.4298   25.7491 C   0  0  0  0  0  0
  -27.5572  -37.1794   24.8467 C   0  0  0  0  0  0
  -21.4240  -29.3012   22.3695 N   0  0  0  0  0  0
  -26.4270  -37.3779   23.9428 N   0  0  0  0  0  0
  -24.6921  -31.0563   22.0950 N   0  0  0  0  0  0
  -23.4242  -28.8161   23.3061 O   0  0  0  0  0  0
  -28.3563  -26.4007   20.2471 O   0  0  0  0  0  0
  -26.5662  -34.8926   22.4719 O   0  0  0  0  0  0
  -23.5421  -32.1447   23.7244 O   0  0  0  0  0  0
  -28.8890  -17.8157   21.7392 C   0  0  0  0  0  0
  -30.3793  -23.4152   20.7203 C   0  0  0  0  0  0
  -29.3676  -16.3511   21.9350 C   0  0  0  0  0  0
  -30.1861  -17.1468   19.8883 C   0  0  0  0  0  0
  -30.5705  -21.8859   21.0282 C   0  0  0  0  0  0
  -28.4264  -22.2446   20.1186 C   0  0  0  0  0  0
  -29.8651  -18.4530   20.7466 C   0  0  1  0  0  0
  -28.8614  -23.6783   20.6428 C   0  0  2  0  0  0
  -29.3932  -19.8127   19.9886 C   0  0  0  0  0  0
  -28.2907  -24.9586   19.8217 C   0  0  0  0  0  0
  -29.9355  -15.8722   20.6639 N   0  0  0  0  0  0
  -29.3009  -21.1653   20.7267 N   0  3  1  0  0  0
  -31.4766  -12.5622   19.1430 H   0  0  0  0  0  0
  -30.3792  -11.4473   19.8977 H   0  0  0  0  0  0
  -29.7996  -11.7889   17.4812 H   0  0  0  0  0  0
  -29.6568  -13.5081   17.7391 H   0  0  0  0  0  0
  -27.8763  -11.3103   18.8424 H   0  0  0  0  0  0
  -27.3892  -12.6115   17.7852 H   0  0  0  0  0  0
  -27.6659  -14.2655   19.5293 H   0  0  0  0  0  0
  -28.7447  -12.0835   21.3690 H   0  0  0  0  0  0
  -28.4431  -13.7134   21.8441 H   0  0  0  0  0  0
  -25.2732   -9.5716   22.4766 H   0  0  0  0  0  0
  -24.0042   -7.4614   22.7441 H   0  0  0  0  0  0
  -21.0845   -8.8718   19.8961 H   0  0  0  0  0  0
  -22.3645  -10.9650   19.6164 H   0  0  0  0  0  0
  -21.1947   -7.6119   23.9716 H   0  0  0  0  0  0
  -21.1517   -6.0494   25.9101 H   0  0  0  0  0  0
  -22.0602   -2.7580   23.2848 H   0  0  0  0  0  0
  -22.3990  -11.9865   22.4828 H   0  0  0  0  0  0
  -21.1078  -13.1253   22.2589 H   0  0  0  0  0  0
  -24.6567  -15.8475   20.4940 H   0  0  0  0  0  0
  -26.2864  -15.6254   20.0954 H   0  0  0  0  0  0
  -26.7178  -32.5441   23.1120 H   0  0  0  0  0  0
  -24.9915  -33.9705   25.0327 H   0  0  0  0  0  0
  -22.7164  -31.2951   21.3974 H   0  0  0  0  0  0
  -23.3739  -35.9622   23.3283 H   0  0  0  0  0  0
  -24.3603  -36.8927   22.2072 H   0  0  0  0  0  0
  -23.7208  -37.6477   23.6676 H   0  0  0  0  0  0
  -26.1043  -31.5323   20.6025 H   0  0  0  0  0  0
  -26.8477  -30.8347   22.0083 H   0  0  0  0  0  0
  -28.1056  -28.9364   21.2511 H   0  0  0  0  0  0
  -25.9814  -25.9686   18.9155 H   0  0  0  0  0  0
  -24.0032  -27.3266   18.9625 H   0  0  0  0  0  0
  -23.7566  -30.5833   19.4008 H   0  0  0  0  0  0
  -22.7652  -29.2329   19.8591 H   0  0  0  0  0  0
  -25.1251  -36.1953   25.0833 H   0  0  0  0  0  0
  -20.9956  -28.3230   24.1418 H   0  0  0  0  0  0
  -20.5664  -26.2300   23.3640 H   0  0  0  0  0  0
  -21.6627  -26.7407   22.1220 H   0  0  0  0  0  0
  -19.6892  -25.6271   21.1242 H   0  0  0  0  0  0
  -19.6626  -27.3179   20.6775 H   0  0  0  0  0  0
  -17.4191  -26.6642   21.4034 H   0  0  0  0  0  0
  -18.0286  -26.0042   22.9042 H   0  0  0  0  0  0
  -19.7960  -30.7247   24.2222 H   0  0  0  0  0  0
  -17.5039  -31.6256   24.5148 H   0  0  0  0  0  0
  -15.5358  -30.2978   23.7642 H   0  0  0  0  0  0
  -15.8668  -28.0795   22.7072 H   0  0  0  0  0  0
  -24.5839  -30.7101   25.7809 H   0  0  0  0  0  0
  -24.8876  -32.2957   26.4818 H   0  0  0  0  0  0
  -25.7981  -30.8995   27.0271 H   0  0  0  0  0  0
  -26.2846  -29.6746   24.1155 H   0  0  0  0  0  0
  -27.3861  -29.7159   25.4709 H   0  0  0  0  0  0
  -27.8767  -30.4179   23.9475 H   0  0  0  0  0  0
  -27.2600  -33.3580   26.2077 H   0  0  0  0  0  0
  -28.3803  -32.6891   25.0298 H   0  0  0  0  0  0
  -28.0712  -31.8433   26.5395 H   0  0  0  0  0  0
  -28.2576  -38.0105   24.7524 H   0  0  0  0  0  0
  -28.1073  -36.2642   24.6242 H   0  0  0  0  0  0
  -27.2331  -37.1378   25.8882 H   0  0  0  0  0  0
  -20.9469  -29.8764   21.6899 H   0  0  0  0  0  0
  -26.0151  -38.2854   24.1438 H   0  0  0  0  0  0
  -28.8348  -18.3556   22.6856 H   0  0  0  0  0  0
  -27.8824  -17.8068   21.3176 H   0  0  0  0  0  0
  -30.8569  -23.6514   19.7693 H   0  0  0  0  0  0
  -30.8595  -24.0350   21.4786 H   0  0  0  0  0  0
  -28.5485  -15.7414   22.3049 H   0  0  0  0  0  0
  -30.1577  -16.3211   22.6875 H   0  0  0  0  0  0
  -31.2128  -17.1838   19.5190 H   0  0  0  0  0  0
  -29.5514  -17.1073   19.0024 H   0  0  0  0  0  0
  -30.7975  -21.7403   22.0855 H   0  0  0  0  0  0
  -31.4127  -21.4788   20.4663 H   0  0  0  0  0  0
  -28.5543  -22.2189   19.0354 H   0  0  0  0  0  0
  -27.3730  -22.0512   20.3221 H   0  0  0  0  0  0
  -30.7755  -18.6915   21.2970 H   0  0  0  0  0  0
  -28.4935  -23.7666   21.6662 H   0  0  0  0  0  0
  -28.4077  -19.6186   19.5653 H   0  0  0  0  0  0
  -30.0404  -19.9600   19.1225 H   0  0  0  0  0  0
  -27.2509  -24.6732   19.7281 H   0  0  0  0  0  0
  -28.7015  -24.9247   18.8121 H   0  0  0  0  0  0
  -28.8792  -20.9622   21.6192 H   0  0  0  0  0  0
  1 25  1  0  0  0
  1 30  2  0  0  0
  1 81  1  0  0  0
  2  3  1  0  0  0
  2 25  1  0  0  0
  2 83  1  0  0  0
  2 84  1  0  0  0
  3  4  1  0  0  0
  3 85  1  0  0  0
  3 86  1  0  0  0
  4  5  1  0  0  0
  4 87  1  0  0  0
  4 88  1  0  0  0
  5  6  1  0  0  0
  5 26  1  0  0  0
  5 89  1  0  0  0
  6 25  1  0  0  0
  6 90  1  0  0  0
  6 91  1  0  0  0
  7  8  2  0  0  0
  7 26  1  0  0  0
  7 29  1  0  0  0
  8  9  1  0  0  0
  8 22  1  0  0  0
  9 10  1  0  0  0
  9 27  2  0  0  0
 10 11  2  0  0  0
 10 15  1  0  0  0
 11 12  1  0  0  0
 11 92  1  0  0  0
 12 13  2  0  0  0
 12 93  1  0  0  0
 13 14  1  0  0  0
 13 31  1  0  0  0
 14 15  2  0  0  0
 14 94  1  0  0  0
 15 95  1  0  0  0
 16 17  2  0  0  0
 16 21  1  0  0  0
 16 31  1  0  0  0
 17 18  1  0  0  0
 17 96  1  0  0  0
 18 19  2  0  0  0
 18 97  1  0  0  0
 19 20  1  0  0  0
 19 24  1  0  0  0
 20 21  2  0  0  0
 20 98  1  0  0  0
 21 23  1  0  0  0
 22 28  1  0  0  0
 22 32  2  0  0  0
 26 27  1  0  0  0
 28 99  1  0  0  0
 28100  1  0  0  0
 29101  1  0  0  0
 29102  1  0  0  0
 33 34  1  0  0  0
 33 66  1  0  0  0
 33 70  2  0  0  0
 34 36  1  0  0  0
 34 59  1  0  0  0
 34103  1  0  0  0
 35 44  2  0  0  0
 35 45  1  0  0  0
 35 68  1  0  0  0
 36 56  1  0  0  0
 36104  1  0  0  0
 37 39  1  0  0  0
 37 47  1  0  0  0
 37 66  1  0  0  0
 37105  1  0  0  0
 38 43  2  0  0  0
 38 46  1  0  0  0
 38 47  1  0  0  0
 39 64  1  0  0  0
 39 67  2  0  0  0
 40 52  1  0  0  0
 40 53  2  0  0  0
 40 58  1  0  0  0
 41106  1  0  0  0
 41107  1  0  0  0
 41108  1  0  0  0
 41 48  1  0  0  0
 42 43  1  0  0  0
 42 66  1  0  0  0
 42109  1  0  0  0
 42110  1  0  0  0
 43 44  1  0  0  0
 44111  1  0  0  0
 45 46  2  0  0  0
 45112  1  0  0  0
 46113  1  0  0  0
 47114  1  0  0  0
 47115  1  0  0  0
 48 56  1  0  0  0
 48 65  1  0  0  0
 48116  1  0  0  0
 49 50  1  0  0  0
 49 53  1  0  0  0
 49 64  1  0  0  0
 49117  1  0  0  0
 50 51  1  0  0  0
 50118  1  0  0  0
 50119  1  0  0  0
 51 52  1  0  0  0
 51120  1  0  0  0
 51121  1  0  0  0
 52122  1  0  0  0
 52123  1  0  0  0
 53 54  1  0  0  0
 54 55  2  0  0  0
 54124  1  0  0  0
 55 57  1  0  0  0
 55125  1  0  0  0
 56 69  2  0  0  0
 57 58  2  0  0  0
 57126  1  0  0  0
 58127  1  0  0  0
 59 60  1  0  0  0
 59 61  1  0  0  0
 59 62  1  0  0  0
 60128  1  0  0  0
 60129  1  0  0  0
 60130  1  0  0  0
 61131  1  0  0  0
 61132  1  0  0  0
 61133  1  0  0  0
 62134  1  0  0  0
 62135  1  0  0  0
 62136  1  0  0  0
 63 65  1  0  0  0
 63137  1  0  0  0
 63138  1  0  0  0
 63139  1  0  0  0
 64140  1  0  0  0
 65141  1  0  0  0
 68 80  1  0  0  0
 71 73  1  0  0  0
 71 77  1  0  0  0
 71142  1  0  0  0
 71143  1  0  0  0
 72 75  1  0  0  0
 72 78  1  0  0  0
 72144  1  0  0  0
 72145  1  0  0  0
 73 81  1  0  0  0
 73146  1  0  0  0
 73147  1  0  0  0
 74 77  1  0  0  0
 74 81  1  0  0  0
 74148  1  0  0  0
 74149  1  0  0  0
 75 82  1  0  0  0
 75150  1  0  0  0
 75151  1  0  0  0
 76 78  1  0  0  0
 76 82  1  0  0  0
 76152  1  0  0  0
 76153  1  0  0  0
 77 79  1  0  0  0
 77154  1  0  0  0
 78 80  1  0  0  0
 78155  1  0  0  0
 79156  1  0  0  0
 79157  1  0  0  0
 79 82  1  0  0  0
 80158  1  0  0  0
 80159  1  0  0  0
 82160  1  0  0  0
M  CHG  1  82   1
M  ISO  4   1 100  68 101  80 101  81 100
M  END
> <chiral flag>
0

> <version>
0

> <s_m_source_file>
/data/baiqing/PycharmProjects/Reinvent-master-3.2/result/LINK_invent/BTK/process_docking_weight1_custom_sum_contain_oxygen_bond_distance_aromatic_linkinvent_7_9_3/rearranged_h_0191.sdf

> <i_m_source_file_index>
17

> <r_mmod_Potential_Energy-OPLS-2005>
343.678771972656

> <r_mmod_Stretch_Energy-OPLS-2005>
115.874145507812

> <r_mmod_Bend_Energy-OPLS-2005>
234.594924926758

> <r_mmod_Torsional_Energy-OPLS-2005>
387.218444824219

> <r_mmod_Improper_Torsional_Energy-OPLS-2005>
13.2845687866211

> <r_mmod_Van_der_Waal_Energy-OPLS-2005>
117.241844177246

> <r_mmod_Electrostatic_Energy-OPLS-2005>
-151.16487121582

> <r_mmod_Solvation_Energy-OPLS-2005>
-441.087280273438

> <b_mmod_Minimization_Converged-OPLS-2005>
0

> <r_mmod_RMS_Derivative-OPLS-2005>
4.05557870864868

$$$$
17
                    3D
 Structure written by MMmdl.
163172  0  0  1  0            999 V2000
  -30.7054  -14.4775   20.4870 C   0  0  0  0  0  0
  -30.4216  -12.2925   19.4128 C   0  0  0  0  0  0
  -29.4853  -12.4663   18.1989 C   0  0  0  0  0  0
  -28.0094  -12.3298   18.6275 C   0  0  0  0  0  0
  -27.6534  -13.1875   19.8719 C   0  0  2  0  0  0
  -28.7104  -13.0263   20.9897 C   0  0  0  0  0  0
  -25.2611  -13.8086   20.5730 C   0  0  0  0  0  0
  -24.1836  -13.0398   20.9212 C   0  0  0  0  0  0
  -24.6361  -11.6859   20.8773 C   0  0  0  0  0  0
  -23.9021  -10.4257   21.0431 C   0  0  0  0  0  0
  -24.3574   -9.4170   21.9184 C   0  0  0  0  0  0
  -23.6271   -8.2198   22.0737 C   0  0  0  0  0  0
  -22.4251   -8.0247   21.3526 C   0  0  0  0  0  0
  -21.9891   -9.0222   20.4638 C   0  0  0  0  0  0
  -22.7209  -10.2100   20.3064 C   0  0  0  0  0  0
  -21.6842   -6.0722   22.5281 C   0  0  0  0  0  0
  -21.3989   -6.5620   23.8210 C   0  0  0  0  0  0
  -21.3667   -5.6769   24.9170 C   0  0  0  0  0  0
  -21.6045   -4.3032   24.7225 C   0  0  0  0  0  0
  -21.8812   -3.8137   23.4342 C   0  0  0  0  0  0
  -21.9188   -4.6949   22.3398 C   0  0  0  0  0  0
  -22.7870  -13.5235   21.1875 C   0  0  0  0  0  0
  -22.1656   -4.2137   21.0976 F   0  0  0  0  0  0
  -21.5645   -3.4518   25.7744 F   0  0  0  0  0  0
  -30.0351  -13.3004   20.4075 N   0  0  0  0  0  0
  -26.2998  -12.9201   20.3427 N   0  0  0  0  0  0
  -25.9290  -11.6389   20.5834 N   0  0  0  0  0  0
  -22.0482  -12.8252   22.0414 N   0  0  0  0  0  0
  -25.4412  -15.1796   20.4112 N   0  0  0  0  0  0
  -31.8869  -14.6167   20.1611 O   0  0  0  0  0  0
  -21.6602   -6.8862   21.4239 O   0  0  0  0  0  0
  -22.3592  -14.5559   20.6729 O   0  0  0  0  0  0
  -24.6108  -31.8708   23.2131 C   0  0  0  0  0  0
  -25.9023  -32.4832   23.8408 C   0  0  1  0  0  0
  -27.2389  -27.4697   20.0708 C   0  0  0  0  0  0
  -25.5895  -33.8635   24.2338 N   0  0  0  0  0  0
  -23.3970  -30.4948   21.5532 C   0  0  2  0  0  0
  -24.8423  -28.9648   20.1126 C   0  0  0  0  0  0
  -22.7387  -29.4669   22.5004 C   0  0  0  0  0  0
  -18.0265  -28.1380   22.8486 C   0  0  0  0  0  0
  -24.1487  -36.7325   23.2635 C   0  0  0  0  0  0
  -25.9224  -30.8413   21.3641 C   0  0  0  0  0  0
  -25.9987  -29.4774   20.7126 C   0  0  0  0  0  0
  -27.1944  -28.7292   20.7034 C   0  0  0  0  0  0
  -26.0593  -26.9540   19.4871 C   0  0  0  0  0  0
  -24.8646  -27.6981   19.5041 C   0  0  0  0  0  0
  -23.6028  -29.8294   20.1660 C   0  0  0  0  0  0
  -25.4107  -36.3118   24.0337 C   0  0  1  0  0  0
  -20.5848  -28.3662   23.1328 C   0  0  2  0  0  0
  -20.6758  -26.9405   22.5427 C   0  0  0  0  0  0
  -19.5747  -26.6386   21.5212 C   0  0  0  0  0  0
  -18.1917  -26.7930   22.1616 C   0  0  0  0  0  0
  -19.1516  -28.8838   23.2907 C   0  0  0  0  0  0
  -18.9446  -30.1442   23.8921 C   0  0  0  0  0  0
  -17.6453  -30.6594   24.0564 C   0  0  0  0  0  0
  -25.9034  -34.9482   23.5132 C   0  0  0  0  0  0
  -16.5339  -29.9096   23.6321 C   0  0  0  0  0  0
  -16.7256  -28.6509   23.0342 C   0  0  0  0  0  0
  -26.4463  -31.6613   25.0728 C   0  0  0  0  0  0
  -25.3742  -31.3729   26.1492 C   0  0  0  0  0  0
  -27.0285  -30.3053   24.6091 C   0  0  0  0  0  0
  -27.6047  -32.4333   25.7477 C   0  0  0  0  0  0
  -27.5588  -37.1810   24.8458 C   0  0  0  0  0  0
  -21.4125  -29.3030   22.3743 N   0  0  0  0  0  0
  -26.4291  -37.3803   23.9406 N   0  0  0  0  0  0
  -24.6616  -31.0823   22.1026 N   0  0  0  0  0  0
  -23.4167  -28.8208   23.3037 O   0  0  0  0  0  0
  -28.4193  -26.7663   20.0825 O   0  0  0  0  0  0
  -26.5590  -34.8930   22.4686 O   0  0  0  0  0  0
  -23.5315  -32.1453   23.7546 O   0  0  0  0  0  0
  -32.6606  -22.2399   20.1888 C   0  0  0  0  0  0
  -30.1054  -21.6178   19.6210 C   0  0  0  0  0  0
  -31.1189  -20.6376   19.6629 C   0  0  0  0  0  0
  -30.5166  -22.9379   19.8689 C   0  0  0  0  0  0
  -29.9382  -16.4636   21.7093 C   0  0  0  0  0  0
  -29.6032  -16.2252   19.2508 C   0  0  0  0  0  0
  -30.4646  -17.8951   21.3903 C   0  0  0  0  0  0
  -28.9584  -17.6046   19.4339 C   0  0  0  0  0  0
  -30.8475  -19.1905   19.2750 C   0  0  0  0  0  0
  -30.0144  -25.2201   19.1842 C   0  0  0  0  0  0
  -28.8179  -26.1305   18.8712 C   0  0  0  0  0  0
  -32.3937  -20.9551   19.9666 N   0  0  0  0  0  0
  -31.7929  -23.2472   20.1448 N   0  0  0  0  0  0
  -29.9071  -15.5673   20.5377 N   0  0  0  0  0  0
  -29.5872  -23.9787   19.8226 N   0  0  0  0  0  0
  -29.8653  -18.5181   20.1697 N   0  3  0  0  0  0
  -28.4587  -21.2376   19.2433 Cl  0  0  0  0  0  0
  -31.4647  -12.3844   19.1024 H   0  0  0  0  0  0
  -30.3200  -11.2906   19.8330 H   0  0  0  0  0  0
  -29.7217  -11.7252   17.4345 H   0  0  0  0  0  0
  -29.6470  -13.4377   17.7313 H   0  0  0  0  0  0
  -27.8369  -11.2771   18.8509 H   0  0  0  0  0  0
  -27.3486  -12.5791   17.7973 H   0  0  0  0  0  0
  -27.6600  -14.2208   19.5485 H   0  0  0  0  0  0
  -28.6915  -12.0154   21.4000 H   0  0  0  0  0  0
  -28.4961  -13.6997   21.8229 H   0  0  0  0  0  0
  -25.2714   -9.5636   22.4775 H   0  0  0  0  0  0
  -23.9974   -7.4585   22.7448 H   0  0  0  0  0  0
  -21.0815   -8.8738   19.8967 H   0  0  0  0  0  0
  -22.3665  -10.9635   19.6172 H   0  0  0  0  0  0
  -21.1963   -7.6124   23.9715 H   0  0  0  0  0  0
  -21.1508   -6.0493   25.9080 H   0  0  0  0  0  0
  -22.0611   -2.7602   23.2825 H   0  0  0  0  0  0
  -22.4056  -11.9862   22.4740 H   0  0  0  0  0  0
  -21.1120  -13.1327   22.2634 H   0  0  0  0  0  0
  -24.6854  -15.8457   20.5238 H   0  0  0  0  0  0
  -26.3088  -15.6049   20.1138 H   0  0  0  0  0  0
  -26.7089  -32.5549   23.1174 H   0  0  0  0  0  0
  -25.0059  -33.9803   25.0487 H   0  0  0  0  0  0
  -22.6842  -31.3110   21.4185 H   0  0  0  0  0  0
  -23.3743  -35.9668   23.3316 H   0  0  0  0  0  0
  -24.3581  -36.8921   22.2047 H   0  0  0  0  0  0
  -23.7255  -37.6542   23.6637 H   0  0  0  0  0  0
  -26.0309  -31.6083   20.5957 H   0  0  0  0  0  0
  -26.8127  -30.8944   21.9800 H   0  0  0  0  0  0
  -28.0879  -29.1225   21.1686 H   0  0  0  0  0  0
  -26.0405  -25.9743   19.0346 H   0  0  0  0  0  0
  -23.9716  -27.2909   19.0495 H   0  0  0  0  0  0
  -23.7079  -30.6067   19.4083 H   0  0  0  0  0  0
  -22.7273  -29.2487   19.8709 H   0  0  0  0  0  0
  -25.1282  -36.1986   25.0831 H   0  0  0  0  0  0
  -20.9935  -28.3229   24.1453 H   0  0  0  0  0  0
  -20.5662  -26.2267   23.3607 H   0  0  0  0  0  0
  -21.6631  -26.7463   22.1218 H   0  0  0  0  0  0
  -19.6909  -25.6302   21.1236 H   0  0  0  0  0  0
  -19.6694  -27.3201   20.6747 H   0  0  0  0  0  0
  -17.4195  -26.6680   21.4012 H   0  0  0  0  0  0
  -18.0321  -26.0072   22.9012 H   0  0  0  0  0  0
  -19.7924  -30.7245   24.2301 H   0  0  0  0  0  0
  -17.5014  -31.6270   24.5169 H   0  0  0  0  0  0
  -15.5344  -30.3009   23.7643 H   0  0  0  0  0  0
  -15.8651  -28.0844   22.7045 H   0  0  0  0  0  0
  -24.5877  -30.7117   25.7838 H   0  0  0  0  0  0
  -24.8978  -32.2898   26.4977 H   0  0  0  0  0  0
  -25.8098  -30.8864   27.0226 H   0  0  0  0  0  0
  -26.2819  -29.6827   24.1145 H   0  0  0  0  0  0
  -27.4060  -29.7280   25.4541 H   0  0  0  0  0  0
  -27.8655  -30.4378   23.9229 H   0  0  0  0  0  0
  -27.2658  -33.3605   26.2112 H   0  0  0  0  0  0
  -28.3815  -32.6946   25.0278 H   0  0  0  0  0  0
  -28.0764  -31.8430   26.5343 H   0  0  0  0  0  0
  -28.2602  -38.0112   24.7515 H   0  0  0  0  0  0
  -28.1083  -36.2642   24.6261 H   0  0  0  0  0  0
  -27.2306  -37.1445   25.8862 H   0  0  0  0  0  0
  -20.9277  -29.8754   21.6975 H   0  0  0  0  0  0
  -26.0186  -38.2879   24.1421 H   0  0  0  0  0  0
  -33.6868  -22.4923   20.4083 H   0  0  0  0  0  0
  -28.9202  -16.5267   22.0966 H   0  0  0  0  0  0
  -30.5310  -16.0330   22.5183 H   0  0  0  0  0  0
  -30.5147  -16.3310   18.6571 H   0  0  0  0  0  0
  -28.9480  -15.6053   18.6431 H   0  0  0  0  0  0
  -31.5501  -17.8439   21.2930 H   0  0  0  0  0  0
  -30.2793  -18.5494   22.2438 H   0  0  0  0  0  0
  -28.0271  -17.4980   19.9924 H   0  0  0  0  0  0
  -28.6610  -18.0232   18.4717 H   0  0  0  0  0  0
  -31.7758  -18.6217   19.2105 H   0  0  0  0  0  0
  -30.4715  -19.2299   18.2524 H   0  0  0  0  0  0
  -30.7338  -25.7450   19.8142 H   0  0  0  0  0  0
  -30.5306  -24.9753   18.2538 H   0  0  0  0  0  0
  -28.0313  -25.5528   18.3893 H   0  0  0  0  0  0
  -29.1216  -26.9045   18.1651 H   0  0  0  0  0  0
  -28.6632  -23.6527   19.5618 H   0  0  0  0  0  0
  -29.2747  -19.2817   20.4735 H   0  0  0  0  0  0
  1 25  1  0  0  0
  1 30  2  0  0  0
  1 84  1  0  0  0
  2  3  1  0  0  0
  2 25  1  0  0  0
  2 88  1  0  0  0
  2 89  1  0  0  0
  3  4  1  0  0  0
  3 90  1  0  0  0
  3 91  1  0  0  0
  4  5  1  0  0  0
  4 92  1  0  0  0
  4 93  1  0  0  0
  5  6  1  0  0  0
  5 26  1  0  0  0
  5 94  1  0  0  0
  6 25  1  0  0  0
  6 95  1  0  0  0
  6 96  1  0  0  0
  7  8  2  0  0  0
  7 26  1  0  0  0
  7 29  1  0  0  0
  8  9  1  0  0  0
  8 22  1  0  0  0
  9 10  1  0  0  0
  9 27  2  0  0  0
 10 11  2  0  0  0
 10 15  1  0  0  0
 11 12  1  0  0  0
 11 97  1  0  0  0
 12 13  2  0  0  0
 12 98  1  0  0  0
 13 14  1  0  0  0
 13 31  1  0  0  0
 14 15  2  0  0  0
 14 99  1  0  0  0
 15100  1  0  0  0
 16 17  2  0  0  0
 16 21  1  0  0  0
 16 31  1  0  0  0
 17 18  1  0  0  0
 17101  1  0  0  0
 18 19  2  0  0  0
 18102  1  0  0  0
 19 20  1  0  0  0
 19 24  1  0  0  0
 20 21  2  0  0  0
 20103  1  0  0  0
 21 23  1  0  0  0
 22 28  1  0  0  0
 22 32  2  0  0  0
 26 27  1  0  0  0
 28104  1  0  0  0
 28105  1  0  0  0
 29106  1  0  0  0
 29107  1  0  0  0
 33 34  1  0  0  0
 33 66  1  0  0  0
 33 70  2  0  0  0
 34 36  1  0  0  0
 34 59  1  0  0  0
 34108  1  0  0  0
 35 44  2  0  0  0
 35 45  1  0  0  0
 35 68  1  0  0  0
 36 56  1  0  0  0
 36109  1  0  0  0
 37 39  1  0  0  0
 37 47  1  0  0  0
 37 66  1  0  0  0
 37110  1  0  0  0
 38 43  2  0  0  0
 38 46  1  0  0  0
 38 47  1  0  0  0
 39 64  1  0  0  0
 39 67  2  0  0  0
 40 52  1  0  0  0
 40 53  2  0  0  0
 40 58  1  0  0  0
 41111  1  0  0  0
 41112  1  0  0  0
 41113  1  0  0  0
 41 48  1  0  0  0
 42 43  1  0  0  0
 42 66  1  0  0  0
 42114  1  0  0  0
 42115  1  0  0  0
 43 44  1  0  0  0
 44116  1  0  0  0
 45 46  2  0  0  0
 45117  1  0  0  0
 46118  1  0  0  0
 47119  1  0  0  0
 47120  1  0  0  0
 48 56  1  0  0  0
 48 65  1  0  0  0
 48121  1  0  0  0
 49 50  1  0  0  0
 49 53  1  0  0  0
 49 64  1  0  0  0
 49122  1  0  0  0
 50 51  1  0  0  0
 50123  1  0  0  0
 50124  1  0  0  0
 51 52  1  0  0  0
 51125  1  0  0  0
 51126  1  0  0  0
 52127  1  0  0  0
 52128  1  0  0  0
 53 54  1  0  0  0
 54 55  2  0  0  0
 54129  1  0  0  0
 55 57  1  0  0  0
 55130  1  0  0  0
 56 69  2  0  0  0
 57 58  2  0  0  0
 57131  1  0  0  0
 58132  1  0  0  0
 59 60  1  0  0  0
 59 61  1  0  0  0
 59 62  1  0  0  0
 60133  1  0  0  0
 60134  1  0  0  0
 60135  1  0  0  0
 61136  1  0  0  0
 61137  1  0  0  0
 61138  1  0  0  0
 62139  1  0  0  0
 62140  1  0  0  0
 62141  1  0  0  0
 63 65  1  0  0  0
 63142  1  0  0  0
 63143  1  0  0  0
 63144  1  0  0  0
 64145  1  0  0  0
 65146  1  0  0  0
 68 81  1  0  0  0
 71 82  2  0  0  0
 71 83  1  0  0  0
 71147  1  0  0  0
 72 73  2  0  0  0
 72 74  1  0  0  0
 72 87  1  0  0  0
 73 79  1  0  0  0
 73 82  1  0  0  0
 74 83  2  0  0  0
 74 85  1  0  0  0
 75 77  1  0  0  0
 75 84  1  0  0  0
 75148  1  0  0  0
 75149  1  0  0  0
 76 78  1  0  0  0
 76 84  1  0  0  0
 76150  1  0  0  0
 76151  1  0  0  0
 77 86  1  0  0  0
 77152  1  0  0  0
 77153  1  0  0  0
 78 86  1  0  0  0
 78154  1  0  0  0
 78155  1  0  0  0
 79156  1  0  0  0
 79157  1  0  0  0
 79 86  1  0  0  0
 80 81  1  0  0  0
 80 85  1  0  0  0
 80158  1  0  0  0
 80159  1  0  0  0
 81160  1  0  0  0
 81161  1  0  0  0
 85162  1  0  0  0
 86163  1  0  0  0
M  CHG  1  86   1
M  ISO  4   1 100  68 101  81 101  84 100
M  END
> <chiral flag>
0

> <version>
0

> <s_m_source_file>
/data/baiqing/PycharmProjects/Reinvent-master-3.2/result/LINK_invent/BTK/process_docking_weight1_custom_sum_contain_oxygen_bond_distance_aromatic_linkinvent_7_9_3/rearranged_h_0191.sdf

> <i_m_source_file_index>
18

> <r_mmod_Potential_Energy-OPLS-2005>
-443.755279541016

> <r_mmod_Stretch_Energy-OPLS-2005>
34.7002639770508

> <r_mmod_Bend_Energy-OPLS-2005>
103.064315795898

> <r_mmod_Torsional_Energy-OPLS-2005>
422.270568847656

> <r_mmod_Improper_Torsional_Energy-OPLS-2005>
17.7988338470459

> <r_mmod_Van_der_Waal_Energy-OPLS-2005>
174.148498535156

> <r_mmod_Electrostatic_Energy-OPLS-2005>
-739.950134277344

> <r_mmod_Solvation_Energy-OPLS-2005>
-473.170593261719

> <b_mmod_Minimization_Converged-OPLS-2005>
0

> <r_mmod_RMS_Derivative-OPLS-2005>
2.47794675827026

$$$$
18
                    3D
 Structure written by MMmdl.
151160  0  0  1  0            999 V2000
  -30.6068  -14.5948   20.5141 C   0  0  0  0  0  0
  -30.4260  -12.3728   19.4367 C   0  0  0  0  0  0
  -29.4950  -12.5124   18.2125 C   0  0  0  0  0  0
  -28.0144  -12.3566   18.6164 C   0  0  0  0  0  0
  -27.6434  -13.2122   19.8599 C   0  0  2  0  0  0
  -28.6836  -13.0372   20.9884 C   0  0  0  0  0  0
  -25.2504  -13.8176   20.5673 C   0  0  0  0  0  0
  -24.1794  -13.0435   20.9214 C   0  0  0  0  0  0
  -24.6343  -11.6899   20.8744 C   0  0  0  0  0  0
  -23.9020  -10.4289   21.0401 C   0  0  0  0  0  0
  -24.3587   -9.4224   21.9185 C   0  0  0  0  0  0
  -23.6278   -8.2250   22.0763 C   0  0  0  0  0  0
  -22.4269   -8.0265   21.3548 C   0  0  0  0  0  0
  -21.9882   -9.0217   20.4645 C   0  0  0  0  0  0
  -22.7188  -10.2117   20.3057 C   0  0  0  0  0  0
  -21.6847   -6.0724   22.5291 C   0  0  0  0  0  0
  -21.3991   -6.5624   23.8216 C   0  0  0  0  0  0
  -21.3685   -5.6792   24.9189 C   0  0  0  0  0  0
  -21.6068   -4.3059   24.7264 C   0  0  0  0  0  0
  -21.8809   -3.8150   23.4379 C   0  0  0  0  0  0
  -21.9185   -4.6955   22.3431 C   0  0  0  0  0  0
  -22.7823  -13.5235   21.1881 C   0  0  0  0  0  0
  -22.1657   -4.2142   21.1005 F   0  0  0  0  0  0
  -21.5649   -3.4534   25.7780 F   0  0  0  0  0  0
  -29.9997  -13.3744   20.4308 N   0  0  0  0  0  0
  -26.2901  -12.9341   20.3275 N   0  0  0  0  0  0
  -25.9256  -11.6502   20.5726 N   0  0  0  0  0  0
  -22.0467  -12.8213   22.0429 N   0  0  0  0  0  0
  -25.4256  -15.1888   20.4076 N   0  0  0  0  0  0
  -31.7691  -14.7713   20.1343 O   0  0  0  0  0  0
  -21.6660   -6.8850   21.4243 O   0  0  0  0  0  0
  -22.3525  -14.5518   20.6710 O   0  0  0  0  0  0
  -24.6200  -31.8625   23.2017 C   0  0  0  0  0  0
  -25.9095  -32.4768   23.8291 C   0  0  1  0  0  0
  -27.2257  -27.3552   20.0992 C   0  0  0  0  0  0
  -25.5954  -33.8567   24.2237 N   0  0  0  0  0  0
  -23.4074  -30.4818   21.5470 C   0  0  2  0  0  0
  -24.8542  -28.9364   20.1108 C   0  0  0  0  0  0
  -22.7425  -29.4632   22.5003 C   0  0  0  0  0  0
  -18.0281  -28.1353   22.8498 C   0  0  0  0  0  0
  -24.1530  -36.7280   23.2622 C   0  0  0  0  0  0
  -25.9452  -30.7988   21.3707 C   0  0  0  0  0  0
  -26.0190  -29.4300   20.7115 C   0  0  0  0  0  0
  -27.2040  -28.6464   20.7031 C   0  0  0  0  0  0
  -26.0352  -26.8918   19.4979 C   0  0  0  0  0  0
  -24.8623  -27.6723   19.5002 C   0  0  0  0  0  0
  -23.6147  -29.8053   20.1658 C   0  0  0  0  0  0
  -25.4160  -36.3074   24.0302 C   0  0  1  0  0  0
  -20.5878  -28.3654   23.1334 C   0  0  2  0  0  0
  -20.6794  -26.9378   22.5454 C   0  0  0  0  0  0
  -19.5779  -26.6367   21.5250 C   0  0  0  0  0  0
  -18.1942  -26.7916   22.1605 C   0  0  0  0  0  0
  -19.1525  -28.8827   23.2904 C   0  0  0  0  0  0
  -18.9446  -30.1454   23.8875 C   0  0  0  0  0  0
  -17.6439  -30.6561   24.0562 C   0  0  0  0  0  0
  -25.9078  -34.9445   23.5067 C   0  0  0  0  0  0
  -16.5337  -29.9045   23.6343 C   0  0  0  0  0  0
  -16.7268  -28.6475   23.0345 C   0  0  0  0  0  0
  -26.4484  -31.6548   25.0647 C   0  0  0  0  0  0
  -25.3726  -31.3714   26.1384 C   0  0  0  0  0  0
  -27.0292  -30.2949   24.6099 C   0  0  0  0  0  0
  -27.6030  -32.4283   25.7444 C   0  0  0  0  0  0
  -27.5619  -37.1795   24.8444 C   0  0  0  0  0  0
  -21.4157  -29.3011   22.3733 N   0  0  0  0  0  0
  -26.4330  -37.3775   23.9392 N   0  0  0  0  0  0
  -24.6747  -31.0646   22.0959 N   0  0  0  0  0  0
  -23.4186  -28.8214   23.3084 O   0  0  0  0  0  0
  -28.3814  -26.5757   20.1604 O   0  0  0  0  0  0
  -26.5632  -34.8908   22.4627 O   0  0  0  0  0  0
  -23.5396  -32.1436   23.7395 O   0  0  0  0  0  0
  -29.2245  -21.4820   19.3642 C   0  0  0  0  0  0
  -29.5760  -17.9408   21.9133 C   0  0  0  0  0  0
  -28.9652  -18.1565   20.5612 C   0  0  2  0  0  0
  -30.0819  -17.0798   20.7601 C   0  0  2  0  0  0
  -28.4250  -23.9213   20.0165 C   0  0  0  0  0  0
  -28.5524  -25.3629   19.3640 C   0  0  0  0  0  0
  -29.9791  -20.8091   18.4485 N   0  0  0  0  0  0
  -28.7660  -20.6946   20.3382 N   0  0  0  0  0  0
  -30.0074  -19.5634   18.8099 N   0  0  0  0  0  0
  -29.3033  -19.4800   19.9592 N   0  0  0  0  0  0
  -29.0005  -22.8785   19.1340 N   0  0  0  0  0  0
  -29.7947  -15.6407   20.8463 N   0  0  0  0  0  0
  -31.4642  -12.5087   19.1338 H   0  0  0  0  0  0
  -30.3603  -11.3673   19.8560 H   0  0  0  0  0  0
  -29.7565  -11.7794   17.4475 H   0  0  0  0  0  0
  -29.6445  -13.4913   17.7551 H   0  0  0  0  0  0
  -27.8332  -11.2993   18.8182 H   0  0  0  0  0  0
  -27.3698  -12.6194   17.7751 H   0  0  0  0  0  0
  -27.6702  -14.2541   19.5376 H   0  0  0  0  0  0
  -28.6887  -12.0052   21.3467 H   0  0  0  0  0  0
  -28.4335  -13.6545   21.8513 H   0  0  0  0  0  0
  -25.2733   -9.5723   22.4733 H   0  0  0  0  0  0
  -24.0021   -7.4649   22.7451 H   0  0  0  0  0  0
  -21.0832   -8.8672   19.8933 H   0  0  0  0  0  0
  -22.3610  -10.9621   19.6148 H   0  0  0  0  0  0
  -21.1937   -7.6126   23.9720 H   0  0  0  0  0  0
  -21.1526   -6.0532   25.9087 H   0  0  0  0  0  0
  -22.0558   -2.7610   23.2908 H   0  0  0  0  0  0
  -22.4076  -11.9857   22.4805 H   0  0  0  0  0  0
  -21.1067  -13.1213   22.2598 H   0  0  0  0  0  0
  -24.6531  -15.8384   20.4993 H   0  0  0  0  0  0
  -26.2603  -15.6187   20.0283 H   0  0  0  0  0  0
  -26.7145  -32.5440   23.1012 H   0  0  0  0  0  0
  -25.0195  -33.9713   25.0442 H   0  0  0  0  0  0
  -22.6997  -31.3011   21.4046 H   0  0  0  0  0  0
  -23.3805  -35.9595   23.3266 H   0  0  0  0  0  0
  -24.3627  -36.8927   22.2038 H   0  0  0  0  0  0
  -23.7259  -37.6459   23.6669 H   0  0  0  0  0  0
  -26.0837  -31.5690   20.6113 H   0  0  0  0  0  0
  -26.8219  -30.8349   22.0054 H   0  0  0  0  0  0
  -28.0975  -29.0191   21.1839 H   0  0  0  0  0  0
  -25.9752  -25.9095   19.0513 H   0  0  0  0  0  0
  -23.9623  -27.2834   19.0441 H   0  0  0  0  0  0
  -23.7095  -30.5735   19.3984 H   0  0  0  0  0  0
  -22.7378  -29.2181   19.8808 H   0  0  0  0  0  0
  -25.1364  -36.1904   25.0793 H   0  0  0  0  0  0
  -20.9947  -28.3222   24.1455 H   0  0  0  0  0  0
  -20.5756  -26.2229   23.3634 H   0  0  0  0  0  0
  -21.6660  -26.7470   22.1192 H   0  0  0  0  0  0
  -19.6948  -25.6293   21.1244 H   0  0  0  0  0  0
  -19.6742  -27.3205   20.6809 H   0  0  0  0  0  0
  -17.4251  -26.6736   21.3952 H   0  0  0  0  0  0
  -18.0261  -26.0014   22.8939 H   0  0  0  0  0  0
  -19.7928  -30.7316   24.2173 H   0  0  0  0  0  0
  -17.4982  -31.6239   24.5176 H   0  0  0  0  0  0
  -15.5331  -30.2919   23.7709 H   0  0  0  0  0  0
  -15.8674  -28.0803   22.7026 H   0  0  0  0  0  0
  -24.5927  -30.7010   25.7751 H   0  0  0  0  0  0
  -24.8883  -32.2886   26.4731 H   0  0  0  0  0  0
  -25.8062  -30.8972   27.0193 H   0  0  0  0  0  0
  -26.2827  -29.6709   24.1159 H   0  0  0  0  0  0
  -27.4005  -29.7190   25.4587 H   0  0  0  0  0  0
  -27.8707  -30.4198   23.9282 H   0  0  0  0  0  0
  -27.2600  -33.3580   26.1995 H   0  0  0  0  0  0
  -28.3855  -32.6838   25.0288 H   0  0  0  0  0  0
  -28.0654  -31.8410   26.5388 H   0  0  0  0  0  0
  -28.2604  -38.0132   24.7552 H   0  0  0  0  0  0
  -28.1164  -36.2658   24.6227 H   0  0  0  0  0  0
  -27.2324  -37.1366   25.8841 H   0  0  0  0  0  0
  -20.9335  -29.8655   21.6877 H   0  0  0  0  0  0
  -26.0209  -38.2850   24.1397 H   0  0  0  0  0  0
  -28.9326  -17.4816   22.6615 H   0  0  0  0  0  0
  -30.2463  -18.7119   22.2941 H   0  0  0  0  0  0
  -27.9331  -17.8643   20.3766 H   0  0  0  0  0  0
  -31.0648  -17.3468   20.3720 H   0  0  0  0  0  0
  -27.3778  -23.6877   20.2191 H   0  0  0  0  0  0
  -28.9486  -23.8891   20.9727 H   0  0  0  0  0  0
  -27.9781  -25.4093   18.4381 H   0  0  0  0  0  0
  -29.5844  -25.4456   19.0203 H   0  0  0  0  0  0
  -29.4588  -23.2223   18.2962 H   0  0  0  0  0  0
  -28.8584  -15.3859   21.1230 H   0  0  0  0  0  0
  1 25  1  0  0  0
  1 30  2  0  0  0
  1 82  1  0  0  0
  2  3  1  0  0  0
  2 25  1  0  0  0
  2 83  1  0  0  0
  2 84  1  0  0  0
  3  4  1  0  0  0
  3 85  1  0  0  0
  3 86  1  0  0  0
  4  5  1  0  0  0
  4 87  1  0  0  0
  4 88  1  0  0  0
  5  6  1  0  0  0
  5 26  1  0  0  0
  5 89  1  0  0  0
  6 25  1  0  0  0
  6 90  1  0  0  0
  6 91  1  0  0  0
  7  8  2  0  0  0
  7 26  1  0  0  0
  7 29  1  0  0  0
  8  9  1  0  0  0
  8 22  1  0  0  0
  9 10  1  0  0  0
  9 27  2  0  0  0
 10 11  2  0  0  0
 10 15  1  0  0  0
 11 12  1  0  0  0
 11 92  1  0  0  0
 12 13  2  0  0  0
 12 93  1  0  0  0
 13 14  1  0  0  0
 13 31  1  0  0  0
 14 15  2  0  0  0
 14 94  1  0  0  0
 15 95  1  0  0  0
 16 17  2  0  0  0
 16 21  1  0  0  0
 16 31  1  0  0  0
 17 18  1  0  0  0
 17 96  1  0  0  0
 18 19  2  0  0  0
 18 97  1  0  0  0
 19 20  1  0  0  0
 19 24  1  0  0  0
 20 21  2  0  0  0
 20 98  1  0  0  0
 21 23  1  0  0  0
 22 28  1  0  0  0
 22 32  2  0  0  0
 26 27  1  0  0  0
 28 99  1  0  0  0
 28100  1  0  0  0
 29101  1  0  0  0
 29102  1  0  0  0
 33 34  1  0  0  0
 33 66  1  0  0  0
 33 70  2  0  0  0
 34 36  1  0  0  0
 34 59  1  0  0  0
 34103  1  0  0  0
 35 44  2  0  0  0
 35 45  1  0  0  0
 35 68  1  0  0  0
 36 56  1  0  0  0
 36104  1  0  0  0
 37 39  1  0  0  0
 37 47  1  0  0  0
 37 66  1  0  0  0
 37105  1  0  0  0
 38 43  2  0  0  0
 38 46  1  0  0  0
 38 47  1  0  0  0
 39 64  1  0  0  0
 39 67  2  0  0  0
 40 52  1  0  0  0
 40 53  2  0  0  0
 40 58  1  0  0  0
 41106  1  0  0  0
 41107  1  0  0  0
 41108  1  0  0  0
 41 48  1  0  0  0
 42 43  1  0  0  0
 42 66  1  0  0  0
 42109  1  0  0  0
 42110  1  0  0  0
 43 44  1  0  0  0
 44111  1  0  0  0
 45 46  2  0  0  0
 45112  1  0  0  0
 46113  1  0  0  0
 47114  1  0  0  0
 47115  1  0  0  0
 48 56  1  0  0  0
 48 65  1  0  0  0
 48116  1  0  0  0
 49 50  1  0  0  0
 49 53  1  0  0  0
 49 64  1  0  0  0
 49117  1  0  0  0
 50 51  1  0  0  0
 50118  1  0  0  0
 50119  1  0  0  0
 51 52  1  0  0  0
 51120  1  0  0  0
 51121  1  0  0  0
 52122  1  0  0  0
 52123  1  0  0  0
 53 54  1  0  0  0
 54 55  2  0  0  0
 54124  1  0  0  0
 55 57  1  0  0  0
 55125  1  0  0  0
 56 69  2  0  0  0
 57 58  2  0  0  0
 57126  1  0  0  0
 58127  1  0  0  0
 59 60  1  0  0  0
 59 61  1  0  0  0
 59 62  1  0  0  0
 60128  1  0  0  0
 60129  1  0  0  0
 60130  1  0  0  0
 61131  1  0  0  0
 61132  1  0  0  0
 61133  1  0  0  0
 62134  1  0  0  0
 62135  1  0  0  0
 62136  1  0  0  0
 63 65  1  0  0  0
 63137  1  0  0  0
 63138  1  0  0  0
 63139  1  0  0  0
 64140  1  0  0  0
 65141  1  0  0  0
 68 76  1  0  0  0
 71 77  1  0  0  0
 71 78  2  0  0  0
 71 81  1  0  0  0
 72 73  1  0  0  0
 72 74  1  0  0  0
 72142  1  0  0  0
 72143  1  0  0  0
 73 74  1  0  0  0
 73 80  1  0  0  0
 73144  1  0  0  0
 74 82  1  0  0  0
 74145  1  0  0  0
 75 76  1  0  0  0
 75 81  1  0  0  0
 75146  1  0  0  0
 75147  1  0  0  0
 76148  1  0  0  0
 76149  1  0  0  0
 77 79  2  0  0  0
 78 80  1  0  0  0
 79 80  1  0  0  0
 81150  1  0  0  0
 82151  1  0  0  0
M  ISO  4   1 100  68 101  76 101  82 100
M  END
> <chiral flag>
0

> <version>
0

> <s_m_source_file>
/data/baiqing/PycharmProjects/Reinvent-master-3.2/result/LINK_invent/BTK/process_docking_weight1_custom_sum_contain_oxygen_bond_distance_aromatic_linkinvent_7_9_3/rearranged_h_0191.sdf

> <i_m_source_file_index>
19

> <r_mmod_Potential_Energy-OPLS-2005>
-53.3545074462891

> <r_mmod_Stretch_Energy-OPLS-2005>
58.5361633300781

> <r_mmod_Bend_Energy-OPLS-2005>
158.373245239258

> <r_mmod_Torsional_Energy-OPLS-2005>
258.328094482422

> <r_mmod_Improper_Torsional_Energy-OPLS-2005>
6.39896202087402

> <r_mmod_Van_der_Waal_Energy-OPLS-2005>
120.288497924805

> <r_mmod_Electrostatic_Energy-OPLS-2005>
-444.038513183594

> <r_mmod_Solvation_Energy-OPLS-2005>
-246.157501220703

> <b_mmod_Minimization_Converged-OPLS-2005>
0

> <r_mmod_RMS_Derivative-OPLS-2005>
3.99562811851501

$$$$
19
                    3D
 Structure written by MMmdl.
156164  0  0  1  0            999 V2000
  -30.6581  -14.6463   20.4807 C   0  0  0  0  0  0
  -30.4287  -12.3927   19.4659 C   0  0  0  0  0  0
  -29.5098  -12.4926   18.2294 C   0  0  0  0  0  0
  -28.0324  -12.3386   18.6400 C   0  0  0  0  0  0
  -27.6512  -13.2247   19.8570 C   0  0  2  0  0  0
  -28.6953  -13.1198   20.9928 C   0  0  0  0  0  0
  -25.2562  -13.8181   20.5672 C   0  0  0  0  0  0
  -24.1841  -13.0443   20.9180 C   0  0  0  0  0  0
  -24.6415  -11.6911   20.8734 C   0  0  0  0  0  0
  -23.9079  -10.4295   21.0401 C   0  0  0  0  0  0
  -24.3625   -9.4208   21.9181 C   0  0  0  0  0  0
  -23.6292   -8.2249   22.0754 C   0  0  0  0  0  0
  -22.4278   -8.0288   21.3539 C   0  0  0  0  0  0
  -21.9910   -9.0266   20.4648 C   0  0  0  0  0  0
  -22.7247  -10.2139   20.3055 C   0  0  0  0  0  0
  -21.6854   -6.0736   22.5276 C   0  0  0  0  0  0
  -21.4019   -6.5642   23.8210 C   0  0  0  0  0  0
  -21.3657   -5.6795   24.9172 C   0  0  0  0  0  0
  -21.6044   -4.3057   24.7221 C   0  0  0  0  0  0
  -21.8818   -3.8146   23.4345 C   0  0  0  0  0  0
  -21.9192   -4.6961   22.3401 C   0  0  0  0  0  0
  -22.7865  -13.5230   21.1852 C   0  0  0  0  0  0
  -22.1660   -4.2148   21.0977 F   0  0  0  0  0  0
  -21.5621   -3.4540   25.7733 F   0  0  0  0  0  0
  -30.0089  -13.4407   20.4194 N   0  0  0  0  0  0
  -26.2991  -12.9380   20.3291 N   0  0  0  0  0  0
  -25.9346  -11.6526   20.5756 N   0  0  0  0  0  0
  -22.0512  -12.8225   22.0410 N   0  0  0  0  0  0
  -25.4274  -15.1904   20.4062 N   0  0  0  0  0  0
  -31.8323  -14.7523   20.1192 O   0  0  0  0  0  0
  -21.6643   -6.8883   21.4238 O   0  0  0  0  0  0
  -22.3554  -14.5549   20.6711 O   0  0  0  0  0  0
  -24.6264  -31.8608   23.2040 C   0  0  0  0  0  0
  -25.9114  -32.4781   23.8359 C   0  0  1  0  0  0
  -27.2186  -27.3041   20.1164 C   0  0  0  0  0  0
  -25.5928  -33.8582   24.2284 N   0  0  0  0  0  0
  -23.4205  -30.4837   21.5484 C   0  0  2  0  0  0
  -24.8673  -28.9447   20.1064 C   0  0  0  0  0  0
  -22.7471  -29.4620   22.4957 C   0  0  0  0  0  0
  -18.0289  -28.1364   22.8492 C   0  0  0  0  0  0
  -24.1490  -36.7283   23.2637 C   0  0  0  0  0  0
  -25.9634  -30.7828   21.3817 C   0  0  0  0  0  0
  -26.0347  -29.4102   20.7231 C   0  0  0  0  0  0
  -27.2105  -28.5994   20.7255 C   0  0  0  0  0  0
  -26.0354  -26.9162   19.4431 C   0  0  0  0  0  0
  -24.8721  -27.7047   19.4539 C   0  0  0  0  0  0
  -23.6340  -29.8229   20.1614 C   0  0  0  0  0  0
  -25.4116  -36.3082   24.0328 C   0  0  1  0  0  0
  -20.5887  -28.3677   23.1303 C   0  0  2  0  0  0
  -20.6804  -26.9413   22.5397 C   0  0  0  0  0  0
  -19.5762  -26.6381   21.5218 C   0  0  0  0  0  0
  -18.1937  -26.7920   22.1614 C   0  0  0  0  0  0
  -19.1534  -28.8838   23.2887 C   0  0  0  0  0  0
  -18.9443  -30.1451   23.8883 C   0  0  0  0  0  0
  -17.6437  -30.6576   24.0529 C   0  0  0  0  0  0
  -25.9057  -34.9451   23.5106 C   0  0  0  0  0  0
  -16.5336  -29.9055   23.6313 C   0  0  0  0  0  0
  -16.7272  -28.6470   23.0350 C   0  0  0  0  0  0
  -26.4483  -31.6591   25.0734 C   0  0  0  0  0  0
  -25.3695  -31.3750   26.1447 C   0  0  0  0  0  0
  -27.0326  -30.3009   24.6204 C   0  0  0  0  0  0
  -27.6044  -32.4320   25.7499 C   0  0  0  0  0  0
  -27.5576  -37.1798   24.8467 C   0  0  0  0  0  0
  -21.4182  -29.3044   22.3698 N   0  0  0  0  0  0
  -26.4292  -37.3776   23.9404 N   0  0  0  0  0  0
  -24.6884  -31.0603   22.1004 N   0  0  0  0  0  0
  -23.4190  -28.8149   23.3032 O   0  0  0  0  0  0
  -28.3203  -26.4282   20.2044 O   0  0  0  0  0  0
  -26.5627  -34.8917   22.4674 O   0  0  0  0  0  0
  -23.5432  -32.1413   23.7367 O   0  0  0  0  0  0
  -27.5502  -21.8303   19.4206 C   0  0  0  0  0  0
  -27.5400  -21.0134   20.7088 C   0  0  0  0  0  0
  -28.9035  -22.3681   19.8861 C   0  0  1  0  0  0
  -28.9662  -23.8169   20.5733 C   0  0  0  0  0  0
  -29.3812  -18.4174   20.7910 C   0  0  0  0  0  0
  -30.3267  -17.1927   20.3814 C   0  0  0  0  0  0
  -29.7359  -19.8733   20.1980 C   0  0  0  0  0  0
  -28.1382  -24.9886   19.8651 C   0  0  0  0  0  0
  -29.9139  -15.7744   20.7182 N   0  0  0  0  0  0
  -29.0029  -21.1056   20.7418 N   0  3  2  0  0  0
  -31.4740  -12.4922   19.1688 H   0  0  0  0  0  0
  -30.3447  -11.4078   19.9280 H   0  0  0  0  0  0
  -29.7773  -11.7227   17.5040 H   0  0  0  0  0  0
  -29.6588  -13.4508   17.7289 H   0  0  0  0  0  0
  -27.8708  -11.2877   18.8827 H   0  0  0  0  0  0
  -27.3803  -12.5567   17.7933 H   0  0  0  0  0  0
  -27.6601  -14.2540   19.4970 H   0  0  0  0  0  0
  -28.7056  -12.1144   21.4166 H   0  0  0  0  0  0
  -28.4453  -13.7927   21.8141 H   0  0  0  0  0  0
  -25.2770   -9.5678   22.4754 H   0  0  0  0  0  0
  -23.9993   -7.4639   22.7480 H   0  0  0  0  0  0
  -21.0832   -8.8790   19.8960 H   0  0  0  0  0  0
  -22.3706  -10.9676   19.6165 H   0  0  0  0  0  0
  -21.2025   -7.6152   23.9712 H   0  0  0  0  0  0
  -21.1476   -6.0528   25.9074 H   0  0  0  0  0  0
  -22.0599   -2.7609   23.2848 H   0  0  0  0  0  0
  -22.4128  -11.9877   22.4780 H   0  0  0  0  0  0
  -21.1137  -13.1253   22.2637 H   0  0  0  0  0  0
  -24.6598  -15.8442   20.5145 H   0  0  0  0  0  0
  -26.2709  -15.6248   20.0544 H   0  0  0  0  0  0
  -26.7174  -32.5440   23.1098 H   0  0  0  0  0  0
  -25.0056  -33.9722   25.0417 H   0  0  0  0  0  0
  -22.7166  -31.3060   21.4088 H   0  0  0  0  0  0
  -23.3754  -35.9617   23.3308 H   0  0  0  0  0  0
  -24.3582  -36.8892   22.2051 H   0  0  0  0  0  0
  -23.7245  -37.6485   23.6657 H   0  0  0  0  0  0
  -26.1013  -31.5443   20.6128 H   0  0  0  0  0  0
  -26.8429  -30.8301   22.0116 H   0  0  0  0  0  0
  -28.0992  -28.9468   21.2338 H   0  0  0  0  0  0
  -25.9698  -25.9878   18.8985 H   0  0  0  0  0  0
  -23.9868  -27.3520   18.9442 H   0  0  0  0  0  0
  -23.7434  -30.6014   19.4053 H   0  0  0  0  0  0
  -22.7562  -29.2479   19.8616 H   0  0  0  0  0  0
  -25.1296  -36.1928   25.0821 H   0  0  0  0  0  0
  -20.9986  -28.3249   24.1422 H   0  0  0  0  0  0
  -21.6654  -26.7493   22.1120 H   0  0  0  0  0  0
  -20.5797  -26.2262   23.3573 H   0  0  0  0  0  0
  -19.6930  -25.6300   21.1228 H   0  0  0  0  0  0
  -19.6705  -27.3199   20.6757 H   0  0  0  0  0  0
  -17.4229  -26.6717   21.3985 H   0  0  0  0  0  0
  -18.0287  -26.0037   22.8975 H   0  0  0  0  0  0
  -19.7913  -30.7278   24.2244 H   0  0  0  0  0  0
  -17.4972  -31.6265   24.5101 H   0  0  0  0  0  0
  -15.5329  -30.2938   23.7626 H   0  0  0  0  0  0
  -15.8676  -28.0776   22.7074 H   0  0  0  0  0  0
  -24.5869  -30.7103   25.7765 H   0  0  0  0  0  0
  -24.8884  -32.2931   26.4834 H   0  0  0  0  0  0
  -25.7994  -30.8940   27.0240 H   0  0  0  0  0  0
  -26.2916  -29.6764   24.1200 H   0  0  0  0  0  0
  -27.3981  -29.7257   25.4720 H   0  0  0  0  0  0
  -27.8804  -30.4279   23.9468 H   0  0  0  0  0  0
  -27.2651  -33.3617   26.2075 H   0  0  0  0  0  0
  -28.3849  -32.6878   25.0324 H   0  0  0  0  0  0
  -28.0708  -31.8439   26.5408 H   0  0  0  0  0  0
  -28.2600  -38.0088   24.7498 H   0  0  0  0  0  0
  -28.1060  -36.2614   24.6312 H   0  0  0  0  0  0
  -27.2285  -37.1468   25.8868 H   0  0  0  0  0  0
  -20.9358  -29.8739   21.6889 H   0  0  0  0  0  0
  -26.0168  -38.2848   24.1406 H   0  0  0  0  0  0
  -26.7435  -22.5577   19.3452 H   0  0  0  0  0  0
  -27.6201  -21.2170   18.5189 H   0  0  0  0  0  0
  -27.1186  -20.0150   20.6058 H   0  0  0  0  0  0
  -27.0827  -21.5457   21.5449 H   0  0  0  0  0  0
  -29.6139  -22.3134   19.0608 H   0  0  0  0  0  0
  -30.0090  -24.1285   20.6418 H   0  0  0  0  0  0
  -28.6180  -23.7512   21.6044 H   0  0  0  0  0  0
  -29.3549  -18.4804   21.8789 H   0  0  0  0  0  0
  -28.3659  -18.1623   20.4868 H   0  0  0  0  0  0
  -30.4679  -17.2243   19.2998 H   0  0  0  0  0  0
  -31.3169  -17.3676   20.8062 H   0  0  0  0  0  0
  -29.5917  -19.8389   19.1180 H   0  0  0  0  0  0
  -30.8004  -20.0590   20.3405 H   0  0  0  0  0  0
  -27.1070  -24.7040   20.0644 H   0  0  0  0  0  0
  -28.2826  -24.9050   18.7879 H   0  0  0  0  0  0
  -28.9542  -15.6209   20.9909 H   0  0  0  0  0  0
  -29.3266  -21.3037   21.6778 H   0  0  0  0  0  0
  1 25  1  0  0  0
  1 30  2  0  0  0
  1 79  1  0  0  0
  2  3  1  0  0  0
  2 25  1  0  0  0
  2 81  1  0  0  0
  2 82  1  0  0  0
  3  4  1  0  0  0
  3 83  1  0  0  0
  3 84  1  0  0  0
  4  5  1  0  0  0
  4 85  1  0  0  0
  4 86  1  0  0  0
  5  6  1  0  0  0
  5 26  1  0  0  0
  5 87  1  0  0  0
  6 25  1  0  0  0
  6 88  1  0  0  0
  6 89  1  0  0  0
  7  8  2  0  0  0
  7 26  1  0  0  0
  7 29  1  0  0  0
  8  9  1  0  0  0
  8 22  1  0  0  0
  9 10  1  0  0  0
  9 27  2  0  0  0
 10 11  2  0  0  0
 10 15  1  0  0  0
 11 12  1  0  0  0
 11 90  1  0  0  0
 12 13  2  0  0  0
 12 91  1  0  0  0
 13 14  1  0  0  0
 13 31  1  0  0  0
 14 15  2  0  0  0
 14 92  1  0  0  0
 15 93  1  0  0  0
 16 17  2  0  0  0
 16 21  1  0  0  0
 16 31  1  0  0  0
 17 18  1  0  0  0
 17 94  1  0  0  0
 18 19  2  0  0  0
 18 95  1  0  0  0
 19 20  1  0  0  0
 19 24  1  0  0  0
 20 21  2  0  0  0
 20 96  1  0  0  0
 21 23  1  0  0  0
 22 28  1  0  0  0
 22 32  2  0  0  0
 26 27  1  0  0  0
 28 97  1  0  0  0
 28 98  1  0  0  0
 29 99  1  0  0  0
 29100  1  0  0  0
 33 34  1  0  0  0
 33 66  1  0  0  0
 33 70  2  0  0  0
 34 36  1  0  0  0
 34 59  1  0  0  0
 34101  1  0  0  0
 35 44  2  0  0  0
 35 45  1  0  0  0
 35 68  1  0  0  0
 36 56  1  0  0  0
 36102  1  0  0  0
 37 39  1  0  0  0
 37 47  1  0  0  0
 37 66  1  0  0  0
 37103  1  0  0  0
 38 43  2  0  0  0
 38 46  1  0  0  0
 38 47  1  0  0  0
 39 64  1  0  0  0
 39 67  2  0  0  0
 40 52  1  0  0  0
 40 53  2  0  0  0
 40 58  1  0  0  0
 41104  1  0  0  0
 41105  1  0  0  0
 41106  1  0  0  0
 41 48  1  0  0  0
 42 43  1  0  0  0
 42 66  1  0  0  0
 42107  1  0  0  0
 42108  1  0  0  0
 43 44  1  0  0  0
 44109  1  0  0  0
 45 46  2  0  0  0
 45110  1  0  0  0
 46111  1  0  0  0
 47112  1  0  0  0
 47113  1  0  0  0
 48 56  1  0  0  0
 48 65  1  0  0  0
 48114  1  0  0  0
 49 50  1  0  0  0
 49 53  1  0  0  0
 49 64  1  0  0  0
 49115  1  0  0  0
 50 51  1  0  0  0
 50116  1  0  0  0
 50117  1  0  0  0
 51 52  1  0  0  0
 51118  1  0  0  0
 51119  1  0  0  0
 52120  1  0  0  0
 52121  1  0  0  0
 53 54  1  0  0  0
 54 55  2  0  0  0
 54122  1  0  0  0
 55 57  1  0  0  0
 55123  1  0  0  0
 56 69  2  0  0  0
 57 58  2  0  0  0
 57124  1  0  0  0
 58125  1  0  0  0
 59 60  1  0  0  0
 59 61  1  0  0  0
 59 62  1  0  0  0
 60126  1  0  0  0
 60127  1  0  0  0
 60128  1  0  0  0
 61129  1  0  0  0
 61130  1  0  0  0
 61131  1  0  0  0
 62132  1  0  0  0
 62133  1  0  0  0
 62134  1  0  0  0
 63 65  1  0  0  0
 63135  1  0  0  0
 63136  1  0  0  0
 63137  1  0  0  0
 64138  1  0  0  0
 65139  1  0  0  0
 68 78  1  0  0  0
 71 72  1  0  0  0
 71 73  1  0  0  0
 71140  1  0  0  0
 71141  1  0  0  0
 72 80  1  0  0  0
 72142  1  0  0  0
 72143  1  0  0  0
 73 74  1  0  0  0
 73 80  1  0  0  0
 73144  1  0  0  0
 74 78  1  0  0  0
 74145  1  0  0  0
 74146  1  0  0  0
 75 76  1  0  0  0
 75 77  1  0  0  0
 75147  1  0  0  0
 75148  1  0  0  0
 76 79  1  0  0  0
 76149  1  0  0  0
 76150  1  0  0  0
 77151  1  0  0  0
 77152  1  0  0  0
 77 80  1  0  0  0
 78153  1  0  0  0
 78154  1  0  0  0
 79155  1  0  0  0
 80156  1  0  0  0
M  CHG  1  80   1
M  ISO  4   1 100  68 101  78 101  79 100
M  END
> <chiral flag>
0

> <version>
0

> <s_m_source_file>
/data/baiqing/PycharmProjects/Reinvent-master-3.2/result/LINK_invent/BTK/process_docking_weight1_custom_sum_contain_oxygen_bond_distance_aromatic_linkinvent_7_9_3/rearranged_h_0191.sdf

> <i_m_source_file_index>
20

> <r_mmod_Potential_Energy-OPLS-2005>
-8.82276344299316

> <r_mmod_Stretch_Energy-OPLS-2005>
98.3110275268555

> <r_mmod_Bend_Energy-OPLS-2005>
156.137725830078

> <r_mmod_Torsional_Energy-OPLS-2005>
245.005966186523

> <r_mmod_Improper_Torsional_Energy-OPLS-2005>
5.74890089035034

> <r_mmod_Van_der_Waal_Energy-OPLS-2005>
131.310363769531

> <r_mmod_Electrostatic_Energy-OPLS-2005>
-230.020874023438

> <r_mmod_Solvation_Energy-OPLS-2005>
-472.457092285156

> <b_mmod_Minimization_Converged-OPLS-2005>
0

> <r_mmod_RMS_Derivative-OPLS-2005>
1.4629442691803

$$$$
20
                    3D
 Structure written by MMmdl.
162171  0  0  1  0            999 V2000
  -30.7287  -14.7796   20.4146 C   0  0  0  0  0  0
  -30.3854  -12.4875   19.4933 C   0  0  0  0  0  0
  -29.5109  -12.4807   18.2180 C   0  0  0  0  0  0
  -28.0103  -12.7273   18.5061 C   0  0  0  0  0  0
  -27.7071  -12.7780   20.0108 C   0  0  2  0  0  0
  -28.6739  -13.4469   20.9851 C   0  0  0  0  0  0
  -25.3039  -13.7558   20.5547 C   0  0  0  0  0  0
  -24.1857  -13.0391   20.9138 C   0  0  0  0  0  0
  -24.5765  -11.6703   20.8934 C   0  0  0  0  0  0
  -23.8467  -10.4230   21.0641 C   0  0  0  0  0  0
  -24.3239   -9.4153   21.9303 C   0  0  0  0  0  0
  -23.6080   -8.2127   22.0791 C   0  0  0  0  0  0
  -22.4107   -8.0123   21.3523 C   0  0  0  0  0  0
  -21.9625   -9.0072   20.4658 C   0  0  0  0  0  0
  -22.6783  -10.2035   20.3176 C   0  0  0  0  0  0
  -21.6765   -6.0651   22.5277 C   0  0  0  0  0  0
  -21.3943   -6.5624   23.8188 C   0  0  0  0  0  0
  -21.3661   -5.6819   24.9194 C   0  0  0  0  0  0
  -21.6074   -4.3077   24.7286 C   0  0  0  0  0  0
  -21.8825   -3.8120   23.4417 C   0  0  0  0  0  0
  -21.9169   -4.6900   22.3447 C   0  0  0  0  0  0
  -22.8024  -13.5540   21.1828 C   0  0  0  0  0  0
  -22.1653   -4.2088   21.1027 F   0  0  0  0  0  0
  -21.5667   -3.4586   25.7819 F   0  0  0  0  0  0
  -29.9750  -13.6363   20.3428 N   0  0  0  0  0  0
  -26.3033  -12.7936   20.3786 N   0  0  0  0  0  0
  -25.8401  -11.5556   20.5960 N   0  0  0  0  0  0
  -22.0657  -12.8711   22.0536 N   0  0  0  0  0  0
  -25.5364  -15.1141   20.3644 N   0  0  0  0  0  0
  -31.9221  -14.7373   20.1259 O   0  0  0  0  0  0
  -21.6540   -6.8712   21.4189 O   0  0  0  0  0  0
  -22.3795  -14.5791   20.6541 O   0  0  0  0  0  0
  -24.6255  -31.8558   23.1969 C   0  0  0  0  0  0
  -25.9096  -32.4746   23.8307 C   0  0  1  0  0  0
  -27.2191  -27.2839   20.1205 C   0  0  0  0  0  0
  -25.5894  -33.8548   24.2221 N   0  0  0  0  0  0
  -23.4210  -30.4780   21.5403 C   0  0  2  0  0  0
  -24.8665  -28.9207   20.1062 C   0  0  0  0  0  0
  -22.7469  -29.4606   22.4921 C   0  0  0  0  0  0
  -18.0301  -28.1388   22.8507 C   0  0  0  0  0  0
  -24.1515  -36.7275   23.2643 C   0  0  0  0  0  0
  -25.9624  -30.7725   21.3767 C   0  0  0  0  0  0
  -26.0335  -29.3983   20.7139 C   0  0  0  0  0  0
  -27.2085  -28.5882   20.7131 C   0  0  0  0  0  0
  -26.0341  -26.8621   19.4827 C   0  0  0  0  0  0
  -24.8695  -27.6585   19.4851 C   0  0  0  0  0  0
  -23.6362  -29.8068   20.1565 C   0  0  0  0  0  0
  -25.4144  -36.3061   24.0316 C   0  0  1  0  0  0
  -20.5901  -28.3678   23.1291 C   0  0  2  0  0  0
  -20.6794  -26.9406   22.5423 C   0  0  0  0  0  0
  -19.5763  -26.6386   21.5230 C   0  0  0  0  0  0
  -18.1947  -26.7931   22.1647 C   0  0  0  0  0  0
  -19.1555  -28.8854   23.2892 C   0  0  0  0  0  0
  -18.9469  -30.1466   23.8889 C   0  0  0  0  0  0
  -17.6466  -30.6583   24.0573 C   0  0  0  0  0  0
  -25.9070  -34.9430   23.5077 C   0  0  0  0  0  0
  -16.5360  -29.9078   23.6345 C   0  0  0  0  0  0
  -16.7286  -28.6509   23.0346 C   0  0  0  0  0  0
  -26.4503  -31.6567   25.0681 C   0  0  0  0  0  0
  -25.3735  -31.3659   26.1396 C   0  0  0  0  0  0
  -27.0358  -30.2990   24.6157 C   0  0  0  0  0  0
  -27.6063  -32.4306   25.7419 C   0  0  0  0  0  0
  -27.5596  -37.1800   24.8470 C   0  0  0  0  0  0
  -21.4184  -29.3012   22.3657 N   0  0  0  0  0  0
  -26.4322  -37.3757   23.9387 N   0  0  0  0  0  0
  -24.6876  -31.0557   22.0926 N   0  0  0  0  0  0
  -23.4195  -28.8167   23.3018 O   0  0  0  0  0  0
  -28.3350  -26.4353   20.2316 O   0  0  0  0  0  0
  -26.5685  -34.8914   22.4675 O   0  0  0  0  0  0
  -23.5415  -32.1363   23.7290 O   0  0  0  0  0  0
  -28.4915  -18.1611   18.6133 C   0  0  0  0  0  0
  -28.9440  -16.7007   18.6868 C   0  0  0  0  0  0
  -26.7875  -23.9918   21.3902 C   0  0  0  0  0  0
  -28.0237  -22.2324   22.2053 C   0  0  0  0  0  0
  -29.3213  -18.4675   19.8760 C   0  0  2  0  0  0
  -27.7650  -23.6933   20.2430 C   0  0  2  0  0  0
  -29.0961  -16.8840   20.2046 C   0  0  2  0  0  0
  -28.6218  -22.4273   20.7948 C   0  0  2  0  0  0
  -28.8460  -19.7452   20.7350 C   0  0  0  0  0  0
  -28.4358  -25.0523   19.6641 C   0  0  0  0  0  0
  -27.4468  -23.5105   22.5912 N   0  0  0  0  0  0
  -30.2058  -16.0130   20.7624 N   0  0  0  0  0  0
  -28.6341  -21.0953   20.0144 N   0  3  0  0  0  0
  -31.4394  -12.5151   19.2122 H   0  0  0  0  0  0
  -30.2630  -11.5593   20.0531 H   0  0  0  0  0  0
  -29.6388  -11.5280   17.7034 H   0  0  0  0  0  0
  -29.8694  -13.2434   17.5259 H   0  0  0  0  0  0
  -27.4107  -11.9457   18.0365 H   0  0  0  0  0  0
  -27.6932  -13.6621   18.0432 H   0  0  0  0  0  0
  -28.0165  -11.7500   20.2278 H   0  0  0  0  0  0
  -28.7902  -12.8552   21.8947 H   0  0  0  0  0  0
  -28.2576  -14.4018   21.3042 H   0  0  0  0  0  0
  -25.2401   -9.5698   22.4833 H   0  0  0  0  0  0
  -23.9853   -7.4541   22.7503 H   0  0  0  0  0  0
  -21.0550   -8.8521   19.8968 H   0  0  0  0  0  0
  -22.3213  -10.9587   19.6330 H   0  0  0  0  0  0
  -21.1879   -7.6127   23.9659 H   0  0  0  0  0  0
  -21.1487   -6.0575   25.9084 H   0  0  0  0  0  0
  -22.0602   -2.7574   23.2948 H   0  0  0  0  0  0
  -22.4249  -12.0466   22.5093 H   0  0  0  0  0  0
  -21.1390  -13.1964   22.2860 H   0  0  0  0  0  0
  -24.7976  -15.8043   20.4262 H   0  0  0  0  0  0
  -26.3934  -15.4773   19.9693 H   0  0  0  0  0  0
  -26.7141  -32.5408   23.1028 H   0  0  0  0  0  0
  -24.9967  -33.9690   25.0309 H   0  0  0  0  0  0
  -22.7138  -31.2974   21.3946 H   0  0  0  0  0  0
  -23.3778  -35.9605   23.3310 H   0  0  0  0  0  0
  -24.3597  -36.8910   22.2057 H   0  0  0  0  0  0
  -23.7286  -37.6473   23.6679 H   0  0  0  0  0  0
  -26.1156  -31.5389   20.6158 H   0  0  0  0  0  0
  -26.8317  -30.8057   22.0208 H   0  0  0  0  0  0
  -28.1004  -28.9422   21.2099 H   0  0  0  0  0  0
  -25.9817  -25.8895   19.0168 H   0  0  0  0  0  0
  -23.9714  -27.2828   19.0145 H   0  0  0  0  0  0
  -23.7554  -30.5799   19.3960 H   0  0  0  0  0  0
  -22.7543  -29.2387   19.8551 H   0  0  0  0  0  0
  -25.1348  -36.1896   25.0811 H   0  0  0  0  0  0
  -21.0012  -28.3264   24.1404 H   0  0  0  0  0  0
  -20.5727  -26.2282   23.3621 H   0  0  0  0  0  0
  -21.6656  -26.7463   22.1198 H   0  0  0  0  0  0
  -19.6916  -25.6297   21.1251 H   0  0  0  0  0  0
  -19.6689  -27.3208   20.6769 H   0  0  0  0  0  0
  -17.4221  -26.6690   21.4044 H   0  0  0  0  0  0
  -18.0337  -26.0066   22.9038 H   0  0  0  0  0  0
  -19.7936  -30.7310   24.2224 H   0  0  0  0  0  0
  -17.5007  -31.6260   24.5170 H   0  0  0  0  0  0
  -15.5351  -30.2966   23.7665 H   0  0  0  0  0  0
  -15.8700  -28.0826   22.7029 H   0  0  0  0  0  0
  -24.5912  -30.7040   25.7678 H   0  0  0  0  0  0
  -24.8939  -32.2802   26.4886 H   0  0  0  0  0  0
  -25.8060  -30.8755   27.0132 H   0  0  0  0  0  0
  -26.2922  -29.6686   24.1276 H   0  0  0  0  0  0
  -27.4154  -29.7299   25.4659 H   0  0  0  0  0  0
  -27.8753  -30.4272   23.9321 H   0  0  0  0  0  0
  -27.2687  -33.3595   26.2022 H   0  0  0  0  0  0
  -28.3826  -32.6899   25.0202 H   0  0  0  0  0  0
  -28.0795  -31.8432   26.5299 H   0  0  0  0  0  0
  -28.2627  -38.0087   24.7505 H   0  0  0  0  0  0
  -28.1095  -36.2619   24.6330 H   0  0  0  0  0  0
  -27.2306  -37.1479   25.8875 H   0  0  0  0  0  0
  -20.9354  -29.8684   21.6835 H   0  0  0  0  0  0
  -26.0200  -38.2839   24.1348 H   0  0  0  0  0  0
  -28.8071  -18.6913   17.7139 H   0  0  0  0  0  0
  -27.4168  -18.2665   18.7704 H   0  0  0  0  0  0
  -29.8887  -16.5450   18.1581 H   0  0  0  0  0  0
  -28.1912  -15.9771   18.3770 H   0  0  0  0  0  0
  -25.8626  -23.4276   21.2470 H   0  0  0  0  0  0
  -26.5164  -25.0417   21.4809 H   0  0  0  0  0  0
  -28.7537  -21.8873   22.9386 H   0  0  0  0  0  0
  -27.2122  -21.5035   22.1803 H   0  0  0  0  0  0
  -30.3584  -18.6118   19.5672 H   0  0  0  0  0  0
  -27.1509  -23.3195   19.4227 H   0  0  0  0  0  0
  -28.1437  -16.7263   20.7129 H   0  0  0  0  0  0
  -29.6602  -22.7439   20.9137 H   0  0  0  0  0  0
  -29.5790  -19.9086   21.5257 H   0  0  0  0  0  0
  -27.9147  -19.4961   21.2452 H   0  0  0  0  0  0
  -29.5086  -24.8577   19.6383 H   0  0  0  0  0  0
  -28.1725  -25.1290   18.6079 H   0  0  0  0  0  0
  -26.7769  -23.3990   23.3505 H   0  0  0  0  0  0
  -30.9659  -16.5957   21.0853 H   0  0  0  0  0  0
  -27.7642  -21.0232   19.5140 H   0  0  0  0  0  0
  -29.3559  -21.1848   19.3183 H   0  0  0  0  0  0
  1 25  1  0  0  0
  1 30  2  0  0  0
  1 82  1  0  0  0
  2  3  1  0  0  0
  2 25  1  0  0  0
  2 84  1  0  0  0
  2 85  1  0  0  0
  3  4  1  0  0  0
  3 86  1  0  0  0
  3 87  1  0  0  0
  4  5  1  0  0  0
  4 88  1  0  0  0
  4 89  1  0  0  0
  5  6  1  0  0  0
  5 26  1  0  0  0
  5 90  1  0  0  0
  6 25  1  0  0  0
  6 91  1  0  0  0
  6 92  1  0  0  0
  7  8  2  0  0  0
  7 26  1  0  0  0
  7 29  1  0  0  0
  8  9  1  0  0  0
  8 22  1  0  0  0
  9 10  1  0  0  0
  9 27  2  0  0  0
 10 11  2  0  0  0
 10 15  1  0  0  0
 11 12  1  0  0  0
 11 93  1  0  0  0
 12 13  2  0  0  0
 12 94  1  0  0  0
 13 14  1  0  0  0
 13 31  1  0  0  0
 14 15  2  0  0  0
 14 95  1  0  0  0
 15 96  1  0  0  0
 16 17  2  0  0  0
 16 21  1  0  0  0
 16 31  1  0  0  0
 17 18  1  0  0  0
 17 97  1  0  0  0
 18 19  2  0  0  0
 18 98  1  0  0  0
 19 20  1  0  0  0
 19 24  1  0  0  0
 20 21  2  0  0  0
 20 99  1  0  0  0
 21 23  1  0  0  0
 22 28  1  0  0  0
 22 32  2  0  0  0
 26 27  1  0  0  0
 28100  1  0  0  0
 28101  1  0  0  0
 29102  1  0  0  0
 29103  1  0  0  0
 33 34  1  0  0  0
 33 66  1  0  0  0
 33 70  2  0  0  0
 34 36  1  0  0  0
 34 59  1  0  0  0
 34104  1  0  0  0
 35 44  2  0  0  0
 35 45  1  0  0  0
 35 68  1  0  0  0
 36 56  1  0  0  0
 36105  1  0  0  0
 37 39  1  0  0  0
 37 47  1  0  0  0
 37 66  1  0  0  0
 37106  1  0  0  0
 38 43  2  0  0  0
 38 46  1  0  0  0
 38 47  1  0  0  0
 39 64  1  0  0  0
 39 67  2  0  0  0
 40 52  1  0  0  0
 40 53  2  0  0  0
 40 58  1  0  0  0
 41107  1  0  0  0
 41108  1  0  0  0
 41109  1  0  0  0
 41 48  1  0  0  0
 42 43  1  0  0  0
 42 66  1  0  0  0
 42110  1  0  0  0
 42111  1  0  0  0
 43 44  1  0  0  0
 44112  1  0  0  0
 45 46  2  0  0  0
 45113  1  0  0  0
 46114  1  0  0  0
 47115  1  0  0  0
 47116  1  0  0  0
 48 56  1  0  0  0
 48 65  1  0  0  0
 48117  1  0  0  0
 49 50  1  0  0  0
 49 53  1  0  0  0
 49 64  1  0  0  0
 49118  1  0  0  0
 50 51  1  0  0  0
 50119  1  0  0  0
 50120  1  0  0  0
 51 52  1  0  0  0
 51121  1  0  0  0
 51122  1  0  0  0
 52123  1  0  0  0
 52124  1  0  0  0
 53 54  1  0  0  0
 54 55  2  0  0  0
 54125  1  0  0  0
 55 57  1  0  0  0
 55126  1  0  0  0
 56 69  2  0  0  0
 57 58  2  0  0  0
 57127  1  0  0  0
 58128  1  0  0  0
 59 60  1  0  0  0
 59 61  1  0  0  0
 59 62  1  0  0  0
 60129  1  0  0  0
 60130  1  0  0  0
 60131  1  0  0  0
 61132  1  0  0  0
 61133  1  0  0  0
 61134  1  0  0  0
 62135  1  0  0  0
 62136  1  0  0  0
 62137  1  0  0  0
 63 65  1  0  0  0
 63138  1  0  0  0
 63139  1  0  0  0
 63140  1  0  0  0
 64141  1  0  0  0
 65142  1  0  0  0
 68 80  1  0  0  0
 71 72  1  0  0  0
 71 75  1  0  0  0
 71143  1  0  0  0
 71144  1  0  0  0
 72 77  1  0  0  0
 72145  1  0  0  0
 72146  1  0  0  0
 73 76  1  0  0  0
 73 81  1  0  0  0
 73147  1  0  0  0
 73148  1  0  0  0
 74 78  1  0  0  0
 74 81  1  0  0  0
 74149  1  0  0  0
 74150  1  0  0  0
 75 77  1  0  0  0
 75 79  1  0  0  0
 75151  1  0  0  0
 76 78  1  0  0  0
 76 80  1  0  0  0
 76152  1  0  0  0
 77 82  1  0  0  0
 77153  1  0  0  0
 78 83  1  0  0  0
 78154  1  0  0  0
 79 83  1  0  0  0
 79155  1  0  0  0
 79156  1  0  0  0
 80157  1  0  0  0
 80158  1  0  0  0
 81159  1  0  0  0
 82160  1  0  0  0
 83161  1  0  0  0
 83162  1  0  0  0
M  CHG  1  83   1
M  ISO  4   1 100  68 101  80 101  82 100
M  END
> <chiral flag>
0

> <version>
0

> <s_m_source_file>
/data/baiqing/PycharmProjects/Reinvent-master-3.2/result/LINK_invent/BTK/process_docking_weight1_custom_sum_contain_oxygen_bond_distance_aromatic_linkinvent_7_9_3/rearranged_h_0191.sdf

> <i_m_source_file_index>
21

> <r_mmod_Potential_Energy-OPLS-2005>
387.998748779297

> <r_mmod_Stretch_Energy-OPLS-2005>
118.893119812012

> <r_mmod_Bend_Energy-OPLS-2005>
299.241882324219

> <r_mmod_Torsional_Energy-OPLS-2005>
396.288208007812

> <r_mmod_Improper_Torsional_Energy-OPLS-2005>
4.60894823074341

> <r_mmod_Van_der_Waal_Energy-OPLS-2005>
121.511741638184

> <r_mmod_Electrostatic_Energy-OPLS-2005>
-211.284439086914

> <r_mmod_Solvation_Energy-OPLS-2005>
-496.084747314453

> <b_mmod_Minimization_Converged-OPLS-2005>
0

> <r_mmod_RMS_Derivative-OPLS-2005>
3.43419146537781

$$$$
21
                    3D
 Structure written by MMmdl.
161170  0  0  1  0            999 V2000
  -30.7010  -14.5066   20.5054 C   0  0  0  0  0  0
  -30.4185  -12.3123   19.4274 C   0  0  0  0  0  0
  -29.4896  -12.4849   18.2073 C   0  0  0  0  0  0
  -28.0106  -12.3546   18.6231 C   0  0  0  0  0  0
  -27.6536  -13.2107   19.8682 C   0  0  2  0  0  0
  -28.7036  -13.0264   20.9880 C   0  0  0  0  0  0
  -25.2557  -13.8172   20.5706 C   0  0  0  0  0  0
  -24.1816  -13.0443   20.9202 C   0  0  0  0  0  0
  -24.6371  -11.6914   20.8749 C   0  0  0  0  0  0
  -23.9045  -10.4292   21.0405 C   0  0  0  0  0  0
  -24.3597   -9.4207   21.9184 C   0  0  0  0  0  0
  -23.6275   -8.2240   22.0750 C   0  0  0  0  0  0
  -22.4258   -8.0272   21.3538 C   0  0  0  0  0  0
  -21.9891   -9.0250   20.4647 C   0  0  0  0  0  0
  -22.7214  -10.2133   20.3061 C   0  0  0  0  0  0
  -21.6847   -6.0729   22.5274 C   0  0  0  0  0  0
  -21.4014   -6.5639   23.8207 C   0  0  0  0  0  0
  -21.3660   -5.6792   24.9170 C   0  0  0  0  0  0
  -21.6046   -4.3054   24.7220 C   0  0  0  0  0  0
  -21.8820   -3.8144   23.4341 C   0  0  0  0  0  0
  -21.9191   -4.6959   22.3396 C   0  0  0  0  0  0
  -22.7840  -13.5235   21.1863 C   0  0  0  0  0  0
  -22.1662   -4.2148   21.0971 F   0  0  0  0  0  0
  -21.5627   -3.4538   25.7734 F   0  0  0  0  0  0
  -30.0222  -13.3281   20.4153 N   0  0  0  0  0  0
  -26.2984  -12.9345   20.3371 N   0  0  0  0  0  0
  -25.9299  -11.6501   20.5796 N   0  0  0  0  0  0
  -22.0477  -12.8228   22.0417 N   0  0  0  0  0  0
  -25.4272  -15.1893   20.4110 N   0  0  0  0  0  0
  -31.8903  -14.5905   20.1821 O   0  0  0  0  0  0
  -21.6630   -6.8863   21.4230 O   0  0  0  0  0  0
  -22.3523  -14.5531   20.6699 O   0  0  0  0  0  0
  -24.6169  -31.8679   23.2091 C   0  0  0  0  0  0
  -25.9053  -32.4825   23.8396 C   0  0  1  0  0  0
  -27.2303  -27.4175   20.0952 C   0  0  0  0  0  0
  -25.5899  -33.8622   24.2334 N   0  0  0  0  0  0
  -23.4050  -30.4926   21.5506 C   0  0  2  0  0  0
  -24.8496  -28.9569   20.1161 C   0  0  0  0  0  0
  -22.7423  -29.4666   22.4985 C   0  0  0  0  0  0
  -18.0275  -28.1384   22.8500 C   0  0  0  0  0  0
  -24.1486  -36.7314   23.2636 C   0  0  0  0  0  0
  -25.9367  -30.8298   21.3636 C   0  0  0  0  0  0
  -26.0127  -29.4641   20.7075 C   0  0  0  0  0  0
  -27.2080  -28.7051   20.6860 C   0  0  0  0  0  0
  -26.0442  -26.9294   19.5003 C   0  0  0  0  0  0
  -24.8608  -27.6907   19.5087 C   0  0  0  0  0  0
  -23.6132  -29.8266   20.1653 C   0  0  0  0  0  0
  -25.4107  -36.3112   24.0337 C   0  0  1  0  0  0
  -20.5870  -28.3679   23.1311 C   0  0  2  0  0  0
  -20.6763  -26.9416   22.5413 C   0  0  0  0  0  0
  -19.5739  -26.6394   21.5213 C   0  0  0  0  0  0
  -18.1921  -26.7927   22.1634 C   0  0  0  0  0  0
  -19.1526  -28.8849   23.2902 C   0  0  0  0  0  0
  -18.9449  -30.1450   23.8922 C   0  0  0  0  0  0
  -17.6449  -30.6591   24.0568 C   0  0  0  0  0  0
  -25.9038  -34.9474   23.5137 C   0  0  0  0  0  0
  -16.5341  -29.9094   23.6322 C   0  0  0  0  0  0
  -16.7262  -28.6506   23.0354 C   0  0  0  0  0  0
  -26.4473  -31.6600   25.0728 C   0  0  0  0  0  0
  -25.3733  -31.3702   26.1472 C   0  0  0  0  0  0
  -27.0298  -30.3037   24.6111 C   0  0  0  0  0  0
  -27.6057  -32.4312   25.7486 C   0  0  0  0  0  0
  -27.5584  -37.1812   24.8466 C   0  0  0  0  0  0
  -21.4150  -29.3041   22.3710 N   0  0  0  0  0  0
  -26.4298  -37.3794   23.9408 N   0  0  0  0  0  0
  -24.6713  -31.0773   22.0997 N   0  0  0  0  0  0
  -23.4186  -28.8205   23.3035 O   0  0  0  0  0  0
  -28.3983  -26.6756   20.1069 O   0  0  0  0  0  0
  -26.5599  -34.8919   22.4700 O   0  0  0  0  0  0
  -23.5354  -32.1434   23.7476 O   0  0  0  0  0  0
  -30.3926  -22.4766   21.6525 C   0  0  0  0  0  0
  -29.2240  -21.0688   20.6828 C   0  0  0  0  0  0
  -29.2063  -17.7038   19.1515 C   0  0  0  0  0  0
  -29.2835  -17.7765   21.6680 C   0  0  0  0  0  0
  -30.1157  -16.4655   19.1927 C   0  0  0  0  0  0
  -29.1709  -16.2241   21.5099 C   0  0  0  0  0  0
  -29.4763  -18.5961   20.3651 C   0  0  0  0  0  0
  -31.3990  -23.1485   22.5271 C   0  0  0  0  0  0
  -29.6399  -24.5765   20.4229 C   0  0  0  0  0  0
  -28.2749  -25.2361   20.1206 C   0  0  0  0  0  0
  -30.1785  -21.1615   21.6474 N   0  0  0  0  0  0
  -28.8516  -22.2237   20.1264 N   0  0  0  0  0  0
  -29.6202  -23.1448   20.7787 N   0  0  0  0  0  0
  -29.9294  -15.6237   20.3911 N   0  0  0  0  0  0
  -28.6712  -19.8248   20.3046 N   0  0  0  0  0  0
  -31.4623  -12.4018   19.1197 H   0  0  0  0  0  0
  -30.3185  -11.3125   19.8519 H   0  0  0  0  0  0
  -29.7273  -11.7426   17.4435 H   0  0  0  0  0  0
  -29.6564  -13.4585   17.7457 H   0  0  0  0  0  0
  -27.8186  -11.3013   18.8328 H   0  0  0  0  0  0
  -27.3602  -12.6198   17.7881 H   0  0  0  0  0  0
  -27.6801  -14.2508   19.5459 H   0  0  0  0  0  0
  -28.6884  -12.0010   21.3587 H   0  0  0  0  0  0
  -28.4803  -13.6544   21.8496 H   0  0  0  0  0  0
  -25.2736   -9.5692   22.4764 H   0  0  0  0  0  0
  -23.9993   -7.4630   22.7462 H   0  0  0  0  0  0
  -21.0831   -8.8758   19.8948 H   0  0  0  0  0  0
  -22.3659  -10.9672   19.6180 H   0  0  0  0  0  0
  -21.2005   -7.6150   23.9707 H   0  0  0  0  0  0
  -21.1484   -6.0524   25.9073 H   0  0  0  0  0  0
  -22.0598   -2.7607   23.2839 H   0  0  0  0  0  0
  -22.4080  -11.9899   22.4835 H   0  0  0  0  0  0
  -21.1092  -13.1263   22.2612 H   0  0  0  0  0  0
  -24.6638  -15.8473   20.5233 H   0  0  0  0  0  0
  -26.2851  -15.6257   20.0988 H   0  0  0  0  0  0
  -26.7129  -32.5537   23.1160 H   0  0  0  0  0  0
  -25.0039  -33.9787   25.0471 H   0  0  0  0  0  0
  -22.6940  -31.3097   21.4111 H   0  0  0  0  0  0
  -23.3744  -35.9654   23.3316 H   0  0  0  0  0  0
  -24.3579  -36.8913   22.2049 H   0  0  0  0  0  0
  -23.7241  -37.6524   23.6639 H   0  0  0  0  0  0
  -26.0530  -31.5974   20.5969 H   0  0  0  0  0  0
  -26.8230  -30.8808   21.9848 H   0  0  0  0  0  0
  -28.1091  -29.0962   21.1377 H   0  0  0  0  0  0
  -26.0131  -25.9630   19.0189 H   0  0  0  0  0  0
  -23.9658  -27.2970   19.0474 H   0  0  0  0  0  0
  -23.7247  -30.6019   19.4062 H   0  0  0  0  0  0
  -22.7365  -29.2479   19.8681 H   0  0  0  0  0  0
  -25.1281  -36.1985   25.0830 H   0  0  0  0  0  0
  -20.9963  -28.3248   24.1431 H   0  0  0  0  0  0
  -20.5677  -26.2290   23.3600 H   0  0  0  0  0  0
  -21.6631  -26.7458   22.1200 H   0  0  0  0  0  0
  -19.6898  -25.6308   21.1238 H   0  0  0  0  0  0
  -19.6672  -27.3210   20.6745 H   0  0  0  0  0  0
  -17.4184  -26.6676   21.4040 H   0  0  0  0  0  0
  -18.0329  -26.0068   22.9033 H   0  0  0  0  0  0
  -19.7922  -30.7257   24.2311 H   0  0  0  0  0  0
  -17.5003  -31.6274   24.5163 H   0  0  0  0  0  0
  -15.5345  -30.3005   23.7622 H   0  0  0  0  0  0
  -15.8659  -28.0821   22.7068 H   0  0  0  0  0  0
  -24.5901  -30.7061   25.7793 H   0  0  0  0  0  0
  -24.8929  -32.2855   26.4938 H   0  0  0  0  0  0
  -25.8077  -30.8846   27.0220 H   0  0  0  0  0  0
  -26.2847  -29.6819   24.1134 H   0  0  0  0  0  0
  -27.4021  -29.7254   25.4578 H   0  0  0  0  0  0
  -27.8703  -30.4348   23.9292 H   0  0  0  0  0  0
  -27.2681  -33.3588   26.2122 H   0  0  0  0  0  0
  -28.3830  -32.6919   25.0290 H   0  0  0  0  0  0
  -28.0770  -31.8406   26.5353 H   0  0  0  0  0  0
  -28.2605  -38.0105   24.7505 H   0  0  0  0  0  0
  -28.1073  -36.2636   24.6298 H   0  0  0  0  0  0
  -27.2301  -37.1469   25.8868 H   0  0  0  0  0  0
  -20.9311  -29.8763   21.6931 H   0  0  0  0  0  0
  -26.0190  -38.2876   24.1400 H   0  0  0  0  0  0
  -28.1602  -17.3964   19.1184 H   0  0  0  0  0  0
  -29.3986  -18.2544   18.2300 H   0  0  0  0  0  0
  -28.3980  -18.1217   22.2045 H   0  0  0  0  0  0
  -30.1179  -18.0039   22.3326 H   0  0  0  0  0  0
  -31.1557  -16.7926   19.1311 H   0  0  0  0  0  0
  -29.9327  -15.8591   18.3046 H   0  0  0  0  0  0
  -28.1236  -15.9703   21.3469 H   0  0  0  0  0  0
  -29.4464  -15.7530   22.4559 H   0  0  0  0  0  0
  -30.5284  -18.8833   20.3085 H   0  0  0  0  0  0
  -31.9602  -22.4130   23.1039 H   0  0  0  0  0  0
  -30.8988  -23.8223   23.2222 H   0  0  0  0  0  0
  -32.1027  -23.7224   21.9235 H   0  0  0  0  0  0
  -30.0959  -25.1228   21.2480 H   0  0  0  0  0  0
  -30.3081  -24.7033   19.5707 H   0  0  0  0  0  0
  -27.5497  -24.9389   20.8808 H   0  0  0  0  0  0
  -27.9148  -24.8721   19.1575 H   0  0  0  0  0  0
  -28.0154  -19.8931   19.5339 H   0  0  0  0  0  0
  1 25  1  0  0  0
  1 30  2  0  0  0
  1 84  1  0  0  0
  2  3  1  0  0  0
  2 25  1  0  0  0
  2 86  1  0  0  0
  2 87  1  0  0  0
  3  4  1  0  0  0
  3 88  1  0  0  0
  3 89  1  0  0  0
  4  5  1  0  0  0
  4 90  1  0  0  0
  4 91  1  0  0  0
  5  6  1  0  0  0
  5 26  1  0  0  0
  5 92  1  0  0  0
  6 25  1  0  0  0
  6 93  1  0  0  0
  6 94  1  0  0  0
  7  8  2  0  0  0
  7 26  1  0  0  0
  7 29  1  0  0  0
  8  9  1  0  0  0
  8 22  1  0  0  0
  9 10  1  0  0  0
  9 27  2  0  0  0
 10 11  2  0  0  0
 10 15  1  0  0  0
 11 12  1  0  0  0
 11 95  1  0  0  0
 12 13  2  0  0  0
 12 96  1  0  0  0
 13 14  1  0  0  0
 13 31  1  0  0  0
 14 15  2  0  0  0
 14 97  1  0  0  0
 15 98  1  0  0  0
 16 17  2  0  0  0
 16 21  1  0  0  0
 16 31  1  0  0  0
 17 18  1  0  0  0
 17 99  1  0  0  0
 18 19  2  0  0  0
 18100  1  0  0  0
 19 20  1  0  0  0
 19 24  1  0  0  0
 20 21  2  0  0  0
 20101  1  0  0  0
 21 23  1  0  0  0
 22 28  1  0  0  0
 22 32  2  0  0  0
 26 27  1  0  0  0
 28102  1  0  0  0
 28103  1  0  0  0
 29104  1  0  0  0
 29105  1  0  0  0
 33 34  1  0  0  0
 33 66  1  0  0  0
 33 70  2  0  0  0
 34 36  1  0  0  0
 34 59  1  0  0  0
 34106  1  0  0  0
 35 44  2  0  0  0
 35 45  1  0  0  0
 35 68  1  0  0  0
 36 56  1  0  0  0
 36107  1  0  0  0
 37 39  1  0  0  0
 37 47  1  0  0  0
 37 66  1  0  0  0
 37108  1  0  0  0
 38 43  2  0  0  0
 38 46  1  0  0  0
 38 47  1  0  0  0
 39 64  1  0  0  0
 39 67  2  0  0  0
 40 52  1  0  0  0
 40 53  2  0  0  0
 40 58  1  0  0  0
 41109  1  0  0  0
 41110  1  0  0  0
 41111  1  0  0  0
 41 48  1  0  0  0
 42 43  1  0  0  0
 42 66  1  0  0  0
 42112  1  0  0  0
 42113  1  0  0  0
 43 44  1  0  0  0
 44114  1  0  0  0
 45 46  2  0  0  0
 45115  1  0  0  0
 46116  1  0  0  0
 47117  1  0  0  0
 47118  1  0  0  0
 48 56  1  0  0  0
 48 65  1  0  0  0
 48119  1  0  0  0
 49 50  1  0  0  0
 49 53  1  0  0  0
 49 64  1  0  0  0
 49120  1  0  0  0
 50 51  1  0  0  0
 50121  1  0  0  0
 50122  1  0  0  0
 51 52  1  0  0  0
 51123  1  0  0  0
 51124  1  0  0  0
 52125  1  0  0  0
 52126  1  0  0  0
 53 54  1  0  0  0
 54 55  2  0  0  0
 54127  1  0  0  0
 55 57  1  0  0  0
 55128  1  0  0  0
 56 69  2  0  0  0
 57 58  2  0  0  0
 57129  1  0  0  0
 58130  1  0  0  0
 59 60  1  0  0  0
 59 61  1  0  0  0
 59 62  1  0  0  0
 60131  1  0  0  0
 60132  1  0  0  0
 60133  1  0  0  0
 61134  1  0  0  0
 61135  1  0  0  0
 61136  1  0  0  0
 62137  1  0  0  0
 62138  1  0  0  0
 62139  1  0  0  0
 63 65  1  0  0  0
 63140  1  0  0  0
 63141  1  0  0  0
 63142  1  0  0  0
 64143  1  0  0  0
 65144  1  0  0  0
 68 80  1  0  0  0
 71 78  1  0  0  0
 71 81  2  0  0  0
 71 83  1  0  0  0
 72 81  1  0  0  0
 72 82  2  0  0  0
 72 85  1  0  0  0
 73 75  1  0  0  0
 73 77  1  0  0  0
 73145  1  0  0  0
 73146  1  0  0  0
 74 76  1  0  0  0
 74 77  1  0  0  0
 74147  1  0  0  0
 74148  1  0  0  0
 75 84  1  0  0  0
 75149  1  0  0  0
 75150  1  0  0  0
 76 84  1  0  0  0
 76151  1  0  0  0
 76152  1  0  0  0
 77 85  1  0  0  0
 77153  1  0  0  0
 78154  1  0  0  0
 78155  1  0  0  0
 78156  1  0  0  0
 79 80  1  0  0  0
 79 83  1  0  0  0
 79157  1  0  0  0
 79158  1  0  0  0
 80159  1  0  0  0
 80160  1  0  0  0
 82 83  1  0  0  0
 85161  1  0  0  0
M  ISO  4   1 100  68 101  80 101  84 100
M  END
> <chiral flag>
0

> <version>
0

> <s_m_source_file>
/data/baiqing/PycharmProjects/Reinvent-master-3.2/result/LINK_invent/BTK/process_docking_weight1_custom_sum_contain_oxygen_bond_distance_aromatic_linkinvent_7_9_3/rearranged_h_0191.sdf

> <i_m_source_file_index>
22

> <r_mmod_Potential_Energy-OPLS-2005>
31.6029853820801

> <r_mmod_Stretch_Energy-OPLS-2005>
41.5429992675781

> <r_mmod_Bend_Energy-OPLS-2005>
116.727355957031

> <r_mmod_Torsional_Energy-OPLS-2005>
346.149932861328

> <r_mmod_Improper_Torsional_Energy-OPLS-2005>
22.8839511871338

> <r_mmod_Van_der_Waal_Energy-OPLS-2005>
133.445922851562

> <r_mmod_Electrostatic_Energy-OPLS-2005>
-426.431915283203

> <r_mmod_Solvation_Energy-OPLS-2005>
-223.673690795898

> <b_mmod_Minimization_Converged-OPLS-2005>
0

> <r_mmod_RMS_Derivative-OPLS-2005>
1.52077627182007

$$$$
22
                    3D
 Structure written by MMmdl.
163172  0  0  1  0            999 V2000
  -30.6965  -14.4908   20.5347 C   0  0  0  0  0  0
  -30.4295  -12.3092   19.4222 C   0  0  0  0  0  0
  -29.4964  -12.4845   18.2056 C   0  0  0  0  0  0
  -28.0198  -12.3394   18.6249 C   0  0  0  0  0  0
  -27.6606  -13.1972   19.8670 C   0  0  2  0  0  0
  -28.7066  -13.0085   20.9892 C   0  0  0  0  0  0
  -25.2600  -13.8146   20.5673 C   0  0  0  0  0  0
  -24.1830  -13.0442   20.9157 C   0  0  0  0  0  0
  -24.6369  -11.6902   20.8715 C   0  0  0  0  0  0
  -23.9039  -10.4292   21.0402 C   0  0  0  0  0  0
  -24.3602   -9.4205   21.9174 C   0  0  0  0  0  0
  -23.6279   -8.2237   22.0752 C   0  0  0  0  0  0
  -22.4250   -8.0281   21.3551 C   0  0  0  0  0  0
  -21.9877   -9.0255   20.4660 C   0  0  0  0  0  0
  -22.7207  -10.2137   20.3059 C   0  0  0  0  0  0
  -21.6849   -6.0711   22.5272 C   0  0  0  0  0  0
  -21.4021   -6.5621   23.8205 C   0  0  0  0  0  0
  -21.3664   -5.6779   24.9170 C   0  0  0  0  0  0
  -21.6042   -4.3038   24.7220 C   0  0  0  0  0  0
  -21.8831   -3.8129   23.4347 C   0  0  0  0  0  0
  -21.9193   -4.6941   22.3397 C   0  0  0  0  0  0
  -22.7857  -13.5259   21.1815 C   0  0  0  0  0  0
  -22.1661   -4.2125   21.0972 F   0  0  0  0  0  0
  -21.5626   -3.4530   25.7739 F   0  0  0  0  0  0
  -30.0345  -13.3063   20.4275 N   0  0  0  0  0  0
  -26.3020  -12.9294   20.3338 N   0  0  0  0  0  0
  -25.9293  -11.6470   20.5744 N   0  0  0  0  0  0
  -22.0490  -12.8291   22.0397 N   0  0  0  0  0  0
  -25.4340  -15.1868   20.4102 N   0  0  0  0  0  0
  -31.8469  -14.6576   20.1203 O   0  0  0  0  0  0
  -21.6631   -6.8865   21.4241 O   0  0  0  0  0  0
  -22.3551  -14.5555   20.6639 O   0  0  0  0  0  0
  -24.6142  -31.8667   23.2079 C   0  0  0  0  0  0
  -25.9030  -32.4818   23.8381 C   0  0  1  0  0  0
  -27.2409  -27.4247   20.1098 C   0  0  0  0  0  0
  -25.5876  -33.8617   24.2303 N   0  0  0  0  0  0
  -23.4043  -30.4878   21.5490 C   0  0  2  0  0  0
  -24.8553  -28.9486   20.1190 C   0  0  0  0  0  0
  -22.7413  -29.4651   22.5003 C   0  0  0  0  0  0
  -18.0273  -28.1384   22.8497 C   0  0  0  0  0  0
  -24.1478  -36.7319   23.2648 C   0  0  0  0  0  0
  -25.9338  -30.8305   21.3615 C   0  0  0  0  0  0
  -26.0151  -29.4635   20.7115 C   0  0  0  0  0  0
  -27.2143  -28.7105   20.6967 C   0  0  0  0  0  0
  -26.0653  -26.9273   19.5067 C   0  0  0  0  0  0
  -24.8759  -27.6816   19.5102 C   0  0  0  0  0  0
  -23.6151  -29.8143   20.1669 C   0  0  0  0  0  0
  -25.4105  -36.3109   24.0337 C   0  0  1  0  0  0
  -20.5855  -28.3669   23.1331 C   0  0  2  0  0  0
  -20.6756  -26.9402   22.5437 C   0  0  0  0  0  0
  -19.5742  -26.6390   21.5221 C   0  0  0  0  0  0
  -18.1913  -26.7935   22.1618 C   0  0  0  0  0  0
  -19.1516  -28.8845   23.2909 C   0  0  0  0  0  0
  -18.9448  -30.1448   23.8923 C   0  0  0  0  0  0
  -17.6450  -30.6589   24.0575 C   0  0  0  0  0  0
  -25.9029  -34.9474   23.5131 C   0  0  0  0  0  0
  -16.5342  -29.9096   23.6329 C   0  0  0  0  0  0
  -16.7260  -28.6512   23.0354 C   0  0  0  0  0  0
  -26.4477  -31.6614   25.0711 C   0  0  0  0  0  0
  -25.3753  -31.3730   26.1475 C   0  0  0  0  0  0
  -27.0333  -30.3057   24.6109 C   0  0  0  0  0  0
  -27.6058  -32.4362   25.7439 C   0  0  0  0  0  0
  -27.5584  -37.1810   24.8464 C   0  0  0  0  0  0
  -21.4133  -29.3029   22.3732 N   0  0  0  0  0  0
  -26.4296  -37.3790   23.9414 N   0  0  0  0  0  0
  -24.6689  -31.0770   22.0979 N   0  0  0  0  0  0
  -23.4187  -28.8192   23.3035 O   0  0  0  0  0  0
  -28.4010  -26.6740   20.1064 O   0  0  0  0  0  0
  -26.5614  -34.8929   22.4700 O   0  0  0  0  0  0
  -23.5330  -32.1425   23.7466 O   0  0  0  0  0  0
  -29.6633  -16.1334   22.0656 C   0  0  0  0  0  0
  -29.6010  -16.4877   19.6164 C   0  0  0  0  0  0
  -30.2495  -17.5605   22.2270 C   0  0  0  0  0  0
  -30.2027  -17.8989   19.8056 C   0  0  0  0  0  0
  -29.3887  -22.3877   21.5659 C   0  0  0  0  0  0
  -29.1376  -21.7067   19.6646 C   0  0  0  0  0  0
  -29.2312  -20.9597   21.0094 C   0  0  1  0  0  0
  -30.3098  -19.8888   21.3114 C   0  0  0  0  0  0
  -28.9317  -24.2297   19.8763 C   0  0  0  0  0  0
  -28.3130  -25.3713   20.7284 C   0  0  0  0  0  0
  -29.8949  -15.5666   20.7301 N   0  0  0  0  0  0
  -29.8419  -18.4774   21.1250 N   0  3  0  0  0  0
  -28.6217  -22.8669   20.4102 N   0  3  2  0  0  0
  -31.4721  -12.4116   19.1152 H   0  0  0  0  0  0
  -30.3394  -11.3051   19.8388 H   0  0  0  0  0  0
  -29.7409  -11.7459   17.4403 H   0  0  0  0  0  0
  -29.6530  -13.4624   17.7488 H   0  0  0  0  0  0
  -27.8438  -11.2868   18.8468 H   0  0  0  0  0  0
  -27.3636  -12.5854   17.7889 H   0  0  0  0  0  0
  -27.6941  -14.2361   19.5431 H   0  0  0  0  0  0
  -28.6876  -11.9854   21.3666 H   0  0  0  0  0  0
  -28.4690  -13.6418   21.8443 H   0  0  0  0  0  0
  -25.2762   -9.5671   22.4731 H   0  0  0  0  0  0
  -23.9987   -7.4628   22.7472 H   0  0  0  0  0  0
  -21.0792   -8.8786   19.8974 H   0  0  0  0  0  0
  -22.3671  -10.9670   19.6162 H   0  0  0  0  0  0
  -21.2022   -7.6129   23.9706 H   0  0  0  0  0  0
  -21.1470   -6.0498   25.9070 H   0  0  0  0  0  0
  -22.0603   -2.7586   23.2846 H   0  0  0  0  0  0
  -22.4090  -11.9977   22.4841 H   0  0  0  0  0  0
  -21.1118  -13.1351   22.2602 H   0  0  0  0  0  0
  -24.6669  -15.8423   20.5122 H   0  0  0  0  0  0
  -26.2889  -15.6226   20.0924 H   0  0  0  0  0  0
  -26.7097  -32.5541   23.1147 H   0  0  0  0  0  0
  -24.9997  -33.9769   25.0430 H   0  0  0  0  0  0
  -22.6930  -31.3041   21.4064 H   0  0  0  0  0  0
  -23.3727  -35.9666   23.3324 H   0  0  0  0  0  0
  -24.3555  -36.8923   22.2056 H   0  0  0  0  0  0
  -23.7240  -37.6531   23.6663 H   0  0  0  0  0  0
  -26.0463  -31.5952   20.5915 H   0  0  0  0  0  0
  -26.8197  -30.8849   21.9827 H   0  0  0  0  0  0
  -28.1130  -29.1050   21.1495 H   0  0  0  0  0  0
  -26.0665  -25.9568   19.0318 H   0  0  0  0  0  0
  -23.9835  -27.2810   19.0489 H   0  0  0  0  0  0
  -23.7204  -30.5845   19.4018 H   0  0  0  0  0  0
  -22.7414  -29.2290   19.8757 H   0  0  0  0  0  0
  -25.1277  -36.1965   25.0828 H   0  0  0  0  0  0
  -20.9952  -28.3242   24.1451 H   0  0  0  0  0  0
  -20.5643  -26.2274   23.3626 H   0  0  0  0  0  0
  -21.6631  -26.7442   22.1239 H   0  0  0  0  0  0
  -19.6894  -25.6303   21.1246 H   0  0  0  0  0  0
  -19.6682  -27.3207   20.6757 H   0  0  0  0  0  0
  -17.4189  -26.6704   21.4009 H   0  0  0  0  0  0
  -18.0293  -26.0064   22.8997 H   0  0  0  0  0  0
  -19.7926  -30.7257   24.2296 H   0  0  0  0  0  0
  -17.5012  -31.6271   24.5183 H   0  0  0  0  0  0
  -15.5344  -30.3013   23.7640 H   0  0  0  0  0  0
  -15.8659  -28.0846   22.7061 H   0  0  0  0  0  0
  -24.5872  -30.7144   25.7807 H   0  0  0  0  0  0
  -24.9013  -32.2899   26.4993 H   0  0  0  0  0  0
  -25.8103  -30.8828   27.0192 H   0  0  0  0  0  0
  -26.2876  -29.6756   24.1253 H   0  0  0  0  0  0
  -27.4191  -29.7354   25.4568 H   0  0  0  0  0  0
  -27.8664  -30.4363   23.9199 H   0  0  0  0  0  0
  -27.2669  -33.3628   26.2086 H   0  0  0  0  0  0
  -28.3803  -32.7003   25.0226 H   0  0  0  0  0  0
  -28.0829  -31.8482   26.5287 H   0  0  0  0  0  0
  -28.2620  -38.0090   24.7502 H   0  0  0  0  0  0
  -28.1055  -36.2625   24.6286 H   0  0  0  0  0  0
  -27.2316  -37.1467   25.8872 H   0  0  0  0  0  0
  -20.9295  -29.8743   21.6946 H   0  0  0  0  0  0
  -26.0180  -38.2869   24.1406 H   0  0  0  0  0  0
  -28.5865  -16.1546   22.2378 H   0  0  0  0  0  0
  -30.0780  -15.4824   22.8390 H   0  0  0  0  0  0
  -29.9464  -16.0723   18.6672 H   0  0  0  0  0  0
  -28.5182  -16.5647   19.5171 H   0  0  0  0  0  0
  -31.3391  -17.5093   22.2737 H   0  0  0  0  0  0
  -29.9213  -17.9661   23.1854 H   0  0  0  0  0  0
  -29.8571  -18.5586   19.0064 H   0  0  0  0  0  0
  -31.2894  -17.8439   19.7133 H   0  0  0  0  0  0
  -30.4225  -22.7409   21.5714 H   0  0  0  0  0  0
  -28.9043  -22.5589   22.5273 H   0  0  0  0  0  0
  -28.4237  -21.2833   18.9579 H   0  0  0  0  0  0
  -30.1062  -21.8908   19.1937 H   0  0  0  0  0  0
  -28.2432  -20.5932   21.2997 H   0  0  0  0  0  0
  -30.6209  -20.0126   22.3501 H   0  0  0  0  0  0
  -31.2171  -20.0650   20.7320 H   0  0  0  0  0  0
  -30.0087  -24.3678   19.7807 H   0  0  0  0  0  0
  -28.5226  -24.2920   18.8688 H   0  0  0  0  0  0
  -28.8434  -25.4294   21.6793 H   0  0  0  0  0  0
  -27.2834  -25.1174   20.9842 H   0  0  0  0  0  0
  -28.8347  -18.5103   21.1628 H   0  0  0  0  0  0
  -27.6309  -22.7460   20.5671 H   0  0  0  0  0  0
  1 25  1  0  0  0
  1 30  2  0  0  0
  1 81  1  0  0  0
  2  3  1  0  0  0
  2 25  1  0  0  0
  2 84  1  0  0  0
  2 85  1  0  0  0
  3  4  1  0  0  0
  3 86  1  0  0  0
  3 87  1  0  0  0
  4  5  1  0  0  0
  4 88  1  0  0  0
  4 89  1  0  0  0
  5  6  1  0  0  0
  5 26  1  0  0  0
  5 90  1  0  0  0
  6 25  1  0  0  0
  6 91  1  0  0  0
  6 92  1  0  0  0
  7  8  2  0  0  0
  7 26  1  0  0  0
  7 29  1  0  0  0
  8  9  1  0  0  0
  8 22  1  0  0  0
  9 10  1  0  0  0
  9 27  2  0  0  0
 10 11  2  0  0  0
 10 15  1  0  0  0
 11 12  1  0  0  0
 11 93  1  0  0  0
 12 13  2  0  0  0
 12 94  1  0  0  0
 13 14  1  0  0  0
 13 31  1  0  0  0
 14 15  2  0  0  0
 14 95  1  0  0  0
 15 96  1  0  0  0
 16 17  2  0  0  0
 16 21  1  0  0  0
 16 31  1  0  0  0
 17 18  1  0  0  0
 17 97  1  0  0  0
 18 19  2  0  0  0
 18 98  1  0  0  0
 19 20  1  0  0  0
 19 24  1  0  0  0
 20 21  2  0  0  0
 20 99  1  0  0  0
 21 23  1  0  0  0
 22 28  1  0  0  0
 22 32  2  0  0  0
 26 27  1  0  0  0
 28100  1  0  0  0
 28101  1  0  0  0
 29102  1  0  0  0
 29103  1  0  0  0
 33 34  1  0  0  0
 33 66  1  0  0  0
 33 70  2  0  0  0
 34 36  1  0  0  0
 34 59  1  0  0  0
 34104  1  0  0  0
 35 44  2  0  0  0
 35 45  1  0  0  0
 35 68  1  0  0  0
 36 56  1  0  0  0
 36105  1  0  0  0
 37 39  1  0  0  0
 37 47  1  0  0  0
 37 66  1  0  0  0
 37106  1  0  0  0
 38 43  2  0  0  0
 38 46  1  0  0  0
 38 47  1  0  0  0
 39 64  1  0  0  0
 39 67  2  0  0  0
 40 52  1  0  0  0
 40 53  2  0  0  0
 40 58  1  0  0  0
 41107  1  0  0  0
 41108  1  0  0  0
 41109  1  0  0  0
 41 48  1  0  0  0
 42 43  1  0  0  0
 42 66  1  0  0  0
 42110  1  0  0  0
 42111  1  0  0  0
 43 44  1  0  0  0
 44112  1  0  0  0
 45 46  2  0  0  0
 45113  1  0  0  0
 46114  1  0  0  0
 47115  1  0  0  0
 47116  1  0  0  0
 48 56  1  0  0  0
 48 65  1  0  0  0
 48117  1  0  0  0
 49 50  1  0  0  0
 49 53  1  0  0  0
 49 64  1  0  0  0
 49118  1  0  0  0
 50 51  1  0  0  0
 50119  1  0  0  0
 50120  1  0  0  0
 51 52  1  0  0  0
 51121  1  0  0  0
 51122  1  0  0  0
 52123  1  0  0  0
 52124  1  0  0  0
 53 54  1  0  0  0
 54 55  2  0  0  0
 54125  1  0  0  0
 55 57  1  0  0  0
 55126  1  0  0  0
 56 69  2  0  0  0
 57 58  2  0  0  0
 57127  1  0  0  0
 58128  1  0  0  0
 59 60  1  0  0  0
 59 61  1  0  0  0
 59 62  1  0  0  0
 60129  1  0  0  0
 60130  1  0  0  0
 60131  1  0  0  0
 61132  1  0  0  0
 61133  1  0  0  0
 61134  1  0  0  0
 62135  1  0  0  0
 62136  1  0  0  0
 62137  1  0  0  0
 63 65  1  0  0  0
 63138  1  0  0  0
 63139  1  0  0  0
 63140  1  0  0  0
 64141  1  0  0  0
 65142  1  0  0  0
 68 80  1  0  0  0
 71 73  1  0  0  0
 71 81  1  0  0  0
 71143  1  0  0  0
 71144  1  0  0  0
 72 74  1  0  0  0
 72 81  1  0  0  0
 72145  1  0  0  0
 72146  1  0  0  0
 73 82  1  0  0  0
 73147  1  0  0  0
 73148  1  0  0  0
 74 82  1  0  0  0
 74149  1  0  0  0
 74150  1  0  0  0
 75 77  1  0  0  0
 75 83  1  0  0  0
 75151  1  0  0  0
 75152  1  0  0  0
 76 77  1  0  0  0
 76 83  1  0  0  0
 76153  1  0  0  0
 76154  1  0  0  0
 77 78  1  0  0  0
 77155  1  0  0  0
 78156  1  0  0  0
 78157  1  0  0  0
 78 82  1  0  0  0
 79 80  1  0  0  0
 79158  1  0  0  0
 79159  1  0  0  0
 79 83  1  0  0  0
 80160  1  0  0  0
 80161  1  0  0  0
 82162  1  0  0  0
 83163  1  0  0  0
M  CHG  2  82   1  83   1
M  ISO  4   1 100  68 101  80 101  81 100
M  END
> <chiral flag>
0

> <version>
0

> <s_m_source_file>
/data/baiqing/PycharmProjects/Reinvent-master-3.2/result/LINK_invent/BTK/process_docking_weight1_custom_sum_contain_oxygen_bond_distance_aromatic_linkinvent_7_9_3/rearranged_h_0191.sdf

> <i_m_source_file_index>
23

> <r_mmod_Potential_Energy-OPLS-2005>
-51.3990707397461

> <r_mmod_Stretch_Energy-OPLS-2005>
41.3991851806641

> <r_mmod_Bend_Energy-OPLS-2005>
111.503517150879

> <r_mmod_Torsional_Energy-OPLS-2005>
436.598052978516

> <r_mmod_Improper_Torsional_Energy-OPLS-2005>
12.4601459503174

> <r_mmod_Van_der_Waal_Energy-OPLS-2005>
129.371978759766

> <r_mmod_Electrostatic_Energy-OPLS-2005>
143.557464599609

> <r_mmod_Solvation_Energy-OPLS-2005>
-942.1982421875

> <b_mmod_Minimization_Converged-OPLS-2005>
0

> <r_mmod_RMS_Derivative-OPLS-2005>
2.28843259811401

$$$$
23
                    3D
 Structure written by MMmdl.
153162  0  0  1  0            999 V2000
  -30.6701  -14.5876   20.4929 C   0  0  0  0  0  0
  -30.4244  -12.3557   19.4525 C   0  0  0  0  0  0
  -29.5039  -12.4880   18.2209 C   0  0  0  0  0  0
  -28.0253  -12.3441   18.6336 C   0  0  0  0  0  0
  -27.6512  -13.2214   19.8589 C   0  0  2  0  0  0
  -28.6953  -13.0956   20.9901 C   0  0  0  0  0  0
  -25.2556  -13.8190   20.5705 C   0  0  0  0  0  0
  -24.1826  -13.0444   20.9190 C   0  0  0  0  0  0
  -24.6400  -11.6916   20.8737 C   0  0  0  0  0  0
  -23.9073  -10.4293   21.0403 C   0  0  0  0  0  0
  -24.3622   -9.4204   21.9178 C   0  0  0  0  0  0
  -23.6293   -8.2242   22.0755 C   0  0  0  0  0  0
  -22.4275   -8.0284   21.3543 C   0  0  0  0  0  0
  -21.9909   -9.0265   20.4650 C   0  0  0  0  0  0
  -22.7245  -10.2140   20.3055 C   0  0  0  0  0  0
  -21.6853   -6.0739   22.5285 C   0  0  0  0  0  0
  -21.4015   -6.5643   23.8219 C   0  0  0  0  0  0
  -21.3658   -5.6795   24.9180 C   0  0  0  0  0  0
  -21.6043   -4.3060   24.7227 C   0  0  0  0  0  0
  -21.8816   -3.8152   23.4347 C   0  0  0  0  0  0
  -21.9191   -4.6967   22.3404 C   0  0  0  0  0  0
  -22.7849  -13.5235   21.1854 C   0  0  0  0  0  0
  -22.1655   -4.2154   21.0978 F   0  0  0  0  0  0
  -21.5624   -3.4543   25.7734 F   0  0  0  0  0  0
  -30.0120  -13.3943   20.4132 N   0  0  0  0  0  0
  -26.2986  -12.9381   20.3323 N   0  0  0  0  0  0
  -25.9328  -11.6529   20.5759 N   0  0  0  0  0  0
  -22.0482  -12.8232   22.0407 N   0  0  0  0  0  0
  -25.4288  -15.1913   20.4143 N   0  0  0  0  0  0
  -31.8561  -14.6944   20.1713 O   0  0  0  0  0  0
  -21.6633   -6.8884   21.4246 O   0  0  0  0  0  0
  -22.3531  -14.5542   20.6705 O   0  0  0  0  0  0
  -24.6234  -31.8631   23.2058 C   0  0  0  0  0  0
  -25.9095  -32.4793   23.8377 C   0  0  1  0  0  0
  -27.2236  -27.3506   20.1088 C   0  0  0  0  0  0
  -25.5922  -33.8590   24.2301 N   0  0  0  0  0  0
  -23.4147  -30.4879   21.5487 C   0  0  2  0  0  0
  -24.8601  -28.9511   20.1107 C   0  0  0  0  0  0
  -22.7457  -29.4638   22.4958 C   0  0  0  0  0  0
  -18.0278  -28.1391   22.8484 C   0  0  0  0  0  0
  -24.1482  -36.7302   23.2638 C   0  0  0  0  0  0
  -25.9532  -30.8056   21.3706 C   0  0  0  0  0  0
  -26.0287  -29.4354   20.7129 C   0  0  0  0  0  0
  -27.2136  -28.6461   20.7040 C   0  0  0  0  0  0
  -26.0319  -26.9167   19.4792 C   0  0  0  0  0  0
  -24.8619  -27.6963   19.4857 C   0  0  0  0  0  0
  -23.6261  -29.8263   20.1624 C   0  0  0  0  0  0
  -25.4106  -36.3095   24.0332 C   0  0  1  0  0  0
  -20.5874  -28.3689   23.1296 C   0  0  2  0  0  0
  -20.6765  -26.9416   22.5412 C   0  0  0  0  0  0
  -19.5742  -26.6389   21.5214 C   0  0  0  0  0  0
  -18.1923  -26.7932   22.1626 C   0  0  0  0  0  0
  -19.1529  -28.8855   23.2886 C   0  0  0  0  0  0
  -18.9456  -30.1459   23.8903 C   0  0  0  0  0  0
  -17.6455  -30.6593   24.0566 C   0  0  0  0  0  0
  -25.9041  -34.9457   23.5115 C   0  0  0  0  0  0
  -16.5350  -29.9091   23.6328 C   0  0  0  0  0  0
  -16.7266  -28.6511   23.0349 C   0  0  0  0  0  0
  -26.4490  -31.6595   25.0733 C   0  0  0  0  0  0
  -25.3733  -31.3726   26.1464 C   0  0  0  0  0  0
  -27.0333  -30.3023   24.6163 C   0  0  0  0  0  0
  -27.6062  -32.4319   25.7505 C   0  0  0  0  0  0
  -27.5572  -37.1809   24.8468 C   0  0  0  0  0  0
  -21.4174  -29.3048   22.3701 N   0  0  0  0  0  0
  -26.4291  -37.3784   23.9402 N   0  0  0  0  0  0
  -24.6829  -31.0671   22.0996 N   0  0  0  0  0  0
  -23.4193  -28.8172   23.3022 O   0  0  0  0  0  0
  -28.3487  -26.5185   20.1659 O   0  0  0  0  0  0
  -26.5610  -34.8921   22.4680 O   0  0  0  0  0  0
  -23.5409  -32.1419   23.7402 O   0  0  0  0  0  0
  -30.0322  -19.3070   20.8274 C   0  0  0  0  0  0
  -29.7065  -21.5309   20.6357 C   0  0  0  0  0  0
  -31.6852  -20.7455   21.2217 C   0  0  0  0  0  0
  -30.0629  -16.8444   19.6466 C   0  0  0  0  0  0
  -30.0221  -16.6995   21.6955 C   0  0  0  0  0  0
  -29.5757  -17.8148   20.7265 C   0  0  0  0  0  0
  -29.2460  -24.0720   20.4669 C   0  0  0  0  0  0
  -28.1217  -25.0746   20.0101 C   0  0  0  0  0  0
  -29.1757  -20.3070   20.5297 N   0  0  0  0  0  0
  -31.3056  -19.4738   21.1557 N   0  0  0  0  0  0
  -30.9420  -21.8200   20.9800 N   0  0  0  0  0  0
  -29.8878  -15.7073   20.5974 N   0  0  0  0  0  0
  -28.8838  -22.6278   20.3530 N   0  0  0  0  0  0
  -33.3253  -21.0324   21.6679 Cl  0  0  0  0  0  0
  -31.4703  -12.4508   19.1560 H   0  0  0  0  0  0
  -30.3293  -11.3666   19.9037 H   0  0  0  0  0  0
  -29.7599  -11.7334   17.4763 H   0  0  0  0  0  0
  -29.6611  -13.4558   17.7418 H   0  0  0  0  0  0
  -27.8509  -11.2930   18.8655 H   0  0  0  0  0  0
  -27.3758  -12.5809   17.7907 H   0  0  0  0  0  0
  -27.6658  -14.2542   19.5114 H   0  0  0  0  0  0
  -28.6903  -12.0921   21.4171 H   0  0  0  0  0  0
  -28.4605  -13.7808   21.8068 H   0  0  0  0  0  0
  -25.2764   -9.5676   22.4761 H   0  0  0  0  0  0
  -23.9999   -7.4631   22.7478 H   0  0  0  0  0  0
  -21.0834   -8.8794   19.8963 H   0  0  0  0  0  0
  -22.3700  -10.9685   19.6176 H   0  0  0  0  0  0
  -21.2009   -7.6154   23.9724 H   0  0  0  0  0  0
  -21.1482   -6.0522   25.9079 H   0  0  0  0  0  0
  -22.0594   -2.7614   23.2846 H   0  0  0  0  0  0
  -22.4093  -11.9894   22.4799 H   0  0  0  0  0  0
  -21.1112  -13.1292   22.2617 H   0  0  0  0  0  0
  -24.6701  -15.8543   20.5328 H   0  0  0  0  0  0
  -26.2946  -15.6266   20.1205 H   0  0  0  0  0  0
  -26.7166  -32.5480   23.1140 H   0  0  0  0  0  0
  -25.0069  -33.9747   25.0443 H   0  0  0  0  0  0
  -22.7065  -31.3077   21.4098 H   0  0  0  0  0  0
  -23.3736  -35.9646   23.3324 H   0  0  0  0  0  0
  -24.3575  -36.8896   22.2050 H   0  0  0  0  0  0
  -23.7245  -37.6517   23.6644 H   0  0  0  0  0  0
  -26.0751  -31.5698   20.6019 H   0  0  0  0  0  0
  -26.8372  -30.8569   21.9946 H   0  0  0  0  0  0
  -28.1087  -29.0125   21.1863 H   0  0  0  0  0  0
  -25.9708  -25.9606   18.9819 H   0  0  0  0  0  0
  -23.9673  -27.3209   19.0086 H   0  0  0  0  0  0
  -23.7406  -30.6043   19.4068 H   0  0  0  0  0  0
  -22.7467  -29.2535   19.8624 H   0  0  0  0  0  0
  -25.1285  -36.1960   25.0826 H   0  0  0  0  0  0
  -20.9965  -28.3259   24.1416 H   0  0  0  0  0  0
  -20.5667  -26.2299   23.3608 H   0  0  0  0  0  0
  -21.6634  -26.7447   22.1210 H   0  0  0  0  0  0
  -19.6903  -25.6303   21.1236 H   0  0  0  0  0  0
  -19.6677  -27.3203   20.6749 H   0  0  0  0  0  0
  -17.4189  -26.6675   21.4034 H   0  0  0  0  0  0
  -18.0331  -26.0082   22.9031 H   0  0  0  0  0  0
  -19.7935  -30.7273   24.2272 H   0  0  0  0  0  0
  -17.5015  -31.6270   24.5174 H   0  0  0  0  0  0
  -15.5349  -30.2998   23.7657 H   0  0  0  0  0  0
  -15.8665  -28.0835   22.7058 H   0  0  0  0  0  0
  -24.5910  -30.7070   25.7798 H   0  0  0  0  0  0
  -24.8922  -32.2890   26.4889 H   0  0  0  0  0  0
  -25.8061  -30.8908   27.0236 H   0  0  0  0  0  0
  -26.2908  -29.6782   24.1177 H   0  0  0  0  0  0
  -27.4038  -29.7267   25.4660 H   0  0  0  0  0  0
  -27.8769  -30.4325   23.9379 H   0  0  0  0  0  0
  -27.2681  -33.3610   26.2102 H   0  0  0  0  0  0
  -28.3865  -32.6886   25.0328 H   0  0  0  0  0  0
  -28.0740  -31.8428   26.5404 H   0  0  0  0  0  0
  -28.2611  -38.0087   24.7489 H   0  0  0  0  0  0
  -28.1047  -36.2613   24.6326 H   0  0  0  0  0  0
  -27.2288  -37.1505   25.8875 H   0  0  0  0  0  0
  -20.9351  -29.8779   21.6920 H   0  0  0  0  0  0
  -26.0173  -38.2862   24.1396 H   0  0  0  0  0  0
  -31.0968  -17.0382   19.3518 H   0  0  0  0  0  0
  -29.4123  -16.8143   18.7719 H   0  0  0  0  0  0
  -31.0438  -16.8237   22.0620 H   0  0  0  0  0  0
  -29.3299  -16.5522   22.5242 H   0  0  0  0  0  0
  -28.4843  -17.8259   20.7091 H   0  0  0  0  0  0
  -29.5079  -24.2749   21.5053 H   0  0  0  0  0  0
  -30.1501  -24.2533   19.8834 H   0  0  0  0  0  0
  -27.2218  -24.8051   20.5654 H   0  0  0  0  0  0
  -27.9140  -24.8796   18.9573 H   0  0  0  0  0  0
  -27.9359  -22.3981   20.0829 H   0  0  0  0  0  0
  1 25  1  0  0  0
  1 30  2  0  0  0
  1 82  1  0  0  0
  2  3  1  0  0  0
  2 25  1  0  0  0
  2 85  1  0  0  0
  2 86  1  0  0  0
  3  4  1  0  0  0
  3 87  1  0  0  0
  3 88  1  0  0  0
  4  5  1  0  0  0
  4 89  1  0  0  0
  4 90  1  0  0  0
  5  6  1  0  0  0
  5 26  1  0  0  0
  5 91  1  0  0  0
  6 25  1  0  0  0
  6 92  1  0  0  0
  6 93  1  0  0  0
  7  8  2  0  0  0
  7 26  1  0  0  0
  7 29  1  0  0  0
  8  9  1  0  0  0
  8 22  1  0  0  0
  9 10  1  0  0  0
  9 27  2  0  0  0
 10 11  2  0  0  0
 10 15  1  0  0  0
 11 12  1  0  0  0
 11 94  1  0  0  0
 12 13  2  0  0  0
 12 95  1  0  0  0
 13 14  1  0  0  0
 13 31  1  0  0  0
 14 15  2  0  0  0
 14 96  1  0  0  0
 15 97  1  0  0  0
 16 17  2  0  0  0
 16 21  1  0  0  0
 16 31  1  0  0  0
 17 18  1  0  0  0
 17 98  1  0  0  0
 18 19  2  0  0  0
 18 99  1  0  0  0
 19 20  1  0  0  0
 19 24  1  0  0  0
 20 21  2  0  0  0
 20100  1  0  0  0
 21 23  1  0  0  0
 22 28  1  0  0  0
 22 32  2  0  0  0
 26 27  1  0  0  0
 28101  1  0  0  0
 28102  1  0  0  0
 29103  1  0  0  0
 29104  1  0  0  0
 33 34  1  0  0  0
 33 66  1  0  0  0
 33 70  2  0  0  0
 34 36  1  0  0  0
 34 59  1  0  0  0
 34105  1  0  0  0
 35 44  2  0  0  0
 35 45  1  0  0  0
 35 68  1  0  0  0
 36 56  1  0  0  0
 36106  1  0  0  0
 37 39  1  0  0  0
 37 47  1  0  0  0
 37 66  1  0  0  0
 37107  1  0  0  0
 38 43  2  0  0  0
 38 46  1  0  0  0
 38 47  1  0  0  0
 39 64  1  0  0  0
 39 67  2  0  0  0
 40 52  1  0  0  0
 40 53  2  0  0  0
 40 58  1  0  0  0
 41108  1  0  0  0
 41109  1  0  0  0
 41110  1  0  0  0
 41 48  1  0  0  0
 42 43  1  0  0  0
 42 66  1  0  0  0
 42111  1  0  0  0
 42112  1  0  0  0
 43 44  1  0  0  0
 44113  1  0  0  0
 45 46  2  0  0  0
 45114  1  0  0  0
 46115  1  0  0  0
 47116  1  0  0  0
 47117  1  0  0  0
 48 56  1  0  0  0
 48 65  1  0  0  0
 48118  1  0  0  0
 49 50  1  0  0  0
 49 53  1  0  0  0
 49 64  1  0  0  0
 49119  1  0  0  0
 50 51  1  0  0  0
 50120  1  0  0  0
 50121  1  0  0  0
 51 52  1  0  0  0
 51122  1  0  0  0
 51123  1  0  0  0
 52124  1  0  0  0
 52125  1  0  0  0
 53 54  1  0  0  0
 54 55  2  0  0  0
 54126  1  0  0  0
 55 57  1  0  0  0
 55127  1  0  0  0
 56 69  2  0  0  0
 57 58  2  0  0  0
 57128  1  0  0  0
 58129  1  0  0  0
 59 60  1  0  0  0
 59 61  1  0  0  0
 59 62  1  0  0  0
 60130  1  0  0  0
 60131  1  0  0  0
 60132  1  0  0  0
 61133  1  0  0  0
 61134  1  0  0  0
 61135  1  0  0  0
 62136  1  0  0  0
 62137  1  0  0  0
 62138  1  0  0  0
 63 65  1  0  0  0
 63139  1  0  0  0
 63140  1  0  0  0
 63141  1  0  0  0
 64142  1  0  0  0
 65143  1  0  0  0
 68 78  1  0  0  0
 71 79  2  0  0  0
 71 80  1  0  0  0
 71 76  1  0  0  0
 72 79  1  0  0  0
 72 81  2  0  0  0
 72 83  1  0  0  0
 73 80  2  0  0  0
 73 81  1  0  0  0
 73 84  1  0  0  0
 74 76  1  0  0  0
 74 82  1  0  0  0
 74144  1  0  0  0
 74145  1  0  0  0
 75 76  1  0  0  0
 75 82  1  0  0  0
 75146  1  0  0  0
 75147  1  0  0  0
 76148  1  0  0  0
 77 78  1  0  0  0
 77 83  1  0  0  0
 77149  1  0  0  0
 77150  1  0  0  0
 78151  1  0  0  0
 78152  1  0  0  0
 83153  1  0  0  0
M  ISO  4   1 100  68 101  78 101  82 100
M  END
> <chiral flag>
0

> <version>
0

> <s_m_source_file>
/data/baiqing/PycharmProjects/Reinvent-master-3.2/result/LINK_invent/BTK/process_docking_weight1_custom_sum_contain_oxygen_bond_distance_aromatic_linkinvent_7_9_3/rearranged_h_0191.sdf

> <i_m_source_file_index>
24

> <r_mmod_Potential_Energy-OPLS-2005>
-734.30615234375

> <r_mmod_Stretch_Energy-OPLS-2005>
59.3830757141113

> <r_mmod_Bend_Energy-OPLS-2005>
125.11003112793

> <r_mmod_Torsional_Energy-OPLS-2005>
240.350387573242

> <r_mmod_Improper_Torsional_Energy-OPLS-2005>
16.4026908874512

> <r_mmod_Van_der_Waal_Energy-OPLS-2005>
169.387145996094

> <r_mmod_Electrostatic_Energy-OPLS-2005>
-1157.72033691406

> <r_mmod_Solvation_Energy-OPLS-2005>
-225.917785644531

> <b_mmod_Minimization_Converged-OPLS-2005>
0

> <r_mmod_RMS_Derivative-OPLS-2005>
1.45751929283142

$$$$
24
                    3D
 Structure written by MMmdl.
161171  0  0  1  0            999 V2000
  -30.7461  -14.5937   20.4632 C   0  0  0  0  0  0
  -30.4086  -12.3607   19.4598 C   0  0  0  0  0  0
  -29.4968  -12.4904   18.2238 C   0  0  0  0  0  0
  -28.0146  -12.3642   18.6297 C   0  0  0  0  0  0
  -27.6502  -13.2428   19.8567 C   0  0  2  0  0  0
  -28.7032  -13.1540   20.9852 C   0  0  0  0  0  0
  -25.2535  -13.8186   20.5733 C   0  0  0  0  0  0
  -24.1822  -13.0427   20.9238 C   0  0  0  0  0  0
  -24.6434  -11.6932   20.8772 C   0  0  0  0  0  0
  -23.9067  -10.4285   21.0372 C   0  0  0  0  0  0
  -24.3595   -9.4206   21.9140 C   0  0  0  0  0  0
  -23.6331   -8.2211   22.0665 C   0  0  0  0  0  0
  -22.4310   -8.0232   21.3453 C   0  0  0  0  0  0
  -21.9980   -9.0220   20.4584 C   0  0  0  0  0  0
  -22.7273  -10.2120   20.3023 C   0  0  0  0  0  0
  -21.6885   -6.0732   22.5268 C   0  0  0  0  0  0
  -21.4010   -6.5620   23.8199 C   0  0  0  0  0  0
  -21.3669   -5.6744   24.9163 C   0  0  0  0  0  0
  -21.6058   -4.3016   24.7191 C   0  0  0  0  0  0
  -21.8835   -3.8126   23.4303 C   0  0  0  0  0  0
  -21.9187   -4.6937   22.3377 C   0  0  0  0  0  0
  -22.7840  -13.5201   21.1898 C   0  0  0  0  0  0
  -22.1677   -4.2142   21.0966 F   0  0  0  0  0  0
  -21.5654   -3.4506   25.7692 F   0  0  0  0  0  0
  -30.0239  -13.4293   20.4043 N   0  0  0  0  0  0
  -26.2999  -12.9452   20.3359 N   0  0  0  0  0  0
  -25.9379  -11.6574   20.5800 N   0  0  0  0  0  0
  -22.0463  -12.8211   22.0453 N   0  0  0  0  0  0
  -25.4324  -15.1911   20.4153 N   0  0  0  0  0  0
  -31.8927  -14.6389   20.0035 O   0  0  0  0  0  0
  -21.6640   -6.8863   21.4215 O   0  0  0  0  0  0
  -22.3528  -14.5513   20.6753 O   0  0  0  0  0  0
  -24.6145  -31.8578   23.2001 C   0  0  0  0  0  0
  -25.9036  -32.4750   23.8293 C   0  0  1  0  0  0
  -27.2583  -27.3875   20.1101 C   0  0  0  0  0  0
  -25.5880  -33.8549   24.2229 N   0  0  0  0  0  0
  -23.4073  -30.4736   21.5373 C   0  0  2  0  0  0
  -24.8651  -28.9224   20.1109 C   0  0  0  0  0  0
  -22.7401  -29.4593   22.4934 C   0  0  0  0  0  0
  -18.0268  -28.1348   22.8479 C   0  0  0  0  0  0
  -24.1505  -36.7316   23.2632 C   0  0  0  0  0  0
  -25.9376  -30.8055   21.3649 C   0  0  0  0  0  0
  -26.0179  -29.4361   20.7137 C   0  0  0  0  0  0
  -27.2085  -28.6706   20.7144 C   0  0  0  0  0  0
  -26.0899  -26.8933   19.4905 C   0  0  0  0  0  0
  -24.8968  -27.6518   19.4964 C   0  0  0  0  0  0
  -23.6209  -29.7826   20.1587 C   0  0  0  0  0  0
  -25.4115  -36.3063   24.0317 C   0  0  1  0  0  0
  -20.5855  -28.3633   23.1302 C   0  0  2  0  0  0
  -20.6748  -26.9360   22.5418 C   0  0  0  0  0  0
  -19.5746  -26.6343   21.5206 C   0  0  0  0  0  0
  -18.1929  -26.7907   22.1599 C   0  0  0  0  0  0
  -19.1518  -28.8806   23.2884 C   0  0  0  0  0  0
  -18.9454  -30.1415   23.8871 C   0  0  0  0  0  0
  -17.6458  -30.6565   24.0542 C   0  0  0  0  0  0
  -25.9036  -34.9441   23.5089 C   0  0  0  0  0  0
  -16.5351  -29.9060   23.6331 C   0  0  0  0  0  0
  -16.7260  -28.6474   23.0343 C   0  0  0  0  0  0
  -26.4469  -31.6557   25.0663 C   0  0  0  0  0  0
  -25.3722  -31.3735   26.1409 C   0  0  0  0  0  0
  -27.0318  -30.2975   24.6132 C   0  0  0  0  0  0
  -27.5989  -32.4318   25.7461 C   0  0  0  0  0  0
  -27.5608  -37.1781   24.8425 C   0  0  0  0  0  0
  -21.4126  -29.3002   22.3692 N   0  0  0  0  0  0
  -26.4287  -37.3773   23.9414 N   0  0  0  0  0  0
  -24.6710  -31.0621   22.0924 N   0  0  0  0  0  0
  -23.4158  -28.8156   23.3010 O   0  0  0  0  0  0
  -28.4508  -26.6838   20.1919 O   0  0  0  0  0  0
  -26.5623  -34.8917   22.4655 O   0  0  0  0  0  0
  -23.5337  -32.1357   23.7348 O   0  0  0  0  0  0
  -28.6196  -19.2528   18.6581 C   0  0  0  0  0  0
  -28.1234  -20.4033   18.0334 C   0  0  0  0  0  0
  -29.1797  -19.3970   19.9337 C   0  0  0  0  0  0
  -28.7718  -21.6923   19.8011 C   0  0  0  0  0  0
  -31.0531  -18.0451   21.1767 C   0  0  0  0  0  0
  -30.1763  -25.0738   19.9700 C   0  0  0  0  0  0
  -31.1174  -16.6210   21.7721 C   0  0  0  0  0  0
  -30.3045  -23.5414   20.0077 C   0  0  0  0  0  0
  -29.3664  -16.7007   20.2148 C   0  0  0  0  0  0
  -27.9963  -24.1007   20.1432 C   0  0  0  0  0  0
  -29.5935  -18.1507   20.7833 C   0  0  2  0  0  0
  -28.7146  -25.3776   19.6083 C   0  0  1  0  0  0
  -28.1970  -21.6167   18.6114 N   0  0  0  0  0  0
  -29.2745  -20.6465   20.4838 N   0  0  0  0  0  0
  -28.9832  -22.9928   20.2900 N   0  0  0  0  0  0
  -30.2066  -15.7389   21.0016 N   0  0  0  0  0  0
  -31.4568  -12.4097   19.1567 H   0  0  0  0  0  0
  -30.2836  -11.3797   19.9239 H   0  0  0  0  0  0
  -29.7574  -11.7252   17.4900 H   0  0  0  0  0  0
  -29.6660  -13.4510   17.7372 H   0  0  0  0  0  0
  -27.8242  -11.3158   18.8580 H   0  0  0  0  0  0
  -27.3686  -12.6182   17.7871 H   0  0  0  0  0  0
  -27.6545  -14.2742   19.4998 H   0  0  0  0  0  0
  -28.6992  -12.1658   21.4453 H   0  0  0  0  0  0
  -28.4688  -13.8674   21.7776 H   0  0  0  0  0  0
  -25.2717   -9.5724   22.4748 H   0  0  0  0  0  0
  -24.0058   -7.4595   22.7366 H   0  0  0  0  0  0
  -21.0912   -8.8737   19.8920 H   0  0  0  0  0  0
  -22.3683  -10.9646   19.6143 H   0  0  0  0  0  0
  -21.1997   -7.6121   23.9732 H   0  0  0  0  0  0
  -21.1513   -6.0446   25.9068 H   0  0  0  0  0  0
  -22.0626   -2.7597   23.2780 H   0  0  0  0  0  0
  -22.4096  -11.9861   22.4866 H   0  0  0  0  0  0
  -21.1050  -13.1195   22.2524 H   0  0  0  0  0  0
  -24.6916  -15.8696   20.5367 H   0  0  0  0  0  0
  -26.3031  -15.6126   20.1173 H   0  0  0  0  0  0
  -26.7085  -32.5455   23.1026 H   0  0  0  0  0  0
  -24.9988  -33.9651   25.0354 H   0  0  0  0  0  0
  -22.7030  -31.2918   21.3835 H   0  0  0  0  0  0
  -23.3770  -35.9639   23.3214 H   0  0  0  0  0  0
  -24.3609  -36.9025   22.2062 H   0  0  0  0  0  0
  -23.7255  -37.6488   23.6720 H   0  0  0  0  0  0
  -26.0608  -31.5741   20.5981 H   0  0  0  0  0  0
  -26.8195  -30.8529   21.9934 H   0  0  0  0  0  0
  -28.0995  -29.0550   21.1959 H   0  0  0  0  0  0
  -26.0908  -25.9214   19.0177 H   0  0  0  0  0  0
  -24.0089  -27.2530   19.0277 H   0  0  0  0  0  0
  -23.7125  -30.5396   19.3811 H   0  0  0  0  0  0
  -22.7531  -29.1800   19.8803 H   0  0  0  0  0  0
  -25.1312  -36.1879   25.0813 H   0  0  0  0  0  0
  -20.9959  -28.3205   24.1422 H   0  0  0  0  0  0
  -20.5630  -26.2246   23.3595 H   0  0  0  0  0  0
  -21.6615  -26.7384   22.1226 H   0  0  0  0  0  0
  -19.6902  -25.6262   21.1224 H   0  0  0  0  0  0
  -19.6706  -27.3136   20.6736 H   0  0  0  0  0  0
  -17.4215  -26.6652   21.3997 H   0  0  0  0  0  0
  -18.0315  -26.0016   22.8961 H   0  0  0  0  0  0
  -19.7940  -30.7224   24.2209 H   0  0  0  0  0  0
  -17.5037  -31.6250   24.5127 H   0  0  0  0  0  0
  -15.5352  -30.2951   23.7674 H   0  0  0  0  0  0
  -15.8659  -28.0796   22.7045 H   0  0  0  0  0  0
  -24.5776  -30.7232   25.7771 H   0  0  0  0  0  0
  -24.9053  -32.2930   26.4953 H   0  0  0  0  0  0
  -25.8019  -30.8797   27.0134 H   0  0  0  0  0  0
  -26.2896  -29.6691   24.1202 H   0  0  0  0  0  0
  -27.4059  -29.7265   25.4656 H   0  0  0  0  0  0
  -27.8750  -30.4261   23.9333 H   0  0  0  0  0  0
  -27.2520  -33.3537   26.2146 H   0  0  0  0  0  0
  -28.3757  -32.7018   25.0303 H   0  0  0  0  0  0
  -28.0725  -31.8403   26.5303 H   0  0  0  0  0  0
  -28.2523  -38.0183   24.7583 H   0  0  0  0  0  0
  -28.1203  -36.2712   24.6102 H   0  0  0  0  0  0
  -27.2329  -37.1229   25.8819 H   0  0  0  0  0  0
  -20.9285  -29.8735   21.6937 H   0  0  0  0  0  0
  -26.0163  -38.2834   24.1466 H   0  0  0  0  0  0
  -28.5339  -18.2955   18.1649 H   0  0  0  0  0  0
  -27.6506  -20.3517   17.0629 H   0  0  0  0  0  0
  -31.6836  -18.1304   20.2867 H   0  0  0  0  0  0
  -31.3740  -18.8177   21.8792 H   0  0  0  0  0  0
  -30.8806  -25.5243   19.2665 H   0  0  0  0  0  0
  -30.4033  -25.4756   20.9592 H   0  0  0  0  0  0
  -30.7451  -16.6499   22.7947 H   0  0  0  0  0  0
  -32.1519  -16.2702   21.8334 H   0  0  0  0  0  0
  -31.0288  -23.2212   20.7581 H   0  0  0  0  0  0
  -30.6633  -23.1645   19.0474 H   0  0  0  0  0  0
  -29.6831  -16.6601   19.1697 H   0  0  0  0  0  0
  -28.3082  -16.4432   20.2366 H   0  0  0  0  0  0
  -27.1804  -23.8204   19.4731 H   0  0  0  0  0  0
  -27.5533  -24.3126   21.1165 H   0  0  0  0  0  0
  -29.0285  -18.2355   21.7174 H   0  0  0  0  0  0
  -28.6197  -25.4263   18.5230 H   0  0  0  0  0  0
  1 25  1  0  0  0
  1 30  2  0  0  0
  1 86  1  0  0  0
  2  3  1  0  0  0
  2 25  1  0  0  0
  2 87  1  0  0  0
  2 88  1  0  0  0
  3  4  1  0  0  0
  3 89  1  0  0  0
  3 90  1  0  0  0
  4  5  1  0  0  0
  4 91  1  0  0  0
  4 92  1  0  0  0
  5  6  1  0  0  0
  5 26  1  0  0  0
  5 93  1  0  0  0
  6 25  1  0  0  0
  6 94  1  0  0  0
  6 95  1  0  0  0
  7  8  2  0  0  0
  7 26  1  0  0  0
  7 29  1  0  0  0
  8  9  1  0  0  0
  8 22  1  0  0  0
  9 10  1  0  0  0
  9 27  2  0  0  0
 10 11  2  0  0  0
 10 15  1  0  0  0
 11 12  1  0  0  0
 11 96  1  0  0  0
 12 13  2  0  0  0
 12 97  1  0  0  0
 13 14  1  0  0  0
 13 31  1  0  0  0
 14 15  2  0  0  0
 14 98  1  0  0  0
 15 99  1  0  0  0
 16 17  2  0  0  0
 16 21  1  0  0  0
 16 31  1  0  0  0
 17 18  1  0  0  0
 17100  1  0  0  0
 18 19  2  0  0  0
 18101  1  0  0  0
 19 20  1  0  0  0
 19 24  1  0  0  0
 20 21  2  0  0  0
 20102  1  0  0  0
 21 23  1  0  0  0
 22 28  1  0  0  0
 22 32  2  0  0  0
 26 27  1  0  0  0
 28103  1  0  0  0
 28104  1  0  0  0
 29105  1  0  0  0
 29106  1  0  0  0
 33 34  1  0  0  0
 33 66  1  0  0  0
 33 70  2  0  0  0
 34 36  1  0  0  0
 34 59  1  0  0  0
 34107  1  0  0  0
 35 44  2  0  0  0
 35 45  1  0  0  0
 35 68  1  0  0  0
 36 56  1  0  0  0
 36108  1  0  0  0
 37 39  1  0  0  0
 37 47  1  0  0  0
 37 66  1  0  0  0
 37109  1  0  0  0
 38 43  2  0  0  0
 38 46  1  0  0  0
 38 47  1  0  0  0
 39 64  1  0  0  0
 39 67  2  0  0  0
 40 52  1  0  0  0
 40 53  2  0  0  0
 40 58  1  0  0  0
 41110  1  0  0  0
 41111  1  0  0  0
 41112  1  0  0  0
 41 48  1  0  0  0
 42 43  1  0  0  0
 42 66  1  0  0  0
 42113  1  0  0  0
 42114  1  0  0  0
 43 44  1  0  0  0
 44115  1  0  0  0
 45 46  2  0  0  0
 45116  1  0  0  0
 46117  1  0  0  0
 47118  1  0  0  0
 47119  1  0  0  0
 48 56  1  0  0  0
 48 65  1  0  0  0
 48120  1  0  0  0
 49 50  1  0  0  0
 49 53  1  0  0  0
 49 64  1  0  0  0
 49121  1  0  0  0
 50 51  1  0  0  0
 50122  1  0  0  0
 50123  1  0  0  0
 51 52  1  0  0  0
 51124  1  0  0  0
 51125  1  0  0  0
 52126  1  0  0  0
 52127  1  0  0  0
 53 54  1  0  0  0
 54 55  2  0  0  0
 54128  1  0  0  0
 55 57  1  0  0  0
 55129  1  0  0  0
 56 69  2  0  0  0
 57 58  2  0  0  0
 57130  1  0  0  0
 58131  1  0  0  0
 59 60  1  0  0  0
 59 61  1  0  0  0
 59 62  1  0  0  0
 60132  1  0  0  0
 60133  1  0  0  0
 60134  1  0  0  0
 61135  1  0  0  0
 61136  1  0  0  0
 61137  1  0  0  0
 62138  1  0  0  0
 62139  1  0  0  0
 62140  1  0  0  0
 63 65  1  0  0  0
 63141  1  0  0  0
 63142  1  0  0  0
 63143  1  0  0  0
 64144  1  0  0  0
 65145  1  0  0  0
 68 82  1  0  0  0
 71 72  2  0  0  0
 71 73  1  0  0  0
 71146  1  0  0  0
 72 83  1  0  0  0
 72147  1  0  0  0
 73 84  2  0  0  0
 73 81  1  0  0  0
 74 83  2  0  0  0
 74 84  1  0  0  0
 74 85  1  0  0  0
 75 77  1  0  0  0
 75 81  1  0  0  0
 75148  1  0  0  0
 75149  1  0  0  0
 76 78  1  0  0  0
 76 82  1  0  0  0
 76150  1  0  0  0
 76151  1  0  0  0
 77 86  1  0  0  0
 77152  1  0  0  0
 77153  1  0  0  0
 78 85  1  0  0  0
 78154  1  0  0  0
 78155  1  0  0  0
 79 81  1  0  0  0
 79 86  1  0  0  0
 79156  1  0  0  0
 79157  1  0  0  0
 80 82  1  0  0  0
 80 85  1  0  0  0
 80158  1  0  0  0
 80159  1  0  0  0
 81160  1  0  0  0
 82161  1  0  0  0
M  ISO  4   1 100  68 101  82 101  86 100
M  END
> <chiral flag>
0

> <version>
0

> <s_m_source_file>
/data/baiqing/PycharmProjects/Reinvent-master-3.2/result/LINK_invent/BTK/process_docking_weight1_custom_sum_contain_oxygen_bond_distance_aromatic_linkinvent_7_9_3/rearranged_h_0191.sdf

> <i_m_source_file_index>
25

> <r_mmod_Potential_Energy-OPLS-2005>
-230.50798034668

> <r_mmod_Stretch_Energy-OPLS-2005>
60.7319374084473

> <r_mmod_Bend_Energy-OPLS-2005>
203.062423706055

> <r_mmod_Torsional_Energy-OPLS-2005>
378.672515869141

> <r_mmod_Improper_Torsional_Energy-OPLS-2005>
11.4588937759399

> <r_mmod_Van_der_Waal_Energy-OPLS-2005>
147.895584106445

> <r_mmod_Electrostatic_Energy-OPLS-2005>
-822.822448730469

> <r_mmod_Solvation_Energy-OPLS-2005>
-246.661575317383

> <b_mmod_Minimization_Converged-OPLS-2005>
0

> <r_mmod_RMS_Derivative-OPLS-2005>
6.58907318115234

$$$$
25
                    3D
 Structure written by MMmdl.
172181  0  0  1  0            999 V2000
  -30.5412  -15.0890   20.3847 C   0  0  0  0  0  0
  -30.4088  -12.6896   19.5084 C   0  0  0  0  0  0
  -29.5063  -12.5443   18.2652 C   0  0  0  0  0  0
  -28.0498  -12.2996   18.6872 C   0  0  0  0  0  0
  -27.6043  -13.2657   19.8165 C   0  0  2  0  0  0
  -28.6402  -13.3990   20.9505 C   0  0  0  0  0  0
  -25.2373  -13.8251   20.5688 C   0  0  0  0  0  0
  -24.1726  -13.0450   20.9241 C   0  0  0  0  0  0
  -24.6373  -11.6943   20.8746 C   0  0  0  0  0  0
  -23.9073  -10.4302   21.0368 C   0  0  0  0  0  0
  -24.3614   -9.4230   21.9146 C   0  0  0  0  0  0
  -23.6299   -8.2280   22.0741 C   0  0  0  0  0  0
  -22.4292   -8.0308   21.3528 C   0  0  0  0  0  0
  -21.9919   -9.0274   20.4637 C   0  0  0  0  0  0
  -22.7246  -10.2141   20.3030 C   0  0  0  0  0  0
  -21.6869   -6.0726   22.5283 C   0  0  0  0  0  0
  -21.4012   -6.5620   23.8217 C   0  0  0  0  0  0
  -21.3669   -5.6782   24.9178 C   0  0  0  0  0  0
  -21.6069   -4.3057   24.7201 C   0  0  0  0  0  0
  -21.8825   -3.8137   23.4328 C   0  0  0  0  0  0
  -21.9185   -4.6950   22.3398 C   0  0  0  0  0  0
  -22.7754  -13.5193   21.1905 C   0  0  0  0  0  0
  -22.1632   -4.2140   21.0968 F   0  0  0  0  0  0
  -21.5644   -3.4541   25.7705 F   0  0  0  0  0  0
  -29.8934  -13.8403   20.3238 N   0  0  0  0  0  0
  -26.2763  -12.9491   20.3161 N   0  0  0  0  0  0
  -25.9299  -11.6603   20.5681 N   0  0  0  0  0  0
  -22.0390  -12.8214   22.0471 N   0  0  0  0  0  0
  -25.4093  -15.1982   20.4067 N   0  0  0  0  0  0
  -31.7626  -15.0196   20.1715 O   0  0  0  0  0  0
  -21.6658   -6.8894   21.4254 O   0  0  0  0  0  0
  -22.3442  -14.5493   20.6752 O   0  0  0  0  0  0
  -24.6503  -31.8356   23.1833 C   0  0  0  0  0  0
  -25.9252  -32.4626   23.8236 C   0  0  1  0  0  0
  -27.1996  -27.0578   20.1836 C   0  0  0  0  0  0
  -25.6003  -33.8434   24.2165 N   0  0  0  0  0  0
  -23.4513  -30.4541   21.5301 C   0  0  2  0  0  0
  -24.8952  -28.8515   20.1252 C   0  0  0  0  0  0
  -22.7559  -29.4528   22.4857 C   0  0  0  0  0  0
  -18.0298  -28.1384   22.8468 C   0  0  0  0  0  0
  -24.1489  -36.7214   23.2641 C   0  0  0  0  0  0
  -26.0118  -30.6850   21.3885 C   0  0  0  0  0  0
  -26.0747  -29.2853   20.7398 C   0  0  0  0  0  0
  -27.2326  -28.4094   20.7399 C   0  0  0  0  0  0
  -25.9915  -26.7268   19.5428 C   0  0  0  0  0  0
  -24.8657  -27.5856   19.5148 C   0  0  0  0  0  0
  -23.6798  -29.7702   20.1543 C   0  0  0  0  0  0
  -25.4136  -36.2982   24.0301 C   0  0  1  0  0  0
  -20.5913  -28.3721   23.1233 C   0  0  2  0  0  0
  -20.6795  -26.9417   22.5409 C   0  0  0  0  0  0
  -19.5779  -26.6376   21.5198 C   0  0  0  0  0  0
  -18.1956  -26.7926   22.1607 C   0  0  0  0  0  0
  -19.1553  -28.8870   23.2827 C   0  0  0  0  0  0
  -18.9483  -30.1482   23.8834 C   0  0  0  0  0  0
  -17.6480  -30.6587   24.0545 C   0  0  0  0  0  0
  -25.9114  -34.9351   23.5034 C   0  0  0  0  0  0
  -16.5368  -29.9069   23.6344 C   0  0  0  0  0  0
  -16.7283  -28.6487   23.0349 C   0  0  0  0  0  0
  -26.4571  -31.6515   25.0690 C   0  0  0  0  0  0
  -25.3772  -31.3702   26.1391 C   0  0  0  0  0  0
  -27.0466  -30.2911   24.6328 C   0  0  0  0  0  0
  -27.6100  -32.4304   25.7469 C   0  0  0  0  0  0
  -27.5567  -37.1761   24.8469 C   0  0  0  0  0  0
  -21.4265  -29.3014   22.3590 N   0  0  0  0  0  0
  -26.4284  -37.3716   23.9396 N   0  0  0  0  0  0
  -24.7255  -31.0168   22.0876 N   0  0  0  0  0  0
  -23.4186  -28.8116   23.3064 O   0  0  0  0  0  0
  -28.2943  -26.1109   20.0911 O   0  0  0  0  0  0
  -26.5666  -34.8880   22.4610 O   0  0  0  0  0  0
  -23.5628  -32.1256   23.7043 O   0  0  0  0  0  0
  -31.0450  -18.8350   21.2058 C   0  0  0  0  0  0
  -30.6874  -17.3303   21.5991 C   0  0  0  0  0  0
  -28.7773  -17.3059   20.1934 C   0  0  0  0  0  0
  -27.9171  -20.2331   20.2942 C   0  0  0  0  0  0
  -30.0066  -21.2217   20.4287 C   0  0  0  0  0  0
  -28.9055  -18.9741   19.8915 C   0  0  1  0  0  0
  -30.2853  -19.6429   20.0776 C   0  0  2  0  0  0
  -31.2324  -22.0729   16.7945 C   0  0  0  0  0  0
  -30.6704  -20.3255   15.0678 C   0  0  0  0  0  0
  -31.1925  -19.5412   18.7943 C   0  0  0  0  0  0
  -27.8771  -23.0547   20.1362 C   0  0  0  0  0  0
  -28.4674  -24.6029   20.5804 C   0  0  0  0  0  0
  -31.2605  -20.5632   16.4730 C   0  0  0  0  0  0
  -29.9745  -16.4137   20.6588 N   0  0  0  0  0  0
  -28.6069  -21.5979   20.0199 N   0  3  2  0  0  0
  -30.5277  -19.7540   17.4791 N   0  3  0  0  0  0
  -31.4421  -12.8306   19.1894 H   0  0  0  0  0  0
  -30.4117  -11.7617   20.0851 H   0  0  0  0  0  0
  -29.8583  -11.7253   17.6359 H   0  0  0  0  0  0
  -29.5704  -13.4512   17.6594 H   0  0  0  0  0  0
  -27.9800  -11.2681   19.0358 H   0  0  0  0  0  0
  -27.3819  -12.3733   17.8263 H   0  0  0  0  0  0
  -27.5374  -14.2468   19.3444 H   0  0  0  0  0  0
  -28.7628  -12.4566   21.4881 H   0  0  0  0  0  0
  -28.3154  -14.1387   21.6818 H   0  0  0  0  0  0
  -25.2713   -9.5717   22.4761 H   0  0  0  0  0  0
  -24.0004   -7.4650   22.7462 H   0  0  0  0  0  0
  -21.0861   -8.8771   19.8948 H   0  0  0  0  0  0
  -22.3656  -10.9683   19.6174 H   0  0  0  0  0  0
  -21.2001   -7.6112   23.9712 H   0  0  0  0  0  0
  -21.1501   -6.0489   25.9082 H   0  0  0  0  0  0
  -22.0597   -2.7598   23.2803 H   0  0  0  0  0  0
  -22.3917  -11.9815   22.4831 H   0  0  0  0  0  0
  -21.1032  -13.1299   22.2678 H   0  0  0  0  0  0
  -24.6571  -15.8675   20.5288 H   0  0  0  0  0  0
  -26.2759  -15.6242   20.1049 H   0  0  0  0  0  0
  -26.7292  -32.5209   23.0943 H   0  0  0  0  0  0
  -25.0188  -33.9537   25.0331 H   0  0  0  0  0  0
  -22.7596  -31.2841   21.3689 H   0  0  0  0  0  0
  -23.3765  -35.9531   23.3279 H   0  0  0  0  0  0
  -24.3588  -36.8873   22.2066 H   0  0  0  0  0  0
  -23.7241  -37.6395   23.6714 H   0  0  0  0  0  0
  -26.1785  -31.4299   20.6098 H   0  0  0  0  0  0
  -26.8815  -30.7379   22.0320 H   0  0  0  0  0  0
  -28.1459  -28.7557   21.2024 H   0  0  0  0  0  0
  -25.9154  -25.7712   19.0435 H   0  0  0  0  0  0
  -23.9618  -27.2502   19.0245 H   0  0  0  0  0  0
  -23.8254  -30.5369   19.3927 H   0  0  0  0  0  0
  -22.7908  -29.2166   19.8460 H   0  0  0  0  0  0
  -25.1333  -36.1774   25.0793 H   0  0  0  0  0  0
  -21.0003  -28.3301   24.1348 H   0  0  0  0  0  0
  -20.5682  -26.2327   23.3624 H   0  0  0  0  0  0
  -21.6676  -26.7413   22.1205 H   0  0  0  0  0  0
  -19.6928  -25.6273   21.1236 H   0  0  0  0  0  0
  -19.6724  -27.3186   20.6724 H   0  0  0  0  0  0
  -17.4235  -26.6665   21.3986 H   0  0  0  0  0  0
  -18.0338  -26.0073   22.9008 H   0  0  0  0  0  0
  -19.7965  -30.7309   24.2160 H   0  0  0  0  0  0
  -17.5036  -31.6265   24.5159 H   0  0  0  0  0  0
  -15.5370  -30.2948   23.7728 H   0  0  0  0  0  0
  -15.8682  -28.0803   22.7086 H   0  0  0  0  0  0
  -24.6001  -30.6972   25.7735 H   0  0  0  0  0  0
  -24.8911  -32.2868   26.4727 H   0  0  0  0  0  0
  -25.8095  -30.8963   27.0210 H   0  0  0  0  0  0
  -26.3092  -29.6596   24.1367 H   0  0  0  0  0  0
  -27.4076  -29.7247   25.4922 H   0  0  0  0  0  0
  -27.9000  -30.4116   23.9664 H   0  0  0  0  0  0
  -27.2693  -33.3645   26.1943 H   0  0  0  0  0  0
  -28.3978  -32.6792   25.0340 H   0  0  0  0  0  0
  -28.0705  -31.8489   26.5462 H   0  0  0  0  0  0
  -28.2575  -38.0062   24.7537 H   0  0  0  0  0  0
  -28.1074  -36.2602   24.6290 H   0  0  0  0  0  0
  -27.2286  -37.1391   25.8868 H   0  0  0  0  0  0
  -20.9494  -29.8665   21.6697 H   0  0  0  0  0  0
  -26.0123  -38.2762   24.1427 H   0  0  0  0  0  0
  -32.1168  -18.8644   20.9979 H   0  0  0  0  0  0
  -30.9669  -19.4030   22.1326 H   0  0  0  0  0  0
  -30.0323  -17.3865   22.4696 H   0  0  0  0  0  0
  -31.5879  -16.8535   21.9902 H   0  0  0  0  0  0
  -28.3900  -16.8373   19.2864 H   0  0  0  0  0  0
  -27.9883  -17.1585   20.9304 H   0  0  0  0  0  0
  -27.6826  -20.1811   21.3591 H   0  0  0  0  0  0
  -26.9631  -20.1767   19.7712 H   0  0  0  0  0  0
  -30.7379  -21.8862   19.9664 H   0  0  0  0  0  0
  -30.0914  -21.3875   21.5029 H   0  0  0  0  0  0
  -28.6806  -18.9609   18.8289 H   0  0  0  0  0  0
  -31.7810  -22.6252   16.0297 H   0  0  0  0  0  0
  -31.7013  -22.3155   17.7473 H   0  0  0  0  0  0
  -30.2162  -22.4712   16.8030 H   0  0  0  0  0  0
  -31.2724  -20.8178   14.3027 H   0  0  0  0  0  0
  -29.6571  -20.7237   14.9911 H   0  0  0  0  0  0
  -30.6294  -19.2669   14.8117 H   0  0  0  0  0  0
  -31.6293  -18.5438   18.7385 H   0  0  0  0  0  0
  -32.0421  -20.2189   18.8969 H   0  0  0  0  0  0
  -27.4518  -23.2016   19.1438 H   0  0  0  0  0  0
  -27.0013  -22.8890   20.7652 H   0  0  0  0  0  0
  -29.5459  -24.4885   20.4807 H   0  0  0  0  0  0
  -28.3222  -24.6617   21.6609 H   0  0  0  0  0  0
  -32.2989  -20.2269   16.4619 H   0  0  0  0  0  0
  -28.6811  -21.5943   19.0159 H   0  0  0  0  0  0
  -29.5870  -20.0926   17.5727 H   0  0  0  0  0  0
  -30.4393  -18.8284   17.0867 H   0  0  0  0  0  0
  1 25  1  0  0  0
  1 30  2  0  0  0
  1 84  1  0  0  0
  2  3  1  0  0  0
  2 25  1  0  0  0
  2 87  1  0  0  0
  2 88  1  0  0  0
  3  4  1  0  0  0
  3 89  1  0  0  0
  3 90  1  0  0  0
  4  5  1  0  0  0
  4 91  1  0  0  0
  4 92  1  0  0  0
  5  6  1  0  0  0
  5 26  1  0  0  0
  5 93  1  0  0  0
  6 25  1  0  0  0
  6 94  1  0  0  0
  6 95  1  0  0  0
  7  8  2  0  0  0
  7 26  1  0  0  0
  7 29  1  0  0  0
  8  9  1  0  0  0
  8 22  1  0  0  0
  9 10  1  0  0  0
  9 27  2  0  0  0
 10 11  2  0  0  0
 10 15  1  0  0  0
 11 12  1  0  0  0
 11 96  1  0  0  0
 12 13  2  0  0  0
 12 97  1  0  0  0
 13 14  1  0  0  0
 13 31  1  0  0  0
 14 15  2  0  0  0
 14 98  1  0  0  0
 15 99  1  0  0  0
 16 17  2  0  0  0
 16 21  1  0  0  0
 16 31  1  0  0  0
 17 18  1  0  0  0
 17100  1  0  0  0
 18 19  2  0  0  0
 18101  1  0  0  0
 19 20  1  0  0  0
 19 24  1  0  0  0
 20 21  2  0  0  0
 20102  1  0  0  0
 21 23  1  0  0  0
 22 28  1  0  0  0
 22 32  2  0  0  0
 26 27  1  0  0  0
 28103  1  0  0  0
 28104  1  0  0  0
 29105  1  0  0  0
 29106  1  0  0  0
 33 34  1  0  0  0
 33 66  1  0  0  0
 33 70  2  0  0  0
 34 36  1  0  0  0
 34 59  1  0  0  0
 34107  1  0  0  0
 35 44  2  0  0  0
 35 45  1  0  0  0
 35 68  1  0  0  0
 36 56  1  0  0  0
 36108  1  0  0  0
 37 39  1  0  0  0
 37 47  1  0  0  0
 37 66  1  0  0  0
 37109  1  0  0  0
 38 43  2  0  0  0
 38 46  1  0  0  0
 38 47  1  0  0  0
 39 64  1  0  0  0
 39 67  2  0  0  0
 40 52  1  0  0  0
 40 53  2  0  0  0
 40 58  1  0  0  0
 41110  1  0  0  0
 41111  1  0  0  0
 41112  1  0  0  0
 41 48  1  0  0  0
 42 43  1  0  0  0
 42 66  1  0  0  0
 42113  1  0  0  0
 42114  1  0  0  0
 43 44  1  0  0  0
 44115  1  0  0  0
 45 46  2  0  0  0
 45116  1  0  0  0
 46117  1  0  0  0
 47118  1  0  0  0
 47119  1  0  0  0
 48 56  1  0  0  0
 48 65  1  0  0  0
 48120  1  0  0  0
 49 50  1  0  0  0
 49 53  1  0  0  0
 49 64  1  0  0  0
 49121  1  0  0  0
 50 51  1  0  0  0
 50122  1  0  0  0
 50123  1  0  0  0
 51 52  1  0  0  0
 51124  1  0  0  0
 51125  1  0  0  0
 52126  1  0  0  0
 52127  1  0  0  0
 53 54  1  0  0  0
 54 55  2  0  0  0
 54128  1  0  0  0
 55 57  1  0  0  0
 55129  1  0  0  0
 56 69  2  0  0  0
 57 58  2  0  0  0
 57130  1  0  0  0
 58131  1  0  0  0
 59 60  1  0  0  0
 59 61  1  0  0  0
 59 62  1  0  0  0
 60132  1  0  0  0
 60133  1  0  0  0
 60134  1  0  0  0
 61135  1  0  0  0
 61136  1  0  0  0
 61137  1  0  0  0
 62138  1  0  0  0
 62139  1  0  0  0
 62140  1  0  0  0
 63 65  1  0  0  0
 63141  1  0  0  0
 63142  1  0  0  0
 63143  1  0  0  0
 64144  1  0  0  0
 65145  1  0  0  0
 68 82  1  0  0  0
 71 72  1  0  0  0
 71 77  1  0  0  0
 71146  1  0  0  0
 71147  1  0  0  0
 72 84  1  0  0  0
 72148  1  0  0  0
 72149  1  0  0  0
 73 84  1  0  0  0
 73150  1  0  0  0
 73151  1  0  0  0
 73 76  1  0  0  0
 74 76  1  0  0  0
 74 85  1  0  0  0
 74152  1  0  0  0
 74153  1  0  0  0
 75 77  1  0  0  0
 75 85  1  0  0  0
 75154  1  0  0  0
 75155  1  0  0  0
 76 77  1  0  0  0
 76156  1  0  0  0
 77 80  1  0  0  0
 78157  1  0  0  0
 78158  1  0  0  0
 78159  1  0  0  0
 78 83  1  0  0  0
 79 83  1  0  0  0
 79160  1  0  0  0
 79161  1  0  0  0
 79162  1  0  0  0
 80 86  1  0  0  0
 80163  1  0  0  0
 80164  1  0  0  0
 81 82  1  0  0  0
 81165  1  0  0  0
 81166  1  0  0  0
 81 85  1  0  0  0
 82167  1  0  0  0
 82168  1  0  0  0
 83 86  1  0  0  0
 83169  1  0  0  0
 85170  1  0  0  0
 86171  1  0  0  0
 86172  1  0  0  0
M  CHG  2  85   1  86   1
M  ISO  4   1 100  68 101  82 101  84 100
M  END
> <chiral flag>
0

> <version>
0

> <s_m_source_file>
/data/baiqing/PycharmProjects/Reinvent-master-3.2/result/LINK_invent/BTK/process_docking_weight1_custom_sum_contain_oxygen_bond_distance_aromatic_linkinvent_7_9_3/rearranged_h_0191.sdf

> <i_m_source_file_index>
26

> <r_mmod_Potential_Energy-OPLS-2005>
1025.33215332031

> <r_mmod_Stretch_Energy-OPLS-2005>
343.723724365234

> <r_mmod_Bend_Energy-OPLS-2005>
528.901672363281

> <r_mmod_Torsional_Energy-OPLS-2005>
479.968414306641

> <r_mmod_Improper_Torsional_Energy-OPLS-2005>
1.86557841300964

> <r_mmod_Van_der_Waal_Energy-OPLS-2005>
107.851226806641

> <r_mmod_Electrostatic_Energy-OPLS-2005>
267.135406494141

> <r_mmod_Solvation_Energy-OPLS-2005>
-977.257995605469

> <b_mmod_Minimization_Converged-OPLS-2005>
0

> <r_mmod_RMS_Derivative-OPLS-2005>
4.78649950027466

$$$$
26
                    3D
 Structure written by MMmdl.
159168  0  0  1  0            999 V2000
  -30.6640  -14.6719   20.4755 C   0  0  0  0  0  0
  -30.4258  -12.4098   19.4663 C   0  0  0  0  0  0
  -29.5065  -12.4980   18.2298 C   0  0  0  0  0  0
  -28.0307  -12.3396   18.6437 C   0  0  0  0  0  0
  -27.6475  -13.2288   19.8579 C   0  0  2  0  0  0
  -28.6947  -13.1369   20.9898 C   0  0  0  0  0  0
  -25.2553  -13.8194   20.5713 C   0  0  0  0  0  0
  -24.1826  -13.0449   20.9203 C   0  0  0  0  0  0
  -24.6403  -11.6923   20.8749 C   0  0  0  0  0  0
  -23.9073  -10.4299   21.0406 C   0  0  0  0  0  0
  -24.3622   -9.4215   21.9186 C   0  0  0  0  0  0
  -23.6303   -8.2248   22.0753 C   0  0  0  0  0  0
  -22.4287   -8.0282   21.3537 C   0  0  0  0  0  0
  -21.9919   -9.0258   20.4644 C   0  0  0  0  0  0
  -22.7242  -10.2140   20.3052 C   0  0  0  0  0  0
  -21.6851   -6.0743   22.5280 C   0  0  0  0  0  0
  -21.4008   -6.5644   23.8214 C   0  0  0  0  0  0
  -21.3664   -5.6796   24.9179 C   0  0  0  0  0  0
  -21.6048   -4.3061   24.7220 C   0  0  0  0  0  0
  -21.8820   -3.8150   23.4342 C   0  0  0  0  0  0
  -21.9191   -4.6968   22.3401 C   0  0  0  0  0  0
  -22.7849  -13.5243   21.1845 C   0  0  0  0  0  0
  -22.1663   -4.2156   21.0977 F   0  0  0  0  0  0
  -21.5633   -3.4543   25.7733 F   0  0  0  0  0  0
  -29.9993  -13.4706   20.4056 N   0  0  0  0  0  0
  -26.2980  -12.9395   20.3340 N   0  0  0  0  0  0
  -25.9340  -11.6539   20.5785 N   0  0  0  0  0  0
  -22.0474  -12.8246   22.0394 N   0  0  0  0  0  0
  -25.4282  -15.1910   20.4122 N   0  0  0  0  0  0
  -31.8510  -14.7303   20.1398 O   0  0  0  0  0  0
  -21.6645   -6.8881   21.4242 O   0  0  0  0  0  0
  -22.3549  -14.5554   20.6693 O   0  0  0  0  0  0
  -24.6298  -31.8586   23.2045 C   0  0  0  0  0  0
  -25.9139  -32.4771   23.8368 C   0  0  1  0  0  0
  -27.2088  -27.2889   20.1093 C   0  0  0  0  0  0
  -25.5948  -33.8576   24.2286 N   0  0  0  0  0  0
  -23.4233  -30.4859   21.5492 C   0  0  2  0  0  0
  -24.8664  -28.9470   20.1092 C   0  0  0  0  0  0
  -22.7498  -29.4614   22.4945 C   0  0  0  0  0  0
  -18.0288  -28.1385   22.8485 C   0  0  0  0  0  0
  -24.1489  -36.7284   23.2635 C   0  0  0  0  0  0
  -25.9697  -30.7785   21.3832 C   0  0  0  0  0  0
  -26.0400  -29.4063   20.7204 C   0  0  0  0  0  0
  -27.2136  -28.5873   20.7165 C   0  0  0  0  0  0
  -26.0128  -26.9110   19.4490 C   0  0  0  0  0  0
  -24.8560  -27.7048   19.4661 C   0  0  0  0  0  0
  -23.6380  -29.8300   20.1625 C   0  0  0  0  0  0
  -25.4114  -36.3078   24.0328 C   0  0  1  0  0  0
  -20.5893  -28.3688   23.1278 C   0  0  2  0  0  0
  -20.6779  -26.9410   22.5407 C   0  0  0  0  0  0
  -19.5753  -26.6380   21.5212 C   0  0  0  0  0  0
  -18.1931  -26.7929   22.1619 C   0  0  0  0  0  0
  -19.1541  -28.8853   23.2875 C   0  0  0  0  0  0
  -18.9463  -30.1458   23.8888 C   0  0  0  0  0  0
  -17.6462  -30.6588   24.0555 C   0  0  0  0  0  0
  -25.9056  -34.9446   23.5103 C   0  0  0  0  0  0
  -16.5352  -29.9080   23.6335 C   0  0  0  0  0  0
  -16.7274  -28.6497   23.0354 C   0  0  0  0  0  0
  -26.4512  -31.6586   25.0744 C   0  0  0  0  0  0
  -25.3748  -31.3723   26.1472 C   0  0  0  0  0  0
  -27.0359  -30.3008   24.6212 C   0  0  0  0  0  0
  -27.6072  -32.4322   25.7519 C   0  0  0  0  0  0
  -27.5585  -37.1791   24.8458 C   0  0  0  0  0  0
  -21.4209  -29.3040   22.3684 N   0  0  0  0  0  0
  -26.4285  -37.3780   23.9420 N   0  0  0  0  0  0
  -24.6933  -31.0574   22.1020 N   0  0  0  0  0  0
  -23.4212  -28.8138   23.3017 O   0  0  0  0  0  0
  -28.2883  -26.3788   20.1910 O   0  0  0  0  0  0
  -26.5613  -34.8913   22.4662 O   0  0  0  0  0  0
  -23.5454  -32.1399   23.7352 O   0  0  0  0  0  0
  -28.7012  -22.3230   20.1216 C   0  0  0  0  0  0
  -28.8754  -23.7490   20.3672 C   0  0  0  0  0  0
  -29.6935  -21.6557   20.8166 C   0  0  0  0  0  0
  -29.5474  -17.9708   21.8590 C   0  0  0  0  0  0
  -30.3935  -18.2543   19.5823 C   0  0  0  0  0  0
  -29.1772  -16.4652   21.5528 C   0  0  0  0  0  0
  -29.9726  -16.7736   19.2708 C   0  0  0  0  0  0
  -29.5449  -18.9795   20.6616 C   0  0  0  0  0  0
  -31.5655  -22.5811   22.2938 C   0  0  0  0  0  0
  -27.9795  -24.9448   19.8927 C   0  0  0  0  0  0
  -29.9267  -23.9326   21.1519 N   0  0  0  0  0  0
  -30.4111  -22.6867   21.4204 N   0  0  0  0  0  0
  -29.9131  -15.8384   20.4284 N   0  0  0  0  0  0
  -30.1292  -20.3037   21.0543 N   0  0  0  0  0  0
  -31.4701  -12.5084   19.1639 H   0  0  0  0  0  0
  -30.3460  -11.4297   19.9391 H   0  0  0  0  0  0
  -29.7760  -11.7308   17.5023 H   0  0  0  0  0  0
  -29.6485  -13.4571   17.7289 H   0  0  0  0  0  0
  -27.8739  -11.2893   18.8939 H   0  0  0  0  0  0
  -27.3760  -12.5512   17.7980 H   0  0  0  0  0  0
  -27.6503  -14.2564   19.4941 H   0  0  0  0  0  0
  -28.7179  -12.1349   21.4192 H   0  0  0  0  0  0
  -28.4411  -13.8111   21.8073 H   0  0  0  0  0  0
  -25.2755   -9.5708   22.4780 H   0  0  0  0  0  0
  -24.0011   -7.4642   22.7479 H   0  0  0  0  0  0
  -21.0844   -8.8777   19.8954 H   0  0  0  0  0  0
  -22.3690  -10.9688   19.6172 H   0  0  0  0  0  0
  -21.1996   -7.6149   23.9724 H   0  0  0  0  0  0
  -21.1490   -6.0522   25.9087 H   0  0  0  0  0  0
  -22.0594   -2.7610   23.2835 H   0  0  0  0  0  0
  -22.4071  -11.9904   22.4794 H   0  0  0  0  0  0
  -21.1099  -13.1297   22.2575 H   0  0  0  0  0  0
  -24.6671  -15.8515   20.5237 H   0  0  0  0  0  0
  -26.2880  -15.6245   20.1011 H   0  0  0  0  0  0
  -26.7203  -32.5428   23.1108 H   0  0  0  0  0  0
  -25.0115  -33.9718   25.0446 H   0  0  0  0  0  0
  -22.7182  -31.3079   21.4102 H   0  0  0  0  0  0
  -23.3763  -35.9603   23.3272 H   0  0  0  0  0  0
  -24.3595  -36.8928   22.2056 H   0  0  0  0  0  0
  -23.7221  -37.6470   23.6673 H   0  0  0  0  0  0
  -26.1072  -31.5421   20.6161 H   0  0  0  0  0  0
  -26.8489  -30.8239   22.0148 H   0  0  0  0  0  0
  -28.1079  -28.9281   21.2198 H   0  0  0  0  0  0
  -25.9182  -25.9757   18.9193 H   0  0  0  0  0  0
  -23.9588  -27.3494   18.9773 H   0  0  0  0  0  0
  -23.7624  -30.6102   19.4108 H   0  0  0  0  0  0
  -22.7559  -29.2644   19.8556 H   0  0  0  0  0  0
  -25.1290  -36.1923   25.0819 H   0  0  0  0  0  0
  -20.9971  -28.3250   24.1404 H   0  0  0  0  0  0
  -20.5682  -26.2293   23.3607 H   0  0  0  0  0  0
  -21.6645  -26.7444   22.1191 H   0  0  0  0  0  0
  -19.6911  -25.6289   21.1243 H   0  0  0  0  0  0
  -19.6690  -27.3187   20.6738 H   0  0  0  0  0  0
  -17.4205  -26.6679   21.4016 H   0  0  0  0  0  0
  -18.0324  -26.0072   22.9012 H   0  0  0  0  0  0
  -19.7940  -30.7277   24.2246 H   0  0  0  0  0  0
  -17.5017  -31.6270   24.5152 H   0  0  0  0  0  0
  -15.5351  -30.2973   23.7675 H   0  0  0  0  0  0
  -15.8676  -28.0814   22.7075 H   0  0  0  0  0  0
  -24.5919  -30.7077   25.7798 H   0  0  0  0  0  0
  -24.8947  -32.2886   26.4913 H   0  0  0  0  0  0
  -25.8074  -30.8888   27.0240 H   0  0  0  0  0  0
  -26.2938  -29.6756   24.1231 H   0  0  0  0  0  0
  -27.4044  -29.7266   25.4722 H   0  0  0  0  0  0
  -27.8817  -30.4287   23.9455 H   0  0  0  0  0  0
  -27.2685  -33.3625   26.2091 H   0  0  0  0  0  0
  -28.3892  -32.6874   25.0357 H   0  0  0  0  0  0
  -28.0732  -31.8450   26.5442 H   0  0  0  0  0  0
  -28.2569  -38.0121   24.7557 H   0  0  0  0  0  0
  -28.1114  -36.2656   24.6218 H   0  0  0  0  0  0
  -27.2314  -37.1352   25.8861 H   0  0  0  0  0  0
  -20.9396  -29.8786   21.6914 H   0  0  0  0  0  0
  -26.0159  -38.2846   24.1458 H   0  0  0  0  0  0
  -27.9292  -21.8618   19.5230 H   0  0  0  0  0  0
  -30.5397  -17.9729   22.3117 H   0  0  0  0  0  0
  -28.8768  -18.3403   22.6361 H   0  0  0  0  0  0
  -30.3623  -18.8322   18.6576 H   0  0  0  0  0  0
  -31.4403  -18.2474   19.8902 H   0  0  0  0  0  0
  -28.1118  -16.3958   21.3310 H   0  0  0  0  0  0
  -29.3329  -15.8780   22.4590 H   0  0  0  0  0  0
  -30.6357  -16.3755   18.4999 H   0  0  0  0  0  0
  -28.9820  -16.7800   18.8141 H   0  0  0  0  0  0
  -28.5242  -19.1208   20.2998 H   0  0  0  0  0  0
  -32.3850  -22.0936   21.7658 H   0  0  0  0  0  0
  -31.3052  -21.9917   23.1736 H   0  0  0  0  0  0
  -31.8963  -23.5682   22.6194 H   0  0  0  0  0  0
  -26.9989  -24.7207   20.3135 H   0  0  0  0  0  0
  -27.8689  -24.8624   18.8109 H   0  0  0  0  0  0
  -30.9478  -20.2378   21.6497 H   0  0  0  0  0  0
  1 25  1  0  0  0
  1 30  2  0  0  0
  1 83  1  0  0  0
  2  3  1  0  0  0
  2 25  1  0  0  0
  2 85  1  0  0  0
  2 86  1  0  0  0
  3  4  1  0  0  0
  3 87  1  0  0  0
  3 88  1  0  0  0
  4  5  1  0  0  0
  4 89  1  0  0  0
  4 90  1  0  0  0
  5  6  1  0  0  0
  5 26  1  0  0  0
  5 91  1  0  0  0
  6 25  1  0  0  0
  6 92  1  0  0  0
  6 93  1  0  0  0
  7  8  2  0  0  0
  7 26  1  0  0  0
  7 29  1  0  0  0
  8  9  1  0  0  0
  8 22  1  0  0  0
  9 10  1  0  0  0
  9 27  2  0  0  0
 10 11  2  0  0  0
 10 15  1  0  0  0
 11 12  1  0  0  0
 11 94  1  0  0  0
 12 13  2  0  0  0
 12 95  1  0  0  0
 13 14  1  0  0  0
 13 31  1  0  0  0
 14 15  2  0  0  0
 14 96  1  0  0  0
 15 97  1  0  0  0
 16 17  2  0  0  0
 16 21  1  0  0  0
 16 31  1  0  0  0
 17 18  1  0  0  0
 17 98  1  0  0  0
 18 19  2  0  0  0
 18 99  1  0  0  0
 19 20  1  0  0  0
 19 24  1  0  0  0
 20 21  2  0  0  0
 20100  1  0  0  0
 21 23  1  0  0  0
 22 28  1  0  0  0
 22 32  2  0  0  0
 26 27  1  0  0  0
 28101  1  0  0  0
 28102  1  0  0  0
 29103  1  0  0  0
 29104  1  0  0  0
 33 34  1  0  0  0
 33 66  1  0  0  0
 33 70  2  0  0  0
 34 36  1  0  0  0
 34 59  1  0  0  0
 34105  1  0  0  0
 35 44  2  0  0  0
 35 45  1  0  0  0
 35 68  1  0  0  0
 36 56  1  0  0  0
 36106  1  0  0  0
 37 39  1  0  0  0
 37 47  1  0  0  0
 37 66  1  0  0  0
 37107  1  0  0  0
 38 43  2  0  0  0
 38 46  1  0  0  0
 38 47  1  0  0  0
 39 64  1  0  0  0
 39 67  2  0  0  0
 40 52  1  0  0  0
 40 53  2  0  0  0
 40 58  1  0  0  0
 41108  1  0  0  0
 41109  1  0  0  0
 41110  1  0  0  0
 41 48  1  0  0  0
 42 43  1  0  0  0
 42 66  1  0  0  0
 42111  1  0  0  0
 42112  1  0  0  0
 43 44  1  0  0  0
 44113  1  0  0  0
 45 46  2  0  0  0
 45114  1  0  0  0
 46115  1  0  0  0
 47116  1  0  0  0
 47117  1  0  0  0
 48 56  1  0  0  0
 48 65  1  0  0  0
 48118  1  0  0  0
 49 50  1  0  0  0
 49 53  1  0  0  0
 49 64  1  0  0  0
 49119  1  0  0  0
 50 51  1  0  0  0
 50120  1  0  0  0
 50121  1  0  0  0
 51 52  1  0  0  0
 51122  1  0  0  0
 51123  1  0  0  0
 52124  1  0  0  0
 52125  1  0  0  0
 53 54  1  0  0  0
 54 55  2  0  0  0
 54126  1  0  0  0
 55 57  1  0  0  0
 55127  1  0  0  0
 56 69  2  0  0  0
 57 58  2  0  0  0
 57128  1  0  0  0
 58129  1  0  0  0
 59 60  1  0  0  0
 59 61  1  0  0  0
 59 62  1  0  0  0
 60130  1  0  0  0
 60131  1  0  0  0
 60132  1  0  0  0
 61133  1  0  0  0
 61134  1  0  0  0
 61135  1  0  0  0
 62136  1  0  0  0
 62137  1  0  0  0
 62138  1  0  0  0
 63 65  1  0  0  0
 63139  1  0  0  0
 63140  1  0  0  0
 63141  1  0  0  0
 64142  1  0  0  0
 65143  1  0  0  0
 68 80  1  0  0  0
 71 72  1  0  0  0
 71 73  2  0  0  0
 71144  1  0  0  0
 72 80  1  0  0  0
 72 81  2  0  0  0
 73 82  1  0  0  0
 73 84  1  0  0  0
 74 76  1  0  0  0
 74 78  1  0  0  0
 74145  1  0  0  0
 74146  1  0  0  0
 75 77  1  0  0  0
 75 78  1  0  0  0
 75147  1  0  0  0
 75148  1  0  0  0
 76 83  1  0  0  0
 76149  1  0  0  0
 76150  1  0  0  0
 77 83  1  0  0  0
 77151  1  0  0  0
 77152  1  0  0  0
 78 84  1  0  0  0
 78153  1  0  0  0
 79 82  1  0  0  0
 79154  1  0  0  0
 79155  1  0  0  0
 79156  1  0  0  0
 80157  1  0  0  0
 80158  1  0  0  0
 81 82  1  0  0  0
 84159  1  0  0  0
M  ISO  4   1 100  68 101  80 101  83 100
M  END
> <chiral flag>
0

> <version>
0

> <s_m_source_file>
/data/baiqing/PycharmProjects/Reinvent-master-3.2/result/LINK_invent/BTK/process_docking_weight1_custom_sum_contain_oxygen_bond_distance_aromatic_linkinvent_7_9_3/rearranged_h_0191.sdf

> <i_m_source_file_index>
27

> <r_mmod_Potential_Energy-OPLS-2005>
248.55158996582

> <r_mmod_Stretch_Energy-OPLS-2005>
87.1454238891602

> <r_mmod_Bend_Energy-OPLS-2005>
173.282455444336

> <r_mmod_Torsional_Energy-OPLS-2005>
322.460571289062

> <r_mmod_Improper_Torsional_Energy-OPLS-2005>
16.0728168487549

> <r_mmod_Van_der_Waal_Energy-OPLS-2005>
127.183227539062

> <r_mmod_Electrostatic_Energy-OPLS-2005>
-322.0341796875

> <r_mmod_Solvation_Energy-OPLS-2005>
-222.60563659668

> <b_mmod_Minimization_Converged-OPLS-2005>
0

> <r_mmod_RMS_Derivative-OPLS-2005>
1.16602694988251

$$$$
27
                    3D
 Structure written by MMmdl.
160169  0  0  1  0            999 V2000
  -30.6931  -14.5348   20.5330 C   0  0  0  0  0  0
  -30.4204  -12.3339   19.4465 C   0  0  0  0  0  0
  -29.5009  -12.4946   18.2175 C   0  0  0  0  0  0
  -28.0200  -12.3574   18.6250 C   0  0  0  0  0  0
  -27.6539  -13.2143   19.8673 C   0  0  2  0  0  0
  -28.6956  -13.0453   20.9954 C   0  0  0  0  0  0
  -25.2580  -13.8182   20.5709 C   0  0  0  0  0  0
  -24.1837  -13.0451   20.9199 C   0  0  0  0  0  0
  -24.6396  -11.6916   20.8749 C   0  0  0  0  0  0
  -23.9059  -10.4298   21.0405 C   0  0  0  0  0  0
  -24.3619   -9.4212   21.9178 C   0  0  0  0  0  0
  -23.6297   -8.2249   22.0747 C   0  0  0  0  0  0
  -22.4279   -8.0290   21.3540 C   0  0  0  0  0  0
  -21.9913   -9.0262   20.4647 C   0  0  0  0  0  0
  -22.7235  -10.2142   20.3051 C   0  0  0  0  0  0
  -21.6863   -6.0742   22.5279 C   0  0  0  0  0  0
  -21.4019   -6.5639   23.8217 C   0  0  0  0  0  0
  -21.3663   -5.6782   24.9172 C   0  0  0  0  0  0
  -21.6044   -4.3047   24.7218 C   0  0  0  0  0  0
  -21.8817   -3.8147   23.4336 C   0  0  0  0  0  0
  -21.9193   -4.6966   22.3392 C   0  0  0  0  0  0
  -22.7857  -13.5246   21.1844 C   0  0  0  0  0  0
  -22.1658   -4.2160   21.0972 F   0  0  0  0  0  0
  -21.5633   -3.4525   25.7725 F   0  0  0  0  0  0
  -30.0164  -13.3546   20.4300 N   0  0  0  0  0  0
  -26.2999  -12.9354   20.3336 N   0  0  0  0  0  0
  -25.9320  -11.6509   20.5762 N   0  0  0  0  0  0
  -22.0479  -12.8254   22.0400 N   0  0  0  0  0  0
  -25.4303  -15.1903   20.4120 N   0  0  0  0  0  0
  -31.8608  -14.6406   20.1449 O   0  0  0  0  0  0
  -21.6643   -6.8887   21.4243 O   0  0  0  0  0  0
  -22.3546  -14.5540   20.6672 O   0  0  0  0  0  0
  -24.6161  -31.8664   23.2090 C   0  0  0  0  0  0
  -25.9044  -32.4811   23.8389 C   0  0  1  0  0  0
  -27.2272  -27.3992   20.1105 C   0  0  0  0  0  0
  -25.5879  -33.8609   24.2314 N   0  0  0  0  0  0
  -23.4070  -30.4893   21.5488 C   0  0  2  0  0  0
  -24.8557  -28.9482   20.1197 C   0  0  0  0  0  0
  -22.7426  -29.4651   22.4971 C   0  0  0  0  0  0
  -18.0277  -28.1389   22.8483 C   0  0  0  0  0  0
  -24.1481  -36.7328   23.2646 C   0  0  0  0  0  0
  -25.9401  -30.8178   21.3715 C   0  0  0  0  0  0
  -26.0165  -29.4464   20.7260 C   0  0  0  0  0  0
  -27.2077  -28.6778   20.7231 C   0  0  0  0  0  0
  -26.0570  -26.9326   19.4798 C   0  0  0  0  0  0
  -24.8714  -27.6899   19.4944 C   0  0  0  0  0  0
  -23.6210  -29.8213   20.1641 C   0  0  0  0  0  0
  -25.4106  -36.3105   24.0337 C   0  0  1  0  0  0
  -20.5870  -28.3678   23.1306 C   0  0  2  0  0  0
  -20.6769  -26.9410   22.5416 C   0  0  0  0  0  0
  -19.5746  -26.6390   21.5213 C   0  0  0  0  0  0
  -18.1923  -26.7937   22.1620 C   0  0  0  0  0  0
  -19.1530  -28.8851   23.2894 C   0  0  0  0  0  0
  -18.9454  -30.1455   23.8909 C   0  0  0  0  0  0
  -17.6457  -30.6589   24.0569 C   0  0  0  0  0  0
  -25.9028  -34.9469   23.5127 C   0  0  0  0  0  0
  -16.5350  -29.9099   23.6321 C   0  0  0  0  0  0
  -16.7265  -28.6520   23.0334 C   0  0  0  0  0  0
  -26.4469  -31.6610   25.0732 C   0  0  0  0  0  0
  -25.3744  -31.3728   26.1492 C   0  0  0  0  0  0
  -27.0314  -30.3045   24.6149 C   0  0  0  0  0  0
  -27.6027  -32.4361   25.7483 C   0  0  0  0  0  0
  -27.5568  -37.1830   24.8471 C   0  0  0  0  0  0
  -21.4151  -29.3043   22.3712 N   0  0  0  0  0  0
  -26.4291  -37.3784   23.9394 N   0  0  0  0  0  0
  -24.6721  -31.0734   22.1003 N   0  0  0  0  0  0
  -23.4193  -28.8191   23.3018 O   0  0  0  0  0  0
  -28.3697  -26.6246   20.0469 O   0  0  0  0  0  0
  -26.5586  -34.8921   22.4688 O   0  0  0  0  0  0
  -23.5348  -32.1420   23.7461 O   0  0  0  0  0  0
  -29.1249  -21.4604   19.1328 C   0  0  0  0  0  0
  -28.5242  -22.6917   19.1309 C   0  0  0  0  0  0
  -29.3099  -21.1343   20.5088 C   0  0  0  0  0  0
  -29.4214  -16.1774   21.9149 C   0  0  0  0  0  0
  -30.1204  -16.7218   19.6070 C   0  0  0  0  0  0
  -29.7706  -17.6766   22.1684 C   0  0  0  0  0  0
  -29.1900  -17.9534   19.7768 C   0  0  0  0  0  0
  -30.0358  -19.9225   21.1141 C   0  0  0  0  0  0
  -27.6882  -24.2948   20.9533 C   0  0  0  0  0  0
  -28.5338  -25.6077   21.0626 C   0  0  0  0  0  0
  -28.8427  -22.1244   21.2837 N   0  0  0  0  0  0
  -28.3687  -23.0899   20.4409 N   0  0  0  0  0  0
  -29.9287  -15.6655   20.6262 N   0  0  0  0  0  0
  -29.2958  -18.6162   21.1069 N   0  3  0  0  0  0
  -31.4660  -12.4251   19.1474 H   0  0  0  0  0  0
  -30.3203  -11.3353   19.8759 H   0  0  0  0  0  0
  -29.7500  -11.7506   17.4596 H   0  0  0  0  0  0
  -29.6689  -13.4686   17.7560 H   0  0  0  0  0  0
  -27.8346  -11.3037   18.8331 H   0  0  0  0  0  0
  -27.3740  -12.6172   17.7845 H   0  0  0  0  0  0
  -27.6816  -14.2554   19.5475 H   0  0  0  0  0  0
  -28.6862  -12.0230   21.3759 H   0  0  0  0  0  0
  -28.4528  -13.6802   21.8470 H   0  0  0  0  0  0
  -25.2764   -9.5697   22.4751 H   0  0  0  0  0  0
  -24.0014   -7.4638   22.7458 H   0  0  0  0  0  0
  -21.0848   -8.8780   19.8953 H   0  0  0  0  0  0
  -22.3691  -10.9685   19.6165 H   0  0  0  0  0  0
  -21.2011   -7.6143   23.9724 H   0  0  0  0  0  0
  -21.1492   -6.0510   25.9080 H   0  0  0  0  0  0
  -22.0594   -2.7612   23.2826 H   0  0  0  0  0  0
  -22.4079  -11.9934   22.4840 H   0  0  0  0  0  0
  -21.1099  -13.1308   22.2561 H   0  0  0  0  0  0
  -24.6626  -15.8447   20.5177 H   0  0  0  0  0  0
  -26.2788  -15.6238   20.0738 H   0  0  0  0  0  0
  -26.7113  -32.5514   23.1149 H   0  0  0  0  0  0
  -25.0020  -33.9770   25.0451 H   0  0  0  0  0  0
  -22.6966  -31.3066   21.4070 H   0  0  0  0  0  0
  -23.3700  -35.9706   23.3364 H   0  0  0  0  0  0
  -24.3556  -36.8890   22.2048 H   0  0  0  0  0  0
  -23.7295  -37.6576   23.6626 H   0  0  0  0  0  0
  -26.0591  -31.5783   20.5987 H   0  0  0  0  0  0
  -26.8257  -30.8725   21.9927 H   0  0  0  0  0  0
  -28.1059  -29.0605   21.1879 H   0  0  0  0  0  0
  -26.0612  -25.9844   18.9622 H   0  0  0  0  0  0
  -23.9848  -27.3076   19.0079 H   0  0  0  0  0  0
  -23.7371  -30.5955   19.4055 H   0  0  0  0  0  0
  -22.7437  -29.2462   19.8621 H   0  0  0  0  0  0
  -25.1291  -36.1968   25.0829 H   0  0  0  0  0  0
  -20.9961  -28.3245   24.1427 H   0  0  0  0  0  0
  -20.5675  -26.2285   23.3605 H   0  0  0  0  0  0
  -21.6639  -26.7454   22.1204 H   0  0  0  0  0  0
  -19.6903  -25.6300   21.1240 H   0  0  0  0  0  0
  -19.6691  -27.3200   20.6742 H   0  0  0  0  0  0
  -17.4198  -26.6680   21.4020 H   0  0  0  0  0  0
  -18.0321  -26.0086   22.9020 H   0  0  0  0  0  0
  -19.7936  -30.7258   24.2287 H   0  0  0  0  0  0
  -17.5018  -31.6264   24.5180 H   0  0  0  0  0  0
  -15.5352  -30.3004   23.7642 H   0  0  0  0  0  0
  -15.8665  -28.0847   22.7031 H   0  0  0  0  0  0
  -24.5879  -30.7117   25.7832 H   0  0  0  0  0  0
  -24.8985  -32.2898   26.4975 H   0  0  0  0  0  0
  -25.8105  -30.8860   27.0230 H   0  0  0  0  0  0
  -26.2879  -29.6792   24.1197 H   0  0  0  0  0  0
  -27.4059  -29.7298   25.4632 H   0  0  0  0  0  0
  -27.8721  -30.4344   23.9332 H   0  0  0  0  0  0
  -27.2612  -33.3641   26.2081 H   0  0  0  0  0  0
  -28.3807  -32.6974   25.0296 H   0  0  0  0  0  0
  -28.0738  -31.8502   26.5386 H   0  0  0  0  0  0
  -28.2627  -38.0078   24.7424 H   0  0  0  0  0  0
  -28.1019  -36.2605   24.6409 H   0  0  0  0  0  0
  -27.2279  -37.1631   25.8874 H   0  0  0  0  0  0
  -20.9311  -29.8773   21.6937 H   0  0  0  0  0  0
  -26.0181  -38.2872   24.1340 H   0  0  0  0  0  0
  -29.4057  -20.8863   18.2607 H   0  0  0  0  0  0
  -28.1890  -23.3093   18.3082 H   0  0  0  0  0  0
  -28.3376  -16.0495   21.9347 H   0  0  0  0  0  0
  -29.8127  -15.5815   22.7415 H   0  0  0  0  0  0
  -31.1593  -17.0582   19.6156 H   0  0  0  0  0  0
  -29.9536  -16.2864   18.6194 H   0  0  0  0  0  0
  -30.8557  -17.7587   22.2500 H   0  0  0  0  0  0
  -29.3739  -17.9958   23.1330 H   0  0  0  0  0  0
  -28.1582  -17.6204   19.6618 H   0  0  0  0  0  0
  -29.3571  -18.6608   18.9654 H   0  0  0  0  0  0
  -30.2883  -20.1617   22.1480 H   0  0  0  0  0  0
  -30.9966  -19.7828   20.6166 H   0  0  0  0  0  0
  -26.7964  -24.4541   20.3521 H   0  0  0  0  0  0
  -27.3120  -24.0510   21.9472 H   0  0  0  0  0  0
  -29.5921  -25.3472   21.1031 H   0  0  0  0  0  0
  -28.3259  -26.0719   22.0287 H   0  0  0  0  0  0
  -28.3531  -18.8758   21.3578 H   0  0  0  0  0  0
  1 25  1  0  0  0
  1 30  2  0  0  0
  1 83  1  0  0  0
  2  3  1  0  0  0
  2 25  1  0  0  0
  2 85  1  0  0  0
  2 86  1  0  0  0
  3  4  1  0  0  0
  3 87  1  0  0  0
  3 88  1  0  0  0
  4  5  1  0  0  0
  4 89  1  0  0  0
  4 90  1  0  0  0
  5  6  1  0  0  0
  5 26  1  0  0  0
  5 91  1  0  0  0
  6 25  1  0  0  0
  6 92  1  0  0  0
  6 93  1  0  0  0
  7  8  2  0  0  0
  7 26  1  0  0  0
  7 29  1  0  0  0
  8  9  1  0  0  0
  8 22  1  0  0  0
  9 10  1  0  0  0
  9 27  2  0  0  0
 10 11  2  0  0  0
 10 15  1  0  0  0
 11 12  1  0  0  0
 11 94  1  0  0  0
 12 13  2  0  0  0
 12 95  1  0  0  0
 13 14  1  0  0  0
 13 31  1  0  0  0
 14 15  2  0  0  0
 14 96  1  0  0  0
 15 97  1  0  0  0
 16 17  2  0  0  0
 16 21  1  0  0  0
 16 31  1  0  0  0
 17 18  1  0  0  0
 17 98  1  0  0  0
 18 19  2  0  0  0
 18 99  1  0  0  0
 19 20  1  0  0  0
 19 24  1  0  0  0
 20 21  2  0  0  0
 20100  1  0  0  0
 21 23  1  0  0  0
 22 28  1  0  0  0
 22 32  2  0  0  0
 26 27  1  0  0  0
 28101  1  0  0  0
 28102  1  0  0  0
 29103  1  0  0  0
 29104  1  0  0  0
 33 34  1  0  0  0
 33 66  1  0  0  0
 33 70  2  0  0  0
 34 36  1  0  0  0
 34 59  1  0  0  0
 34105  1  0  0  0
 35 44  2  0  0  0
 35 45  1  0  0  0
 35 68  1  0  0  0
 36 56  1  0  0  0
 36106  1  0  0  0
 37 39  1  0  0  0
 37 47  1  0  0  0
 37 66  1  0  0  0
 37107  1  0  0  0
 38 43  2  0  0  0
 38 46  1  0  0  0
 38 47  1  0  0  0
 39 64  1  0  0  0
 39 67  2  0  0  0
 40 52  1  0  0  0
 40 53  2  0  0  0
 40 58  1  0  0  0
 41108  1  0  0  0
 41109  1  0  0  0
 41110  1  0  0  0
 41 48  1  0  0  0
 42 43  1  0  0  0
 42 66  1  0  0  0
 42111  1  0  0  0
 42112  1  0  0  0
 43 44  1  0  0  0
 44113  1  0  0  0
 45 46  2  0  0  0
 45114  1  0  0  0
 46115  1  0  0  0
 47116  1  0  0  0
 47117  1  0  0  0
 48 56  1  0  0  0
 48 65  1  0  0  0
 48118  1  0  0  0
 49 50  1  0  0  0
 49 53  1  0  0  0
 49 64  1  0  0  0
 49119  1  0  0  0
 50 51  1  0  0  0
 50120  1  0  0  0
 50121  1  0  0  0
 51 52  1  0  0  0
 51122  1  0  0  0
 51123  1  0  0  0
 52124  1  0  0  0
 52125  1  0  0  0
 53 54  1  0  0  0
 54 55  2  0  0  0
 54126  1  0  0  0
 55 57  1  0  0  0
 55127  1  0  0  0
 56 69  2  0  0  0
 57 58  2  0  0  0
 57128  1  0  0  0
 58129  1  0  0  0
 59 60  1  0  0  0
 59 61  1  0  0  0
 59 62  1  0  0  0
 60130  1  0  0  0
 60131  1  0  0  0
 60132  1  0  0  0
 61133  1  0  0  0
 61134  1  0  0  0
 61135  1  0  0  0
 62136  1  0  0  0
 62137  1  0  0  0
 62138  1  0  0  0
 63 65  1  0  0  0
 63139  1  0  0  0
 63140  1  0  0  0
 63141  1  0  0  0
 64142  1  0  0  0
 65143  1  0  0  0
 68 80  1  0  0  0
 71 72  2  0  0  0
 71 73  1  0  0  0
 71144  1  0  0  0
 72 82  1  0  0  0
 72145  1  0  0  0
 73 78  1  0  0  0
 73 81  2  0  0  0
 74 76  1  0  0  0
 74 83  1  0  0  0
 74146  1  0  0  0
 74147  1  0  0  0
 75 77  1  0  0  0
 75 83  1  0  0  0
 75148  1  0  0  0
 75149  1  0  0  0
 76 84  1  0  0  0
 76150  1  0  0  0
 76151  1  0  0  0
 77 84  1  0  0  0
 77152  1  0  0  0
 77153  1  0  0  0
 78154  1  0  0  0
 78155  1  0  0  0
 78 84  1  0  0  0
 79 80  1  0  0  0
 79 82  1  0  0  0
 79156  1  0  0  0
 79157  1  0  0  0
 80158  1  0  0  0
 80159  1  0  0  0
 81 82  1  0  0  0
 84160  1  0  0  0
M  CHG  1  84   1
M  ISO  4   1 100  68 101  80 101  83 100
M  END
> <chiral flag>
0

> <version>
0

> <s_m_source_file>
/data/baiqing/PycharmProjects/Reinvent-master-3.2/result/LINK_invent/BTK/process_docking_weight1_custom_sum_contain_oxygen_bond_distance_aromatic_linkinvent_7_9_3/rearranged_h_0191.sdf

> <i_m_source_file_index>
28

> <r_mmod_Potential_Energy-OPLS-2005>
28.708963394165

> <r_mmod_Stretch_Energy-OPLS-2005>
47.8214263916016

> <r_mmod_Bend_Energy-OPLS-2005>
114.105934143066

> <r_mmod_Torsional_Energy-OPLS-2005>
421.175964355469

> <r_mmod_Improper_Torsional_Energy-OPLS-2005>
16.3585166931152

> <r_mmod_Van_der_Waal_Energy-OPLS-2005>
128.618316650391

> <r_mmod_Electrostatic_Energy-OPLS-2005>
-268.089447021484

> <r_mmod_Solvation_Energy-OPLS-2005>
-452.998046875

> <b_mmod_Minimization_Converged-OPLS-2005>
0

> <r_mmod_RMS_Derivative-OPLS-2005>
1.92167639732361

$$$$
28
                    3D
 Structure written by MMmdl.
161170  0  0  1  0            999 V2000
  -30.6729  -14.4750   20.5839 C   0  0  0  0  0  0
  -30.4275  -12.3143   19.4138 C   0  0  0  0  0  0
  -29.4911  -12.5183   18.2022 C   0  0  0  0  0  0
  -28.0135  -12.3715   18.6175 C   0  0  0  0  0  0
  -27.6627  -13.2027   19.8791 C   0  0  2  0  0  0
  -28.7032  -12.9618   20.9953 C   0  0  0  0  0  0
  -25.2594  -13.8151   20.5686 C   0  0  0  0  0  0
  -24.1836  -13.0437   20.9177 C   0  0  0  0  0  0
  -24.6385  -11.6898   20.8733 C   0  0  0  0  0  0
  -23.9043  -10.4286   21.0402 C   0  0  0  0  0  0
  -24.3600   -9.4201   21.9174 C   0  0  0  0  0  0
  -23.6285   -8.2232   22.0746 C   0  0  0  0  0  0
  -22.4267   -8.0265   21.3536 C   0  0  0  0  0  0
  -21.9893   -9.0234   20.4633 C   0  0  0  0  0  0
  -22.7219  -10.2119   20.3045 C   0  0  0  0  0  0
  -21.6845   -6.0723   22.5276 C   0  0  0  0  0  0
  -21.4017   -6.5631   23.8208 C   0  0  0  0  0  0
  -21.3661   -5.6787   24.9169 C   0  0  0  0  0  0
  -21.6044   -4.3052   24.7226 C   0  0  0  0  0  0
  -21.8822   -3.8139   23.4349 C   0  0  0  0  0  0
  -21.9195   -4.6952   22.3400 C   0  0  0  0  0  0
  -22.7861  -13.5226   21.1863 C   0  0  0  0  0  0
  -22.1665   -4.2133   21.0979 F   0  0  0  0  0  0
  -21.5632   -3.4536   25.7740 F   0  0  0  0  0  0
  -30.0339  -13.2818   20.4489 N   0  0  0  0  0  0
  -26.3026  -12.9308   20.3379 N   0  0  0  0  0  0
  -25.9310  -11.6473   20.5758 N   0  0  0  0  0  0
  -22.0517  -12.8194   22.0415 N   0  0  0  0  0  0
  -25.4341  -15.1868   20.4083 N   0  0  0  0  0  0
  -31.7904  -14.7027   20.1127 O   0  0  0  0  0  0
  -21.6637   -6.8862   21.4237 O   0  0  0  0  0  0
  -22.3528  -14.5531   20.6720 O   0  0  0  0  0  0
  -24.6356  -31.8728   23.2139 C   0  0  0  0  0  0
  -25.9189  -32.4861   23.8452 C   0  0  1  0  0  0
  -27.2416  -27.4180   20.0866 C   0  0  0  0  0  0
  -25.5997  -33.8644   24.2379 N   0  0  0  0  0  0
  -23.4403  -30.4977   21.5678 C   0  0  2  0  0  0
  -24.8589  -28.9539   20.1221 C   0  0  0  0  0  0
  -22.7747  -29.4865   22.5239 C   0  0  0  0  0  0
  -17.9906  -28.1239   22.8701 C   0  0  0  0  0  0
  -24.1491  -36.7328   23.2633 C   0  0  0  0  0  0
  -25.9571  -30.8281   21.3657 C   0  0  0  0  0  0
  -26.0234  -29.4604   20.7106 C   0  0  0  0  0  0
  -27.2156  -28.7009   20.6860 C   0  0  0  0  0  0
  -26.0540  -26.9308   19.4906 C   0  0  0  0  0  0
  -24.8691  -27.6892   19.5093 C   0  0  0  0  0  0
  -23.6275  -29.8247   20.1806 C   0  0  0  0  0  0
  -25.4109  -36.3129   24.0339 C   0  0  1  0  0  0
  -20.4755  -28.4650   22.7806 C   0  0  2  0  0  0
  -20.6888  -26.9680   22.5255 C   0  0  0  0  0  0
  -19.5514  -26.4672   21.6103 C   0  0  0  0  0  0
  -18.1545  -26.7560   22.2034 C   0  0  0  0  0  0
  -19.1104  -28.9004   23.2534 C   0  0  0  0  0  0
  -18.9286  -30.1501   23.8814 C   0  0  0  0  0  0
  -17.6296  -30.6514   24.0831 C   0  0  0  0  0  0
  -25.9048  -34.9497   23.5135 C   0  0  0  0  0  0
  -16.5140  -29.8973   23.6745 C   0  0  0  0  0  0
  -16.6943  -28.6319   23.0845 C   0  0  0  0  0  0
  -26.4531  -31.6608   25.0783 C   0  0  0  0  0  0
  -25.3763  -31.3718   26.1503 C   0  0  0  0  0  0
  -27.0354  -30.3049   24.6152 C   0  0  0  0  0  0
  -27.6099  -32.4307   25.7574 C   0  0  0  0  0  0
  -27.5579  -37.1832   24.8467 C   0  0  0  0  0  0
  -21.4525  -29.4536   22.4015 N   0  0  0  0  0  0
  -26.4298  -37.3811   23.9401 N   0  0  0  0  0  0
  -24.6997  -31.0799   22.1082 N   0  0  0  0  0  0
  -23.4209  -28.7618   23.2809 O   0  0  0  0  0  0
  -28.4247  -26.6988   20.0988 O   0  0  0  0  0  0
  -26.5573  -34.8935   22.4676 O   0  0  0  0  0  0
  -23.5512  -32.1485   23.7475 O   0  0  0  0  0  0
  -27.9252  -19.7574   19.8337 C   0  0  0  0  0  0
  -29.0708  -19.6958   21.8551 C   0  0  0  0  0  0
  -27.2796  -22.3110   20.0912 C   0  0  0  0  0  0
  -28.6905  -22.3278   21.9733 C   0  0  0  0  0  0
  -27.2606  -20.8654   20.6473 C   0  0  2  0  0  0
  -28.1011  -20.9003   21.9298 C   0  0  1  0  0  0
  -29.2078  -17.6632   20.2114 C   0  0  0  0  0  0
  -30.1591  -16.8965   21.1791 C   0  0  0  0  0  0
  -27.7577  -24.6043   21.2258 C   0  0  0  0  0  0
  -28.3997  -25.2582   19.9766 C   0  0  0  0  0  0
  -28.7892  -19.0390   20.5759 N   0  0  0  0  0  0
  -29.9188  -15.4446   21.1351 N   0  0  0  0  0  0
  -27.6504  -23.1118   21.2797 N   0  3  1  0  0  0
  -27.5988  -19.5039   18.6718 O   0  0  0  0  0  0
  -31.4715  -12.4297   19.1161 H   0  0  0  0  0  0
  -30.3370  -11.2989   19.7997 H   0  0  0  0  0  0
  -29.7286  -11.8042   17.4128 H   0  0  0  0  0  0
  -29.6531  -13.5088   17.7729 H   0  0  0  0  0  0
  -27.8266  -11.3143   18.8080 H   0  0  0  0  0  0
  -27.3581  -12.6504   17.7917 H   0  0  0  0  0  0
  -27.7118  -14.2524   19.5904 H   0  0  0  0  0  0
  -28.6823  -11.9185   21.3133 H   0  0  0  0  0  0
  -28.4599  -13.5368   21.8891 H   0  0  0  0  0  0
  -25.2750   -9.5670   22.4740 H   0  0  0  0  0  0
  -23.9993   -7.4616   22.7461 H   0  0  0  0  0  0
  -21.0826   -8.8735   19.8937 H   0  0  0  0  0  0
  -22.3671  -10.9644   19.6142 H   0  0  0  0  0  0
  -21.2013   -7.6138   23.9700 H   0  0  0  0  0  0
  -21.1483   -6.0522   25.9067 H   0  0  0  0  0  0
  -22.0606   -2.7597   23.2853 H   0  0  0  0  0  0
  -22.4141  -11.9828   22.4747 H   0  0  0  0  0  0
  -21.1134  -13.1188   22.2664 H   0  0  0  0  0  0
  -24.6662  -15.8443   20.4957 H   0  0  0  0  0  0
  -26.2839  -15.6140   20.0619 H   0  0  0  0  0  0
  -26.7281  -32.5542   23.1234 H   0  0  0  0  0  0
  -25.0188  -33.9795   25.0552 H   0  0  0  0  0  0
  -22.7429  -31.3257   21.4197 H   0  0  0  0  0  0
  -23.3745  -35.9670   23.3312 H   0  0  0  0  0  0
  -24.3590  -36.8922   22.2045 H   0  0  0  0  0  0
  -23.7246  -37.6544   23.6628 H   0  0  0  0  0  0
  -26.0675  -31.5921   20.5949 H   0  0  0  0  0  0
  -26.8489  -30.8823   21.9801 H   0  0  0  0  0  0
  -28.1178  -29.0905   21.1363 H   0  0  0  0  0  0
  -26.0194  -25.9714   18.9993 H   0  0  0  0  0  0
  -23.9739  -27.2945   19.0486 H   0  0  0  0  0  0
  -23.7328  -30.5956   19.4161 H   0  0  0  0  0  0
  -22.7466  -29.2468   19.8973 H   0  0  0  0  0  0
  -25.1281  -36.2005   25.0833 H   0  0  0  0  0  0
  -20.1571  -28.6891   21.7617 H   0  0  0  0  0  0
  -20.6784  -26.4241   23.4705 H   0  0  0  0  0  0
  -21.6570  -26.7790   22.0614 H   0  0  0  0  0  0
  -19.6588  -25.3978   21.4286 H   0  0  0  0  0  0
  -19.6335  -26.9335   20.6261 H   0  0  0  0  0  0
  -17.3968  -26.6328   21.4283 H   0  0  0  0  0  0
  -17.9312  -26.0053   22.9627 H   0  0  0  0  0  0
  -19.7835  -30.7526   24.1578 H   0  0  0  0  0  0
  -17.4875  -31.6217   24.5406 H   0  0  0  0  0  0
  -15.5157  -30.2840   23.8270 H   0  0  0  0  0  0
  -15.8283  -28.0570   22.7846 H   0  0  0  0  0  0
  -24.5927  -30.7087   25.7822 H   0  0  0  0  0  0
  -24.8971  -32.2880   26.4969 H   0  0  0  0  0  0
  -25.8089  -30.8861   27.0260 H   0  0  0  0  0  0
  -26.2911  -29.6820   24.1181 H   0  0  0  0  0  0
  -27.4103  -29.7266   25.4608 H   0  0  0  0  0  0
  -27.8754  -30.4373   23.9327 H   0  0  0  0  0  0
  -27.2719  -33.3595   26.2181 H   0  0  0  0  0  0
  -28.3916  -32.6880   25.0414 H   0  0  0  0  0  0
  -28.0760  -31.8403   26.5473 H   0  0  0  0  0  0
  -28.2613  -38.0116   24.7500 H   0  0  0  0  0  0
  -28.1058  -36.2645   24.6314 H   0  0  0  0  0  0
  -27.2294  -37.1513   25.8872 H   0  0  0  0  0  0
  -21.0722  -30.1707   21.7982 H   0  0  0  0  0  0
  -26.0189  -38.2895   24.1383 H   0  0  0  0  0  0
  -28.8662  -19.0204   22.6872 H   0  0  0  0  0  0
  -30.1182  -19.9987   21.9118 H   0  0  0  0  0  0
  -28.0299  -22.4210   19.3061 H   0  0  0  0  0  0
  -26.3115  -22.6082   19.6847 H   0  0  0  0  0  0
  -29.6352  -22.4006   21.4302 H   0  0  0  0  0  0
  -28.8539  -22.6722   22.9955 H   0  0  0  0  0  0
  -26.2377  -20.5599   20.8755 H   0  0  0  0  0  0
  -27.4331  -20.7760   22.7849 H   0  0  0  0  0  0
  -28.2831  -17.0911   20.1159 H   0  0  0  0  0  0
  -29.6469  -17.6732   19.2120 H   0  0  0  0  0  0
  -29.9879  -17.1833   22.2150 H   0  0  0  0  0  0
  -31.2011  -17.1368   20.9595 H   0  0  0  0  0  0
  -26.7380  -24.9752   21.3184 H   0  0  0  0  0  0
  -28.2713  -24.9521   22.1233 H   0  0  0  0  0  0
  -27.9148  -24.9469   19.0517 H   0  0  0  0  0  0
  -29.4348  -24.9239   19.8955 H   0  0  0  0  0  0
  -29.0279  -15.1366   21.4946 H   0  0  0  0  0  0
  -26.8550  -22.9885   21.8901 H   0  0  0  0  0  0
  1 25  1  0  0  0
  1 30  2  0  0  0
  1 82  1  0  0  0
  2  3  1  0  0  0
  2 25  1  0  0  0
  2 85  1  0  0  0
  2 86  1  0  0  0
  3  4  1  0  0  0
  3 87  1  0  0  0
  3 88  1  0  0  0
  4  5  1  0  0  0
  4 89  1  0  0  0
  4 90  1  0  0  0
  5  6  1  0  0  0
  5 26  1  0  0  0
  5 91  1  0  0  0
  6 25  1  0  0  0
  6 92  1  0  0  0
  6 93  1  0  0  0
  7  8  2  0  0  0
  7 26  1  0  0  0
  7 29  1  0  0  0
  8  9  1  0  0  0
  8 22  1  0  0  0
  9 10  1  0  0  0
  9 27  2  0  0  0
 10 11  2  0  0  0
 10 15  1  0  0  0
 11 12  1  0  0  0
 11 94  1  0  0  0
 12 13  2  0  0  0
 12 95  1  0  0  0
 13 14  1  0  0  0
 13 31  1  0  0  0
 14 15  2  0  0  0
 14 96  1  0  0  0
 15 97  1  0  0  0
 16 17  2  0  0  0
 16 21  1  0  0  0
 16 31  1  0  0  0
 17 18  1  0  0  0
 17 98  1  0  0  0
 18 19  2  0  0  0
 18 99  1  0  0  0
 19 20  1  0  0  0
 19 24  1  0  0  0
 20 21  2  0  0  0
 20100  1  0  0  0
 21 23  1  0  0  0
 22 28  1  0  0  0
 22 32  2  0  0  0
 26 27  1  0  0  0
 28101  1  0  0  0
 28102  1  0  0  0
 29103  1  0  0  0
 29104  1  0  0  0
 33 34  1  0  0  0
 33 66  1  0  0  0
 33 70  2  0  0  0
 34 36  1  0  0  0
 34 59  1  0  0  0
 34105  1  0  0  0
 35 44  2  0  0  0
 35 45  1  0  0  0
 35 68  1  0  0  0
 36 56  1  0  0  0
 36106  1  0  0  0
 37 39  1  0  0  0
 37 47  1  0  0  0
 37 66  1  0  0  0
 37107  1  0  0  0
 38 43  2  0  0  0
 38 46  1  0  0  0
 38 47  1  0  0  0
 39 64  1  0  0  0
 39 67  2  0  0  0
 40 52  1  0  0  0
 40 53  2  0  0  0
 40 58  1  0  0  0
 41108  1  0  0  0
 41109  1  0  0  0
 41110  1  0  0  0
 41 48  1  0  0  0
 42 43  1  0  0  0
 42 66  1  0  0  0
 42111  1  0  0  0
 42112  1  0  0  0
 43 44  1  0  0  0
 44113  1  0  0  0
 45 46  2  0  0  0
 45114  1  0  0  0
 46115  1  0  0  0
 47116  1  0  0  0
 47117  1  0  0  0
 48 56  1  0  0  0
 48 65  1  0  0  0
 48118  1  0  0  0
 49 50  1  0  0  0
 49 53  1  0  0  0
 49 64  1  0  0  0
 49119  1  0  0  0
 50 51  1  0  0  0
 50120  1  0  0  0
 50121  1  0  0  0
 51 52  1  0  0  0
 51122  1  0  0  0
 51123  1  0  0  0
 52124  1  0  0  0
 52125  1  0  0  0
 53 54  1  0  0  0
 54 55  2  0  0  0
 54126  1  0  0  0
 55 57  1  0  0  0
 55127  1  0  0  0
 56 69  2  0  0  0
 57 58  2  0  0  0
 57128  1  0  0  0
 58129  1  0  0  0
 59 60  1  0  0  0
 59 61  1  0  0  0
 59 62  1  0  0  0
 60130  1  0  0  0
 60131  1  0  0  0
 60132  1  0  0  0
 61133  1  0  0  0
 61134  1  0  0  0
 61135  1  0  0  0
 62136  1  0  0  0
 62137  1  0  0  0
 62138  1  0  0  0
 63 65  1  0  0  0
 63139  1  0  0  0
 63140  1  0  0  0
 63141  1  0  0  0
 64142  1  0  0  0
 65143  1  0  0  0
 68 80  1  0  0  0
 71 75  1  0  0  0
 71 81  1  0  0  0
 71 84  2  0  0  0
 72 81  1  0  0  0
 72144  1  0  0  0
 72145  1  0  0  0
 72 76  1  0  0  0
 73 83  1  0  0  0
 73146  1  0  0  0
 73147  1  0  0  0
 73 75  1  0  0  0
 74 76  1  0  0  0
 74 83  1  0  0  0
 74148  1  0  0  0
 74149  1  0  0  0
 75 76  1  0  0  0
 75150  1  0  0  0
 76151  1  0  0  0
 77 78  1  0  0  0
 77 81  1  0  0  0
 77152  1  0  0  0
 77153  1  0  0  0
 78 82  1  0  0  0
 78154  1  0  0  0
 78155  1  0  0  0
 79 80  1  0  0  0
 79156  1  0  0  0
 79157  1  0  0  0
 79 83  1  0  0  0
 80158  1  0  0  0
 80159  1  0  0  0
 82160  1  0  0  0
 83161  1  0  0  0
M  CHG  1  83   1
M  ISO  4   1 100  68 101  80 101  82 100
M  END
> <chiral flag>
0

> <version>
0

> <s_m_source_file>
/data/baiqing/PycharmProjects/Reinvent-master-3.2/result/LINK_invent/BTK/process_docking_weight1_custom_sum_contain_oxygen_bond_distance_aromatic_linkinvent_7_9_3/rearranged_h_0191.sdf

> <i_m_source_file_index>
29

> <r_mmod_Potential_Energy-OPLS-2005>
67.3780059814453

> <r_mmod_Stretch_Energy-OPLS-2005>
36.3027954101562

> <r_mmod_Bend_Energy-OPLS-2005>
289.449584960938

> <r_mmod_Torsional_Energy-OPLS-2005>
311.597564697266

> <r_mmod_Improper_Torsional_Energy-OPLS-2005>
6.39497327804565

> <r_mmod_Van_der_Waal_Energy-OPLS-2005>
131.166885375977

> <r_mmod_Electrostatic_Energy-OPLS-2005>
-260.101318359375

> <r_mmod_Solvation_Energy-OPLS-2005>
-480.827728271484

> <b_mmod_Minimization_Converged-OPLS-2005>
0

> <r_mmod_RMS_Derivative-OPLS-2005>
2.04874396324158

$$$$
29
                    3D
 Structure written by MMmdl.
164173  0  0  1  0            999 V2000
  -30.7183  -14.4441   20.6531 C   0  0  0  0  0  0
  -30.4230  -12.3249   19.4042 C   0  0  0  0  0  0
  -29.4911  -12.5205   18.1919 C   0  0  0  0  0  0
  -28.0133  -12.3532   18.6016 C   0  0  0  0  0  0
  -27.6539  -13.1982   19.8511 C   0  0  2  0  0  0
  -28.6897  -12.9724   20.9738 C   0  0  0  0  0  0
  -25.2540  -13.8124   20.5656 C   0  0  0  0  0  0
  -24.1807  -13.0359   20.9164 C   0  0  0  0  0  0
  -24.6368  -11.6850   20.8637 C   0  0  0  0  0  0
  -23.9037  -10.4257   21.0374 C   0  0  0  0  0  0
  -24.3663   -9.4147   21.9074 C   0  0  0  0  0  0
  -23.6294   -8.2216   22.0733 C   0  0  0  0  0  0
  -22.4228   -8.0295   21.3607 C   0  0  0  0  0  0
  -21.9810   -9.0256   20.4727 C   0  0  0  0  0  0
  -22.7141  -10.2127   20.3117 C   0  0  0  0  0  0
  -21.6889   -6.0765   22.5359 C   0  0  0  0  0  0
  -21.4058   -6.5639   23.8295 C   0  0  0  0  0  0
  -21.3636   -5.6743   24.9196 C   0  0  0  0  0  0
  -21.6029   -4.3013   24.7187 C   0  0  0  0  0  0
  -21.8819   -3.8154   23.4293 C   0  0  0  0  0  0
  -21.9206   -4.7000   22.3395 C   0  0  0  0  0  0
  -22.7844  -13.5131   21.1955 C   0  0  0  0  0  0
  -22.1660   -4.2238   21.0949 F   0  0  0  0  0  0
  -21.5543   -3.4470   25.7668 F   0  0  0  0  0  0
  -30.0237  -13.2925   20.4397 N   0  0  0  0  0  0
  -26.2947  -12.9291   20.3171 N   0  0  0  0  0  0
  -25.9262  -11.6452   20.5558 N   0  0  0  0  0  0
  -22.0437  -12.7878   22.0279 N   0  0  0  0  0  0
  -25.4249  -15.1831   20.4149 N   0  0  0  0  0  0
  -31.8027  -14.6793   20.1123 O   0  0  0  0  0  0
  -21.6589   -6.8917   21.4351 O   0  0  0  0  0  0
  -22.3572  -14.5576   20.7119 O   0  0  0  0  0  0
  -24.6182  -31.8645   23.2101 C   0  0  0  0  0  0
  -25.9064  -32.4805   23.8381 C   0  0  1  0  0  0
  -27.2405  -27.4169   20.0849 C   0  0  0  0  0  0
  -25.5900  -33.8595   24.2325 N   0  0  0  0  0  0
  -23.4081  -30.4891   21.5498 C   0  0  2  0  0  0
  -24.8509  -28.9502   20.1201 C   0  0  0  0  0  0
  -22.7421  -29.4635   22.4956 C   0  0  0  0  0  0
  -18.0265  -28.1398   22.8474 C   0  0  0  0  0  0
  -24.1497  -36.7327   23.2639 C   0  0  0  0  0  0
  -25.9392  -30.8228   21.3677 C   0  0  0  0  0  0
  -26.0123  -29.4558   20.7130 C   0  0  0  0  0  0
  -27.2072  -28.6980   20.6895 C   0  0  0  0  0  0
  -26.0463  -26.9209   19.5059 C   0  0  0  0  0  0
  -24.8607  -27.6810   19.5176 C   0  0  0  0  0  0
  -23.6176  -29.8242   20.1633 C   0  0  0  0  0  0
  -25.4113  -36.3103   24.0335 C   0  0  1  0  0  0
  -20.5869  -28.3671   23.1310 C   0  0  2  0  0  0
  -20.6761  -26.9400   22.5411 C   0  0  0  0  0  0
  -19.5747  -26.6393   21.5193 C   0  0  0  0  0  0
  -18.1924  -26.7938   22.1610 C   0  0  0  0  0  0
  -19.1524  -28.8847   23.2895 C   0  0  0  0  0  0
  -18.9447  -30.1453   23.8908 C   0  0  0  0  0  0
  -17.6455  -30.6598   24.0571 C   0  0  0  0  0  0
  -25.9032  -34.9467   23.5140 C   0  0  0  0  0  0
  -16.5344  -29.9111   23.6334 C   0  0  0  0  0  0
  -16.7250  -28.6538   23.0329 C   0  0  0  0  0  0
  -26.4491  -31.6590   25.0733 C   0  0  0  0  0  0
  -25.3768  -31.3673   26.1494 C   0  0  0  0  0  0
  -27.0353  -30.3039   24.6152 C   0  0  0  0  0  0
  -27.6068  -32.4310   25.7505 C   0  0  0  0  0  0
  -27.5591  -37.1816   24.8461 C   0  0  0  0  0  0
  -21.4152  -29.3034   22.3708 N   0  0  0  0  0  0
  -26.4301  -37.3788   23.9409 N   0  0  0  0  0  0
  -24.6740  -31.0723   22.1014 N   0  0  0  0  0  0
  -23.4180  -28.8168   23.2999 O   0  0  0  0  0  0
  -28.4501  -26.7372   20.0619 O   0  0  0  0  0  0
  -26.5592  -34.8926   22.4704 O   0  0  0  0  0  0
  -23.5374  -32.1390   23.7493 O   0  0  0  0  0  0
  -29.0307  -17.4253   23.3749 C   0  0  0  0  0  0
  -28.3950  -19.8163   22.2021 C   0  0  0  0  0  0
  -29.0519  -17.5751   21.9706 C   0  0  0  0  0  0
  -28.3911  -19.6380   23.6218 C   0  0  0  0  0  0
  -27.5508  -22.4232   22.1562 C   0  0  0  0  0  0
  -28.9535  -22.0181   20.7805 C   0  0  0  0  0  0
  -27.9075  -21.0930   21.4525 C   0  0  1  0  0  0
  -28.0263  -20.7165   24.6243 C   0  0  0  0  0  0
  -26.7366  -20.5984   20.5648 C   0  0  0  0  0  0
  -29.2862  -16.3880   21.0268 C   0  0  0  0  0  0
  -28.4021  -24.5136   21.1179 C   0  0  0  0  0  0
  -28.5108  -25.3185   19.8051 C   0  0  0  0  0  0
  -28.7266  -18.4551   24.1955 N   0  0  0  0  0  0
  -28.7669  -18.7754   21.3973 N   0  0  0  0  0  0
  -30.1859  -15.3297   21.5121 N   0  0  0  0  0  0
  -27.9646  -23.1015   20.9291 N   0  3  2  0  0  0
  -31.4658  -12.4471   19.1075 H   0  0  0  0  0  0
  -30.3493  -11.3068   19.7903 H   0  0  0  0  0  0
  -29.7570  -11.8158   17.4062 H   0  0  0  0  0  0
  -29.6435  -13.5141   17.7679 H   0  0  0  0  0  0
  -27.8294  -11.2949   18.7987 H   0  0  0  0  0  0
  -27.3674  -12.6152   17.7631 H   0  0  0  0  0  0
  -27.7013  -14.2394   19.5347 H   0  0  0  0  0  0
  -28.6756  -11.9290   21.2886 H   0  0  0  0  0  0
  -28.4224  -13.5485   21.8604 H   0  0  0  0  0  0
  -25.2914   -9.5551   22.4466 H   0  0  0  0  0  0
  -24.0006   -7.4598   22.7426 H   0  0  0  0  0  0
  -21.0671   -8.8688   19.9152 H   0  0  0  0  0  0
  -22.3543  -10.9714   19.6310 H   0  0  0  0  0  0
  -21.2123   -7.6158   23.9868 H   0  0  0  0  0  0
  -21.1436   -6.0409   25.9112 H   0  0  0  0  0  0
  -22.0626   -2.7628   23.2711 H   0  0  0  0  0  0
  -21.1191  -13.0970   22.2909 H   0  0  0  0  0  0
  -22.3824  -11.9086   22.3882 H   0  0  0  0  0  0
  -24.6612  -15.8383   20.5463 H   0  0  0  0  0  0
  -26.2410  -15.6130   20.0029 H   0  0  0  0  0  0
  -26.7148  -32.5514   23.1148 H   0  0  0  0  0  0
  -25.0026  -33.9735   25.0457 H   0  0  0  0  0  0
  -22.7010  -31.3094   21.4085 H   0  0  0  0  0  0
  -23.3750  -35.9665   23.3296 H   0  0  0  0  0  0
  -24.3597  -36.8950   22.2056 H   0  0  0  0  0  0
  -23.7258  -37.6542   23.6648 H   0  0  0  0  0  0
  -26.0623  -31.5887   20.6006 H   0  0  0  0  0  0
  -26.8245  -30.8692   21.9900 H   0  0  0  0  0  0
  -28.1106  -29.0895   21.1386 H   0  0  0  0  0  0
  -25.9917  -25.9577   19.0240 H   0  0  0  0  0  0
  -23.9641  -27.2871   19.0582 H   0  0  0  0  0  0
  -23.7385  -30.6013   19.4053 H   0  0  0  0  0  0
  -22.7419  -29.2466   19.8608 H   0  0  0  0  0  0
  -25.1294  -36.1968   25.0821 H   0  0  0  0  0  0
  -20.9934  -28.3228   24.1445 H   0  0  0  0  0  0
  -20.5662  -26.2257   23.3585 H   0  0  0  0  0  0
  -21.6636  -26.7455   22.1213 H   0  0  0  0  0  0
  -19.6914  -25.6306   21.1221 H   0  0  0  0  0  0
  -19.6727  -27.3209   20.6728 H   0  0  0  0  0  0
  -17.4191  -26.6643   21.4025 H   0  0  0  0  0  0
  -18.0372  -26.0094   22.9029 H   0  0  0  0  0  0
  -19.7924  -30.7254   24.2295 H   0  0  0  0  0  0
  -17.5014  -31.6277   24.5181 H   0  0  0  0  0  0
  -15.5352  -30.3021   23.7662 H   0  0  0  0  0  0
  -15.8635  -28.0875   22.7034 H   0  0  0  0  0  0
  -24.5924  -30.7044   25.7834 H   0  0  0  0  0  0
  -24.8980  -32.2811   26.5004 H   0  0  0  0  0  0
  -25.8127  -30.8800   27.0219 H   0  0  0  0  0  0
  -26.2912  -29.6765   24.1240 H   0  0  0  0  0  0
  -27.4146  -29.7321   25.4629 H   0  0  0  0  0  0
  -27.8723  -30.4363   23.9299 H   0  0  0  0  0  0
  -27.2675  -33.3562   26.2164 H   0  0  0  0  0  0
  -28.3827  -32.6943   25.0309 H   0  0  0  0  0  0
  -28.0791  -31.8392   26.5353 H   0  0  0  0  0  0
  -28.2601  -38.0126   24.7531 H   0  0  0  0  0  0
  -28.1096  -36.2661   24.6249 H   0  0  0  0  0  0
  -27.2308  -37.1420   25.8863 H   0  0  0  0  0  0
  -20.9294  -29.8785   21.6967 H   0  0  0  0  0  0
  -26.0202  -38.2870   24.1412 H   0  0  0  0  0  0
  -29.2402  -16.4746   23.8415 H   0  0  0  0  0  0
  -28.1860  -22.7342   22.9844 H   0  0  0  0  0  0
  -26.4958  -22.5490   22.3990 H   0  0  0  0  0  0
  -29.2112  -21.7564   19.7534 H   0  0  0  0  0  0
  -29.8559  -22.1529   21.3872 H   0  0  0  0  0  0
  -28.7765  -21.5052   24.6186 H   0  0  0  0  0  0
  -27.9958  -20.3302   25.6432 H   0  0  0  0  0  0
  -27.0432  -21.1349   24.4084 H   0  0  0  0  0  0
  -25.9946  -20.0669   21.1605 H   0  0  0  0  0  0
  -27.0653  -19.9123   19.7823 H   0  0  0  0  0  0
  -26.2043  -21.4089   20.0620 H   0  0  0  0  0  0
  -29.6546  -16.7637   20.0710 H   0  0  0  0  0  0
  -28.3042  -15.9626   20.8275 H   0  0  0  0  0  0
  -27.6393  -24.9911   21.7316 H   0  0  0  0  0  0
  -29.3304  -24.5793   21.6848 H   0  0  0  0  0  0
  -27.7907  -24.9837   19.0612 H   0  0  0  0  0  0
  -29.4801  -25.1061   19.3523 H   0  0  0  0  0  0
  -30.9037  -15.7459   22.0873 H   0  0  0  0  0  0
  -27.2298  -23.0135   20.2414 H   0  0  0  0  0  0
  1 25  1  0  0  0
  1 30  2  0  0  0
  1 85  1  0  0  0
  2  3  1  0  0  0
  2 25  1  0  0  0
  2 87  1  0  0  0
  2 88  1  0  0  0
  3  4  1  0  0  0
  3 89  1  0  0  0
  3 90  1  0  0  0
  4  5  1  0  0  0
  4 91  1  0  0  0
  4 92  1  0  0  0
  5  6  1  0  0  0
  5 26  1  0  0  0
  5 93  1  0  0  0
  6 25  1  0  0  0
  6 94  1  0  0  0
  6 95  1  0  0  0
  7  8  2  0  0  0
  7 26  1  0  0  0
  7 29  1  0  0  0
  8  9  1  0  0  0
  8 22  1  0  0  0
  9 10  1  0  0  0
  9 27  2  0  0  0
 10 11  2  0  0  0
 10 15  1  0  0  0
 11 12  1  0  0  0
 11 96  1  0  0  0
 12 13  2  0  0  0
 12 97  1  0  0  0
 13 14  1  0  0  0
 13 31  1  0  0  0
 14 15  2  0  0  0
 14 98  1  0  0  0
 15 99  1  0  0  0
 16 17  2  0  0  0
 16 21  1  0  0  0
 16 31  1  0  0  0
 17 18  1  0  0  0
 17100  1  0  0  0
 18 19  2  0  0  0
 18101  1  0  0  0
 19 20  1  0  0  0
 19 24  1  0  0  0
 20 21  2  0  0  0
 20102  1  0  0  0
 21 23  1  0  0  0
 22 28  1  0  0  0
 22 32  2  0  0  0
 26 27  1  0  0  0
 28103  1  0  0  0
 28104  1  0  0  0
 29105  1  0  0  0
 29106  1  0  0  0
 33 34  1  0  0  0
 33 66  1  0  0  0
 33 70  2  0  0  0
 34 36  1  0  0  0
 34 59  1  0  0  0
 34107  1  0  0  0
 35 44  2  0  0  0
 35 45  1  0  0  0
 35 68  1  0  0  0
 36 56  1  0  0  0
 36108  1  0  0  0
 37 39  1  0  0  0
 37 47  1  0  0  0
 37 66  1  0  0  0
 37109  1  0  0  0
 38 43  2  0  0  0
 38 46  1  0  0  0
 38 47  1  0  0  0
 39 64  1  0  0  0
 39 67  2  0  0  0
 40 52  1  0  0  0
 40 53  2  0  0  0
 40 58  1  0  0  0
 41110  1  0  0  0
 41111  1  0  0  0
 41112  1  0  0  0
 41 48  1  0  0  0
 42 43  1  0  0  0
 42 66  1  0  0  0
 42113  1  0  0  0
 42114  1  0  0  0
 43 44  1  0  0  0
 44115  1  0  0  0
 45 46  2  0  0  0
 45116  1  0  0  0
 46117  1  0  0  0
 47118  1  0  0  0
 47119  1  0  0  0
 48 56  1  0  0  0
 48 65  1  0  0  0
 48120  1  0  0  0
 49 50  1  0  0  0
 49 53  1  0  0  0
 49 64  1  0  0  0
 49121  1  0  0  0
 50 51  1  0  0  0
 50122  1  0  0  0
 50123  1  0  0  0
 51 52  1  0  0  0
 51124  1  0  0  0
 51125  1  0  0  0
 52126  1  0  0  0
 52127  1  0  0  0
 53 54  1  0  0  0
 54 55  2  0  0  0
 54128  1  0  0  0
 55 57  1  0  0  0
 55129  1  0  0  0
 56 69  2  0  0  0
 57 58  2  0  0  0
 57130  1  0  0  0
 58131  1  0  0  0
 59 60  1  0  0  0
 59 61  1  0  0  0
 59 62  1  0  0  0
 60132  1  0  0  0
 60133  1  0  0  0
 60134  1  0  0  0
 61135  1  0  0  0
 61136  1  0  0  0
 61137  1  0  0  0
 62138  1  0  0  0
 62139  1  0  0  0
 62140  1  0  0  0
 63 65  1  0  0  0
 63141  1  0  0  0
 63142  1  0  0  0
 63143  1  0  0  0
 64144  1  0  0  0
 65145  1  0  0  0
 68 82  1  0  0  0
 71 73  2  0  0  0
 71 83  1  0  0  0
 71146  1  0  0  0
 72 74  1  0  0  0
 72 77  1  0  0  0
 72 84  2  0  0  0
 73 80  1  0  0  0
 73 84  1  0  0  0
 74 78  1  0  0  0
 74 83  2  0  0  0
 75 77  1  0  0  0
 75 86  1  0  0  0
 75147  1  0  0  0
 75148  1  0  0  0
 76 77  1  0  0  0
 76 86  1  0  0  0
 76149  1  0  0  0
 76150  1  0  0  0
 77 79  1  0  0  0
 78151  1  0  0  0
 78152  1  0  0  0
 78153  1  0  0  0
 79154  1  0  0  0
 79155  1  0  0  0
 79156  1  0  0  0
 80 85  1  0  0  0
 80157  1  0  0  0
 80158  1  0  0  0
 81 82  1  0  0  0
 81159  1  0  0  0
 81160  1  0  0  0
 81 86  1  0  0  0
 82161  1  0  0  0
 82162  1  0  0  0
 85163  1  0  0  0
 86164  1  0  0  0
M  CHG  1  86   1
M  ISO  4   1 100  68 101  82 101  85 100
M  END
> <chiral flag>
0

> <version>
0

> <s_m_source_file>
/data/baiqing/PycharmProjects/Reinvent-master-3.2/result/LINK_invent/BTK/process_docking_weight1_custom_sum_contain_oxygen_bond_distance_aromatic_linkinvent_7_9_3/rearranged_h_0191.sdf

> <i_m_source_file_index>
30

> <r_mmod_Potential_Energy-OPLS-2005>
-92.1196670532227

> <r_mmod_Stretch_Energy-OPLS-2005>
46.6338310241699

> <r_mmod_Bend_Energy-OPLS-2005>
158.626953125

> <r_mmod_Torsional_Energy-OPLS-2005>
281.713684082031

> <r_mmod_Improper_Torsional_Energy-OPLS-2005>
7.39987659454346

> <r_mmod_Van_der_Waal_Energy-OPLS-2005>
168.925048828125

> <r_mmod_Electrostatic_Energy-OPLS-2005>
-305.154052734375

> <r_mmod_Solvation_Energy-OPLS-2005>
-462.459289550781

> <b_mmod_Minimization_Converged-OPLS-2005>
0

> <r_mmod_RMS_Derivative-OPLS-2005>
5.35266351699829

$$$$
30
                    3D
 Structure written by MMmdl.
157166  0  0  1  0            999 V2000
  -30.6439  -14.6782   20.3844 C   0  0  0  0  0  0
  -30.4190  -12.3997   19.4450 C   0  0  0  0  0  0
  -29.4863  -12.4588   18.2162 C   0  0  0  0  0  0
  -28.0166  -12.3042   18.6506 C   0  0  0  0  0  0
  -27.6360  -13.2210   19.8444 C   0  0  2  0  0  0
  -28.6912  -13.1555   20.9667 C   0  0  0  0  0  0
  -25.2478  -13.8180   20.5713 C   0  0  0  0  0  0
  -24.1766  -13.0429   20.9223 C   0  0  0  0  0  0
  -24.6346  -11.6906   20.8762 C   0  0  0  0  0  0
  -23.9032  -10.4272   21.0416 C   0  0  0  0  0  0
  -24.3598   -9.4188   21.9199 C   0  0  0  0  0  0
  -23.6268   -8.2221   22.0759 C   0  0  0  0  0  0
  -22.4244   -8.0259   21.3544 C   0  0  0  0  0  0
  -21.9861   -9.0256   20.4666 C   0  0  0  0  0  0
  -22.7186  -10.2131   20.3090 C   0  0  0  0  0  0
  -21.6843   -6.0710   22.5269 C   0  0  0  0  0  0
  -21.4020   -6.5628   23.8202 C   0  0  0  0  0  0
  -21.3648   -5.6787   24.9172 C   0  0  0  0  0  0
  -21.6043   -4.3048   24.7230 C   0  0  0  0  0  0
  -21.8816   -3.8125   23.4352 C   0  0  0  0  0  0
  -21.9196   -4.6935   22.3404 C   0  0  0  0  0  0
  -22.7798  -13.5237   21.1868 C   0  0  0  0  0  0
  -22.1664   -4.2115   21.0978 F   0  0  0  0  0  0
  -21.5618   -3.4535   25.7747 F   0  0  0  0  0  0
  -29.9862  -13.4758   20.3581 N   0  0  0  0  0  0
  -26.2904  -12.9375   20.3315 N   0  0  0  0  0  0
  -25.9270  -11.6535   20.5805 N   0  0  0  0  0  0
  -22.0454  -12.8243   22.0444 N   0  0  0  0  0  0
  -25.4112  -15.1911   20.4095 N   0  0  0  0  0  0
  -31.8618  -14.7037   20.1785 O   0  0  0  0  0  0
  -21.6612   -6.8850   21.4234 O   0  0  0  0  0  0
  -22.3490  -14.5543   20.6699 O   0  0  0  0  0  0
  -24.6253  -31.8574   23.2031 C   0  0  0  0  0  0
  -25.9099  -32.4769   23.8358 C   0  0  1  0  0  0
  -27.2207  -27.3147   20.1208 C   0  0  0  0  0  0
  -25.5922  -33.8575   24.2280 N   0  0  0  0  0  0
  -23.4195  -30.4805   21.5418 C   0  0  2  0  0  0
  -24.8677  -28.9273   20.1173 C   0  0  0  0  0  0
  -22.7470  -29.4612   22.4914 C   0  0  0  0  0  0
  -18.0278  -28.1404   22.8484 C   0  0  0  0  0  0
  -24.1486  -36.7290   23.2656 C   0  0  0  0  0  0
  -25.9617  -30.7833   21.3809 C   0  0  0  0  0  0
  -26.0355  -29.4107   20.7235 C   0  0  0  0  0  0
  -27.2192  -28.6164   20.7116 C   0  0  0  0  0  0
  -26.0323  -26.8706   19.5108 C   0  0  0  0  0  0
  -24.8665  -27.6624   19.5049 C   0  0  0  0  0  0
  -23.6386  -29.8133   20.1583 C   0  0  0  0  0  0
  -25.4112  -36.3068   24.0329 C   0  0  1  0  0  0
  -20.5883  -28.3702   23.1281 C   0  0  2  0  0  0
  -20.6770  -26.9418   22.5423 C   0  0  0  0  0  0
  -19.5751  -26.6396   21.5218 C   0  0  0  0  0  0
  -18.1926  -26.7950   22.1618 C   0  0  0  0  0  0
  -19.1541  -28.8873   23.2880 C   0  0  0  0  0  0
  -18.9467  -30.1467   23.8895 C   0  0  0  0  0  0
  -17.6475  -30.6598   24.0586 C   0  0  0  0  0  0
  -25.9043  -34.9436   23.5089 C   0  0  0  0  0  0
  -16.5358  -29.9098   23.6352 C   0  0  0  0  0  0
  -16.7277  -28.6526   23.0359 C   0  0  0  0  0  0
  -26.4543  -31.6620   25.0746 C   0  0  0  0  0  0
  -25.3823  -31.3751   26.1531 C   0  0  0  0  0  0
  -27.0492  -30.3055   24.6278 C   0  0  0  0  0  0
  -27.6090  -32.4437   25.7462 C   0  0  0  0  0  0
  -27.5571  -37.1787   24.8462 C   0  0  0  0  0  0
  -21.4182  -29.3044   22.3667 N   0  0  0  0  0  0
  -26.4285  -37.3764   23.9411 N   0  0  0  0  0  0
  -24.6855  -31.0590   22.0982 N   0  0  0  0  0  0
  -23.4192  -28.8148   23.2989 O   0  0  0  0  0  0
  -28.3576  -26.5052   20.0624 O   0  0  0  0  0  0
  -26.5610  -34.8906   22.4660 O   0  0  0  0  0  0
  -23.5398  -32.1389   23.7357 O   0  0  0  0  0  0
  -28.6054  -21.2276   19.9982 C   0  0  0  0  0  0
  -30.1569  -22.8458   19.1239 C   0  0  0  0  0  0
  -28.8955  -22.6171   19.7089 C   0  0  0  0  0  0
  -29.5560  -20.2059   19.6305 C   0  0  0  0  0  0
  -28.8755  -18.1299   20.9738 C   0  0  0  0  0  0
  -29.5050  -17.9116   18.6057 C   0  0  0  0  0  0
  -29.0675  -16.5504   21.0753 C   0  0  0  0  0  0
  -30.3168  -16.6172   18.8947 C   0  0  0  0  0  0
  -27.9032  -23.8333   19.8542 C   0  0  0  0  0  0
  -28.3473  -25.1464   20.6515 C   0  0  0  0  0  0
  -31.0304  -21.8539   18.8191 N   0  0  0  0  0  0
  -30.7286  -20.5717   19.0541 N   0  0  0  0  0  0
  -29.4150  -18.7811   19.7792 N   0  0  0  0  0  0
  -29.9056  -15.8172   20.0808 N   0  0  0  0  0  0
  -31.4566  -12.5069   19.1239 H   0  0  0  0  0  0
  -30.3587  -11.4290   19.9431 H   0  0  0  0  0  0
  -29.7483  -11.6713   17.5073 H   0  0  0  0  0  0
  -29.6161  -13.4048   17.6881 H   0  0  0  0  0  0
  -27.8763  -11.2607   18.9325 H   0  0  0  0  0  0
  -27.3458  -12.4766   17.8092 H   0  0  0  0  0  0
  -27.6302  -14.2375   19.4507 H   0  0  0  0  0  0
  -28.7179  -12.1616   21.4165 H   0  0  0  0  0  0
  -28.4540  -13.8469   21.7763 H   0  0  0  0  0  0
  -25.2751   -9.5647   22.4775 H   0  0  0  0  0  0
  -23.9966   -7.4605   22.7471 H   0  0  0  0  0  0
  -21.0777   -8.8786   19.9003 H   0  0  0  0  0  0
  -22.3632  -10.9690   19.6224 H   0  0  0  0  0  0
  -21.2026   -7.6137   23.9684 H   0  0  0  0  0  0
  -21.1470   -6.0524   25.9063 H   0  0  0  0  0  0
  -22.0603   -2.7579   23.2858 H   0  0  0  0  0  0
  -22.4075  -11.9944   22.4889 H   0  0  0  0  0  0
  -21.1107  -13.1319   22.2726 H   0  0  0  0  0  0
  -24.6287  -15.8292   20.5057 H   0  0  0  0  0  0
  -26.2447  -15.6297   20.0426 H   0  0  0  0  0  0
  -26.7155  -32.5434   23.1082 H   0  0  0  0  0  0
  -25.0095  -33.9735   25.0446 H   0  0  0  0  0  0
  -22.7112  -31.2997   21.3963 H   0  0  0  0  0  0
  -23.3729  -35.9643   23.3345 H   0  0  0  0  0  0
  -24.3550  -36.8905   22.2061 H   0  0  0  0  0  0
  -23.7270  -37.6504   23.6688 H   0  0  0  0  0  0
  -26.1100  -31.5501   20.6211 H   0  0  0  0  0  0
  -26.8309  -30.8190   22.0239 H   0  0  0  0  0  0
  -28.1239  -28.9857   21.1739 H   0  0  0  0  0  0
  -26.0091  -25.9056   19.0240 H   0  0  0  0  0  0
  -23.9729  -27.2891   19.0246 H   0  0  0  0  0  0
  -23.7679  -30.5910   19.4046 H   0  0  0  0  0  0
  -22.7587  -29.2471   19.8467 H   0  0  0  0  0  0
  -25.1290  -36.1903   25.0817 H   0  0  0  0  0  0
  -20.9978  -28.3305   24.1404 H   0  0  0  0  0  0
  -20.5667  -26.2318   23.3632 H   0  0  0  0  0  0
  -21.6642  -26.7440   22.1222 H   0  0  0  0  0  0
  -19.6904  -25.6307   21.1251 H   0  0  0  0  0  0
  -19.6688  -27.3214   20.6750 H   0  0  0  0  0  0
  -17.4194  -26.6721   21.4016 H   0  0  0  0  0  0
  -18.0291  -26.0088   22.9001 H   0  0  0  0  0  0
  -19.7948  -30.7290   24.2257 H   0  0  0  0  0  0
  -17.5029  -31.6267   24.5208 H   0  0  0  0  0  0
  -15.5366  -30.3002   23.7685 H   0  0  0  0  0  0
  -15.8672  -28.0849   22.7067 H   0  0  0  0  0  0
  -24.5891  -30.7231   25.7859 H   0  0  0  0  0  0
  -24.9171  -32.2942   26.5104 H   0  0  0  0  0  0
  -25.8186  -30.8788   27.0215 H   0  0  0  0  0  0
  -26.3120  -29.6663   24.1413 H   0  0  0  0  0  0
  -27.4325  -29.7452   25.4820 H   0  0  0  0  0  0
  -27.8910  -30.4360   23.9476 H   0  0  0  0  0  0
  -27.2659  -33.3716   26.2047 H   0  0  0  0  0  0
  -28.3836  -32.7069   25.0247 H   0  0  0  0  0  0
  -28.0869  -31.8626   26.5358 H   0  0  0  0  0  0
  -28.2599  -38.0072   24.7482 H   0  0  0  0  0  0
  -28.1055  -36.2599   24.6309 H   0  0  0  0  0  0
  -27.2296  -37.1462   25.8871 H   0  0  0  0  0  0
  -20.9369  -29.8756   21.6866 H   0  0  0  0  0  0
  -26.0160  -38.2840   24.1418 H   0  0  0  0  0  0
  -27.6591  -20.9469   20.4343 H   0  0  0  0  0  0
  -30.4645  -23.8445   18.8481 H   0  0  0  0  0  0
  -29.3539  -18.5954   21.8362 H   0  0  0  0  0  0
  -27.8173  -18.3794   21.0626 H   0  0  0  0  0  0
  -28.4925  -17.6478   18.2969 H   0  0  0  0  0  0
  -29.9448  -18.4346   17.7547 H   0  0  0  0  0  0
  -28.0767  -16.1017   21.0196 H   0  0  0  0  0  0
  -29.4156  -16.3116   22.0799 H   0  0  0  0  0  0
  -31.3709  -16.8867   18.9804 H   0  0  0  0  0  0
  -30.2525  -15.9754   18.0105 H   0  0  0  0  0  0
  -26.9831  -23.4600   20.3072 H   0  0  0  0  0  0
  -27.6119  -24.1259   18.8437 H   0  0  0  0  0  0
  -29.3713  -24.9797   20.9850 H   0  0  0  0  0  0
  -27.7816  -25.1892   21.5834 H   0  0  0  0  0  0
  1 25  1  0  0  0
  1 30  2  0  0  0
  1 84  1  0  0  0
  2  3  1  0  0  0
  2 25  1  0  0  0
  2 85  1  0  0  0
  2 86  1  0  0  0
  3  4  1  0  0  0
  3 87  1  0  0  0
  3 88  1  0  0  0
  4  5  1  0  0  0
  4 89  1  0  0  0
  4 90  1  0  0  0
  5  6  1  0  0  0
  5 26  1  0  0  0
  5 91  1  0  0  0
  6 25  1  0  0  0
  6 92  1  0  0  0
  6 93  1  0  0  0
  7  8  2  0  0  0
  7 26  1  0  0  0
  7 29  1  0  0  0
  8  9  1  0  0  0
  8 22  1  0  0  0
  9 10  1  0  0  0
  9 27  2  0  0  0
 10 11  2  0  0  0
 10 15  1  0  0  0
 11 12  1  0  0  0
 11 94  1  0  0  0
 12 13  2  0  0  0
 12 95  1  0  0  0
 13 14  1  0  0  0
 13 31  1  0  0  0
 14 15  2  0  0  0
 14 96  1  0  0  0
 15 97  1  0  0  0
 16 17  2  0  0  0
 16 21  1  0  0  0
 16 31  1  0  0  0
 17 18  1  0  0  0
 17 98  1  0  0  0
 18 19  2  0  0  0
 18 99  1  0  0  0
 19 20  1  0  0  0
 19 24  1  0  0  0
 20 21  2  0  0  0
 20100  1  0  0  0
 21 23  1  0  0  0
 22 28  1  0  0  0
 22 32  2  0  0  0
 26 27  1  0  0  0
 28101  1  0  0  0
 28102  1  0  0  0
 29103  1  0  0  0
 29104  1  0  0  0
 33 34  1  0  0  0
 33 66  1  0  0  0
 33 70  2  0  0  0
 34 36  1  0  0  0
 34 59  1  0  0  0
 34105  1  0  0  0
 35 44  2  0  0  0
 35 45  1  0  0  0
 35 68  1  0  0  0
 36 56  1  0  0  0
 36106  1  0  0  0
 37 39  1  0  0  0
 37 47  1  0  0  0
 37 66  1  0  0  0
 37107  1  0  0  0
 38 43  2  0  0  0
 38 46  1  0  0  0
 38 47  1  0  0  0
 39 64  1  0  0  0
 39 67  2  0  0  0
 40 52  1  0  0  0
 40 53  2  0  0  0
 40 58  1  0  0  0
 41108  1  0  0  0
 41109  1  0  0  0
 41110  1  0  0  0
 41 48  1  0  0  0
 42 43  1  0  0  0
 42 66  1  0  0  0
 42111  1  0  0  0
 42112  1  0  0  0
 43 44  1  0  0  0
 44113  1  0  0  0
 45 46  2  0  0  0
 45114  1  0  0  0
 46115  1  0  0  0
 47116  1  0  0  0
 47117  1  0  0  0
 48 56  1  0  0  0
 48 65  1  0  0  0
 48118  1  0  0  0
 49 50  1  0  0  0
 49 53  1  0  0  0
 49 64  1  0  0  0
 49119  1  0  0  0
 50 51  1  0  0  0
 50120  1  0  0  0
 50121  1  0  0  0
 51 52  1  0  0  0
 51122  1  0  0  0
 51123  1  0  0  0
 52124  1  0  0  0
 52125  1  0  0  0
 53 54  1  0  0  0
 54 55  2  0  0  0
 54126  1  0  0  0
 55 57  1  0  0  0
 55127  1  0  0  0
 56 69  2  0  0  0
 57 58  2  0  0  0
 57128  1  0  0  0
 58129  1  0  0  0
 59 60  1  0  0  0
 59 61  1  0  0  0
 59 62  1  0  0  0
 60130  1  0  0  0
 60131  1  0  0  0
 60132  1  0  0  0
 61133  1  0  0  0
 61134  1  0  0  0
 61135  1  0  0  0
 62136  1  0  0  0
 62137  1  0  0  0
 62138  1  0  0  0
 63 65  1  0  0  0
 63139  1  0  0  0
 63140  1  0  0  0
 63141  1  0  0  0
 64142  1  0  0  0
 65143  1  0  0  0
 68 80  1  0  0  0
 71 73  2  0  0  0
 71 74  1  0  0  0
 71144  1  0  0  0
 72 73  1  0  0  0
 72 81  2  0  0  0
 72145  1  0  0  0
 73 79  1  0  0  0
 74 82  2  0  0  0
 74 83  1  0  0  0
 75 77  1  0  0  0
 75 83  1  0  0  0
 75146  1  0  0  0
 75147  1  0  0  0
 76 78  1  0  0  0
 76 83  1  0  0  0
 76148  1  0  0  0
 76149  1  0  0  0
 77 84  1  0  0  0
 77150  1  0  0  0
 77151  1  0  0  0
 78 84  1  0  0  0
 78152  1  0  0  0
 78153  1  0  0  0
 79 80  1  0  0  0
 79154  1  0  0  0
 79155  1  0  0  0
 80156  1  0  0  0
 80157  1  0  0  0
 81 82  1  0  0  0
M  ISO  4   1 100  68 101  80 101  84 100
M  END
> <chiral flag>
0

> <version>
0

> <s_m_source_file>
/data/baiqing/PycharmProjects/Reinvent-master-3.2/result/LINK_invent/BTK/process_docking_weight1_custom_sum_contain_oxygen_bond_distance_aromatic_linkinvent_7_9_3/rearranged_h_0191.sdf

> <i_m_source_file_index>
31

> <r_mmod_Potential_Energy-OPLS-2005>
331.766723632812

> <r_mmod_Stretch_Energy-OPLS-2005>
86.6683654785156

> <r_mmod_Bend_Energy-OPLS-2005>
176.632614135742

> <r_mmod_Torsional_Energy-OPLS-2005>
395.284637451172

> <r_mmod_Improper_Torsional_Energy-OPLS-2005>
21.2274703979492

> <r_mmod_Van_der_Waal_Energy-OPLS-2005>
138.566818237305

> <r_mmod_Electrostatic_Energy-OPLS-2005>
-307.438262939453

> <r_mmod_Solvation_Energy-OPLS-2005>
-240.400466918945

> <b_mmod_Minimization_Converged-OPLS-2005>
0

> <r_mmod_RMS_Derivative-OPLS-2005>
4.05816411972046

$$$$
31
                    3D
 Structure written by MMmdl.
150159  0  0  1  0            999 V2000
  -30.4329  -15.2670   20.3769 C   0  0  0  0  0  0
  -30.4380  -12.8090   19.5303 C   0  0  0  0  0  0
  -29.5371  -12.5804   18.2905 C   0  0  0  0  0  0
  -28.0852  -12.3020   18.7165 C   0  0  0  0  0  0
  -27.6122  -13.2748   19.8251 C   0  0  2  0  0  0
  -28.6438  -13.4475   20.9607 C   0  0  0  0  0  0
  -25.2385  -13.8246   20.5736 C   0  0  0  0  0  0
  -24.1741  -13.0435   20.9255 C   0  0  0  0  0  0
  -24.6398  -11.6934   20.8761 C   0  0  0  0  0  0
  -23.9092  -10.4294   21.0407 C   0  0  0  0  0  0
  -24.3636   -9.4206   21.9184 C   0  0  0  0  0  0
  -23.6301   -8.2247   22.0757 C   0  0  0  0  0  0
  -22.4285   -8.0287   21.3544 C   0  0  0  0  0  0
  -21.9924   -9.0262   20.4645 C   0  0  0  0  0  0
  -22.7261  -10.2138   20.3054 C   0  0  0  0  0  0
  -21.6857   -6.0737   22.5276 C   0  0  0  0  0  0
  -21.4015   -6.5639   23.8209 C   0  0  0  0  0  0
  -21.3660   -5.6792   24.9171 C   0  0  0  0  0  0
  -21.6047   -4.3055   24.7221 C   0  0  0  0  0  0
  -21.8816   -3.8146   23.4342 C   0  0  0  0  0  0
  -21.9192   -4.6964   22.3399 C   0  0  0  0  0  0
  -22.7757  -13.5188   21.1898 C   0  0  0  0  0  0
  -22.1661   -4.2151   21.0976 F   0  0  0  0  0  0
  -21.5632   -3.4537   25.7732 F   0  0  0  0  0  0
  -29.8763  -13.9557   20.3378 N   0  0  0  0  0  0
  -26.2813  -12.9520   20.3212 N   0  0  0  0  0  0
  -25.9336  -11.6625   20.5724 N   0  0  0  0  0  0
  -22.0418  -12.8173   22.0456 N   0  0  0  0  0  0
  -25.4013  -15.1982   20.4167 N   0  0  0  0  0  0
  -31.6513  -15.2721   20.1472 O   0  0  0  0  0  0
  -21.6647   -6.8884   21.4240 O   0  0  0  0  0  0
  -22.3436  -14.5493   20.6743 O   0  0  0  0  0  0
  -24.6627  -31.8238   23.1723 C   0  0  0  0  0  0
  -25.9311  -32.4589   23.8181 C   0  0  1  0  0  0
  -27.2112  -26.9141   20.1971 C   0  0  0  0  0  0
  -25.5980  -33.8403   24.2083 N   0  0  0  0  0  0
  -23.4782  -30.4359   21.5207 C   0  0  2  0  0  0
  -24.9319  -28.8232   20.1153 C   0  0  0  0  0  0
  -22.7667  -29.4441   22.4776 C   0  0  0  0  0  0
  -18.0326  -28.1408   22.8459 C   0  0  0  0  0  0
  -24.1495  -36.7210   23.2648 C   0  0  0  0  0  0
  -26.0473  -30.6241   21.4085 C   0  0  0  0  0  0
  -26.1130  -29.2110   20.7602 C   0  0  0  0  0  0
  -27.2456  -28.2764   20.7826 C   0  0  0  0  0  0
  -26.0107  -26.6992   19.4789 C   0  0  0  0  0  0
  -24.9059  -27.5866   19.4546 C   0  0  0  0  0  0
  -23.7199  -29.7530   20.1469 C   0  0  0  0  0  0
  -25.4137  -36.2967   24.0298 C   0  0  1  0  0  0
  -20.5950  -28.3751   23.1183 C   0  0  2  0  0  0
  -20.6802  -26.9431   22.5398 C   0  0  0  0  0  0
  -19.5778  -26.6372   21.5208 C   0  0  0  0  0  0
  -18.1957  -26.7936   22.1617 C   0  0  0  0  0  0
  -19.1587  -28.8900   23.2810 C   0  0  0  0  0  0
  -18.9496  -30.1488   23.8847 C   0  0  0  0  0  0
  -17.6488  -30.6593   24.0553 C   0  0  0  0  0  0
  -25.9099  -34.9349   23.5010 C   0  0  0  0  0  0
  -16.5380  -29.9081   23.6340 C   0  0  0  0  0  0
  -16.7308  -28.6501   23.0357 C   0  0  0  0  0  0
  -26.4560  -31.6535   25.0710 C   0  0  0  0  0  0
  -25.3682  -31.3791   26.1364 C   0  0  0  0  0  0
  -27.0462  -30.2897   24.6461 C   0  0  0  0  0  0
  -27.6048  -32.4347   25.7512 C   0  0  0  0  0  0
  -27.5567  -37.1771   24.8470 C   0  0  0  0  0  0
  -21.4336  -29.3038   22.3528 N   0  0  0  0  0  0
  -26.4287  -37.3697   23.9396 N   0  0  0  0  0  0
  -24.7506  -30.9892   22.0869 N   0  0  0  0  0  0
  -23.4209  -28.8010   23.3017 O   0  0  0  0  0  0
  -28.2219  -25.8043   20.2178 O   0  0  0  0  0  0
  -26.5706  -34.8879   22.4606 O   0  0  0  0  0  0
  -23.5694  -32.1217   23.6804 O   0  0  0  0  0  0
  -26.5106  -22.7410   21.0566 C   0  0  0  0  0  0
  -28.5257  -21.8515   20.4449 C   0  0  0  0  0  0
  -27.9742  -24.3294   20.4006 C   0  0  0  0  0  0
  -29.4585  -19.3589   21.3620 C   0  0  0  0  0  0
  -28.9784  -19.2400   19.4812 C   0  0  0  0  0  0
  -29.9178  -18.1850   20.3155 C   0  0  0  0  0  0
  -25.1178  -22.4529   21.5771 C   0  0  0  0  0  0
  -27.2892  -21.6650   20.8816 N   0  0  0  0  0  0
  -26.7661  -24.0342   20.8541 N   0  0  0  0  0  0
  -28.8929  -23.2290   20.1976 N   0  0  0  0  0  0
  -29.3643  -20.4781   20.3085 N   0  0  0  0  0  0
  -29.6614  -16.5345   20.4735 N   0  0  0  0  0  0
  -31.4576  -13.0121   19.2004 H   0  0  0  0  0  0
  -30.5036  -11.9026   20.1343 H   0  0  0  0  0  0
  -29.9179  -11.7551   17.6873 H   0  0  0  0  0  0
  -29.5674  -13.4655   17.6532 H   0  0  0  0  0  0
  -28.0409  -11.2771   19.0865 H   0  0  0  0  0  0
  -27.4185  -12.3475   17.8546 H   0  0  0  0  0  0
  -27.5286  -14.2423   19.3287 H   0  0  0  0  0  0
  -28.8107  -12.5124   21.4967 H   0  0  0  0  0  0
  -28.2812  -14.1676   21.6960 H   0  0  0  0  0  0
  -25.2781   -9.5680   22.4759 H   0  0  0  0  0  0
  -24.0006   -7.4637   22.7481 H   0  0  0  0  0  0
  -21.0853   -8.8784   19.8951 H   0  0  0  0  0  0
  -22.3717  -10.9678   19.6164 H   0  0  0  0  0  0
  -21.2009   -7.6148   23.9711 H   0  0  0  0  0  0
  -21.1486   -6.0525   25.9074 H   0  0  0  0  0  0
  -22.0595   -2.7608   23.2841 H   0  0  0  0  0  0
  -22.4056  -11.9842   22.4841 H   0  0  0  0  0  0
  -21.1032  -13.1181   22.2667 H   0  0  0  0  0  0
  -24.6275  -15.8449   20.5270 H   0  0  0  0  0  0
  -26.2338  -15.6391   20.0493 H   0  0  0  0  0  0
  -26.7379  -32.5129   23.0894 H   0  0  0  0  0  0
  -25.0081  -33.9480   25.0203 H   0  0  0  0  0  0
  -22.7917  -31.2677   21.3500 H   0  0  0  0  0  0
  -23.3757  -35.9542   23.3302 H   0  0  0  0  0  0
  -24.3566  -36.8863   22.2064 H   0  0  0  0  0  0
  -23.7257  -37.6400   23.6707 H   0  0  0  0  0  0
  -26.2289  -31.3609   20.6249 H   0  0  0  0  0  0
  -26.9071  -30.6842   22.0636 H   0  0  0  0  0  0
  -28.1398  -28.5728   21.3130 H   0  0  0  0  0  0
  -25.8907  -25.7605   18.9575 H   0  0  0  0  0  0
  -24.0131  -27.2875   18.9222 H   0  0  0  0  0  0
  -23.8809  -30.5220   19.3900 H   0  0  0  0  0  0
  -22.8288  -29.2097   19.8264 H   0  0  0  0  0  0
  -25.1337  -36.1769   25.0790 H   0  0  0  0  0  0
  -21.0036  -28.3363   24.1307 H   0  0  0  0  0  0
  -20.5684  -26.2370   23.3640 H   0  0  0  0  0  0
  -21.6667  -26.7405   22.1212 H   0  0  0  0  0  0
  -19.6945  -25.6269   21.1278 H   0  0  0  0  0  0
  -19.6710  -27.3152   20.6714 H   0  0  0  0  0  0
  -17.4218  -26.6668   21.4027 H   0  0  0  0  0  0
  -18.0358  -26.0092   22.9032 H   0  0  0  0  0  0
  -19.7969  -30.7320   24.2197 H   0  0  0  0  0  0
  -17.5036  -31.6268   24.5169 H   0  0  0  0  0  0
  -15.5377  -30.2964   23.7697 H   0  0  0  0  0  0
  -15.8710  -28.0805   22.7096 H   0  0  0  0  0  0
  -24.5882  -30.7121   25.7674 H   0  0  0  0  0  0
  -24.8855  -32.2997   26.4655 H   0  0  0  0  0  0
  -25.7912  -30.9049   27.0229 H   0  0  0  0  0  0
  -26.3139  -29.6558   24.1449 H   0  0  0  0  0  0
  -27.3960  -29.7272   25.5128 H   0  0  0  0  0  0
  -27.9091  -30.4067   23.9904 H   0  0  0  0  0  0
  -27.2617  -33.3688   26.1969 H   0  0  0  0  0  0
  -28.3925  -32.6843   25.0392 H   0  0  0  0  0  0
  -28.0645  -31.8559   26.5533 H   0  0  0  0  0  0
  -28.2585  -38.0061   24.7477 H   0  0  0  0  0  0
  -28.1058  -36.2586   24.6352 H   0  0  0  0  0  0
  -27.2274  -37.1479   25.8871 H   0  0  0  0  0  0
  -20.9597  -29.8731   21.6653 H   0  0  0  0  0  0
  -26.0137  -38.2760   24.1378 H   0  0  0  0  0  0
  -30.2062  -19.5699   22.1273 H   0  0  0  0  0  0
  -28.4943  -19.1646   21.8396 H   0  0  0  0  0  0
  -27.9089  -19.0206   19.5495 H   0  0  0  0  0  0
  -29.2632  -19.3350   18.4326 H   0  0  0  0  0  0
  -30.9589  -18.3595   20.0402 H   0  0  0  0  0  0
  -24.9039  -21.3838   21.5950 H   0  0  0  0  0  0
  -24.3678  -22.9346   20.9496 H   0  0  0  0  0  0
  -25.0075  -22.8372   22.5910 H   0  0  0  0  0  0
  -28.6866  -16.3318   20.6391 H   0  0  0  0  0  0
  1 25  1  0  0  0
  1 30  2  0  0  0
  1 82  1  0  0  0
  2  3  1  0  0  0
  2 25  1  0  0  0
  2 83  1  0  0  0
  2 84  1  0  0  0
  3  4  1  0  0  0
  3 85  1  0  0  0
  3 86  1  0  0  0
  4  5  1  0  0  0
  4 87  1  0  0  0
  4 88  1  0  0  0
  5  6  1  0  0  0
  5 26  1  0  0  0
  5 89  1  0  0  0
  6 25  1  0  0  0
  6 90  1  0  0  0
  6 91  1  0  0  0
  7  8  2  0  0  0
  7 26  1  0  0  0
  7 29  1  0  0  0
  8  9  1  0  0  0
  8 22  1  0  0  0
  9 10  1  0  0  0
  9 27  2  0  0  0
 10 11  2  0  0  0
 10 15  1  0  0  0
 11 12  1  0  0  0
 11 92  1  0  0  0
 12 13  2  0  0  0
 12 93  1  0  0  0
 13 14  1  0  0  0
 13 31  1  0  0  0
 14 15  2  0  0  0
 14 94  1  0  0  0
 15 95  1  0  0  0
 16 17  2  0  0  0
 16 21  1  0  0  0
 16 31  1  0  0  0
 17 18  1  0  0  0
 17 96  1  0  0  0
 18 19  2  0  0  0
 18 97  1  0  0  0
 19 20  1  0  0  0
 19 24  1  0  0  0
 20 21  2  0  0  0
 20 98  1  0  0  0
 21 23  1  0  0  0
 22 28  1  0  0  0
 22 32  2  0  0  0
 26 27  1  0  0  0
 28 99  1  0  0  0
 28100  1  0  0  0
 29101  1  0  0  0
 29102  1  0  0  0
 33 34  1  0  0  0
 33 66  1  0  0  0
 33 70  2  0  0  0
 34 36  1  0  0  0
 34 59  1  0  0  0
 34103  1  0  0  0
 35 44  2  0  0  0
 35 45  1  0  0  0
 35 68  1  0  0  0
 36 56  1  0  0  0
 36104  1  0  0  0
 37 39  1  0  0  0
 37 47  1  0  0  0
 37 66  1  0  0  0
 37105  1  0  0  0
 38 43  2  0  0  0
 38 46  1  0  0  0
 38 47  1  0  0  0
 39 64  1  0  0  0
 39 67  2  0  0  0
 40 52  1  0  0  0
 40 53  2  0  0  0
 40 58  1  0  0  0
 41106  1  0  0  0
 41107  1  0  0  0
 41108  1  0  0  0
 41 48  1  0  0  0
 42 43  1  0  0  0
 42 66  1  0  0  0
 42109  1  0  0  0
 42110  1  0  0  0
 43 44  1  0  0  0
 44111  1  0  0  0
 45 46  2  0  0  0
 45112  1  0  0  0
 46113  1  0  0  0
 47114  1  0  0  0
 47115  1  0  0  0
 48 56  1  0  0  0
 48 65  1  0  0  0
 48116  1  0  0  0
 49 50  1  0  0  0
 49 53  1  0  0  0
 49 64  1  0  0  0
 49117  1  0  0  0
 50 51  1  0  0  0
 50118  1  0  0  0
 50119  1  0  0  0
 51 52  1  0  0  0
 51120  1  0  0  0
 51121  1  0  0  0
 52122  1  0  0  0
 52123  1  0  0  0
 53 54  1  0  0  0
 54 55  2  0  0  0
 54124  1  0  0  0
 55 57  1  0  0  0
 55125  1  0  0  0
 56 69  2  0  0  0
 57 58  2  0  0  0
 57126  1  0  0  0
 58127  1  0  0  0
 59 60  1  0  0  0
 59 61  1  0  0  0
 59 62  1  0  0  0
 60128  1  0  0  0
 60129  1  0  0  0
 60130  1  0  0  0
 61131  1  0  0  0
 61132  1  0  0  0
 61133  1  0  0  0
 62134  1  0  0  0
 62135  1  0  0  0
 62136  1  0  0  0
 63 65  1  0  0  0
 63137  1  0  0  0
 63138  1  0  0  0
 63139  1  0  0  0
 64140  1  0  0  0
 65141  1  0  0  0
 68 73  1  0  0  0
 71 77  1  0  0  0
 71 78  2  0  0  0
 71 79  1  0  0  0
 72 78  1  0  0  0
 72 80  2  0  0  0
 72 81  1  0  0  0
 73 79  2  0  0  0
 73 80  1  0  0  0
 74 76  1  0  0  0
 74 81  1  0  0  0
 74142  1  0  0  0
 74143  1  0  0  0
 75 76  1  0  0  0
 75 81  1  0  0  0
 75144  1  0  0  0
 75145  1  0  0  0
 76 82  1  0  0  0
 76146  1  0  0  0
 77147  1  0  0  0
 77148  1  0  0  0
 77149  1  0  0  0
 82150  1  0  0  0
M  ISO  4   1 100  68 101  73 101  82 100
M  END
> <chiral flag>
0

> <version>
0

> <s_m_source_file>
/data/baiqing/PycharmProjects/Reinvent-master-3.2/result/LINK_invent/BTK/process_docking_weight1_custom_sum_contain_oxygen_bond_distance_aromatic_linkinvent_7_9_3/rearranged_h_0191.sdf

> <i_m_source_file_index>
32

> <r_mmod_Potential_Energy-OPLS-2005>
418.550354003906

> <r_mmod_Stretch_Energy-OPLS-2005>
478.833923339844

> <r_mmod_Bend_Energy-OPLS-2005>
445.355377197266

> <r_mmod_Torsional_Energy-OPLS-2005>
239.734558105469

> <r_mmod_Improper_Torsional_Energy-OPLS-2005>
11.957405090332

> <r_mmod_Van_der_Waal_Energy-OPLS-2005>
147.044738769531

> <r_mmod_Electrostatic_Energy-OPLS-2005>
-1102.62902832031

> <r_mmod_Solvation_Energy-OPLS-2005>
-265.411163330078

> <b_mmod_Minimization_Converged-OPLS-2005>
0

> <r_mmod_RMS_Derivative-OPLS-2005>
0.861349523067474

$$$$
32
                    3D
 Structure written by MMmdl.
161171  0  0  1  0            999 V2000
  -30.6430  -14.8046   20.4514 C   0  0  0  0  0  0
  -30.4161  -12.5060   19.4697 C   0  0  0  0  0  0
  -29.4975  -12.5122   18.2309 C   0  0  0  0  0  0
  -28.0281  -12.3303   18.6530 C   0  0  0  0  0  0
  -27.6301  -13.2453   19.8433 C   0  0  2  0  0  0
  -28.6805  -13.2206   20.9725 C   0  0  0  0  0  0
  -25.2461  -13.8229   20.5727 C   0  0  0  0  0  0
  -24.1770  -13.0450   20.9230 C   0  0  0  0  0  0
  -24.6380  -11.6934   20.8763 C   0  0  0  0  0  0
  -23.9066  -10.4299   21.0406 C   0  0  0  0  0  0
  -24.3616   -9.4213   21.9182 C   0  0  0  0  0  0
  -23.6291   -8.2247   22.0753 C   0  0  0  0  0  0
  -22.4273   -8.0283   21.3543 C   0  0  0  0  0  0
  -21.9911   -9.0255   20.4645 C   0  0  0  0  0  0
  -22.7237  -10.2137   20.3055 C   0  0  0  0  0  0
  -21.6854   -6.0733   22.5276 C   0  0  0  0  0  0
  -21.4017   -6.5635   23.8208 C   0  0  0  0  0  0
  -21.3661   -5.6785   24.9170 C   0  0  0  0  0  0
  -21.6043   -4.3049   24.7222 C   0  0  0  0  0  0
  -21.8820   -3.8140   23.4344 C   0  0  0  0  0  0
  -21.9193   -4.6958   22.3400 C   0  0  0  0  0  0
  -22.7790  -13.5226   21.1869 C   0  0  0  0  0  0
  -22.1660   -4.2142   21.0978 F   0  0  0  0  0  0
  -21.5627   -3.4535   25.7736 F   0  0  0  0  0  0
  -29.9559  -13.6055   20.3603 N   0  0  0  0  0  0
  -26.2888  -12.9458   20.3303 N   0  0  0  0  0  0
  -25.9317  -11.6587   20.5775 N   0  0  0  0  0  0
  -22.0434  -12.8226   22.0427 N   0  0  0  0  0  0
  -25.4146  -15.1949   20.4131 N   0  0  0  0  0  0
  -31.8541  -14.7594   20.2115 O   0  0  0  0  0  0
  -21.6643   -6.8874   21.4238 O   0  0  0  0  0  0
  -22.3477  -14.5523   20.6697 O   0  0  0  0  0  0
  -24.6350  -31.8518   23.1954 C   0  0  0  0  0  0
  -25.9166  -32.4729   23.8307 C   0  0  1  0  0  0
  -27.2106  -27.2152   20.1211 C   0  0  0  0  0  0
  -25.5938  -33.8532   24.2215 N   0  0  0  0  0  0
  -23.4335  -30.4750   21.5402 C   0  0  2  0  0  0
  -24.8784  -28.9199   20.1061 C   0  0  0  0  0  0
  -22.7525  -29.4585   22.4890 C   0  0  0  0  0  0
  -18.0299  -28.1386   22.8478 C   0  0  0  0  0  0
  -24.1485  -36.7269   23.2641 C   0  0  0  0  0  0
  -25.9847  -30.7476   21.3856 C   0  0  0  0  0  0
  -26.0524  -29.3688   20.7222 C   0  0  0  0  0  0
  -27.2167  -28.5274   20.7223 C   0  0  0  0  0  0
  -26.0056  -26.8475   19.4788 C   0  0  0  0  0  0
  -24.8627  -27.6693   19.4749 C   0  0  0  0  0  0
  -23.6529  -29.8122   20.1557 C   0  0  0  0  0  0
  -25.4117  -36.3043   24.0311 C   0  0  1  0  0  0
  -20.5905  -28.3707   23.1253 C   0  0  2  0  0  0
  -20.6790  -26.9419   22.5398 C   0  0  0  0  0  0
  -19.5755  -26.6377   21.5211 C   0  0  0  0  0  0
  -18.1935  -26.7928   22.1623 C   0  0  0  0  0  0
  -19.1553  -28.8862   23.2857 C   0  0  0  0  0  0
  -18.9473  -30.1460   23.8874 C   0  0  0  0  0  0
  -17.6473  -30.6587   24.0558 C   0  0  0  0  0  0
  -25.9063  -34.9424   23.5070 C   0  0  0  0  0  0
  -16.5360  -29.9080   23.6339 C   0  0  0  0  0  0
  -16.7284  -28.6499   23.0353 C   0  0  0  0  0  0
  -26.4509  -31.6581   25.0726 C   0  0  0  0  0  0
  -25.3706  -31.3755   26.1427 C   0  0  0  0  0  0
  -27.0390  -30.2987   24.6282 C   0  0  0  0  0  0
  -27.6023  -32.4371   25.7511 C   0  0  0  0  0  0
  -27.5573  -37.1788   24.8464 C   0  0  0  0  0  0
  -21.4224  -29.3047   22.3638 N   0  0  0  0  0  0
  -26.4281  -37.3755   23.9409 N   0  0  0  0  0  0
  -24.7039  -31.0444   22.0956 N   0  0  0  0  0  0
  -23.4207  -28.8127   23.3007 O   0  0  0  0  0  0
  -28.2906  -26.2912   20.2274 O   0  0  0  0  0  0
  -26.5647  -34.8910   22.4647 O   0  0  0  0  0  0
  -23.5490  -32.1370   23.7218 O   0  0  0  0  0  0
  -27.7015  -21.1859   20.5296 C   0  0  0  0  0  0
  -27.4667  -22.6025   20.3713 C   0  0  0  0  0  0
  -28.5521  -23.4829   20.0595 C   0  0  0  0  0  0
  -29.0010  -20.6253   20.3683 C   0  0  0  0  0  0
  -29.9515  -17.2540   22.4878 C   0  0  0  0  0  0
  -30.9965  -18.2532   21.9169 C   0  0  0  0  0  0
  -28.3423  -18.0853   20.7513 C   0  0  0  0  0  0
  -30.6701  -17.2169   19.6353 C   0  0  0  0  0  0
  -29.0720  -16.7524   21.3197 C   0  0  1  0  0  0
  -30.6479  -18.5918   20.4430 C   0  0  1  0  0  0
  -28.3723  -24.9830   19.4587 C   0  0  0  0  0  0
  -26.0482  -23.1456   20.4534 C   0  0  0  0  0  0
  -29.7867  -22.8792   19.9587 N   0  0  0  0  0  0
  -29.9995  -21.5348   20.1150 N   0  0  0  0  0  0
  -29.2964  -19.1866   20.4135 N   0  0  0  0  0  0
  -29.9979  -16.0626   20.3483 N   0  0  0  0  0  0
  -25.9933  -24.1858   21.2842 F   0  0  0  0  0  0
  -25.1829  -22.2215   20.8723 F   0  0  0  0  0  0
  -31.4540  -12.6207   19.1531 H   0  0  0  0  0  0
  -30.3717  -11.5446   19.9843 H   0  0  0  0  0  0
  -29.7890  -11.7225   17.5371 H   0  0  0  0  0  0
  -29.6122  -13.4538   17.6912 H   0  0  0  0  0  0
  -27.8961  -11.2842   18.9318 H   0  0  0  0  0  0
  -27.3659  -12.5027   17.8039 H   0  0  0  0  0  0
  -27.6092  -14.2607   19.4459 H   0  0  0  0  0  0
  -28.7469  -12.2276   21.4196 H   0  0  0  0  0  0
  -28.4105  -13.8947   21.7835 H   0  0  0  0  0  0
  -25.2756   -9.5693   22.4766 H   0  0  0  0  0  0
  -23.9994   -7.4642   22.7483 H   0  0  0  0  0  0
  -21.0837   -8.8774   19.8956 H   0  0  0  0  0  0
  -22.3683  -10.9677   19.6171 H   0  0  0  0  0  0
  -21.2013   -7.6145   23.9710 H   0  0  0  0  0  0
  -21.1480   -6.0518   25.9075 H   0  0  0  0  0  0
  -22.0597   -2.7602   23.2845 H   0  0  0  0  0  0
  -22.4055  -11.9904   22.4844 H   0  0  0  0  0  0
  -21.1049  -13.1253   22.2614 H   0  0  0  0  0  0
  -24.6432  -15.8463   20.5116 H   0  0  0  0  0  0
  -26.2609  -15.6290   20.0691 H   0  0  0  0  0  0
  -26.7227  -32.5353   23.1036 H   0  0  0  0  0  0
  -25.0052  -33.9660   25.0340 H   0  0  0  0  0  0
  -22.7307  -31.2984   21.3936 H   0  0  0  0  0  0
  -23.3747  -35.9601   23.3286 H   0  0  0  0  0  0
  -24.3561  -36.8929   22.2058 H   0  0  0  0  0  0
  -23.7244  -37.6458   23.6700 H   0  0  0  0  0  0
  -26.1374  -31.5089   20.6197 H   0  0  0  0  0  0
  -26.8563  -30.7885   22.0271 H   0  0  0  0  0  0
  -28.1122  -28.8615   21.2276 H   0  0  0  0  0  0
  -25.8758  -25.8896   19.0070 H   0  0  0  0  0  0
  -23.9602  -27.3173   18.9940 H   0  0  0  0  0  0
  -23.7823  -30.5894   19.4017 H   0  0  0  0  0  0
  -22.7691  -29.2505   19.8484 H   0  0  0  0  0  0
  -25.1306  -36.1866   25.0801 H   0  0  0  0  0  0
  -20.9992  -28.3291   24.1377 H   0  0  0  0  0  0
  -20.5707  -26.2312   23.3609 H   0  0  0  0  0  0
  -21.6656  -26.7449   22.1181 H   0  0  0  0  0  0
  -19.6917  -25.6284   21.1252 H   0  0  0  0  0  0
  -19.6688  -27.3178   20.6734 H   0  0  0  0  0  0
  -17.4209  -26.6671   21.4021 H   0  0  0  0  0  0
  -18.0326  -26.0070   22.9019 H   0  0  0  0  0  0
  -19.7948  -30.7279   24.2231 H   0  0  0  0  0  0
  -17.5028  -31.6264   24.5165 H   0  0  0  0  0  0
  -15.5358  -30.2972   23.7682 H   0  0  0  0  0  0
  -15.8681  -28.0816   22.7076 H   0  0  0  0  0  0
  -24.5855  -30.7145   25.7736 H   0  0  0  0  0  0
  -24.8929  -32.2944   26.4841 H   0  0  0  0  0  0
  -25.7990  -30.8914   27.0212 H   0  0  0  0  0  0
  -26.3014  -29.6694   24.1285 H   0  0  0  0  0  0
  -27.4018  -29.7291   25.4849 H   0  0  0  0  0  0
  -27.8911  -30.4232   23.9594 H   0  0  0  0  0  0
  -27.2583  -33.3683   26.2026 H   0  0  0  0  0  0
  -28.3858  -32.6929   25.0366 H   0  0  0  0  0  0
  -28.0666  -31.8555   26.5483 H   0  0  0  0  0  0
  -28.2569  -38.0102   24.7524 H   0  0  0  0  0  0
  -28.1089  -36.2631   24.6281 H   0  0  0  0  0  0
  -27.2284  -37.1423   25.8863 H   0  0  0  0  0  0
  -20.9417  -29.8773   21.6842 H   0  0  0  0  0  0
  -26.0143  -38.2817   24.1432 H   0  0  0  0  0  0
  -26.8714  -20.5261   20.7269 H   0  0  0  0  0  0
  -29.3262  -17.7531   23.2296 H   0  0  0  0  0  0
  -30.4425  -16.4295   23.0065 H   0  0  0  0  0  0
  -31.9926  -17.8096   21.9604 H   0  0  0  0  0  0
  -31.0370  -19.1562   22.5280 H   0  0  0  0  0  0
  -27.6383  -18.4513   21.5000 H   0  0  0  0  0  0
  -27.7501  -17.8418   19.8681 H   0  0  0  0  0  0
  -31.7136  -16.9958   19.4108 H   0  0  0  0  0  0
  -30.1987  -17.3452   18.6599 H   0  0  0  0  0  0
  -28.3136  -16.0584   21.6765 H   0  0  0  0  0  0
  -31.3753  -19.2869   20.0205 H   0  0  0  0  0  0
  -27.6136  -24.9122   18.6862 H   0  0  0  0  0  0
  -29.2715  -25.1289   18.8602 H   0  0  0  0  0  0
  -25.7033  -23.4789   19.4735 H   0  0  0  0  0  0
  1 25  1  0  0  0
  1 30  2  0  0  0
  1 86  1  0  0  0
  2  3  1  0  0  0
  2 25  1  0  0  0
  2 89  1  0  0  0
  2 90  1  0  0  0
  3  4  1  0  0  0
  3 91  1  0  0  0
  3 92  1  0  0  0
  4  5  1  0  0  0
  4 93  1  0  0  0
  4 94  1  0  0  0
  5  6  1  0  0  0
  5 26  1  0  0  0
  5 95  1  0  0  0
  6 25  1  0  0  0
  6 96  1  0  0  0
  6 97  1  0  0  0
  7  8  2  0  0  0
  7 26  1  0  0  0
  7 29  1  0  0  0
  8  9  1  0  0  0
  8 22  1  0  0  0
  9 10  1  0  0  0
  9 27  2  0  0  0
 10 11  2  0  0  0
 10 15  1  0  0  0
 11 12  1  0  0  0
 11 98  1  0  0  0
 12 13  2  0  0  0
 12 99  1  0  0  0
 13 14  1  0  0  0
 13 31  1  0  0  0
 14 15  2  0  0  0
 14100  1  0  0  0
 15101  1  0  0  0
 16 17  2  0  0  0
 16 21  1  0  0  0
 16 31  1  0  0  0
 17 18  1  0  0  0
 17102  1  0  0  0
 18 19  2  0  0  0
 18103  1  0  0  0
 19 20  1  0  0  0
 19 24  1  0  0  0
 20 21  2  0  0  0
 20104  1  0  0  0
 21 23  1  0  0  0
 22 28  1  0  0  0
 22 32  2  0  0  0
 26 27  1  0  0  0
 28105  1  0  0  0
 28106  1  0  0  0
 29107  1  0  0  0
 29108  1  0  0  0
 33 34  1  0  0  0
 33 66  1  0  0  0
 33 70  2  0  0  0
 34 36  1  0  0  0
 34 59  1  0  0  0
 34109  1  0  0  0
 35 44  2  0  0  0
 35 45  1  0  0  0
 35 68  1  0  0  0
 36 56  1  0  0  0
 36110  1  0  0  0
 37 39  1  0  0  0
 37 47  1  0  0  0
 37 66  1  0  0  0
 37111  1  0  0  0
 38 43  2  0  0  0
 38 46  1  0  0  0
 38 47  1  0  0  0
 39 64  1  0  0  0
 39 67  2  0  0  0
 40 52  1  0  0  0
 40 53  2  0  0  0
 40 58  1  0  0  0
 41112  1  0  0  0
 41113  1  0  0  0
 41114  1  0  0  0
 41 48  1  0  0  0
 42 43  1  0  0  0
 42 66  1  0  0  0
 42115  1  0  0  0
 42116  1  0  0  0
 43 44  1  0  0  0
 44117  1  0  0  0
 45 46  2  0  0  0
 45118  1  0  0  0
 46119  1  0  0  0
 47120  1  0  0  0
 47121  1  0  0  0
 48 56  1  0  0  0
 48 65  1  0  0  0
 48122  1  0  0  0
 49 50  1  0  0  0
 49 53  1  0  0  0
 49 64  1  0  0  0
 49123  1  0  0  0
 50 51  1  0  0  0
 50124  1  0  0  0
 50125  1  0  0  0
 51 52  1  0  0  0
 51126  1  0  0  0
 51127  1  0  0  0
 52128  1  0  0  0
 52129  1  0  0  0
 53 54  1  0  0  0
 54 55  2  0  0  0
 54130  1  0  0  0
 55 57  1  0  0  0
 55131  1  0  0  0
 56 69  2  0  0  0
 57 58  2  0  0  0
 57132  1  0  0  0
 58133  1  0  0  0
 59 60  1  0  0  0
 59 61  1  0  0  0
 59 62  1  0  0  0
 60134  1  0  0  0
 60135  1  0  0  0
 60136  1  0  0  0
 61137  1  0  0  0
 61138  1  0  0  0
 61139  1  0  0  0
 62140  1  0  0  0
 62141  1  0  0  0
 62142  1  0  0  0
 63 65  1  0  0  0
 63143  1  0  0  0
 63144  1  0  0  0
 63145  1  0  0  0
 64146  1  0  0  0
 65147  1  0  0  0
 68 81  1  0  0  0
 71 72  2  0  0  0
 71 74  1  0  0  0
 71148  1  0  0  0
 72 73  1  0  0  0
 72 82  1  0  0  0
 73 81  1  0  0  0
 73 83  2  0  0  0
 74 84  2  0  0  0
 74 85  1  0  0  0
 75 76  1  0  0  0
 75149  1  0  0  0
 75150  1  0  0  0
 75 79  1  0  0  0
 76151  1  0  0  0
 76152  1  0  0  0
 76 80  1  0  0  0
 77 79  1  0  0  0
 77 85  1  0  0  0
 77153  1  0  0  0
 77154  1  0  0  0
 78 80  1  0  0  0
 78 86  1  0  0  0
 78155  1  0  0  0
 78156  1  0  0  0
 79 86  1  0  0  0
 79157  1  0  0  0
 80 85  1  0  0  0
 80158  1  0  0  0
 81159  1  0  0  0
 81160  1  0  0  0
 82 87  1  0  0  0
 82 88  1  0  0  0
 82161  1  0  0  0
 83 84  1  0  0  0
M  ISO  4   1 100  68 101  81 101  86 100
M  END
> <chiral flag>
0

> <version>
0

> <s_m_source_file>
/data/baiqing/PycharmProjects/Reinvent-master-3.2/result/LINK_invent/BTK/process_docking_weight1_custom_sum_contain_oxygen_bond_distance_aromatic_linkinvent_7_9_3/rearranged_h_0191.sdf

> <i_m_source_file_index>
33

> <r_mmod_Potential_Energy-OPLS-2005>
585.724182128906

> <r_mmod_Stretch_Energy-OPLS-2005>
158.985717773438

> <r_mmod_Bend_Energy-OPLS-2005>
260.260437011719

> <r_mmod_Torsional_Energy-OPLS-2005>
395.7333984375

> <r_mmod_Improper_Torsional_Energy-OPLS-2005>
19.8480167388916

> <r_mmod_Van_der_Waal_Energy-OPLS-2005>
175.182861328125

> <r_mmod_Electrostatic_Energy-OPLS-2005>
-307.960754394531

> <r_mmod_Solvation_Energy-OPLS-2005>
-234.272964477539

> <b_mmod_Minimization_Converged-OPLS-2005>
0

> <r_mmod_RMS_Derivative-OPLS-2005>
0.871907830238342

$$$$
33
                    3D
 Structure written by MMmdl.
153162  0  0  1  0            999 V2000
  -30.8559  -14.5384   20.6244 C   0  0  0  0  0  0
  -30.4302  -12.3792   19.4600 C   0  0  0  0  0  0
  -29.5045  -12.4528   18.2207 C   0  0  0  0  0  0
  -28.0315  -12.2158   18.6211 C   0  0  0  0  0  0
  -27.5592  -13.1859   19.7374 C   0  0  2  0  0  0
  -28.6339  -13.3073   20.8765 C   0  0  0  0  0  0
  -25.2379  -13.7942   20.5857 C   0  0  0  0  0  0
  -24.1594  -13.0219   20.9183 C   0  0  0  0  0  0
  -24.6197  -11.6729   20.8692 C   0  0  0  0  0  0
  -23.8917  -10.4184   21.0455 C   0  0  0  0  0  0
  -24.3504   -9.4177   21.9278 C   0  0  0  0  0  0
  -23.6251   -8.2178   22.0799 C   0  0  0  0  0  0
  -22.4254   -8.0212   21.3545 C   0  0  0  0  0  0
  -21.9804   -9.0190   20.4668 C   0  0  0  0  0  0
  -22.7091  -10.2098   20.3140 C   0  0  0  0  0  0
  -21.6825   -6.0676   22.5279 C   0  0  0  0  0  0
  -21.3964   -6.5629   23.8198 C   0  0  0  0  0  0
  -21.3650   -5.6825   24.9181 C   0  0  0  0  0  0
  -21.6012   -4.3081   24.7280 C   0  0  0  0  0  0
  -21.8850   -3.8152   23.4423 C   0  0  0  0  0  0
  -21.9214   -4.6907   22.3452 C   0  0  0  0  0  0
  -22.7658  -13.5002   21.1789 C   0  0  0  0  0  0
  -22.1666   -4.2097   21.1025 F   0  0  0  0  0  0
  -21.5658   -3.4573   25.7814 F   0  0  0  0  0  0
  -30.0456  -13.4269   20.4524 N   0  0  0  0  0  0
  -26.2533  -12.8982   20.2896 N   0  0  0  0  0  0
  -25.9012  -11.6218   20.5409 N   0  0  0  0  0  0
  -22.0222  -12.8143   22.0433 N   0  0  0  0  0  0
  -25.4307  -15.1688   20.4753 N   0  0  0  0  0  0
  -31.9797  -14.5883   20.1290 O   0  0  0  0  0  0
  -21.6638   -6.8785   21.4230 O   0  0  0  0  0  0
  -22.3404  -14.5272   20.6538 O   0  0  0  0  0  0
  -24.6134  -31.8664   23.2096 C   0  0  0  0  0  0
  -25.9023  -32.4821   23.8387 C   0  0  1  0  0  0
  -27.2405  -27.4407   20.0873 C   0  0  0  0  0  0
  -25.5871  -33.8616   24.2318 N   0  0  0  0  0  0
  -23.4010  -30.4890   21.5527 C   0  0  2  0  0  0
  -24.8469  -28.9502   20.1188 C   0  0  0  0  0  0
  -22.7416  -29.4651   22.5047 C   0  0  0  0  0  0
  -18.0262  -28.1372   22.8493 C   0  0  0  0  0  0
  -24.1472  -36.7298   23.2650 C   0  0  0  0  0  0
  -25.9306  -30.8404   21.3548 C   0  0  0  0  0  0
  -26.0107  -29.4741   20.6992 C   0  0  0  0  0  0
  -27.2163  -28.7330   20.6626 C   0  0  0  0  0  0
  -26.0586  -26.9202   19.5179 C   0  0  0  0  0  0
  -24.8674  -27.6732   19.5286 C   0  0  0  0  0  0
  -23.6068  -29.8174   20.1692 C   0  0  0  0  0  0
  -25.4102  -36.3111   24.0340 C   0  0  1  0  0  0
  -20.5852  -28.3631   23.1356 C   0  0  2  0  0  0
  -20.6764  -26.9374   22.5442 C   0  0  0  0  0  0
  -19.5743  -26.6376   21.5232 C   0  0  0  0  0  0
  -18.1913  -26.7920   22.1631 C   0  0  0  0  0  0
  -19.1513  -28.8823   23.2908 C   0  0  0  0  0  0
  -18.9442  -30.1439   23.8900 C   0  0  0  0  0  0
  -17.6444  -30.6582   24.0556 C   0  0  0  0  0  0
  -25.9026  -34.9474   23.5134 C   0  0  0  0  0  0
  -16.5333  -29.9078   23.6336 C   0  0  0  0  0  0
  -16.7252  -28.6497   23.0354 C   0  0  0  0  0  0
  -26.4454  -31.6604   25.0714 C   0  0  0  0  0  0
  -25.3747  -31.3681   26.1485 C   0  0  0  0  0  0
  -27.0274  -30.3061   24.6059 C   0  0  0  0  0  0
  -27.6036  -32.4322   25.7471 C   0  0  0  0  0  0
  -27.5578  -37.1799   24.8477 C   0  0  0  0  0  0
  -21.4148  -29.2999   22.3792 N   0  0  0  0  0  0
  -26.4290  -37.3799   23.9417 N   0  0  0  0  0  0
  -24.6678  -31.0767   22.0998 N   0  0  0  0  0  0
  -23.4204  -28.8246   23.3111 O   0  0  0  0  0  0
  -28.4164  -26.7206   20.0468 O   0  0  0  0  0  0
  -26.5614  -34.8937   22.4711 O   0  0  0  0  0  0
  -23.5318  -32.1414   23.7501 O   0  0  0  0  0  0
  -27.7355  -18.3865   20.4625 C   0  0  0  0  0  0
  -28.9951  -17.8535   20.8218 C   0  0  0  0  0  0
  -28.7060  -20.4055   20.0705 C   0  0  0  0  0  0
  -29.8258  -15.9208   22.4787 C   0  0  0  0  0  0
  -29.1189  -16.3743   21.2234 C   0  0  2  0  0  0
  -28.5697  -24.2370   19.7858 C   0  0  0  0  0  0
  -28.7784  -22.8643   20.5031 C   0  0  0  0  0  0
  -28.4386  -25.4561   20.7371 C   0  0  0  0  0  0
  -27.5970  -19.6749   20.0648 N   0  0  0  0  0  0
  -30.0870  -18.6700   20.7647 N   0  0  0  0  0  0
  -29.9328  -19.9702   20.4156 N   0  0  0  0  0  0
  -30.4007  -15.7034   21.1860 N   0  0  0  0  0  0
  -28.5349  -21.7080   19.6311 N   0  0  0  0  0  0
  -31.4704  -12.4657   19.1430 H   0  0  0  0  0  0
  -30.3664  -11.3864   19.9070 H   0  0  0  0  0  0
  -29.8092  -11.6966   17.4917 H   0  0  0  0  0  0
  -29.6080  -13.4203   17.7258 H   0  0  0  0  0  0
  -27.9594  -11.1840   18.9640 H   0  0  0  0  0  0
  -27.3726  -12.2887   17.7547 H   0  0  0  0  0  0
  -27.3212  -14.0771   19.1215 H   0  0  0  0  0  0
  -28.6641  -12.2242   20.9550 H   0  0  0  0  0  0
  -28.7197  -14.0999   20.1650 H   0  0  0  0  0  0
  -25.2561   -9.5728   22.4931 H   0  0  0  0  0  0
  -23.9944   -7.4591   22.7519 H   0  0  0  0  0  0
  -21.0721   -8.8752   19.8981 H   0  0  0  0  0  0
  -22.3524  -10.9725   19.6384 H   0  0  0  0  0  0
  -21.1883   -7.6118   23.9652 H   0  0  0  0  0  0
  -21.1403   -6.0555   25.9053 H   0  0  0  0  0  0
  -22.0632   -2.7607   23.2986 H   0  0  0  0  0  0
  -22.3596  -11.9818   22.5049 H   0  0  0  0  0  0
  -21.0810  -13.1351   22.2319 H   0  0  0  0  0  0
  -26.3246  -15.5815   20.2531 H   0  0  0  0  0  0
  -24.7250  -15.8464   20.7391 H   0  0  0  0  0  0
  -26.7114  -32.5536   23.1167 H   0  0  0  0  0  0
  -24.9980  -33.9785   25.0434 H   0  0  0  0  0  0
  -22.6856  -31.3034   21.4138 H   0  0  0  0  0  0
  -23.3737  -35.9629   23.3343 H   0  0  0  0  0  0
  -24.3574  -36.8881   22.2063 H   0  0  0  0  0  0
  -23.7204  -37.6503   23.6643 H   0  0  0  0  0  0
  -26.0386  -31.6125   20.5902 H   0  0  0  0  0  0
  -26.8219  -30.8956   21.9703 H   0  0  0  0  0  0
  -28.1298  -29.1510   21.0685 H   0  0  0  0  0  0
  -26.0550  -25.9444   19.0512 H   0  0  0  0  0  0
  -23.9735  -27.2586   19.0852 H   0  0  0  0  0  0
  -23.7129  -30.5906   19.4072 H   0  0  0  0  0  0
  -22.7287  -29.2369   19.8814 H   0  0  0  0  0  0
  -25.1270  -36.1992   25.0829 H   0  0  0  0  0  0
  -20.9913  -28.3177   24.1485 H   0  0  0  0  0  0
  -20.5671  -26.2225   23.3615 H   0  0  0  0  0  0
  -21.6637  -26.7431   22.1229 H   0  0  0  0  0  0
  -19.6901  -25.6290   21.1246 H   0  0  0  0  0  0
  -19.6704  -27.3205   20.6777 H   0  0  0  0  0  0
  -17.4198  -26.6668   21.4024 H   0  0  0  0  0  0
  -18.0294  -26.0063   22.9018 H   0  0  0  0  0  0
  -19.7913  -30.7258   24.2276 H   0  0  0  0  0  0
  -17.4993  -31.6269   24.5141 H   0  0  0  0  0  0
  -15.5331  -30.2977   23.7662 H   0  0  0  0  0  0
  -15.8652  -28.0821   22.7071 H   0  0  0  0  0  0
  -24.5915  -30.7034   25.7830 H   0  0  0  0  0  0
  -24.8939  -32.2812   26.4998 H   0  0  0  0  0  0
  -25.8132  -30.8812   27.0208 H   0  0  0  0  0  0
  -26.2797  -29.6841   24.1130 H   0  0  0  0  0  0
  -27.4083  -29.7286   25.4491 H   0  0  0  0  0  0
  -27.8608  -30.4402   23.9166 H   0  0  0  0  0  0
  -27.2660  -33.3607   26.2098 H   0  0  0  0  0  0
  -28.3811  -32.6919   25.0271 H   0  0  0  0  0  0
  -28.0751  -31.8421   26.5344 H   0  0  0  0  0  0
  -28.2607  -38.0088   24.7521 H   0  0  0  0  0  0
  -28.1059  -36.2616   24.6295 H   0  0  0  0  0  0
  -27.2307  -37.1447   25.8888 H   0  0  0  0  0  0
  -20.9340  -29.8659   21.6953 H   0  0  0  0  0  0
  -26.0180  -38.2874   24.1443 H   0  0  0  0  0  0
  -26.8444  -17.7772   20.4701 H   0  0  0  0  0  0
  -29.4425  -15.0451   23.0012 H   0  0  0  0  0  0
  -30.3048  -16.6606   23.1167 H   0  0  0  0  0  0
  -28.1880  -15.8544   21.0397 H   0  0  0  0  0  0
  -27.6723  -24.2121   19.1684 H   0  0  0  0  0  0
  -29.3997  -24.3975   19.0971 H   0  0  0  0  0  0
  -28.1042  -22.7885   21.3569 H   0  0  0  0  0  0
  -29.7862  -22.8023   20.9077 H   0  0  0  0  0  0
  -29.2910  -25.4729   21.4146 H   0  0  0  0  0  0
  -27.5619  -25.3358   21.3745 H   0  0  0  0  0  0
  -27.6259  -21.7948   19.1980 H   0  0  0  0  0  0
  1 25  1  0  0  0
  1 30  2  0  0  0
  1 82  1  0  0  0
  2  3  1  0  0  0
  2 25  1  0  0  0
  2 84  1  0  0  0
  2 85  1  0  0  0
  3  4  1  0  0  0
  3 86  1  0  0  0
  3 87  1  0  0  0
  4  5  1  0  0  0
  4 88  1  0  0  0
  4 89  1  0  0  0
  5  6  1  0  0  0
  5 26  1  0  0  0
  5 90  1  0  0  0
  6 25  1  0  0  0
  6 91  1  0  0  0
  6 92  1  0  0  0
  7  8  2  0  0  0
  7 26  1  0  0  0
  7 29  1  0  0  0
  8  9  1  0  0  0
  8 22  1  0  0  0
  9 10  1  0  0  0
  9 27  2  0  0  0
 10 11  2  0  0  0
 10 15  1  0  0  0
 11 12  1  0  0  0
 11 93  1  0  0  0
 12 13  2  0  0  0
 12 94  1  0  0  0
 13 14  1  0  0  0
 13 31  1  0  0  0
 14 15  2  0  0  0
 14 95  1  0  0  0
 15 96  1  0  0  0
 16 17  2  0  0  0
 16 21  1  0  0  0
 16 31  1  0  0  0
 17 18  1  0  0  0
 17 97  1  0  0  0
 18 19  2  0  0  0
 18 98  1  0  0  0
 19 20  1  0  0  0
 19 24  1  0  0  0
 20 21  2  0  0  0
 20 99  1  0  0  0
 21 23  1  0  0  0
 22 28  1  0  0  0
 22 32  2  0  0  0
 26 27  1  0  0  0
 28100  1  0  0  0
 28101  1  0  0  0
 29102  1  0  0  0
 29103  1  0  0  0
 33 34  1  0  0  0
 33 66  1  0  0  0
 33 70  2  0  0  0
 34 36  1  0  0  0
 34 59  1  0  0  0
 34104  1  0  0  0
 35 44  2  0  0  0
 35 45  1  0  0  0
 35 68  1  0  0  0
 36 56  1  0  0  0
 36105  1  0  0  0
 37 39  1  0  0  0
 37 47  1  0  0  0
 37 66  1  0  0  0
 37106  1  0  0  0
 38 43  2  0  0  0
 38 46  1  0  0  0
 38 47  1  0  0  0
 39 64  1  0  0  0
 39 67  2  0  0  0
 40 52  1  0  0  0
 40 53  2  0  0  0
 40 58  1  0  0  0
 41107  1  0  0  0
 41108  1  0  0  0
 41109  1  0  0  0
 41 48  1  0  0  0
 42 43  1  0  0  0
 42 66  1  0  0  0
 42110  1  0  0  0
 42111  1  0  0  0
 43 44  1  0  0  0
 44112  1  0  0  0
 45 46  2  0  0  0
 45113  1  0  0  0
 46114  1  0  0  0
 47115  1  0  0  0
 47116  1  0  0  0
 48 56  1  0  0  0
 48 65  1  0  0  0
 48117  1  0  0  0
 49 50  1  0  0  0
 49 53  1  0  0  0
 49 64  1  0  0  0
 49118  1  0  0  0
 50 51  1  0  0  0
 50119  1  0  0  0
 50120  1  0  0  0
 51 52  1  0  0  0
 51121  1  0  0  0
 51122  1  0  0  0
 52123  1  0  0  0
 52124  1  0  0  0
 53 54  1  0  0  0
 54 55  2  0  0  0
 54125  1  0  0  0
 55 57  1  0  0  0
 55126  1  0  0  0
 56 69  2  0  0  0
 57 58  2  0  0  0
 57127  1  0  0  0
 58128  1  0  0  0
 59 60  1  0  0  0
 59 61  1  0  0  0
 59 62  1  0  0  0
 60129  1  0  0  0
 60130  1  0  0  0
 60131  1  0  0  0
 61132  1  0  0  0
 61133  1  0  0  0
 61134  1  0  0  0
 62135  1  0  0  0
 62136  1  0  0  0
 62137  1  0  0  0
 63 65  1  0  0  0
 63138  1  0  0  0
 63139  1  0  0  0
 63140  1  0  0  0
 64141  1  0  0  0
 65142  1  0  0  0
 68 78  1  0  0  0
 71 72  2  0  0  0
 71 79  1  0  0  0
 71143  1  0  0  0
 72 80  1  0  0  0
 72 75  1  0  0  0
 73 79  2  0  0  0
 73 81  1  0  0  0
 73 83  1  0  0  0
 74 75  1  0  0  0
 74 82  1  0  0  0
 74144  1  0  0  0
 74145  1  0  0  0
 75 82  1  0  0  0
 75146  1  0  0  0
 76 77  1  0  0  0
 76 78  1  0  0  0
 76147  1  0  0  0
 76148  1  0  0  0
 77 83  1  0  0  0
 77149  1  0  0  0
 77150  1  0  0  0
 78151  1  0  0  0
 78152  1  0  0  0
 80 81  2  0  0  0
 83153  1  0  0  0
M  ISO  4   1 100  68 101  78 101  82 100
M  END
> <chiral flag>
0

> <version>
0

> <s_m_source_file>
/data/baiqing/PycharmProjects/Reinvent-master-3.2/result/LINK_invent/BTK/process_docking_weight1_custom_sum_contain_oxygen_bond_distance_aromatic_linkinvent_7_9_3/rearranged_h_0191.sdf

> <i_m_source_file_index>
34

> <r_mmod_Potential_Energy-OPLS-2005>
371.8564453125

> <r_mmod_Stretch_Energy-OPLS-2005>
55.0975646972656

> <r_mmod_Bend_Energy-OPLS-2005>
390.547760009766

> <r_mmod_Torsional_Energy-OPLS-2005>
368.204193115234

> <r_mmod_Improper_Torsional_Energy-OPLS-2005>
17.6373596191406

> <r_mmod_Van_der_Waal_Energy-OPLS-2005>
202.387268066406

> <r_mmod_Electrostatic_Energy-OPLS-2005>
-440.066253662109

> <r_mmod_Solvation_Energy-OPLS-2005>
-270.225555419922

> <b_mmod_Minimization_Converged-OPLS-2005>
0

> <r_mmod_RMS_Derivative-OPLS-2005>
8.74775218963623

$$$$
34
                    3D
 Structure written by MMmdl.
166175  0  0  1  0            999 V2000
  -30.6651  -14.5118   20.4105 C   0  0  0  0  0  0
  -30.4318  -12.2877   19.4141 C   0  0  0  0  0  0
  -29.4895  -12.4129   18.1959 C   0  0  0  0  0  0
  -28.0113  -12.2931   18.6249 C   0  0  0  0  0  0
  -27.6533  -13.1747   19.8504 C   0  0  2  0  0  0
  -28.7129  -13.0225   20.9703 C   0  0  0  0  0  0
  -25.2651  -13.8134   20.5675 C   0  0  0  0  0  0
  -24.1801  -13.0464   20.9071 C   0  0  0  0  0  0
  -24.6300  -11.6901   20.8649 C   0  0  0  0  0  0
  -23.8963  -10.4307   21.0332 C   0  0  0  0  0  0
  -24.3542   -9.4249   21.9137 C   0  0  0  0  0  0
  -23.6258   -8.2270   22.0744 C   0  0  0  0  0  0
  -22.4255   -8.0248   21.3544 C   0  0  0  0  0  0
  -21.9836   -9.0192   20.4656 C   0  0  0  0  0  0
  -22.7113  -10.2100   20.3024 C   0  0  0  0  0  0
  -21.6868   -6.0697   22.5270 C   0  0  0  0  0  0
  -21.4018   -6.5627   23.8191 C   0  0  0  0  0  0
  -21.3650   -5.6787   24.9161 C   0  0  0  0  0  0
  -21.6037   -4.3045   24.7220 C   0  0  0  0  0  0
  -21.8835   -3.8123   23.4358 C   0  0  0  0  0  0
  -21.9209   -4.6930   22.3401 C   0  0  0  0  0  0
  -22.7855  -13.5311   21.1785 C   0  0  0  0  0  0
  -22.1688   -4.2120   21.0980 F   0  0  0  0  0  0
  -21.5621   -3.4534   25.7745 F   0  0  0  0  0  0
  -30.0250  -13.3152   20.3841 N   0  0  0  0  0  0
  -26.3018  -12.9181   20.3338 N   0  0  0  0  0  0
  -25.9247  -11.6415   20.5752 N   0  0  0  0  0  0
  -22.0493  -12.8313   22.0329 N   0  0  0  0  0  0
  -25.4677  -15.1882   20.4305 N   0  0  0  0  0  0
  -31.8774  -14.6023   20.2057 O   0  0  0  0  0  0
  -21.6647   -6.8826   21.4230 O   0  0  0  0  0  0
  -22.3664  -14.5704   20.6717 O   0  0  0  0  0  0
  -24.6177  -31.8698   23.2085 C   0  0  0  0  0  0
  -25.9089  -32.4814   23.8387 C   0  0  1  0  0  0
  -27.2360  -27.4455   20.0541 C   0  0  0  0  0  0
  -25.5950  -33.8612   24.2320 N   0  0  0  0  0  0
  -23.4024  -30.4966   21.5510 C   0  0  2  0  0  0
  -24.8447  -28.9622   20.1165 C   0  0  0  0  0  0
  -22.7414  -29.4713   22.5005 C   0  0  0  0  0  0
  -18.0292  -28.1423   22.8467 C   0  0  0  0  0  0
  -24.1484  -36.7322   23.2625 C   0  0  0  0  0  0
  -25.9345  -30.8281   21.3647 C   0  0  0  0  0  0
  -26.0066  -29.4624   20.7149 C   0  0  0  0  0  0
  -27.2007  -28.7056   20.6950 C   0  0  0  0  0  0
  -26.0517  -26.9591   19.4538 C   0  0  0  0  0  0
  -24.8607  -27.7033   19.4947 C   0  0  0  0  0  0
  -23.6074  -29.8293   20.1660 C   0  0  0  0  0  0
  -25.4107  -36.3110   24.0328 C   0  0  1  0  0  0
  -20.5870  -28.3702   23.1299 C   0  0  2  0  0  0
  -20.6793  -26.9447   22.5393 C   0  0  0  0  0  0
  -19.5782  -26.6425   21.5188 C   0  0  0  0  0  0
  -18.1956  -26.7969   22.1598 C   0  0  0  0  0  0
  -19.1526  -28.8888   23.2868 C   0  0  0  0  0  0
  -18.9462  -30.1486   23.8884 C   0  0  0  0  0  0
  -17.6464  -30.6613   24.0580 C   0  0  0  0  0  0
  -25.9059  -34.9474   23.5109 C   0  0  0  0  0  0
  -16.5362  -29.9121   23.6334 C   0  0  0  0  0  0
  -16.7271  -28.6556   23.0320 C   0  0  0  0  0  0
  -26.4483  -31.6599   25.0735 C   0  0  0  0  0  0
  -25.3746  -31.3689   26.1483 C   0  0  0  0  0  0
  -27.0301  -30.3043   24.6111 C   0  0  0  0  0  0
  -27.6067  -32.4300   25.7483 C   0  0  0  0  0  0
  -27.5581  -37.1816   24.8466 C   0  0  0  0  0  0
  -21.4163  -29.3061   22.3707 N   0  0  0  0  0  0
  -26.4292  -37.3797   23.9416 N   0  0  0  0  0  0
  -24.6696  -31.0828   22.0973 N   0  0  0  0  0  0
  -23.4188  -28.8280   23.3053 O   0  0  0  0  0  0
  -28.4078  -26.7150   20.0500 O   0  0  0  0  0  0
  -26.5606  -34.8945   22.4656 O   0  0  0  0  0  0
  -23.5383  -32.1455   23.7494 O   0  0  0  0  0  0
  -29.6294  -21.3387   19.8781 C   0  0  0  0  0  0
  -27.0465  -20.7840   19.2945 C   0  0  0  0  0  0
  -27.9049  -19.7768   19.8450 C   0  0  0  0  0  0
  -28.7790  -22.3342   19.3297 C   0  0  0  0  0  0
  -30.1835  -16.2657   18.7156 C   0  0  0  0  0  0
  -29.0231  -17.2677   18.5069 C   0  0  0  0  0  0
  -28.9758  -16.3833   20.6970 C   0  0  0  0  0  0
  -25.5731  -20.6219   18.9557 C   0  0  0  0  0  0
  -28.0995  -24.4732   17.0296 C   0  0  0  0  0  0
  -27.4228  -18.3596   20.2228 C   0  0  0  0  0  0
  -28.8113  -26.1231   18.8092 C   0  0  0  0  0  0
  -28.3150  -24.6706   18.5453 C   0  0  2  0  0  0
  -29.2010  -20.0709   20.1384 N   0  0  0  0  0  0
  -27.4934  -22.0354   19.0391 N   0  0  0  0  0  0
  -29.8845  -15.5215   19.9466 N   0  0  0  0  0  0
  -29.2205  -23.6480   19.0846 N   0  0  0  0  0  0
  -28.1874  -17.1719   19.7248 N   0  3  1  0  0  0
  -31.4694  -12.4016   19.0890 H   0  0  0  0  0  0
  -30.3671  -11.2944   19.8568 H   0  0  0  0  0  0
  -29.7232  -11.6296   17.4710 H   0  0  0  0  0  0
  -29.6492  -13.3615   17.6867 H   0  0  0  0  0  0
  -27.8336  -11.2437   18.8652 H   0  0  0  0  0  0
  -27.3551  -12.5227   17.7859 H   0  0  0  0  0  0
  -27.6623  -14.1984   19.4862 H   0  0  0  0  0  0
  -28.7082  -12.0048   21.3631 H   0  0  0  0  0  0
  -28.5043  -13.6663   21.8229 H   0  0  0  0  0  0
  -25.2699   -9.5747   22.4678 H   0  0  0  0  0  0
  -23.9977   -7.4680   22.7481 H   0  0  0  0  0  0
  -21.0745   -8.8642   19.9000 H   0  0  0  0  0  0
  -22.3509  -10.9572   19.6094 H   0  0  0  0  0  0
  -21.2005   -7.6131   23.9691 H   0  0  0  0  0  0
  -21.1476   -6.0509   25.9057 H   0  0  0  0  0  0
  -22.0640   -2.7589   23.2850 H   0  0  0  0  0  0
  -22.4012  -11.9841   22.4575 H   0  0  0  0  0  0
  -21.1165  -13.1415   22.2654 H   0  0  0  0  0  0
  -24.5625  -15.6462   20.4075 H   0  0  0  0  0  0
  -25.9069  -15.4979   21.2882 H   0  0  0  0  0  0
  -26.7184  -32.5519   23.1154 H   0  0  0  0  0  0
  -25.0136  -33.9750   25.0493 H   0  0  0  0  0  0
  -22.6921  -31.3161   21.4112 H   0  0  0  0  0  0
  -23.3738  -35.9663   23.3311 H   0  0  0  0  0  0
  -24.3585  -36.8916   22.2045 H   0  0  0  0  0  0
  -23.7279  -37.6543   23.6628 H   0  0  0  0  0  0
  -26.0582  -31.5924   20.5943 H   0  0  0  0  0  0
  -26.8182  -30.8741   21.9876 H   0  0  0  0  0  0
  -28.1015  -29.0921   21.1494 H   0  0  0  0  0  0
  -26.0134  -26.0115   18.9441 H   0  0  0  0  0  0
  -23.9709  -27.3071   19.0277 H   0  0  0  0  0  0
  -23.7193  -30.5988   19.4045 H   0  0  0  0  0  0
  -22.7268  -29.2554   19.8703 H   0  0  0  0  0  0
  -25.1277  -36.1938   25.0827 H   0  0  0  0  0  0
  -20.9944  -28.3281   24.1422 H   0  0  0  0  0  0
  -20.5713  -26.2319   23.3580 H   0  0  0  0  0  0
  -21.6675  -26.7529   22.1173 H   0  0  0  0  0  0
  -19.6953  -25.6319   21.1250 H   0  0  0  0  0  0
  -19.6739  -27.3202   20.6701 H   0  0  0  0  0  0
  -17.4213  -26.6668   21.4012 H   0  0  0  0  0  0
  -18.0385  -26.0112   22.9012 H   0  0  0  0  0  0
  -19.7930  -30.7301   24.2243 H   0  0  0  0  0  0
  -17.5031  -31.6282   24.5196 H   0  0  0  0  0  0
  -15.5355  -30.3034   23.7707 H   0  0  0  0  0  0
  -15.8666  -28.0919   22.7018 H   0  0  0  0  0  0
  -24.5922  -30.7020   25.7826 H   0  0  0  0  0  0
  -24.8931  -32.2837   26.4965 H   0  0  0  0  0  0
  -25.8127  -30.8849   27.0232 H   0  0  0  0  0  0
  -26.2840  -29.6808   24.1179 H   0  0  0  0  0  0
  -27.4082  -29.7273   25.4570 H   0  0  0  0  0  0
  -27.8673  -30.4353   23.9248 H   0  0  0  0  0  0
  -27.2696  -33.3580   26.2105 H   0  0  0  0  0  0
  -28.3841  -32.6908   25.0283 H   0  0  0  0  0  0
  -28.0773  -31.8409   26.5352 H   0  0  0  0  0  0
  -28.2593  -38.0118   24.7518 H   0  0  0  0  0  0
  -28.1082  -36.2665   24.6252 H   0  0  0  0  0  0
  -27.2317  -37.1413   25.8869 H   0  0  0  0  0  0
  -20.9360  -29.8732   21.6859 H   0  0  0  0  0  0
  -26.0173  -38.2864   24.1418 H   0  0  0  0  0  0
  -30.6565  -21.5642   20.1162 H   0  0  0  0  0  0
  -31.1296  -16.7995   18.8344 H   0  0  0  0  0  0
  -30.2935  -15.6029   17.8542 H   0  0  0  0  0  0
  -28.4166  -16.9871   17.6434 H   0  0  0  0  0  0
  -29.4275  -18.2570   18.3044 H   0  0  0  0  0  0
  -29.5825  -17.0480   21.3164 H   0  0  0  0  0  0
  -28.3206  -15.8240   21.3613 H   0  0  0  0  0  0
  -25.4564  -20.5837   17.8708 H   0  0  0  0  0  0
  -25.0102  -21.4874   19.3193 H   0  0  0  0  0  0
  -25.0976  -19.7494   19.3950 H   0  0  0  0  0  0
  -27.2906  -25.1102   16.6682 H   0  0  0  0  0  0
  -27.8282  -23.4494   16.7637 H   0  0  0  0  0  0
  -28.9943  -24.7260   16.4581 H   0  0  0  0  0  0
  -26.4169  -18.2049   19.8463 H   0  0  0  0  0  0
  -27.3223  -18.3042   21.3091 H   0  0  0  0  0  0
  -29.8991  -26.1493   18.7613 H   0  0  0  0  0  0
  -28.4840  -26.7835   18.0007 H   0  0  0  0  0  0
  -27.3584  -24.5301   19.0413 H   0  0  0  0  0  0
  -30.1468  -23.9269   19.3959 H   0  0  0  0  0  0
  -27.4491  -16.5354   19.4532 H   0  0  0  0  0  0
  1 25  1  0  0  0
  1 30  2  0  0  0
  1 85  1  0  0  0
  2  3  1  0  0  0
  2 25  1  0  0  0
  2 88  1  0  0  0
  2 89  1  0  0  0
  3  4  1  0  0  0
  3 90  1  0  0  0
  3 91  1  0  0  0
  4  5  1  0  0  0
  4 92  1  0  0  0
  4 93  1  0  0  0
  5  6  1  0  0  0
  5 26  1  0  0  0
  5 94  1  0  0  0
  6 25  1  0  0  0
  6 95  1  0  0  0
  6 96  1  0  0  0
  7  8  2  0  0  0
  7 26  1  0  0  0
  7 29  1  0  0  0
  8  9  1  0  0  0
  8 22  1  0  0  0
  9 10  1  0  0  0
  9 27  2  0  0  0
 10 11  2  0  0  0
 10 15  1  0  0  0
 11 12  1  0  0  0
 11 97  1  0  0  0
 12 13  2  0  0  0
 12 98  1  0  0  0
 13 14  1  0  0  0
 13 31  1  0  0  0
 14 15  2  0  0  0
 14 99  1  0  0  0
 15100  1  0  0  0
 16 17  2  0  0  0
 16 21  1  0  0  0
 16 31  1  0  0  0
 17 18  1  0  0  0
 17101  1  0  0  0
 18 19  2  0  0  0
 18102  1  0  0  0
 19 20  1  0  0  0
 19 24  1  0  0  0
 20 21  2  0  0  0
 20103  1  0  0  0
 21 23  1  0  0  0
 22 28  1  0  0  0
 22 32  2  0  0  0
 26 27  1  0  0  0
 28104  1  0  0  0
 28105  1  0  0  0
 29106  1  0  0  0
 29107  1  0  0  0
 33 34  1  0  0  0
 33 66  1  0  0  0
 33 70  2  0  0  0
 34 36  1  0  0  0
 34 59  1  0  0  0
 34108  1  0  0  0
 35 44  2  0  0  0
 35 45  1  0  0  0
 35 68  1  0  0  0
 36 56  1  0  0  0
 36109  1  0  0  0
 37 39  1  0  0  0
 37 47  1  0  0  0
 37 66  1  0  0  0
 37110  1  0  0  0
 38 43  2  0  0  0
 38 46  1  0  0  0
 38 47  1  0  0  0
 39 64  1  0  0  0
 39 67  2  0  0  0
 40 52  1  0  0  0
 40 53  2  0  0  0
 40 58  1  0  0  0
 41111  1  0  0  0
 41112  1  0  0  0
 41113  1  0  0  0
 41 48  1  0  0  0
 42 43  1  0  0  0
 42 66  1  0  0  0
 42114  1  0  0  0
 42115  1  0  0  0
 43 44  1  0  0  0
 44116  1  0  0  0
 45 46  2  0  0  0
 45117  1  0  0  0
 46118  1  0  0  0
 47119  1  0  0  0
 47120  1  0  0  0
 48 56  1  0  0  0
 48 65  1  0  0  0
 48121  1  0  0  0
 49 50  1  0  0  0
 49 53  1  0  0  0
 49 64  1  0  0  0
 49122  1  0  0  0
 50 51  1  0  0  0
 50123  1  0  0  0
 50124  1  0  0  0
 51 52  1  0  0  0
 51125  1  0  0  0
 51126  1  0  0  0
 52127  1  0  0  0
 52128  1  0  0  0
 53 54  1  0  0  0
 54 55  2  0  0  0
 54129  1  0  0  0
 55 57  1  0  0  0
 55130  1  0  0  0
 56 69  2  0  0  0
 57 58  2  0  0  0
 57131  1  0  0  0
 58132  1  0  0  0
 59 60  1  0  0  0
 59 61  1  0  0  0
 59 62  1  0  0  0
 60133  1  0  0  0
 60134  1  0  0  0
 60135  1  0  0  0
 61136  1  0  0  0
 61137  1  0  0  0
 61138  1  0  0  0
 62139  1  0  0  0
 62140  1  0  0  0
 62141  1  0  0  0
 63 65  1  0  0  0
 63142  1  0  0  0
 63143  1  0  0  0
 63144  1  0  0  0
 64145  1  0  0  0
 65146  1  0  0  0
 68 81  1  0  0  0
 71 74  2  0  0  0
 71 83  1  0  0  0
 71147  1  0  0  0
 72 73  1  0  0  0
 72 78  1  0  0  0
 72 84  2  0  0  0
 73 80  1  0  0  0
 73 83  2  0  0  0
 74 84  1  0  0  0
 74 86  1  0  0  0
 75 76  1  0  0  0
 75 85  1  0  0  0
 75148  1  0  0  0
 75149  1  0  0  0
 76 87  1  0  0  0
 76150  1  0  0  0
 76151  1  0  0  0
 77 85  1  0  0  0
 77 87  1  0  0  0
 77152  1  0  0  0
 77153  1  0  0  0
 78154  1  0  0  0
 78155  1  0  0  0
 78156  1  0  0  0
 79157  1  0  0  0
 79158  1  0  0  0
 79159  1  0  0  0
 79 82  1  0  0  0
 80160  1  0  0  0
 80161  1  0  0  0
 80 87  1  0  0  0
 81 82  1  0  0  0
 81162  1  0  0  0
 81163  1  0  0  0
 82 86  1  0  0  0
 82164  1  0  0  0
 86165  1  0  0  0
 87166  1  0  0  0
M  CHG  1  87   1
M  ISO  4   1 100  68 101  81 101  85 100
M  END
> <chiral flag>
0

> <version>
0

> <s_m_source_file>
/data/baiqing/PycharmProjects/Reinvent-master-3.2/result/LINK_invent/BTK/process_docking_weight1_custom_sum_contain_oxygen_bond_distance_aromatic_linkinvent_7_9_3/rearranged_h_0191.sdf

> <i_m_source_file_index>
35

> <r_mmod_Potential_Energy-OPLS-2005>
30.4125690460205

> <r_mmod_Stretch_Energy-OPLS-2005>
43.3752861022949

> <r_mmod_Bend_Energy-OPLS-2005>
166.001022338867

> <r_mmod_Torsional_Energy-OPLS-2005>
383.780853271484

> <r_mmod_Improper_Torsional_Energy-OPLS-2005>
35.9039840698242

> <r_mmod_Van_der_Waal_Energy-OPLS-2005>
151.843627929688

> <r_mmod_Electrostatic_Energy-OPLS-2005>
-314.076049804688

> <r_mmod_Solvation_Energy-OPLS-2005>
-463.933624267578

> <b_mmod_Minimization_Converged-OPLS-2005>
0

> <r_mmod_RMS_Derivative-OPLS-2005>
4.8127760887146

$$$$
35
                    3D
 Structure written by MMmdl.
174183  0  0  1  0            999 V2000
  -30.7771  -14.3513   20.6511 C   0  0  0  0  0  0
  -30.4088  -12.2643   19.4049 C   0  0  0  0  0  0
  -29.4850  -12.5105   18.1980 C   0  0  0  0  0  0
  -28.0085  -12.3732   18.6134 C   0  0  0  0  0  0
  -27.6657  -13.1991   19.8815 C   0  0  2  0  0  0
  -28.7043  -12.9539   21.0005 C   0  0  0  0  0  0
  -25.2597  -13.8136   20.5658 C   0  0  0  0  0  0
  -24.1853  -13.0425   20.9199 C   0  0  0  0  0  0
  -24.6395  -11.6896   20.8760 C   0  0  0  0  0  0
  -23.9057  -10.4290   21.0424 C   0  0  0  0  0  0
  -24.3608   -9.4207   21.9201 C   0  0  0  0  0  0
  -23.6283   -8.2243   22.0767 C   0  0  0  0  0  0
  -22.4270   -8.0281   21.3549 C   0  0  0  0  0  0
  -21.9903   -9.0262   20.4659 C   0  0  0  0  0  0
  -22.7232  -10.2139   20.3074 C   0  0  0  0  0  0
  -21.6853   -6.0725   22.5280 C   0  0  0  0  0  0
  -21.4016   -6.5635   23.8213 C   0  0  0  0  0  0
  -21.3664   -5.6792   24.9177 C   0  0  0  0  0  0
  -21.6042   -4.3052   24.7228 C   0  0  0  0  0  0
  -21.8817   -3.8140   23.4352 C   0  0  0  0  0  0
  -21.9194   -4.6953   22.3406 C   0  0  0  0  0  0
  -22.7879  -13.5249   21.1841 C   0  0  0  0  0  0
  -22.1661   -4.2138   21.0982 F   0  0  0  0  0  0
  -21.5631   -3.4539   25.7743 F   0  0  0  0  0  0
  -30.0463  -13.2256   20.4540 N   0  0  0  0  0  0
  -26.3039  -12.9298   20.3387 N   0  0  0  0  0  0
  -25.9317  -11.6466   20.5787 N   0  0  0  0  0  0
  -22.0497  -12.8254   22.0391 N   0  0  0  0  0  0
  -25.4274  -15.1835   20.3939 N   0  0  0  0  0  0
  -31.8498  -14.5735   20.0808 O   0  0  0  0  0  0
  -21.6642   -6.8872   21.4242 O   0  0  0  0  0  0
  -22.3595  -14.5566   20.6695 O   0  0  0  0  0  0
  -24.6116  -31.8712   23.2148 C   0  0  0  0  0  0
  -25.9023  -32.4852   23.8428 C   0  0  1  0  0  0
  -27.2290  -27.4714   20.0750 C   0  0  0  0  0  0
  -25.5891  -33.8646   24.2359 N   0  0  0  0  0  0
  -23.3972  -30.4982   21.5534 C   0  0  2  0  0  0
  -24.8389  -28.9713   20.1137 C   0  0  0  0  0  0
  -22.7414  -29.4680   22.4995 C   0  0  0  0  0  0
  -18.0295  -28.1349   22.8493 C   0  0  0  0  0  0
  -24.1491  -36.7324   23.2636 C   0  0  0  0  0  0
  -25.9218  -30.8500   21.3597 C   0  0  0  0  0  0
  -25.9985  -29.4868   20.7047 C   0  0  0  0  0  0
  -27.1956  -28.7425   20.6840 C   0  0  0  0  0  0
  -26.0525  -26.9702   19.4681 C   0  0  0  0  0  0
  -24.8593  -27.7109   19.4941 C   0  0  0  0  0  0
  -23.6005  -29.8328   20.1668 C   0  0  0  0  0  0
  -25.4107  -36.3126   24.0342 C   0  0  1  0  0  0
  -20.5872  -28.3682   23.1296 C   0  0  2  0  0  0
  -20.6811  -26.9415   22.5389 C   0  0  0  0  0  0
  -19.5751  -26.6303   21.5258 C   0  0  0  0  0  0
  -18.1948  -26.7859   22.1692 C   0  0  0  0  0  0
  -19.1531  -28.8835   23.2873 C   0  0  0  0  0  0
  -18.9445  -30.1462   23.8836 C   0  0  0  0  0  0
  -17.6439  -30.6573   24.0521 C   0  0  0  0  0  0
  -25.9023  -34.9492   23.5142 C   0  0  0  0  0  0
  -16.5337  -29.9039   23.6334 C   0  0  0  0  0  0
  -16.7276  -28.6451   23.0374 C   0  0  0  0  0  0
  -26.4468  -31.6619   25.0738 C   0  0  0  0  0  0
  -25.3746  -31.3707   26.1496 C   0  0  0  0  0  0
  -27.0293  -30.3070   24.6089 C   0  0  0  0  0  0
  -27.6073  -32.4311   25.7489 C   0  0  0  0  0  0
  -27.5583  -37.1813   24.8467 C   0  0  0  0  0  0
  -21.4142  -29.3081   22.3738 N   0  0  0  0  0  0
  -26.4302  -37.3801   23.9405 N   0  0  0  0  0  0
  -24.6618  -31.0872   22.1016 N   0  0  0  0  0  0
  -23.4214  -28.8150   23.2962 O   0  0  0  0  0  0
  -28.4044  -26.7554   20.1447 O   0  0  0  0  0  0
  -26.5587  -34.8924   22.4698 O   0  0  0  0  0  0
  -23.5315  -32.1412   23.7584 O   0  0  0  0  0  0
  -27.3787  -20.2787   19.1218 C   0  0  0  0  0  0
  -28.0423  -20.2707   21.5698 C   0  0  0  0  0  0
  -31.0701  -17.0411   22.1278 C   0  0  0  0  0  0
  -26.4793  -21.4756   19.4470 C   0  0  0  0  0  0
  -27.1271  -21.4892   21.7389 C   0  0  0  0  0  0
  -30.7301  -15.6850   22.7210 C   0  0  0  0  0  0
  -27.6407  -19.3989   20.3597 C   0  0  0  0  0  0
  -30.1763  -16.6905   20.9427 C   0  0  2  0  0  0
  -26.7760  -24.7842   23.5079 C   0  0  0  0  0  0
  -28.7424  -17.2085   20.8646 C   0  0  0  0  0  0
  -26.5770  -23.5824   20.6327 C   0  0  0  0  0  0
  -28.3612  -25.3318   19.9952 C   0  0  0  0  0  0
  -27.6667  -24.5560   21.1605 C   0  0  1  0  0  0
  -30.1912  -15.2950   21.4105 N   0  0  0  0  0  0
  -27.1543  -22.2506   20.4877 N   0  0  0  0  0  0
  -28.7097  -18.4328   20.0478 N   0  3  0  0  0  0
  -27.1615  -25.4438   22.2426 N   0  3  0  0  0  0
  -31.4553  -12.3396   19.1042 H   0  0  0  0  0  0
  -30.2831  -11.2476   19.7800 H   0  0  0  0  0  0
  -29.7146  -11.8063   17.3974 H   0  0  0  0  0  0
  -29.6627  -13.5068   17.7903 H   0  0  0  0  0  0
  -27.8112  -11.3157   18.7944 H   0  0  0  0  0  0
  -27.3579  -12.6655   17.7890 H   0  0  0  0  0  0
  -27.7202  -14.2503   19.6014 H   0  0  0  0  0  0
  -28.6609  -11.9187   21.3415 H   0  0  0  0  0  0
  -28.4682  -13.5566   21.8792 H   0  0  0  0  0  0
  -25.2753   -9.5678   22.4776 H   0  0  0  0  0  0
  -23.9986   -7.4640   22.7495 H   0  0  0  0  0  0
  -21.0830   -8.8785   19.8975 H   0  0  0  0  0  0
  -22.3693  -10.9680   19.6189 H   0  0  0  0  0  0
  -21.2009   -7.6145   23.9705 H   0  0  0  0  0  0
  -21.1491   -6.0529   25.9075 H   0  0  0  0  0  0
  -22.0590   -2.7602   23.2860 H   0  0  0  0  0  0
  -22.4076  -11.9900   22.4776 H   0  0  0  0  0  0
  -21.1133  -13.1334   22.2602 H   0  0  0  0  0  0
  -24.6303  -15.8094   20.4360 H   0  0  0  0  0  0
  -26.2189  -15.5791   19.9080 H   0  0  0  0  0  0
  -26.7100  -32.5590   23.1208 H   0  0  0  0  0  0
  -25.0083  -33.9834   25.0534 H   0  0  0  0  0  0
  -22.6845  -31.3148   21.4200 H   0  0  0  0  0  0
  -23.3756  -35.9656   23.3319 H   0  0  0  0  0  0
  -24.3584  -36.8905   22.2042 H   0  0  0  0  0  0
  -23.7241  -37.6533   23.6635 H   0  0  0  0  0  0
  -26.0301  -31.6186   20.5923 H   0  0  0  0  0  0
  -26.8131  -30.9038   21.9729 H   0  0  0  0  0  0
  -28.0917  -29.1302   21.1500 H   0  0  0  0  0  0
  -26.0276  -26.0203   18.9594 H   0  0  0  0  0  0
  -23.9668  -27.3145   19.0296 H   0  0  0  0  0  0
  -23.7039  -30.6057   19.4041 H   0  0  0  0  0  0
  -22.7243  -29.2514   19.8758 H   0  0  0  0  0  0
  -25.1279  -36.1994   25.0838 H   0  0  0  0  0  0
  -20.9961  -28.3248   24.1423 H   0  0  0  0  0  0
  -20.5814  -26.2334   23.3630 H   0  0  0  0  0  0
  -21.6660  -26.7485   22.1125 H   0  0  0  0  0  0
  -19.6925  -25.6179   21.1372 H   0  0  0  0  0  0
  -19.6644  -27.3012   20.6700 H   0  0  0  0  0  0
  -17.4178  -26.6515   21.4153 H   0  0  0  0  0  0
  -18.0404  -26.0050   22.9160 H   0  0  0  0  0  0
  -19.7931  -30.7312   24.2143 H   0  0  0  0  0  0
  -17.4981  -31.6263   24.5087 H   0  0  0  0  0  0
  -15.5325  -30.2896   23.7693 H   0  0  0  0  0  0
  -15.8686  -28.0731   22.7143 H   0  0  0  0  0  0
  -24.5921  -30.7063   25.7828 H   0  0  0  0  0  0
  -24.8954  -32.2861   26.4982 H   0  0  0  0  0  0
  -25.8095  -30.8843   27.0240 H   0  0  0  0  0  0
  -26.2821  -29.6837   24.1171 H   0  0  0  0  0  0
  -27.4103  -29.7304   25.4532 H   0  0  0  0  0  0
  -27.8649  -30.4418   23.9216 H   0  0  0  0  0  0
  -27.2731  -33.3594   26.2145 H   0  0  0  0  0  0
  -28.3852  -32.6883   25.0287 H   0  0  0  0  0  0
  -28.0801  -31.8388   26.5339 H   0  0  0  0  0  0
  -28.2606  -38.0103   24.7504 H   0  0  0  0  0  0
  -28.1065  -36.2629   24.6304 H   0  0  0  0  0  0
  -27.2310  -37.1482   25.8874 H   0  0  0  0  0  0
  -20.9306  -29.8853   21.7000 H   0  0  0  0  0  0
  -26.0196  -38.2884   24.1399 H   0  0  0  0  0  0
  -28.3201  -20.6548   18.7157 H   0  0  0  0  0  0
  -26.9198  -19.6848   18.3311 H   0  0  0  0  0  0
  -28.0271  -19.6799   22.4870 H   0  0  0  0  0  0
  -29.0674  -20.6276   21.4546 H   0  0  0  0  0  0
  -32.1238  -17.1288   21.8556 H   0  0  0  0  0  0
  -30.7344  -17.8922   22.7212 H   0  0  0  0  0  0
  -25.4849  -21.1543   19.7631 H   0  0  0  0  0  0
  -26.3491  -22.0725   18.5423 H   0  0  0  0  0  0
  -27.4929  -22.0898   22.5727 H   0  0  0  0  0  0
  -26.1092  -21.1838   21.9951 H   0  0  0  0  0  0
  -29.9725  -15.7285   23.5045 H   0  0  0  0  0  0
  -31.6060  -15.1241   23.0553 H   0  0  0  0  0  0
  -26.7191  -18.8603   20.5890 H   0  0  0  0  0  0
  -30.7159  -16.8323   20.0019 H   0  0  0  0  0  0
  -26.4740  -25.5344   24.2386 H   0  0  0  0  0  0
  -27.6086  -24.2220   23.9316 H   0  0  0  0  0  0
  -25.9349  -24.1044   23.3758 H   0  0  0  0  0  0
  -28.3543  -17.3940   21.8671 H   0  0  0  0  0  0
  -28.0762  -16.4766   20.4091 H   0  0  0  0  0  0
  -26.1999  -23.9342   19.6713 H   0  0  0  0  0  0
  -25.7003  -23.5292   21.2777 H   0  0  0  0  0  0
  -27.9654  -25.0595   19.0172 H   0  0  0  0  0  0
  -29.3981  -24.9981   19.9508 H   0  0  0  0  0  0
  -28.4608  -23.9784   21.6378 H   0  0  0  0  0  0
  -29.5959  -18.9042   20.1330 H   0  0  0  0  0  0
  -28.6134  -18.1508   19.0849 H   0  0  0  0  0  0
  -27.8945  -26.1032   22.4609 H   0  0  0  0  0  0
  -26.3804  -25.9845   21.9025 H   0  0  0  0  0  0
  1 25  1  0  0  0
  1 30  2  0  0  0
  1 84  1  0  0  0
  2  3  1  0  0  0
  2 25  1  0  0  0
  2 88  1  0  0  0
  2 89  1  0  0  0
  3  4  1  0  0  0
  3 90  1  0  0  0
  3 91  1  0  0  0
  4  5  1  0  0  0
  4 92  1  0  0  0
  4 93  1  0  0  0
  5  6  1  0  0  0
  5 26  1  0  0  0
  5 94  1  0  0  0
  6 25  1  0  0  0
  6 95  1  0  0  0
  6 96  1  0  0  0
  7  8  2  0  0  0
  7 26  1  0  0  0
  7 29  1  0  0  0
  8  9  1  0  0  0
  8 22  1  0  0  0
  9 10  1  0  0  0
  9 27  2  0  0  0
 10 11  2  0  0  0
 10 15  1  0  0  0
 11 12  1  0  0  0
 11 97  1  0  0  0
 12 13  2  0  0  0
 12 98  1  0  0  0
 13 14  1  0  0  0
 13 31  1  0  0  0
 14 15  2  0  0  0
 14 99  1  0  0  0
 15100  1  0  0  0
 16 17  2  0  0  0
 16 21  1  0  0  0
 16 31  1  0  0  0
 17 18  1  0  0  0
 17101  1  0  0  0
 18 19  2  0  0  0
 18102  1  0  0  0
 19 20  1  0  0  0
 19 24  1  0  0  0
 20 21  2  0  0  0
 20103  1  0  0  0
 21 23  1  0  0  0
 22 28  1  0  0  0
 22 32  2  0  0  0
 26 27  1  0  0  0
 28104  1  0  0  0
 28105  1  0  0  0
 29106  1  0  0  0
 29107  1  0  0  0
 33 34  1  0  0  0
 33 66  1  0  0  0
 33 70  2  0  0  0
 34 36  1  0  0  0
 34 59  1  0  0  0
 34108  1  0  0  0
 35 44  2  0  0  0
 35 45  1  0  0  0
 35 68  1  0  0  0
 36 56  1  0  0  0
 36109  1  0  0  0
 37 39  1  0  0  0
 37 47  1  0  0  0
 37 66  1  0  0  0
 37110  1  0  0  0
 38 43  2  0  0  0
 38 46  1  0  0  0
 38 47  1  0  0  0
 39 64  1  0  0  0
 39 67  2  0  0  0
 40 52  1  0  0  0
 40 53  2  0  0  0
 40 58  1  0  0  0
 41111  1  0  0  0
 41112  1  0  0  0
 41113  1  0  0  0
 41 48  1  0  0  0
 42 43  1  0  0  0
 42 66  1  0  0  0
 42114  1  0  0  0
 42115  1  0  0  0
 43 44  1  0  0  0
 44116  1  0  0  0
 45 46  2  0  0  0
 45117  1  0  0  0
 46118  1  0  0  0
 47119  1  0  0  0
 47120  1  0  0  0
 48 56  1  0  0  0
 48 65  1  0  0  0
 48121  1  0  0  0
 49 50  1  0  0  0
 49 53  1  0  0  0
 49 64  1  0  0  0
 49122  1  0  0  0
 50 51  1  0  0  0
 50123  1  0  0  0
 50124  1  0  0  0
 51 52  1  0  0  0
 51125  1  0  0  0
 51126  1  0  0  0
 52127  1  0  0  0
 52128  1  0  0  0
 53 54  1  0  0  0
 54 55  2  0  0  0
 54129  1  0  0  0
 55 57  1  0  0  0
 55130  1  0  0  0
 56 69  2  0  0  0
 57 58  2  0  0  0
 57131  1  0  0  0
 58132  1  0  0  0
 59 60  1  0  0  0
 59 61  1  0  0  0
 59 62  1  0  0  0
 60133  1  0  0  0
 60134  1  0  0  0
 60135  1  0  0  0
 61136  1  0  0  0
 61137  1  0  0  0
 61138  1  0  0  0
 62139  1  0  0  0
 62140  1  0  0  0
 62141  1  0  0  0
 63 65  1  0  0  0
 63142  1  0  0  0
 63143  1  0  0  0
 63144  1  0  0  0
 64145  1  0  0  0
 65146  1  0  0  0
 68 82  1  0  0  0
 71 74  1  0  0  0
 71 77  1  0  0  0
 71147  1  0  0  0
 71148  1  0  0  0
 72 75  1  0  0  0
 72 77  1  0  0  0
 72149  1  0  0  0
 72150  1  0  0  0
 73 76  1  0  0  0
 73 78  1  0  0  0
 73151  1  0  0  0
 73152  1  0  0  0
 74 85  1  0  0  0
 74153  1  0  0  0
 74154  1  0  0  0
 75 85  1  0  0  0
 75155  1  0  0  0
 75156  1  0  0  0
 76 84  1  0  0  0
 76157  1  0  0  0
 76158  1  0  0  0
 77 86  1  0  0  0
 77159  1  0  0  0
 78 80  1  0  0  0
 78 84  1  0  0  0
 78160  1  0  0  0
 79 87  1  0  0  0
 79161  1  0  0  0
 79162  1  0  0  0
 79163  1  0  0  0
 80 86  1  0  0  0
 80164  1  0  0  0
 80165  1  0  0  0
 81 85  1  0  0  0
 81166  1  0  0  0
 81167  1  0  0  0
 81 83  1  0  0  0
 82 83  1  0  0  0
 82168  1  0  0  0
 82169  1  0  0  0
 83 87  1  0  0  0
 83170  1  0  0  0
 86171  1  0  0  0
 86172  1  0  0  0
 87173  1  0  0  0
 87174  1  0  0  0
M  CHG  2  86   1  87   1
M  ISO  4   1 100  68 101  82 101  84 100
M  END
> <chiral flag>
0

> <version>
0

> <s_m_source_file>
/data/baiqing/PycharmProjects/Reinvent-master-3.2/result/LINK_invent/BTK/process_docking_weight1_custom_sum_contain_oxygen_bond_distance_aromatic_linkinvent_7_9_3/rearranged_h_0191.sdf

> <i_m_source_file_index>
36

> <r_mmod_Potential_Energy-OPLS-2005>
-174.804992675781

> <r_mmod_Stretch_Energy-OPLS-2005>
34.5665817260742

> <r_mmod_Bend_Energy-OPLS-2005>
109.846153259277

> <r_mmod_Torsional_Energy-OPLS-2005>
355.785675048828

> <r_mmod_Improper_Torsional_Energy-OPLS-2005>
11.1492986679077

> <r_mmod_Van_der_Waal_Energy-OPLS-2005>
148.568862915039

> <r_mmod_Electrostatic_Energy-OPLS-2005>
-8.4273509979248

> <r_mmod_Solvation_Energy-OPLS-2005>
-836.276062011719

> <b_mmod_Minimization_Converged-OPLS-2005>
0

> <r_mmod_RMS_Derivative-OPLS-2005>
1.97474360466003

$$$$
36
                    3D
 Structure written by MMmdl.
169179  0  0  1  0            999 V2000
  -29.8581  -15.7799   20.9632 C   0  0  0  0  0  0
  -30.3193  -13.2992   19.7929 C   0  0  0  0  0  0
  -29.5702  -12.8112   18.4977 C   0  0  0  0  0  0
  -28.1449  -12.3495   18.8198 C   0  0  0  0  0  0
  -27.5435  -13.3040   19.8731 C   0  0  2  0  0  0
  -28.4204  -13.5499   21.1126 C   0  0  0  0  0  0
  -25.1912  -13.8258   20.5711 C   0  0  0  0  0  0
  -24.1369  -13.0392   20.9230 C   0  0  0  0  0  0
  -24.6115  -11.6905   20.8708 C   0  0  0  0  0  0
  -23.8906  -10.4263   21.0425 C   0  0  0  0  0  0
  -24.3544   -9.4199   21.9172 C   0  0  0  0  0  0
  -23.6235   -8.2236   22.0769 C   0  0  0  0  0  0
  -22.4237   -8.0229   21.3556 C   0  0  0  0  0  0
  -21.9825   -9.0182   20.4681 C   0  0  0  0  0  0
  -22.7116  -10.2062   20.3047 C   0  0  0  0  0  0
  -21.6849   -6.0702   22.5283 C   0  0  0  0  0  0
  -21.3989   -6.5616   23.8205 C   0  0  0  0  0  0
  -21.3657   -5.6788   24.9181 C   0  0  0  0  0  0
  -21.6057   -4.3051   24.7243 C   0  0  0  0  0  0
  -21.8818   -3.8124   23.4367 C   0  0  0  0  0  0
  -21.9172   -4.6930   22.3413 C   0  0  0  0  0  0
  -22.7445  -13.5161   21.1962 C   0  0  0  0  0  0
  -22.1660   -4.2112   21.0991 F   0  0  0  0  0  0
  -21.5637   -3.4535   25.7762 F   0  0  0  0  0  0
  -29.5293  -14.3624   20.6447 N   0  0  0  0  0  0
  -26.2213  -12.9519   20.3028 N   0  0  0  0  0  0
  -25.9001  -11.6616   20.5577 N   0  0  0  0  0  0
  -22.0157  -12.8150   22.0547 N   0  0  0  0  0  0
  -25.3607  -15.2011   20.4281 N   0  0  0  0  0  0
  -31.0837  -15.8067   20.6358 O   0  0  0  0  0  0
  -21.6625   -6.8823   21.4240 O   0  0  0  0  0  0
  -22.3159  -14.5476   20.6819 O   0  0  0  0  0  0
  -24.9427  -31.9109   23.2101 C   0  0  0  0  0  0
  -26.1433  -32.5438   23.8925 C   0  0  1  0  0  0
  -25.4545  -27.5006   20.3662 C   0  0  0  0  0  0
  -25.7533  -33.9107   24.2616 N   0  0  0  0  0  0
  -24.2511  -29.8363   21.9891 C   0  0  2  0  0  0
  -25.3424  -29.7657   19.5288 C   0  0  0  0  0  0
  -24.0743  -28.0893   22.6004 C   0  0  0  0  0  0
  -18.1839  -27.9506   22.6541 C   0  0  0  0  0  0
  -24.1512  -36.7408   23.2528 C   0  0  0  0  0  0
  -26.4303  -30.8600   21.4939 C   0  0  0  0  0  0
  -26.3544  -29.7048   20.4767 C   0  0  0  0  0  0
  -26.5584  -28.3606   20.8355 C   0  0  0  0  0  0
  -25.7183  -27.3701   19.0389 C   0  0  0  0  0  0
  -25.2304  -28.6320   18.6160 C   0  0  0  0  0  0
  -24.1685  -30.3062   20.3159 C   0  0  0  0  0  0
  -25.4173  -36.3298   24.0206 C   0  0  1  0  0  0
  -20.9050  -27.3006   22.8003 C   0  0  2  0  0  0
  -20.5334  -26.1690   21.9613 C   0  0  0  0  0  0
  -19.3487  -26.4409   21.0898 C   0  0  0  0  0  0
  -18.1023  -26.6502   21.9253 C   0  0  0  0  0  0
  -19.4988  -28.4141   23.0464 C   0  0  0  0  0  0
  -19.2072  -29.6324   23.8367 C   0  0  0  0  0  0
  -17.9835  -30.3386   24.0386 C   0  0  0  0  0  0
  -25.9483  -34.9862   23.4935 C   0  0  0  0  0  0
  -16.7934  -29.7932   23.5713 C   0  0  0  0  0  0
  -16.9194  -28.5849   22.8822 C   0  0  0  0  0  0
  -26.5697  -31.7058   25.1514 C   0  0  0  0  0  0
  -25.4301  -31.4626   26.1711 C   0  0  0  0  0  0
  -27.1474  -30.3243   24.7408 C   0  0  0  0  0  0
  -27.6990  -32.4816   25.8497 C   0  0  0  0  0  0
  -27.5568  -37.1977   24.8458 C   0  0  0  0  0  0
  -22.7246  -27.1771   22.6929 N   0  0  0  0  0  0
  -26.4214  -37.4112   23.9530 N   0  0  0  0  0  0
  -25.1854  -30.8956   22.3414 N   0  0  0  0  0  0
  -25.0492  -27.6110   23.0853 O   0  0  0  0  0  0
  -23.8716  -27.8271   20.3257 O   0  0  0  0  0  0
  -26.5702  -34.9327   22.4301 O   0  0  0  0  0  0
  -23.8497  -32.3358   23.5740 O   0  0  0  0  0  0
  -24.7223  -24.3967   26.0117 C   0  0  0  0  0  0
  -25.8787  -22.3701   25.2284 C   0  0  0  0  0  0
  -24.5263  -25.0904   24.7786 C   0  0  0  0  0  0
  -25.8783  -22.6221   23.8284 C   0  0  0  0  0  0
  -29.0648  -19.8544   22.1959 C   0  0  0  0  0  0
  -21.6234  -28.3741   25.0449 C   0  0  0  0  0  0
  -29.8400  -18.3842   21.9738 C   0  0  0  0  0  0
  -22.2744  -26.8405   25.5008 C   0  0  0  0  0  0
  -27.6668  -18.1342   21.9382 C   0  0  0  0  0  0
  -23.4418  -28.2918   24.9730 C   0  0  0  0  0  0
  -27.5789  -19.8582   22.7826 C   0  0  2  0  0  0
  -22.1989  -29.2448   23.6420 C   0  0  2  0  0  0
  -21.8504  -30.7237   23.6423 C   0  0  0  0  0  0
  -22.2432  -28.8665   21.2346 C   0  0  0  0  0  0
  -25.3447  -23.1797   26.2131 N   0  0  0  0  0  0
  -25.1466  -24.0563   23.7029 N   0  0  0  0  0  0
  -23.6592  -26.5551   25.0136 N   0  0  0  0  0  0
  -29.0763  -17.1250   21.5473 N   0  0  0  0  0  0
  -26.5702  -21.3943   22.8623 N   0  0  0  0  0  0
  -31.2896  -13.6916   19.4890 H   0  0  0  0  0  0
  -30.5684  -12.4424   20.4196 H   0  0  0  0  0  0
  -30.1292  -12.0156   18.0041 H   0  0  0  0  0  0
  -29.5273  -13.6383   17.7906 H   0  0  0  0  0  0
  -28.1850  -11.3370   19.2165 H   0  0  0  0  0  0
  -27.5313  -12.3146   17.9177 H   0  0  0  0  0  0
  -27.4433  -14.2540   19.3459 H   0  0  0  0  0  0
  -28.7275  -12.6215   21.5952 H   0  0  0  0  0  0
  -27.8755  -14.1207   21.8697 H   0  0  0  0  0  0
  -25.2686   -9.5711   22.4753 H   0  0  0  0  0  0
  -23.9977   -7.4621   22.7453 H   0  0  0  0  0  0
  -21.0779   -8.8662   19.8975 H   0  0  0  0  0  0
  -22.3543  -10.9602   19.6169 H   0  0  0  0  0  0
  -21.1982   -7.6122   23.9696 H   0  0  0  0  0  0
  -21.1494   -6.0530   25.9087 H   0  0  0  0  0  0
  -22.0600   -2.7579   23.2884 H   0  0  0  0  0  0
  -22.3801  -11.9810   22.4919 H   0  0  0  0  0  0
  -21.0799  -13.1158   22.2830 H   0  0  0  0  0  0
  -24.5928  -15.8542   20.5466 H   0  0  0  0  0  0
  -26.2056  -15.6395   20.0850 H   0  0  0  0  0  0
  -27.0088  -32.6050   23.2312 H   0  0  0  0  0  0
  -25.1603  -34.0151   25.0692 H   0  0  0  0  0  0
  -25.1300  -29.5251   22.4858 H   0  0  0  0  0  0
  -23.3784  -35.9689   23.3094 H   0  0  0  0  0  0
  -24.3575  -36.9128   22.1938 H   0  0  0  0  0  0
  -23.7216  -37.6575   23.6628 H   0  0  0  0  0  0
  -26.5492  -31.8046   20.9555 H   0  0  0  0  0  0
  -27.3399  -30.7084   22.0745 H   0  0  0  0  0  0
  -27.1169  -28.1072   21.7278 H   0  0  0  0  0  0
  -25.3120  -26.5452   18.4649 H   0  0  0  0  0  0
  -24.5181  -28.6763   17.7963 H   0  0  0  0  0  0
  -24.1498  -31.3965   20.2414 H   0  0  0  0  0  0
  -23.3485  -30.1135   19.6284 H   0  0  0  0  0  0
  -25.1222  -36.2058   25.0640 H   0  0  0  0  0  0
  -20.6555  -26.7672   23.6938 H   0  0  0  0  0  0
  -20.3262  -25.2636   22.5517 H   0  0  0  0  0  0
  -21.3589  -25.9031   21.2934 H   0  0  0  0  0  0
  -19.1988  -25.5721   20.4465 H   0  0  0  0  0  0
  -19.5134  -27.2799   20.4161 H   0  0  0  0  0  0
  -17.2240  -26.6135   21.2647 H   0  0  0  0  0  0
  -18.0046  -25.8554   22.6553 H   0  0  0  0  0  0
  -19.8939  -30.0299   24.5497 H   0  0  0  0  0  0
  -17.9861  -31.2244   24.6718 H   0  0  0  0  0  0
  -15.8335  -30.2702   23.7311 H   0  0  0  0  0  0
  -16.0301  -28.1342   22.4554 H   0  0  0  0  0  0
  -24.8264  -30.5998   25.9128 H   0  0  0  0  0  0
  -24.7683  -32.3258   26.2632 H   0  0  0  0  0  0
  -25.8409  -31.2600   27.1581 H   0  0  0  0  0  0
  -26.4184  -29.6725   24.2704 H   0  0  0  0  0  0
  -27.5047  -29.7771   25.6118 H   0  0  0  0  0  0
  -28.0126  -30.4109   24.0846 H   0  0  0  0  0  0
  -27.3378  -33.4059   26.2950 H   0  0  0  0  0  0
  -28.5085  -32.7354   25.1639 H   0  0  0  0  0  0
  -28.1463  -31.9091   26.6574 H   0  0  0  0  0  0
  -28.2502  -38.0360   24.7652 H   0  0  0  0  0  0
  -28.1163  -36.2904   24.6082 H   0  0  0  0  0  0
  -27.2313  -37.1408   25.8865 H   0  0  0  0  0  0
  -23.0156  -26.2703   23.0269 H   0  0  0  0  0  0
  -25.9960  -38.3043   24.1863 H   0  0  0  0  0  0
  -24.3454  -24.8499   26.9203 H   0  0  0  0  0  0
  -26.3207  -21.4529   25.5870 H   0  0  0  0  0  0
  -29.0444  -20.3589   21.2278 H   0  0  0  0  0  0
  -29.7055  -20.4930   22.8095 H   0  0  0  0  0  0
  -21.5844  -29.1128   25.8681 H   0  0  0  0  0  0
  -20.5740  -28.1805   25.2031 H   0  0  0  0  0  0
  -30.3313  -18.1210   22.9132 H   0  0  0  0  0  0
  -30.6614  -18.5362   21.2688 H   0  0  0  0  0  0
  -21.6281  -26.0048   25.2456 H   0  0  0  0  0  0
  -22.3078  -26.7982   26.5815 H   0  0  0  0  0  0
  -27.1427  -18.2467   20.9882 H   0  0  0  0  0  0
  -27.0204  -17.4985   22.5418 H   0  0  0  0  0  0
  -24.4282  -28.7626   24.9060 H   0  0  0  0  0  0
  -23.4633  -28.6853   26.0129 H   0  0  0  0  0  0
  -27.6845  -19.6387   23.8433 H   0  0  0  0  0  0
  -22.2796  -31.1164   22.7353 H   0  0  0  0  0  0
  -22.0088  -31.2667   24.5746 H   0  0  0  0  0  0
  -20.9140  -31.0329   23.1933 H   0  0  0  0  0  0
  -21.8508  -29.7857   20.7831 H   0  0  0  0  0  0
  -21.3943  -28.3386   20.8124 H   0  0  0  0  0  0
  -26.5076  -21.7363   21.9079 H   0  0  0  0  0  0
  1 25  1  0  0  0
  1 30  2  0  0  0
  1 88  1  0  0  0
  2  3  1  0  0  0
  2 25  1  0  0  0
  2 90  1  0  0  0
  2 91  1  0  0  0
  3  4  1  0  0  0
  3 92  1  0  0  0
  3 93  1  0  0  0
  4  5  1  0  0  0
  4 94  1  0  0  0
  4 95  1  0  0  0
  5  6  1  0  0  0
  5 26  1  0  0  0
  5 96  1  0  0  0
  6 25  1  0  0  0
  6 97  1  0  0  0
  6 98  1  0  0  0
  7  8  2  0  0  0
  7 26  1  0  0  0
  7 29  1  0  0  0
  8  9  1  0  0  0
  8 22  1  0  0  0
  9 10  1  0  0  0
  9 27  2  0  0  0
 10 11  2  0  0  0
 10 15  1  0  0  0
 11 12  1  0  0  0
 11 99  1  0  0  0
 12 13  2  0  0  0
 12100  1  0  0  0
 13 14  1  0  0  0
 13 31  1  0  0  0
 14 15  2  0  0  0
 14101  1  0  0  0
 15102  1  0  0  0
 16 17  2  0  0  0
 16 21  1  0  0  0
 16 31  1  0  0  0
 17 18  1  0  0  0
 17103  1  0  0  0
 18 19  2  0  0  0
 18104  1  0  0  0
 19 20  1  0  0  0
 19 24  1  0  0  0
 20 21  2  0  0  0
 20105  1  0  0  0
 21 23  1  0  0  0
 22 28  1  0  0  0
 22 32  2  0  0  0
 26 27  1  0  0  0
 28106  1  0  0  0
 28107  1  0  0  0
 29108  1  0  0  0
 29109  1  0  0  0
 33 34  1  0  0  0
 33 66  1  0  0  0
 33 70  2  0  0  0
 34 36  1  0  0  0
 34 59  1  0  0  0
 34110  1  0  0  0
 35 44  2  0  0  0
 35 45  1  0  0  0
 35 68  1  0  0  0
 36 56  1  0  0  0
 36111  1  0  0  0
 37 39  1  0  0  0
 37 47  1  0  0  0
 37 66  1  0  0  0
 37112  1  0  0  0
 38 43  2  0  0  0
 38 46  1  0  0  0
 38 47  1  0  0  0
 39 64  1  0  0  0
 39 67  2  0  0  0
 40 52  1  0  0  0
 40 53  2  0  0  0
 40 58  1  0  0  0
 41113  1  0  0  0
 41114  1  0  0  0
 41115  1  0  0  0
 41 48  1  0  0  0
 42 43  1  0  0  0
 42 66  1  0  0  0
 42116  1  0  0  0
 42117  1  0  0  0
 43 44  1  0  0  0
 44118  1  0  0  0
 45 46  2  0  0  0
 45119  1  0  0  0
 46120  1  0  0  0
 47121  1  0  0  0
 47122  1  0  0  0
 48 56  1  0  0  0
 48 65  1  0  0  0
 48123  1  0  0  0
 49 50  1  0  0  0
 49 53  1  0  0  0
 49 64  1  0  0  0
 49124  1  0  0  0
 50 51  1  0  0  0
 50125  1  0  0  0
 50126  1  0  0  0
 51 52  1  0  0  0
 51127  1  0  0  0
 51128  1  0  0  0
 52129  1  0  0  0
 52130  1  0  0  0
 53 54  1  0  0  0
 54 55  2  0  0  0
 54131  1  0  0  0
 55 57  1  0  0  0
 55132  1  0  0  0
 56 69  2  0  0  0
 57 58  2  0  0  0
 57133  1  0  0  0
 58134  1  0  0  0
 59 60  1  0  0  0
 59 61  1  0  0  0
 59 62  1  0  0  0
 60135  1  0  0  0
 60136  1  0  0  0
 60137  1  0  0  0
 61138  1  0  0  0
 61139  1  0  0  0
 61140  1  0  0  0
 62141  1  0  0  0
 62142  1  0  0  0
 62143  1  0  0  0
 63 65  1  0  0  0
 63144  1  0  0  0
 63145  1  0  0  0
 63146  1  0  0  0
 64147  1  0  0  0
 65148  1  0  0  0
 68 84  1  0  0  0
 71 73  2  0  0  0
 71 85  1  0  0  0
 71149  1  0  0  0
 72 74  1  0  0  0
 72 85  2  0  0  0
 72150  1  0  0  0
 73 86  1  0  0  0
 73 87  1  0  0  0
 74 86  2  0  0  0
 74 89  1  0  0  0
 75 77  1  0  0  0
 75 81  1  0  0  0
 75151  1  0  0  0
 75152  1  0  0  0
 76 78  1  0  0  0
 76 82  1  0  0  0
 76153  1  0  0  0
 76154  1  0  0  0
 77 88  1  0  0  0
 77155  1  0  0  0
 77156  1  0  0  0
 78 87  1  0  0  0
 78157  1  0  0  0
 78158  1  0  0  0
 79 81  1  0  0  0
 79 88  1  0  0  0
 79159  1  0  0  0
 79160  1  0  0  0
 80 82  1  0  0  0
 80 87  1  0  0  0
 80161  1  0  0  0
 80162  1  0  0  0
 81 89  1  0  0  0
 81163  1  0  0  0
 82 83  1  0  0  0
 82 84  1  0  0  0
 83164  1  0  0  0
 83165  1  0  0  0
 83166  1  0  0  0
 84167  1  0  0  0
 84168  1  0  0  0
 89169  1  0  0  0
M  ISO  4   1 100  68 101  84 101  88 100
M  END
> <chiral flag>
0

> <version>
0

> <s_m_source_file>
/data/baiqing/PycharmProjects/Reinvent-master-3.2/result/LINK_invent/BTK/process_docking_weight1_custom_sum_contain_oxygen_bond_distance_aromatic_linkinvent_7_9_3/rearranged_h_0191.sdf

> <i_m_source_file_index>
37

> <r_mmod_Potential_Energy-OPLS-2005>
15645.6611328125

> <r_mmod_Stretch_Energy-OPLS-2005>
4724.7802734375

> <r_mmod_Bend_Energy-OPLS-2005>
2573.96801757812

> <r_mmod_Torsional_Energy-OPLS-2005>
779.474060058594

> <r_mmod_Improper_Torsional_Energy-OPLS-2005>
76.8457489013672

> <r_mmod_Van_der_Waal_Energy-OPLS-2005>
1994.62829589844

> <r_mmod_Electrostatic_Energy-OPLS-2005>
-219.922912597656

> <r_mmod_Solvation_Energy-OPLS-2005>
-229.340728759766

> <b_mmod_Minimization_Converged-OPLS-2005>
0

> <r_mmod_RMS_Derivative-OPLS-2005>
19.5933036804199

$$$$
37
                    3D
 Structure written by MMmdl.
153161  0  0  1  0            999 V2000
  -30.5813  -14.9936   20.3935 C   0  0  0  0  0  0
  -30.4327  -12.6247   19.4862 C   0  0  0  0  0  0
  -29.5110  -12.5150   18.2521 C   0  0  0  0  0  0
  -28.0562  -12.2701   18.6905 C   0  0  0  0  0  0
  -27.6169  -13.2250   19.8274 C   0  0  2  0  0  0
  -28.6693  -13.3387   20.9537 C   0  0  0  0  0  0
  -25.2423  -13.8112   20.5698 C   0  0  0  0  0  0
  -24.1747  -13.0367   20.9255 C   0  0  0  0  0  0
  -24.6354  -11.6855   20.8799 C   0  0  0  0  0  0
  -23.9040  -10.4246   21.0439 C   0  0  0  0  0  0
  -24.3594   -9.4162   21.9211 C   0  0  0  0  0  0
  -23.6264   -8.2203   22.0764 C   0  0  0  0  0  0
  -22.4251   -8.0251   21.3545 C   0  0  0  0  0  0
  -21.9890   -9.0228   20.4649 C   0  0  0  0  0  0
  -22.7224  -10.2104   20.3072 C   0  0  0  0  0  0
  -21.6840   -6.0717   22.5277 C   0  0  0  0  0  0
  -21.4007   -6.5629   23.8207 C   0  0  0  0  0  0
  -21.3655   -5.6788   24.9172 C   0  0  0  0  0  0
  -21.6042   -4.3052   24.7228 C   0  0  0  0  0  0
  -21.8820   -3.8137   23.4355 C   0  0  0  0  0  0
  -21.9191   -4.6943   22.3405 C   0  0  0  0  0  0
  -22.7779  -13.5170   21.1887 C   0  0  0  0  0  0
  -22.1663   -4.2133   21.0982 F   0  0  0  0  0  0
  -21.5625   -3.4537   25.7745 F   0  0  0  0  0  0
  -29.9316  -13.7549   20.3243 N   0  0  0  0  0  0
  -26.2830  -12.9303   20.3271 N   0  0  0  0  0  0
  -25.9279  -11.6466   20.5808 N   0  0  0  0  0  0
  -22.0428  -12.8173   22.0447 N   0  0  0  0  0  0
  -25.4008  -15.1828   20.4015 N   0  0  0  0  0  0
  -31.8070  -14.9670   20.2362 O   0  0  0  0  0  0
  -21.6621   -6.8848   21.4234 O   0  0  0  0  0  0
  -22.3486  -14.5486   20.6728 O   0  0  0  0  0  0
  -24.6453  -31.8431   23.1872 C   0  0  0  0  0  0
  -25.9217  -32.4691   23.8263 C   0  0  1  0  0  0
  -27.2209  -27.1228   20.1538 C   0  0  0  0  0  0
  -25.5959  -33.8495   24.2181 N   0  0  0  0  0  0
  -23.4489  -30.4618   21.5337 C   0  0  2  0  0  0
  -24.8988  -28.8850   20.1132 C   0  0  0  0  0  0
  -22.7566  -29.4538   22.4858 C   0  0  0  0  0  0
  -18.0293  -28.1397   22.8478 C   0  0  0  0  0  0
  -24.1496  -36.7251   23.2641 C   0  0  0  0  0  0
  -26.0062  -30.7129   21.3870 C   0  0  0  0  0  0
  -26.0781  -29.3226   20.7292 C   0  0  0  0  0  0
  -27.2404  -28.4596   20.7290 C   0  0  0  0  0  0
  -26.0119  -26.7900   19.5027 C   0  0  0  0  0  0
  -24.8795  -27.6323   19.4839 C   0  0  0  0  0  0
  -23.6756  -29.7884   20.1544 C   0  0  0  0  0  0
  -25.4128  -36.3022   24.0315 C   0  0  1  0  0  0
  -20.5905  -28.3722   23.1219 C   0  0  2  0  0  0
  -20.6773  -26.9426   22.5377 C   0  0  0  0  0  0
  -19.5738  -26.6380   21.5199 C   0  0  0  0  0  0
  -18.1935  -26.7926   22.1642 C   0  0  0  0  0  0
  -19.1552  -28.8882   23.2828 C   0  0  0  0  0  0
  -18.9470  -30.1479   23.8852 C   0  0  0  0  0  0
  -17.6470  -30.6592   24.0554 C   0  0  0  0  0  0
  -25.9077  -34.9404   23.5058 C   0  0  0  0  0  0
  -16.5359  -29.9087   23.6348 C   0  0  0  0  0  0
  -16.7280  -28.6504   23.0367 C   0  0  0  0  0  0
  -26.4531  -31.6567   25.0711 C   0  0  0  0  0  0
  -25.3713  -31.3757   26.1403 C   0  0  0  0  0  0
  -27.0407  -30.2966   24.6301 C   0  0  0  0  0  0
  -27.6053  -32.4337   25.7494 C   0  0  0  0  0  0
  -27.5576  -37.1781   24.8466 C   0  0  0  0  0  0
  -21.4256  -29.3045   22.3594 N   0  0  0  0  0  0
  -26.4288  -37.3740   23.9409 N   0  0  0  0  0  0
  -24.7204  -31.0267   22.0918 N   0  0  0  0  0  0
  -23.4195  -28.8093   23.3024 O   0  0  0  0  0  0
  -28.2773  -26.1340   20.2106 O   0  0  0  0  0  0
  -26.5657  -34.8901   22.4632 O   0  0  0  0  0  0
  -23.5568  -32.1309   23.7089 O   0  0  0  0  0  0
  -28.3877  -18.1373   19.6800 C   0  0  0  0  0  0
  -28.5562  -16.5917   19.9659 C   0  0  0  0  0  0
  -30.4856  -17.7029   20.6121 C   0  0  0  0  0  0
  -29.3502  -18.8924   20.6019 C   0  0  1  0  0  0
  -29.0620  -23.2816   20.2703 C   0  0  0  0  0  0
  -28.6362  -21.6362   20.3783 C   0  0  0  0  0  0
  -27.9884  -24.5933   20.1998 C   0  0  0  0  0  0
  -29.9103  -16.2690   20.4627 N   0  0  0  0  0  0
  -29.6684  -20.4263   20.2916 N   0  3  0  0  0  0
  -31.4628  -12.7780   19.1598 H   0  0  0  0  0  0
  -30.4375  -11.6921   20.0534 H   0  0  0  0  0  0
  -29.8466  -11.7094   17.5974 H   0  0  0  0  0  0
  -29.5686  -13.4332   17.6652 H   0  0  0  0  0  0
  -27.9877  -11.2381   19.0363 H   0  0  0  0  0  0
  -27.3804  -12.3520   17.8390 H   0  0  0  0  0  0
  -27.5327  -14.1860   19.3389 H   0  0  0  0  0  0
  -28.7850  -12.3933   21.4861 H   0  0  0  0  0  0
  -28.3595  -14.0767   21.6948 H   0  0  0  0  0  0
  -25.2733   -9.5639   22.4792 H   0  0  0  0  0  0
  -23.9969   -7.4596   22.7486 H   0  0  0  0  0  0
  -21.0826   -8.8749   19.8954 H   0  0  0  0  0  0
  -22.3690  -10.9645   19.6184 H   0  0  0  0  0  0
  -21.2004   -7.6140   23.9703 H   0  0  0  0  0  0
  -21.1473   -6.0524   25.9072 H   0  0  0  0  0  0
  -22.0605   -2.7597   23.2863 H   0  0  0  0  0  0
  -22.4045  -11.9829   22.4826 H   0  0  0  0  0  0
  -21.1052  -13.1208   22.2656 H   0  0  0  0  0  0
  -24.6214  -15.8243   20.4987 H   0  0  0  0  0  0
  -26.2330  -15.6214   20.0323 H   0  0  0  0  0  0
  -26.7277  -32.5292   23.0983 H   0  0  0  0  0  0
  -25.0098  -33.9610   25.0321 H   0  0  0  0  0  0
  -22.7522  -31.2880   21.3780 H   0  0  0  0  0  0
  -23.3766  -35.9576   23.3292 H   0  0  0  0  0  0
  -24.3577  -36.8897   22.2056 H   0  0  0  0  0  0
  -23.7248  -37.6442   23.6687 H   0  0  0  0  0  0
  -26.1619  -31.4677   20.6146 H   0  0  0  0  0  0
  -26.8767  -30.7650   22.0290 H   0  0  0  0  0  0
  -28.1397  -28.7926   21.2276 H   0  0  0  0  0  0
  -25.9033  -25.8374   19.0102 H   0  0  0  0  0  0
  -23.9796  -27.2911   18.9904 H   0  0  0  0  0  0
  -23.8120  -30.5618   19.3976 H   0  0  0  0  0  0
  -22.7903  -29.2294   19.8447 H   0  0  0  0  0  0
  -25.1319  -36.1848   25.0808 H   0  0  0  0  0  0
  -20.9983  -28.3306   24.1342 H   0  0  0  0  0  0
  -20.5693  -26.2326   23.3595 H   0  0  0  0  0  0
  -21.6631  -26.7449   22.1146 H   0  0  0  0  0  0
  -19.6894  -25.6284   21.1250 H   0  0  0  0  0  0
  -19.6656  -27.3170   20.6710 H   0  0  0  0  0  0
  -17.4184  -26.6634   21.4078 H   0  0  0  0  0  0
  -18.0376  -26.0092   22.9068 H   0  0  0  0  0  0
  -19.7941  -30.7308   24.2202 H   0  0  0  0  0  0
  -17.5022  -31.6273   24.5158 H   0  0  0  0  0  0
  -15.5352  -30.2974   23.7695 H   0  0  0  0  0  0
  -15.8678  -28.0822   22.7106 H   0  0  0  0  0  0
  -24.5894  -30.7106   25.7718 H   0  0  0  0  0  0
  -24.8900  -32.2945   26.4765 H   0  0  0  0  0  0
  -25.7991  -30.8964   27.0218 H   0  0  0  0  0  0
  -26.3038  -29.6672   24.1304 H   0  0  0  0  0  0
  -27.4020  -29.7276   25.4880 H   0  0  0  0  0  0
  -27.8937  -30.4207   23.9626 H   0  0  0  0  0  0
  -27.2643  -33.3661   26.2005 H   0  0  0  0  0  0
  -28.3896  -32.6862   25.0347 H   0  0  0  0  0  0
  -28.0687  -31.8509   26.5466 H   0  0  0  0  0  0
  -28.2586  -38.0084   24.7512 H   0  0  0  0  0  0
  -28.1083  -36.2614   24.6300 H   0  0  0  0  0  0
  -27.2290  -37.1432   25.8867 H   0  0  0  0  0  0
  -20.9482  -29.8738   21.6751 H   0  0  0  0  0  0
  -26.0157  -38.2809   24.1413 H   0  0  0  0  0  0
  -27.3551  -18.4633   19.8101 H   0  0  0  0  0  0
  -28.6544  -18.3372   18.6414 H   0  0  0  0  0  0
  -28.3634  -16.0587   19.0365 H   0  0  0  0  0  0
  -27.8406  -16.2699   20.7210 H   0  0  0  0  0  0
  -31.0796  -17.7574   21.5243 H   0  0  0  0  0  0
  -31.1808  -17.8594   19.7864 H   0  0  0  0  0  0
  -28.9037  -18.8941   21.5972 H   0  0  0  0  0  0
  -29.7007  -23.3749   19.3922 H   0  0  0  0  0  0
  -29.7274  -23.4789   21.1113 H   0  0  0  0  0  0
  -27.8908  -21.4440   19.6060 H   0  0  0  0  0  0
  -28.1031  -21.5105   21.3203 H   0  0  0  0  0  0
  -27.2825  -24.4406   21.0171 H   0  0  0  0  0  0
  -27.4140  -24.4007   19.2962 H   0  0  0  0  0  0
  -30.0779  -20.4619   19.3722 H   0  0  0  0  0  0
  -30.4101  -20.6694   20.9279 H   0  0  0  0  0  0
  1 25  1  0  0  0
  1 30  2  0  0  0
  1 78  1  0  0  0
  2  3  1  0  0  0
  2 25  1  0  0  0
  2 80  1  0  0  0
  2 81  1  0  0  0
  3  4  1  0  0  0
  3 82  1  0  0  0
  3 83  1  0  0  0
  4  5  1  0  0  0
  4 84  1  0  0  0
  4 85  1  0  0  0
  5  6  1  0  0  0
  5 26  1  0  0  0
  5 86  1  0  0  0
  6 25  1  0  0  0
  6 87  1  0  0  0
  6 88  1  0  0  0
  7  8  2  0  0  0
  7 26  1  0  0  0
  7 29  1  0  0  0
  8  9  1  0  0  0
  8 22  1  0  0  0
  9 10  1  0  0  0
  9 27  2  0  0  0
 10 11  2  0  0  0
 10 15  1  0  0  0
 11 12  1  0  0  0
 11 89  1  0  0  0
 12 13  2  0  0  0
 12 90  1  0  0  0
 13 14  1  0  0  0
 13 31  1  0  0  0
 14 15  2  0  0  0
 14 91  1  0  0  0
 15 92  1  0  0  0
 16 17  2  0  0  0
 16 21  1  0  0  0
 16 31  1  0  0  0
 17 18  1  0  0  0
 17 93  1  0  0  0
 18 19  2  0  0  0
 18 94  1  0  0  0
 19 20  1  0  0  0
 19 24  1  0  0  0
 20 21  2  0  0  0
 20 95  1  0  0  0
 21 23  1  0  0  0
 22 28  1  0  0  0
 22 32  2  0  0  0
 26 27  1  0  0  0
 28 96  1  0  0  0
 28 97  1  0  0  0
 29 98  1  0  0  0
 29 99  1  0  0  0
 33 34  1  0  0  0
 33 66  1  0  0  0
 33 70  2  0  0  0
 34 36  1  0  0  0
 34 59  1  0  0  0
 34100  1  0  0  0
 35 44  2  0  0  0
 35 45  1  0  0  0
 35 68  1  0  0  0
 36 56  1  0  0  0
 36101  1  0  0  0
 37 39  1  0  0  0
 37 47  1  0  0  0
 37 66  1  0  0  0
 37102  1  0  0  0
 38 43  2  0  0  0
 38 46  1  0  0  0
 38 47  1  0  0  0
 39 64  1  0  0  0
 39 67  2  0  0  0
 40 52  1  0  0  0
 40 53  2  0  0  0
 40 58  1  0  0  0
 41103  1  0  0  0
 41104  1  0  0  0
 41105  1  0  0  0
 41 48  1  0  0  0
 42 43  1  0  0  0
 42 66  1  0  0  0
 42106  1  0  0  0
 42107  1  0  0  0
 43 44  1  0  0  0
 44108  1  0  0  0
 45 46  2  0  0  0
 45109  1  0  0  0
 46110  1  0  0  0
 47111  1  0  0  0
 47112  1  0  0  0
 48 56  1  0  0  0
 48 65  1  0  0  0
 48113  1  0  0  0
 49 50  1  0  0  0
 49 53  1  0  0  0
 49 64  1  0  0  0
 49114  1  0  0  0
 50 51  1  0  0  0
 50115  1  0  0  0
 50116  1  0  0  0
 51 52  1  0  0  0
 51117  1  0  0  0
 51118  1  0  0  0
 52119  1  0  0  0
 52120  1  0  0  0
 53 54  1  0  0  0
 54 55  2  0  0  0
 54121  1  0  0  0
 55 57  1  0  0  0
 55122  1  0  0  0
 56 69  2  0  0  0
 57 58  2  0  0  0
 57123  1  0  0  0
 58124  1  0  0  0
 59 60  1  0  0  0
 59 61  1  0  0  0
 59 62  1  0  0  0
 60125  1  0  0  0
 60126  1  0  0  0
 60127  1  0  0  0
 61128  1  0  0  0
 61129  1  0  0  0
 61130  1  0  0  0
 62131  1  0  0  0
 62132  1  0  0  0
 62133  1  0  0  0
 63 65  1  0  0  0
 63134  1  0  0  0
 63135  1  0  0  0
 63136  1  0  0  0
 64137  1  0  0  0
 65138  1  0  0  0
 68 77  1  0  0  0
 71 72  1  0  0  0
 71 74  1  0  0  0
 71139  1  0  0  0
 71140  1  0  0  0
 72 78  1  0  0  0
 72141  1  0  0  0
 72142  1  0  0  0
 73 74  1  0  0  0
 73 78  1  0  0  0
 73143  1  0  0  0
 73144  1  0  0  0
 74 79  1  0  0  0
 74145  1  0  0  0
 75 76  1  0  0  0
 75 77  1  0  0  0
 75146  1  0  0  0
 75147  1  0  0  0
 76 79  1  0  0  0
 76148  1  0  0  0
 76149  1  0  0  0
 77150  1  0  0  0
 77151  1  0  0  0
 79152  1  0  0  0
 79153  1  0  0  0
M  CHG  1  79   1
M  ISO  4   1 100  68 101  77 101  78 100
M  END
> <chiral flag>
0

> <version>
0

> <s_m_source_file>
/data/baiqing/PycharmProjects/Reinvent-master-3.2/result/LINK_invent/BTK/process_docking_weight1_custom_sum_contain_oxygen_bond_distance_aromatic_linkinvent_7_9_3/rearranged_h_0191.sdf

> <i_m_source_file_index>
38

> <r_mmod_Potential_Energy-OPLS-2005>
541.872192382812

> <r_mmod_Stretch_Energy-OPLS-2005>
269.435485839844

> <r_mmod_Bend_Energy-OPLS-2005>
304.060333251953

> <r_mmod_Torsional_Energy-OPLS-2005>
318.755554199219

> <r_mmod_Improper_Torsional_Energy-OPLS-2005>
4.60880088806152

> <r_mmod_Van_der_Waal_Energy-OPLS-2005>
111.653511047363

> <r_mmod_Electrostatic_Energy-OPLS-2005>
-203.608047485352

> <r_mmod_Solvation_Energy-OPLS-2005>
-481.170623779297

> <b_mmod_Minimization_Converged-OPLS-2005>
0

> <r_mmod_RMS_Derivative-OPLS-2005>
1.12562215328217

$$$$
38
                    3D
 Structure written by MMmdl.
159167  0  0  1  0            999 V2000
  -30.6258  -14.7221   20.4372 C   0  0  0  0  0  0
  -30.4304  -12.4408   19.4566 C   0  0  0  0  0  0
  -29.5007  -12.4851   18.2249 C   0  0  0  0  0  0
  -28.0289  -12.3115   18.6476 C   0  0  0  0  0  0
  -27.6369  -13.2119   19.8477 C   0  0  2  0  0  0
  -28.6891  -13.1711   20.9761 C   0  0  0  0  0  0
  -25.2528  -13.8136   20.5732 C   0  0  0  0  0  0
  -24.1796  -13.0410   20.9224 C   0  0  0  0  0  0
  -24.6355  -11.6881   20.8763 C   0  0  0  0  0  0
  -23.9026  -10.4269   21.0409 C   0  0  0  0  0  0
  -24.3587   -9.4186   21.9186 C   0  0  0  0  0  0
  -23.6274   -8.2214   22.0744 C   0  0  0  0  0  0
  -22.4260   -8.0253   21.3532 C   0  0  0  0  0  0
  -21.9887   -9.0221   20.4637 C   0  0  0  0  0  0
  -22.7204  -10.2106   20.3055 C   0  0  0  0  0  0
  -21.6846   -6.0721   22.5274 C   0  0  0  0  0  0
  -21.4013   -6.5627   23.8205 C   0  0  0  0  0  0
  -21.3664   -5.6782   24.9167 C   0  0  0  0  0  0
  -21.6047   -4.3046   24.7218 C   0  0  0  0  0  0
  -21.8822   -3.8137   23.4340 C   0  0  0  0  0  0
  -21.9191   -4.6953   22.3399 C   0  0  0  0  0  0
  -22.7825  -13.5219   21.1871 C   0  0  0  0  0  0
  -22.1663   -4.2138   21.0974 F   0  0  0  0  0  0
  -21.5631   -3.4533   25.7733 F   0  0  0  0  0  0
  -29.9855  -13.5073   20.3765 N   0  0  0  0  0  0
  -26.2919  -12.9295   20.3317 N   0  0  0  0  0  0
  -25.9282  -11.6464   20.5787 N   0  0  0  0  0  0
  -22.0451  -12.8216   22.0419 N   0  0  0  0  0  0
  -25.4264  -15.1862   20.4190 N   0  0  0  0  0  0
  -31.8400  -14.7955   20.2298 O   0  0  0  0  0  0
  -21.6628   -6.8854   21.4230 O   0  0  0  0  0  0
  -22.3526  -14.5530   20.6710 O   0  0  0  0  0  0
  -24.6265  -31.8572   23.1990 C   0  0  0  0  0  0
  -25.9100  -32.4767   23.8332 C   0  0  1  0  0  0
  -27.2316  -27.3040   20.1329 C   0  0  0  0  0  0
  -25.5907  -33.8566   24.2258 N   0  0  0  0  0  0
  -23.4231  -30.4772   21.5411 C   0  0  2  0  0  0
  -24.8728  -28.9219   20.1156 C   0  0  0  0  0  0
  -22.7480  -29.4612   22.4930 C   0  0  0  0  0  0
  -18.0286  -28.1396   22.8487 C   0  0  0  0  0  0
  -24.1487  -36.7292   23.2643 C   0  0  0  0  0  0
  -25.9635  -30.7853   21.3697 C   0  0  0  0  0  0
  -26.0411  -29.4085   20.7166 C   0  0  0  0  0  0
  -27.2276  -28.6143   20.7068 C   0  0  0  0  0  0
  -26.0424  -26.8639   19.5180 C   0  0  0  0  0  0
  -24.8756  -27.6558   19.5051 C   0  0  0  0  0  0
  -23.6405  -29.8039   20.1593 C   0  0  0  0  0  0
  -25.4115  -36.3077   24.0328 C   0  0  1  0  0  0
  -20.5888  -28.3699   23.1286 C   0  0  2  0  0  0
  -20.6776  -26.9422   22.5416 C   0  0  0  0  0  0
  -19.5754  -26.6391   21.5220 C   0  0  0  0  0  0
  -18.1932  -26.7938   22.1624 C   0  0  0  0  0  0
  -19.1538  -28.8867   23.2881 C   0  0  0  0  0  0
  -18.9460  -30.1467   23.8897 C   0  0  0  0  0  0
  -17.6459  -30.6598   24.0567 C   0  0  0  0  0  0
  -25.9050  -34.9446   23.5101 C   0  0  0  0  0  0
  -16.5350  -29.9097   23.6327 C   0  0  0  0  0  0
  -16.7271  -28.6516   23.0346 C   0  0  0  0  0  0
  -26.4481  -31.6581   25.0707 C   0  0  0  0  0  0
  -25.3717  -31.3714   26.1437 C   0  0  0  0  0  0
  -27.0317  -30.3001   24.6162 C   0  0  0  0  0  0
  -27.6034  -32.4322   25.7480 C   0  0  0  0  0  0
  -27.5582  -37.1797   24.8463 C   0  0  0  0  0  0
  -21.4194  -29.3040   22.3669 N   0  0  0  0  0  0
  -26.4289  -37.3775   23.9413 N   0  0  0  0  0  0
  -24.6899  -31.0578   22.0936 N   0  0  0  0  0  0
  -23.4195  -28.8159   23.3024 O   0  0  0  0  0  0
  -28.3518  -26.4593   20.1198 O   0  0  0  0  0  0
  -26.5631  -34.8921   22.4672 O   0  0  0  0  0  0
  -23.5424  -32.1368   23.7310 O   0  0  0  0  0  0
  -29.5697  -17.9248   19.0394 C   0  0  0  0  0  0
  -29.3665  -16.3877   19.1237 C   0  0  0  0  0  0
  -30.1437  -17.1530   21.1851 C   0  0  0  0  0  0
  -29.4151  -18.3820   20.4813 C   0  0  1  0  0  0
  -31.2645  -20.0476   20.8681 C   0  0  0  0  0  0
  -28.9891  -22.4327   20.7861 C   0  0  0  0  0  0
  -28.6611  -23.7705   19.9441 C   0  0  0  0  0  0
  -29.0981  -20.9861   20.0674 C   0  0  0  0  0  0
  -28.2487  -25.1087   20.7362 C   0  0  0  0  0  0
  -29.8496  -15.8791   20.4317 N   0  0  0  0  0  0
  -29.7965  -19.8399   20.8220 N   0  3  1  0  0  0
  -31.4692  -12.5690   19.1462 H   0  0  0  0  0  0
  -30.3796  -11.4685   19.9493 H   0  0  0  0  0  0
  -29.7776  -11.7034   17.5160 H   0  0  0  0  0  0
  -29.6235  -13.4326   17.6981 H   0  0  0  0  0  0
  -27.8849  -11.2634   18.9128 H   0  0  0  0  0  0
  -27.3668  -12.5030   17.8018 H   0  0  0  0  0  0
  -27.6140  -14.2205   19.4525 H   0  0  0  0  0  0
  -28.7263  -12.1870   21.4453 H   0  0  0  0  0  0
  -28.4318  -13.8830   21.7629 H   0  0  0  0  0  0
  -25.2721   -9.5684   22.4770 H   0  0  0  0  0  0
  -23.9989   -7.4609   22.7458 H   0  0  0  0  0  0
  -21.0819   -8.8725   19.8944 H   0  0  0  0  0  0
  -22.3639  -10.9645   19.6170 H   0  0  0  0  0  0
  -21.2003   -7.6138   23.9707 H   0  0  0  0  0  0
  -21.1493   -6.0513   25.9074 H   0  0  0  0  0  0
  -22.0602   -2.7602   23.2835 H   0  0  0  0  0  0
  -22.4063  -11.9892   22.4839 H   0  0  0  0  0  0
  -21.1069  -13.1251   22.2605 H   0  0  0  0  0  0
  -24.6637  -15.8430   20.5403 H   0  0  0  0  0  0
  -26.2902  -15.6273   20.1326 H   0  0  0  0  0  0
  -26.7170  -32.5438   23.1084 H   0  0  0  0  0  0
  -25.0022  -33.9701   25.0384 H   0  0  0  0  0  0
  -22.7185  -31.2978   21.3922 H   0  0  0  0  0  0
  -23.3753  -35.9620   23.3299 H   0  0  0  0  0  0
  -24.3575  -36.8921   22.2059 H   0  0  0  0  0  0
  -23.7234  -37.6488   23.6671 H   0  0  0  0  0  0
  -26.0942  -31.5469   20.5998 H   0  0  0  0  0  0
  -26.8441  -30.8378   21.9984 H   0  0  0  0  0  0
  -28.1308  -28.9896   21.1677 H   0  0  0  0  0  0
  -26.0161  -25.8903   19.0495 H   0  0  0  0  0  0
  -23.9808  -27.2771   19.0306 H   0  0  0  0  0  0
  -23.7614  -30.5761   19.3985 H   0  0  0  0  0  0
  -22.7618  -29.2306   19.8580 H   0  0  0  0  0  0
  -25.1298  -36.1924   25.0820 H   0  0  0  0  0  0
  -20.9980  -28.3277   24.1407 H   0  0  0  0  0  0
  -20.5686  -26.2311   23.3616 H   0  0  0  0  0  0
  -21.6642  -26.7457   22.1203 H   0  0  0  0  0  0
  -19.6915  -25.6302   21.1250 H   0  0  0  0  0  0
  -19.6698  -27.3199   20.6749 H   0  0  0  0  0  0
  -17.4209  -26.6695   21.4019 H   0  0  0  0  0  0
  -18.0326  -26.0082   22.9018 H   0  0  0  0  0  0
  -19.7936  -30.7280   24.2265 H   0  0  0  0  0  0
  -17.5016  -31.6274   24.5177 H   0  0  0  0  0  0
  -15.5351  -30.2998   23.7656 H   0  0  0  0  0  0
  -15.8674  -28.0838   22.7052 H   0  0  0  0  0  0
  -24.5894  -30.7061   25.7763 H   0  0  0  0  0  0
  -24.8906  -32.2877   26.4866 H   0  0  0  0  0  0
  -25.8049  -30.8887   27.0207 H   0  0  0  0  0  0
  -26.2877  -29.6757   24.1197 H   0  0  0  0  0  0
  -27.4018  -29.7250   25.4659 H   0  0  0  0  0  0
  -27.8750  -30.4277   23.9371 H   0  0  0  0  0  0
  -27.2630  -33.3620   26.2049 H   0  0  0  0  0  0
  -28.3843  -32.6889   25.0310 H   0  0  0  0  0  0
  -28.0704  -31.8457   26.5401 H   0  0  0  0  0  0
  -28.2588  -38.0103   24.7520 H   0  0  0  0  0  0
  -28.1084  -36.2633   24.6273 H   0  0  0  0  0  0
  -27.2303  -37.1429   25.8865 H   0  0  0  0  0  0
  -20.9384  -29.8744   21.6854 H   0  0  0  0  0  0
  -26.0171  -38.2849   24.1414 H   0  0  0  0  0  0
  -28.8542  -18.4012   18.3681 H   0  0  0  0  0  0
  -30.5723  -18.1444   18.6700 H   0  0  0  0  0  0
  -29.8415  -15.8878   18.2771 H   0  0  0  0  0  0
  -28.2991  -16.1903   19.0503 H   0  0  0  0  0  0
  -29.8275  -17.0564   22.2242 H   0  0  0  0  0  0
  -31.2255  -17.2886   21.1916 H   0  0  0  0  0  0
  -28.3540  -18.3023   20.7266 H   0  0  0  0  0  0
  -31.7305  -19.4202   21.6264 H   0  0  0  0  0  0
  -31.5197  -21.0750   21.1234 H   0  0  0  0  0  0
  -31.7274  -19.8252   19.9068 H   0  0  0  0  0  0
  -28.2382  -22.3430   21.5719 H   0  0  0  0  0  0
  -29.9186  -22.6320   21.3179 H   0  0  0  0  0  0
  -27.8686  -23.5507   19.2287 H   0  0  0  0  0  0
  -29.5382  -23.9970   19.3371 H   0  0  0  0  0  0
  -29.5981  -21.1033   19.1053 H   0  0  0  0  0  0
  -28.0846  -20.6637   19.8264 H   0  0  0  0  0  0
  -28.8942  -25.1626   21.6133 H   0  0  0  0  0  0
  -27.2486  -24.9657   21.1475 H   0  0  0  0  0  0
  -29.4893  -19.9486   21.7777 H   0  0  0  0  0  0
  1 25  1  0  0  0
  1 30  2  0  0  0
  1 80  1  0  0  0
  2  3  1  0  0  0
  2 25  1  0  0  0
  2 82  1  0  0  0
  2 83  1  0  0  0
  3  4  1  0  0  0
  3 84  1  0  0  0
  3 85  1  0  0  0
  4  5  1  0  0  0
  4 86  1  0  0  0
  4 87  1  0  0  0
  5  6  1  0  0  0
  5 26  1  0  0  0
  5 88  1  0  0  0
  6 25  1  0  0  0
  6 89  1  0  0  0
  6 90  1  0  0  0
  7  8  2  0  0  0
  7 26  1  0  0  0
  7 29  1  0  0  0
  8  9  1  0  0  0
  8 22  1  0  0  0
  9 10  1  0  0  0
  9 27  2  0  0  0
 10 11  2  0  0  0
 10 15  1  0  0  0
 11 12  1  0  0  0
 11 91  1  0  0  0
 12 13  2  0  0  0
 12 92  1  0  0  0
 13 14  1  0  0  0
 13 31  1  0  0  0
 14 15  2  0  0  0
 14 93  1  0  0  0
 15 94  1  0  0  0
 16 17  2  0  0  0
 16 21  1  0  0  0
 16 31  1  0  0  0
 17 18  1  0  0  0
 17 95  1  0  0  0
 18 19  2  0  0  0
 18 96  1  0  0  0
 19 20  1  0  0  0
 19 24  1  0  0  0
 20 21  2  0  0  0
 20 97  1  0  0  0
 21 23  1  0  0  0
 22 28  1  0  0  0
 22 32  2  0  0  0
 26 27  1  0  0  0
 28 98  1  0  0  0
 28 99  1  0  0  0
 29100  1  0  0  0
 29101  1  0  0  0
 33 34  1  0  0  0
 33 66  1  0  0  0
 33 70  2  0  0  0
 34 36  1  0  0  0
 34 59  1  0  0  0
 34102  1  0  0  0
 35 44  2  0  0  0
 35 45  1  0  0  0
 35 68  1  0  0  0
 36 56  1  0  0  0
 36103  1  0  0  0
 37 39  1  0  0  0
 37 47  1  0  0  0
 37 66  1  0  0  0
 37104  1  0  0  0
 38 43  2  0  0  0
 38 46  1  0  0  0
 38 47  1  0  0  0
 39 64  1  0  0  0
 39 67  2  0  0  0
 40 52  1  0  0  0
 40 53  2  0  0  0
 40 58  1  0  0  0
 41105  1  0  0  0
 41106  1  0  0  0
 41107  1  0  0  0
 41 48  1  0  0  0
 42 43  1  0  0  0
 42 66  1  0  0  0
 42108  1  0  0  0
 42109  1  0  0  0
 43 44  1  0  0  0
 44110  1  0  0  0
 45 46  2  0  0  0
 45111  1  0  0  0
 46112  1  0  0  0
 47113  1  0  0  0
 47114  1  0  0  0
 48 56  1  0  0  0
 48 65  1  0  0  0
 48115  1  0  0  0
 49 50  1  0  0  0
 49 53  1  0  0  0
 49 64  1  0  0  0
 49116  1  0  0  0
 50 51  1  0  0  0
 50117  1  0  0  0
 50118  1  0  0  0
 51 52  1  0  0  0
 51119  1  0  0  0
 51120  1  0  0  0
 52121  1  0  0  0
 52122  1  0  0  0
 53 54  1  0  0  0
 54 55  2  0  0  0
 54123  1  0  0  0
 55 57  1  0  0  0
 55124  1  0  0  0
 56 69  2  0  0  0
 57 58  2  0  0  0
 57125  1  0  0  0
 58126  1  0  0  0
 59 60  1  0  0  0
 59 61  1  0  0  0
 59 62  1  0  0  0
 60127  1  0  0  0
 60128  1  0  0  0
 60129  1  0  0  0
 61130  1  0  0  0
 61131  1  0  0  0
 61132  1  0  0  0
 62133  1  0  0  0
 62134  1  0  0  0
 62135  1  0  0  0
 63 65  1  0  0  0
 63136  1  0  0  0
 63137  1  0  0  0
 63138  1  0  0  0
 64139  1  0  0  0
 65140  1  0  0  0
 68 79  1  0  0  0
 71 72  1  0  0  0
 71141  1  0  0  0
 71142  1  0  0  0
 71 74  1  0  0  0
 72 80  1  0  0  0
 72143  1  0  0  0
 72144  1  0  0  0
 73 74  1  0  0  0
 73 80  1  0  0  0
 73145  1  0  0  0
 73146  1  0  0  0
 74 81  1  0  0  0
 74147  1  0  0  0
 75148  1  0  0  0
 75149  1  0  0  0
 75150  1  0  0  0
 75 81  1  0  0  0
 76 77  1  0  0  0
 76 78  1  0  0  0
 76151  1  0  0  0
 76152  1  0  0  0
 77 79  1  0  0  0
 77153  1  0  0  0
 77154  1  0  0  0
 78 81  1  0  0  0
 78155  1  0  0  0
 78156  1  0  0  0
 79157  1  0  0  0
 79158  1  0  0  0
 81159  1  0  0  0
M  CHG  1  81   1
M  ISO  4   1 100  68 101  79 101  80 100
M  END
> <chiral flag>
0

> <version>
0

> <s_m_source_file>
/data/baiqing/PycharmProjects/Reinvent-master-3.2/result/LINK_invent/BTK/process_docking_weight1_custom_sum_contain_oxygen_bond_distance_aromatic_linkinvent_7_9_3/rearranged_h_0191.sdf

> <i_m_source_file_index>
39

> <r_mmod_Potential_Energy-OPLS-2005>
247.728973388672

> <r_mmod_Stretch_Energy-OPLS-2005>
105.217514038086

> <r_mmod_Bend_Energy-OPLS-2005>
190.935302734375

> <r_mmod_Torsional_Energy-OPLS-2005>
369.102081298828

> <r_mmod_Improper_Torsional_Energy-OPLS-2005>
11.2692604064941

> <r_mmod_Van_der_Waal_Energy-OPLS-2005>
112.107208251953

> <r_mmod_Electrostatic_Energy-OPLS-2005>
-173.755859375

> <r_mmod_Solvation_Energy-OPLS-2005>
-438.837768554688

> <b_mmod_Minimization_Converged-OPLS-2005>
0

> <r_mmod_RMS_Derivative-OPLS-2005>
1.16775906085968

$$$$
39
                    3D
 Structure written by MMmdl.
168178  0  0  1  0            999 V2000
  -30.7062  -14.4523   20.4684 C   0  0  0  0  0  0
  -30.4204  -12.2625   19.4211 C   0  0  0  0  0  0
  -29.4922  -12.4320   18.2012 C   0  0  0  0  0  0
  -28.0110  -12.3256   18.6225 C   0  0  0  0  0  0
  -27.6534  -13.1918   19.8621 C   0  0  2  0  0  0
  -28.7052  -13.0236   20.9823 C   0  0  0  0  0  0
  -25.2592  -13.8111   20.5701 C   0  0  0  0  0  0
  -24.1825  -13.0415   20.9195 C   0  0  0  0  0  0
  -24.6362  -11.6877   20.8764 C   0  0  0  0  0  0
  -23.9024  -10.4280   21.0424 C   0  0  0  0  0  0
  -24.3589   -9.4196   21.9191 C   0  0  0  0  0  0
  -23.6277   -8.2228   22.0756 C   0  0  0  0  0  0
  -22.4256   -8.0273   21.3547 C   0  0  0  0  0  0
  -21.9886   -9.0244   20.4653 C   0  0  0  0  0  0
  -22.7205  -10.2126   20.3064 C   0  0  0  0  0  0
  -21.6849   -6.0723   22.5279 C   0  0  0  0  0  0
  -21.4008   -6.5626   23.8211 C   0  0  0  0  0  0
  -21.3660   -5.6785   24.9177 C   0  0  0  0  0  0
  -21.6050   -4.3050   24.7231 C   0  0  0  0  0  0
  -21.8819   -3.8139   23.4353 C   0  0  0  0  0  0
  -21.9191   -4.6951   22.3403 C   0  0  0  0  0  0
  -22.7855  -13.5236   21.1849 C   0  0  0  0  0  0
  -22.1658   -4.2135   21.0980 F   0  0  0  0  0  0
  -21.5638   -3.4539   25.7746 F   0  0  0  0  0  0
  -30.0320  -13.2800   20.4026 N   0  0  0  0  0  0
  -26.2992  -12.9242   20.3363 N   0  0  0  0  0  0
  -25.9282  -11.6424   20.5801 N   0  0  0  0  0  0
  -22.0466  -12.8252   22.0405 N   0  0  0  0  0  0
  -25.4353  -15.1827   20.4101 N   0  0  0  0  0  0
  -31.9067  -14.5682   20.2078 O   0  0  0  0  0  0
  -21.6628   -6.8866   21.4241 O   0  0  0  0  0  0
  -22.3558  -14.5537   20.6679 O   0  0  0  0  0  0
  -24.6089  -31.8723   23.2139 C   0  0  0  0  0  0
  -25.9006  -32.4844   23.8416 C   0  0  1  0  0  0
  -27.2336  -27.4896   20.0956 C   0  0  0  0  0  0
  -25.5888  -33.8639   24.2358 N   0  0  0  0  0  0
  -23.3934  -30.4963   21.5531 C   0  0  2  0  0  0
  -24.8409  -28.9675   20.1167 C   0  0  0  0  0  0
  -22.7378  -29.4674   22.5008 C   0  0  0  0  0  0
  -18.0263  -28.1367   22.8489 C   0  0  0  0  0  0
  -24.1481  -36.7317   23.2629 C   0  0  0  0  0  0
  -25.9149  -30.8583   21.3550 C   0  0  0  0  0  0
  -25.9961  -29.4948   20.7076 C   0  0  0  0  0  0
  -27.1988  -28.7628   20.6929 C   0  0  0  0  0  0
  -26.0686  -26.9621   19.4988 C   0  0  0  0  0  0
  -24.8688  -27.6980   19.5107 C   0  0  0  0  0  0
  -23.5998  -29.8279   20.1666 C   0  0  0  0  0  0
  -25.4090  -36.3119   24.0350 C   0  0  1  0  0  0
  -20.5853  -28.3642   23.1335 C   0  0  2  0  0  0
  -20.6752  -26.9384   22.5421 C   0  0  0  0  0  0
  -19.5737  -26.6385   21.5202 C   0  0  0  0  0  0
  -18.1913  -26.7917   22.1614 C   0  0  0  0  0  0
  -19.1510  -28.8820   23.2913 C   0  0  0  0  0  0
  -18.9443  -30.1428   23.8924 C   0  0  0  0  0  0
  -17.6449  -30.6577   24.0563 C   0  0  0  0  0  0
  -25.9025  -34.9490   23.5147 C   0  0  0  0  0  0
  -16.5338  -29.9084   23.6324 C   0  0  0  0  0  0
  -16.7255  -28.6499   23.0344 C   0  0  0  0  0  0
  -26.4467  -31.6596   25.0711 C   0  0  0  0  0  0
  -25.3771  -31.3705   26.1493 C   0  0  0  0  0  0
  -27.0242  -30.3036   24.6022 C   0  0  0  0  0  0
  -27.6087  -32.4275   25.7447 C   0  0  0  0  0  0
  -27.5593  -37.1778   24.8446 C   0  0  0  0  0  0
  -21.4112  -29.3024   22.3753 N   0  0  0  0  0  0
  -26.4270  -37.3813   23.9449 N   0  0  0  0  0  0
  -24.6572  -31.0881   22.1009 N   0  0  0  0  0  0
  -23.4178  -28.8210   23.3019 O   0  0  0  0  0  0
  -28.4066  -26.7879   20.0804 O   0  0  0  0  0  0
  -26.5581  -34.8942   22.4706 O   0  0  0  0  0  0
  -23.5296  -32.1439   23.7573 O   0  0  0  0  0  0
  -31.0499  -23.4973   19.3946 C   0  0  0  0  0  0
  -28.3494  -23.5571   19.2660 C   0  0  0  0  0  0
  -30.3234  -22.5805   18.5973 C   0  0  0  0  0  0
  -29.0787  -24.4756   20.0536 C   0  0  0  0  0  0
  -32.0606  -21.9588   16.7944 C   0  0  0  0  0  0
  -30.7313  -21.4722   16.2889 C   0  0  0  0  0  0
  -29.8060  -16.0424   18.9361 C   0  0  0  0  0  0
  -29.8238  -16.4797   21.4690 C   0  0  0  0  0  0
  -29.4124  -17.5077   18.7763 C   0  0  0  0  0  0
  -29.5730  -17.9716   21.1297 C   0  0  0  0  0  0
  -30.9993  -21.5169   17.7841 C   0  0  0  0  0  0
  -28.3672  -25.5688   20.8129 C   0  0  0  0  0  0
  -31.1904  -20.2112   18.5576 C   0  0  0  0  0  0
  -30.0086  -19.7804   19.4623 C   0  0  0  0  0  0
  -28.9687  -22.6011   18.5385 N   0  0  0  0  0  0
  -30.4320  -24.4510   20.1281 N   0  0  0  0  0  0
  -29.9170  -15.5404   20.3285 N   0  0  0  0  0  0
  -30.0835  -18.3359   19.7910 N   0  3  0  0  0  0
  -31.4665  -12.3487   19.1187 H   0  0  0  0  0  0
  -30.3116  -11.2665   19.8539 H   0  0  0  0  0  0
  -29.7186  -11.6679   17.4566 H   0  0  0  0  0  0
  -29.6809  -13.3851   17.7099 H   0  0  0  0  0  0
  -27.8204  -11.2754   18.8473 H   0  0  0  0  0  0
  -27.3578  -12.5751   17.7856 H   0  0  0  0  0  0
  -27.6678  -14.2268   19.5340 H   0  0  0  0  0  0
  -28.6711  -12.0140   21.3933 H   0  0  0  0  0  0
  -28.4975  -13.7008   21.8127 H   0  0  0  0  0  0
  -25.2738   -9.5684   22.4753 H   0  0  0  0  0  0
  -23.9998   -7.4618   22.7465 H   0  0  0  0  0  0
  -21.0823   -8.8763   19.8958 H   0  0  0  0  0  0
  -22.3667  -10.9665   19.6174 H   0  0  0  0  0  0
  -21.1986   -7.6131   23.9710 H   0  0  0  0  0  0
  -21.1485   -6.0514   25.9080 H   0  0  0  0  0  0
  -22.0594   -2.7604   23.2855 H   0  0  0  0  0  0
  -22.4045  -11.9915   22.4824 H   0  0  0  0  0  0
  -21.1088  -13.1318   22.2572 H   0  0  0  0  0  0
  -24.6746  -15.8448   20.5184 H   0  0  0  0  0  0
  -26.2986  -15.6162   20.1112 H   0  0  0  0  0  0
  -26.7078  -32.5590   23.1191 H   0  0  0  0  0  0
  -25.0063  -33.9812   25.0516 H   0  0  0  0  0  0
  -22.6786  -31.3106   21.4170 H   0  0  0  0  0  0
  -23.3773  -35.9612   23.3221 H   0  0  0  0  0  0
  -24.3603  -36.8993   22.2059 H   0  0  0  0  0  0
  -23.7190  -37.6487   23.6678 H   0  0  0  0  0  0
  -26.0115  -31.6244   20.5839 H   0  0  0  0  0  0
  -26.8091  -30.9210   21.9629 H   0  0  0  0  0  0
  -28.0940  -29.1681   21.1432 H   0  0  0  0  0  0
  -26.0913  -25.9921   19.0220 H   0  0  0  0  0  0
  -23.9803  -27.2887   19.0501 H   0  0  0  0  0  0
  -23.7029  -30.6026   19.4055 H   0  0  0  0  0  0
  -22.7253  -29.2436   19.8740 H   0  0  0  0  0  0
  -25.1244  -36.1978   25.0837 H   0  0  0  0  0  0
  -20.9943  -28.3200   24.1456 H   0  0  0  0  0  0
  -20.5642  -26.2243   23.3595 H   0  0  0  0  0  0
  -21.6630  -26.7432   22.1222 H   0  0  0  0  0  0
  -19.6901  -25.6304   21.1211 H   0  0  0  0  0  0
  -19.6681  -27.3212   20.6744 H   0  0  0  0  0  0
  -17.4182  -26.6663   21.4014 H   0  0  0  0  0  0
  -18.0318  -26.0058   22.9009 H   0  0  0  0  0  0
  -19.7921  -30.7227   24.2312 H   0  0  0  0  0  0
  -17.5010  -31.6265   24.5153 H   0  0  0  0  0  0
  -15.5339  -30.2991   23.7643 H   0  0  0  0  0  0
  -15.8651  -28.0829   22.7049 H   0  0  0  0  0  0
  -24.5898  -30.7097   25.7850 H   0  0  0  0  0  0
  -24.9019  -32.2869   26.5006 H   0  0  0  0  0  0
  -25.8153  -30.8825   27.0207 H   0  0  0  0  0  0
  -26.2722  -29.6821   24.1146 H   0  0  0  0  0  0
  -27.4096  -29.7254   25.4431 H   0  0  0  0  0  0
  -27.8536  -30.4345   23.9065 H   0  0  0  0  0  0
  -27.2763  -33.3590   26.2044 H   0  0  0  0  0  0
  -28.3887  -32.6796   25.0249 H   0  0  0  0  0  0
  -28.0758  -31.8367   26.5338 H   0  0  0  0  0  0
  -28.2540  -38.0146   24.7620 H   0  0  0  0  0  0
  -28.1155  -36.2691   24.6086 H   0  0  0  0  0  0
  -27.2348  -37.1223   25.8852 H   0  0  0  0  0  0
  -20.9255  -29.8745   21.6990 H   0  0  0  0  0  0
  -26.0154  -38.2871   24.1543 H   0  0  0  0  0  0
  -32.1289  -23.4615   19.4422 H   0  0  0  0  0  0
  -27.2713  -23.5977   19.2069 H   0  0  0  0  0  0
  -32.2635  -23.0247   16.7064 H   0  0  0  0  0  0
  -32.9177  -21.3090   16.6308 H   0  0  0  0  0  0
  -30.7289  -20.5072   15.7862 H   0  0  0  0  0  0
  -30.0506  -22.2129   15.8725 H   0  0  0  0  0  0
  -30.7555  -15.9116   18.4098 H   0  0  0  0  0  0
  -29.0909  -15.4421   18.3774 H   0  0  0  0  0  0
  -29.0452  -16.1300   22.1484 H   0  0  0  0  0  0
  -30.7517  -16.4275   22.0443 H   0  0  0  0  0  0
  -28.3300  -17.6170   18.8679 H   0  0  0  0  0  0
  -29.6632  -17.8403   17.7670 H   0  0  0  0  0  0
  -30.0383  -18.5970   21.8936 H   0  0  0  0  0  0
  -28.5041  -18.1863   21.1755 H   0  0  0  0  0  0
  -28.8664  -25.7253   21.7695 H   0  0  0  0  0  0
  -27.3553  -25.2361   21.0546 H   0  0  0  0  0  0
  -32.0770  -20.3197   19.1834 H   0  0  0  0  0  0
  -31.4330  -19.4303   17.8374 H   0  0  0  0  0  0
  -29.0496  -19.9827   18.9821 H   0  0  0  0  0  0
  -30.0245  -20.3797   20.3742 H   0  0  0  0  0  0
  -31.0633  -18.0968   19.7873 H   0  0  0  0  0  0
  1 25  1  0  0  0
  1 30  2  0  0  0
  1 87  1  0  0  0
  2  3  1  0  0  0
  2 25  1  0  0  0
  2 89  1  0  0  0
  2 90  1  0  0  0
  3  4  1  0  0  0
  3 91  1  0  0  0
  3 92  1  0  0  0
  4  5  1  0  0  0
  4 93  1  0  0  0
  4 94  1  0  0  0
  5  6  1  0  0  0
  5 26  1  0  0  0
  5 95  1  0  0  0
  6 25  1  0  0  0
  6 96  1  0  0  0
  6 97  1  0  0  0
  7  8  2  0  0  0
  7 26  1  0  0  0
  7 29  1  0  0  0
  8  9  1  0  0  0
  8 22  1  0  0  0
  9 10  1  0  0  0
  9 27  2  0  0  0
 10 11  2  0  0  0
 10 15  1  0  0  0
 11 12  1  0  0  0
 11 98  1  0  0  0
 12 13  2  0  0  0
 12 99  1  0  0  0
 13 14  1  0  0  0
 13 31  1  0  0  0
 14 15  2  0  0  0
 14100  1  0  0  0
 15101  1  0  0  0
 16 17  2  0  0  0
 16 21  1  0  0  0
 16 31  1  0  0  0
 17 18  1  0  0  0
 17102  1  0  0  0
 18 19  2  0  0  0
 18103  1  0  0  0
 19 20  1  0  0  0
 19 24  1  0  0  0
 20 21  2  0  0  0
 20104  1  0  0  0
 21 23  1  0  0  0
 22 28  1  0  0  0
 22 32  2  0  0  0
 26 27  1  0  0  0
 28105  1  0  0  0
 28106  1  0  0  0
 29107  1  0  0  0
 29108  1  0  0  0
 33 34  1  0  0  0
 33 66  1  0  0  0
 33 70  2  0  0  0
 34 36  1  0  0  0
 34 59  1  0  0  0
 34109  1  0  0  0
 35 44  2  0  0  0
 35 45  1  0  0  0
 35 68  1  0  0  0
 36 56  1  0  0  0
 36110  1  0  0  0
 37 39  1  0  0  0
 37 47  1  0  0  0
 37 66  1  0  0  0
 37111  1  0  0  0
 38 43  2  0  0  0
 38 46  1  0  0  0
 38 47  1  0  0  0
 39 64  1  0  0  0
 39 67  2  0  0  0
 40 52  1  0  0  0
 40 53  2  0  0  0
 40 58  1  0  0  0
 41112  1  0  0  0
 41113  1  0  0  0
 41114  1  0  0  0
 41 48  1  0  0  0
 42 43  1  0  0  0
 42 66  1  0  0  0
 42115  1  0  0  0
 42116  1  0  0  0
 43 44  1  0  0  0
 44117  1  0  0  0
 45 46  2  0  0  0
 45118  1  0  0  0
 46119  1  0  0  0
 47120  1  0  0  0
 47121  1  0  0  0
 48 56  1  0  0  0
 48 65  1  0  0  0
 48122  1  0  0  0
 49 50  1  0  0  0
 49 53  1  0  0  0
 49 64  1  0  0  0
 49123  1  0  0  0
 50 51  1  0  0  0
 50124  1  0  0  0
 50125  1  0  0  0
 51 52  1  0  0  0
 51126  1  0  0  0
 51127  1  0  0  0
 52128  1  0  0  0
 52129  1  0  0  0
 53 54  1  0  0  0
 54 55  2  0  0  0
 54130  1  0  0  0
 55 57  1  0  0  0
 55131  1  0  0  0
 56 69  2  0  0  0
 57 58  2  0  0  0
 57132  1  0  0  0
 58133  1  0  0  0
 59 60  1  0  0  0
 59 61  1  0  0  0
 59 62  1  0  0  0
 60134  1  0  0  0
 60135  1  0  0  0
 60136  1  0  0  0
 61137  1  0  0  0
 61138  1  0  0  0
 61139  1  0  0  0
 62140  1  0  0  0
 62141  1  0  0  0
 62142  1  0  0  0
 63 65  1  0  0  0
 63143  1  0  0  0
 63144  1  0  0  0
 63145  1  0  0  0
 64146  1  0  0  0
 65147  1  0  0  0
 68 82  1  0  0  0
 71 73  2  0  0  0
 71 86  1  0  0  0
 71148  1  0  0  0
 72 74  1  0  0  0
 72 85  2  0  0  0
 72149  1  0  0  0
 73 81  1  0  0  0
 73 85  1  0  0  0
 74 82  1  0  0  0
 74 86  2  0  0  0
 75 76  1  0  0  0
 75 81  1  0  0  0
 75150  1  0  0  0
 75151  1  0  0  0
 76 81  1  0  0  0
 76152  1  0  0  0
 76153  1  0  0  0
 77 79  1  0  0  0
 77 87  1  0  0  0
 77154  1  0  0  0
 77155  1  0  0  0
 78 80  1  0  0  0
 78 87  1  0  0  0
 78156  1  0  0  0
 78157  1  0  0  0
 79 88  1  0  0  0
 79158  1  0  0  0
 79159  1  0  0  0
 80 88  1  0  0  0
 80160  1  0  0  0
 80161  1  0  0  0
 81 83  1  0  0  0
 82162  1  0  0  0
 82163  1  0  0  0
 83 84  1  0  0  0
 83164  1  0  0  0
 83165  1  0  0  0
 84166  1  0  0  0
 84167  1  0  0  0
 84 88  1  0  0  0
 88168  1  0  0  0
M  CHG  1  88   1
M  ISO  4   1 100  68 101  82 101  87 100
M  END
> <chiral flag>
0

> <version>
0

> <s_m_source_file>
/data/baiqing/PycharmProjects/Reinvent-master-3.2/result/LINK_invent/BTK/process_docking_weight1_custom_sum_contain_oxygen_bond_distance_aromatic_linkinvent_7_9_3/rearranged_h_0191.sdf

> <i_m_source_file_index>
40

> <r_mmod_Potential_Energy-OPLS-2005>
236.222351074219

> <r_mmod_Stretch_Energy-OPLS-2005>
35.6998710632324

> <r_mmod_Bend_Energy-OPLS-2005>
101.906616210938

> <r_mmod_Torsional_Energy-OPLS-2005>
466.962738037109

> <r_mmod_Improper_Torsional_Energy-OPLS-2005>
17.3399772644043

> <r_mmod_Van_der_Waal_Energy-OPLS-2005>
163.728118896484

> <r_mmod_Electrostatic_Energy-OPLS-2005>
-130.675750732422

> <r_mmod_Solvation_Energy-OPLS-2005>
-438.277130126953

> <b_mmod_Minimization_Converged-OPLS-2005>
0

> <r_mmod_RMS_Derivative-OPLS-2005>
1.4742180109024

$$$$
40
                    3D
 Structure written by MMmdl.
169179  0  0  1  0            999 V2000
  -30.7173  -14.5215   20.5964 C   0  0  0  0  0  0
  -30.4195  -12.3500   19.4350 C   0  0  0  0  0  0
  -29.4922  -12.5027   18.2120 C   0  0  0  0  0  0
  -28.0195  -12.3219   18.6254 C   0  0  0  0  0  0
  -27.6531  -13.1833   19.8583 C   0  0  2  0  0  0
  -28.6985  -13.0030   20.9913 C   0  0  0  0  0  0
  -25.2568  -13.8095   20.5618 C   0  0  0  0  0  0
  -24.1822  -13.0406   20.9182 C   0  0  0  0  0  0
  -24.6359  -11.6867   20.8753 C   0  0  0  0  0  0
  -23.9027  -10.4271   21.0424 C   0  0  0  0  0  0
  -24.3590   -9.4189   21.9196 C   0  0  0  0  0  0
  -23.6273   -8.2222   22.0755 C   0  0  0  0  0  0
  -22.4258   -8.0266   21.3541 C   0  0  0  0  0  0
  -21.9889   -9.0238   20.4646 C   0  0  0  0  0  0
  -22.7209  -10.2120   20.3064 C   0  0  0  0  0  0
  -21.6841   -6.0730   22.5279 C   0  0  0  0  0  0
  -21.4005   -6.5637   23.8213 C   0  0  0  0  0  0
  -21.3658   -5.6791   24.9176 C   0  0  0  0  0  0
  -21.6046   -4.3054   24.7226 C   0  0  0  0  0  0
  -21.8817   -3.8145   23.4348 C   0  0  0  0  0  0
  -21.9187   -4.6960   22.3404 C   0  0  0  0  0  0
  -22.7856  -13.5228   21.1854 C   0  0  0  0  0  0
  -22.1656   -4.2147   21.0981 F   0  0  0  0  0  0
  -21.5632   -3.4539   25.7741 F   0  0  0  0  0  0
  -30.0166  -13.3527   20.4443 N   0  0  0  0  0  0
  -26.2968  -12.9215   20.3274 N   0  0  0  0  0  0
  -25.9268  -11.6409   20.5757 N   0  0  0  0  0  0
  -22.0491  -12.8233   22.0417 N   0  0  0  0  0  0
  -25.4264  -15.1805   20.3950 N   0  0  0  0  0  0
  -31.8383  -14.6404   20.0894 O   0  0  0  0  0  0
  -21.6622   -6.8867   21.4239 O   0  0  0  0  0  0
  -22.3552  -14.5540   20.6705 O   0  0  0  0  0  0
  -24.6150  -31.8669   23.2080 C   0  0  0  0  0  0
  -25.9040  -32.4816   23.8383 C   0  0  1  0  0  0
  -27.2391  -27.4270   20.1075 C   0  0  0  0  0  0
  -25.5893  -33.8614   24.2318 N   0  0  0  0  0  0
  -23.4037  -30.4878   21.5488 C   0  0  2  0  0  0
  -24.8523  -28.9470   20.1190 C   0  0  0  0  0  0
  -22.7410  -29.4652   22.4994 C   0  0  0  0  0  0
  -18.0271  -28.1376   22.8494 C   0  0  0  0  0  0
  -24.1487  -36.7314   23.2638 C   0  0  0  0  0  0
  -25.9318  -30.8316   21.3599 C   0  0  0  0  0  0
  -26.0118  -29.4635   20.7109 C   0  0  0  0  0  0
  -27.2105  -28.7136   20.6952 C   0  0  0  0  0  0
  -26.0639  -26.9216   19.5126 C   0  0  0  0  0  0
  -24.8734  -27.6761   19.5156 C   0  0  0  0  0  0
  -23.6133  -29.8143   20.1656 C   0  0  0  0  0  0
  -25.4108  -36.3109   24.0338 C   0  0  1  0  0  0
  -20.5860  -28.3662   23.1321 C   0  0  2  0  0  0
  -20.6763  -26.9399   22.5419 C   0  0  0  0  0  0
  -19.5743  -26.6384   21.5214 C   0  0  0  0  0  0
  -18.1919  -26.7922   22.1623 C   0  0  0  0  0  0
  -19.1520  -28.8837   23.2903 C   0  0  0  0  0  0
  -18.9448  -30.1443   23.8913 C   0  0  0  0  0  0
  -17.6451  -30.6584   24.0564 C   0  0  0  0  0  0
  -25.9036  -34.9473   23.5129 C   0  0  0  0  0  0
  -16.5343  -29.9087   23.6326 C   0  0  0  0  0  0
  -16.7260  -28.6502   23.0349 C   0  0  0  0  0  0
  -26.4469  -31.6596   25.0712 C   0  0  0  0  0  0
  -25.3741  -31.3695   26.1465 C   0  0  0  0  0  0
  -27.0301  -30.3044   24.6079 C   0  0  0  0  0  0
  -27.6048  -32.4315   25.7473 C   0  0  0  0  0  0
  -27.5583  -37.1807   24.8463 C   0  0  0  0  0  0
  -21.4138  -29.3029   22.3732 N   0  0  0  0  0  0
  -26.4293  -37.3794   23.9411 N   0  0  0  0  0  0
  -24.6685  -31.0766   22.0978 N   0  0  0  0  0  0
  -23.4182  -28.8196   23.3038 O   0  0  0  0  0  0
  -28.4081  -26.6961   20.0815 O   0  0  0  0  0  0
  -26.5598  -34.8926   22.4691 O   0  0  0  0  0  0
  -23.5342  -32.1417   23.7477 O   0  0  0  0  0  0
  -30.9159  -18.4270   17.3314 C   0  0  0  0  0  0
  -30.8197  -19.9256   17.1366 C   0  0  0  0  0  0
  -31.2386  -17.8026   20.9475 C   0  0  0  0  0  0
  -28.9021  -17.2809   20.1729 C   0  0  0  0  0  0
  -29.2994  -19.6038   21.3693 C   0  0  0  0  0  0
  -31.1174  -16.5852   21.9099 C   0  0  0  0  0  0
  -28.8853  -16.1733   21.2462 C   0  0  0  0  0  0
  -31.0278  -19.3538   18.5168 C   0  0  0  0  0  0
  -29.9194  -20.5657   20.3402 C   0  0  2  0  0  0
  -29.8650  -18.4182   20.5508 C   0  0  0  0  0  0
  -29.1483  -21.7539   19.7063 C   0  0  0  0  0  0
  -28.6703  -24.2207   19.8384 C   0  0  0  0  0  0
  -28.3975  -25.4309   20.7736 C   0  0  0  0  0  0
  -30.2166  -15.5460   21.3624 N   0  0  0  0  0  0
  -29.9084  -19.4013   19.4506 N   0  0  0  0  0  0
  -29.0753  -22.9712   20.5599 N   0  3  0  0  0  0
  -31.4616  -12.4491   19.1268 H   0  0  0  0  0  0
  -30.3389  -11.3447   19.8516 H   0  0  0  0  0  0
  -29.7565  -11.7737   17.4450 H   0  0  0  0  0  0
  -29.6317  -13.4867   17.7617 H   0  0  0  0  0  0
  -27.8617  -11.2664   18.8501 H   0  0  0  0  0  0
  -27.3596  -12.5558   17.7890 H   0  0  0  0  0  0
  -27.6758  -14.2038   19.4837 H   0  0  0  0  0  0
  -28.7059  -11.9645   21.3254 H   0  0  0  0  0  0
  -28.4534  -13.5719   21.8873 H   0  0  0  0  0  0
  -25.2733   -9.5665   22.4771 H   0  0  0  0  0  0
  -23.9982   -7.4610   22.7470 H   0  0  0  0  0  0
  -21.0819   -8.8757   19.8952 H   0  0  0  0  0  0
  -22.3672  -10.9661   19.6174 H   0  0  0  0  0  0
  -21.1995   -7.6144   23.9716 H   0  0  0  0  0  0
  -21.1485   -6.0522   25.9079 H   0  0  0  0  0  0
  -22.0600   -2.7608   23.2847 H   0  0  0  0  0  0
  -22.4089  -11.9884   22.4801 H   0  0  0  0  0  0
  -21.1115  -13.1273   22.2628 H   0  0  0  0  0  0
  -24.6563  -15.8320   20.4995 H   0  0  0  0  0  0
  -26.2690  -15.6171   20.0462 H   0  0  0  0  0  0
  -26.7112  -32.5530   23.1149 H   0  0  0  0  0  0
  -25.0057  -33.9775   25.0472 H   0  0  0  0  0  0
  -22.6926  -31.3041   21.4064 H   0  0  0  0  0  0
  -23.3746  -35.9650   23.3305 H   0  0  0  0  0  0
  -24.3581  -36.8926   22.2052 H   0  0  0  0  0  0
  -23.7242  -37.6522   23.6650 H   0  0  0  0  0  0
  -26.0412  -31.5950   20.5884 H   0  0  0  0  0  0
  -26.8205  -30.8891   21.9766 H   0  0  0  0  0  0
  -28.1093  -29.1133   21.1437 H   0  0  0  0  0  0
  -26.0684  -25.9499   19.0392 H   0  0  0  0  0  0
  -23.9821  -27.2739   19.0539 H   0  0  0  0  0  0
  -23.7204  -30.5859   19.4023 H   0  0  0  0  0  0
  -22.7377  -29.2320   19.8725 H   0  0  0  0  0  0
  -25.1284  -36.1974   25.0831 H   0  0  0  0  0  0
  -20.9947  -28.3224   24.1442 H   0  0  0  0  0  0
  -20.5669  -26.2269   23.3605 H   0  0  0  0  0  0
  -21.6634  -26.7446   22.1208 H   0  0  0  0  0  0
  -19.6906  -25.6299   21.1232 H   0  0  0  0  0  0
  -19.6684  -27.3204   20.6751 H   0  0  0  0  0  0
  -17.4192  -26.6677   21.4020 H   0  0  0  0  0  0
  -18.0317  -26.0056   22.9012 H   0  0  0  0  0  0
  -19.7924  -30.7253   24.2290 H   0  0  0  0  0  0
  -17.5007  -31.6267   24.5159 H   0  0  0  0  0  0
  -15.5345  -30.2995   23.7642 H   0  0  0  0  0  0
  -15.8658  -28.0828   22.7058 H   0  0  0  0  0  0
  -24.5911  -30.7044   25.7801 H   0  0  0  0  0  0
  -24.8934  -32.2846   26.4932 H   0  0  0  0  0  0
  -25.8102  -30.8851   27.0211 H   0  0  0  0  0  0
  -26.2837  -29.6801   24.1150 H   0  0  0  0  0  0
  -27.4098  -29.7283   25.4526 H   0  0  0  0  0  0
  -27.8657  -30.4370   23.9203 H   0  0  0  0  0  0
  -27.2669  -33.3605   26.2076 H   0  0  0  0  0  0
  -28.3842  -32.6891   25.0290 H   0  0  0  0  0  0
  -28.0731  -31.8422   26.5367 H   0  0  0  0  0  0
  -28.2596  -38.0108   24.7525 H   0  0  0  0  0  0
  -28.1083  -36.2642   24.6270 H   0  0  0  0  0  0
  -27.2303  -37.1435   25.8866 H   0  0  0  0  0  0
  -20.9302  -29.8752   21.6952 H   0  0  0  0  0  0
  -26.0183  -38.2873   24.1415 H   0  0  0  0  0  0
  -31.8250  -17.9310   16.9968 H   0  0  0  0  0  0
  -30.0012  -17.8502   17.2093 H   0  0  0  0  0  0
  -29.8411  -20.3318   16.8875 H   0  0  0  0  0  0
  -31.6646  -20.4263   16.6674 H   0  0  0  0  0  0
  -31.7737  -17.4473   20.0665 H   0  0  0  0  0  0
  -31.8838  -18.5562   21.4008 H   0  0  0  0  0  0
  -27.8899  -17.6657   20.0397 H   0  0  0  0  0  0
  -29.1768  -16.8423   19.2128 H   0  0  0  0  0  0
  -28.2083  -19.6406   21.3853 H   0  0  0  0  0  0
  -29.7109  -19.6953   22.3751 H   0  0  0  0  0  0
  -30.7465  -16.9169   22.8809 H   0  0  0  0  0  0
  -32.1083  -16.1742   22.1133 H   0  0  0  0  0  0
  -28.0810  -15.4889   21.0427 H   0  0  0  0  0  0
  -28.6053  -16.6094   22.2066 H   0  0  0  0  0  0
  -32.0374  -19.4694   18.9096 H   0  0  0  0  0  0
  -30.9545  -20.7968   20.5997 H   0  0  0  0  0  0
  -28.1333  -21.4552   19.4403 H   0  0  0  0  0  0
  -29.6334  -22.0333   18.7701 H   0  0  0  0  0  0
  -29.4681  -24.4833   19.1430 H   0  0  0  0  0  0
  -27.7824  -24.0289   19.2351 H   0  0  0  0  0  0
  -29.1868  -25.4891   21.5238 H   0  0  0  0  0  0
  -27.4704  -25.2774   21.3293 H   0  0  0  0  0  0
  -29.9825  -23.1175   20.9752 H   0  0  0  0  0  0
  -28.4288  -22.7825   21.3105 H   0  0  0  0  0  0
  1 25  1  0  0  0
  1 30  2  0  0  0
  1 84  1  0  0  0
  2  3  1  0  0  0
  2 25  1  0  0  0
  2 87  1  0  0  0
  2 88  1  0  0  0
  3  4  1  0  0  0
  3 89  1  0  0  0
  3 90  1  0  0  0
  4  5  1  0  0  0
  4 91  1  0  0  0
  4 92  1  0  0  0
  5  6  1  0  0  0
  5 26  1  0  0  0
  5 93  1  0  0  0
  6 25  1  0  0  0
  6 94  1  0  0  0
  6 95  1  0  0  0
  7  8  2  0  0  0
  7 26  1  0  0  0
  7 29  1  0  0  0
  8  9  1  0  0  0
  8 22  1  0  0  0
  9 10  1  0  0  0
  9 27  2  0  0  0
 10 11  2  0  0  0
 10 15  1  0  0  0
 11 12  1  0  0  0
 11 96  1  0  0  0
 12 13  2  0  0  0
 12 97  1  0  0  0
 13 14  1  0  0  0
 13 31  1  0  0  0
 14 15  2  0  0  0
 14 98  1  0  0  0
 15 99  1  0  0  0
 16 17  2  0  0  0
 16 21  1  0  0  0
 16 31  1  0  0  0
 17 18  1  0  0  0
 17100  1  0  0  0
 18 19  2  0  0  0
 18101  1  0  0  0
 19 20  1  0  0  0
 19 24  1  0  0  0
 20 21  2  0  0  0
 20102  1  0  0  0
 21 23  1  0  0  0
 22 28  1  0  0  0
 22 32  2  0  0  0
 26 27  1  0  0  0
 28103  1  0  0  0
 28104  1  0  0  0
 29105  1  0  0  0
 29106  1  0  0  0
 33 34  1  0  0  0
 33 66  1  0  0  0
 33 70  2  0  0  0
 34 36  1  0  0  0
 34 59  1  0  0  0
 34107  1  0  0  0
 35 44  2  0  0  0
 35 45  1  0  0  0
 35 68  1  0  0  0
 36 56  1  0  0  0
 36108  1  0  0  0
 37 39  1  0  0  0
 37 47  1  0  0  0
 37 66  1  0  0  0
 37109  1  0  0  0
 38 43  2  0  0  0
 38 46  1  0  0  0
 38 47  1  0  0  0
 39 64  1  0  0  0
 39 67  2  0  0  0
 40 52  1  0  0  0
 40 53  2  0  0  0
 40 58  1  0  0  0
 41110  1  0  0  0
 41111  1  0  0  0
 41112  1  0  0  0
 41 48  1  0  0  0
 42 43  1  0  0  0
 42 66  1  0  0  0
 42113  1  0  0  0
 42114  1  0  0  0
 43 44  1  0  0  0
 44115  1  0  0  0
 45 46  2  0  0  0
 45116  1  0  0  0
 46117  1  0  0  0
 47118  1  0  0  0
 47119  1  0  0  0
 48 56  1  0  0  0
 48 65  1  0  0  0
 48120  1  0  0  0
 49 50  1  0  0  0
 49 53  1  0  0  0
 49 64  1  0  0  0
 49121  1  0  0  0
 50 51  1  0  0  0
 50122  1  0  0  0
 50123  1  0  0  0
 51 52  1  0  0  0
 51124  1  0  0  0
 51125  1  0  0  0
 52126  1  0  0  0
 52127  1  0  0  0
 53 54  1  0  0  0
 54 55  2  0  0  0
 54128  1  0  0  0
 55 57  1  0  0  0
 55129  1  0  0  0
 56 69  2  0  0  0
 57 58  2  0  0  0
 57130  1  0  0  0
 58131  1  0  0  0
 59 60  1  0  0  0
 59 61  1  0  0  0
 59 62  1  0  0  0
 60132  1  0  0  0
 60133  1  0  0  0
 60134  1  0  0  0
 61135  1  0  0  0
 61136  1  0  0  0
 61137  1  0  0  0
 62138  1  0  0  0
 62139  1  0  0  0
 62140  1  0  0  0
 63 65  1  0  0  0
 63141  1  0  0  0
 63142  1  0  0  0
 63143  1  0  0  0
 64144  1  0  0  0
 65145  1  0  0  0
 68 83  1  0  0  0
 71 72  1  0  0  0
 71 78  1  0  0  0
 71146  1  0  0  0
 71147  1  0  0  0
 72 78  1  0  0  0
 72148  1  0  0  0
 72149  1  0  0  0
 73 76  1  0  0  0
 73150  1  0  0  0
 73151  1  0  0  0
 73 80  1  0  0  0
 74 77  1  0  0  0
 74 80  1  0  0  0
 74152  1  0  0  0
 74153  1  0  0  0
 75 79  1  0  0  0
 75 80  1  0  0  0
 75154  1  0  0  0
 75155  1  0  0  0
 76 84  1  0  0  0
 76156  1  0  0  0
 76157  1  0  0  0
 77 84  1  0  0  0
 77158  1  0  0  0
 77159  1  0  0  0
 78160  1  0  0  0
 78 85  1  0  0  0
 79 81  1  0  0  0
 79 85  1  0  0  0
 79161  1  0  0  0
 80 85  1  0  0  0
 81 86  1  0  0  0
 81162  1  0  0  0
 81163  1  0  0  0
 82 83  1  0  0  0
 82 86  1  0  0  0
 82164  1  0  0  0
 82165  1  0  0  0
 83166  1  0  0  0
 83167  1  0  0  0
 86168  1  0  0  0
 86169  1  0  0  0
M  CHG  1  86   1
M  ISO  4   1 100  68 101  83 101  84 100
M  END
> <chiral flag>
0

> <version>
0

> <s_m_source_file>
/data/baiqing/PycharmProjects/Reinvent-master-3.2/result/LINK_invent/BTK/process_docking_weight1_custom_sum_contain_oxygen_bond_distance_aromatic_linkinvent_7_9_3/rearranged_h_0191.sdf

> <i_m_source_file_index>
41

> <r_mmod_Potential_Energy-OPLS-2005>
68.2720489501953

> <r_mmod_Stretch_Energy-OPLS-2005>
47.1335258483887

> <r_mmod_Bend_Energy-OPLS-2005>
142.136993408203

> <r_mmod_Torsional_Energy-OPLS-2005>
362.824859619141

> <r_mmod_Improper_Torsional_Energy-OPLS-2005>
4.31381893157959

> <r_mmod_Van_der_Waal_Energy-OPLS-2005>
138.048202514648

> <r_mmod_Electrostatic_Energy-OPLS-2005>
-209.263748168945

> <r_mmod_Solvation_Energy-OPLS-2005>
-433.350677490234

> <b_mmod_Minimization_Converged-OPLS-2005>
0

> <r_mmod_RMS_Derivative-OPLS-2005>
0.466728806495667

$$$$
41
                    3D
 Structure written by MMmdl.
150159  0  0  1  0            999 V2000
  -30.6029  -14.8452   20.4377 C   0  0  0  0  0  0
  -30.4397  -12.5228   19.4806 C   0  0  0  0  0  0
  -29.5164  -12.5194   18.2426 C   0  0  0  0  0  0
  -28.0465  -12.3292   18.6621 C   0  0  0  0  0  0
  -27.6406  -13.2460   19.8478 C   0  0  2  0  0  0
  -28.6890  -13.2311   20.9804 C   0  0  0  0  0  0
  -25.2509  -13.8232   20.5720 C   0  0  0  0  0  0
  -24.1814  -13.0452   20.9211 C   0  0  0  0  0  0
  -24.6428  -11.6934   20.8762 C   0  0  0  0  0  0
  -23.9110  -10.4302   21.0420 C   0  0  0  0  0  0
  -24.3645   -9.4206   21.9196 C   0  0  0  0  0  0
  -23.6310   -8.2250   22.0755 C   0  0  0  0  0  0
  -22.4292   -8.0294   21.3546 C   0  0  0  0  0  0
  -21.9937   -9.0275   20.4650 C   0  0  0  0  0  0
  -22.7278  -10.2153   20.3065 C   0  0  0  0  0  0
  -21.6856   -6.0750   22.5277 C   0  0  0  0  0  0
  -21.4013   -6.5646   23.8206 C   0  0  0  0  0  0
  -21.3662   -5.6796   24.9174 C   0  0  0  0  0  0
  -21.6037   -4.3061   24.7225 C   0  0  0  0  0  0
  -21.8824   -3.8154   23.4342 C   0  0  0  0  0  0
  -21.9188   -4.6970   22.3400 C   0  0  0  0  0  0
  -22.7825  -13.5212   21.1854 C   0  0  0  0  0  0
  -22.1659   -4.2160   21.0975 F   0  0  0  0  0  0
  -21.5631   -3.4538   25.7735 F   0  0  0  0  0  0
  -29.9763  -13.6085   20.3827 N   0  0  0  0  0  0
  -26.2955  -12.9465   20.3305 N   0  0  0  0  0  0
  -25.9370  -11.6595   20.5773 N   0  0  0  0  0  0
  -22.0480  -12.8197   22.0418 N   0  0  0  0  0  0
  -25.4175  -15.1963   20.4171 N   0  0  0  0  0  0
  -31.8004  -14.9092   20.1452 O   0  0  0  0  0  0
  -21.6644   -6.8899   21.4243 O   0  0  0  0  0  0
  -22.3494  -14.5512   20.6696 O   0  0  0  0  0  0
  -24.6378  -31.8481   23.1911 C   0  0  0  0  0  0
  -25.9170  -32.4713   23.8283 C   0  0  1  0  0  0
  -27.2305  -27.2013   20.1432 C   0  0  0  0  0  0
  -25.5939  -33.8513   24.2202 N   0  0  0  0  0  0
  -23.4384  -30.4677   21.5348 C   0  0  2  0  0  0
  -24.8885  -28.9010   20.1141 C   0  0  0  0  0  0
  -22.7535  -29.4570   22.4877 C   0  0  0  0  0  0
  -18.0304  -28.1380   22.8482 C   0  0  0  0  0  0
  -24.1500  -36.7280   23.2645 C   0  0  0  0  0  0
  -25.9888  -30.7433   21.3785 C   0  0  0  0  0  0
  -26.0632  -29.3598   20.7218 C   0  0  0  0  0  0
  -27.2357  -28.5266   20.7190 C   0  0  0  0  0  0
  -26.0266  -26.8209   19.5094 C   0  0  0  0  0  0
  -24.8790  -27.6412   19.4955 C   0  0  0  0  0  0
  -23.6600  -29.7928   20.1558 C   0  0  0  0  0  0
  -25.4129  -36.3043   24.0316 C   0  0  1  0  0  0
  -20.5910  -28.3705   23.1252 C   0  0  2  0  0  0
  -20.6786  -26.9411   22.5406 C   0  0  0  0  0  0
  -19.5761  -26.6375   21.5214 C   0  0  0  0  0  0
  -18.1945  -26.7922   22.1627 C   0  0  0  0  0  0
  -19.1556  -28.8856   23.2860 C   0  0  0  0  0  0
  -18.9474  -30.1461   23.8881 C   0  0  0  0  0  0
  -17.6467  -30.6578   24.0562 C   0  0  0  0  0  0
  -25.9067  -34.9413   23.5068 C   0  0  0  0  0  0
  -16.5355  -29.9067   23.6328 C   0  0  0  0  0  0
  -16.7288  -28.6490   23.0355 C   0  0  0  0  0  0
  -26.4509  -31.6564   25.0702 C   0  0  0  0  0  0
  -25.3706  -31.3733   26.1407 C   0  0  0  0  0  0
  -27.0369  -30.2968   24.6249 C   0  0  0  0  0  0
  -27.6042  -32.4321   25.7490 C   0  0  0  0  0  0
  -27.5580  -37.1799   24.8464 C   0  0  0  0  0  0
  -21.4232  -29.3046   22.3627 N   0  0  0  0  0  0
  -26.4301  -37.3746   23.9391 N   0  0  0  0  0  0
  -24.7077  -31.0394   22.0906 N   0  0  0  0  0  0
  -23.4208  -28.8128   23.3011 O   0  0  0  0  0  0
  -28.3180  -26.2743   20.2034 O   0  0  0  0  0  0
  -26.5656  -34.8904   22.4649 O   0  0  0  0  0  0
  -23.5508  -32.1323   23.7173 O   0  0  0  0  0  0
  -29.9922  -21.0178   20.0692 C   0  0  0  0  0  0
  -29.4311  -19.7765   20.4187 C   0  0  0  0  0  0
  -30.2906  -17.2346   21.4864 C   0  0  0  0  0  0
  -29.2570  -16.9847   19.6993 C   0  0  0  0  0  0
  -29.9632  -18.2376   20.3285 C   0  0  0  0  0  0
  -29.2760  -23.6394   20.3737 C   0  0  0  0  0  0
  -28.0983  -24.7594   20.0760 C   0  0  0  0  0  0
  -28.1838  -20.1610   20.9455 N   0  0  0  0  0  0
  -28.0052  -21.4772   20.9323 N   0  0  0  0  0  0
  -29.0898  -22.0868   20.3763 N   0  0  0  0  0  0
  -29.8680  -16.0224   20.6899 N   0  0  0  0  0  0
  -31.4761  -12.6608   19.1695 H   0  0  0  0  0  0
  -30.4102  -11.5579   19.9887 H   0  0  0  0  0  0
  -29.8150  -11.7303   17.5516 H   0  0  0  0  0  0
  -29.6261  -13.4596   17.6995 H   0  0  0  0  0  0
  -27.9202  -11.2829   18.9448 H   0  0  0  0  0  0
  -27.3860  -12.4986   17.8111 H   0  0  0  0  0  0
  -27.6215  -14.2608   19.4483 H   0  0  0  0  0  0
  -28.7499  -12.2488   21.4508 H   0  0  0  0  0  0
  -28.4163  -13.9349   21.7680 H   0  0  0  0  0  0
  -25.2806   -9.5664   22.4753 H   0  0  0  0  0  0
  -24.0010   -7.4641   22.7479 H   0  0  0  0  0  0
  -21.0867   -8.8820   19.8959 H   0  0  0  0  0  0
  -22.3768  -10.9687   19.6165 H   0  0  0  0  0  0
  -21.2012   -7.6151   23.9719 H   0  0  0  0  0  0
  -21.1474   -6.0524   25.9074 H   0  0  0  0  0  0
  -22.0600   -2.7614   23.2840 H   0  0  0  0  0  0
  -22.4113  -11.9868   22.4803 H   0  0  0  0  0  0
  -21.1095  -13.1203   22.2637 H   0  0  0  0  0  0
  -24.6543  -15.8508   20.5462 H   0  0  0  0  0  0
  -26.2829  -15.6413   20.1385 H   0  0  0  0  0  0
  -26.7239  -32.5331   23.1013 H   0  0  0  0  0  0
  -25.0032  -33.9633   25.0317 H   0  0  0  0  0  0
  -22.7384  -31.2922   21.3827 H   0  0  0  0  0  0
  -23.3751  -35.9625   23.3296 H   0  0  0  0  0  0
  -24.3592  -36.8924   22.2064 H   0  0  0  0  0  0
  -23.7267  -37.6480   23.6688 H   0  0  0  0  0  0
  -26.1350  -31.5006   20.6077 H   0  0  0  0  0  0
  -26.8627  -30.7932   22.0165 H   0  0  0  0  0  0
  -28.1319  -28.8797   21.2097 H   0  0  0  0  0  0
  -25.9423  -25.8545   19.0362 H   0  0  0  0  0  0
  -23.9775  -27.2777   19.0218 H   0  0  0  0  0  0
  -23.7875  -30.5643   19.3956 H   0  0  0  0  0  0
  -22.7784  -29.2252   19.8521 H   0  0  0  0  0  0
  -25.1318  -36.1882   25.0809 H   0  0  0  0  0  0
  -21.0006  -28.3289   24.1373 H   0  0  0  0  0  0
  -20.5677  -26.2317   23.3621 H   0  0  0  0  0  0
  -21.6655  -26.7419   22.1210 H   0  0  0  0  0  0
  -19.6922  -25.6287   21.1249 H   0  0  0  0  0  0
  -19.6695  -27.3182   20.6745 H   0  0  0  0  0  0
  -17.4212  -26.6673   21.4029 H   0  0  0  0  0  0
  -18.0345  -26.0063   22.9025 H   0  0  0  0  0  0
  -19.7947  -30.7289   24.2238 H   0  0  0  0  0  0
  -17.5014  -31.6258   24.5163 H   0  0  0  0  0  0
  -15.5356  -30.2960   23.7657 H   0  0  0  0  0  0
  -15.8700  -28.0799   22.7068 H   0  0  0  0  0  0
  -24.5890  -30.7081   25.7719 H   0  0  0  0  0  0
  -24.8893  -32.2911   26.4792 H   0  0  0  0  0  0
  -25.7999  -30.8923   27.0209 H   0  0  0  0  0  0
  -26.2972  -29.6688   24.1274 H   0  0  0  0  0  0
  -27.4019  -29.7260   25.4800 H   0  0  0  0  0  0
  -27.8861  -30.4210   23.9529 H   0  0  0  0  0  0
  -27.2634  -33.3634   26.2035 H   0  0  0  0  0  0
  -28.3878  -32.6868   25.0336 H   0  0  0  0  0  0
  -28.0693  -31.8471   26.5439 H   0  0  0  0  0  0
  -28.2595  -38.0095   24.7482 H   0  0  0  0  0  0
  -28.1073  -36.2617   24.6324 H   0  0  0  0  0  0
  -27.2290  -37.1492   25.8866 H   0  0  0  0  0  0
  -20.9428  -29.8756   21.6816 H   0  0  0  0  0  0
  -26.0170  -38.2823   24.1361 H   0  0  0  0  0  0
  -30.9682  -21.2307   19.6509 H   0  0  0  0  0  0
  -29.6634  -17.4032   22.3608 H   0  0  0  0  0  0
  -31.3437  -17.2480   21.7759 H   0  0  0  0  0  0
  -29.5431  -16.8094   18.6617 H   0  0  0  0  0  0
  -28.1719  -17.0485   19.7818 H   0  0  0  0  0  0
  -30.9024  -18.3183   19.7777 H   0  0  0  0  0  0
  -29.6819  -23.8785   21.3564 H   0  0  0  0  0  0
  -30.0948  -23.8468   19.6843 H   0  0  0  0  0  0
  -27.2481  -24.5138   20.7139 H   0  0  0  0  0  0
  -27.7599  -24.5758   19.0559 H   0  0  0  0  0  0
  1 25  1  0  0  0
  1 30  2  0  0  0
  1 81  1  0  0  0
  2  3  1  0  0  0
  2 25  1  0  0  0
  2 82  1  0  0  0
  2 83  1  0  0  0
  3  4  1  0  0  0
  3 84  1  0  0  0
  3 85  1  0  0  0
  4  5  1  0  0  0
  4 86  1  0  0  0
  4 87  1  0  0  0
  5  6  1  0  0  0
  5 26  1  0  0  0
  5 88  1  0  0  0
  6 25  1  0  0  0
  6 89  1  0  0  0
  6 90  1  0  0  0
  7  8  2  0  0  0
  7 26  1  0  0  0
  7 29  1  0  0  0
  8  9  1  0  0  0
  8 22  1  0  0  0
  9 10  1  0  0  0
  9 27  2  0  0  0
 10 11  2  0  0  0
 10 15  1  0  0  0
 11 12  1  0  0  0
 11 91  1  0  0  0
 12 13  2  0  0  0
 12 92  1  0  0  0
 13 14  1  0  0  0
 13 31  1  0  0  0
 14 15  2  0  0  0
 14 93  1  0  0  0
 15 94  1  0  0  0
 16 17  2  0  0  0
 16 21  1  0  0  0
 16 31  1  0  0  0
 17 18  1  0  0  0
 17 95  1  0  0  0
 18 19  2  0  0  0
 18 96  1  0  0  0
 19 20  1  0  0  0
 19 24  1  0  0  0
 20 21  2  0  0  0
 20 97  1  0  0  0
 21 23  1  0  0  0
 22 28  1  0  0  0
 22 32  2  0  0  0
 26 27  1  0  0  0
 28 98  1  0  0  0
 28 99  1  0  0  0
 29100  1  0  0  0
 29101  1  0  0  0
 33 34  1  0  0  0
 33 66  1  0  0  0
 33 70  2  0  0  0
 34 36  1  0  0  0
 34 59  1  0  0  0
 34102  1  0  0  0
 35 44  2  0  0  0
 35 45  1  0  0  0
 35 68  1  0  0  0
 36 56  1  0  0  0
 36103  1  0  0  0
 37 39  1  0  0  0
 37 47  1  0  0  0
 37 66  1  0  0  0
 37104  1  0  0  0
 38 43  2  0  0  0
 38 46  1  0  0  0
 38 47  1  0  0  0
 39 64  1  0  0  0
 39 67  2  0  0  0
 40 52  1  0  0  0
 40 53  2  0  0  0
 40 58  1  0  0  0
 41105  1  0  0  0
 41106  1  0  0  0
 41107  1  0  0  0
 41 48  1  0  0  0
 42 43  1  0  0  0
 42 66  1  0  0  0
 42108  1  0  0  0
 42109  1  0  0  0
 43 44  1  0  0  0
 44110  1  0  0  0
 45 46  2  0  0  0
 45111  1  0  0  0
 46112  1  0  0  0
 47113  1  0  0  0
 47114  1  0  0  0
 48 56  1  0  0  0
 48 65  1  0  0  0
 48115  1  0  0  0
 49 50  1  0  0  0
 49 53  1  0  0  0
 49 64  1  0  0  0
 49116  1  0  0  0
 50 51  1  0  0  0
 50117  1  0  0  0
 50118  1  0  0  0
 51 52  1  0  0  0
 51119  1  0  0  0
 51120  1  0  0  0
 52121  1  0  0  0
 52122  1  0  0  0
 53 54  1  0  0  0
 54 55  2  0  0  0
 54123  1  0  0  0
 55 57  1  0  0  0
 55124  1  0  0  0
 56 69  2  0  0  0
 57 58  2  0  0  0
 57125  1  0  0  0
 58126  1  0  0  0
 59 60  1  0  0  0
 59 61  1  0  0  0
 59 62  1  0  0  0
 60127  1  0  0  0
 60128  1  0  0  0
 60129  1  0  0  0
 61130  1  0  0  0
 61131  1  0  0  0
 61132  1  0  0  0
 62133  1  0  0  0
 62134  1  0  0  0
 62135  1  0  0  0
 63 65  1  0  0  0
 63136  1  0  0  0
 63137  1  0  0  0
 63138  1  0  0  0
 64139  1  0  0  0
 65140  1  0  0  0
 68 77  1  0  0  0
 71 72  2  0  0  0
 71 80  1  0  0  0
 71141  1  0  0  0
 72 78  1  0  0  0
 72 75  1  0  0  0
 73 75  1  0  0  0
 73 81  1  0  0  0
 73142  1  0  0  0
 73143  1  0  0  0
 74 75  1  0  0  0
 74 81  1  0  0  0
 74144  1  0  0  0
 74145  1  0  0  0
 75146  1  0  0  0
 76 77  1  0  0  0
 76 80  1  0  0  0
 76147  1  0  0  0
 76148  1  0  0  0
 77149  1  0  0  0
 77150  1  0  0  0
 78 79  2  0  0  0
 79 80  1  0  0  0
M  ISO  4   1 100  68 101  77 101  81 100
M  END
> <chiral flag>
0

> <version>
0

> <s_m_source_file>
/data/baiqing/PycharmProjects/Reinvent-master-3.2/result/LINK_invent/BTK/process_docking_weight1_custom_sum_contain_oxygen_bond_distance_aromatic_linkinvent_7_9_3/rearranged_h_0191.sdf

> <i_m_source_file_index>
42

> <r_mmod_Potential_Energy-OPLS-2005>
339.913543701172

> <r_mmod_Stretch_Energy-OPLS-2005>
169.424713134766

> <r_mmod_Bend_Energy-OPLS-2005>
216.402679443359

> <r_mmod_Torsional_Energy-OPLS-2005>
271.6357421875

> <r_mmod_Improper_Torsional_Energy-OPLS-2005>
9.35569190979004

> <r_mmod_Van_der_Waal_Energy-OPLS-2005>
107.044654846191

> <r_mmod_Electrostatic_Energy-OPLS-2005>
-340.272186279297

> <r_mmod_Solvation_Energy-OPLS-2005>
-223.582580566406

> <b_mmod_Minimization_Converged-OPLS-2005>
0

> <r_mmod_RMS_Derivative-OPLS-2005>
2.24441838264465

$$$$
42
                    3D
 Structure written by MMmdl.
167177  0  0  1  0            999 V2000
  -30.7657  -14.4107   20.5547 C   0  0  0  0  0  0
  -30.4049  -12.2608   19.4334 C   0  0  0  0  0  0
  -29.4960  -12.4783   18.2084 C   0  0  0  0  0  0
  -28.0134  -12.3650   18.6146 C   0  0  0  0  0  0
  -27.6602  -13.2116   19.8683 C   0  0  2  0  0  0
  -28.7013  -13.0197   20.9963 C   0  0  0  0  0  0
  -25.2571  -13.8179   20.5680 C   0  0  0  0  0  0
  -24.1819  -13.0447   20.9154 C   0  0  0  0  0  0
  -24.6389  -11.6915   20.8722 C   0  0  0  0  0  0
  -23.9056  -10.4293   21.0400 C   0  0  0  0  0  0
  -24.3613   -9.4211   21.9182 C   0  0  0  0  0  0
  -23.6277   -8.2250   22.0762 C   0  0  0  0  0  0
  -22.4261   -8.0288   21.3548 C   0  0  0  0  0  0
  -21.9888   -9.0264   20.4656 C   0  0  0  0  0  0
  -22.7226  -10.2135   20.3054 C   0  0  0  0  0  0
  -21.6850   -6.0731   22.5269 C   0  0  0  0  0  0
  -21.4027   -6.5638   23.8206 C   0  0  0  0  0  0
  -21.3654   -5.6787   24.9168 C   0  0  0  0  0  0
  -21.6047   -4.3049   24.7212 C   0  0  0  0  0  0
  -21.8816   -3.8139   23.4330 C   0  0  0  0  0  0
  -21.9193   -4.6960   22.3394 C   0  0  0  0  0  0
  -22.7837  -13.5244   21.1813 C   0  0  0  0  0  0
  -22.1658   -4.2153   21.0965 F   0  0  0  0  0  0
  -21.5624   -3.4537   25.7725 F   0  0  0  0  0  0
  -30.0372  -13.2708   20.4361 N   0  0  0  0  0  0
  -26.3010  -12.9357   20.3335 N   0  0  0  0  0  0
  -25.9318  -11.6516   20.5756 N   0  0  0  0  0  0
  -22.0465  -12.8263   22.0381 N   0  0  0  0  0  0
  -25.4302  -15.1900   20.4107 N   0  0  0  0  0  0
  -31.9058  -14.5222   20.1012 O   0  0  0  0  0  0
  -21.6631   -6.8880   21.4232 O   0  0  0  0  0  0
  -22.3524  -14.5544   20.6649 O   0  0  0  0  0  0
  -24.6093  -31.8721   23.2150 C   0  0  0  0  0  0
  -25.9008  -32.4842   23.8413 C   0  0  1  0  0  0
  -27.2248  -27.4708   20.0773 C   0  0  0  0  0  0
  -25.5880  -33.8636   24.2342 N   0  0  0  0  0  0
  -23.3930  -30.4980   21.5553 C   0  0  2  0  0  0
  -24.8344  -28.9713   20.1154 C   0  0  0  0  0  0
  -22.7372  -29.4678   22.5013 C   0  0  0  0  0  0
  -18.0253  -28.1371   22.8491 C   0  0  0  0  0  0
  -24.1486  -36.7322   23.2638 C   0  0  0  0  0  0
  -25.9190  -30.8471   21.3636 C   0  0  0  0  0  0
  -25.9932  -29.4848   20.7099 C   0  0  0  0  0  0
  -27.1891  -28.7390   20.6918 C   0  0  0  0  0  0
  -26.0434  -26.9600   19.4887 C   0  0  0  0  0  0
  -24.8521  -27.7061   19.5072 C   0  0  0  0  0  0
  -23.5976  -29.8361   20.1672 C   0  0  0  0  0  0
  -25.4106  -36.3122   24.0342 C   0  0  1  0  0  0
  -20.5840  -28.3647   23.1342 C   0  0  2  0  0  0
  -20.6744  -26.9391   22.5423 C   0  0  0  0  0  0
  -19.5730  -26.6392   21.5206 C   0  0  0  0  0  0
  -18.1905  -26.7919   22.1617 C   0  0  0  0  0  0
  -19.1502  -28.8824   23.2917 C   0  0  0  0  0  0
  -18.9436  -30.1429   23.8928 C   0  0  0  0  0  0
  -17.6444  -30.6580   24.0572 C   0  0  0  0  0  0
  -25.9031  -34.9490   23.5144 C   0  0  0  0  0  0
  -16.5334  -29.9090   23.6322 C   0  0  0  0  0  0
  -16.7249  -28.6507   23.0343 C   0  0  0  0  0  0
  -26.4456  -31.6599   25.0717 C   0  0  0  0  0  0
  -25.3748  -31.3678   26.1483 C   0  0  0  0  0  0
  -27.0268  -30.3049   24.6049 C   0  0  0  0  0  0
  -27.6046  -32.4311   25.7457 C   0  0  0  0  0  0
  -27.5579  -37.1815   24.8463 C   0  0  0  0  0  0
  -21.4102  -29.3023   22.3758 N   0  0  0  0  0  0
  -26.4295  -37.3805   23.9409 N   0  0  0  0  0  0
  -24.6584  -31.0852   22.1029 N   0  0  0  0  0  0
  -23.4172  -28.8213   23.3033 O   0  0  0  0  0  0
  -28.4213  -26.7939   20.0695 O   0  0  0  0  0  0
  -26.5600  -34.8936   22.4704 O   0  0  0  0  0  0
  -23.5301  -32.1461   23.7568 O   0  0  0  0  0  0
  -33.1841  -22.7445   18.9173 C   0  0  0  0  0  0
  -33.3132  -21.4007   19.3019 C   0  0  0  0  0  0
  -32.1578  -20.8034   19.8521 C   0  0  0  0  0  0
  -31.0200  -22.7583   19.6040 C   0  0  0  0  0  0
  -35.3969  -20.1030   20.2470 C   0  0  0  0  0  0
  -35.9370  -21.2822   19.4733 C   0  0  0  0  0  0
  -30.9102  -16.6244   21.6630 C   0  0  0  0  0  0
  -29.4790  -16.5079   20.2116 C   0  0  0  0  0  0
  -34.6084  -20.6694   19.0888 C   0  0  0  0  0  0
  -30.7898  -17.2855   20.2896 C   0  0  0  0  0  0
  -32.1319  -19.3510   20.3026 C   0  0  0  0  0  0
  -29.8025  -24.8722   19.9414 C   0  0  0  0  0  0
  -28.4069  -25.4287   19.6859 C   0  0  0  0  0  0
  -32.0342  -23.4186   19.0761 N   0  0  0  0  0  0
  -31.0063  -21.4954   19.9901 N   0  0  0  0  0  0
  -30.1424  -15.4944   21.0764 N   0  0  0  0  0  0
  -29.8438  -23.4272   19.7714 N   0  0  0  0  0  0
  -30.7819  -18.7660   20.2118 N   0  3  0  0  0  0
  -31.4564  -12.3069   19.1433 H   0  0  0  0  0  0
  -30.2614  -11.2615   19.8463 H   0  0  0  0  0  0
  -29.7277  -11.7415   17.4373 H   0  0  0  0  0  0
  -29.6915  -13.4552   17.7632 H   0  0  0  0  0  0
  -27.8085  -11.3121   18.8107 H   0  0  0  0  0  0
  -27.3731  -12.6509   17.7785 H   0  0  0  0  0  0
  -27.6978  -14.2553   19.5583 H   0  0  0  0  0  0
  -28.6567  -12.0036   21.3897 H   0  0  0  0  0  0
  -28.4817  -13.6765   21.8391 H   0  0  0  0  0  0
  -25.2776   -9.5686   22.4744 H   0  0  0  0  0  0
  -24.0004   -7.4633   22.7474 H   0  0  0  0  0  0
  -21.0823   -8.8762   19.8955 H   0  0  0  0  0  0
  -22.3689  -10.9662   19.6140 H   0  0  0  0  0  0
  -21.2037   -7.6146   23.9711 H   0  0  0  0  0  0
  -21.1480   -6.0516   25.9067 H   0  0  0  0  0  0
  -22.0602   -2.7608   23.2819 H   0  0  0  0  0  0
  -22.4076  -11.9959   22.4831 H   0  0  0  0  0  0
  -21.1071  -13.1290   22.2538 H   0  0  0  0  0  0
  -24.6715  -15.8516   20.5336 H   0  0  0  0  0  0
  -26.2950  -15.6269   20.1187 H   0  0  0  0  0  0
  -26.7075  -32.5560   23.1171 H   0  0  0  0  0  0
  -25.0010  -33.9803   25.0474 H   0  0  0  0  0  0
  -22.6799  -31.3143   21.4217 H   0  0  0  0  0  0
  -23.3747  -35.9655   23.3314 H   0  0  0  0  0  0
  -24.3585  -36.8924   22.2050 H   0  0  0  0  0  0
  -23.7249  -37.6536   23.6644 H   0  0  0  0  0  0
  -26.0279  -31.6158   20.5971 H   0  0  0  0  0  0
  -26.8086  -30.8978   21.9796 H   0  0  0  0  0  0
  -28.0871  -29.1339   21.1464 H   0  0  0  0  0  0
  -26.0169  -25.9964   19.0016 H   0  0  0  0  0  0
  -23.9592  -27.3047   19.0474 H   0  0  0  0  0  0
  -23.7061  -30.6143   19.4112 H   0  0  0  0  0  0
  -22.7206  -29.2579   19.8696 H   0  0  0  0  0  0
  -25.1280  -36.1990   25.0838 H   0  0  0  0  0  0
  -20.9920  -28.3200   24.1468 H   0  0  0  0  0  0
  -20.5638  -26.2248   23.3595 H   0  0  0  0  0  0
  -21.6622  -26.7438   22.1225 H   0  0  0  0  0  0
  -19.6897  -25.6313   21.1213 H   0  0  0  0  0  0
  -19.6676  -27.3223   20.6755 H   0  0  0  0  0  0
  -17.4174  -26.6664   21.4022 H   0  0  0  0  0  0
  -18.0315  -26.0052   22.9008 H   0  0  0  0  0  0
  -19.7917  -30.7224   24.2326 H   0  0  0  0  0  0
  -17.5009  -31.6267   24.5161 H   0  0  0  0  0  0
  -15.5343  -30.3009   23.7636 H   0  0  0  0  0  0
  -15.8641  -28.0847   22.7044 H   0  0  0  0  0  0
  -24.5908  -30.7035   25.7826 H   0  0  0  0  0  0
  -24.8947  -32.2819   26.4984 H   0  0  0  0  0  0
  -25.8128  -30.8811   27.0207 H   0  0  0  0  0  0
  -26.2780  -29.6819   24.1139 H   0  0  0  0  0  0
  -27.4092  -29.7270   25.4472 H   0  0  0  0  0  0
  -27.8598  -30.4374   23.9141 H   0  0  0  0  0  0
  -27.2670  -33.3592   26.2080 H   0  0  0  0  0  0
  -28.3811  -32.6906   25.0250 H   0  0  0  0  0  0
  -28.0759  -31.8411   26.5325 H   0  0  0  0  0  0
  -28.2609  -38.0103   24.7509 H   0  0  0  0  0  0
  -28.1066  -36.2637   24.6287 H   0  0  0  0  0  0
  -27.2299  -37.1467   25.8869 H   0  0  0  0  0  0
  -20.9242  -29.8779   21.7016 H   0  0  0  0  0  0
  -26.0184  -38.2884   24.1416 H   0  0  0  0  0  0
  -34.0085  -23.2876   18.4765 H   0  0  0  0  0  0
  -35.0502  -20.2990   21.2599 H   0  0  0  0  0  0
  -35.8929  -19.1449   20.1013 H   0  0  0  0  0  0
  -36.7924  -21.0924   18.8264 H   0  0  0  0  0  0
  -35.9420  -22.2440   19.9837 H   0  0  0  0  0  0
  -30.3850  -17.1404   22.4699 H   0  0  0  0  0  0
  -31.9402  -16.4029   21.9532 H   0  0  0  0  0  0
  -29.2359  -16.1752   19.2006 H   0  0  0  0  0  0
  -28.6212  -16.9943   20.6816 H   0  0  0  0  0  0
  -34.5803  -20.0971   18.1620 H   0  0  0  0  0  0
  -31.5118  -16.9069   19.5622 H   0  0  0  0  0  0
  -32.5035  -19.2815   21.3249 H   0  0  0  0  0  0
  -32.8115  -18.7811   19.6697 H   0  0  0  0  0  0
  -30.1149  -25.1036   20.9603 H   0  0  0  0  0  0
  -30.5049  -25.3724   19.2722 H   0  0  0  0  0  0
  -27.6685  -24.8800   20.2739 H   0  0  0  0  0  0
  -28.1528  -25.3268   18.6286 H   0  0  0  0  0  0
  -29.1333  -22.8987   20.2610 H   0  0  0  0  0  0
  -30.2066  -19.2082   20.9095 H   0  0  0  0  0  0
  -30.4281  -19.0673   19.3179 H   0  0  0  0  0  0
  1 25  1  0  0  0
  1 30  2  0  0  0
  1 86  1  0  0  0
  2  3  1  0  0  0
  2 25  1  0  0  0
  2 89  1  0  0  0
  2 90  1  0  0  0
  3  4  1  0  0  0
  3 91  1  0  0  0
  3 92  1  0  0  0
  4  5  1  0  0  0
  4 93  1  0  0  0
  4 94  1  0  0  0
  5  6  1  0  0  0
  5 26  1  0  0  0
  5 95  1  0  0  0
  6 25  1  0  0  0
  6 96  1  0  0  0
  6 97  1  0  0  0
  7  8  2  0  0  0
  7 26  1  0  0  0
  7 29  1  0  0  0
  8  9  1  0  0  0
  8 22  1  0  0  0
  9 10  1  0  0  0
  9 27  2  0  0  0
 10 11  2  0  0  0
 10 15  1  0  0  0
 11 12  1  0  0  0
 11 98  1  0  0  0
 12 13  2  0  0  0
 12 99  1  0  0  0
 13 14  1  0  0  0
 13 31  1  0  0  0
 14 15  2  0  0  0
 14100  1  0  0  0
 15101  1  0  0  0
 16 17  2  0  0  0
 16 21  1  0  0  0
 16 31  1  0  0  0
 17 18  1  0  0  0
 17102  1  0  0  0
 18 19  2  0  0  0
 18103  1  0  0  0
 19 20  1  0  0  0
 19 24  1  0  0  0
 20 21  2  0  0  0
 20104  1  0  0  0
 21 23  1  0  0  0
 22 28  1  0  0  0
 22 32  2  0  0  0
 26 27  1  0  0  0
 28105  1  0  0  0
 28106  1  0  0  0
 29107  1  0  0  0
 29108  1  0  0  0
 33 34  1  0  0  0
 33 66  1  0  0  0
 33 70  2  0  0  0
 34 36  1  0  0  0
 34 59  1  0  0  0
 34109  1  0  0  0
 35 44  2  0  0  0
 35 45  1  0  0  0
 35 68  1  0  0  0
 36 56  1  0  0  0
 36110  1  0  0  0
 37 39  1  0  0  0
 37 47  1  0  0  0
 37 66  1  0  0  0
 37111  1  0  0  0
 38 43  2  0  0  0
 38 46  1  0  0  0
 38 47  1  0  0  0
 39 64  1  0  0  0
 39 67  2  0  0  0
 40 52  1  0  0  0
 40 53  2  0  0  0
 40 58  1  0  0  0
 41112  1  0  0  0
 41113  1  0  0  0
 41114  1  0  0  0
 41 48  1  0  0  0
 42 43  1  0  0  0
 42 66  1  0  0  0
 42115  1  0  0  0
 42116  1  0  0  0
 43 44  1  0  0  0
 44117  1  0  0  0
 45 46  2  0  0  0
 45118  1  0  0  0
 46119  1  0  0  0
 47120  1  0  0  0
 47121  1  0  0  0
 48 56  1  0  0  0
 48 65  1  0  0  0
 48122  1  0  0  0
 49 50  1  0  0  0
 49 53  1  0  0  0
 49 64  1  0  0  0
 49123  1  0  0  0
 50 51  1  0  0  0
 50124  1  0  0  0
 50125  1  0  0  0
 51 52  1  0  0  0
 51126  1  0  0  0
 51127  1  0  0  0
 52128  1  0  0  0
 52129  1  0  0  0
 53 54  1  0  0  0
 54 55  2  0  0  0
 54130  1  0  0  0
 55 57  1  0  0  0
 55131  1  0  0  0
 56 69  2  0  0  0
 57 58  2  0  0  0
 57132  1  0  0  0
 58133  1  0  0  0
 59 60  1  0  0  0
 59 61  1  0  0  0
 59 62  1  0  0  0
 60134  1  0  0  0
 60135  1  0  0  0
 60136  1  0  0  0
 61137  1  0  0  0
 61138  1  0  0  0
 61139  1  0  0  0
 62140  1  0  0  0
 62141  1  0  0  0
 62142  1  0  0  0
 63 65  1  0  0  0
 63143  1  0  0  0
 63144  1  0  0  0
 63145  1  0  0  0
 64146  1  0  0  0
 65147  1  0  0  0
 68 83  1  0  0  0
 71 72  2  0  0  0
 71 84  1  0  0  0
 71148  1  0  0  0
 72 73  1  0  0  0
 72 79  1  0  0  0
 73 81  1  0  0  0
 73 85  2  0  0  0
 74 84  2  0  0  0
 74 85  1  0  0  0
 74 87  1  0  0  0
 75 76  1  0  0  0
 75 79  1  0  0  0
 75149  1  0  0  0
 75150  1  0  0  0
 76 79  1  0  0  0
 76151  1  0  0  0
 76152  1  0  0  0
 77 80  1  0  0  0
 77 86  1  0  0  0
 77153  1  0  0  0
 77154  1  0  0  0
 78 80  1  0  0  0
 78 86  1  0  0  0
 78155  1  0  0  0
 78156  1  0  0  0
 79157  1  0  0  0
 80 88  1  0  0  0
 80158  1  0  0  0
 81 88  1  0  0  0
 81159  1  0  0  0
 81160  1  0  0  0
 82 83  1  0  0  0
 82 87  1  0  0  0
 82161  1  0  0  0
 82162  1  0  0  0
 83163  1  0  0  0
 83164  1  0  0  0
 87165  1  0  0  0
 88166  1  0  0  0
 88167  1  0  0  0
M  CHG  1  88   1
M  ISO  4   1 100  68 101  83 101  86 100
M  END
> <chiral flag>
0

> <version>
0

> <s_m_source_file>
/data/baiqing/PycharmProjects/Reinvent-master-3.2/result/LINK_invent/BTK/process_docking_weight1_custom_sum_contain_oxygen_bond_distance_aromatic_linkinvent_7_9_3/rearranged_h_0191.sdf

> <i_m_source_file_index>
43

> <r_mmod_Potential_Energy-OPLS-2005>
-810.168579101562

> <r_mmod_Stretch_Energy-OPLS-2005>
34.9064559936523

> <r_mmod_Bend_Energy-OPLS-2005>
124.009033203125

> <r_mmod_Torsional_Energy-OPLS-2005>
288.552917480469

> <r_mmod_Improper_Torsional_Energy-OPLS-2005>
12.8273048400879

> <r_mmod_Van_der_Waal_Energy-OPLS-2005>
186.507720947266

> <r_mmod_Electrostatic_Energy-OPLS-2005>
-963.8056640625

> <r_mmod_Solvation_Energy-OPLS-2005>
-507.353179931641

> <b_mmod_Minimization_Converged-OPLS-2005>
0

> <r_mmod_RMS_Derivative-OPLS-2005>
2.13181209564209

$$$$
43
                    3D
 Structure written by MMmdl.
168177  0  0  1  0            999 V2000
  -30.7416  -14.6463   20.4485 C   0  0  0  0  0  0
  -30.4013  -12.3937   19.4470 C   0  0  0  0  0  0
  -29.4779  -12.4685   18.2179 C   0  0  0  0  0  0
  -28.0159  -12.2713   18.6549 C   0  0  0  0  0  0
  -27.6247  -13.1962   19.8351 C   0  0  2  0  0  0
  -28.6907  -13.1841   20.9613 C   0  0  0  0  0  0
  -25.2481  -13.8070   20.5765 C   0  0  0  0  0  0
  -24.1764  -13.0361   20.9270 C   0  0  0  0  0  0
  -24.6311  -11.6825   20.8798 C   0  0  0  0  0  0
  -23.8997  -10.4231   21.0406 C   0  0  0  0  0  0
  -24.3565   -9.4166   21.9180 C   0  0  0  0  0  0
  -23.6253   -8.2205   22.0739 C   0  0  0  0  0  0
  -22.4244   -8.0238   21.3543 C   0  0  0  0  0  0
  -21.9868   -9.0194   20.4629 C   0  0  0  0  0  0
  -22.7167  -10.2081   20.3038 C   0  0  0  0  0  0
  -21.6820   -6.0725   22.5290 C   0  0  0  0  0  0
  -21.3992   -6.5627   23.8223 C   0  0  0  0  0  0
  -21.3662   -5.6780   24.9187 C   0  0  0  0  0  0
  -21.6056   -4.3047   24.7236 C   0  0  0  0  0  0
  -21.8813   -3.8139   23.4349 C   0  0  0  0  0  0
  -21.9177   -4.6958   22.3411 C   0  0  0  0  0  0
  -22.7789  -13.5161   21.1929 C   0  0  0  0  0  0
  -22.1641   -4.2131   21.0994 F   0  0  0  0  0  0
  -21.5646   -3.4533   25.7765 F   0  0  0  0  0  0
  -29.9980  -13.4900   20.3576 N   0  0  0  0  0  0
  -26.2858  -12.9185   20.3311 N   0  0  0  0  0  0
  -25.9227  -11.6370   20.5807 N   0  0  0  0  0  0
  -22.0416  -12.8155   22.0439 N   0  0  0  0  0  0
  -25.4223  -15.1795   20.4292 N   0  0  0  0  0  0
  -31.9388  -14.6192   20.1624 O   0  0  0  0  0  0
  -21.6603   -6.8849   21.4249 O   0  0  0  0  0  0
  -22.3515  -14.5522   20.6813 O   0  0  0  0  0  0
  -24.6278  -31.8571   23.1924 C   0  0  0  0  0  0
  -25.9094  -32.4751   23.8329 C   0  0  1  0  0  0
  -27.2490  -27.3195   20.1359 C   0  0  0  0  0  0
  -25.5861  -33.8544   24.2299 N   0  0  0  0  0  0
  -23.4271  -30.4773   21.5275 C   0  0  2  0  0  0
  -24.8768  -28.9098   20.1215 C   0  0  0  0  0  0
  -22.7469  -29.4722   22.4855 C   0  0  0  0  0  0
  -18.0331  -28.1388   22.8376 C   0  0  0  0  0  0
  -24.1457  -36.7310   23.2646 C   0  0  0  0  0  0
  -25.9631  -30.7896   21.3614 C   0  0  0  0  0  0
  -26.0402  -29.4086   20.7211 C   0  0  0  0  0  0
  -27.2295  -28.6261   20.7104 C   0  0  0  0  0  0
  -26.0601  -26.8514   19.5449 C   0  0  0  0  0  0
  -24.8856  -27.6359   19.5284 C   0  0  0  0  0  0
  -23.6460  -29.7896   20.1514 C   0  0  0  0  0  0
  -25.4081  -36.3104   24.0340 C   0  0  1  0  0  0
  -20.5865  -28.3909   23.1171 C   0  0  2  0  0  0
  -20.6815  -26.9572   22.5524 C   0  0  0  0  0  0
  -19.5945  -26.6396   21.5220 C   0  0  0  0  0  0
  -18.2093  -26.7892   22.1568 C   0  0  0  0  0  0
  -19.1522  -28.9038   23.2642 C   0  0  0  0  0  0
  -18.9366  -30.1666   23.8549 C   0  0  0  0  0  0
  -17.6335  -30.6664   24.0300 C   0  0  0  0  0  0
  -25.9020  -34.9436   23.5167 C   0  0  0  0  0  0
  -16.5270  -29.9011   23.6219 C   0  0  0  0  0  0
  -16.7300  -28.6417   23.0273 C   0  0  0  0  0  0
  -26.4458  -31.6557   25.0706 C   0  0  0  0  0  0
  -25.3722  -31.3731   26.1477 C   0  0  0  0  0  0
  -27.0362  -30.3011   24.6129 C   0  0  0  0  0  0
  -27.5985  -32.4329   25.7491 C   0  0  0  0  0  0
  -27.5570  -37.1794   24.8451 C   0  0  0  0  0  0
  -21.4212  -29.3218   22.3549 N   0  0  0  0  0  0
  -26.4286  -37.3778   23.9400 N   0  0  0  0  0  0
  -24.6907  -31.0616   22.0843 N   0  0  0  0  0  0
  -23.4121  -28.8252   23.2978 O   0  0  0  0  0  0
  -28.4299  -26.5702   20.0719 O   0  0  0  0  0  0
  -26.5628  -34.8934   22.4760 O   0  0  0  0  0  0
  -23.5427  -32.1338   23.7203 O   0  0  0  0  0  0
  -30.9551  -16.9240   21.4556 C   0  0  0  0  0  0
  -28.9351  -16.4230   20.1654 C   0  0  0  0  0  0
  -28.0098  -22.1190   18.1391 C   0  0  0  0  0  0
  -31.0057  -18.3306   20.7724 C   0  0  0  0  0  0
  -28.8994  -17.9361   19.7044 C   0  0  0  0  0  0
  -27.3384  -21.0731   19.0525 C   0  0  1  0  0  0
  -28.4901  -21.3373   20.0401 C   0  0  1  0  0  0
  -24.9663  -21.6624   18.5425 C   0  0  0  0  0  0
  -29.7451  -20.3493   19.9303 C   0  0  0  0  0  0
  -27.9228  -23.9816   19.6232 C   0  0  0  0  0  0
  -28.5582  -25.1501   20.4836 C   0  0  0  0  0  0
  -30.1725  -15.8697   20.7626 N   0  0  0  0  0  0
  -28.6640  -22.6860   19.3327 N   0  0  0  0  0  0
  -29.6647  -18.9311   20.5178 N   0  3  0  0  0  0
  -25.9815  -21.3890   19.5768 N   0  3  0  0  0  0
  -31.4441  -12.4436   19.1329 H   0  0  0  0  0  0
  -30.2943  -11.4256   19.9410 H   0  0  0  0  0  0
  -29.7533  -11.7083   17.4872 H   0  0  0  0  0  0
  -29.5936  -13.4319   17.7187 H   0  0  0  0  0  0
  -27.9093  -11.2287   18.9526 H   0  0  0  0  0  0
  -27.3396  -12.4066   17.8078 H   0  0  0  0  0  0
  -27.5705  -14.1836   19.3988 H   0  0  0  0  0  0
  -28.7165  -12.2054   21.4435 H   0  0  0  0  0  0
  -28.4409  -13.9000   21.7436 H   0  0  0  0  0  0
  -25.2703   -9.5663   22.4744 H   0  0  0  0  0  0
  -23.9978   -7.4586   22.7425 H   0  0  0  0  0  0
  -21.0813   -8.8662   19.8913 H   0  0  0  0  0  0
  -22.3594  -10.9617   19.6148 H   0  0  0  0  0  0
  -21.1957   -7.6123   23.9710 H   0  0  0  0  0  0
  -21.1502   -6.0523   25.9091 H   0  0  0  0  0  0
  -22.0590   -2.7587   23.2860 H   0  0  0  0  0  0
  -22.4052  -11.9835   22.4878 H   0  0  0  0  0  0
  -21.1010  -13.1142   22.2656 H   0  0  0  0  0  0
  -24.6542  -15.8274   20.5594 H   0  0  0  0  0  0
  -26.2790  -15.6243   20.1319 H   0  0  0  0  0  0
  -26.7189  -32.5416   23.1097 H   0  0  0  0  0  0
  -24.9809  -33.9635   25.0310 H   0  0  0  0  0  0
  -22.7270  -31.2978   21.3606 H   0  0  0  0  0  0
  -23.3715  -35.9659   23.3328 H   0  0  0  0  0  0
  -24.3537  -36.8924   22.2065 H   0  0  0  0  0  0
  -23.7245  -37.6529   23.6652 H   0  0  0  0  0  0
  -26.0875  -31.5445   20.5866 H   0  0  0  0  0  0
  -26.8518  -30.8610   21.9782 H   0  0  0  0  0  0
  -28.1387  -29.0114   21.1518 H   0  0  0  0  0  0
  -26.0308  -25.8777   19.0850 H   0  0  0  0  0  0
  -23.9963  -27.2491   19.0524 H   0  0  0  0  0  0
  -23.7670  -30.5486   19.3768 H   0  0  0  0  0  0
  -22.7774  -29.2050   19.8489 H   0  0  0  0  0  0
  -25.1261  -36.1952   25.0833 H   0  0  0  0  0  0
  -20.9849  -28.3696   24.1344 H   0  0  0  0  0  0
  -20.5641  -26.2660   23.3915 H   0  0  0  0  0  0
  -21.6690  -26.7493   22.1452 H   0  0  0  0  0  0
  -19.7229  -25.6266   21.1334 H   0  0  0  0  0  0
  -19.6926  -27.3087   20.6619 H   0  0  0  0  0  0
  -17.4439  -26.6543   21.3918 H   0  0  0  0  0  0
  -18.0522  -26.0055   22.8987 H   0  0  0  0  0  0
  -19.7826  -30.7610   24.1772 H   0  0  0  0  0  0
  -17.4765  -31.6394   24.4726 H   0  0  0  0  0  0
  -15.5240  -30.2809   23.7627 H   0  0  0  0  0  0
  -15.8736  -28.0651   22.7092 H   0  0  0  0  0  0
  -24.5808  -30.7149   25.7871 H   0  0  0  0  0  0
  -24.8958  -32.2915   26.4936 H   0  0  0  0  0  0
  -25.8050  -30.8899   27.0256 H   0  0  0  0  0  0
  -26.2959  -29.6724   24.1152 H   0  0  0  0  0  0
  -27.4167  -29.7292   25.4620 H   0  0  0  0  0  0
  -27.8776  -30.4404   23.9339 H   0  0  0  0  0  0
  -27.2551  -33.3650   26.2010 H   0  0  0  0  0  0
  -28.3815  -32.6875   25.0330 H   0  0  0  0  0  0
  -28.0634  -31.8492   26.5450 H   0  0  0  0  0  0
  -28.2588  -38.0091   24.7476 H   0  0  0  0  0  0
  -28.1092  -36.2612   24.6311 H   0  0  0  0  0  0
  -27.2265  -37.1482   25.8855 H   0  0  0  0  0  0
  -20.9509  -29.8955   21.6706 H   0  0  0  0  0  0
  -26.0193  -38.2869   24.1417 H   0  0  0  0  0  0
  -30.5161  -17.0314   22.4459 H   0  0  0  0  0  0
  -31.9833  -16.6063   21.6332 H   0  0  0  0  0  0
  -28.7057  -15.8651   19.2632 H   0  0  0  0  0  0
  -28.1343  -16.2336   20.8806 H   0  0  0  0  0  0
  -27.3556  -22.8096   17.6038 H   0  0  0  0  0  0
  -28.7613  -21.6952   17.4697 H   0  0  0  0  0  0
  -31.5457  -18.2570   19.8275 H   0  0  0  0  0  0
  -31.5960  -19.0048   21.3934 H   0  0  0  0  0  0
  -27.8582  -18.2402   19.6548 H   0  0  0  0  0  0
  -29.2871  -17.9892   18.6848 H   0  0  0  0  0  0
  -27.3459  -20.0888   18.5835 H   0  0  0  0  0  0
  -28.1685  -21.5107   21.0679 H   0  0  0  0  0  0
  -23.9666  -21.7005   18.9794 H   0  0  0  0  0  0
  -24.9732  -20.8779   17.7859 H   0  0  0  0  0  0
  -25.1445  -22.6199   18.0504 H   0  0  0  0  0  0
  -30.5904  -20.8583   20.3901 H   0  0  0  0  0  0
  -30.0444  -20.2453   18.8841 H   0  0  0  0  0  0
  -27.8040  -24.4745   18.6550 H   0  0  0  0  0  0
  -26.9116  -23.8022   19.9759 H   0  0  0  0  0  0
  -29.6380  -24.9826   20.5017 H   0  0  0  0  0  0
  -28.2498  -25.0462   21.5238 H   0  0  0  0  0  0
  -29.2309  -19.0145   21.4242 H   0  0  0  0  0  0
  -26.0193  -22.1590   20.2230 H   0  0  0  0  0  0
  -25.6532  -20.5953   20.1021 H   0  0  0  0  0  0
  1 25  1  0  0  0
  1 30  2  0  0  0
  1 82  1  0  0  0
  2  3  1  0  0  0
  2 25  1  0  0  0
  2 86  1  0  0  0
  2 87  1  0  0  0
  3  4  1  0  0  0
  3 88  1  0  0  0
  3 89  1  0  0  0
  4  5  1  0  0  0
  4 90  1  0  0  0
  4 91  1  0  0  0
  5  6  1  0  0  0
  5 26  1  0  0  0
  5 92  1  0  0  0
  6 25  1  0  0  0
  6 93  1  0  0  0
  6 94  1  0  0  0
  7  8  2  0  0  0
  7 26  1  0  0  0
  7 29  1  0  0  0
  8  9  1  0  0  0
  8 22  1  0  0  0
  9 10  1  0  0  0
  9 27  2  0  0  0
 10 11  2  0  0  0
 10 15  1  0  0  0
 11 12  1  0  0  0
 11 95  1  0  0  0
 12 13  2  0  0  0
 12 96  1  0  0  0
 13 14  1  0  0  0
 13 31  1  0  0  0
 14 15  2  0  0  0
 14 97  1  0  0  0
 15 98  1  0  0  0
 16 17  2  0  0  0
 16 21  1  0  0  0
 16 31  1  0  0  0
 17 18  1  0  0  0
 17 99  1  0  0  0
 18 19  2  0  0  0
 18100  1  0  0  0
 19 20  1  0  0  0
 19 24  1  0  0  0
 20 21  2  0  0  0
 20101  1  0  0  0
 21 23  1  0  0  0
 22 28  1  0  0  0
 22 32  2  0  0  0
 26 27  1  0  0  0
 28102  1  0  0  0
 28103  1  0  0  0
 29104  1  0  0  0
 29105  1  0  0  0
 33 34  1  0  0  0
 33 66  1  0  0  0
 33 70  2  0  0  0
 34 36  1  0  0  0
 34 59  1  0  0  0
 34106  1  0  0  0
 35 44  2  0  0  0
 35 45  1  0  0  0
 35 68  1  0  0  0
 36 56  1  0  0  0
 36107  1  0  0  0
 37 39  1  0  0  0
 37 47  1  0  0  0
 37 66  1  0  0  0
 37108  1  0  0  0
 38 43  2  0  0  0
 38 46  1  0  0  0
 38 47  1  0  0  0
 39 64  1  0  0  0
 39 67  2  0  0  0
 40 52  1  0  0  0
 40 53  2  0  0  0
 40 58  1  0  0  0
 41109  1  0  0  0
 41110  1  0  0  0
 41111  1  0  0  0
 41 48  1  0  0  0
 42 43  1  0  0  0
 42 66  1  0  0  0
 42112  1  0  0  0
 42113  1  0  0  0
 43 44  1  0  0  0
 44114  1  0  0  0
 45 46  2  0  0  0
 45115  1  0  0  0
 46116  1  0  0  0
 47117  1  0  0  0
 47118  1  0  0  0
 48 56  1  0  0  0
 48 65  1  0  0  0
 48119  1  0  0  0
 49 50  1  0  0  0
 49 53  1  0  0  0
 49 64  1  0  0  0
 49120  1  0  0  0
 50 51  1  0  0  0
 50121  1  0  0  0
 50122  1  0  0  0
 51 52  1  0  0  0
 51123  1  0  0  0
 51124  1  0  0  0
 52125  1  0  0  0
 52126  1  0  0  0
 53 54  1  0  0  0
 54 55  2  0  0  0
 54127  1  0  0  0
 55 57  1  0  0  0
 55128  1  0  0  0
 56 69  2  0  0  0
 57 58  2  0  0  0
 57129  1  0  0  0
 58130  1  0  0  0
 59 60  1  0  0  0
 59 61  1  0  0  0
 59 62  1  0  0  0
 60131  1  0  0  0
 60132  1  0  0  0
 60133  1  0  0  0
 61134  1  0  0  0
 61135  1  0  0  0
 61136  1  0  0  0
 62137  1  0  0  0
 62138  1  0  0  0
 62139  1  0  0  0
 63 65  1  0  0  0
 63140  1  0  0  0
 63141  1  0  0  0
 63142  1  0  0  0
 64143  1  0  0  0
 65144  1  0  0  0
 68 81  1  0  0  0
 71 74  1  0  0  0
 71 82  1  0  0  0
 71145  1  0  0  0
 71146  1  0  0  0
 72 75  1  0  0  0
 72 82  1  0  0  0
 72147  1  0  0  0
 72148  1  0  0  0
 73 76  1  0  0  0
 73 83  1  0  0  0
 73149  1  0  0  0
 73150  1  0  0  0
 74 84  1  0  0  0
 74151  1  0  0  0
 74152  1  0  0  0
 75 84  1  0  0  0
 75153  1  0  0  0
 75154  1  0  0  0
 76 77  1  0  0  0
 76 85  1  0  0  0
 76155  1  0  0  0
 77 79  1  0  0  0
 77 83  1  0  0  0
 77156  1  0  0  0
 78 85  1  0  0  0
 78157  1  0  0  0
 78158  1  0  0  0
 78159  1  0  0  0
 79160  1  0  0  0
 79161  1  0  0  0
 79 84  1  0  0  0
 80 81  1  0  0  0
 80 83  1  0  0  0
 80162  1  0  0  0
 80163  1  0  0  0
 81164  1  0  0  0
 81165  1  0  0  0
 84166  1  0  0  0
 85167  1  0  0  0
 85168  1  0  0  0
M  CHG  2  84   1  85   1
M  ISO  4   1 100  68 101  81 101  82 100
M  END
> <chiral flag>
0

> <version>
0

> <s_m_source_file>
/data/baiqing/PycharmProjects/Reinvent-master-3.2/result/LINK_invent/BTK/process_docking_weight1_custom_sum_contain_oxygen_bond_distance_aromatic_linkinvent_7_9_3/rearranged_h_0191.sdf

> <i_m_source_file_index>
44

> <r_mmod_Potential_Energy-OPLS-2005>
105.395172119141

> <r_mmod_Stretch_Energy-OPLS-2005>
96.5689239501953

> <r_mmod_Bend_Energy-OPLS-2005>
237.947509765625

> <r_mmod_Torsional_Energy-OPLS-2005>
411.939605712891

> <r_mmod_Improper_Torsional_Energy-OPLS-2005>
2.96386694908142

> <r_mmod_Van_der_Waal_Energy-OPLS-2005>
134.501556396484

> <r_mmod_Electrostatic_Energy-OPLS-2005>
169.050216674805

> <r_mmod_Solvation_Energy-OPLS-2005>
-1005.07043457031

> <b_mmod_Minimization_Converged-OPLS-2005>
0

> <r_mmod_RMS_Derivative-OPLS-2005>
6.93783903121948

$$$$
44
                    3D
 Structure written by MMmdl.
163172  0  0  1  0            999 V2000
  -30.7385  -14.3707   20.6290 C   0  0  0  0  0  0
  -30.4183  -12.2745   19.3930 C   0  0  0  0  0  0
  -29.4852  -12.5265   18.1895 C   0  0  0  0  0  0
  -28.0043  -12.3929   18.5984 C   0  0  0  0  0  0
  -27.6649  -13.1987   19.8797 C   0  0  2  0  0  0
  -28.7034  -12.9196   20.9896 C   0  0  0  0  0  0
  -25.2593  -13.8142   20.5663 C   0  0  0  0  0  0
  -24.1821  -13.0442   20.9141 C   0  0  0  0  0  0
  -24.6360  -11.6904   20.8703 C   0  0  0  0  0  0
  -23.9030  -10.4298   21.0378 C   0  0  0  0  0  0
  -24.3607   -9.4222   21.9165 C   0  0  0  0  0  0
  -23.6281   -8.2251   22.0755 C   0  0  0  0  0  0
  -22.4259   -8.0296   21.3546 C   0  0  0  0  0  0
  -21.9885   -9.0263   20.4640 C   0  0  0  0  0  0
  -22.7203  -10.2141   20.3031 C   0  0  0  0  0  0
  -21.6848   -6.0742   22.5276 C   0  0  0  0  0  0
  -21.4021   -6.5644   23.8214 C   0  0  0  0  0  0
  -21.3660   -5.6789   24.9176 C   0  0  0  0  0  0
  -21.6038   -4.3052   24.7212 C   0  0  0  0  0  0
  -21.8811   -3.8157   23.4328 C   0  0  0  0  0  0
  -21.9202   -4.6979   22.3397 C   0  0  0  0  0  0
  -22.7850  -13.5259   21.1799 C   0  0  0  0  0  0
  -22.1669   -4.2174   21.0969 F   0  0  0  0  0  0
  -21.5634   -3.4529   25.7717 F   0  0  0  0  0  0
  -30.0471  -13.2208   20.4511 N   0  0  0  0  0  0
  -26.3020  -12.9299   20.3344 N   0  0  0  0  0  0
  -25.9286  -11.6471   20.5730 N   0  0  0  0  0  0
  -22.0471  -12.8294   22.0364 N   0  0  0  0  0  0
  -25.4370  -15.1851   20.4133 N   0  0  0  0  0  0
  -31.8281  -14.6068   20.0954 O   0  0  0  0  0  0
  -21.6636   -6.8887   21.4233 O   0  0  0  0  0  0
  -22.3555  -14.5606   20.6704 O   0  0  0  0  0  0
  -24.6110  -31.8739   23.2175 C   0  0  0  0  0  0
  -25.9035  -32.4852   23.8436 C   0  0  1  0  0  0
  -27.2283  -27.4834   20.0808 C   0  0  0  0  0  0
  -25.5911  -33.8651   24.2383 N   0  0  0  0  0  0
  -23.3948  -30.4997   21.5576 C   0  0  2  0  0  0
  -24.8389  -28.9776   20.1134 C   0  0  0  0  0  0
  -22.7410  -29.4682   22.5030 C   0  0  0  0  0  0
  -18.0287  -28.1348   22.8516 C   0  0  0  0  0  0
  -24.1485  -36.7325   23.2634 C   0  0  0  0  0  0
  -25.9190  -30.8524   21.3631 C   0  0  0  0  0  0
  -25.9974  -29.4909   20.7116 C   0  0  0  0  0  0
  -27.1956  -28.7495   20.7011 C   0  0  0  0  0  0
  -26.0602  -26.9861   19.4580 C   0  0  0  0  0  0
  -24.8633  -27.7205   19.4862 C   0  0  0  0  0  0
  -23.6015  -29.8402   20.1681 C   0  0  0  0  0  0
  -25.4099  -36.3140   24.0348 C   0  0  1  0  0  0
  -20.5894  -28.3625   23.1365 C   0  0  2  0  0  0
  -20.6796  -26.9378   22.5442 C   0  0  0  0  0  0
  -19.5775  -26.6370   21.5244 C   0  0  0  0  0  0
  -18.1922  -26.7901   22.1624 C   0  0  0  0  0  0
  -19.1538  -28.8803   23.2944 C   0  0  0  0  0  0
  -18.9471  -30.1408   23.8942 C   0  0  0  0  0  0
  -17.6470  -30.6553   24.0587 C   0  0  0  0  0  0
  -25.9024  -34.9495   23.5161 C   0  0  0  0  0  0
  -16.5365  -29.9068   23.6317 C   0  0  0  0  0  0
  -16.7278  -28.6493   23.0345 C   0  0  0  0  0  0
  -26.4468  -31.6611   25.0733 C   0  0  0  0  0  0
  -25.3759  -31.3708   26.1496 C   0  0  0  0  0  0
  -27.0283  -30.3069   24.6065 C   0  0  0  0  0  0
  -27.6073  -32.4297   25.7484 C   0  0  0  0  0  0
  -27.5581  -37.1819   24.8462 C   0  0  0  0  0  0
  -21.4156  -29.3017   22.3796 N   0  0  0  0  0  0
  -26.4300  -37.3808   23.9411 N   0  0  0  0  0  0
  -24.6593  -31.0882   22.1048 N   0  0  0  0  0  0
  -23.4242  -28.8193   23.3006 O   0  0  0  0  0  0
  -28.3826  -26.7458   20.0954 O   0  0  0  0  0  0
  -26.5564  -34.8943   22.4703 O   0  0  0  0  0  0
  -23.5327  -32.1477   23.7612 O   0  0  0  0  0  0
  -28.4701  -18.8298   18.3914 C   0  0  0  0  0  0
  -29.1501  -17.6454   18.0843 C   0  0  0  0  0  0
  -28.4886  -19.2777   19.7141 C   0  0  0  0  0  0
  -29.8023  -17.4607   20.2587 C   0  0  0  0  0  0
  -26.9985  -20.3154   22.0351 C   0  0  0  0  0  0
  -26.4559  -20.0838   20.6240 C   0  0  0  0  0  0
  -28.1821  -21.0526   21.3993 C   0  0  2  0  0  0
  -30.4845  -16.6907   21.3801 C   0  0  0  0  0  0
  -28.1341  -22.5784   21.3584 C   0  0  0  0  0  0
  -29.3828  -24.5412   20.3988 C   0  0  0  0  0  0
  -28.2190  -25.4826   20.7362 C   0  0  0  0  0  0
  -29.8068  -16.9521   19.0309 N   0  0  0  0  0  0
  -29.1765  -18.5659   20.6237 N   0  0  0  0  0  0
  -27.7771  -20.4476   20.1160 N   0  0  0  0  0  0
  -30.1168  -15.2846   21.3702 N   0  0  0  0  0  0
  -28.9552  -23.1256   20.2553 N   0  3  0  0  0  0
  -31.4615  -12.3829   19.0899 H   0  0  0  0  0  0
  -30.3261  -11.2519   19.7605 H   0  0  0  0  0  0
  -29.7068  -11.8322   17.3784 H   0  0  0  0  0  0
  -29.6599  -13.5285   17.7927 H   0  0  0  0  0  0
  -27.7865  -11.3358   18.7543 H   0  0  0  0  0  0
  -27.3606  -12.7191   17.7797 H   0  0  0  0  0  0
  -27.7293  -14.2553   19.6220 H   0  0  0  0  0  0
  -28.6629  -11.8697   21.2848 H   0  0  0  0  0  0
  -28.4590  -13.4768   21.8943 H   0  0  0  0  0  0
  -25.2737   -9.5718   22.4761 H   0  0  0  0  0  0
  -24.0008   -7.4628   22.7466 H   0  0  0  0  0  0
  -21.0821   -8.8764   19.8934 H   0  0  0  0  0  0
  -22.3644  -10.9699   19.6165 H   0  0  0  0  0  0
  -21.2024   -7.6151   23.9720 H   0  0  0  0  0  0
  -21.1481   -6.0519   25.9071 H   0  0  0  0  0  0
  -22.0599   -2.7616   23.2814 H   0  0  0  0  0  0
  -22.4103  -12.0008   22.4819 H   0  0  0  0  0  0
  -21.1094  -13.1361   22.2554 H   0  0  0  0  0  0
  -24.6756  -15.8484   20.5168 H   0  0  0  0  0  0
  -26.3046  -15.6158   20.1197 H   0  0  0  0  0  0
  -26.7109  -32.5604   23.1210 H   0  0  0  0  0  0
  -25.0143  -33.9794   25.0589 H   0  0  0  0  0  0
  -22.6799  -31.3141   21.4247 H   0  0  0  0  0  0
  -23.3742  -35.9664   23.3313 H   0  0  0  0  0  0
  -24.3599  -36.8916   22.2049 H   0  0  0  0  0  0
  -23.7234  -37.6538   23.6621 H   0  0  0  0  0  0
  -26.0221  -31.6202   20.5955 H   0  0  0  0  0  0
  -26.8073  -30.9114   21.9778 H   0  0  0  0  0  0
  -28.0897  -29.1359   21.1752 H   0  0  0  0  0  0
  -26.0687  -26.0363   18.9462 H   0  0  0  0  0  0
  -23.9778  -27.3250   19.0078 H   0  0  0  0  0  0
  -23.7080  -30.6189   19.4114 H   0  0  0  0  0  0
  -22.7242  -29.2611   19.8714 H   0  0  0  0  0  0
  -25.1269  -36.2025   25.0838 H   0  0  0  0  0  0
  -21.0007  -28.3178   24.1484 H   0  0  0  0  0  0
  -20.5753  -26.2230   23.3620 H   0  0  0  0  0  0
  -21.6658  -26.7467   22.1209 H   0  0  0  0  0  0
  -19.6952  -25.6297   21.1267 H   0  0  0  0  0  0
  -19.6681  -27.3219   20.6804 H   0  0  0  0  0  0
  -17.4224  -26.6687   21.3991 H   0  0  0  0  0  0
  -18.0281  -26.0012   22.8994 H   0  0  0  0  0  0
  -19.7942  -30.7213   24.2339 H   0  0  0  0  0  0
  -17.4999  -31.6220   24.5206 H   0  0  0  0  0  0
  -15.5353  -30.2967   23.7591 H   0  0  0  0  0  0
  -15.8674  -28.0829   22.7005 H   0  0  0  0  0  0
  -24.5926  -30.7049   25.7843 H   0  0  0  0  0  0
  -24.8940  -32.2856   26.4969 H   0  0  0  0  0  0
  -25.8123  -30.8875   27.0250 H   0  0  0  0  0  0
  -26.2812  -29.6839   24.1135 H   0  0  0  0  0  0
  -27.4092  -29.7291   25.4496 H   0  0  0  0  0  0
  -27.8631  -30.4393   23.9181 H   0  0  0  0  0  0
  -27.2730  -33.3591   26.2115 H   0  0  0  0  0  0
  -28.3858  -32.6870   25.0284 H   0  0  0  0  0  0
  -28.0767  -31.8384   26.5360 H   0  0  0  0  0  0
  -28.2612  -38.0102   24.7498 H   0  0  0  0  0  0
  -28.1062  -36.2638   24.6293 H   0  0  0  0  0  0
  -27.2306  -37.1480   25.8867 H   0  0  0  0  0  0
  -20.9303  -29.8823   21.7106 H   0  0  0  0  0  0
  -26.0203  -38.2897   24.1398 H   0  0  0  0  0  0
  -27.9404  -19.3756   17.6209 H   0  0  0  0  0  0
  -29.1534  -17.2444   17.0792 H   0  0  0  0  0  0
  -27.2760  -19.3950   22.5524 H   0  0  0  0  0  0
  -26.3628  -20.9448   22.6577 H   0  0  0  0  0  0
  -25.6958  -20.8032   20.3204 H   0  0  0  0  0  0
  -26.1487  -19.0564   20.4184 H   0  0  0  0  0  0
  -29.1421  -20.6970   21.7777 H   0  0  0  0  0  0
  -30.1950  -17.1009   22.3495 H   0  0  0  0  0  0
  -31.5648  -16.8259   21.3040 H   0  0  0  0  0  0
  -28.5040  -22.9676   22.3089 H   0  0  0  0  0  0
  -27.1026  -22.9239   21.2672 H   0  0  0  0  0  0
  -30.1616  -24.6269   21.1583 H   0  0  0  0  0  0
  -29.8373  -24.8473   19.4552 H   0  0  0  0  0  0
  -28.1613  -25.6335   21.8167 H   0  0  0  0  0  0
  -27.2819  -25.0139   20.4409 H   0  0  0  0  0  0
  -29.2197  -15.0421   21.7582 H   0  0  0  0  0  0
  -28.4221  -23.0147   19.4037 H   0  0  0  0  0  0
  -29.7771  -22.5514   20.1613 H   0  0  0  0  0  0
  1 25  1  0  0  0
  1 30  2  0  0  0
  1 85  1  0  0  0
  2  3  1  0  0  0
  2 25  1  0  0  0
  2 87  1  0  0  0
  2 88  1  0  0  0
  3  4  1  0  0  0
  3 89  1  0  0  0
  3 90  1  0  0  0
  4  5  1  0  0  0
  4 91  1  0  0  0
  4 92  1  0  0  0
  5  6  1  0  0  0
  5 26  1  0  0  0
  5 93  1  0  0  0
  6 25  1  0  0  0
  6 94  1  0  0  0
  6 95  1  0  0  0
  7  8  2  0  0  0
  7 26  1  0  0  0
  7 29  1  0  0  0
  8  9  1  0  0  0
  8 22  1  0  0  0
  9 10  1  0  0  0
  9 27  2  0  0  0
 10 11  2  0  0  0
 10 15  1  0  0  0
 11 12  1  0  0  0
 11 96  1  0  0  0
 12 13  2  0  0  0
 12 97  1  0  0  0
 13 14  1  0  0  0
 13 31  1  0  0  0
 14 15  2  0  0  0
 14 98  1  0  0  0
 15 99  1  0  0  0
 16 17  2  0  0  0
 16 21  1  0  0  0
 16 31  1  0  0  0
 17 18  1  0  0  0
 17100  1  0  0  0
 18 19  2  0  0  0
 18101  1  0  0  0
 19 20  1  0  0  0
 19 24  1  0  0  0
 20 21  2  0  0  0
 20102  1  0  0  0
 21 23  1  0  0  0
 22 28  1  0  0  0
 22 32  2  0  0  0
 26 27  1  0  0  0
 28103  1  0  0  0
 28104  1  0  0  0
 29105  1  0  0  0
 29106  1  0  0  0
 33 34  1  0  0  0
 33 66  1  0  0  0
 33 70  2  0  0  0
 34 36  1  0  0  0
 34 59  1  0  0  0
 34107  1  0  0  0
 35 44  2  0  0  0
 35 45  1  0  0  0
 35 68  1  0  0  0
 36 56  1  0  0  0
 36108  1  0  0  0
 37 39  1  0  0  0
 37 47  1  0  0  0
 37 66  1  0  0  0
 37109  1  0  0  0
 38 43  2  0  0  0
 38 46  1  0  0  0
 38 47  1  0  0  0
 39 64  1  0  0  0
 39 67  2  0  0  0
 40 52  1  0  0  0
 40 53  2  0  0  0
 40 58  1  0  0  0
 41110  1  0  0  0
 41111  1  0  0  0
 41112  1  0  0  0
 41 48  1  0  0  0
 42 43  1  0  0  0
 42 66  1  0  0  0
 42113  1  0  0  0
 42114  1  0  0  0
 43 44  1  0  0  0
 44115  1  0  0  0
 45 46  2  0  0  0
 45116  1  0  0  0
 46117  1  0  0  0
 47118  1  0  0  0
 47119  1  0  0  0
 48 56  1  0  0  0
 48 65  1  0  0  0
 48120  1  0  0  0
 49 50  1  0  0  0
 49 53  1  0  0  0
 49 64  1  0  0  0
 49121  1  0  0  0
 50 51  1  0  0  0
 50122  1  0  0  0
 50123  1  0  0  0
 51 52  1  0  0  0
 51124  1  0  0  0
 51125  1  0  0  0
 52126  1  0  0  0
 52127  1  0  0  0
 53 54  1  0  0  0
 54 55  2  0  0  0
 54128  1  0  0  0
 55 57  1  0  0  0
 55129  1  0  0  0
 56 69  2  0  0  0
 57 58  2  0  0  0
 57130  1  0  0  0
 58131  1  0  0  0
 59 60  1  0  0  0
 59 61  1  0  0  0
 59 62  1  0  0  0
 60132  1  0  0  0
 60133  1  0  0  0
 60134  1  0  0  0
 61135  1  0  0  0
 61136  1  0  0  0
 61137  1  0  0  0
 62138  1  0  0  0
 62139  1  0  0  0
 62140  1  0  0  0
 63 65  1  0  0  0
 63141  1  0  0  0
 63142  1  0  0  0
 63143  1  0  0  0
 64144  1  0  0  0
 65145  1  0  0  0
 68 81  1  0  0  0
 71 72  2  0  0  0
 71 73  1  0  0  0
 71146  1  0  0  0
 72 82  1  0  0  0
 72147  1  0  0  0
 73 83  2  0  0  0
 73 84  1  0  0  0
 74 78  1  0  0  0
 74 82  2  0  0  0
 74 83  1  0  0  0
 75 76  1  0  0  0
 75 77  1  0  0  0
 75148  1  0  0  0
 75149  1  0  0  0
 76 84  1  0  0  0
 76150  1  0  0  0
 76151  1  0  0  0
 77 79  1  0  0  0
 77 84  1  0  0  0
 77152  1  0  0  0
 78 85  1  0  0  0
 78153  1  0  0  0
 78154  1  0  0  0
 79 86  1  0  0  0
 79155  1  0  0  0
 79156  1  0  0  0
 80 81  1  0  0  0
 80 86  1  0  0  0
 80157  1  0  0  0
 80158  1  0  0  0
 81159  1  0  0  0
 81160  1  0  0  0
 85161  1  0  0  0
 86162  1  0  0  0
 86163  1  0  0  0
M  CHG  1  86   1
M  ISO  4   1 100  68 101  81 101  85 100
M  END
> <chiral flag>
0

> <version>
0

> <s_m_source_file>
/data/baiqing/PycharmProjects/Reinvent-master-3.2/result/LINK_invent/BTK/process_docking_weight1_custom_sum_contain_oxygen_bond_distance_aromatic_linkinvent_7_9_3/rearranged_h_0191.sdf

> <i_m_source_file_index>
45

> <r_mmod_Potential_Energy-OPLS-2005>
-855.845520019531

> <r_mmod_Stretch_Energy-OPLS-2005>
31.4921493530273

> <r_mmod_Bend_Energy-OPLS-2005>
104.737411499023

> <r_mmod_Torsional_Energy-OPLS-2005>
266.584655761719

> <r_mmod_Improper_Torsional_Energy-OPLS-2005>
10.9874773025513

> <r_mmod_Van_der_Waal_Energy-OPLS-2005>
185.175216674805

> <r_mmod_Electrostatic_Energy-OPLS-2005>
-993.730163574219

> <r_mmod_Solvation_Energy-OPLS-2005>
-469.600677490234

> <b_mmod_Minimization_Converged-OPLS-2005>
0

> <r_mmod_RMS_Derivative-OPLS-2005>
4.44700050354004

$$$$
45
                    3D
 Structure written by MMmdl.
154163  0  0  1  0            999 V2000
  -30.6544  -14.6497   20.4892 C   0  0  0  0  0  0
  -30.4271  -12.3997   19.4597 C   0  0  0  0  0  0
  -29.5039  -12.5000   18.2267 C   0  0  0  0  0  0
  -28.0286  -12.3382   18.6408 C   0  0  0  0  0  0
  -27.6475  -13.2245   19.8571 C   0  0  2  0  0  0
  -28.6925  -13.1201   20.9903 C   0  0  0  0  0  0
  -25.2535  -13.8187   20.5690 C   0  0  0  0  0  0
  -24.1815  -13.0441   20.9200 C   0  0  0  0  0  0
  -24.6395  -11.6916   20.8746 C   0  0  0  0  0  0
  -23.9069  -10.4294   21.0407 C   0  0  0  0  0  0
  -24.3618   -9.4209   21.9185 C   0  0  0  0  0  0
  -23.6294   -8.2246   22.0755 C   0  0  0  0  0  0
  -22.4277   -8.0283   21.3545 C   0  0  0  0  0  0
  -21.9913   -9.0255   20.4646 C   0  0  0  0  0  0
  -22.7241  -10.2134   20.3056 C   0  0  0  0  0  0
  -21.6853   -6.0735   22.5278 C   0  0  0  0  0  0
  -21.4014   -6.5639   23.8210 C   0  0  0  0  0  0
  -21.3660   -5.6793   24.9173 C   0  0  0  0  0  0
  -21.6044   -4.3055   24.7224 C   0  0  0  0  0  0
  -21.8819   -3.8147   23.4346 C   0  0  0  0  0  0
  -21.9194   -4.6964   22.3401 C   0  0  0  0  0  0
  -22.7838  -13.5229   21.1857 C   0  0  0  0  0  0
  -22.1663   -4.2149   21.0980 F   0  0  0  0  0  0
  -21.5629   -3.4539   25.7738 F   0  0  0  0  0  0
  -30.0039  -13.4454   20.4144 N   0  0  0  0  0  0
  -26.2963  -12.9383   20.3306 N   0  0  0  0  0  0
  -25.9325  -11.6530   20.5762 N   0  0  0  0  0  0
  -22.0479  -12.8219   22.0408 N   0  0  0  0  0  0
  -25.4229  -15.1909   20.4093 N   0  0  0  0  0  0
  -31.8324  -14.7528   20.1389 O   0  0  0  0  0  0
  -21.6641   -6.8880   21.4241 O   0  0  0  0  0  0
  -22.3525  -14.5538   20.6709 O   0  0  0  0  0  0
  -24.6275  -31.8601   23.2041 C   0  0  0  0  0  0
  -25.9123  -32.4778   23.8364 C   0  0  1  0  0  0
  -27.2180  -27.3110   20.1101 C   0  0  0  0  0  0
  -25.5939  -33.8580   24.2290 N   0  0  0  0  0  0
  -23.4207  -30.4864   21.5471 C   0  0  2  0  0  0
  -24.8660  -28.9465   20.1087 C   0  0  0  0  0  0
  -22.7478  -29.4631   22.4933 C   0  0  0  0  0  0
  -18.0287  -28.1382   22.8487 C   0  0  0  0  0  0
  -24.1487  -36.7285   23.2635 C   0  0  0  0  0  0
  -25.9644  -30.7874   21.3785 C   0  0  0  0  0  0
  -26.0367  -29.4157   20.7178 C   0  0  0  0  0  0
  -27.2147  -28.6080   20.7143 C   0  0  0  0  0  0
  -26.0209  -26.9037   19.4712 C   0  0  0  0  0  0
  -24.8608  -27.6960   19.4776 C   0  0  0  0  0  0
  -23.6352  -29.8271   20.1605 C   0  0  0  0  0  0
  -25.4110  -36.3082   24.0331 C   0  0  1  0  0  0
  -20.5889  -28.3690   23.1277 C   0  0  2  0  0  0
  -20.6777  -26.9413   22.5406 C   0  0  0  0  0  0
  -19.5753  -26.6386   21.5209 C   0  0  0  0  0  0
  -18.1932  -26.7927   22.1620 C   0  0  0  0  0  0
  -19.1540  -28.8852   23.2878 C   0  0  0  0  0  0
  -18.9464  -30.1454   23.8897 C   0  0  0  0  0  0
  -17.6465  -30.6587   24.0563 C   0  0  0  0  0  0
  -25.9055  -34.9451   23.5109 C   0  0  0  0  0  0
  -16.5356  -29.9086   23.6331 C   0  0  0  0  0  0
  -16.7275  -28.6501   23.0356 C   0  0  0  0  0  0
  -26.4504  -31.6585   25.0733 C   0  0  0  0  0  0
  -25.3739  -31.3725   26.1461 C   0  0  0  0  0  0
  -27.0342  -30.3006   24.6192 C   0  0  0  0  0  0
  -27.6063  -32.4317   25.7502 C   0  0  0  0  0  0
  -27.5585  -37.1790   24.8457 C   0  0  0  0  0  0
  -21.4191  -29.3047   22.3673 N   0  0  0  0  0  0
  -26.4281  -37.3785   23.9424 N   0  0  0  0  0  0
  -24.6896  -31.0608   22.0999 N   0  0  0  0  0  0
  -23.4199  -28.8162   23.3007 O   0  0  0  0  0  0
  -28.3148  -26.4278   20.1821 O   0  0  0  0  0  0
  -26.5617  -34.8920   22.4672 O   0  0  0  0  0  0
  -23.5437  -32.1406   23.7365 O   0  0  0  0  0  0
  -28.0945  -22.4768   19.3906 C   0  0  0  0  0  0
  -29.9410  -22.1130   21.2860 C   0  0  0  0  0  0
  -28.6284  -23.6197   20.0596 C   0  0  0  0  0  0
  -29.3969  -20.9649   20.6149 C   0  0  0  0  0  0
  -30.8543  -17.7617   22.0300 C   0  0  0  0  0  0
  -30.8172  -19.2995   21.8917 C   0  0  0  0  0  0
  -29.3496  -18.3407   20.2577 C   0  0  0  0  0  0
  -30.3756  -17.2107   20.6783 C   0  0  2  0  0  0
  -28.0978  -25.0576   19.6555 C   0  0  0  0  0  0
  -29.5735  -23.4132   21.0249 N   0  0  0  0  0  0
  -28.4614  -21.1815   19.6551 N   0  0  0  0  0  0
  -29.7845  -19.6059   20.9081 N   0  0  0  0  0  0
  -29.9123  -15.7733   20.7580 N   0  0  0  0  0  0
  -31.4703  -12.5075   19.1577 H   0  0  0  0  0  0
  -30.3508  -11.4135   19.9202 H   0  0  0  0  0  0
  -29.7710  -11.7399   17.4912 H   0  0  0  0  0  0
  -29.6449  -13.4644   17.7359 H   0  0  0  0  0  0
  -27.8717  -11.2873   18.8868 H   0  0  0  0  0  0
  -27.3726  -12.5525   17.7963 H   0  0  0  0  0  0
  -27.6556  -14.2534   19.4969 H   0  0  0  0  0  0
  -28.7052  -12.1148   21.4141 H   0  0  0  0  0  0
  -28.4423  -13.7927   21.8125 H   0  0  0  0  0  0
  -25.2761   -9.5685   22.4761 H   0  0  0  0  0  0
  -24.0000   -7.4638   22.7477 H   0  0  0  0  0  0
  -21.0846   -8.8772   19.8952 H   0  0  0  0  0  0
  -22.3697  -10.9673   19.6167 H   0  0  0  0  0  0
  -21.2006   -7.6146   23.9713 H   0  0  0  0  0  0
  -21.1482   -6.0523   25.9075 H   0  0  0  0  0  0
  -22.0598   -2.7609   23.2846 H   0  0  0  0  0  0
  -22.4098  -11.9879   22.4791 H   0  0  0  0  0  0
  -21.1095  -13.1239   22.2609 H   0  0  0  0  0  0
  -24.6524  -15.8422   20.5140 H   0  0  0  0  0  0
  -26.2656  -15.6292   20.0607 H   0  0  0  0  0  0
  -26.7190  -32.5444   23.1111 H   0  0  0  0  0  0
  -25.0097  -33.9728   25.0442 H   0  0  0  0  0  0
  -22.7149  -31.3079   21.4070 H   0  0  0  0  0  0
  -23.3763  -35.9601   23.3274 H   0  0  0  0  0  0
  -24.3586  -36.8930   22.2054 H   0  0  0  0  0  0
  -23.7221  -37.6472   23.6669 H   0  0  0  0  0  0
  -26.1005  -31.5522   20.6125 H   0  0  0  0  0  0
  -26.8434  -30.8323   22.0098 H   0  0  0  0  0  0
  -28.1087  -28.9603   21.2098 H   0  0  0  0  0  0
  -25.9349  -25.9494   18.9735 H   0  0  0  0  0  0
  -23.9639  -27.3310   18.9961 H   0  0  0  0  0  0
  -23.7562  -30.6070   19.4078 H   0  0  0  0  0  0
  -22.7542  -29.2597   19.8549 H   0  0  0  0  0  0
  -25.1288  -36.1927   25.0822 H   0  0  0  0  0  0
  -20.9980  -28.3264   24.1397 H   0  0  0  0  0  0
  -20.5681  -26.2300   23.3607 H   0  0  0  0  0  0
  -21.6646  -26.7445   22.1198 H   0  0  0  0  0  0
  -19.6915  -25.6299   21.1233 H   0  0  0  0  0  0
  -19.6686  -27.3200   20.6741 H   0  0  0  0  0  0
  -17.4202  -26.6678   21.4021 H   0  0  0  0  0  0
  -18.0329  -26.0066   22.9012 H   0  0  0  0  0  0
  -19.7940  -30.7267   24.2266 H   0  0  0  0  0  0
  -17.5022  -31.6266   24.5166 H   0  0  0  0  0  0
  -15.5358  -30.2990   23.7659 H   0  0  0  0  0  0
  -15.8672  -28.0822   22.7074 H   0  0  0  0  0  0
  -24.5902  -30.7089   25.7789 H   0  0  0  0  0  0
  -24.8946  -32.2892   26.4902 H   0  0  0  0  0  0
  -25.8064  -30.8884   27.0227 H   0  0  0  0  0  0
  -26.2914  -29.6757   24.1218 H   0  0  0  0  0  0
  -27.4039  -29.7263   25.4697 H   0  0  0  0  0  0
  -27.8789  -30.4288   23.9418 H   0  0  0  0  0  0
  -27.2680  -33.3629   26.2059 H   0  0  0  0  0  0
  -28.3883  -32.6856   25.0334 H   0  0  0  0  0  0
  -28.0716  -31.8451   26.5435 H   0  0  0  0  0  0
  -28.2567  -38.0124   24.7564 H   0  0  0  0  0  0
  -28.1118  -36.2659   24.6203 H   0  0  0  0  0  0
  -27.2314  -37.1343   25.8861 H   0  0  0  0  0  0
  -20.9367  -29.8778   21.6891 H   0  0  0  0  0  0
  -26.0157  -38.2850   24.1465 H   0  0  0  0  0  0
  -27.3457  -22.6056   18.6225 H   0  0  0  0  0  0
  -30.6908  -21.9972   22.0544 H   0  0  0  0  0  0
  -30.1629  -17.4586   22.8178 H   0  0  0  0  0  0
  -31.8440  -17.3965   22.3075 H   0  0  0  0  0  0
  -31.7772  -19.6705   21.5284 H   0  0  0  0  0  0
  -30.6178  -19.7734   22.8542 H   0  0  0  0  0  0
  -28.3439  -18.0997   20.6050 H   0  0  0  0  0  0
  -29.3042  -18.4511   19.1730 H   0  0  0  0  0  0
  -31.2136  -17.2678   19.9802 H   0  0  0  0  0  0
  -27.6631  -24.9418   20.6508 H   0  0  0  0  0  0
  -29.1323  -25.1948   19.3389 H   0  0  0  0  0  0
  -28.9422  -15.6206   20.9886 H   0  0  0  0  0  0
  1 25  1  0  0  0
  1 30  2  0  0  0
  1 83  1  0  0  0
  2  3  1  0  0  0
  2 25  1  0  0  0
  2 84  1  0  0  0
  2 85  1  0  0  0
  3  4  1  0  0  0
  3 86  1  0  0  0
  3 87  1  0  0  0
  4  5  1  0  0  0
  4 88  1  0  0  0
  4 89  1  0  0  0
  5  6  1  0  0  0
  5 26  1  0  0  0
  5 90  1  0  0  0
  6 25  1  0  0  0
  6 91  1  0  0  0
  6 92  1  0  0  0
  7  8  2  0  0  0
  7 26  1  0  0  0
  7 29  1  0  0  0
  8  9  1  0  0  0
  8 22  1  0  0  0
  9 10  1  0  0  0
  9 27  2  0  0  0
 10 11  2  0  0  0
 10 15  1  0  0  0
 11 12  1  0  0  0
 11 93  1  0  0  0
 12 13  2  0  0  0
 12 94  1  0  0  0
 13 14  1  0  0  0
 13 31  1  0  0  0
 14 15  2  0  0  0
 14 95  1  0  0  0
 15 96  1  0  0  0
 16 17  2  0  0  0
 16 21  1  0  0  0
 16 31  1  0  0  0
 17 18  1  0  0  0
 17 97  1  0  0  0
 18 19  2  0  0  0
 18 98  1  0  0  0
 19 20  1  0  0  0
 19 24  1  0  0  0
 20 21  2  0  0  0
 20 99  1  0  0  0
 21 23  1  0  0  0
 22 28  1  0  0  0
 22 32  2  0  0  0
 26 27  1  0  0  0
 28100  1  0  0  0
 28101  1  0  0  0
 29102  1  0  0  0
 29103  1  0  0  0
 33 34  1  0  0  0
 33 66  1  0  0  0
 33 70  2  0  0  0
 34 36  1  0  0  0
 34 59  1  0  0  0
 34104  1  0  0  0
 35 44  2  0  0  0
 35 45  1  0  0  0
 35 68  1  0  0  0
 36 56  1  0  0  0
 36105  1  0  0  0
 37 39  1  0  0  0
 37 47  1  0  0  0
 37 66  1  0  0  0
 37106  1  0  0  0
 38 43  2  0  0  0
 38 46  1  0  0  0
 38 47  1  0  0  0
 39 64  1  0  0  0
 39 67  2  0  0  0
 40 52  1  0  0  0
 40 53  2  0  0  0
 40 58  1  0  0  0
 41107  1  0  0  0
 41108  1  0  0  0
 41109  1  0  0  0
 41 48  1  0  0  0
 42 43  1  0  0  0
 42 66  1  0  0  0
 42110  1  0  0  0
 42111  1  0  0  0
 43 44  1  0  0  0
 44112  1  0  0  0
 45 46  2  0  0  0
 45113  1  0  0  0
 46114  1  0  0  0
 47115  1  0  0  0
 47116  1  0  0  0
 48 56  1  0  0  0
 48 65  1  0  0  0
 48117  1  0  0  0
 49 50  1  0  0  0
 49 53  1  0  0  0
 49 64  1  0  0  0
 49118  1  0  0  0
 50 51  1  0  0  0
 50119  1  0  0  0
 50120  1  0  0  0
 51 52  1  0  0  0
 51121  1  0  0  0
 51122  1  0  0  0
 52123  1  0  0  0
 52124  1  0  0  0
 53 54  1  0  0  0
 54 55  2  0  0  0
 54125  1  0  0  0
 55 57  1  0  0  0
 55126  1  0  0  0
 56 69  2  0  0  0
 57 58  2  0  0  0
 57127  1  0  0  0
 58128  1  0  0  0
 59 60  1  0  0  0
 59 61  1  0  0  0
 59 62  1  0  0  0
 60129  1  0  0  0
 60130  1  0  0  0
 60131  1  0  0  0
 61132  1  0  0  0
 61133  1  0  0  0
 61134  1  0  0  0
 62135  1  0  0  0
 62136  1  0  0  0
 62137  1  0  0  0
 63 65  1  0  0  0
 63138  1  0  0  0
 63139  1  0  0  0
 63140  1  0  0  0
 64141  1  0  0  0
 65142  1  0  0  0
 68 79  1  0  0  0
 71 73  2  0  0  0
 71 81  1  0  0  0
 71143  1  0  0  0
 72 74  1  0  0  0
 72 80  2  0  0  0
 72144  1  0  0  0
 73 79  1  0  0  0
 73 80  1  0  0  0
 74 81  2  0  0  0
 74 82  1  0  0  0
 75 76  1  0  0  0
 75 78  1  0  0  0
 75145  1  0  0  0
 75146  1  0  0  0
 76 82  1  0  0  0
 76147  1  0  0  0
 76148  1  0  0  0
 77 78  1  0  0  0
 77 82  1  0  0  0
 77149  1  0  0  0
 77150  1  0  0  0
 78 83  1  0  0  0
 78151  1  0  0  0
 79152  1  0  0  0
 79153  1  0  0  0
 83154  1  0  0  0
M  ISO  4   1 100  68 101  79 101  83 100
M  END
> <chiral flag>
0

> <version>
0

> <s_m_source_file>
/data/baiqing/PycharmProjects/Reinvent-master-3.2/result/LINK_invent/BTK/process_docking_weight1_custom_sum_contain_oxygen_bond_distance_aromatic_linkinvent_7_9_3/rearranged_h_0191.sdf

> <i_m_source_file_index>
46

> <r_mmod_Potential_Energy-OPLS-2005>
374.178497314453

> <r_mmod_Stretch_Energy-OPLS-2005>
84.8294143676758

> <r_mmod_Bend_Energy-OPLS-2005>
392.225128173828

> <r_mmod_Torsional_Energy-OPLS-2005>
234.534088134766

> <r_mmod_Improper_Torsional_Energy-OPLS-2005>
4.73511362075806

> <r_mmod_Van_der_Waal_Energy-OPLS-2005>
155.327301025391

> <r_mmod_Electrostatic_Energy-OPLS-2005>
-306.692199707031

> <r_mmod_Solvation_Energy-OPLS-2005>
-246.984436035156

> <b_mmod_Minimization_Converged-OPLS-2005>
0

> <r_mmod_RMS_Derivative-OPLS-2005>
0.37908461689949

$$$$
46
                    3D
 Structure written by MMmdl.
172181  0  0  1  0            999 V2000
  -30.7293  -14.4581   20.6040 C   0  0  0  0  0  0
  -30.4208  -12.3147   19.4095 C   0  0  0  0  0  0
  -29.4867  -12.5033   18.1979 C   0  0  0  0  0  0
  -28.0114  -12.3447   18.6155 C   0  0  0  0  0  0
  -27.6540  -13.1885   19.8658 C   0  0  2  0  0  0
  -28.7016  -12.9913   20.9861 C   0  0  0  0  0  0
  -25.2585  -13.8101   20.5669 C   0  0  0  0  0  0
  -24.1828  -13.0409   20.9197 C   0  0  0  0  0  0
  -24.6364  -11.6872   20.8763 C   0  0  0  0  0  0
  -23.9032  -10.4274   21.0432 C   0  0  0  0  0  0
  -24.3596   -9.4192   21.9202 C   0  0  0  0  0  0
  -23.6277   -8.2221   22.0758 C   0  0  0  0  0  0
  -22.4260   -8.0268   21.3546 C   0  0  0  0  0  0
  -21.9894   -9.0238   20.4651 C   0  0  0  0  0  0
  -22.7215  -10.2121   20.3069 C   0  0  0  0  0  0
  -21.6844   -6.0728   22.5281 C   0  0  0  0  0  0
  -21.4004   -6.5635   23.8215 C   0  0  0  0  0  0
  -21.3658   -5.6788   24.9177 C   0  0  0  0  0  0
  -21.6045   -4.3050   24.7226 C   0  0  0  0  0  0
  -21.8820   -3.8143   23.4349 C   0  0  0  0  0  0
  -21.9187   -4.6960   22.3402 C   0  0  0  0  0  0
  -22.7856  -13.5234   21.1853 C   0  0  0  0  0  0
  -22.1659   -4.2146   21.0981 F   0  0  0  0  0  0
  -21.5632   -3.4536   25.7740 F   0  0  0  0  0  0
  -30.0313  -13.3001   20.4307 N   0  0  0  0  0  0
  -26.2984  -12.9227   20.3337 N   0  0  0  0  0  0
  -25.9279  -11.6412   20.5777 N   0  0  0  0  0  0
  -22.0482  -12.8239   22.0403 N   0  0  0  0  0  0
  -25.4314  -15.1817   20.4037 N   0  0  0  0  0  0
  -31.8512  -14.6421   20.1206 O   0  0  0  0  0  0
  -21.6628   -6.8869   21.4242 O   0  0  0  0  0  0
  -22.3559  -14.5550   20.6699 O   0  0  0  0  0  0
  -24.6144  -31.8681   23.2100 C   0  0  0  0  0  0
  -25.9037  -32.4826   23.8395 C   0  0  1  0  0  0
  -27.2381  -27.4347   20.0816 C   0  0  0  0  0  0
  -25.5899  -33.8625   24.2322 N   0  0  0  0  0  0
  -23.4014  -30.4947   21.5509 C   0  0  2  0  0  0
  -24.8458  -28.9616   20.1159 C   0  0  0  0  0  0
  -22.7402  -29.4668   22.4976 C   0  0  0  0  0  0
  -18.0273  -28.1370   22.8502 C   0  0  0  0  0  0
  -24.1490  -36.7316   23.2637 C   0  0  0  0  0  0
  -25.9322  -30.8334   21.3635 C   0  0  0  0  0  0
  -26.0080  -29.4681   20.7088 C   0  0  0  0  0  0
  -27.2033  -28.7126   20.6898 C   0  0  0  0  0  0
  -26.0448  -26.9382   19.4993 C   0  0  0  0  0  0
  -24.8591  -27.6944   19.5124 C   0  0  0  0  0  0
  -23.6093  -29.8303   20.1643 C   0  0  0  0  0  0
  -25.4110  -36.3113   24.0336 C   0  0  1  0  0  0
  -20.5866  -28.3666   23.1309 C   0  0  2  0  0  0
  -20.6766  -26.9401   22.5413 C   0  0  0  0  0  0
  -19.5743  -26.6381   21.5218 C   0  0  0  0  0  0
  -18.1920  -26.7916   22.1629 C   0  0  0  0  0  0
  -19.1526  -28.8834   23.2907 C   0  0  0  0  0  0
  -18.9458  -30.1440   23.8914 C   0  0  0  0  0  0
  -17.6460  -30.6577   24.0575 C   0  0  0  0  0  0
  -25.9037  -34.9479   23.5123 C   0  0  0  0  0  0
  -16.5353  -29.9088   23.6324 C   0  0  0  0  0  0
  -16.7263  -28.6502   23.0345 C   0  0  0  0  0  0
  -26.4467  -31.6595   25.0715 C   0  0  0  0  0  0
  -25.3745  -31.3720   26.1483 C   0  0  0  0  0  0
  -27.0273  -30.3024   24.6085 C   0  0  0  0  0  0
  -27.6044  -32.4315   25.7472 C   0  0  0  0  0  0
  -27.5588  -37.1806   24.8463 C   0  0  0  0  0  0
  -21.4131  -29.3043   22.3717 N   0  0  0  0  0  0
  -26.4295  -37.3794   23.9416 N   0  0  0  0  0  0
  -24.6678  -31.0791   22.0999 N   0  0  0  0  0  0
  -23.4181  -28.8196   23.3002 O   0  0  0  0  0  0
  -28.4294  -26.7273   20.0786 O   0  0  0  0  0  0
  -26.5606  -34.8931   22.4689 O   0  0  0  0  0  0
  -23.5334  -32.1433   23.7497 O   0  0  0  0  0  0
  -31.0354  -17.4502   22.5650 C   0  0  0  0  0  0
  -29.3356  -17.7781   20.7807 C   0  0  0  0  0  0
  -32.1765  -22.5471   20.7813 C   0  0  0  0  0  0
  -30.7460  -15.9306   22.5793 C   0  0  0  0  0  0
  -29.0521  -16.2591   20.7602 C   0  0  0  0  0  0
  -31.8531  -24.0384   20.6441 C   0  0  0  0  0  0
  -29.8230  -22.7909   20.8526 C   0  0  0  0  0  0
  -30.9605  -21.9727   21.5072 C   0  0  1  0  0  0
  -29.7748  -18.2519   22.1759 C   0  0  0  0  0  0
  -30.0110  -20.1424   23.7465 C   0  0  0  0  0  0
  -30.8864  -20.4128   21.4210 C   0  0  0  0  0  0
  -29.8746  -24.8510   19.3799 C   0  0  0  0  0  0
  -28.4426  -25.4172   19.4911 C   0  0  0  0  0  0
  -30.1286  -15.4273   21.3392 N   0  0  0  0  0  0
  -30.3730  -24.1562   20.6030 N   0  3  2  0  0  0
  -29.8888  -19.7447   22.3188 N   0  3  1  0  0  0
  -31.4635  -12.4173   19.1025 H   0  0  0  0  0  0
  -30.3290  -11.3046   19.8111 H   0  0  0  0  0  0
  -29.7333  -11.7824   17.4172 H   0  0  0  0  0  0
  -29.6416  -13.4917   17.7613 H   0  0  0  0  0  0
  -27.8345  -11.2878   18.8183 H   0  0  0  0  0  0
  -27.3551  -12.6065   17.7850 H   0  0  0  0  0  0
  -27.6749  -14.2232   19.5398 H   0  0  0  0  0  0
  -28.6868  -11.9595   21.3392 H   0  0  0  0  0  0
  -28.4555  -13.5977   21.8582 H   0  0  0  0  0  0
  -25.2742   -9.5659   22.4779 H   0  0  0  0  0  0
  -23.9986   -7.4605   22.7467 H   0  0  0  0  0  0
  -21.0828   -8.8760   19.8953 H   0  0  0  0  0  0
  -22.3687  -10.9663   19.6179 H   0  0  0  0  0  0
  -21.1996   -7.6145   23.9720 H   0  0  0  0  0  0
  -21.1481   -6.0519   25.9081 H   0  0  0  0  0  0
  -22.0603   -2.7605   23.2848 H   0  0  0  0  0  0
  -22.4065  -11.9888   22.4794 H   0  0  0  0  0  0
  -21.1106  -13.1286   22.2603 H   0  0  0  0  0  0
  -24.6635  -15.8362   20.5074 H   0  0  0  0  0  0
  -26.2777  -15.6163   20.0603 H   0  0  0  0  0  0
  -26.7106  -32.5528   23.1153 H   0  0  0  0  0  0
  -25.0071  -33.9806   25.0483 H   0  0  0  0  0  0
  -22.6909  -31.3119   21.4119 H   0  0  0  0  0  0
  -23.3751  -35.9650   23.3317 H   0  0  0  0  0  0
  -24.3595  -36.8906   22.2049 H   0  0  0  0  0  0
  -23.7245  -37.6529   23.6641 H   0  0  0  0  0  0
  -26.0485  -31.6003   20.5962 H   0  0  0  0  0  0
  -26.8182  -30.8817   21.9846 H   0  0  0  0  0  0
  -28.1026  -29.1076   21.1417 H   0  0  0  0  0  0
  -25.9926  -25.9697   19.0255 H   0  0  0  0  0  0
  -23.9629  -27.2955   19.0569 H   0  0  0  0  0  0
  -23.7219  -30.6075   19.4076 H   0  0  0  0  0  0
  -22.7318  -29.2552   19.8635 H   0  0  0  0  0  0
  -25.1279  -36.1978   25.0826 H   0  0  0  0  0  0
  -20.9980  -28.3235   24.1421 H   0  0  0  0  0  0
  -20.5673  -26.2277   23.3603 H   0  0  0  0  0  0
  -21.6634  -26.7435   22.1207 H   0  0  0  0  0  0
  -19.6913  -25.6300   21.1228 H   0  0  0  0  0  0
  -19.6679  -27.3214   20.6772 H   0  0  0  0  0  0
  -17.4194  -26.6679   21.4026 H   0  0  0  0  0  0
  -18.0312  -26.0036   22.9004 H   0  0  0  0  0  0
  -19.7934  -30.7252   24.2279 H   0  0  0  0  0  0
  -17.5018  -31.6261   24.5174 H   0  0  0  0  0  0
  -15.5357  -30.3008   23.7624 H   0  0  0  0  0  0
  -15.8659  -28.0836   22.7045 H   0  0  0  0  0  0
  -24.5906  -30.7067   25.7853 H   0  0  0  0  0  0
  -24.8966  -32.2885   26.4948 H   0  0  0  0  0  0
  -25.8112  -30.8892   27.0232 H   0  0  0  0  0  0
  -26.2793  -29.6806   24.1143 H   0  0  0  0  0  0
  -27.4033  -29.7241   25.4535 H   0  0  0  0  0  0
  -27.8644  -30.4329   23.9220 H   0  0  0  0  0  0
  -27.2662  -33.3620   26.2044 H   0  0  0  0  0  0
  -28.3853  -32.6862   25.0296 H   0  0  0  0  0  0
  -28.0702  -31.8438   26.5390 H   0  0  0  0  0  0
  -28.2592  -38.0118   24.7529 H   0  0  0  0  0  0
  -28.1083  -36.2647   24.6245 H   0  0  0  0  0  0
  -27.2310  -37.1408   25.8864 H   0  0  0  0  0  0
  -20.9275  -29.8794   21.6975 H   0  0  0  0  0  0
  -26.0181  -38.2863   24.1433 H   0  0  0  0  0  0
  -31.8485  -17.6561   21.8678 H   0  0  0  0  0  0
  -31.3946  -17.7413   23.5520 H   0  0  0  0  0  0
  -28.4403  -18.3133   20.4613 H   0  0  0  0  0  0
  -30.1069  -17.9962   20.0420 H   0  0  0  0  0  0
  -33.1137  -22.3753   21.3123 H   0  0  0  0  0  0
  -32.2735  -22.1024   19.7894 H   0  0  0  0  0  0
  -30.0632  -15.6982   23.3978 H   0  0  0  0  0  0
  -31.6678  -15.3881   22.8026 H   0  0  0  0  0  0
  -28.8755  -15.9859   19.7193 H   0  0  0  0  0  0
  -28.1313  -16.0467   21.3038 H   0  0  0  0  0  0
  -32.3501  -24.4673   19.7722 H   0  0  0  0  0  0
  -32.2142  -24.5828   21.5178 H   0  0  0  0  0  0
  -28.9321  -22.8336   21.4797 H   0  0  0  0  0  0
  -29.5337  -22.3268   19.9079 H   0  0  0  0  0  0
  -31.0642  -22.2875   22.5451 H   0  0  0  0  0  0
  -28.9766  -17.9507   22.8579 H   0  0  0  0  0  0
  -29.3302  -19.5737   24.3805 H   0  0  0  0  0  0
  -29.7555  -21.1897   23.8993 H   0  0  0  0  0  0
  -31.0230  -19.9835   24.1196 H   0  0  0  0  0  0
  -31.8712  -20.0143   21.6673 H   0  0  0  0  0  0
  -30.7030  -20.1309   20.3845 H   0  0  0  0  0  0
  -30.5379  -25.6767   19.1192 H   0  0  0  0  0  0
  -29.9259  -24.1572   18.5400 H   0  0  0  0  0  0
  -27.7909  -24.7345   20.0381 H   0  0  0  0  0  0
  -28.0570  -25.4887   18.4734 H   0  0  0  0  0  0
  -30.1267  -24.7371   21.3937 H   0  0  0  0  0  0
  -28.9815  -20.0873   22.0383 H   0  0  0  0  0  0
  1 25  1  0  0  0
  1 30  2  0  0  0
  1 84  1  0  0  0
  2  3  1  0  0  0
  2 25  1  0  0  0
  2 87  1  0  0  0
  2 88  1  0  0  0
  3  4  1  0  0  0
  3 89  1  0  0  0
  3 90  1  0  0  0
  4  5  1  0  0  0
  4 91  1  0  0  0
  4 92  1  0  0  0
  5  6  1  0  0  0
  5 26  1  0  0  0
  5 93  1  0  0  0
  6 25  1  0  0  0
  6 94  1  0  0  0
  6 95  1  0  0  0
  7  8  2  0  0  0
  7 26  1  0  0  0
  7 29  1  0  0  0
  8  9  1  0  0  0
  8 22  1  0  0  0
  9 10  1  0  0  0
  9 27  2  0  0  0
 10 11  2  0  0  0
 10 15  1  0  0  0
 11 12  1  0  0  0
 11 96  1  0  0  0
 12 13  2  0  0  0
 12 97  1  0  0  0
 13 14  1  0  0  0
 13 31  1  0  0  0
 14 15  2  0  0  0
 14 98  1  0  0  0
 15 99  1  0  0  0
 16 17  2  0  0  0
 16 21  1  0  0  0
 16 31  1  0  0  0
 17 18  1  0  0  0
 17100  1  0  0  0
 18 19  2  0  0  0
 18101  1  0  0  0
 19 20  1  0  0  0
 19 24  1  0  0  0
 20 21  2  0  0  0
 20102  1  0  0  0
 21 23  1  0  0  0
 22 28  1  0  0  0
 22 32  2  0  0  0
 26 27  1  0  0  0
 28103  1  0  0  0
 28104  1  0  0  0
 29105  1  0  0  0
 29106  1  0  0  0
 33 34  1  0  0  0
 33 66  1  0  0  0
 33 70  2  0  0  0
 34 36  1  0  0  0
 34 59  1  0  0  0
 34107  1  0  0  0
 35 44  2  0  0  0
 35 45  1  0  0  0
 35 68  1  0  0  0
 36 56  1  0  0  0
 36108  1  0  0  0
 37 39  1  0  0  0
 37 47  1  0  0  0
 37 66  1  0  0  0
 37109  1  0  0  0
 38 43  2  0  0  0
 38 46  1  0  0  0
 38 47  1  0  0  0
 39 64  1  0  0  0
 39 67  2  0  0  0
 40 52  1  0  0  0
 40 53  2  0  0  0
 40 58  1  0  0  0
 41110  1  0  0  0
 41111  1  0  0  0
 41112  1  0  0  0
 41 48  1  0  0  0
 42 43  1  0  0  0
 42 66  1  0  0  0
 42113  1  0  0  0
 42114  1  0  0  0
 43 44  1  0  0  0
 44115  1  0  0  0
 45 46  2  0  0  0
 45116  1  0  0  0
 46117  1  0  0  0
 47118  1  0  0  0
 47119  1  0  0  0
 48 56  1  0  0  0
 48 65  1  0  0  0
 48120  1  0  0  0
 49 50  1  0  0  0
 49 53  1  0  0  0
 49 64  1  0  0  0
 49121  1  0  0  0
 50 51  1  0  0  0
 50122  1  0  0  0
 50123  1  0  0  0
 51 52  1  0  0  0
 51124  1  0  0  0
 51125  1  0  0  0
 52126  1  0  0  0
 52127  1  0  0  0
 53 54  1  0  0  0
 54 55  2  0  0  0
 54128  1  0  0  0
 55 57  1  0  0  0
 55129  1  0  0  0
 56 69  2  0  0  0
 57 58  2  0  0  0
 57130  1  0  0  0
 58131  1  0  0  0
 59 60  1  0  0  0
 59 61  1  0  0  0
 59 62  1  0  0  0
 60132  1  0  0  0
 60133  1  0  0  0
 60134  1  0  0  0
 61135  1  0  0  0
 61136  1  0  0  0
 61137  1  0  0  0
 62138  1  0  0  0
 62139  1  0  0  0
 62140  1  0  0  0
 63 65  1  0  0  0
 63141  1  0  0  0
 63142  1  0  0  0
 63143  1  0  0  0
 64144  1  0  0  0
 65145  1  0  0  0
 68 83  1  0  0  0
 71 74  1  0  0  0
 71146  1  0  0  0
 71147  1  0  0  0
 71 79  1  0  0  0
 72 75  1  0  0  0
 72 79  1  0  0  0
 72148  1  0  0  0
 72149  1  0  0  0
 73 76  1  0  0  0
 73 78  1  0  0  0
 73150  1  0  0  0
 73151  1  0  0  0
 74 84  1  0  0  0
 74152  1  0  0  0
 74153  1  0  0  0
 75 84  1  0  0  0
 75154  1  0  0  0
 75155  1  0  0  0
 76 85  1  0  0  0
 76156  1  0  0  0
 76157  1  0  0  0
 77 78  1  0  0  0
 77 85  1  0  0  0
 77158  1  0  0  0
 77159  1  0  0  0
 78 81  1  0  0  0
 78160  1  0  0  0
 79 86  1  0  0  0
 79161  1  0  0  0
 80162  1  0  0  0
 80163  1  0  0  0
 80164  1  0  0  0
 80 86  1  0  0  0
 81 86  1  0  0  0
 81165  1  0  0  0
 81166  1  0  0  0
 82 83  1  0  0  0
 82167  1  0  0  0
 82168  1  0  0  0
 82 85  1  0  0  0
 83169  1  0  0  0
 83170  1  0  0  0
 85171  1  0  0  0
 86172  1  0  0  0
M  CHG  2  85   1  86   1
M  ISO  4   1 100  68 101  83 101  84 100
M  END
> <chiral flag>
0

> <version>
0

> <s_m_source_file>
/data/baiqing/PycharmProjects/Reinvent-master-3.2/result/LINK_invent/BTK/process_docking_weight1_custom_sum_contain_oxygen_bond_distance_aromatic_linkinvent_7_9_3/rearranged_h_0191.sdf

> <i_m_source_file_index>
47

> <r_mmod_Potential_Energy-OPLS-2005>
69.5013732910156

> <r_mmod_Stretch_Energy-OPLS-2005>
42.388843536377

> <r_mmod_Bend_Energy-OPLS-2005>
140.745147705078

> <r_mmod_Torsional_Energy-OPLS-2005>
407.175842285156

> <r_mmod_Improper_Torsional_Energy-OPLS-2005>
2.40519595146179

> <r_mmod_Van_der_Waal_Energy-OPLS-2005>
141.486465454102

> <r_mmod_Electrostatic_Energy-OPLS-2005>
231.81120300293

> <r_mmod_Solvation_Energy-OPLS-2005>
-908.907531738281

> <b_mmod_Minimization_Converged-OPLS-2005>
0

> <r_mmod_RMS_Derivative-OPLS-2005>
1.10386919975281

$$$$
47
                    3D
 Structure written by MMmdl.
168177  0  0  1  0            999 V2000
  -30.5092  -14.9139   20.4124 C   0  0  0  0  0  0
  -30.4103  -12.5463   19.4815 C   0  0  0  0  0  0
  -29.4973  -12.5151   18.2343 C   0  0  0  0  0  0
  -28.0305  -12.3147   18.6593 C   0  0  0  0  0  0
  -27.6190  -13.2408   19.8359 C   0  0  2  0  0  0
  -28.6576  -13.2436   20.9697 C   0  0  0  0  0  0
  -25.2463  -13.8210   20.5728 C   0  0  0  0  0  0
  -24.1783  -13.0459   20.9181 C   0  0  0  0  0  0
  -24.6398  -11.6919   20.8728 C   0  0  0  0  0  0
  -23.9118  -10.4288   21.0413 C   0  0  0  0  0  0
  -24.3671   -9.4203   21.9195 C   0  0  0  0  0  0
  -23.6335   -8.2248   22.0770 C   0  0  0  0  0  0
  -22.4305   -8.0298   21.3583 C   0  0  0  0  0  0
  -21.9949   -9.0270   20.4661 C   0  0  0  0  0  0
  -22.7294  -10.2144   20.3063 C   0  0  0  0  0  0
  -21.6852   -6.0759   22.5299 C   0  0  0  0  0  0
  -21.4029   -6.5672   23.8243 C   0  0  0  0  0  0
  -21.3645   -5.6828   24.9205 C   0  0  0  0  0  0
  -21.6022   -4.3081   24.7237 C   0  0  0  0  0  0
  -21.8810   -3.8182   23.4360 C   0  0  0  0  0  0
  -21.9200   -4.6995   22.3426 C   0  0  0  0  0  0
  -22.7821  -13.5194   21.1918 C   0  0  0  0  0  0
  -22.1675   -4.2210   21.0994 F   0  0  0  0  0  0
  -21.5608   -3.4559   25.7734 F   0  0  0  0  0  0
  -29.9240  -13.6505   20.3585 N   0  0  0  0  0  0
  -26.2837  -12.9429   20.3232 N   0  0  0  0  0  0
  -25.9307  -11.6567   20.5742 N   0  0  0  0  0  0
  -22.0570  -12.8090   22.0418 N   0  0  0  0  0  0
  -25.4310  -15.1921   20.4197 N   0  0  0  0  0  0
  -31.7323  -14.9736   20.2419 O   0  0  0  0  0  0
  -21.6659   -6.8907   21.4273 O   0  0  0  0  0  0
  -22.3474  -14.5547   20.6858 O   0  0  0  0  0  0
  -24.6458  -31.8434   23.1870 C   0  0  0  0  0  0
  -25.9227  -32.4691   23.8273 C   0  0  1  0  0  0
  -27.1742  -27.0811   20.1179 C   0  0  0  0  0  0
  -25.5975  -33.8519   24.2204 N   0  0  0  0  0  0
  -23.4504  -30.4658   21.5377 C   0  0  2  0  0  0
  -24.8887  -28.8915   20.1032 C   0  0  0  0  0  0
  -22.7583  -29.4539   22.4836 C   0  0  0  0  0  0
  -18.0327  -28.1394   22.8445 C   0  0  0  0  0  0
  -24.1506  -36.7242   23.2632 C   0  0  0  0  0  0
  -26.0130  -30.6891   21.4038 C   0  0  0  0  0  0
  -26.0729  -29.3034   20.7272 C   0  0  0  0  0  0
  -27.2166  -28.4143   20.7157 C   0  0  0  0  0  0
  -25.9606  -26.7810   19.4657 C   0  0  0  0  0  0
  -24.8481  -27.6492   19.4578 C   0  0  0  0  0  0
  -23.6766  -29.8100   20.1545 C   0  0  0  0  0  0
  -25.4145  -36.3058   24.0310 C   0  0  1  0  0  0
  -20.5933  -28.3744   23.1196 C   0  0  2  0  0  0
  -20.6826  -26.9431   22.5411 C   0  0  0  0  0  0
  -19.5805  -26.6377   21.5209 C   0  0  0  0  0  0
  -18.1972  -26.7935   22.1593 C   0  0  0  0  0  0
  -19.1571  -28.8885   23.2824 C   0  0  0  0  0  0
  -18.9483  -30.1478   23.8866 C   0  0  0  0  0  0
  -17.6493  -30.6594   24.0546 C   0  0  0  0  0  0
  -25.9081  -34.9413   23.5068 C   0  0  0  0  0  0
  -16.5376  -29.9079   23.6329 C   0  0  0  0  0  0
  -16.7315  -28.6499   23.0339 C   0  0  0  0  0  0
  -26.4528  -31.6561   25.0738 C   0  0  0  0  0  0
  -25.3646  -31.3799   26.1381 C   0  0  0  0  0  0
  -27.0395  -30.2924   24.6415 C   0  0  0  0  0  0
  -27.6064  -32.4341   25.7507 C   0  0  0  0  0  0
  -27.5622  -37.1768   24.8448 C   0  0  0  0  0  0
  -21.4271  -29.3039   22.3542 N   0  0  0  0  0  0
  -26.4322  -37.3763   23.9401 N   0  0  0  0  0  0
  -24.7242  -31.0214   22.0979 N   0  0  0  0  0  0
  -23.4212  -28.8052   23.2982 O   0  0  0  0  0  0
  -28.2063  -26.0676   20.2137 O   0  0  0  0  0  0
  -26.5694  -34.8889   22.4670 O   0  0  0  0  0  0
  -23.5579  -32.1375   23.7038 O   0  0  0  0  0  0
  -26.5454  -20.3967   19.7946 C   0  0  0  0  0  0
  -27.5199  -21.1613   18.8987 C   0  0  0  0  0  0
  -28.9068  -18.0513   18.9120 C   0  0  0  0  0  0
  -27.3826  -19.8795   20.9688 C   0  0  0  0  0  0
  -29.5149  -16.6041   18.9166 C   0  0  0  0  0  0
  -29.7001  -17.4552   21.0540 C   0  0  0  0  0  0
  -29.4529  -18.8125   20.1414 C   0  0  2  0  0  0
  -28.6680  -21.5406   19.8333 C   0  0  1  0  0  0
  -28.7649  -23.6920   24.2178 C   0  0  0  0  0  0
  -28.0766  -23.7368   22.8538 C   0  0  0  0  0  0
  -28.1710  -24.5819   19.6695 C   0  0  0  0  0  0
  -28.2440  -23.0752   20.4847 C   0  0  2  0  0  0
  -29.7103  -16.0974   20.2896 N   0  0  0  0  0  0
  -28.7695  -20.1660   20.6173 N   0  0  0  0  0  0
  -28.9547  -23.2541   21.7625 N   0  3  0  0  0  0
  -31.4522  -12.6781   19.1883 H   0  0  0  0  0  0
  -30.3660  -11.5833   19.9984 H   0  0  0  0  0  0
  -29.7971  -11.7214   17.5470 H   0  0  0  0  0  0
  -29.5887  -13.4523   17.6839 H   0  0  0  0  0  0
  -27.9197  -11.2718   18.9611 H   0  0  0  0  0  0
  -27.3633  -12.4609   17.8105 H   0  0  0  0  0  0
  -27.5902  -14.2501   19.4263 H   0  0  0  0  0  0
  -28.7331  -12.2605   21.4358 H   0  0  0  0  0  0
  -28.3706  -13.9376   21.7591 H   0  0  0  0  0  0
  -25.2850   -9.5660   22.4757 H   0  0  0  0  0  0
  -24.0057   -7.4624   22.7471 H   0  0  0  0  0  0
  -21.0915   -8.8784   19.8939 H   0  0  0  0  0  0
  -22.3799  -10.9682   19.6150 H   0  0  0  0  0  0
  -21.2060   -7.6193   23.9735 H   0  0  0  0  0  0
  -21.1456   -6.0591   25.9100 H   0  0  0  0  0  0
  -22.0599   -2.7652   23.2855 H   0  0  0  0  0  0
  -22.4286  -11.9668   22.4586 H   0  0  0  0  0  0
  -21.1234  -13.1089   22.2881 H   0  0  0  0  0  0
  -24.6872  -15.8728   20.5194 H   0  0  0  0  0  0
  -26.3155  -15.5970   20.1420 H   0  0  0  0  0  0
  -26.7275  -32.5261   23.0969 H   0  0  0  0  0  0
  -25.0044  -33.9637   25.0305 H   0  0  0  0  0  0
  -22.7533  -31.2949   21.3913 H   0  0  0  0  0  0
  -23.3828  -35.9512   23.3251 H   0  0  0  0  0  0
  -24.3554  -36.8963   22.2052 H   0  0  0  0  0  0
  -23.7196  -37.6380   23.6722 H   0  0  0  0  0  0
  -26.1928  -31.4481   20.6420 H   0  0  0  0  0  0
  -26.8735  -30.7177   22.0635 H   0  0  0  0  0  0
  -28.1193  -28.7141   21.2286 H   0  0  0  0  0  0
  -25.7993  -25.8319   18.9850 H   0  0  0  0  0  0
  -23.9361  -27.3357   18.9674 H   0  0  0  0  0  0
  -23.8260  -30.5959   19.4116 H   0  0  0  0  0  0
  -22.7843  -29.2691   19.8362 H   0  0  0  0  0  0
  -25.1322  -36.1900   25.0805 H   0  0  0  0  0  0
  -20.9999  -28.3392   24.1326 H   0  0  0  0  0  0
  -20.5728  -26.2355   23.3633 H   0  0  0  0  0  0
  -21.6688  -26.7448   22.1198 H   0  0  0  0  0  0
  -19.6968  -25.6277   21.1260 H   0  0  0  0  0  0
  -19.6770  -27.3155   20.6703 H   0  0  0  0  0  0
  -17.4252  -26.6685   21.3984 H   0  0  0  0  0  0
  -18.0365  -26.0079   22.8981 H   0  0  0  0  0  0
  -19.7975  -30.7287   24.2214 H   0  0  0  0  0  0
  -17.5061  -31.6247   24.5184 H   0  0  0  0  0  0
  -15.5377  -30.2978   23.7678 H   0  0  0  0  0  0
  -15.8714  -28.0819   22.7055 H   0  0  0  0  0  0
  -24.5873  -30.7109   25.7681 H   0  0  0  0  0  0
  -24.8731  -32.2971   26.4616 H   0  0  0  0  0  0
  -25.7830  -30.9094   27.0275 H   0  0  0  0  0  0
  -26.3032  -29.6612   24.1418 H   0  0  0  0  0  0
  -27.3933  -29.7291   25.5058 H   0  0  0  0  0  0
  -27.8993  -30.4116   23.9820 H   0  0  0  0  0  0
  -27.2694  -33.3706   26.1957 H   0  0  0  0  0  0
  -28.3899  -32.6792   25.0330 H   0  0  0  0  0  0
  -28.0685  -31.8534   26.5494 H   0  0  0  0  0  0
  -28.2575  -38.0137   24.7578 H   0  0  0  0  0  0
  -28.1205  -36.2652   24.6201 H   0  0  0  0  0  0
  -27.2309  -37.1310   25.8844 H   0  0  0  0  0  0
  -20.9497  -29.8770   21.6716 H   0  0  0  0  0  0
  -26.0208  -38.2834   24.1461 H   0  0  0  0  0  0
  -26.0581  -19.5832   19.2555 H   0  0  0  0  0  0
  -25.7518  -21.0433   20.1690 H   0  0  0  0  0  0
  -27.0545  -22.0196   18.4075 H   0  0  0  0  0  0
  -27.8834  -20.5015   18.1135 H   0  0  0  0  0  0
  -27.8203  -17.9534   18.9462 H   0  0  0  0  0  0
  -29.1600  -18.5606   17.9817 H   0  0  0  0  0  0
  -27.1924  -18.8260   21.1867 H   0  0  0  0  0  0
  -27.1519  -20.4462   21.8710 H   0  0  0  0  0  0
  -28.9243  -15.9106   18.3144 H   0  0  0  0  0  0
  -30.4979  -16.6383   18.4420 H   0  0  0  0  0  0
  -28.9434  -17.3914   21.8362 H   0  0  0  0  0  0
  -30.6570  -17.5595   21.5666 H   0  0  0  0  0  0
  -30.4645  -19.1347   19.8937 H   0  0  0  0  0  0
  -29.5884  -21.6448   19.2612 H   0  0  0  0  0  0
  -28.1112  -24.1118   24.9816 H   0  0  0  0  0  0
  -29.6911  -24.2659   24.2153 H   0  0  0  0  0  0
  -28.9964  -22.6640   24.5033 H   0  0  0  0  0  0
  -27.7466  -24.7536   22.6289 H   0  0  0  0  0  0
  -27.1757  -23.1204   22.9103 H   0  0  0  0  0  0
  -27.3647  -24.4901   18.9433 H   0  0  0  0  0  0
  -29.0495  -24.5609   19.0300 H   0  0  0  0  0  0
  -27.2005  -22.9205   20.7484 H   0  0  0  0  0  0
  -29.3238  -22.3490   22.0148 H   0  0  0  0  0  0
  -29.7265  -23.8919   21.6303 H   0  0  0  0  0  0
  1 25  1  0  0  0
  1 30  2  0  0  0
  1 83  1  0  0  0
  2  3  1  0  0  0
  2 25  1  0  0  0
  2 86  1  0  0  0
  2 87  1  0  0  0
  3  4  1  0  0  0
  3 88  1  0  0  0
  3 89  1  0  0  0
  4  5  1  0  0  0
  4 90  1  0  0  0
  4 91  1  0  0  0
  5  6  1  0  0  0
  5 26  1  0  0  0
  5 92  1  0  0  0
  6 25  1  0  0  0
  6 93  1  0  0  0
  6 94  1  0  0  0
  7  8  2  0  0  0
  7 26  1  0  0  0
  7 29  1  0  0  0
  8  9  1  0  0  0
  8 22  1  0  0  0
  9 10  1  0  0  0
  9 27  2  0  0  0
 10 11  2  0  0  0
 10 15  1  0  0  0
 11 12  1  0  0  0
 11 95  1  0  0  0
 12 13  2  0  0  0
 12 96  1  0  0  0
 13 14  1  0  0  0
 13 31  1  0  0  0
 14 15  2  0  0  0
 14 97  1  0  0  0
 15 98  1  0  0  0
 16 17  2  0  0  0
 16 21  1  0  0  0
 16 31  1  0  0  0
 17 18  1  0  0  0
 17 99  1  0  0  0
 18 19  2  0  0  0
 18100  1  0  0  0
 19 20  1  0  0  0
 19 24  1  0  0  0
 20 21  2  0  0  0
 20101  1  0  0  0
 21 23  1  0  0  0
 22 28  1  0  0  0
 22 32  2  0  0  0
 26 27  1  0  0  0
 28102  1  0  0  0
 28103  1  0  0  0
 29104  1  0  0  0
 29105  1  0  0  0
 33 34  1  0  0  0
 33 66  1  0  0  0
 33 70  2  0  0  0
 34 36  1  0  0  0
 34 59  1  0  0  0
 34106  1  0  0  0
 35 44  2  0  0  0
 35 45  1  0  0  0
 35 68  1  0  0  0
 36 56  1  0  0  0
 36107  1  0  0  0
 37 39  1  0  0  0
 37 47  1  0  0  0
 37 66  1  0  0  0
 37108  1  0  0  0
 38 43  2  0  0  0
 38 46  1  0  0  0
 38 47  1  0  0  0
 39 64  1  0  0  0
 39 67  2  0  0  0
 40 52  1  0  0  0
 40 53  2  0  0  0
 40 58  1  0  0  0
 41109  1  0  0  0
 41110  1  0  0  0
 41111  1  0  0  0
 41 48  1  0  0  0
 42 43  1  0  0  0
 42 66  1  0  0  0
 42112  1  0  0  0
 42113  1  0  0  0
 43 44  1  0  0  0
 44114  1  0  0  0
 45 46  2  0  0  0
 45115  1  0  0  0
 46116  1  0  0  0
 47117  1  0  0  0
 47118  1  0  0  0
 48 56  1  0  0  0
 48 65  1  0  0  0
 48119  1  0  0  0
 49 50  1  0  0  0
 49 53  1  0  0  0
 49 64  1  0  0  0
 49120  1  0  0  0
 50 51  1  0  0  0
 50121  1  0  0  0
 50122  1  0  0  0
 51 52  1  0  0  0
 51123  1  0  0  0
 51124  1  0  0  0
 52125  1  0  0  0
 52126  1  0  0  0
 53 54  1  0  0  0
 54 55  2  0  0  0
 54127  1  0  0  0
 55 57  1  0  0  0
 55128  1  0  0  0
 56 69  2  0  0  0
 57 58  2  0  0  0
 57129  1  0  0  0
 58130  1  0  0  0
 59 60  1  0  0  0
 59 61  1  0  0  0
 59 62  1  0  0  0
 60131  1  0  0  0
 60132  1  0  0  0
 60133  1  0  0  0
 61134  1  0  0  0
 61135  1  0  0  0
 61136  1  0  0  0
 62137  1  0  0  0
 62138  1  0  0  0
 62139  1  0  0  0
 63 65  1  0  0  0
 63140  1  0  0  0
 63141  1  0  0  0
 63142  1  0  0  0
 64143  1  0  0  0
 65144  1  0  0  0
 68 81  1  0  0  0
 71 72  1  0  0  0
 71 74  1  0  0  0
 71145  1  0  0  0
 71146  1  0  0  0
 72147  1  0  0  0
 72148  1  0  0  0
 72 78  1  0  0  0
 73 75  1  0  0  0
 73 77  1  0  0  0
 73149  1  0  0  0
 73150  1  0  0  0
 74151  1  0  0  0
 74152  1  0  0  0
 74 84  1  0  0  0
 75 83  1  0  0  0
 75153  1  0  0  0
 75154  1  0  0  0
 76 77  1  0  0  0
 76 83  1  0  0  0
 76155  1  0  0  0
 76156  1  0  0  0
 77 84  1  0  0  0
 77157  1  0  0  0
 78 82  1  0  0  0
 78 84  1  0  0  0
 78158  1  0  0  0
 79 80  1  0  0  0
 79159  1  0  0  0
 79160  1  0  0  0
 79161  1  0  0  0
 80 85  1  0  0  0
 80162  1  0  0  0
 80163  1  0  0  0
 81164  1  0  0  0
 81165  1  0  0  0
 81 82  1  0  0  0
 82 85  1  0  0  0
 82166  1  0  0  0
 85167  1  0  0  0
 85168  1  0  0  0
M  CHG  1  85   1
M  ISO  4   1 100  68 101  81 101  83 100
M  END
> <chiral flag>
0

> <version>
0

> <s_m_source_file>
/data/baiqing/PycharmProjects/Reinvent-master-3.2/result/LINK_invent/BTK/process_docking_weight1_custom_sum_contain_oxygen_bond_distance_aromatic_linkinvent_7_9_3/rearranged_h_0191.sdf

> <i_m_source_file_index>
48

> <r_mmod_Potential_Energy-OPLS-2005>
769.069030761719

> <r_mmod_Stretch_Energy-OPLS-2005>
305.600738525391

> <r_mmod_Bend_Energy-OPLS-2005>
376.355255126953

> <r_mmod_Torsional_Energy-OPLS-2005>
441.882019042969

> <r_mmod_Improper_Torsional_Energy-OPLS-2005>
13.9835834503174

> <r_mmod_Van_der_Waal_Energy-OPLS-2005>
103.841506958008

> <r_mmod_Electrostatic_Energy-OPLS-2005>
-267.915252685547

> <r_mmod_Solvation_Energy-OPLS-2005>
-413.106811523438

> <b_mmod_Minimization_Converged-OPLS-2005>
0

> <r_mmod_RMS_Derivative-OPLS-2005>
6.69938707351685

$$$$
48
                    3D
 Structure written by MMmdl.
160168  0  0  1  0            999 V2000
  -30.7297  -14.4493   20.5568 C   0  0  0  0  0  0
  -30.4124  -12.2895   19.4251 C   0  0  0  0  0  0
  -29.4937  -12.4992   18.2053 C   0  0  0  0  0  0
  -28.0142  -12.3640   18.6169 C   0  0  0  0  0  0
  -27.6583  -13.2082   19.8711 C   0  0  2  0  0  0
  -28.7009  -13.0142   20.9955 C   0  0  0  0  0  0
  -25.2580  -13.8165   20.5693 C   0  0  0  0  0  0
  -24.1833  -13.0440   20.9187 C   0  0  0  0  0  0
  -24.6381  -11.6909   20.8732 C   0  0  0  0  0  0
  -23.9050  -10.4297   21.0402 C   0  0  0  0  0  0
  -24.3609   -9.4216   21.9178 C   0  0  0  0  0  0
  -23.6295   -8.2244   22.0746 C   0  0  0  0  0  0
  -22.4276   -8.0278   21.3541 C   0  0  0  0  0  0
  -21.9906   -9.0249   20.4642 C   0  0  0  0  0  0
  -22.7225  -10.2132   20.3051 C   0  0  0  0  0  0
  -21.6850   -6.0735   22.5277 C   0  0  0  0  0  0
  -21.4005   -6.5636   23.8212 C   0  0  0  0  0  0
  -21.3665   -5.6790   24.9175 C   0  0  0  0  0  0
  -21.6049   -4.3048   24.7221 C   0  0  0  0  0  0
  -21.8819   -3.8143   23.4340 C   0  0  0  0  0  0
  -21.9190   -4.6965   22.3399 C   0  0  0  0  0  0
  -22.7858  -13.5244   21.1848 C   0  0  0  0  0  0
  -22.1666   -4.2148   21.0977 F   0  0  0  0  0  0
  -21.5637   -3.4532   25.7735 F   0  0  0  0  0  0
  -30.0313  -13.2895   20.4329 N   0  0  0  0  0  0
  -26.3007  -12.9330   20.3351 N   0  0  0  0  0  0
  -25.9303  -11.6494   20.5753 N   0  0  0  0  0  0
  -22.0489  -12.8251   22.0400 N   0  0  0  0  0  0
  -25.4318  -15.1881   20.4120 N   0  0  0  0  0  0
  -31.8789  -14.5885   20.1264 O   0  0  0  0  0  0
  -21.6641   -6.8875   21.4238 O   0  0  0  0  0  0
  -22.3562  -14.5555   20.6690 O   0  0  0  0  0  0
  -24.6134  -31.8692   23.2107 C   0  0  0  0  0  0
  -25.9035  -32.4827   23.8395 C   0  0  1  0  0  0
  -27.2314  -27.4368   20.0897 C   0  0  0  0  0  0
  -25.5902  -33.8626   24.2325 N   0  0  0  0  0  0
  -23.4007  -30.4938   21.5521 C   0  0  2  0  0  0
  -24.8447  -28.9631   20.1135 C   0  0  0  0  0  0
  -22.7403  -29.4668   22.4994 C   0  0  0  0  0  0
  -18.0274  -28.1373   22.8495 C   0  0  0  0  0  0
  -24.1490  -36.7314   23.2637 C   0  0  0  0  0  0
  -25.9301  -30.8338   21.3655 C   0  0  0  0  0  0
  -26.0055  -29.4699   20.7100 C   0  0  0  0  0  0
  -27.1998  -28.7141   20.6959 C   0  0  0  0  0  0
  -26.0509  -26.9517   19.4765 C   0  0  0  0  0  0
  -24.8628  -27.7028   19.4952 C   0  0  0  0  0  0
  -23.6074  -29.8288   20.1656 C   0  0  0  0  0  0
  -25.4110  -36.3116   24.0337 C   0  0  1  0  0  0
  -20.5864  -28.3661   23.1324 C   0  0  2  0  0  0
  -20.6764  -26.9400   22.5422 C   0  0  0  0  0  0
  -19.5745  -26.6384   21.5217 C   0  0  0  0  0  0
  -18.1922  -26.7921   22.1624 C   0  0  0  0  0  0
  -19.1522  -28.8834   23.2906 C   0  0  0  0  0  0
  -18.9448  -30.1441   23.8912 C   0  0  0  0  0  0
  -17.6450  -30.6583   24.0562 C   0  0  0  0  0  0
  -25.9040  -34.9480   23.5128 C   0  0  0  0  0  0
  -16.5342  -29.9084   23.6323 C   0  0  0  0  0  0
  -16.7263  -28.6499   23.0345 C   0  0  0  0  0  0
  -26.4462  -31.6602   25.0721 C   0  0  0  0  0  0
  -25.3731  -31.3711   26.1474 C   0  0  0  0  0  0
  -27.0286  -30.3045   24.6097 C   0  0  0  0  0  0
  -27.6043  -32.4318   25.7480 C   0  0  0  0  0  0
  -27.5587  -37.1805   24.8459 C   0  0  0  0  0  0
  -21.4134  -29.3029   22.3732 N   0  0  0  0  0  0
  -26.4294  -37.3802   23.9413 N   0  0  0  0  0  0
  -24.6665  -31.0795   22.1011 N   0  0  0  0  0  0
  -23.4178  -28.8210   23.3033 O   0  0  0  0  0  0
  -28.4064  -26.7095   20.1200 O   0  0  0  0  0  0
  -26.5597  -34.8930   22.4688 O   0  0  0  0  0  0
  -23.5330  -32.1443   23.7506 O   0  0  0  0  0  0
  -29.4586  -24.5377   20.5954 C   0  0  0  0  0  0
  -29.7939  -16.5156   19.8129 C   0  0  0  0  0  0
  -30.2897  -16.0937   22.2576 C   0  0  0  0  0  0
  -29.2052  -17.8772   20.2231 C   0  0  0  0  0  0
  -29.7260  -17.5068   22.5436 C   0  0  0  0  0  0
  -28.3225  -25.2917   19.8836 C   0  0  0  0  0  0
  -30.3262  -20.8388   20.7347 C   0  0  0  0  0  0
  -30.3839  -22.3112   21.2190 C   0  0  0  0  0  0
  -29.6106  -19.8522   21.6969 C   0  0  0  0  0  0
  -30.0174  -15.5449   20.9116 N   0  0  0  0  0  0
  -29.4183  -23.1935   20.5565 N   0  0  0  0  0  0
  -29.9176  -18.4219   21.3957 N   0  3  0  0  0  0
  -30.3501  -25.1522   21.1889 O   0  0  0  0  0  0
  -31.4603  -12.3639   19.1297 H   0  0  0  0  0  0
  -30.2890  -11.2841   19.8307 H   0  0  0  0  0  0
  -29.7339  -11.7752   17.4249 H   0  0  0  0  0  0
  -29.6692  -13.4860   17.7728 H   0  0  0  0  0  0
  -27.8241  -11.3091   18.8164 H   0  0  0  0  0  0
  -27.3654  -12.6370   17.7837 H   0  0  0  0  0  0
  -27.6934  -14.2526   19.5644 H   0  0  0  0  0  0
  -28.6679  -11.9928   21.3777 H   0  0  0  0  0  0
  -28.4743  -13.6591   21.8456 H   0  0  0  0  0  0
  -25.2755   -9.5698   22.4747 H   0  0  0  0  0  0
  -24.0014   -7.4631   22.7455 H   0  0  0  0  0  0
  -21.0839   -8.8753   19.8947 H   0  0  0  0  0  0
  -22.3679  -10.9663   19.6155 H   0  0  0  0  0  0
  -21.1989   -7.6142   23.9720 H   0  0  0  0  0  0
  -21.1495   -6.0513   25.9081 H   0  0  0  0  0  0
  -22.0594   -2.7603   23.2835 H   0  0  0  0  0  0
  -22.4096  -11.9917   22.4820 H   0  0  0  0  0  0
  -21.1093  -13.1266   22.2562 H   0  0  0  0  0  0
  -24.6653  -15.8440   20.5163 H   0  0  0  0  0  0
  -26.2875  -15.6237   20.0936 H   0  0  0  0  0  0
  -26.7106  -32.5536   23.1160 H   0  0  0  0  0  0
  -25.0064  -33.9791   25.0477 H   0  0  0  0  0  0
  -22.6895  -31.3109   21.4157 H   0  0  0  0  0  0
  -23.3757  -35.9642   23.3297 H   0  0  0  0  0  0
  -24.3587  -36.8926   22.2052 H   0  0  0  0  0  0
  -23.7229  -37.6516   23.6647 H   0  0  0  0  0  0
  -26.0460  -31.6023   20.5998 H   0  0  0  0  0  0
  -26.8166  -30.8820   21.9863 H   0  0  0  0  0  0
  -28.0949  -29.1020   21.1626 H   0  0  0  0  0  0
  -26.0249  -25.9974   18.9712 H   0  0  0  0  0  0
  -23.9717  -27.3087   19.0261 H   0  0  0  0  0  0
  -23.7136  -30.6050   19.4070 H   0  0  0  0  0  0
  -22.7315  -29.2483   19.8710 H   0  0  0  0  0  0
  -25.1286  -36.1981   25.0829 H   0  0  0  0  0  0
  -20.9956  -28.3217   24.1445 H   0  0  0  0  0  0
  -20.5680  -26.2262   23.3602 H   0  0  0  0  0  0
  -21.6629  -26.7453   22.1200 H   0  0  0  0  0  0
  -19.6906  -25.6300   21.1237 H   0  0  0  0  0  0
  -19.6692  -27.3202   20.6755 H   0  0  0  0  0  0
  -17.4198  -26.6680   21.4016 H   0  0  0  0  0  0
  -18.0320  -26.0057   22.9014 H   0  0  0  0  0  0
  -19.7924  -30.7254   24.2281 H   0  0  0  0  0  0
  -17.5008  -31.6265   24.5160 H   0  0  0  0  0  0
  -15.5343  -30.2988   23.7645 H   0  0  0  0  0  0
  -15.8661  -28.0831   22.7041 H   0  0  0  0  0  0
  -24.5892  -30.7076   25.7801 H   0  0  0  0  0  0
  -24.8942  -32.2874   26.4938 H   0  0  0  0  0  0
  -25.8086  -30.8858   27.0220 H   0  0  0  0  0  0
  -26.2827  -29.6818   24.1147 H   0  0  0  0  0  0
  -27.4047  -29.7266   25.4549 H   0  0  0  0  0  0
  -27.8668  -30.4355   23.9248 H   0  0  0  0  0  0
  -27.2665  -33.3605   26.2090 H   0  0  0  0  0  0
  -28.3836  -32.6898   25.0295 H   0  0  0  0  0  0
  -28.0735  -31.8424   26.5370 H   0  0  0  0  0  0
  -28.2593  -38.0116   24.7537 H   0  0  0  0  0  0
  -28.1095  -36.2649   24.6249 H   0  0  0  0  0  0
  -27.2311  -37.1406   25.8862 H   0  0  0  0  0  0
  -20.9290  -29.8747   21.6957 H   0  0  0  0  0  0
  -26.0187  -38.2881   24.1423 H   0  0  0  0  0  0
  -30.7413  -16.7147   19.3061 H   0  0  0  0  0  0
  -29.1500  -16.0631   19.0578 H   0  0  0  0  0  0
  -29.9089  -15.4013   23.0107 H   0  0  0  0  0  0
  -31.3719  -16.1278   22.4079 H   0  0  0  0  0  0
  -28.1425  -17.7754   20.4529 H   0  0  0  0  0  0
  -29.2701  -18.5616   19.3768 H   0  0  0  0  0  0
  -30.2133  -17.9064   23.4337 H   0  0  0  0  0  0
  -28.6629  -17.4437   22.7831 H   0  0  0  0  0  0
  -27.3950  -24.8709   20.2735 H   0  0  0  0  0  0
  -28.3648  -25.0925   18.8120 H   0  0  0  0  0  0
  -31.3588  -20.5033   20.6252 H   0  0  0  0  0  0
  -29.9013  -20.7834   19.7320 H   0  0  0  0  0  0
  -31.3857  -22.6967   21.0183 H   0  0  0  0  0  0
  -30.2546  -22.3749   22.3005 H   0  0  0  0  0  0
  -28.5327  -20.0207   21.6979 H   0  0  0  0  0  0
  -29.9510  -20.0671   22.7106 H   0  0  0  0  0  0
  -28.6583  -22.7672   20.0426 H   0  0  0  0  0  0
  -30.9047  -18.3934   21.1856 H   0  0  0  0  0  0
  1 25  1  0  0  0
  1 30  2  0  0  0
  1 80  1  0  0  0
  2  3  1  0  0  0
  2 25  1  0  0  0
  2 84  1  0  0  0
  2 85  1  0  0  0
  3  4  1  0  0  0
  3 86  1  0  0  0
  3 87  1  0  0  0
  4  5  1  0  0  0
  4 88  1  0  0  0
  4 89  1  0  0  0
  5  6  1  0  0  0
  5 26  1  0  0  0
  5 90  1  0  0  0
  6 25  1  0  0  0
  6 91  1  0  0  0
  6 92  1  0  0  0
  7  8  2  0  0  0
  7 26  1  0  0  0
  7 29  1  0  0  0
  8  9  1  0  0  0
  8 22  1  0  0  0
  9 10  1  0  0  0
  9 27  2  0  0  0
 10 11  2  0  0  0
 10 15  1  0  0  0
 11 12  1  0  0  0
 11 93  1  0  0  0
 12 13  2  0  0  0
 12 94  1  0  0  0
 13 14  1  0  0  0
 13 31  1  0  0  0
 14 15  2  0  0  0
 14 95  1  0  0  0
 15 96  1  0  0  0
 16 17  2  0  0  0
 16 21  1  0  0  0
 16 31  1  0  0  0
 17 18  1  0  0  0
 17 97  1  0  0  0
 18 19  2  0  0  0
 18 98  1  0  0  0
 19 20  1  0  0  0
 19 24  1  0  0  0
 20 21  2  0  0  0
 20 99  1  0  0  0
 21 23  1  0  0  0
 22 28  1  0  0  0
 22 32  2  0  0  0
 26 27  1  0  0  0
 28100  1  0  0  0
 28101  1  0  0  0
 29102  1  0  0  0
 29103  1  0  0  0
 33 34  1  0  0  0
 33 66  1  0  0  0
 33 70  2  0  0  0
 34 36  1  0  0  0
 34 59  1  0  0  0
 34104  1  0  0  0
 35 44  2  0  0  0
 35 45  1  0  0  0
 35 68  1  0  0  0
 36 56  1  0  0  0
 36105  1  0  0  0
 37 39  1  0  0  0
 37 47  1  0  0  0
 37 66  1  0  0  0
 37106  1  0  0  0
 38 43  2  0  0  0
 38 46  1  0  0  0
 38 47  1  0  0  0
 39 64  1  0  0  0
 39 67  2  0  0  0
 40 52  1  0  0  0
 40 53  2  0  0  0
 40 58  1  0  0  0
 41107  1  0  0  0
 41108  1  0  0  0
 41109  1  0  0  0
 41 48  1  0  0  0
 42 43  1  0  0  0
 42 66  1  0  0  0
 42110  1  0  0  0
 42111  1  0  0  0
 43 44  1  0  0  0
 44112  1  0  0  0
 45 46  2  0  0  0
 45113  1  0  0  0
 46114  1  0  0  0
 47115  1  0  0  0
 47116  1  0  0  0
 48 56  1  0  0  0
 48 65  1  0  0  0
 48117  1  0  0  0
 49 50  1  0  0  0
 49 53  1  0  0  0
 49 64  1  0  0  0
 49118  1  0  0  0
 50 51  1  0  0  0
 50119  1  0  0  0
 50120  1  0  0  0
 51 52  1  0  0  0
 51121  1  0  0  0
 51122  1  0  0  0
 52123  1  0  0  0
 52124  1  0  0  0
 53 54  1  0  0  0
 54 55  2  0  0  0
 54125  1  0  0  0
 55 57  1  0  0  0
 55126  1  0  0  0
 56 69  2  0  0  0
 57 58  2  0  0  0
 57127  1  0  0  0
 58128  1  0  0  0
 59 60  1  0  0  0
 59 61  1  0  0  0
 59 62  1  0  0  0
 60129  1  0  0  0
 60130  1  0  0  0
 60131  1  0  0  0
 61132  1  0  0  0
 61133  1  0  0  0
 61134  1  0  0  0
 62135  1  0  0  0
 62136  1  0  0  0
 62137  1  0  0  0
 63 65  1  0  0  0
 63138  1  0  0  0
 63139  1  0  0  0
 63140  1  0  0  0
 64141  1  0  0  0
 65142  1  0  0  0
 68 76  1  0  0  0
 71 76  1  0  0  0
 71 81  1  0  0  0
 71 83  2  0  0  0
 72 74  1  0  0  0
 72 80  1  0  0  0
 72143  1  0  0  0
 72144  1  0  0  0
 73 75  1  0  0  0
 73 80  1  0  0  0
 73145  1  0  0  0
 73146  1  0  0  0
 74 82  1  0  0  0
 74147  1  0  0  0
 74148  1  0  0  0
 75 82  1  0  0  0
 75149  1  0  0  0
 75150  1  0  0  0
 76151  1  0  0  0
 76152  1  0  0  0
 77 78  1  0  0  0
 77 79  1  0  0  0
 77153  1  0  0  0
 77154  1  0  0  0
 78 81  1  0  0  0
 78155  1  0  0  0
 78156  1  0  0  0
 79157  1  0  0  0
 79158  1  0  0  0
 79 82  1  0  0  0
 81159  1  0  0  0
 82160  1  0  0  0
M  CHG  1  82   1
M  ISO  4   1 100  68 101  76 101  80 100
M  END
> <chiral flag>
0

> <version>
0

> <s_m_source_file>
/data/baiqing/PycharmProjects/Reinvent-master-3.2/result/LINK_invent/BTK/process_docking_weight1_custom_sum_contain_oxygen_bond_distance_aromatic_linkinvent_7_9_3/rearranged_h_0191.sdf

> <i_m_source_file_index>
49

> <r_mmod_Potential_Energy-OPLS-2005>
28.7840385437012

> <r_mmod_Stretch_Energy-OPLS-2005>
37.877857208252

> <r_mmod_Bend_Energy-OPLS-2005>
106.671730041504

> <r_mmod_Torsional_Energy-OPLS-2005>
396.117889404297

> <r_mmod_Improper_Torsional_Energy-OPLS-2005>
9.78461456298828

> <r_mmod_Van_der_Waal_Energy-OPLS-2005>
143.692260742188

> <r_mmod_Electrostatic_Energy-OPLS-2005>
-178.960739135742

> <r_mmod_Solvation_Energy-OPLS-2005>
-500.689788818359

> <b_mmod_Minimization_Converged-OPLS-2005>
0

> <r_mmod_RMS_Derivative-OPLS-2005>
1.13487577438354

$$$$
49
                    3D
 Structure written by MMmdl.
159168  0  0  1  0            999 V2000
  -30.6259  -14.7463   20.4924 C   0  0  0  0  0  0
  -30.4340  -12.4650   19.4707 C   0  0  0  0  0  0
  -29.5090  -12.5186   18.2341 C   0  0  0  0  0  0
  -28.0366  -12.3354   18.6497 C   0  0  0  0  0  0
  -27.6445  -13.2298   19.8558 C   0  0  2  0  0  0
  -28.6906  -13.1447   20.9880 C   0  0  0  0  0  0
  -25.2531  -13.8193   20.5716 C   0  0  0  0  0  0
  -24.1809  -13.0439   20.9200 C   0  0  0  0  0  0
  -24.6395  -11.6917   20.8741 C   0  0  0  0  0  0
  -23.9071  -10.4294   21.0401 C   0  0  0  0  0  0
  -24.3623   -9.4211   21.9180 C   0  0  0  0  0  0
  -23.6296   -8.2246   22.0756 C   0  0  0  0  0  0
  -22.4278   -8.0280   21.3548 C   0  0  0  0  0  0
  -21.9915   -9.0252   20.4649 C   0  0  0  0  0  0
  -22.7244  -10.2129   20.3051 C   0  0  0  0  0  0
  -21.6852   -6.0732   22.5276 C   0  0  0  0  0  0
  -21.4010   -6.5639   23.8208 C   0  0  0  0  0  0
  -21.3658   -5.6797   24.9173 C   0  0  0  0  0  0
  -21.6041   -4.3057   24.7225 C   0  0  0  0  0  0
  -21.8818   -3.8146   23.4348 C   0  0  0  0  0  0
  -21.9196   -4.6963   22.3404 C   0  0  0  0  0  0
  -22.7833  -13.5229   21.1861 C   0  0  0  0  0  0
  -22.1662   -4.2147   21.0982 F   0  0  0  0  0  0
  -21.5633   -3.4542   25.7737 F   0  0  0  0  0  0
  -29.9886  -13.5223   20.4129 N   0  0  0  0  0  0
  -26.2955  -12.9391   20.3313 N   0  0  0  0  0  0
  -25.9328  -11.6533   20.5752 N   0  0  0  0  0  0
  -22.0479  -12.8207   22.0405 N   0  0  0  0  0  0
  -25.4266  -15.1913   20.4169 N   0  0  0  0  0  0
  -31.7903  -14.8391   20.0925 O   0  0  0  0  0  0
  -21.6644   -6.8873   21.4236 O   0  0  0  0  0  0
  -22.3517  -14.5539   20.6715 O   0  0  0  0  0  0
  -24.6319  -31.8540   23.1981 C   0  0  0  0  0  0
  -25.9148  -32.4745   23.8328 C   0  0  1  0  0  0
  -27.2200  -27.2533   20.1274 C   0  0  0  0  0  0
  -25.5949  -33.8549   24.2253 N   0  0  0  0  0  0
  -23.4293  -30.4776   21.5409 C   0  0  2  0  0  0
  -24.8768  -28.9257   20.1072 C   0  0  0  0  0  0
  -22.7508  -29.4601   22.4902 C   0  0  0  0  0  0
  -18.0289  -28.1392   22.8484 C   0  0  0  0  0  0
  -24.1485  -36.7264   23.2638 C   0  0  0  0  0  0
  -25.9761  -30.7639   21.3807 C   0  0  0  0  0  0
  -26.0479  -29.3863   20.7217 C   0  0  0  0  0  0
  -27.2199  -28.5614   20.7238 C   0  0  0  0  0  0
  -26.0282  -26.8730   19.4671 C   0  0  0  0  0  0
  -24.8729  -27.6772   19.4688 C   0  0  0  0  0  0
  -23.6475  -29.8124   20.1565 C   0  0  0  0  0  0
  -25.4112  -36.3057   24.0325 C   0  0  1  0  0  0
  -20.5895  -28.3696   23.1265 C   0  0  2  0  0  0
  -20.6779  -26.9412   22.5408 C   0  0  0  0  0  0
  -19.5757  -26.6383   21.5211 C   0  0  0  0  0  0
  -18.1934  -26.7939   22.1613 C   0  0  0  0  0  0
  -19.1546  -28.8862   23.2869 C   0  0  0  0  0  0
  -18.9469  -30.1465   23.8883 C   0  0  0  0  0  0
  -17.6469  -30.6592   24.0563 C   0  0  0  0  0  0
  -25.9060  -34.9432   23.5088 C   0  0  0  0  0  0
  -16.5358  -29.9088   23.6342 C   0  0  0  0  0  0
  -16.7275  -28.6508   23.0358 C   0  0  0  0  0  0
  -26.4514  -31.6578   25.0724 C   0  0  0  0  0  0
  -25.3735  -31.3736   26.1444 C   0  0  0  0  0  0
  -27.0366  -30.2993   24.6226 C   0  0  0  0  0  0
  -27.6063  -32.4321   25.7503 C   0  0  0  0  0  0
  -27.5577  -37.1782   24.8460 C   0  0  0  0  0  0
  -21.4213  -29.3042   22.3653 N   0  0  0  0  0  0
  -26.4278  -37.3765   23.9420 N   0  0  0  0  0  0
  -24.6982  -31.0503   22.0959 N   0  0  0  0  0  0
  -23.4209  -28.8141   23.3000 O   0  0  0  0  0  0
  -28.3092  -26.3477   20.2089 O   0  0  0  0  0  0
  -26.5626  -34.8913   22.4651 O   0  0  0  0  0  0
  -23.5470  -32.1366   23.7274 O   0  0  0  0  0  0
  -29.7220  -20.3062   18.9260 C   0  0  0  0  0  0
  -29.4962  -21.8545   18.9116 C   0  0  0  0  0  0
  -29.5140  -16.3758   22.0559 C   0  0  0  0  0  0
  -29.1945  -21.1141   21.0672 C   0  0  0  0  0  0
  -29.1768  -17.8999   22.0009 C   0  0  0  0  0  0
  -29.9967  -17.2199   19.9569 C   0  0  0  0  0  0
  -29.1413  -19.7535   20.2370 C   0  0  2  0  0  0
  -29.0256  -23.7052   20.5643 C   0  0  0  0  0  0
  -28.1014  -24.8784   19.9255 C   0  0  0  0  0  0
  -29.8772  -15.9071   20.7072 N   0  0  0  0  0  0
  -28.8139  -22.2472   20.1539 N   0  0  0  0  0  0
  -29.8172  -18.4727   20.7995 N   0  3  1  0  0  0
  -31.4741  -12.5862   19.1640 H   0  0  0  0  0  0
  -30.3825  -11.4836   19.9450 H   0  0  0  0  0  0
  -29.7935  -11.7505   17.5138 H   0  0  0  0  0  0
  -29.6303  -13.4753   17.7233 H   0  0  0  0  0  0
  -27.8992  -11.2851   18.9107 H   0  0  0  0  0  0
  -27.3756  -12.5256   17.8037 H   0  0  0  0  0  0
  -27.6445  -14.2559   19.4872 H   0  0  0  0  0  0
  -28.7339  -12.1344   21.3973 H   0  0  0  0  0  0
  -28.4127  -13.7855   21.8214 H   0  0  0  0  0  0
  -25.2768   -9.5683   22.4753 H   0  0  0  0  0  0
  -24.0004   -7.4634   22.7476 H   0  0  0  0  0  0
  -21.0844   -8.8761   19.8956 H   0  0  0  0  0  0
  -22.3701  -10.9659   19.6152 H   0  0  0  0  0  0
  -21.1991   -7.6146   23.9708 H   0  0  0  0  0  0
  -21.1480   -6.0529   25.9075 H   0  0  0  0  0  0
  -22.0598   -2.7608   23.2849 H   0  0  0  0  0  0
  -22.4095  -11.9851   22.4759 H   0  0  0  0  0  0
  -21.1098  -13.1216   22.2624 H   0  0  0  0  0  0
  -24.6630  -15.8496   20.5287 H   0  0  0  0  0  0
  -26.2834  -15.6265   20.1000 H   0  0  0  0  0  0
  -26.7210  -32.5392   23.1067 H   0  0  0  0  0  0
  -25.0130  -33.9683   25.0421 H   0  0  0  0  0  0
  -22.7270  -31.3006   21.3948 H   0  0  0  0  0  0
  -23.3762  -35.9580   23.3279 H   0  0  0  0  0  0
  -24.3581  -36.8907   22.2057 H   0  0  0  0  0  0
  -23.7218  -37.6450   23.6675 H   0  0  0  0  0  0
  -26.1199  -31.5247   20.6121 H   0  0  0  0  0  0
  -26.8520  -30.8104   22.0165 H   0  0  0  0  0  0
  -28.1120  -28.9066   21.2278 H   0  0  0  0  0  0
  -25.9544  -25.9276   18.9516 H   0  0  0  0  0  0
  -23.9787  -27.3225   18.9742 H   0  0  0  0  0  0
  -23.7708  -30.5884   19.3999 H   0  0  0  0  0  0
  -22.7667  -29.2447   19.8515 H   0  0  0  0  0  0
  -25.1291  -36.1890   25.0815 H   0  0  0  0  0  0
  -20.9992  -28.3267   24.1382 H   0  0  0  0  0  0
  -20.5676  -26.2305   23.3612 H   0  0  0  0  0  0
  -21.6645  -26.7435   22.1196 H   0  0  0  0  0  0
  -19.6916  -25.6292   21.1241 H   0  0  0  0  0  0
  -19.6700  -27.3190   20.6739 H   0  0  0  0  0  0
  -17.4209  -26.6700   21.4007 H   0  0  0  0  0  0
  -18.0317  -26.0077   22.9000 H   0  0  0  0  0  0
  -19.7949  -30.7288   24.2237 H   0  0  0  0  0  0
  -17.5026  -31.6275   24.5163 H   0  0  0  0  0  0
  -15.5357  -30.2988   23.7688 H   0  0  0  0  0  0
  -15.8673  -28.0829   22.7079 H   0  0  0  0  0  0
  -24.5917  -30.7075   25.7779 H   0  0  0  0  0  0
  -24.8921  -32.2909   26.4846 H   0  0  0  0  0  0
  -25.8053  -30.8937   27.0237 H   0  0  0  0  0  0
  -26.2956  -29.6732   24.1246 H   0  0  0  0  0  0
  -27.4040  -29.7265   25.4751 H   0  0  0  0  0  0
  -27.8838  -30.4260   23.9482 H   0  0  0  0  0  0
  -27.2675  -33.3645   26.2031 H   0  0  0  0  0  0
  -28.3912  -32.6839   25.0357 H   0  0  0  0  0  0
  -28.0691  -31.8474   26.5464 H   0  0  0  0  0  0
  -28.2562  -38.0110   24.7543 H   0  0  0  0  0  0
  -28.1103  -36.2642   24.6232 H   0  0  0  0  0  0
  -27.2304  -37.1357   25.8863 H   0  0  0  0  0  0
  -20.9399  -29.8784   21.6872 H   0  0  0  0  0  0
  -26.0145  -38.2826   24.1458 H   0  0  0  0  0  0
  -30.7927  -20.1055   18.8659 H   0  0  0  0  0  0
  -29.2625  -19.8296   18.0592 H   0  0  0  0  0  0
  -28.9180  -22.1714   18.0421 H   0  0  0  0  0  0
  -30.4675  -22.3492   18.8438 H   0  0  0  0  0  0
  -28.6692  -15.8273   22.4697 H   0  0  0  0  0  0
  -30.3602  -16.2149   22.7273 H   0  0  0  0  0  0
  -30.2092  -21.2809   21.4331 H   0  0  0  0  0  0
  -28.5403  -21.0797   21.9393 H   0  0  0  0  0  0
  -29.4803  -18.4254   22.9074 H   0  0  0  0  0  0
  -28.0950  -18.0136   21.9144 H   0  0  0  0  0  0
  -29.2322  -17.2137   19.1793 H   0  0  0  0  0  0
  -30.9541  -17.2812   19.4374 H   0  0  0  0  0  0
  -28.0914  -19.5165   20.0559 H   0  0  0  0  0  0
  -28.8764  -23.7556   21.6438 H   0  0  0  0  0  0
  -30.0759  -23.9610   20.4136 H   0  0  0  0  0  0
  -27.0909  -24.6129   20.2353 H   0  0  0  0  0  0
  -28.1234  -24.7673   18.8409 H   0  0  0  0  0  0
  -30.7494  -18.7397   21.0799 H   0  0  0  0  0  0
  1 25  1  0  0  0
  1 30  2  0  0  0
  1 80  1  0  0  0
  2  3  1  0  0  0
  2 25  1  0  0  0
  2 83  1  0  0  0
  2 84  1  0  0  0
  3  4  1  0  0  0
  3 85  1  0  0  0
  3 86  1  0  0  0
  4  5  1  0  0  0
  4 87  1  0  0  0
  4 88  1  0  0  0
  5  6  1  0  0  0
  5 26  1  0  0  0
  5 89  1  0  0  0
  6 25  1  0  0  0
  6 90  1  0  0  0
  6 91  1  0  0  0
  7  8  2  0  0  0
  7 26  1  0  0  0
  7 29  1  0  0  0
  8  9  1  0  0  0
  8 22  1  0  0  0
  9 10  1  0  0  0
  9 27  2  0  0  0
 10 11  2  0  0  0
 10 15  1  0  0  0
 11 12  1  0  0  0
 11 92  1  0  0  0
 12 13  2  0  0  0
 12 93  1  0  0  0
 13 14  1  0  0  0
 13 31  1  0  0  0
 14 15  2  0  0  0
 14 94  1  0  0  0
 15 95  1  0  0  0
 16 17  2  0  0  0
 16 21  1  0  0  0
 16 31  1  0  0  0
 17 18  1  0  0  0
 17 96  1  0  0  0
 18 19  2  0  0  0
 18 97  1  0  0  0
 19 20  1  0  0  0
 19 24  1  0  0  0
 20 21  2  0  0  0
 20 98  1  0  0  0
 21 23  1  0  0  0
 22 28  1  0  0  0
 22 32  2  0  0  0
 26 27  1  0  0  0
 28 99  1  0  0  0
 28100  1  0  0  0
 29101  1  0  0  0
 29102  1  0  0  0
 33 34  1  0  0  0
 33 66  1  0  0  0
 33 70  2  0  0  0
 34 36  1  0  0  0
 34 59  1  0  0  0
 34103  1  0  0  0
 35 44  2  0  0  0
 35 45  1  0  0  0
 35 68  1  0  0  0
 36 56  1  0  0  0
 36104  1  0  0  0
 37 39  1  0  0  0
 37 47  1  0  0  0
 37 66  1  0  0  0
 37105  1  0  0  0
 38 43  2  0  0  0
 38 46  1  0  0  0
 38 47  1  0  0  0
 39 64  1  0  0  0
 39 67  2  0  0  0
 40 52  1  0  0  0
 40 53  2  0  0  0
 40 58  1  0  0  0
 41106  1  0  0  0
 41107  1  0  0  0
 41108  1  0  0  0
 41 48  1  0  0  0
 42 43  1  0  0  0
 42 66  1  0  0  0
 42109  1  0  0  0
 42110  1  0  0  0
 43 44  1  0  0  0
 44111  1  0  0  0
 45 46  2  0  0  0
 45112  1  0  0  0
 46113  1  0  0  0
 47114  1  0  0  0
 47115  1  0  0  0
 48 56  1  0  0  0
 48 65  1  0  0  0
 48116  1  0  0  0
 49 50  1  0  0  0
 49 53  1  0  0  0
 49 64  1  0  0  0
 49117  1  0  0  0
 50 51  1  0  0  0
 50118  1  0  0  0
 50119  1  0  0  0
 51 52  1  0  0  0
 51120  1  0  0  0
 51121  1  0  0  0
 52122  1  0  0  0
 52123  1  0  0  0
 53 54  1  0  0  0
 54 55  2  0  0  0
 54124  1  0  0  0
 55 57  1  0  0  0
 55125  1  0  0  0
 56 69  2  0  0  0
 57 58  2  0  0  0
 57126  1  0  0  0
 58127  1  0  0  0
 59 60  1  0  0  0
 59 61  1  0  0  0
 59 62  1  0  0  0
 60128  1  0  0  0
 60129  1  0  0  0
 60130  1  0  0  0
 61131  1  0  0  0
 61132  1  0  0  0
 61133  1  0  0  0
 62134  1  0  0  0
 62135  1  0  0  0
 62136  1  0  0  0
 63 65  1  0  0  0
 63137  1  0  0  0
 63138  1  0  0  0
 63139  1  0  0  0
 64140  1  0  0  0
 65141  1  0  0  0
 68 79  1  0  0  0
 71 72  1  0  0  0
 71142  1  0  0  0
 71143  1  0  0  0
 71 77  1  0  0  0
 72 81  1  0  0  0
 72144  1  0  0  0
 72145  1  0  0  0
 73 75  1  0  0  0
 73 80  1  0  0  0
 73146  1  0  0  0
 73147  1  0  0  0
 74 77  1  0  0  0
 74 81  1  0  0  0
 74148  1  0  0  0
 74149  1  0  0  0
 75150  1  0  0  0
 75151  1  0  0  0
 75 82  1  0  0  0
 76 80  1  0  0  0
 76 82  1  0  0  0
 76152  1  0  0  0
 76153  1  0  0  0
 77 82  1  0  0  0
 77154  1  0  0  0
 78 79  1  0  0  0
 78 81  1  0  0  0
 78155  1  0  0  0
 78156  1  0  0  0
 79157  1  0  0  0
 79158  1  0  0  0
 82159  1  0  0  0
M  CHG  1  82   1
M  ISO  4   1 100  68 101  79 101  80 100
M  END
> <chiral flag>
0

> <version>
0

> <s_m_source_file>
/data/baiqing/PycharmProjects/Reinvent-master-3.2/result/LINK_invent/BTK/process_docking_weight1_custom_sum_contain_oxygen_bond_distance_aromatic_linkinvent_7_9_3/rearranged_h_0191.sdf

> <i_m_source_file_index>
50

> <r_mmod_Potential_Energy-OPLS-2005>
294.414886474609

> <r_mmod_Stretch_Energy-OPLS-2005>
122.836967468262

> <r_mmod_Bend_Energy-OPLS-2005>
224.478973388672

> <r_mmod_Torsional_Energy-OPLS-2005>
395.382995605469

> <r_mmod_Improper_Torsional_Energy-OPLS-2005>
11.3222732543945

> <r_mmod_Van_der_Waal_Energy-OPLS-2005>
115.734596252441

> <r_mmod_Electrostatic_Energy-OPLS-2005>
-205.309020996094

> <r_mmod_Solvation_Energy-OPLS-2005>
-456.372528076172

> <b_mmod_Minimization_Converged-OPLS-2005>
0

> <r_mmod_RMS_Derivative-OPLS-2005>
1.00482499599457

$$$$
50
                    3D
 Structure written by MMmdl.
153162  0  0  1  0            999 V2000
  -29.9937  -16.3937   20.4565 C   0  0  0  0  0  0
  -30.3899  -13.6064   19.6587 C   0  0  0  0  0  0
  -29.6149  -12.9071   18.4603 C   0  0  0  0  0  0
  -28.2436  -12.3638   18.8789 C   0  0  0  0  0  0
  -27.6061  -13.3839   19.8210 C   0  0  2  0  0  0
  -28.5446  -13.9186   20.9395 C   0  0  0  0  0  0
  -25.2305  -13.8389   20.5827 C   0  0  0  0  0  0
  -24.1740  -13.0459   20.9282 C   0  0  0  0  0  0
  -24.6520  -11.6996   20.8673 C   0  0  0  0  0  0
  -23.9202  -10.4319   21.0306 C   0  0  0  0  0  0
  -24.3717   -9.4225   21.9093 C   0  0  0  0  0  0
  -23.6351   -8.2279   22.0716 C   0  0  0  0  0  0
  -22.4315   -8.0299   21.3546 C   0  0  0  0  0  0
  -21.9987   -9.0258   20.4618 C   0  0  0  0  0  0
  -22.7341  -10.2133   20.2981 C   0  0  0  0  0  0
  -21.6863   -6.0731   22.5285 C   0  0  0  0  0  0
  -21.4014   -6.5628   23.8217 C   0  0  0  0  0  0
  -21.3678   -5.6789   24.9188 C   0  0  0  0  0  0
  -21.6068   -4.3052   24.7245 C   0  0  0  0  0  0
  -21.8800   -3.8137   23.4361 C   0  0  0  0  0  0
  -21.9195   -4.6953   22.3416 C   0  0  0  0  0  0
  -22.7726  -13.5125   21.1950 C   0  0  0  0  0  0
  -22.1654   -4.2131   21.0997 F   0  0  0  0  0  0
  -21.5650   -3.4536   25.7762 F   0  0  0  0  0  0
  -29.6633  -14.8228   20.4096 N   0  0  0  0  0  0
  -26.2864  -12.9867   20.3205 N   0  0  0  0  0  0
  -25.9531  -11.6865   20.5623 N   0  0  0  0  0  0
  -22.0463  -12.8062   22.0531 N   0  0  0  0  0  0
  -25.3811  -15.2147   20.4338 N   0  0  0  0  0  0
  -31.0520  -16.2231   19.7534 O   0  0  0  0  0  0
  -21.6657   -6.8899   21.4258 O   0  0  0  0  0  0
  -22.3344  -14.5404   20.6797 O   0  0  0  0  0  0
  -24.7279  -31.7490   23.1139 C   0  0  0  0  0  0
  -25.9604  -32.4235   23.7880 C   0  0  1  0  0  0
  -27.2506  -26.2374   20.2735 C   0  0  0  0  0  0
  -25.5970  -33.8075   24.1709 N   0  0  0  0  0  0
  -23.5757  -30.3228   21.4895 C   0  0  2  0  0  0
  -25.0347  -28.5628   20.1458 C   0  0  0  0  0  0
  -22.7977  -29.4024   22.4717 C   0  0  0  0  0  0
  -18.0379  -28.1438   22.8462 C   0  0  0  0  0  0
  -24.1508  -36.7041   23.2669 C   0  0  0  0  0  0
  -26.1734  -30.3241   21.4470 C   0  0  0  0  0  0
  -26.2351  -28.8350   20.8107 C   0  0  0  0  0  0
  -27.3093  -27.7227   20.8147 C   0  0  0  0  0  0
  -26.0101  -26.2939   19.5420 C   0  0  0  0  0  0
  -24.9915  -27.3243   19.4750 C   0  0  0  0  0  0
  -23.8500  -29.5716   20.1488 C   0  0  0  0  0  0
  -25.4178  -36.2771   24.0265 C   0  0  1  0  0  0
  -20.6037  -28.3798   23.1125 C   0  0  2  0  0  0
  -20.6837  -26.9428   22.5442 C   0  0  0  0  0  0
  -19.5809  -26.6351   21.5273 C   0  0  0  0  0  0
  -18.1988  -26.7966   22.1633 C   0  0  0  0  0  0
  -19.1652  -28.8974   23.2742 C   0  0  0  0  0  0
  -18.9527  -30.1563   23.8784 C   0  0  0  0  0  0
  -17.6503  -30.6622   24.0543 C   0  0  0  0  0  0
  -25.9172  -34.9165   23.4878 C   0  0  0  0  0  0
  -16.5402  -29.9077   23.6364 C   0  0  0  0  0  0
  -16.7348  -28.6496   23.0392 C   0  0  0  0  0  0
  -26.4619  -31.6462   25.0680 C   0  0  0  0  0  0
  -25.3532  -31.3878   26.1192 C   0  0  0  0  0  0
  -27.0577  -30.2742   24.6894 C   0  0  0  0  0  0
  -27.6048  -32.4419   25.7455 C   0  0  0  0  0  0
  -27.5575  -37.1670   24.8466 C   0  0  0  0  0  0
  -21.4596  -29.2943   22.3404 N   0  0  0  0  0  0
  -26.4288  -37.3560   23.9400 N   0  0  0  0  0  0
  -24.8569  -30.8458   22.0665 N   0  0  0  0  0  0
  -23.4189  -28.7738   23.3309 O   0  0  0  0  0  0
  -28.1933  -24.8336   20.2608 O   0  0  0  0  0  0
  -26.5903  -34.8835   22.4552 O   0  0  0  0  0  0
  -23.6192  -32.0798   23.5756 O   0  0  0  0  0  0
  -31.1700  -18.2023   21.3256 C   0  0  0  0  0  0
  -28.9258  -16.3742   22.5092 C   0  0  0  0  0  0
  -30.0772  -19.9274   22.5963 C   0  0  0  0  0  0
  -30.6855  -18.7156   23.7438 C   0  0  0  0  0  0
  -31.3940  -19.2181   22.4632 C   0  0  0  0  0  0
  -28.1876  -15.7310   23.6312 C   0  0  0  0  0  0
  -28.9152  -20.7520   20.0017 C   0  0  0  0  0  0
  -28.2701  -22.8382   20.5144 C   0  0  0  0  0  0
  -30.8786  -16.6485   22.5225 N   0  0  0  0  0  0
  -28.1278  -17.5042   21.3094 N   0  0  0  0  0  0
  -29.4719  -18.8162   20.4917 N   0  0  0  0  0  0
  -29.6201  -18.4246   22.6314 N   0  0  0  0  0  0
  -31.3503  -13.9340   19.2541 H   0  0  0  0  0  0
  -30.6863  -12.8489   20.3872 H   0  0  0  0  0  0
  -30.2201  -12.0996   18.0446 H   0  0  0  0  0  0
  -29.4894  -13.6388   17.6609 H   0  0  0  0  0  0
  -28.3925  -11.4303   19.4280 H   0  0  0  0  0  0
  -27.6020  -12.1498   18.0204 H   0  0  0  0  0  0
  -27.4258  -14.2517   19.1826 H   0  0  0  0  0  0
  -28.8989  -13.1382   21.6164 H   0  0  0  0  0  0
  -27.8478  -14.5063   21.5115 H   0  0  0  0  0  0
  -25.2855   -9.5676   22.4679 H   0  0  0  0  0  0
  -24.0033   -7.4666   22.7441 H   0  0  0  0  0  0
  -21.0907   -8.8731   19.8943 H   0  0  0  0  0  0
  -22.3718  -10.9630   19.6079 H   0  0  0  0  0  0
  -21.1971   -7.6122   23.9729 H   0  0  0  0  0  0
  -21.1540   -6.0513   25.9104 H   0  0  0  0  0  0
  -22.0565   -2.7595   23.2869 H   0  0  0  0  0  0
  -22.4154  -11.9724   22.4847 H   0  0  0  0  0  0
  -21.1080  -13.0990   22.2837 H   0  0  0  0  0  0
  -24.6177  -15.8680   20.5694 H   0  0  0  0  0  0
  -26.2397  -15.6708   20.1516 H   0  0  0  0  0  0
  -26.7744  -32.4636   23.0650 H   0  0  0  0  0  0
  -24.9936  -33.9051   24.9745 H   0  0  0  0  0  0
  -22.9292  -31.1711   21.2583 H   0  0  0  0  0  0
  -23.3824  -35.9312   23.3239 H   0  0  0  0  0  0
  -24.3584  -36.8812   22.2106 H   0  0  0  0  0  0
  -23.7226  -37.6153   23.6840 H   0  0  0  0  0  0
  -26.4275  -31.0097   20.6378 H   0  0  0  0  0  0
  -27.0098  -30.4047   22.1279 H   0  0  0  0  0  0
  -28.2260  -27.9671   21.3320 H   0  0  0  0  0  0
  -25.7737  -25.3895   19.0023 H   0  0  0  0  0  0
  -24.1045  -27.1012   18.8966 H   0  0  0  0  0  0
  -24.0490  -30.3076   19.3687 H   0  0  0  0  0  0
  -22.9474  -29.0481   19.8286 H   0  0  0  0  0  0
  -25.1427  -36.1504   25.0761 H   0  0  0  0  0  0
  -21.0085  -28.3432   24.1271 H   0  0  0  0  0  0
  -20.5746  -26.2412   23.3715 H   0  0  0  0  0  0
  -21.6688  -26.7378   22.1244 H   0  0  0  0  0  0
  -19.6963  -25.6240   21.1366 H   0  0  0  0  0  0
  -19.6780  -27.3119   20.6776 H   0  0  0  0  0  0
  -17.4281  -26.6774   21.4000 H   0  0  0  0  0  0
  -18.0298  -26.0137   22.9031 H   0  0  0  0  0  0
  -19.7995  -30.7432   24.2082 H   0  0  0  0  0  0
  -17.5034  -31.6291   24.5144 H   0  0  0  0  0  0
  -15.5387  -30.2914   23.7781 H   0  0  0  0  0  0
  -15.8753  -28.0767   22.7176 H   0  0  0  0  0  0
  -24.5787  -30.7186   25.7398 H   0  0  0  0  0  0
  -24.8622  -32.3109   26.4289 H   0  0  0  0  0  0
  -25.7550  -30.9205   27.0194 H   0  0  0  0  0  0
  -26.3339  -29.6253   24.1944 H   0  0  0  0  0  0
  -27.3831  -29.7390   25.5820 H   0  0  0  0  0  0
  -27.9411  -30.3745   24.0600 H   0  0  0  0  0  0
  -27.2611  -33.3891   26.1644 H   0  0  0  0  0  0
  -28.3975  -32.6702   25.0312 H   0  0  0  0  0  0
  -28.0582  -31.8802   26.5633 H   0  0  0  0  0  0
  -28.2549  -37.9996   24.7530 H   0  0  0  0  0  0
  -28.1122  -36.2527   24.6307 H   0  0  0  0  0  0
  -27.2287  -37.1324   25.8861 H   0  0  0  0  0  0
  -21.0029  -29.8398   21.6227 H   0  0  0  0  0  0
  -26.0102  -38.2604   24.1378 H   0  0  0  0  0  0
  -29.7709  -20.6462   23.3832 H   0  0  0  0  0  0
  -30.2569  -20.5800   21.7657 H   0  0  0  0  0  0
  -31.2577  -17.9445   24.2602 H   0  0  0  0  0  0
  -30.4347  -19.3199   24.6384 H   0  0  0  0  0  0
  -32.3073  -19.8154   22.4969 H   0  0  0  0  0  0
  -28.4903  -16.2032   24.5643 H   0  0  0  0  0  0
  -28.4115  -14.6666   23.7034 H   0  0  0  0  0  0
  -27.1165  -15.8843   23.5132 H   0  0  0  0  0  0
  -29.7764  -21.0329   19.3979 H   0  0  0  0  0  0
  -28.1559  -20.5416   19.2526 H   0  0  0  0  0  0
  -28.6975  -22.8763   21.5135 H   0  0  0  0  0  0
  -27.2106  -22.6803   20.7187 H   0  0  0  0  0  0
  1 25  1  0  0  0
  1 30  2  0  0  0
  1 82  1  0  0  0
  2  3  1  0  0  0
  2 25  1  0  0  0
  2 83  1  0  0  0
  2 84  1  0  0  0
  3  4  1  0  0  0
  3 85  1  0  0  0
  3 86  1  0  0  0
  4  5  1  0  0  0
  4 87  1  0  0  0
  4 88  1  0  0  0
  5  6  1  0  0  0
  5 26  1  0  0  0
  5 89  1  0  0  0
  6 25  1  0  0  0
  6 90  1  0  0  0
  6 91  1  0  0  0
  7  8  2  0  0  0
  7 26  1  0  0  0
  7 29  1  0  0  0
  8  9  1  0  0  0
  8 22  1  0  0  0
  9 10  1  0  0  0
  9 27  2  0  0  0
 10 11  2  0  0  0
 10 15  1  0  0  0
 11 12  1  0  0  0
 11 92  1  0  0  0
 12 13  2  0  0  0
 12 93  1  0  0  0
 13 14  1  0  0  0
 13 31  1  0  0  0
 14 15  2  0  0  0
 14 94  1  0  0  0
 15 95  1  0  0  0
 16 17  2  0  0  0
 16 21  1  0  0  0
 16 31  1  0  0  0
 17 18  1  0  0  0
 17 96  1  0  0  0
 18 19  2  0  0  0
 18 97  1  0  0  0
 19 20  1  0  0  0
 19 24  1  0  0  0
 20 21  2  0  0  0
 20 98  1  0  0  0
 21 23  1  0  0  0
 22 28  1  0  0  0
 22 32  2  0  0  0
 26 27  1  0  0  0
 28 99  1  0  0  0
 28100  1  0  0  0
 29101  1  0  0  0
 29102  1  0  0  0
 33 34  1  0  0  0
 33 66  1  0  0  0
 33 70  2  0  0  0
 34 36  1  0  0  0
 34 59  1  0  0  0
 34103  1  0  0  0
 35 44  2  0  0  0
 35 45  1  0  0  0
 35 68  1  0  0  0
 36 56  1  0  0  0
 36104  1  0  0  0
 37 39  1  0  0  0
 37 47  1  0  0  0
 37 66  1  0  0  0
 37105  1  0  0  0
 38 43  2  0  0  0
 38 46  1  0  0  0
 38 47  1  0  0  0
 39 64  1  0  0  0
 39 67  2  0  0  0
 40 52  1  0  0  0
 40 53  2  0  0  0
 40 58  1  0  0  0
 41106  1  0  0  0
 41107  1  0  0  0
 41108  1  0  0  0
 41 48  1  0  0  0
 42 43  1  0  0  0
 42 66  1  0  0  0
 42109  1  0  0  0
 42110  1  0  0  0
 43 44  1  0  0  0
 44111  1  0  0  0
 45 46  2  0  0  0
 45112  1  0  0  0
 46113  1  0  0  0
 47114  1  0  0  0
 47115  1  0  0  0
 48 56  1  0  0  0
 48 65  1  0  0  0
 48116  1  0  0  0
 49 50  1  0  0  0
 49 53  1  0  0  0
 49 64  1  0  0  0
 49117  1  0  0  0
 50 51  1  0  0  0
 50118  1  0  0  0
 50119  1  0  0  0
 51 52  1  0  0  0
 51120  1  0  0  0
 51121  1  0  0  0
 52122  1  0  0  0
 52123  1  0  0  0
 53 54  1  0  0  0
 54 55  2  0  0  0
 54124  1  0  0  0
 55 57  1  0  0  0
 55125  1  0  0  0
 56 69  2  0  0  0
 57 58  2  0  0  0
 57126  1  0  0  0
 58127  1  0  0  0
 59 60  1  0  0  0
 59 61  1  0  0  0
 59 62  1  0  0  0
 60128  1  0  0  0
 60129  1  0  0  0
 60130  1  0  0  0
 61131  1  0  0  0
 61132  1  0  0  0
 61133  1  0  0  0
 62134  1  0  0  0
 62135  1  0  0  0
 62136  1  0  0  0
 63 65  1  0  0  0
 63137  1  0  0  0
 63138  1  0  0  0
 63139  1  0  0  0
 64140  1  0  0  0
 65141  1  0  0  0
 68 78  1  0  0  0
 71 79  2  0  0  0
 71 81  1  0  0  0
 71 75  1  0  0  0
 72 76  1  0  0  0
 72 79  1  0  0  0
 72 80  2  0  0  0
 73 75  1  0  0  0
 73 82  1  0  0  0
 73142  1  0  0  0
 73143  1  0  0  0
 74 75  1  0  0  0
 74 82  1  0  0  0
 74144  1  0  0  0
 74145  1  0  0  0
 75146  1  0  0  0
 76147  1  0  0  0
 76148  1  0  0  0
 76149  1  0  0  0
 77 78  1  0  0  0
 77 81  1  0  0  0
 77150  1  0  0  0
 77151  1  0  0  0
 78152  1  0  0  0
 78153  1  0  0  0
 80 81  1  0  0  0
M  ISO  4   1 100  68 101  78 101  82 100
M  END
> <chiral flag>
0

> <version>
0

> <s_m_source_file>
/data/baiqing/PycharmProjects/Reinvent-master-3.2/result/LINK_invent/BTK/process_docking_weight1_custom_sum_contain_oxygen_bond_distance_aromatic_linkinvent_7_9_3/rearranged_h_0191.sdf

> <i_m_source_file_index>
51

> <r_mmod_Potential_Energy-OPLS-2005>
18622.337890625

> <r_mmod_Stretch_Energy-OPLS-2005>
11738.0400390625

> <r_mmod_Bend_Energy-OPLS-2005>
1267.74523925781

> <r_mmod_Torsional_Energy-OPLS-2005>
391.515350341797

> <r_mmod_Improper_Torsional_Energy-OPLS-2005>
98.4930725097656

> <r_mmod_Van_der_Waal_Energy-OPLS-2005>
3469.59521484375

> <r_mmod_Electrostatic_Energy-OPLS-2005>
-355.979095458984

> <r_mmod_Solvation_Energy-OPLS-2005>
-239.563735961914

> <b_mmod_Minimization_Converged-OPLS-2005>
0

> <r_mmod_RMS_Derivative-OPLS-2005>
7.6242880821228

$$$$
51
                    3D
 Structure written by MMmdl.
160169  0  0  1  0            999 V2000
  -30.6073  -14.8030   20.4726 C   0  0  0  0  0  0
  -30.4309  -12.4940   19.4904 C   0  0  0  0  0  0
  -29.5169  -12.5217   18.2459 C   0  0  0  0  0  0
  -28.0447  -12.3353   18.6573 C   0  0  0  0  0  0
  -27.6406  -13.2400   19.8534 C   0  0  2  0  0  0
  -28.6825  -13.1970   20.9920 C   0  0  0  0  0  0
  -25.2509  -13.8214   20.5708 C   0  0  0  0  0  0
  -24.1794  -13.0442   20.9190 C   0  0  0  0  0  0
  -24.6398  -11.6931   20.8735 C   0  0  0  0  0  0
  -23.9075  -10.4307   21.0405 C   0  0  0  0  0  0
  -24.3626   -9.4223   21.9179 C   0  0  0  0  0  0
  -23.6299   -8.2255   22.0755 C   0  0  0  0  0  0
  -22.4276   -8.0294   21.3550 C   0  0  0  0  0  0
  -21.9916   -9.0263   20.4650 C   0  0  0  0  0  0
  -22.7244  -10.2141   20.3056 C   0  0  0  0  0  0
  -21.6868   -6.0737   22.5280 C   0  0  0  0  0  0
  -21.4020   -6.5638   23.8214 C   0  0  0  0  0  0
  -21.3658   -5.6791   24.9177 C   0  0  0  0  0  0
  -21.6050   -4.3053   24.7228 C   0  0  0  0  0  0
  -21.8821   -3.8138   23.4349 C   0  0  0  0  0  0
  -21.9190   -4.6958   22.3405 C   0  0  0  0  0  0
  -22.7814  -13.5224   21.1861 C   0  0  0  0  0  0
  -22.1655   -4.2143   21.0983 F   0  0  0  0  0  0
  -21.5630   -3.4537   25.7741 F   0  0  0  0  0  0
  -29.9755  -13.5716   20.4080 N   0  0  0  0  0  0
  -26.2941  -12.9430   20.3292 N   0  0  0  0  0  0
  -25.9334  -11.6562   20.5746 N   0  0  0  0  0  0
  -22.0453  -12.8224   22.0424 N   0  0  0  0  0  0
  -25.4210  -15.1945   20.4198 N   0  0  0  0  0  0
  -31.7813  -14.8749   20.0909 O   0  0  0  0  0  0
  -21.6641   -6.8883   21.4246 O   0  0  0  0  0  0
  -22.3503  -14.5522   20.6699 O   0  0  0  0  0  0
  -24.6360  -31.8498   23.1943 C   0  0  0  0  0  0
  -25.9172  -32.4717   23.8303 C   0  0  1  0  0  0
  -27.2151  -27.2108   20.1274 C   0  0  0  0  0  0
  -25.5953  -33.8523   24.2223 N   0  0  0  0  0  0
  -23.4344  -30.4741   21.5381 C   0  0  2  0  0  0
  -24.8810  -28.9161   20.1060 C   0  0  0  0  0  0
  -22.7521  -29.4582   22.4874 C   0  0  0  0  0  0
  -18.0289  -28.1397   22.8481 C   0  0  0  0  0  0
  -24.1488  -36.7262   23.2636 C   0  0  0  0  0  0
  -25.9851  -30.7474   21.3824 C   0  0  0  0  0  0
  -26.0550  -29.3676   20.7208 C   0  0  0  0  0  0
  -27.2200  -28.5266   20.7225 C   0  0  0  0  0  0
  -26.0081  -26.8357   19.4934 C   0  0  0  0  0  0
  -24.8657  -27.6607   19.4832 C   0  0  0  0  0  0
  -23.6546  -29.8080   20.1549 C   0  0  0  0  0  0
  -25.4112  -36.3040   24.0318 C   0  0  1  0  0  0
  -20.5902  -28.3719   23.1251 C   0  0  2  0  0  0
  -20.6778  -26.9424   22.5418 C   0  0  0  0  0  0
  -19.5756  -26.6385   21.5221 C   0  0  0  0  0  0
  -18.1929  -26.7942   22.1614 C   0  0  0  0  0  0
  -19.1549  -28.8871   23.2859 C   0  0  0  0  0  0
  -18.9471  -30.1470   23.8882 C   0  0  0  0  0  0
  -17.6472  -30.6592   24.0569 C   0  0  0  0  0  0
  -25.9064  -34.9415   23.5074 C   0  0  0  0  0  0
  -16.5358  -29.9092   23.6336 C   0  0  0  0  0  0
  -16.7279  -28.6506   23.0360 C   0  0  0  0  0  0
  -26.4512  -31.6563   25.0719 C   0  0  0  0  0  0
  -25.3723  -31.3784   26.1445 C   0  0  0  0  0  0
  -27.0348  -30.2945   24.6286 C   0  0  0  0  0  0
  -27.6054  -32.4320   25.7487 C   0  0  0  0  0  0
  -27.5588  -37.1770   24.8440 C   0  0  0  0  0  0
  -21.4219  -29.3048   22.3619 N   0  0  0  0  0  0
  -26.4269  -37.3763   23.9427 N   0  0  0  0  0  0
  -24.7044  -31.0433   22.0934 N   0  0  0  0  0  0
  -23.4193  -28.8128   23.2999 O   0  0  0  0  0  0
  -28.2960  -26.2858   20.2391 O   0  0  0  0  0  0
  -26.5640  -34.8902   22.4646 O   0  0  0  0  0  0
  -23.5503  -32.1346   23.7216 O   0  0  0  0  0  0
  -28.1997  -23.0647   21.4150 C   0  0  0  0  0  0
  -28.5049  -21.6522   21.5288 C   0  0  0  0  0  0
  -28.5626  -23.5619   20.1807 C   0  0  0  0  0  0
  -29.0714  -21.2310   20.3560 C   0  0  0  0  0  0
  -29.5368  -18.1020   21.9329 C   0  0  0  0  0  0
  -29.5277  -16.5325   21.9764 C   0  0  0  0  0  0
  -29.9382  -17.2421   19.7935 C   0  0  0  0  0  0
  -29.2271  -18.5021   20.4886 C   0  0  2  0  0  0
  -31.0491  -22.8047   18.0595 C   0  0  0  0  0  0
  -28.3949  -24.9888   19.4560 C   0  0  0  0  0  0
  -29.5773  -22.3866   18.1543 C   0  0  0  0  0  0
  -29.0935  -22.3953   19.5270 N   0  0  0  0  0  0
  -29.8572  -15.9837   20.6442 N   0  0  0  0  0  0
  -29.6252  -19.9087   20.0318 N   0  0  0  0  0  0
  -31.4734  -12.6116   19.1908 H   0  0  0  0  0  0
  -30.3739  -11.5233   19.9868 H   0  0  0  0  0  0
  -29.8116  -11.7422   17.5428 H   0  0  0  0  0  0
  -29.6382  -13.4701   17.7198 H   0  0  0  0  0  0
  -27.9120  -11.2870   18.9278 H   0  0  0  0  0  0
  -27.3877  -12.5134   17.8059 H   0  0  0  0  0  0
  -27.6280  -14.2599   19.4656 H   0  0  0  0  0  0
  -28.7325  -12.2035   21.4392 H   0  0  0  0  0  0
  -28.4039  -13.8800   21.7938 H   0  0  0  0  0  0
  -25.2776   -9.5695   22.4736 H   0  0  0  0  0  0
  -24.0012   -7.4650   22.7479 H   0  0  0  0  0  0
  -21.0847   -8.8795   19.8955 H   0  0  0  0  0  0
  -22.3708  -10.9685   19.6161 H   0  0  0  0  0  0
  -21.2014   -7.6145   23.9722 H   0  0  0  0  0  0
  -21.1476   -6.0514   25.9084 H   0  0  0  0  0  0
  -22.0592   -2.7600   23.2863 H   0  0  0  0  0  0
  -22.4068  -11.9905   22.4842 H   0  0  0  0  0  0
  -21.1074  -13.1256   22.2599 H   0  0  0  0  0  0
  -24.6593  -15.8535   20.5421 H   0  0  0  0  0  0
  -26.2853  -15.6371   20.1346 H   0  0  0  0  0  0
  -26.7234  -32.5347   23.1035 H   0  0  0  0  0  0
  -25.0080  -33.9644   25.0357 H   0  0  0  0  0  0
  -22.7327  -31.2972   21.3903 H   0  0  0  0  0  0
  -23.3784  -35.9557   23.3200 H   0  0  0  0  0  0
  -24.3588  -36.9002   22.2073 H   0  0  0  0  0  0
  -23.7193  -37.6405   23.6736 H   0  0  0  0  0  0
  -26.1353  -31.5082   20.6158 H   0  0  0  0  0  0
  -26.8570  -30.7908   22.0230 H   0  0  0  0  0  0
  -28.1153  -28.8637   21.2269 H   0  0  0  0  0  0
  -25.8800  -25.8649   19.0440 H   0  0  0  0  0  0
  -23.9609  -27.3037   19.0102 H   0  0  0  0  0  0
  -23.7806  -30.5833   19.3987 H   0  0  0  0  0  0
  -22.7708  -29.2443   19.8489 H   0  0  0  0  0  0
  -25.1290  -36.1862   25.0808 H   0  0  0  0  0  0
  -20.9992  -28.3324   24.1377 H   0  0  0  0  0  0
  -20.5675  -26.2332   23.3635 H   0  0  0  0  0  0
  -21.6648  -26.7430   22.1232 H   0  0  0  0  0  0
  -19.6919  -25.6296   21.1256 H   0  0  0  0  0  0
  -19.6703  -27.3190   20.6751 H   0  0  0  0  0  0
  -17.4212  -26.6710   21.4000 H   0  0  0  0  0  0
  -18.0298  -26.0075   22.8994 H   0  0  0  0  0  0
  -19.7946  -30.7294   24.2236 H   0  0  0  0  0  0
  -17.5023  -31.6263   24.5191 H   0  0  0  0  0  0
  -15.5359  -30.2994   23.7669 H   0  0  0  0  0  0
  -15.8676  -28.0822   22.7093 H   0  0  0  0  0  0
  -24.5863  -30.7163   25.7795 H   0  0  0  0  0  0
  -24.8968  -32.2996   26.4824 H   0  0  0  0  0  0
  -25.8029  -30.8985   27.0246 H   0  0  0  0  0  0
  -26.2953  -29.6688   24.1276 H   0  0  0  0  0  0
  -27.3921  -29.7226   25.4861 H   0  0  0  0  0  0
  -27.8885  -30.4142   23.9612 H   0  0  0  0  0  0
  -27.2645  -33.3641   26.2006 H   0  0  0  0  0  0
  -28.3890  -32.6851   25.0331 H   0  0  0  0  0  0
  -28.0690  -31.8488   26.5455 H   0  0  0  0  0  0
  -28.2538  -38.0135   24.7575 H   0  0  0  0  0  0
  -28.1155  -36.2669   24.6142 H   0  0  0  0  0  0
  -27.2320  -37.1273   25.8842 H   0  0  0  0  0  0
  -20.9411  -29.8753   21.6810 H   0  0  0  0  0  0
  -26.0131  -38.2813   24.1515 H   0  0  0  0  0  0
  -27.7345  -23.6678   22.1834 H   0  0  0  0  0  0
  -28.3366  -21.0278   22.3945 H   0  0  0  0  0  0
  -30.5283  -18.4653   22.2081 H   0  0  0  0  0  0
  -28.8287  -18.5330   22.6412 H   0  0  0  0  0  0
  -28.5374  -16.1748   22.2601 H   0  0  0  0  0  0
  -30.2250  -16.1707   22.7344 H   0  0  0  0  0  0
  -30.9950  -17.4632   19.6303 H   0  0  0  0  0  0
  -29.5052  -17.0495   18.8121 H   0  0  0  0  0  0
  -28.1513  -18.4021   20.3348 H   0  0  0  0  0  0
  -31.3890  -22.7654   17.0245 H   0  0  0  0  0  0
  -31.6810  -22.1382   18.6475 H   0  0  0  0  0  0
  -31.2028  -23.8194   18.4229 H   0  0  0  0  0  0
  -27.6271  -24.8980   18.6931 H   0  0  0  0  0  0
  -29.2953  -25.1416   18.8625 H   0  0  0  0  0  0
  -29.4486  -21.3845   17.7452 H   0  0  0  0  0  0
  -28.9486  -23.0360   17.5454 H   0  0  0  0  0  0
  -30.1252  -19.8942   19.1476 H   0  0  0  0  0  0
  1 25  1  0  0  0
  1 30  2  0  0  0
  1 83  1  0  0  0
  2  3  1  0  0  0
  2 25  1  0  0  0
  2 85  1  0  0  0
  2 86  1  0  0  0
  3  4  1  0  0  0
  3 87  1  0  0  0
  3 88  1  0  0  0
  4  5  1  0  0  0
  4 89  1  0  0  0
  4 90  1  0  0  0
  5  6  1  0  0  0
  5 26  1  0  0  0
  5 91  1  0  0  0
  6 25  1  0  0  0
  6 92  1  0  0  0
  6 93  1  0  0  0
  7  8  2  0  0  0
  7 26  1  0  0  0
  7 29  1  0  0  0
  8  9  1  0  0  0
  8 22  1  0  0  0
  9 10  1  0  0  0
  9 27  2  0  0  0
 10 11  2  0  0  0
 10 15  1  0  0  0
 11 12  1  0  0  0
 11 94  1  0  0  0
 12 13  2  0  0  0
 12 95  1  0  0  0
 13 14  1  0  0  0
 13 31  1  0  0  0
 14 15  2  0  0  0
 14 96  1  0  0  0
 15 97  1  0  0  0
 16 17  2  0  0  0
 16 21  1  0  0  0
 16 31  1  0  0  0
 17 18  1  0  0  0
 17 98  1  0  0  0
 18 19  2  0  0  0
 18 99  1  0  0  0
 19 20  1  0  0  0
 19 24  1  0  0  0
 20 21  2  0  0  0
 20100  1  0  0  0
 21 23  1  0  0  0
 22 28  1  0  0  0
 22 32  2  0  0  0
 26 27  1  0  0  0
 28101  1  0  0  0
 28102  1  0  0  0
 29103  1  0  0  0
 29104  1  0  0  0
 33 34  1  0  0  0
 33 66  1  0  0  0
 33 70  2  0  0  0
 34 36  1  0  0  0
 34 59  1  0  0  0
 34105  1  0  0  0
 35 44  2  0  0  0
 35 45  1  0  0  0
 35 68  1  0  0  0
 36 56  1  0  0  0
 36106  1  0  0  0
 37 39  1  0  0  0
 37 47  1  0  0  0
 37 66  1  0  0  0
 37107  1  0  0  0
 38 43  2  0  0  0
 38 46  1  0  0  0
 38 47  1  0  0  0
 39 64  1  0  0  0
 39 67  2  0  0  0
 40 52  1  0  0  0
 40 53  2  0  0  0
 40 58  1  0  0  0
 41108  1  0  0  0
 41109  1  0  0  0
 41110  1  0  0  0
 41 48  1  0  0  0
 42 43  1  0  0  0
 42 66  1  0  0  0
 42111  1  0  0  0
 42112  1  0  0  0
 43 44  1  0  0  0
 44113  1  0  0  0
 45 46  2  0  0  0
 45114  1  0  0  0
 46115  1  0  0  0
 47116  1  0  0  0
 47117  1  0  0  0
 48 56  1  0  0  0
 48 65  1  0  0  0
 48118  1  0  0  0
 49 50  1  0  0  0
 49 53  1  0  0  0
 49 64  1  0  0  0
 49119  1  0  0  0
 50 51  1  0  0  0
 50120  1  0  0  0
 50121  1  0  0  0
 51 52  1  0  0  0
 51122  1  0  0  0
 51123  1  0  0  0
 52124  1  0  0  0
 52125  1  0  0  0
 53 54  1  0  0  0
 54 55  2  0  0  0
 54126  1  0  0  0
 55 57  1  0  0  0
 55127  1  0  0  0
 56 69  2  0  0  0
 57 58  2  0  0  0
 57128  1  0  0  0
 58129  1  0  0  0
 59 60  1  0  0  0
 59 61  1  0  0  0
 59 62  1  0  0  0
 60130  1  0  0  0
 60131  1  0  0  0
 60132  1  0  0  0
 61133  1  0  0  0
 61134  1  0  0  0
 61135  1  0  0  0
 62136  1  0  0  0
 62137  1  0  0  0
 62138  1  0  0  0
 63 65  1  0  0  0
 63139  1  0  0  0
 63140  1  0  0  0
 63141  1  0  0  0
 64142  1  0  0  0
 65143  1  0  0  0
 68 80  1  0  0  0
 71 72  1  0  0  0
 71 73  2  0  0  0
 71144  1  0  0  0
 72 74  2  0  0  0
 72145  1  0  0  0
 73 80  1  0  0  0
 73 82  1  0  0  0
 74 82  1  0  0  0
 74 84  1  0  0  0
 75 76  1  0  0  0
 75 78  1  0  0  0
 75146  1  0  0  0
 75147  1  0  0  0
 76 83  1  0  0  0
 76148  1  0  0  0
 76149  1  0  0  0
 77 78  1  0  0  0
 77 83  1  0  0  0
 77150  1  0  0  0
 77151  1  0  0  0
 78 84  1  0  0  0
 78152  1  0  0  0
 79 81  1  0  0  0
 79153  1  0  0  0
 79154  1  0  0  0
 79155  1  0  0  0
 80156  1  0  0  0
 80157  1  0  0  0
 81 82  1  0  0  0
 81158  1  0  0  0
 81159  1  0  0  0
 84160  1  0  0  0
M  ISO  4   1 100  68 101  80 101  83 100
M  END
> <chiral flag>
0

> <version>
0

> <s_m_source_file>
/data/baiqing/PycharmProjects/Reinvent-master-3.2/result/LINK_invent/BTK/process_docking_weight1_custom_sum_contain_oxygen_bond_distance_aromatic_linkinvent_7_9_3/rearranged_h_0191.sdf

> <i_m_source_file_index>
52

> <r_mmod_Potential_Energy-OPLS-2005>
404.167846679688

> <r_mmod_Stretch_Energy-OPLS-2005>
147.437881469727

> <r_mmod_Bend_Energy-OPLS-2005>
242.399917602539

> <r_mmod_Torsional_Energy-OPLS-2005>
343.13037109375

> <r_mmod_Improper_Torsional_Energy-OPLS-2005>
13.1847743988037

> <r_mmod_Van_der_Waal_Energy-OPLS-2005>
108.34358215332

> <r_mmod_Electrostatic_Energy-OPLS-2005>
-357.736602783203

> <r_mmod_Solvation_Energy-OPLS-2005>
-207.670303344727

> <b_mmod_Minimization_Converged-OPLS-2005>
0

> <r_mmod_RMS_Derivative-OPLS-2005>
1.90649890899658

$$$$
52
                    3D
 Structure written by MMmdl.
158167  0  0  1  0            999 V2000
  -30.6036  -14.7271   20.4901 C   0  0  0  0  0  0
  -30.4381  -12.4533   19.4482 C   0  0  0  0  0  0
  -29.5086  -12.5183   18.2174 C   0  0  0  0  0  0
  -28.0316  -12.3422   18.6281 C   0  0  0  0  0  0
  -27.6415  -13.2263   19.8420 C   0  0  2  0  0  0
  -28.6894  -13.1346   20.9708 C   0  0  0  0  0  0
  -25.2518  -13.8178   20.5647 C   0  0  0  0  0  0
  -24.1819  -13.0429   20.9187 C   0  0  0  0  0  0
  -24.6407  -11.6908   20.8731 C   0  0  0  0  0  0
  -23.9078  -10.4291   21.0398 C   0  0  0  0  0  0
  -24.3638   -9.4205   21.9170 C   0  0  0  0  0  0
  -23.6305   -8.2247   22.0752 C   0  0  0  0  0  0
  -22.4280   -8.0289   21.3547 C   0  0  0  0  0  0
  -21.9916   -9.0255   20.4640 C   0  0  0  0  0  0
  -22.7251  -10.2129   20.3040 C   0  0  0  0  0  0
  -21.6859   -6.0733   22.5270 C   0  0  0  0  0  0
  -21.4020   -6.5630   23.8206 C   0  0  0  0  0  0
  -21.3668   -5.6780   24.9165 C   0  0  0  0  0  0
  -21.6058   -4.3047   24.7209 C   0  0  0  0  0  0
  -21.8824   -3.8141   23.4328 C   0  0  0  0  0  0
  -21.9201   -4.6961   22.3391 C   0  0  0  0  0  0
  -22.7840  -13.5216   21.1848 C   0  0  0  0  0  0
  -22.1660   -4.2145   21.0966 F   0  0  0  0  0  0
  -21.5630   -3.4537   25.7727 F   0  0  0  0  0  0
  -29.9882  -13.5010   20.3878 N   0  0  0  0  0  0
  -26.2934  -12.9368   20.3219 N   0  0  0  0  0  0
  -25.9327  -11.6516   20.5711 N   0  0  0  0  0  0
  -22.0501  -12.8217   22.0421 N   0  0  0  0  0  0
  -25.4231  -15.1902   20.4049 N   0  0  0  0  0  0
  -31.8040  -14.8487   20.2330 O   0  0  0  0  0  0
  -21.6654   -6.8879   21.4235 O   0  0  0  0  0  0
  -22.3519  -14.5509   20.6680 O   0  0  0  0  0  0
  -24.6330  -31.8560   23.1983 C   0  0  0  0  0  0
  -25.9156  -32.4756   23.8333 C   0  0  1  0  0  0
  -27.2152  -27.2603   20.1429 C   0  0  0  0  0  0
  -25.5956  -33.8559   24.2257 N   0  0  0  0  0  0
  -23.4299  -30.4757   21.5435 C   0  0  2  0  0  0
  -24.8759  -28.9196   20.1146 C   0  0  0  0  0  0
  -22.7517  -29.4593   22.4945 C   0  0  0  0  0  0
  -18.0298  -28.1374   22.8497 C   0  0  0  0  0  0
  -24.1492  -36.7277   23.2645 C   0  0  0  0  0  0
  -25.9769  -30.7673   21.3808 C   0  0  0  0  0  0
  -26.0486  -29.3906   20.7211 C   0  0  0  0  0  0
  -27.2249  -28.5748   20.7177 C   0  0  0  0  0  0
  -26.0233  -26.8532   19.5092 C   0  0  0  0  0  0
  -24.8679  -27.6593   19.4965 C   0  0  0  0  0  0
  -23.6478  -29.8087   20.1605 C   0  0  0  0  0  0
  -25.4127  -36.3073   24.0325 C   0  0  1  0  0  0
  -20.5899  -28.3690   23.1291 C   0  0  2  0  0  0
  -20.6778  -26.9410   22.5422 C   0  0  0  0  0  0
  -19.5747  -26.6369   21.5231 C   0  0  0  0  0  0
  -18.1926  -26.7913   22.1632 C   0  0  0  0  0  0
  -19.1550  -28.8851   23.2873 C   0  0  0  0  0  0
  -18.9465  -30.1454   23.8881 C   0  0  0  0  0  0
  -17.6457  -30.6576   24.0560 C   0  0  0  0  0  0
  -25.9077  -34.9442   23.5102 C   0  0  0  0  0  0
  -16.5354  -29.9066   23.6339 C   0  0  0  0  0  0
  -16.7278  -28.6486   23.0364 C   0  0  0  0  0  0
  -26.4504  -31.6591   25.0738 C   0  0  0  0  0  0
  -25.3706  -31.3751   26.1444 C   0  0  0  0  0  0
  -27.0381  -30.3011   24.6268 C   0  0  0  0  0  0
  -27.6063  -32.4330   25.7516 C   0  0  0  0  0  0
  -27.5582  -37.1794   24.8464 C   0  0  0  0  0  0
  -21.4224  -29.3026   22.3674 N   0  0  0  0  0  0
  -26.4301  -37.3780   23.9403 N   0  0  0  0  0  0
  -24.6988  -31.0516   22.0968 N   0  0  0  0  0  0
  -23.4208  -28.8152   23.3062 O   0  0  0  0  0  0
  -28.3037  -26.3616   20.1682 O   0  0  0  0  0  0
  -26.5646  -34.8914   22.4666 O   0  0  0  0  0  0
  -23.5479  -32.1396   23.7264 O   0  0  0  0  0  0
  -30.7335  -21.0492   19.5655 C   0  0  0  0  0  0
  -29.5748  -20.8871   20.3290 C   0  0  0  0  0  0
  -31.5330  -19.9290   19.3083 C   0  0  0  0  0  0
  -30.1213  -18.5516   20.4944 C   0  0  0  0  0  0
  -27.7011  -22.5877   19.5479 C   0  0  0  0  0  0
  -28.6412  -22.1303   20.6274 C   0  0  2  0  0  0
  -28.6819  -23.6366   20.0470 C   0  0  2  0  0  0
  -32.6947  -19.7486   17.0586 C   0  0  0  0  0  0
  -32.8374  -20.0707   18.5489 C   0  0  0  0  0  0
  -30.0778  -17.1881   21.3028 C   0  0  0  0  0  0
  -28.0735  -24.9718   20.6986 C   0  0  0  0  0  0
  -29.2955  -19.6056   20.7944 N   0  0  0  0  0  0
  -31.2099  -18.6951   19.7457 N   0  0  0  0  0  0
  -29.7942  -15.8185   20.7116 N   0  0  0  0  0  0
  -31.4769  -12.5957   19.1469 H   0  0  0  0  0  0
  -30.3881  -11.4689   19.9156 H   0  0  0  0  0  0
  -29.7897  -11.7568   17.4899 H   0  0  0  0  0  0
  -29.6374  -13.4776   17.7152 H   0  0  0  0  0  0
  -27.8812  -11.2891   18.8684 H   0  0  0  0  0  0
  -27.3810  -12.5570   17.7780 H   0  0  0  0  0  0
  -27.6388  -14.2529   19.4752 H   0  0  0  0  0  0
  -28.7243  -12.1242   21.3809 H   0  0  0  0  0  0
  -28.4242  -13.7913   21.8009 H   0  0  0  0  0  0
  -25.2794   -9.5684   22.4729 H   0  0  0  0  0  0
  -24.0023   -7.4647   22.7472 H   0  0  0  0  0  0
  -21.0851   -8.8760   19.8955 H   0  0  0  0  0  0
  -22.3708  -10.9653   19.6146 H   0  0  0  0  0  0
  -21.1999   -7.6136   23.9699 H   0  0  0  0  0  0
  -21.1495   -6.0512   25.9068 H   0  0  0  0  0  0
  -22.0598   -2.7601   23.2828 H   0  0  0  0  0  0
  -22.4129  -11.9885   22.4807 H   0  0  0  0  0  0
  -21.1103  -13.1213   22.2598 H   0  0  0  0  0  0
  -24.6537  -15.8432   20.5079 H   0  0  0  0  0  0
  -26.2604  -15.6305   20.0471 H   0  0  0  0  0  0
  -26.7231  -32.5377   23.1074 H   0  0  0  0  0  0
  -25.0071  -33.9694   25.0383 H   0  0  0  0  0  0
  -22.7275  -31.2992   21.3974 H   0  0  0  0  0  0
  -23.3765  -35.9596   23.3309 H   0  0  0  0  0  0
  -24.3591  -36.8900   22.2060 H   0  0  0  0  0  0
  -23.7218  -37.6466   23.6674 H   0  0  0  0  0  0
  -26.1260  -31.5311   20.6164 H   0  0  0  0  0  0
  -26.8508  -30.8087   22.0201 H   0  0  0  0  0  0
  -28.1253  -28.9311   21.1975 H   0  0  0  0  0  0
  -25.9719  -25.8826   19.0363 H   0  0  0  0  0  0
  -23.9699  -27.2941   19.0176 H   0  0  0  0  0  0
  -23.7731  -30.5859   19.4048 H   0  0  0  0  0  0
  -22.7649  -29.2429   19.8550 H   0  0  0  0  0  0
  -25.1305  -36.1934   25.0818 H   0  0  0  0  0  0
  -20.9984  -28.3253   24.1414 H   0  0  0  0  0  0
  -20.5705  -26.2296   23.3625 H   0  0  0  0  0  0
  -21.6638  -26.7431   22.1197 H   0  0  0  0  0  0
  -19.6907  -25.6284   21.1251 H   0  0  0  0  0  0
  -19.6672  -27.3193   20.6776 H   0  0  0  0  0  0
  -17.4206  -26.6698   21.4016 H   0  0  0  0  0  0
  -18.0292  -26.0045   22.9016 H   0  0  0  0  0  0
  -19.7949  -30.7281   24.2226 H   0  0  0  0  0  0
  -17.5020  -31.6260   24.5154 H   0  0  0  0  0  0
  -15.5356  -30.2954   23.7675 H   0  0  0  0  0  0
  -15.8686  -28.0791   22.7085 H   0  0  0  0  0  0
  -24.5876  -30.7121   25.7748 H   0  0  0  0  0  0
  -24.8899  -32.2923   26.4858 H   0  0  0  0  0  0
  -25.7985  -30.8912   27.0233 H   0  0  0  0  0  0
  -26.3003  -29.6731   24.1270 H   0  0  0  0  0  0
  -27.4037  -29.7306   25.4819 H   0  0  0  0  0  0
  -27.8879  -30.4294   23.9560 H   0  0  0  0  0  0
  -27.2687  -33.3635   26.2090 H   0  0  0  0  0  0
  -28.3872  -32.6881   25.0338 H   0  0  0  0  0  0
  -28.0742  -31.8457   26.5426 H   0  0  0  0  0  0
  -28.2598  -38.0096   24.7535 H   0  0  0  0  0  0
  -28.1075  -36.2627   24.6263 H   0  0  0  0  0  0
  -27.2302  -37.1407   25.8868 H   0  0  0  0  0  0
  -20.9440  -29.8721   21.6837 H   0  0  0  0  0  0
  -26.0177  -38.2855   24.1394 H   0  0  0  0  0  0
  -31.0136  -22.0226   19.1849 H   0  0  0  0  0  0
  -26.6552  -22.6739   19.8331 H   0  0  0  0  0  0
  -27.8706  -22.2017   18.5435 H   0  0  0  0  0  0
  -28.2267  -22.0203   21.6269 H   0  0  0  0  0  0
  -29.5526  -23.8401   19.4271 H   0  0  0  0  0  0
  -33.6482  -19.8831   16.5480 H   0  0  0  0  0  0
  -31.9681  -20.4086   16.5845 H   0  0  0  0  0  0
  -32.3661  -18.7197   16.9124 H   0  0  0  0  0  0
  -33.5829  -19.4171   19.0010 H   0  0  0  0  0  0
  -33.2187  -21.0862   18.6706 H   0  0  0  0  0  0
  -29.3407  -17.3216   22.0941 H   0  0  0  0  0  0
  -31.0295  -17.1175   21.8329 H   0  0  0  0  0  0
  -28.4607  -25.0069   21.7174 H   0  0  0  0  0  0
  -27.0054  -24.8031   20.8377 H   0  0  0  0  0  0
  -28.8113  -15.6045   20.7055 H   0  0  0  0  0  0
  1 25  1  0  0  0
  1 30  2  0  0  0
  1 84  1  0  0  0
  2  3  1  0  0  0
  2 25  1  0  0  0
  2 85  1  0  0  0
  2 86  1  0  0  0
  3  4  1  0  0  0
  3 87  1  0  0  0
  3 88  1  0  0  0
  4  5  1  0  0  0
  4 89  1  0  0  0
  4 90  1  0  0  0
  5  6  1  0  0  0
  5 26  1  0  0  0
  5 91  1  0  0  0
  6 25  1  0  0  0
  6 92  1  0  0  0
  6 93  1  0  0  0
  7  8  2  0  0  0
  7 26  1  0  0  0
  7 29  1  0  0  0
  8  9  1  0  0  0
  8 22  1  0  0  0
  9 10  1  0  0  0
  9 27  2  0  0  0
 10 11  2  0  0  0
 10 15  1  0  0  0
 11 12  1  0  0  0
 11 94  1  0  0  0
 12 13  2  0  0  0
 12 95  1  0  0  0
 13 14  1  0  0  0
 13 31  1  0  0  0
 14 15  2  0  0  0
 14 96  1  0  0  0
 15 97  1  0  0  0
 16 17  2  0  0  0
 16 21  1  0  0  0
 16 31  1  0  0  0
 17 18  1  0  0  0
 17 98  1  0  0  0
 18 19  2  0  0  0
 18 99  1  0  0  0
 19 20  1  0  0  0
 19 24  1  0  0  0
 20 21  2  0  0  0
 20100  1  0  0  0
 21 23  1  0  0  0
 22 28  1  0  0  0
 22 32  2  0  0  0
 26 27  1  0  0  0
 28101  1  0  0  0
 28102  1  0  0  0
 29103  1  0  0  0
 29104  1  0  0  0
 33 34  1  0  0  0
 33 66  1  0  0  0
 33 70  2  0  0  0
 34 36  1  0  0  0
 34 59  1  0  0  0
 34105  1  0  0  0
 35 44  2  0  0  0
 35 45  1  0  0  0
 35 68  1  0  0  0
 36 56  1  0  0  0
 36106  1  0  0  0
 37 39  1  0  0  0
 37 47  1  0  0  0
 37 66  1  0  0  0
 37107  1  0  0  0
 38 43  2  0  0  0
 38 46  1  0  0  0
 38 47  1  0  0  0
 39 64  1  0  0  0
 39 67  2  0  0  0
 40 52  1  0  0  0
 40 53  2  0  0  0
 40 58  1  0  0  0
 41108  1  0  0  0
 41109  1  0  0  0
 41110  1  0  0  0
 41 48  1  0  0  0
 42 43  1  0  0  0
 42 66  1  0  0  0
 42111  1  0  0  0
 42112  1  0  0  0
 43 44  1  0  0  0
 44113  1  0  0  0
 45 46  2  0  0  0
 45114  1  0  0  0
 46115  1  0  0  0
 47116  1  0  0  0
 47117  1  0  0  0
 48 56  1  0  0  0
 48 65  1  0  0  0
 48118  1  0  0  0
 49 50  1  0  0  0
 49 53  1  0  0  0
 49 64  1  0  0  0
 49119  1  0  0  0
 50 51  1  0  0  0
 50120  1  0  0  0
 50121  1  0  0  0
 51 52  1  0  0  0
 51122  1  0  0  0
 51123  1  0  0  0
 52124  1  0  0  0
 52125  1  0  0  0
 53 54  1  0  0  0
 54 55  2  0  0  0
 54126  1  0  0  0
 55 57  1  0  0  0
 55127  1  0  0  0
 56 69  2  0  0  0
 57 58  2  0  0  0
 57128  1  0  0  0
 58129  1  0  0  0
 59 60  1  0  0  0
 59 61  1  0  0  0
 59 62  1  0  0  0
 60130  1  0  0  0
 60131  1  0  0  0
 60132  1  0  0  0
 61133  1  0  0  0
 61134  1  0  0  0
 61135  1  0  0  0
 62136  1  0  0  0
 62137  1  0  0  0
 62138  1  0  0  0
 63 65  1  0  0  0
 63139  1  0  0  0
 63140  1  0  0  0
 63141  1  0  0  0
 64142  1  0  0  0
 65143  1  0  0  0
 68 81  1  0  0  0
 71 72  2  0  0  0
 71 73  1  0  0  0
 71144  1  0  0  0
 72 82  1  0  0  0
 72 76  1  0  0  0
 73 79  1  0  0  0
 73 83  2  0  0  0
 74 80  1  0  0  0
 74 82  2  0  0  0
 74 83  1  0  0  0
 75 76  1  0  0  0
 75 77  1  0  0  0
 75145  1  0  0  0
 75146  1  0  0  0
 76 77  1  0  0  0
 76147  1  0  0  0
 77 81  1  0  0  0
 77148  1  0  0  0
 78 79  1  0  0  0
 78149  1  0  0  0
 78150  1  0  0  0
 78151  1  0  0  0
 79152  1  0  0  0
 79153  1  0  0  0
 80 84  1  0  0  0
 80154  1  0  0  0
 80155  1  0  0  0
 81156  1  0  0  0
 81157  1  0  0  0
 84158  1  0  0  0
M  ISO  4   1 100  68 101  81 101  84 100
M  END
> <chiral flag>
0

> <version>
0

> <s_m_source_file>
/data/baiqing/PycharmProjects/Reinvent-master-3.2/result/LINK_invent/BTK/process_docking_weight1_custom_sum_contain_oxygen_bond_distance_aromatic_linkinvent_7_9_3/rearranged_h_0191.sdf

> <i_m_source_file_index>
53

> <r_mmod_Potential_Energy-OPLS-2005>
-426.957336425781

> <r_mmod_Stretch_Energy-OPLS-2005>
115.158622741699

> <r_mmod_Bend_Energy-OPLS-2005>
171.939544677734

> <r_mmod_Torsional_Energy-OPLS-2005>
255.871185302734

> <r_mmod_Improper_Torsional_Energy-OPLS-2005>
6.85667085647583

> <r_mmod_Van_der_Waal_Energy-OPLS-2005>
138.0869140625

> <r_mmod_Electrostatic_Energy-OPLS-2005>
-955.249572753906

> <r_mmod_Solvation_Energy-OPLS-2005>
-243.201461791992

> <b_mmod_Minimization_Converged-OPLS-2005>
0

> <r_mmod_RMS_Derivative-OPLS-2005>
2.40755486488342

$$$$
53
                    3D
 Structure written by MMmdl.
162172  0  0  1  0            999 V2000
  -30.7088  -14.4928   20.4484 C   0  0  0  0  0  0
  -30.4227  -12.2907   19.4164 C   0  0  0  0  0  0
  -29.4859  -12.4448   18.2007 C   0  0  0  0  0  0
  -28.0075  -12.3273   18.6247 C   0  0  0  0  0  0
  -27.6505  -13.1934   19.8638 C   0  0  2  0  0  0
  -28.7112  -13.0556   20.9808 C   0  0  0  0  0  0
  -25.2582  -13.8110   20.5726 C   0  0  0  0  0  0
  -24.1821  -13.0404   20.9208 C   0  0  0  0  0  0
  -24.6365  -11.6868   20.8779 C   0  0  0  0  0  0
  -23.9028  -10.4265   21.0434 C   0  0  0  0  0  0
  -24.3592   -9.4183   21.9202 C   0  0  0  0  0  0
  -23.6281   -8.2213   22.0754 C   0  0  0  0  0  0
  -22.4261   -8.0264   21.3545 C   0  0  0  0  0  0
  -21.9890   -9.0230   20.4648 C   0  0  0  0  0  0
  -22.7206  -10.2114   20.3074 C   0  0  0  0  0  0
  -21.6851   -6.0728   22.5286 C   0  0  0  0  0  0
  -21.4007   -6.5636   23.8218 C   0  0  0  0  0  0
  -21.3657   -5.6790   24.9182 C   0  0  0  0  0  0
  -21.6048   -4.3052   24.7235 C   0  0  0  0  0  0
  -21.8819   -3.8144   23.4358 C   0  0  0  0  0  0
  -21.9190   -4.6958   22.3411 C   0  0  0  0  0  0
  -22.7845  -13.5217   21.1850 C   0  0  0  0  0  0
  -22.1650   -4.2144   21.0989 F   0  0  0  0  0  0
  -21.5637   -3.4534   25.7747 F   0  0  0  0  0  0
  -30.0331  -13.3158   20.3913 N   0  0  0  0  0  0
  -26.2994  -12.9240   20.3419 N   0  0  0  0  0  0
  -25.9298  -11.6425   20.5859 N   0  0  0  0  0  0
  -22.0468  -12.8233   22.0409 N   0  0  0  0  0  0
  -25.4308  -15.1837   20.4119 N   0  0  0  0  0  0
  -31.9193  -14.5934   20.2372 O   0  0  0  0  0  0
  -21.6629   -6.8861   21.4243 O   0  0  0  0  0  0
  -22.3550  -14.5527   20.6688 O   0  0  0  0  0  0
  -24.6106  -31.8700   23.2103 C   0  0  0  0  0  0
  -25.9000  -32.4832   23.8404 C   0  0  1  0  0  0
  -27.2647  -27.4663   20.1094 C   0  0  0  0  0  0
  -25.5864  -33.8628   24.2342 N   0  0  0  0  0  0
  -23.3997  -30.4897   21.5488 C   0  0  2  0  0  0
  -24.8542  -28.9566   20.1181 C   0  0  0  0  0  0
  -22.7404  -29.4657   22.5002 C   0  0  0  0  0  0
  -18.0269  -28.1377   22.8489 C   0  0  0  0  0  0
  -24.1487  -36.7321   23.2642 C   0  0  0  0  0  0
  -25.9223  -30.8495   21.3561 C   0  0  0  0  0  0
  -26.0079  -29.4824   20.7115 C   0  0  0  0  0  0
  -27.2140  -28.7503   20.7051 C   0  0  0  0  0  0
  -26.0923  -26.9548   19.5119 C   0  0  0  0  0  0
  -24.8907  -27.6888   19.5117 C   0  0  0  0  0  0
  -23.6096  -29.8137   20.1654 C   0  0  0  0  0  0
  -25.4104  -36.3123   24.0350 C   0  0  1  0  0  0
  -20.5861  -28.3652   23.1329 C   0  0  2  0  0  0
  -20.6755  -26.9390   22.5423 C   0  0  0  0  0  0
  -19.5741  -26.6381   21.5211 C   0  0  0  0  0  0
  -18.1916  -26.7926   22.1614 C   0  0  0  0  0  0
  -19.1517  -28.8830   23.2909 C   0  0  0  0  0  0
  -18.9445  -30.1436   23.8923 C   0  0  0  0  0  0
  -17.6449  -30.6577   24.0560 C   0  0  0  0  0  0
  -25.9020  -34.9485   23.5143 C   0  0  0  0  0  0
  -16.5340  -29.9079   23.6316 C   0  0  0  0  0  0
  -16.7260  -28.6492   23.0342 C   0  0  0  0  0  0
  -26.4455  -31.6595   25.0709 C   0  0  0  0  0  0
  -25.3752  -31.3677   26.1472 C   0  0  0  0  0  0
  -27.0282  -30.3054   24.6028 C   0  0  0  0  0  0
  -27.6036  -32.4313   25.7467 C   0  0  0  0  0  0
  -27.5585  -37.1820   24.8468 C   0  0  0  0  0  0
  -21.4136  -29.3017   22.3739 N   0  0  0  0  0  0
  -26.4298  -37.3797   23.9407 N   0  0  0  0  0  0
  -24.6615  -31.0839   22.0979 N   0  0  0  0  0  0
  -23.4185  -28.8209   23.3042 O   0  0  0  0  0  0
  -28.3793  -26.6532   20.0617 O   0  0  0  0  0  0
  -26.5584  -34.8931   22.4714 O   0  0  0  0  0  0
  -23.5301  -32.1420   23.7516 O   0  0  0  0  0  0
  -29.9267  -23.5295   21.6618 C   0  0  0  0  0  0
  -30.2767  -24.4435   20.6384 C   0  0  0  0  0  0
  -29.7266  -21.8316   20.1085 C   0  0  0  0  0  0
  -30.1066  -22.7404   19.0785 C   0  0  0  0  0  0
  -29.9470  -17.5295   18.8338 C   0  0  0  0  0  0
  -30.7686  -26.9675   19.8942 C   0  0  0  0  0  0
  -29.7022  -16.0274   18.8997 C   0  0  0  0  0  0
  -30.1498  -16.8190   21.0883 C   0  0  0  0  0  0
  -30.5889  -25.8877   20.9476 C   0  0  1  0  0  0
  -29.5756  -17.9728   20.2383 C   0  0  1  0  0  0
  -29.5580  -26.9973   20.7921 C   0  0  2  0  0  0
  -29.2829  -20.3972   19.8170 C   0  0  0  0  0  0
  -29.6550  -22.2245   21.4068 N   0  0  0  0  0  0
  -30.3930  -24.0374   19.3502 N   0  0  0  0  0  0
  -29.9304  -15.5910   20.2950 N   0  0  0  0  0  0
  -30.0132  -19.3535   20.5808 N   0  3  0  0  0  0
  -30.2005  -22.2537   17.4222 Cl  0  0  0  0  0  0
  -31.4641  -12.3869   19.1015 H   0  0  0  0  0  0
  -30.3287  -11.2971   19.8558 H   0  0  0  0  0  0
  -29.7162  -11.6815   17.4558 H   0  0  0  0  0  0
  -29.6556  -13.4025   17.7098 H   0  0  0  0  0  0
  -27.8151  -11.2749   18.8407 H   0  0  0  0  0  0
  -27.3573  -12.5844   17.7879 H   0  0  0  0  0  0
  -27.6502  -14.2239   19.5297 H   0  0  0  0  0  0
  -28.6903  -12.0563   21.4180 H   0  0  0  0  0  0
  -28.5055  -13.7548   21.7938 H   0  0  0  0  0  0
  -25.2737   -9.5657   22.4774 H   0  0  0  0  0  0
  -23.9994   -7.4598   22.7464 H   0  0  0  0  0  0
  -21.0824   -8.8747   19.8954 H   0  0  0  0  0  0
  -22.3670  -10.9656   19.6189 H   0  0  0  0  0  0
  -21.1985   -7.6141   23.9721 H   0  0  0  0  0  0
  -21.1483   -6.0521   25.9083 H   0  0  0  0  0  0
  -22.0603   -2.7607   23.2869 H   0  0  0  0  0  0
  -22.4058  -11.9901   22.4833 H   0  0  0  0  0  0
  -21.1092  -13.1282   22.2590 H   0  0  0  0  0  0
  -24.6660  -15.8410   20.5247 H   0  0  0  0  0  0
  -26.2935  -15.6256   20.1204 H   0  0  0  0  0  0
  -26.7081  -32.5582   23.1191 H   0  0  0  0  0  0
  -25.0035  -33.9787   25.0495 H   0  0  0  0  0  0
  -22.6864  -31.3036   21.4058 H   0  0  0  0  0  0
  -23.3741  -35.9666   23.3334 H   0  0  0  0  0  0
  -24.3578  -36.8893   22.2048 H   0  0  0  0  0  0
  -23.7246  -37.6542   23.6625 H   0  0  0  0  0  0
  -26.0243  -31.6134   20.5829 H   0  0  0  0  0  0
  -26.8124  -30.9124   21.9698 H   0  0  0  0  0  0
  -28.0874  -29.1984   21.1533 H   0  0  0  0  0  0
  -26.1137  -25.9777   19.0493 H   0  0  0  0  0  0
  -24.0064  -27.2752   19.0479 H   0  0  0  0  0  0
  -23.7104  -30.5840   19.4001 H   0  0  0  0  0  0
  -22.7381  -29.2231   19.8764 H   0  0  0  0  0  0
  -25.1290  -36.1996   25.0845 H   0  0  0  0  0  0
  -20.9952  -28.3213   24.1450 H   0  0  0  0  0  0
  -20.5648  -26.2261   23.3608 H   0  0  0  0  0  0
  -21.6629  -26.7429   22.1221 H   0  0  0  0  0  0
  -19.6901  -25.6296   21.1220 H   0  0  0  0  0  0
  -19.6684  -27.3210   20.6759 H   0  0  0  0  0  0
  -17.4191  -26.6688   21.4002 H   0  0  0  0  0  0
  -18.0305  -26.0059   22.9004 H   0  0  0  0  0  0
  -19.7927  -30.7252   24.2294 H   0  0  0  0  0  0
  -17.4997  -31.6259   24.5165 H   0  0  0  0  0  0
  -15.5338  -30.2987   23.7621 H   0  0  0  0  0  0
  -15.8666  -28.0820   22.7044 H   0  0  0  0  0  0
  -24.5906  -30.7048   25.7816 H   0  0  0  0  0  0
  -24.8967  -32.2823   26.4986 H   0  0  0  0  0  0
  -25.8128  -30.8801   27.0191 H   0  0  0  0  0  0
  -26.2810  -29.6816   24.1109 H   0  0  0  0  0  0
  -27.4120  -29.7271   25.4442 H   0  0  0  0  0  0
  -27.8613  -30.4408   23.9124 H   0  0  0  0  0  0
  -27.2647  -33.3583   26.2112 H   0  0  0  0  0  0
  -28.3810  -32.6927   25.0274 H   0  0  0  0  0  0
  -28.0751  -31.8402   26.5327 H   0  0  0  0  0  0
  -28.2628  -38.0097   24.7493 H   0  0  0  0  0  0
  -28.1062  -36.2628   24.6329 H   0  0  0  0  0  0
  -27.2301  -37.1509   25.8873 H   0  0  0  0  0  0
  -20.9295  -29.8724   21.6954 H   0  0  0  0  0  0
  -26.0200  -38.2892   24.1380 H   0  0  0  0  0  0
  -29.8692  -23.8479   22.6924 H   0  0  0  0  0  0
  -29.3565  -18.0026   18.0483 H   0  0  0  0  0  0
  -31.0028  -17.7232   18.6308 H   0  0  0  0  0  0
  -30.6196  -26.7010   18.8502 H   0  0  0  0  0  0
  -31.5237  -27.7303   20.0752 H   0  0  0  0  0  0
  -30.3364  -15.5181   18.1712 H   0  0  0  0  0  0
  -28.6726  -15.8274   18.6102 H   0  0  0  0  0  0
  -29.6519  -16.7464   22.0560 H   0  0  0  0  0  0
  -31.2161  -16.9641   21.2739 H   0  0  0  0  0  0
  -31.2488  -25.9426   21.8117 H   0  0  0  0  0  0
  -28.4882  -17.9394   20.3374 H   0  0  0  0  0  0
  -29.4792  -27.7021   21.6153 H   0  0  0  0  0  0
  -29.3670  -20.1875   18.7537 H   0  0  0  0  0  0
  -28.2190  -20.3304   20.0480 H   0  0  0  0  0  0
  -30.9999  -19.4574   20.4127 H   0  0  0  0  0  0
  -29.8485  -19.5360   21.5583 H   0  0  0  0  0  0
  1 25  1  0  0  0
  1 30  2  0  0  0
  1 85  1  0  0  0
  2  3  1  0  0  0
  2 25  1  0  0  0
  2 88  1  0  0  0
  2 89  1  0  0  0
  3  4  1  0  0  0
  3 90  1  0  0  0
  3 91  1  0  0  0
  4  5  1  0  0  0
  4 92  1  0  0  0
  4 93  1  0  0  0
  5  6  1  0  0  0
  5 26  1  0  0  0
  5 94  1  0  0  0
  6 25  1  0  0  0
  6 95  1  0  0  0
  6 96  1  0  0  0
  7  8  2  0  0  0
  7 26  1  0  0  0
  7 29  1  0  0  0
  8  9  1  0  0  0
  8 22  1  0  0  0
  9 10  1  0  0  0
  9 27  2  0  0  0
 10 11  2  0  0  0
 10 15  1  0  0  0
 11 12  1  0  0  0
 11 97  1  0  0  0
 12 13  2  0  0  0
 12 98  1  0  0  0
 13 14  1  0  0  0
 13 31  1  0  0  0
 14 15  2  0  0  0
 14 99  1  0  0  0
 15100  1  0  0  0
 16 17  2  0  0  0
 16 21  1  0  0  0
 16 31  1  0  0  0
 17 18  1  0  0  0
 17101  1  0  0  0
 18 19  2  0  0  0
 18102  1  0  0  0
 19 20  1  0  0  0
 19 24  1  0  0  0
 20 21  2  0  0  0
 20103  1  0  0  0
 21 23  1  0  0  0
 22 28  1  0  0  0
 22 32  2  0  0  0
 26 27  1  0  0  0
 28104  1  0  0  0
 28105  1  0  0  0
 29106  1  0  0  0
 29107  1  0  0  0
 33 34  1  0  0  0
 33 66  1  0  0  0
 33 70  2  0  0  0
 34 36  1  0  0  0
 34 59  1  0  0  0
 34108  1  0  0  0
 35 44  2  0  0  0
 35 45  1  0  0  0
 35 68  1  0  0  0
 36 56  1  0  0  0
 36109  1  0  0  0
 37 39  1  0  0  0
 37 47  1  0  0  0
 37 66  1  0  0  0
 37110  1  0  0  0
 38 43  2  0  0  0
 38 46  1  0  0  0
 38 47  1  0  0  0
 39 64  1  0  0  0
 39 67  2  0  0  0
 40 52  1  0  0  0
 40 53  2  0  0  0
 40 58  1  0  0  0
 41111  1  0  0  0
 41112  1  0  0  0
 41113  1  0  0  0
 41 48  1  0  0  0
 42 43  1  0  0  0
 42 66  1  0  0  0
 42114  1  0  0  0
 42115  1  0  0  0
 43 44  1  0  0  0
 44116  1  0  0  0
 45 46  2  0  0  0
 45117  1  0  0  0
 46118  1  0  0  0
 47119  1  0  0  0
 47120  1  0  0  0
 48 56  1  0  0  0
 48 65  1  0  0  0
 48121  1  0  0  0
 49 50  1  0  0  0
 49 53  1  0  0  0
 49 64  1  0  0  0
 49122  1  0  0  0
 50 51  1  0  0  0
 50123  1  0  0  0
 50124  1  0  0  0
 51 52  1  0  0  0
 51125  1  0  0  0
 51126  1  0  0  0
 52127  1  0  0  0
 52128  1  0  0  0
 53 54  1  0  0  0
 54 55  2  0  0  0
 54129  1  0  0  0
 55 57  1  0  0  0
 55130  1  0  0  0
 56 69  2  0  0  0
 57 58  2  0  0  0
 57131  1  0  0  0
 58132  1  0  0  0
 59 60  1  0  0  0
 59 61  1  0  0  0
 59 62  1  0  0  0
 60133  1  0  0  0
 60134  1  0  0  0
 60135  1  0  0  0
 61136  1  0  0  0
 61137  1  0  0  0
 61138  1  0  0  0
 62139  1  0  0  0
 62140  1  0  0  0
 62141  1  0  0  0
 63 65  1  0  0  0
 63142  1  0  0  0
 63143  1  0  0  0
 63144  1  0  0  0
 64145  1  0  0  0
 65146  1  0  0  0
 68 81  1  0  0  0
 71 72  2  0  0  0
 71 83  1  0  0  0
 71147  1  0  0  0
 72 84  1  0  0  0
 72 79  1  0  0  0
 73 74  1  0  0  0
 73 82  1  0  0  0
 73 83  2  0  0  0
 74 84  2  0  0  0
 74 87  1  0  0  0
 75 77  1  0  0  0
 75 80  1  0  0  0
 75148  1  0  0  0
 75149  1  0  0  0
 76 79  1  0  0  0
 76 81  1  0  0  0
 76150  1  0  0  0
 76151  1  0  0  0
 77 85  1  0  0  0
 77152  1  0  0  0
 77153  1  0  0  0
 78 80  1  0  0  0
 78 85  1  0  0  0
 78154  1  0  0  0
 78155  1  0  0  0
 79 81  1  0  0  0
 79156  1  0  0  0
 80 86  1  0  0  0
 80157  1  0  0  0
 81158  1  0  0  0
 82 86  1  0  0  0
 82159  1  0  0  0
 82160  1  0  0  0
 86161  1  0  0  0
 86162  1  0  0  0
M  CHG  1  86   1
M  ISO  4   1 100  68 101  81 101  85 100
M  END
> <chiral flag>
0

> <version>
0

> <s_m_source_file>
/data/baiqing/PycharmProjects/Reinvent-master-3.2/result/LINK_invent/BTK/process_docking_weight1_custom_sum_contain_oxygen_bond_distance_aromatic_linkinvent_7_9_3/rearranged_h_0191.sdf

> <i_m_source_file_index>
54

> <r_mmod_Potential_Energy-OPLS-2005>
40.6217803955078

> <r_mmod_Stretch_Energy-OPLS-2005>
39.3597106933594

> <r_mmod_Bend_Energy-OPLS-2005>
144.684204101562

> <r_mmod_Torsional_Energy-OPLS-2005>
355.349609375

> <r_mmod_Improper_Torsional_Energy-OPLS-2005>
17.5510730743408

> <r_mmod_Van_der_Waal_Energy-OPLS-2005>
153.265548706055

> <r_mmod_Electrostatic_Energy-OPLS-2005>
-220.77946472168

> <r_mmod_Solvation_Energy-OPLS-2005>
-472.031585693359

> <b_mmod_Minimization_Converged-OPLS-2005>
0

> <r_mmod_RMS_Derivative-OPLS-2005>
1.68810272216797

$$$$
54
                    3D
 Structure written by MMmdl.
161171  0  0  1  0            999 V2000
  -30.6336  -14.6846   20.4708 C   0  0  0  0  0  0
  -30.4282  -12.4174   19.4660 C   0  0  0  0  0  0
  -29.5065  -12.5036   18.2301 C   0  0  0  0  0  0
  -28.0308  -12.3382   18.6423 C   0  0  0  0  0  0
  -27.6451  -13.2274   19.8550 C   0  0  2  0  0  0
  -28.6898  -13.1356   20.9894 C   0  0  0  0  0  0
  -25.2523  -13.8190   20.5691 C   0  0  0  0  0  0
  -24.1809  -13.0441   20.9205 C   0  0  0  0  0  0
  -24.6394  -11.6916   20.8747 C   0  0  0  0  0  0
  -23.9069  -10.4294   21.0408 C   0  0  0  0  0  0
  -24.3619   -9.4209   21.9185 C   0  0  0  0  0  0
  -23.6295   -8.2244   22.0754 C   0  0  0  0  0  0
  -22.4278   -8.0281   21.3544 C   0  0  0  0  0  0
  -21.9914   -9.0255   20.4646 C   0  0  0  0  0  0
  -22.7242  -10.2134   20.3056 C   0  0  0  0  0  0
  -21.6854   -6.0736   22.5277 C   0  0  0  0  0  0
  -21.4014   -6.5639   23.8211 C   0  0  0  0  0  0
  -21.3658   -5.6793   24.9174 C   0  0  0  0  0  0
  -21.6044   -4.3055   24.7224 C   0  0  0  0  0  0
  -21.8820   -3.8148   23.4346 C   0  0  0  0  0  0
  -21.9194   -4.6964   22.3402 C   0  0  0  0  0  0
  -22.7830  -13.5225   21.1863 C   0  0  0  0  0  0
  -22.1663   -4.2150   21.0980 F   0  0  0  0  0  0
  -21.5628   -3.4540   25.7738 F   0  0  0  0  0  0
  -29.9974  -13.4695   20.4117 N   0  0  0  0  0  0
  -26.2950  -12.9391   20.3296 N   0  0  0  0  0  0
  -25.9324  -11.6536   20.5757 N   0  0  0  0  0  0
  -22.0476  -12.8212   22.0416 N   0  0  0  0  0  0
  -25.4214  -15.1914   20.4095 N   0  0  0  0  0  0
  -31.8154  -14.7873   20.1331 O   0  0  0  0  0  0
  -21.6641   -6.8879   21.4240 O   0  0  0  0  0  0
  -22.3515  -14.5532   20.6713 O   0  0  0  0  0  0
  -24.6288  -31.8575   23.2000 C   0  0  0  0  0  0
  -25.9129  -32.4762   23.8337 C   0  0  1  0  0  0
  -27.2251  -27.2949   20.1080 C   0  0  0  0  0  0
  -25.5939  -33.8563   24.2268 N   0  0  0  0  0  0
  -23.4230  -30.4810   21.5433 C   0  0  2  0  0  0
  -24.8681  -28.9322   20.1086 C   0  0  0  0  0  0
  -22.7486  -29.4615   22.4925 C   0  0  0  0  0  0
  -18.0289  -28.1383   22.8487 C   0  0  0  0  0  0
  -24.1488  -36.7278   23.2639 C   0  0  0  0  0  0
  -25.9662  -30.7794   21.3744 C   0  0  0  0  0  0
  -26.0378  -29.4051   20.7147 C   0  0  0  0  0  0
  -27.2145  -28.5958   20.7086 C   0  0  0  0  0  0
  -26.0215  -26.8707   19.4983 C   0  0  0  0  0  0
  -24.8630  -27.6709   19.4946 C   0  0  0  0  0  0
  -23.6380  -29.8159   20.1584 C   0  0  0  0  0  0
  -25.4115  -36.3071   24.0328 C   0  0  1  0  0  0
  -20.5890  -28.3690   23.1277 C   0  0  2  0  0  0
  -20.6777  -26.9411   22.5410 C   0  0  0  0  0  0
  -19.5753  -26.6382   21.5212 C   0  0  0  0  0  0
  -18.1931  -26.7928   22.1620 C   0  0  0  0  0  0
  -19.1541  -28.8853   23.2878 C   0  0  0  0  0  0
  -18.9463  -30.1455   23.8895 C   0  0  0  0  0  0
  -17.6464  -30.6586   24.0560 C   0  0  0  0  0  0
  -25.9058  -34.9442   23.5098 C   0  0  0  0  0  0
  -16.5354  -29.9082   23.6332 C   0  0  0  0  0  0
  -16.7275  -28.6500   23.0355 C   0  0  0  0  0  0
  -26.4506  -31.6576   25.0715 C   0  0  0  0  0  0
  -25.3737  -31.3715   26.1441 C   0  0  0  0  0  0
  -27.0353  -30.2998   24.6182 C   0  0  0  0  0  0
  -27.6066  -32.4311   25.7486 C   0  0  0  0  0  0
  -27.5580  -37.1792   24.8464 C   0  0  0  0  0  0
  -21.4197  -29.3041   22.3669 N   0  0  0  0  0  0
  -26.4286  -37.3773   23.9416 N   0  0  0  0  0  0
  -24.6917  -31.0567   22.0958 N   0  0  0  0  0  0
  -23.4200  -28.8160   23.3016 O   0  0  0  0  0  0
  -28.3505  -26.4510   20.1864 O   0  0  0  0  0  0
  -26.5624  -34.8916   22.4664 O   0  0  0  0  0  0
  -23.5448  -32.1387   23.7317 O   0  0  0  0  0  0
  -28.1767  -21.4607   19.8112 C   0  0  0  0  0  0
  -29.8760  -23.3646   20.6986 C   0  0  0  0  0  0
  -28.7139  -23.7697   19.9742 C   0  0  0  0  0  0
  -29.3530  -21.0507   20.5077 C   0  0  0  0  0  0
  -31.4549  -24.3141   22.5664 C   0  0  0  0  0  0
  -30.5807  -25.4540   22.1169 C   0  0  0  0  0  0
  -31.0137  -17.8520   21.7237 C   0  0  0  0  0  0
  -30.9610  -19.3850   21.5319 C   0  0  0  0  0  0
  -29.2002  -18.3934   20.2554 C   0  0  0  0  0  0
  -30.9218  -24.3411   21.1487 C   0  0  0  0  0  0
  -30.2918  -17.2607   20.5048 C   0  0  2  0  0  0
  -28.5036  -25.2235   19.3615 C   0  0  0  0  0  0
  -27.8674  -22.7782   19.5507 N   0  0  0  0  0  0
  -30.1751  -22.0458   20.9551 N   0  0  0  0  0  0
  -29.7454  -19.6809   20.7774 N   0  0  0  0  0  0
  -29.8730  -15.8126   20.6935 N   0  0  0  0  0  0
  -31.4715  -12.5296   19.1655 H   0  0  0  0  0  0
  -30.3570  -11.4344   19.9341 H   0  0  0  0  0  0
  -29.7790  -11.7399   17.5006 H   0  0  0  0  0  0
  -29.6439  -13.4651   17.7329 H   0  0  0  0  0  0
  -27.8760  -11.2876   18.8909 H   0  0  0  0  0  0
  -27.3760  -12.5491   17.7959 H   0  0  0  0  0  0
  -27.6481  -14.2539   19.4884 H   0  0  0  0  0  0
  -28.7098  -12.1331   21.4191 H   0  0  0  0  0  0
  -28.4356  -13.8123   21.8068 H   0  0  0  0  0  0
  -25.2762   -9.5685   22.4761 H   0  0  0  0  0  0
  -24.0003   -7.4635   22.7475 H   0  0  0  0  0  0
  -21.0846   -8.8773   19.8951 H   0  0  0  0  0  0
  -22.3700  -10.9673   19.6165 H   0  0  0  0  0  0
  -21.2005   -7.6147   23.9714 H   0  0  0  0  0  0
  -21.1479   -6.0524   25.9076 H   0  0  0  0  0  0
  -22.0600   -2.7611   23.2847 H   0  0  0  0  0  0
  -22.4096  -11.9872   22.4798 H   0  0  0  0  0  0
  -21.1091  -13.1230   22.2622 H   0  0  0  0  0  0
  -24.6504  -15.8423   20.5131 H   0  0  0  0  0  0
  -26.2621  -15.6289   20.0557 H   0  0  0  0  0  0
  -26.7194  -32.5421   23.1079 H   0  0  0  0  0  0
  -25.0103  -33.9705   25.0425 H   0  0  0  0  0  0
  -22.7180  -31.3024   21.3994 H   0  0  0  0  0  0
  -23.3762  -35.9597   23.3283 H   0  0  0  0  0  0
  -24.3585  -36.8920   22.2058 H   0  0  0  0  0  0
  -23.7224  -37.6465   23.6676 H   0  0  0  0  0  0
  -26.1029  -31.5423   20.6068 H   0  0  0  0  0  0
  -26.8449  -30.8263   22.0061 H   0  0  0  0  0  0
  -28.1113  -28.9539   21.1945 H   0  0  0  0  0  0
  -25.9216  -25.8929   19.0550 H   0  0  0  0  0  0
  -23.9605  -27.2957   19.0317 H   0  0  0  0  0  0
  -23.7597  -30.5926   19.4024 H   0  0  0  0  0  0
  -22.7567  -29.2479   19.8548 H   0  0  0  0  0  0
  -25.1294  -36.1916   25.0820 H   0  0  0  0  0  0
  -20.9982  -28.3265   24.1398 H   0  0  0  0  0  0
  -20.5678  -26.2298   23.3612 H   0  0  0  0  0  0
  -21.6646  -26.7438   22.1204 H   0  0  0  0  0  0
  -19.6916  -25.6293   21.1242 H   0  0  0  0  0  0
  -19.6693  -27.3192   20.6742 H   0  0  0  0  0  0
  -17.4204  -26.6682   21.4017 H   0  0  0  0  0  0
  -18.0324  -26.0065   22.9010 H   0  0  0  0  0  0
  -19.7939  -30.7270   24.2264 H   0  0  0  0  0  0
  -17.5018  -31.6267   24.5159 H   0  0  0  0  0  0
  -15.5355  -30.2982   23.7661 H   0  0  0  0  0  0
  -15.8675  -28.0818   22.7074 H   0  0  0  0  0  0
  -24.5924  -30.7049   25.7772 H   0  0  0  0  0  0
  -24.8914  -32.2877   26.4856 H   0  0  0  0  0  0
  -25.8066  -30.8907   27.0222 H   0  0  0  0  0  0
  -26.2929  -29.6739   24.1217 H   0  0  0  0  0  0
  -27.4058  -29.7265   25.4691 H   0  0  0  0  0  0
  -27.8796  -30.4280   23.9404 H   0  0  0  0  0  0
  -27.2688  -33.3627   26.2037 H   0  0  0  0  0  0
  -28.3891  -32.6839   25.0319 H   0  0  0  0  0  0
  -28.0713  -31.8446   26.5422 H   0  0  0  0  0  0
  -28.2582  -38.0105   24.7535 H   0  0  0  0  0  0
  -28.1092  -36.2637   24.6258 H   0  0  0  0  0  0
  -27.2305  -37.1403   25.8868 H   0  0  0  0  0  0
  -20.9378  -29.8761   21.6875 H   0  0  0  0  0  0
  -26.0163  -38.2842   24.1431 H   0  0  0  0  0  0
  -27.4784  -20.7251   19.4394 H   0  0  0  0  0  0
  -31.0229  -23.5954   23.2604 H   0  0  0  0  0  0
  -32.5111  -24.5301   22.7139 H   0  0  0  0  0  0
  -31.0627  -26.4185   21.9701 H   0  0  0  0  0  0
  -29.5680  -25.4930   22.5143 H   0  0  0  0  0  0
  -30.4779  -17.5856   22.6362 H   0  0  0  0  0  0
  -32.0362  -17.4860   21.8266 H   0  0  0  0  0  0
  -31.8257  -19.7248   20.9593 H   0  0  0  0  0  0
  -30.9758  -19.9034   22.4923 H   0  0  0  0  0  0
  -28.2802  -18.1635   20.7948 H   0  0  0  0  0  0
  -28.9485  -18.4722   19.1966 H   0  0  0  0  0  0
  -31.6220  -24.5653   20.3459 H   0  0  0  0  0  0
  -30.9848  -17.2965   19.6614 H   0  0  0  0  0  0
  -27.7681  -25.1585   18.5639 H   0  0  0  0  0  0
  -29.4228  -25.4076   18.8052 H   0  0  0  0  0  0
  -28.9049  -15.6512   20.9260 H   0  0  0  0  0  0
  1 25  1  0  0  0
  1 30  2  0  0  0
  1 86  1  0  0  0
  2  3  1  0  0  0
  2 25  1  0  0  0
  2 87  1  0  0  0
  2 88  1  0  0  0
  3  4  1  0  0  0
  3 89  1  0  0  0
  3 90  1  0  0  0
  4  5  1  0  0  0
  4 91  1  0  0  0
  4 92  1  0  0  0
  5  6  1  0  0  0
  5 26  1  0  0  0
  5 93  1  0  0  0
  6 25  1  0  0  0
  6 94  1  0  0  0
  6 95  1  0  0  0
  7  8  2  0  0  0
  7 26  1  0  0  0
  7 29  1  0  0  0
  8  9  1  0  0  0
  8 22  1  0  0  0
  9 10  1  0  0  0
  9 27  2  0  0  0
 10 11  2  0  0  0
 10 15  1  0  0  0
 11 12  1  0  0  0
 11 96  1  0  0  0
 12 13  2  0  0  0
 12 97  1  0  0  0
 13 14  1  0  0  0
 13 31  1  0  0  0
 14 15  2  0  0  0
 14 98  1  0  0  0
 15 99  1  0  0  0
 16 17  2  0  0  0
 16 21  1  0  0  0
 16 31  1  0  0  0
 17 18  1  0  0  0
 17100  1  0  0  0
 18 19  2  0  0  0
 18101  1  0  0  0
 19 20  1  0  0  0
 19 24  1  0  0  0
 20 21  2  0  0  0
 20102  1  0  0  0
 21 23  1  0  0  0
 22 28  1  0  0  0
 22 32  2  0  0  0
 26 27  1  0  0  0
 28103  1  0  0  0
 28104  1  0  0  0
 29105  1  0  0  0
 29106  1  0  0  0
 33 34  1  0  0  0
 33 66  1  0  0  0
 33 70  2  0  0  0
 34 36  1  0  0  0
 34 59  1  0  0  0
 34107  1  0  0  0
 35 44  2  0  0  0
 35 45  1  0  0  0
 35 68  1  0  0  0
 36 56  1  0  0  0
 36108  1  0  0  0
 37 39  1  0  0  0
 37 47  1  0  0  0
 37 66  1  0  0  0
 37109  1  0  0  0
 38 43  2  0  0  0
 38 46  1  0  0  0
 38 47  1  0  0  0
 39 64  1  0  0  0
 39 67  2  0  0  0
 40 52  1  0  0  0
 40 53  2  0  0  0
 40 58  1  0  0  0
 41110  1  0  0  0
 41111  1  0  0  0
 41112  1  0  0  0
 41 48  1  0  0  0
 42 43  1  0  0  0
 42 66  1  0  0  0
 42113  1  0  0  0
 42114  1  0  0  0
 43 44  1  0  0  0
 44115  1  0  0  0
 45 46  2  0  0  0
 45116  1  0  0  0
 46117  1  0  0  0
 47118  1  0  0  0
 47119  1  0  0  0
 48 56  1  0  0  0
 48 65  1  0  0  0
 48120  1  0  0  0
 49 50  1  0  0  0
 49 53  1  0  0  0
 49 64  1  0  0  0
 49121  1  0  0  0
 50 51  1  0  0  0
 50122  1  0  0  0
 50123  1  0  0  0
 51 52  1  0  0  0
 51124  1  0  0  0
 51125  1  0  0  0
 52126  1  0  0  0
 52127  1  0  0  0
 53 54  1  0  0  0
 54 55  2  0  0  0
 54128  1  0  0  0
 55 57  1  0  0  0
 55129  1  0  0  0
 56 69  2  0  0  0
 57 58  2  0  0  0
 57130  1  0  0  0
 58131  1  0  0  0
 59 60  1  0  0  0
 59 61  1  0  0  0
 59 62  1  0  0  0
 60132  1  0  0  0
 60133  1  0  0  0
 60134  1  0  0  0
 61135  1  0  0  0
 61136  1  0  0  0
 61137  1  0  0  0
 62138  1  0  0  0
 62139  1  0  0  0
 62140  1  0  0  0
 63 65  1  0  0  0
 63141  1  0  0  0
 63142  1  0  0  0
 63143  1  0  0  0
 64144  1  0  0  0
 65145  1  0  0  0
 68 82  1  0  0  0
 71 74  2  0  0  0
 71 83  1  0  0  0
 71146  1  0  0  0
 72 73  1  0  0  0
 72 84  2  0  0  0
 72 80  1  0  0  0
 73 82  1  0  0  0
 73 83  2  0  0  0
 74 84  1  0  0  0
 74 85  1  0  0  0
 75 76  1  0  0  0
 75 80  1  0  0  0
 75147  1  0  0  0
 75148  1  0  0  0
 76 80  1  0  0  0
 76149  1  0  0  0
 76150  1  0  0  0
 77 78  1  0  0  0
 77 81  1  0  0  0
 77151  1  0  0  0
 77152  1  0  0  0
 78 85  1  0  0  0
 78153  1  0  0  0
 78154  1  0  0  0
 79 81  1  0  0  0
 79 85  1  0  0  0
 79155  1  0  0  0
 79156  1  0  0  0
 80157  1  0  0  0
 81 86  1  0  0  0
 81158  1  0  0  0
 82159  1  0  0  0
 82160  1  0  0  0
 86161  1  0  0  0
M  ISO  4   1 100  68 101  82 101  86 100
M  END
> <chiral flag>
0

> <version>
0

> <s_m_source_file>
/data/baiqing/PycharmProjects/Reinvent-master-3.2/result/LINK_invent/BTK/process_docking_weight1_custom_sum_contain_oxygen_bond_distance_aromatic_linkinvent_7_9_3/rearranged_h_0191.sdf

> <i_m_source_file_index>
55

> <r_mmod_Potential_Energy-OPLS-2005>
227.436416625977

> <r_mmod_Stretch_Energy-OPLS-2005>
94.5161285400391

> <r_mmod_Bend_Energy-OPLS-2005>
206.740798950195

> <r_mmod_Torsional_Energy-OPLS-2005>
273.310241699219

> <r_mmod_Improper_Torsional_Energy-OPLS-2005>
7.32041168212891

> <r_mmod_Van_der_Waal_Energy-OPLS-2005>
138.313339233398

> <r_mmod_Electrostatic_Energy-OPLS-2005>
-315.606567382812

> <r_mmod_Solvation_Energy-OPLS-2005>
-239.930084228516

> <b_mmod_Minimization_Converged-OPLS-2005>
0

> <r_mmod_RMS_Derivative-OPLS-2005>
0.255558550357819

$$$$
55
                    3D
 Structure written by MMmdl.
153162  0  0  1  0            999 V2000
  -30.6344  -14.9094   20.4221 C   0  0  0  0  0  0
  -30.4119  -12.5776   19.4866 C   0  0  0  0  0  0
  -29.5039  -12.5190   18.2417 C   0  0  0  0  0  0
  -28.0398  -12.3123   18.6667 C   0  0  0  0  0  0
  -27.6184  -13.2563   19.8244 C   0  0  2  0  0  0
  -28.6650  -13.3246   20.9567 C   0  0  0  0  0  0
  -25.2407  -13.8232   20.5726 C   0  0  0  0  0  0
  -24.1743  -13.0449   20.9240 C   0  0  0  0  0  0
  -24.6369  -11.6931   20.8757 C   0  0  0  0  0  0
  -23.9063  -10.4292   21.0390 C   0  0  0  0  0  0
  -24.3609   -9.4211   21.9175 C   0  0  0  0  0  0
  -23.6288   -8.2242   22.0749 C   0  0  0  0  0  0
  -22.4268   -8.0273   21.3542 C   0  0  0  0  0  0
  -21.9905   -9.0241   20.4636 C   0  0  0  0  0  0
  -22.7230  -10.2125   20.3045 C   0  0  0  0  0  0
  -21.6851   -6.0722   22.5272 C   0  0  0  0  0  0
  -21.4018   -6.5626   23.8210 C   0  0  0  0  0  0
  -21.3671   -5.6780   24.9173 C   0  0  0  0  0  0
  -21.6043   -4.3042   24.7220 C   0  0  0  0  0  0
  -21.8822   -3.8136   23.4344 C   0  0  0  0  0  0
  -21.9191   -4.6952   22.3397 C   0  0  0  0  0  0
  -22.7763  -13.5207   21.1892 C   0  0  0  0  0  0
  -22.1657   -4.2130   21.0979 F   0  0  0  0  0  0
  -21.5634   -3.4532   25.7738 F   0  0  0  0  0  0
  -29.9357  -13.7082   20.3349 N   0  0  0  0  0  0
  -26.2826  -12.9485   20.3217 N   0  0  0  0  0  0
  -25.9297  -11.6601   20.5723 N   0  0  0  0  0  0
  -22.0425  -12.8184   22.0441 N   0  0  0  0  0  0
  -25.4063  -15.1963   20.4156 N   0  0  0  0  0  0
  -31.8487  -14.8538   20.2119 O   0  0  0  0  0  0
  -21.6643   -6.8865   21.4235 O   0  0  0  0  0  0
  -22.3438  -14.5505   20.6730 O   0  0  0  0  0  0
  -24.6396  -31.8474   23.1891 C   0  0  0  0  0  0
  -25.9171  -32.4711   23.8277 C   0  0  1  0  0  0
  -27.2105  -27.1597   20.1499 C   0  0  0  0  0  0
  -25.5942  -33.8522   24.2196 N   0  0  0  0  0  0
  -23.4422  -30.4684   21.5350 C   0  0  2  0  0  0
  -24.8898  -28.8960   20.1138 C   0  0  0  0  0  0
  -22.7540  -29.4576   22.4858 C   0  0  0  0  0  0
  -18.0296  -28.1415   22.8467 C   0  0  0  0  0  0
  -24.1494  -36.7280   23.2639 C   0  0  0  0  0  0
  -25.9973  -30.7252   21.3855 C   0  0  0  0  0  0
  -26.0672  -29.3384   20.7307 C   0  0  0  0  0  0
  -27.2330  -28.4879   20.7289 C   0  0  0  0  0  0
  -26.0116  -26.8159   19.4888 C   0  0  0  0  0  0
  -24.8727  -27.6457   19.4786 C   0  0  0  0  0  0
  -23.6663  -29.7964   20.1556 C   0  0  0  0  0  0
  -25.4119  -36.3043   24.0308 C   0  0  1  0  0  0
  -20.5907  -28.3751   23.1230 C   0  0  2  0  0  0
  -20.6805  -26.9463   22.5396 C   0  0  0  0  0  0
  -19.5776  -26.6399   21.5211 C   0  0  0  0  0  0
  -18.1950  -26.7950   22.1609 C   0  0  0  0  0  0
  -19.1552  -28.8894   23.2844 C   0  0  0  0  0  0
  -18.9474  -30.1487   23.8881 C   0  0  0  0  0  0
  -17.6480  -30.6617   24.0556 C   0  0  0  0  0  0
  -25.9072  -34.9421   23.5061 C   0  0  0  0  0  0
  -16.5365  -29.9117   23.6343 C   0  0  0  0  0  0
  -16.7279  -28.6534   23.0361 C   0  0  0  0  0  0
  -26.4507  -31.6582   25.0708 C   0  0  0  0  0  0
  -25.3679  -31.3773   26.1396 C   0  0  0  0  0  0
  -27.0385  -30.2982   24.6289 C   0  0  0  0  0  0
  -27.6035  -32.4366   25.7471 C   0  0  0  0  0  0
  -27.5593  -37.1769   24.8438 C   0  0  0  0  0  0
  -21.4236  -29.3075   22.3591 N   0  0  0  0  0  0
  -26.4280  -37.3760   23.9416 N   0  0  0  0  0  0
  -24.7131  -31.0339   22.0918 N   0  0  0  0  0  0
  -23.4181  -28.8117   23.3002 O   0  0  0  0  0  0
  -28.2604  -26.1808   20.1674 O   0  0  0  0  0  0
  -26.5668  -34.8907   22.4647 O   0  0  0  0  0  0
  -23.5514  -32.1358   23.7119 O   0  0  0  0  0  0
  -29.4404  -23.4014   18.8730 C   0  0  0  0  0  0
  -28.7008  -23.3680   20.0622 C   0  0  0  0  0  0
  -29.9948  -22.2029   18.3745 C   0  0  0  0  0  0
  -29.1535  -20.9534   20.1170 C   0  0  0  0  0  0
  -30.7460  -17.5564   20.6170 C   0  0  0  0  0  0
  -28.7592  -16.9492   20.5698 C   0  0  0  0  0  0
  -29.4575  -18.3214   20.1355 C   0  0  0  0  0  0
  -27.9549  -24.7250   20.6037 C   0  0  0  0  0  0
  -30.8123  -22.2001   17.0914 C   0  0  0  0  0  0
  -28.5810  -22.0939   20.6653 N   0  0  0  0  0  0
  -29.8513  -21.0033   18.9942 N   0  0  0  0  0  0
  -30.0654  -16.2131   20.5242 N   0  0  0  0  0  0
  -29.0243  -19.6770   20.7354 O   0  0  0  0  0  0
  -30.4417  -21.2006   16.2877 F   0  0  0  0  0  0
  -32.1127  -22.0861   17.3665 F   0  0  0  0  0  0
  -31.4501  -12.6933   19.1740 H   0  0  0  0  0  0
  -30.3734  -11.6392   20.0411 H   0  0  0  0  0  0
  -29.8199  -11.7135   17.5763 H   0  0  0  0  0  0
  -29.5962  -13.4456   17.6726 H   0  0  0  0  0  0
  -27.9367  -11.2743   18.9853 H   0  0  0  0  0  0
  -27.3736  -12.4359   17.8109 H   0  0  0  0  0  0
  -27.5689  -14.2491   19.3783 H   0  0  0  0  0  0
  -28.7514  -12.3677   21.4750 H   0  0  0  0  0  0
  -28.3726  -14.0644   21.7025 H   0  0  0  0  0  0
  -25.2747   -9.5701   22.4748 H   0  0  0  0  0  0
  -24.0001   -7.4639   22.7476 H   0  0  0  0  0  0
  -21.0839   -8.8748   19.8938 H   0  0  0  0  0  0
  -22.3674  -10.9657   19.6151 H   0  0  0  0  0  0
  -21.2011   -7.6137   23.9702 H   0  0  0  0  0  0
  -21.1494   -6.0514   25.9070 H   0  0  0  0  0  0
  -22.0587   -2.7593   23.2849 H   0  0  0  0  0  0
  -22.4053  -11.9852   22.4841 H   0  0  0  0  0  0
  -21.1028  -13.1178   22.2635 H   0  0  0  0  0  0
  -24.6383  -15.8500   20.5261 H   0  0  0  0  0  0
  -26.2527  -15.6324   20.0770 H   0  0  0  0  0  0
  -26.7220  -32.5297   23.0991 H   0  0  0  0  0  0
  -25.0045  -33.9662   25.0309 H   0  0  0  0  0  0
  -22.7411  -31.2913   21.3810 H   0  0  0  0  0  0
  -23.3770  -35.9593   23.3218 H   0  0  0  0  0  0
  -24.3610  -36.9018   22.2077 H   0  0  0  0  0  0
  -23.7221  -37.6432   23.6746 H   0  0  0  0  0  0
  -26.1479  -31.4744   20.6079 H   0  0  0  0  0  0
  -26.8717  -30.7771   22.0223 H   0  0  0  0  0  0
  -28.1340  -28.8246   21.2221 H   0  0  0  0  0  0
  -25.9370  -25.8656   18.9804 H   0  0  0  0  0  0
  -23.9752  -27.3045   18.9804 H   0  0  0  0  0  0
  -23.7964  -30.5690   19.3966 H   0  0  0  0  0  0
  -22.7800  -29.2368   19.8510 H   0  0  0  0  0  0
  -25.1293  -36.1875   25.0798 H   0  0  0  0  0  0
  -20.9990  -28.3376   24.1350 H   0  0  0  0  0  0
  -20.5748  -26.2366   23.3614 H   0  0  0  0  0  0
  -21.6669  -26.7521   22.1175 H   0  0  0  0  0  0
  -19.6967  -25.6304   21.1273 H   0  0  0  0  0  0
  -19.6732  -27.3166   20.6706 H   0  0  0  0  0  0
  -17.4232  -26.6689   21.4006 H   0  0  0  0  0  0
  -18.0346  -26.0107   22.9019 H   0  0  0  0  0  0
  -19.7952  -30.7299   24.2258 H   0  0  0  0  0  0
  -17.5042  -31.6291   24.5167 H   0  0  0  0  0  0
  -15.5370  -30.3024   23.7707 H   0  0  0  0  0  0
  -15.8665  -28.0860   22.7102 H   0  0  0  0  0  0
  -24.5821  -30.7184   25.7685 H   0  0  0  0  0  0
  -24.8895  -32.2960   26.4799 H   0  0  0  0  0  0
  -25.7936  -30.8923   27.0186 H   0  0  0  0  0  0
  -26.3019  -29.6669   24.1304 H   0  0  0  0  0  0
  -27.4017  -29.7316   25.4871 H   0  0  0  0  0  0
  -27.8908  -30.4229   23.9605 H   0  0  0  0  0  0
  -27.2652  -33.3723   26.1939 H   0  0  0  0  0  0
  -28.3884  -32.6856   25.0312 H   0  0  0  0  0  0
  -28.0650  -31.8556   26.5463 H   0  0  0  0  0  0
  -28.2512  -38.0164   24.7612 H   0  0  0  0  0  0
  -28.1204  -36.2695   24.6121 H   0  0  0  0  0  0
  -27.2330  -37.1229   25.8842 H   0  0  0  0  0  0
  -20.9433  -29.8784   21.6778 H   0  0  0  0  0  0
  -26.0141  -38.2812   24.1492 H   0  0  0  0  0  0
  -29.5657  -24.3383   18.3455 H   0  0  0  0  0  0
  -31.0395  -17.8183   21.6347 H   0  0  0  0  0  0
  -31.5928  -17.6801   19.9394 H   0  0  0  0  0  0
  -28.0227  -16.6009   19.8464 H   0  0  0  0  0  0
  -28.3252  -16.9894   21.5694 H   0  0  0  0  0  0
  -29.4544  -18.3876   19.0462 H   0  0  0  0  0  0
  -28.0977  -24.7216   21.6849 H   0  0  0  0  0  0
  -26.8904  -24.5303   20.4832 H   0  0  0  0  0  0
  -30.6737  -23.1253   16.5321 H   0  0  0  0  0  0
  1 25  1  0  0  0
  1 30  2  0  0  0
  1 82  1  0  0  0
  2  3  1  0  0  0
  2 25  1  0  0  0
  2 86  1  0  0  0
  2 87  1  0  0  0
  3  4  1  0  0  0
  3 88  1  0  0  0
  3 89  1  0  0  0
  4  5  1  0  0  0
  4 90  1  0  0  0
  4 91  1  0  0  0
  5  6  1  0  0  0
  5 26  1  0  0  0
  5 92  1  0  0  0
  6 25  1  0  0  0
  6 93  1  0  0  0
  6 94  1  0  0  0
  7  8  2  0  0  0
  7 26  1  0  0  0
  7 29  1  0  0  0
  8  9  1  0  0  0
  8 22  1  0  0  0
  9 10  1  0  0  0
  9 27  2  0  0  0
 10 11  2  0  0  0
 10 15  1  0  0  0
 11 12  1  0  0  0
 11 95  1  0  0  0
 12 13  2  0  0  0
 12 96  1  0  0  0
 13 14  1  0  0  0
 13 31  1  0  0  0
 14 15  2  0  0  0
 14 97  1  0  0  0
 15 98  1  0  0  0
 16 17  2  0  0  0
 16 21  1  0  0  0
 16 31  1  0  0  0
 17 18  1  0  0  0
 17 99  1  0  0  0
 18 19  2  0  0  0
 18100  1  0  0  0
 19 20  1  0  0  0
 19 24  1  0  0  0
 20 21  2  0  0  0
 20101  1  0  0  0
 21 23  1  0  0  0
 22 28  1  0  0  0
 22 32  2  0  0  0
 26 27  1  0  0  0
 28102  1  0  0  0
 28103  1  0  0  0
 29104  1  0  0  0
 29105  1  0  0  0
 33 34  1  0  0  0
 33 66  1  0  0  0
 33 70  2  0  0  0
 34 36  1  0  0  0
 34 59  1  0  0  0
 34106  1  0  0  0
 35 44  2  0  0  0
 35 45  1  0  0  0
 35 68  1  0  0  0
 36 56  1  0  0  0
 36107  1  0  0  0
 37 39  1  0  0  0
 37 47  1  0  0  0
 37 66  1  0  0  0
 37108  1  0  0  0
 38 43  2  0  0  0
 38 46  1  0  0  0
 38 47  1  0  0  0
 39 64  1  0  0  0
 39 67  2  0  0  0
 40 52  1  0  0  0
 40 53  2  0  0  0
 40 58  1  0  0  0
 41109  1  0  0  0
 41110  1  0  0  0
 41111  1  0  0  0
 41 48  1  0  0  0
 42 43  1  0  0  0
 42 66  1  0  0  0
 42112  1  0  0  0
 42113  1  0  0  0
 43 44  1  0  0  0
 44114  1  0  0  0
 45 46  2  0  0  0
 45115  1  0  0  0
 46116  1  0  0  0
 47117  1  0  0  0
 47118  1  0  0  0
 48 56  1  0  0  0
 48 65  1  0  0  0
 48119  1  0  0  0
 49 50  1  0  0  0
 49 53  1  0  0  0
 49 64  1  0  0  0
 49120  1  0  0  0
 50 51  1  0  0  0
 50121  1  0  0  0
 50122  1  0  0  0
 51 52  1  0  0  0
 51123  1  0  0  0
 51124  1  0  0  0
 52125  1  0  0  0
 52126  1  0  0  0
 53 54  1  0  0  0
 54 55  2  0  0  0
 54127  1  0  0  0
 55 57  1  0  0  0
 55128  1  0  0  0
 56 69  2  0  0  0
 57 58  2  0  0  0
 57129  1  0  0  0
 58130  1  0  0  0
 59 60  1  0  0  0
 59 61  1  0  0  0
 59 62  1  0  0  0
 60131  1  0  0  0
 60132  1  0  0  0
 60133  1  0  0  0
 61134  1  0  0  0
 61135  1  0  0  0
 61136  1  0  0  0
 62137  1  0  0  0
 62138  1  0  0  0
 62139  1  0  0  0
 63 65  1  0  0  0
 63140  1  0  0  0
 63141  1  0  0  0
 63142  1  0  0  0
 64143  1  0  0  0
 65144  1  0  0  0
 68 78  1  0  0  0
 71 72  2  0  0  0
 71 73  1  0  0  0
 71145  1  0  0  0
 72 78  1  0  0  0
 72 80  1  0  0  0
 73 79  1  0  0  0
 73 81  2  0  0  0
 74 80  2  0  0  0
 74 81  1  0  0  0
 74 83  1  0  0  0
 75 77  1  0  0  0
 75 82  1  0  0  0
 75146  1  0  0  0
 75147  1  0  0  0
 76 77  1  0  0  0
 76 82  1  0  0  0
 76148  1  0  0  0
 76149  1  0  0  0
 77 83  1  0  0  0
 77150  1  0  0  0
 78151  1  0  0  0
 78152  1  0  0  0
 79 84  1  0  0  0
 79 85  1  0  0  0
 79153  1  0  0  0
M  ISO  4   1 100  68 101  78 101  82 100
M  END
> <chiral flag>
0

> <version>
0

> <s_m_source_file>
/data/baiqing/PycharmProjects/Reinvent-master-3.2/result/LINK_invent/BTK/process_docking_weight1_custom_sum_contain_oxygen_bond_distance_aromatic_linkinvent_7_9_3/rearranged_h_0191.sdf

> <i_m_source_file_index>
56

> <r_mmod_Potential_Energy-OPLS-2005>
56.4257469177246

> <r_mmod_Stretch_Energy-OPLS-2005>
199.782592773438

> <r_mmod_Bend_Energy-OPLS-2005>
278.652374267578

> <r_mmod_Torsional_Energy-OPLS-2005>
275.363464355469

> <r_mmod_Improper_Torsional_Energy-OPLS-2005>
4.38940048217773

> <r_mmod_Van_der_Waal_Energy-OPLS-2005>
135.994995117188

> <r_mmod_Electrostatic_Energy-OPLS-2005>
-775.406616210938

> <r_mmod_Solvation_Energy-OPLS-2005>
-236.676971435547

> <b_mmod_Minimization_Converged-OPLS-2005>
0

> <r_mmod_RMS_Derivative-OPLS-2005>
2.07098793983459

$$$$
56
                    3D
 Structure written by MMmdl.
159168  0  0  1  0            999 V2000
  -30.7020  -14.4890   20.5596 C   0  0  0  0  0  0
  -30.4220  -12.3156   19.4230 C   0  0  0  0  0  0
  -29.4929  -12.5084   18.2059 C   0  0  0  0  0  0
  -28.0118  -12.3726   18.6156 C   0  0  0  0  0  0
  -27.6603  -13.2060   19.8777 C   0  0  2  0  0  0
  -28.7051  -12.9687   20.9900 C   0  0  0  0  0  0
  -25.2589  -13.8155   20.5690 C   0  0  0  0  0  0
  -24.1836  -13.0436   20.9174 C   0  0  0  0  0  0
  -24.6389  -11.6900   20.8739 C   0  0  0  0  0  0
  -23.9055  -10.4288   21.0405 C   0  0  0  0  0  0
  -24.3608   -9.4205   21.9184 C   0  0  0  0  0  0
  -23.6287   -8.2241   22.0755 C   0  0  0  0  0  0
  -22.4271   -8.0277   21.3541 C   0  0  0  0  0  0
  -21.9901   -9.0251   20.4646 C   0  0  0  0  0  0
  -22.7226  -10.2133   20.3054 C   0  0  0  0  0  0
  -21.6851   -6.0735   22.5277 C   0  0  0  0  0  0
  -21.4011   -6.5640   23.8209 C   0  0  0  0  0  0
  -21.3660   -5.6793   24.9173 C   0  0  0  0  0  0
  -21.6044   -4.3055   24.7222 C   0  0  0  0  0  0
  -21.8818   -3.8146   23.4344 C   0  0  0  0  0  0
  -21.9192   -4.6963   22.3400 C   0  0  0  0  0  0
  -22.7860  -13.5241   21.1835 C   0  0  0  0  0  0
  -22.1659   -4.2146   21.0978 F   0  0  0  0  0  0
  -21.5631   -3.4539   25.7737 F   0  0  0  0  0  0
  -30.0255  -13.3088   20.4372 N   0  0  0  0  0  0
  -26.3022  -12.9324   20.3389 N   0  0  0  0  0  0
  -25.9315  -11.6482   20.5771 N   0  0  0  0  0  0
  -22.0504  -12.8237   22.0397 N   0  0  0  0  0  0
  -25.4331  -15.1874   20.4109 N   0  0  0  0  0  0
  -31.8490  -14.6175   20.1166 O   0  0  0  0  0  0
  -21.6636   -6.8875   21.4238 O   0  0  0  0  0  0
  -22.3542  -14.5546   20.6682 O   0  0  0  0  0  0
  -24.6159  -31.8666   23.2084 C   0  0  0  0  0  0
  -25.9044  -32.4816   23.8384 C   0  0  1  0  0  0
  -27.2339  -27.4316   20.0987 C   0  0  0  0  0  0
  -25.5904  -33.8614   24.2319 N   0  0  0  0  0  0
  -23.4052  -30.4899   21.5478 C   0  0  2  0  0  0
  -24.8531  -28.9543   20.1130 C   0  0  0  0  0  0
  -22.7413  -29.4662   22.4971 C   0  0  0  0  0  0
  -18.0273  -28.1381   22.8492 C   0  0  0  0  0  0
  -24.1494  -36.7324   23.2638 C   0  0  0  0  0  0
  -25.9339  -30.8318   21.3622 C   0  0  0  0  0  0
  -26.0131  -29.4655   20.7108 C   0  0  0  0  0  0
  -27.2099  -28.7116   20.6994 C   0  0  0  0  0  0
  -26.0620  -26.9359   19.4919 C   0  0  0  0  0  0
  -24.8720  -27.6885   19.4998 C   0  0  0  0  0  0
  -23.6145  -29.8208   20.1629 C   0  0  0  0  0  0
  -25.4114  -36.3106   24.0331 C   0  0  1  0  0  0
  -20.5863  -28.3676   23.1311 C   0  0  2  0  0  0
  -20.6768  -26.9410   22.5416 C   0  0  0  0  0  0
  -19.5749  -26.6389   21.5214 C   0  0  0  0  0  0
  -18.1924  -26.7929   22.1621 C   0  0  0  0  0  0
  -19.1521  -28.8844   23.2905 C   0  0  0  0  0  0
  -18.9452  -30.1449   23.8916 C   0  0  0  0  0  0
  -17.6452  -30.6586   24.0567 C   0  0  0  0  0  0
  -25.9040  -34.9469   23.5120 C   0  0  0  0  0  0
  -16.5345  -29.9092   23.6317 C   0  0  0  0  0  0
  -16.7261  -28.6509   23.0340 C   0  0  0  0  0  0
  -26.4469  -31.6591   25.0711 C   0  0  0  0  0  0
  -25.3739  -31.3691   26.1463 C   0  0  0  0  0  0
  -27.0296  -30.3032   24.6085 C   0  0  0  0  0  0
  -27.6045  -32.4305   25.7473 C   0  0  0  0  0  0
  -27.5585  -37.1812   24.8462 C   0  0  0  0  0  0
  -21.4138  -29.3044   22.3714 N   0  0  0  0  0  0
  -26.4302  -37.3791   23.9398 N   0  0  0  0  0  0
  -24.6695  -31.0779   22.0975 N   0  0  0  0  0  0
  -23.4181  -28.8210   23.3017 O   0  0  0  0  0  0
  -28.3711  -26.6542   20.0992 O   0  0  0  0  0  0
  -26.5603  -34.8922   22.4683 O   0  0  0  0  0  0
  -23.5349  -32.1412   23.7477 O   0  0  0  0  0  0
  -29.8863  -20.6668   17.6216 C   0  0  0  0  0  0
  -29.3467  -21.9400   17.8665 C   0  0  0  0  0  0
  -29.1199  -22.2659   19.2117 C   0  0  0  0  0  0
  -29.8922  -20.2037   19.8475 C   0  0  0  0  0  0
  -29.4709  -17.4181   22.3030 C   0  0  0  0  0  0
  -29.2950  -15.9136   22.0727 C   0  0  0  0  0  0
  -30.2333  -16.8830   20.1106 C   0  0  0  0  0  0
  -29.5234  -18.0036   20.8969 C   0  0  2  0  0  0
  -29.1702  -24.3241   20.5704 C   0  0  0  0  0  0
  -28.2883  -25.5269   20.9879 C   0  0  0  0  0  0
  -30.1611  -19.7990   18.6183 N   0  0  0  0  0  0
  -29.3945  -21.3885   20.2072 N   0  0  0  0  0  0
  -29.9568  -15.6052   20.8002 N   0  0  0  0  0  0
  -28.5532  -23.5141   19.5211 N   0  0  0  0  0  0
  -30.1929  -19.3090   20.8545 N   0  0  0  0  0  0
  -28.9888  -23.0344   16.5744 Cl  0  0  0  0  0  0
  -31.4656  -12.4115   19.1182 H   0  0  0  0  0  0
  -30.3274  -11.3049   19.8232 H   0  0  0  0  0  0
  -29.7337  -11.7841   17.4269 H   0  0  0  0  0  0
  -29.6605  -13.4933   17.7679 H   0  0  0  0  0  0
  -27.8147  -11.3162   18.8032 H   0  0  0  0  0  0
  -27.3640  -12.6560   17.7852 H   0  0  0  0  0  0
  -27.7059  -14.2561   19.5894 H   0  0  0  0  0  0
  -28.6948  -11.9203   21.2907 H   0  0  0  0  0  0
  -28.4633  -13.5123   21.8989 H   0  0  0  0  0  0
  -25.2754   -9.5682   22.4755 H   0  0  0  0  0  0
  -23.9995   -7.4633   22.7473 H   0  0  0  0  0  0
  -21.0832   -8.8767   19.8953 H   0  0  0  0  0  0
  -22.3683  -10.9671   19.6161 H   0  0  0  0  0  0
  -21.2002   -7.6147   23.9710 H   0  0  0  0  0  0
  -21.1482   -6.0525   25.9075 H   0  0  0  0  0  0
  -22.0600   -2.7607   23.2844 H   0  0  0  0  0  0
  -22.4110  -11.9891   22.4771 H   0  0  0  0  0  0
  -21.1128  -13.1269   22.2612 H   0  0  0  0  0  0
  -24.6714  -15.8475   20.5245 H   0  0  0  0  0  0
  -26.2942  -15.6241   20.1079 H   0  0  0  0  0  0
  -26.7117  -32.5521   23.1151 H   0  0  0  0  0  0
  -25.0050  -33.9777   25.0461 H   0  0  0  0  0  0
  -22.6950  -31.3066   21.4060 H   0  0  0  0  0  0
  -23.3741  -35.9673   23.3306 H   0  0  0  0  0  0
  -24.3594  -36.8936   22.2055 H   0  0  0  0  0  0
  -23.7262  -37.6536   23.6654 H   0  0  0  0  0  0
  -26.0476  -31.5947   20.5906 H   0  0  0  0  0  0
  -26.8221  -30.8861   21.9798 H   0  0  0  0  0  0
  -28.1056  -29.0985   21.1647 H   0  0  0  0  0  0
  -26.0698  -25.9625   19.0211 H   0  0  0  0  0  0
  -23.9814  -27.2886   19.0354 H   0  0  0  0  0  0
  -23.7239  -30.5941   19.4018 H   0  0  0  0  0  0
  -22.7393  -29.2405   19.8665 H   0  0  0  0  0  0
  -25.1291  -36.1968   25.0825 H   0  0  0  0  0  0
  -20.9961  -28.3244   24.1430 H   0  0  0  0  0  0
  -20.5684  -26.2283   23.3606 H   0  0  0  0  0  0
  -21.6640  -26.7464   22.1200 H   0  0  0  0  0  0
  -19.6916  -25.6307   21.1235 H   0  0  0  0  0  0
  -19.6687  -27.3208   20.6754 H   0  0  0  0  0  0
  -17.4197  -26.6676   21.4020 H   0  0  0  0  0  0
  -18.0326  -26.0069   22.9018 H   0  0  0  0  0  0
  -19.7930  -30.7258   24.2297 H   0  0  0  0  0  0
  -17.5008  -31.6266   24.5175 H   0  0  0  0  0  0
  -15.5348  -30.3001   23.7638 H   0  0  0  0  0  0
  -15.8659  -28.0838   22.7042 H   0  0  0  0  0  0
  -24.5912  -30.7040   25.7799 H   0  0  0  0  0  0
  -24.8936  -32.2848   26.4924 H   0  0  0  0  0  0
  -25.8099  -30.8847   27.0212 H   0  0  0  0  0  0
  -26.2832  -29.6794   24.1155 H   0  0  0  0  0  0
  -27.4083  -29.7264   25.4535 H   0  0  0  0  0  0
  -27.8660  -30.4348   23.9214 H   0  0  0  0  0  0
  -27.2668  -33.3597   26.2070 H   0  0  0  0  0  0
  -28.3845  -32.6878   25.0295 H   0  0  0  0  0  0
  -28.0724  -31.8417   26.5372 H   0  0  0  0  0  0
  -28.2599  -38.0113   24.7505 H   0  0  0  0  0  0
  -28.1076  -36.2640   24.6281 H   0  0  0  0  0  0
  -27.2299  -37.1457   25.8865 H   0  0  0  0  0  0
  -20.9297  -29.8759   21.6929 H   0  0  0  0  0  0
  -26.0184  -38.2872   24.1380 H   0  0  0  0  0  0
  -30.0992  -20.3357   16.6161 H   0  0  0  0  0  0
  -30.4139  -17.5919   22.8249 H   0  0  0  0  0  0
  -28.6741  -17.8473   22.9124 H   0  0  0  0  0  0
  -28.2311  -15.6925   21.9799 H   0  0  0  0  0  0
  -29.6932  -15.3319   22.9060 H   0  0  0  0  0  0
  -31.3090  -17.0659   20.0840 H   0  0  0  0  0  0
  -29.8864  -16.8445   19.0770 H   0  0  0  0  0  0
  -28.5030  -18.1076   20.5213 H   0  0  0  0  0  0
  -29.3314  -23.6947   21.4471 H   0  0  0  0  0  0
  -30.1543  -24.6682   20.2503 H   0  0  0  0  0  0
  -28.6257  -25.8789   21.9635 H   0  0  0  0  0  0
  -27.2624  -25.1850   21.1419 H   0  0  0  0  0  0
  -28.3642  -24.0388   18.6733 H   0  0  0  0  0  0
  -31.1932  -19.1568   20.8853 H   0  0  0  0  0  0
  1 25  1  0  0  0
  1 30  2  0  0  0
  1 83  1  0  0  0
  2  3  1  0  0  0
  2 25  1  0  0  0
  2 87  1  0  0  0
  2 88  1  0  0  0
  3  4  1  0  0  0
  3 89  1  0  0  0
  3 90  1  0  0  0
  4  5  1  0  0  0
  4 91  1  0  0  0
  4 92  1  0  0  0
  5  6  1  0  0  0
  5 26  1  0  0  0
  5 93  1  0  0  0
  6 25  1  0  0  0
  6 94  1  0  0  0
  6 95  1  0  0  0
  7  8  2  0  0  0
  7 26  1  0  0  0
  7 29  1  0  0  0
  8  9  1  0  0  0
  8 22  1  0  0  0
  9 10  1  0  0  0
  9 27  2  0  0  0
 10 11  2  0  0  0
 10 15  1  0  0  0
 11 12  1  0  0  0
 11 96  1  0  0  0
 12 13  2  0  0  0
 12 97  1  0  0  0
 13 14  1  0  0  0
 13 31  1  0  0  0
 14 15  2  0  0  0
 14 98  1  0  0  0
 15 99  1  0  0  0
 16 17  2  0  0  0
 16 21  1  0  0  0
 16 31  1  0  0  0
 17 18  1  0  0  0
 17100  1  0  0  0
 18 19  2  0  0  0
 18101  1  0  0  0
 19 20  1  0  0  0
 19 24  1  0  0  0
 20 21  2  0  0  0
 20102  1  0  0  0
 21 23  1  0  0  0
 22 28  1  0  0  0
 22 32  2  0  0  0
 26 27  1  0  0  0
 28103  1  0  0  0
 28104  1  0  0  0
 29105  1  0  0  0
 29106  1  0  0  0
 33 34  1  0  0  0
 33 66  1  0  0  0
 33 70  2  0  0  0
 34 36  1  0  0  0
 34 59  1  0  0  0
 34107  1  0  0  0
 35 44  2  0  0  0
 35 45  1  0  0  0
 35 68  1  0  0  0
 36 56  1  0  0  0
 36108  1  0  0  0
 37 39  1  0  0  0
 37 47  1  0  0  0
 37 66  1  0  0  0
 37109  1  0  0  0
 38 43  2  0  0  0
 38 46  1  0  0  0
 38 47  1  0  0  0
 39 64  1  0  0  0
 39 67  2  0  0  0
 40 52  1  0  0  0
 40 53  2  0  0  0
 40 58  1  0  0  0
 41110  1  0  0  0
 41111  1  0  0  0
 41112  1  0  0  0
 41 48  1  0  0  0
 42 43  1  0  0  0
 42 66  1  0  0  0
 42113  1  0  0  0
 42114  1  0  0  0
 43 44  1  0  0  0
 44115  1  0  0  0
 45 46  2  0  0  0
 45116  1  0  0  0
 46117  1  0  0  0
 47118  1  0  0  0
 47119  1  0  0  0
 48 56  1  0  0  0
 48 65  1  0  0  0
 48120  1  0  0  0
 49 50  1  0  0  0
 49 53  1  0  0  0
 49 64  1  0  0  0
 49121  1  0  0  0
 50 51  1  0  0  0
 50122  1  0  0  0
 50123  1  0  0  0
 51 52  1  0  0  0
 51124  1  0  0  0
 51125  1  0  0  0
 52126  1  0  0  0
 52127  1  0  0  0
 53 54  1  0  0  0
 54 55  2  0  0  0
 54128  1  0  0  0
 55 57  1  0  0  0
 55129  1  0  0  0
 56 69  2  0  0  0
 57 58  2  0  0  0
 57130  1  0  0  0
 58131  1  0  0  0
 59 60  1  0  0  0
 59 61  1  0  0  0
 59 62  1  0  0  0
 60132  1  0  0  0
 60133  1  0  0  0
 60134  1  0  0  0
 61135  1  0  0  0
 61136  1  0  0  0
 61137  1  0  0  0
 62138  1  0  0  0
 62139  1  0  0  0
 62140  1  0  0  0
 63 65  1  0  0  0
 63141  1  0  0  0
 63142  1  0  0  0
 63143  1  0  0  0
 64144  1  0  0  0
 65145  1  0  0  0
 68 80  1  0  0  0
 71 72  2  0  0  0
 71 81  1  0  0  0
 71146  1  0  0  0
 72 73  1  0  0  0
 72 86  1  0  0  0
 73 82  2  0  0  0
 73 84  1  0  0  0
 74 81  2  0  0  0
 74 82  1  0  0  0
 74 85  1  0  0  0
 75 76  1  0  0  0
 75 78  1  0  0  0
 75147  1  0  0  0
 75148  1  0  0  0
 76 83  1  0  0  0
 76149  1  0  0  0
 76150  1  0  0  0
 77 78  1  0  0  0
 77 83  1  0  0  0
 77151  1  0  0  0
 77152  1  0  0  0
 78 85  1  0  0  0
 78153  1  0  0  0
 79 80  1  0  0  0
 79 84  1  0  0  0
 79154  1  0  0  0
 79155  1  0  0  0
 80156  1  0  0  0
 80157  1  0  0  0
 84158  1  0  0  0
 85159  1  0  0  0
M  ISO  4   1 100  68 101  80 101  83 100
M  END
> <chiral flag>
0

> <version>
0

> <s_m_source_file>
/data/baiqing/PycharmProjects/Reinvent-master-3.2/result/LINK_invent/BTK/process_docking_weight1_custom_sum_contain_oxygen_bond_distance_aromatic_linkinvent_7_9_3/rearranged_h_0191.sdf

> <i_m_source_file_index>
57

> <r_mmod_Potential_Energy-OPLS-2005>
-341.621520996094

> <r_mmod_Stretch_Energy-OPLS-2005>
37.6956329345703

> <r_mmod_Bend_Energy-OPLS-2005>
126.259216308594

> <r_mmod_Torsional_Energy-OPLS-2005>
374.930816650391

> <r_mmod_Improper_Torsional_Energy-OPLS-2005>
23.2204990386963

> <r_mmod_Van_der_Waal_Energy-OPLS-2005>
155.349884033203

> <r_mmod_Electrostatic_Energy-OPLS-2005>
-842.072509765625

> <r_mmod_Solvation_Energy-OPLS-2005>
-231.764144897461

> <b_mmod_Minimization_Converged-OPLS-2005>
0

> <r_mmod_RMS_Derivative-OPLS-2005>
1.06258034706116

$$$$
57
                    3D
 Structure written by MMmdl.
153162  0  0  1  0            999 V2000
  -30.6206  -14.6894   20.4715 C   0  0  0  0  0  0
  -30.4299  -12.4200   19.4624 C   0  0  0  0  0  0
  -29.5027  -12.4972   18.2297 C   0  0  0  0  0  0
  -28.0298  -12.3265   18.6483 C   0  0  0  0  0  0
  -27.6443  -13.2242   19.8545 C   0  0  2  0  0  0
  -28.6884  -13.1349   20.9878 C   0  0  0  0  0  0
  -25.2518  -13.8194   20.5682 C   0  0  0  0  0  0
  -24.1798  -13.0445   20.9186 C   0  0  0  0  0  0
  -24.6386  -11.6921   20.8745 C   0  0  0  0  0  0
  -23.9061  -10.4296   21.0405 C   0  0  0  0  0  0
  -24.3615   -9.4212   21.9180 C   0  0  0  0  0  0
  -23.6291   -8.2247   22.0750 C   0  0  0  0  0  0
  -22.4271   -8.0286   21.3542 C   0  0  0  0  0  0
  -21.9909   -9.0258   20.4642 C   0  0  0  0  0  0
  -22.7235  -10.2139   20.3053 C   0  0  0  0  0  0
  -21.6855   -6.0739   22.5278 C   0  0  0  0  0  0
  -21.4015   -6.5641   23.8212 C   0  0  0  0  0  0
  -21.3655   -5.6793   24.9171 C   0  0  0  0  0  0
  -21.6039   -4.3054   24.7223 C   0  0  0  0  0  0
  -21.8823   -3.8149   23.4343 C   0  0  0  0  0  0
  -21.9190   -4.6967   22.3397 C   0  0  0  0  0  0
  -22.7820  -13.5227   21.1863 C   0  0  0  0  0  0
  -22.1660   -4.2153   21.0976 F   0  0  0  0  0  0
  -21.5625   -3.4536   25.7734 F   0  0  0  0  0  0
  -29.9939  -13.4701   20.4062 N   0  0  0  0  0  0
  -26.2945  -12.9387   20.3313 N   0  0  0  0  0  0
  -25.9316  -11.6535   20.5778 N   0  0  0  0  0  0
  -22.0484  -12.8209   22.0428 N   0  0  0  0  0  0
  -25.4217  -15.1915   20.4078 N   0  0  0  0  0  0
  -31.8097  -14.7999   20.1570 O   0  0  0  0  0  0
  -21.6636   -6.8882   21.4239 O   0  0  0  0  0  0
  -22.3495  -14.5527   20.6713 O   0  0  0  0  0  0
  -24.6276  -31.8584   23.1991 C   0  0  0  0  0  0
  -25.9126  -32.4768   23.8327 C   0  0  1  0  0  0
  -27.2213  -27.2920   20.1244 C   0  0  0  0  0  0
  -25.5925  -33.8563   24.2248 N   0  0  0  0  0  0
  -23.4220  -30.4799   21.5435 C   0  0  2  0  0  0
  -24.8689  -28.9329   20.1092 C   0  0  0  0  0  0
  -22.7486  -29.4603   22.4929 C   0  0  0  0  0  0
  -18.0291  -28.1373   22.8480 C   0  0  0  0  0  0
  -24.1489  -36.7280   23.2642 C   0  0  0  0  0  0
  -25.9651  -30.7801   21.3763 C   0  0  0  0  0  0
  -26.0394  -29.4063   20.7165 C   0  0  0  0  0  0
  -27.2181  -28.5982   20.7130 C   0  0  0  0  0  0
  -26.0275  -26.8789   19.4896 C   0  0  0  0  0  0
  -24.8663  -27.6750   19.4869 C   0  0  0  0  0  0
  -23.6376  -29.8155   20.1588 C   0  0  0  0  0  0
  -25.4111  -36.3064   24.0325 C   0  0  1  0  0  0
  -20.5888  -28.3681   23.1278 C   0  0  2  0  0  0
  -20.6781  -26.9404   22.5404 C   0  0  0  0  0  0
  -19.5756  -26.6375   21.5209 C   0  0  0  0  0  0
  -18.1932  -26.7918   22.1616 C   0  0  0  0  0  0
  -19.1542  -28.8844   23.2871 C   0  0  0  0  0  0
  -18.9471  -30.1449   23.8886 C   0  0  0  0  0  0
  -17.6472  -30.6586   24.0555 C   0  0  0  0  0  0
  -25.9054  -34.9439   23.5091 C   0  0  0  0  0  0
  -16.5359  -29.9076   23.6336 C   0  0  0  0  0  0
  -16.7277  -28.6491   23.0354 C   0  0  0  0  0  0
  -26.4501  -31.6585   25.0716 C   0  0  0  0  0  0
  -25.3722  -31.3736   26.1436 C   0  0  0  0  0  0
  -27.0362  -30.3006   24.6191 C   0  0  0  0  0  0
  -27.6051  -32.4338   25.7486 C   0  0  0  0  0  0
  -27.5575  -37.1784   24.8466 C   0  0  0  0  0  0
  -21.4197  -29.3032   22.3672 N   0  0  0  0  0  0
  -26.4291  -37.3758   23.9407 N   0  0  0  0  0  0
  -24.6898  -31.0565   22.0961 N   0  0  0  0  0  0
  -23.4207  -28.8156   23.3025 O   0  0  0  0  0  0
  -28.3288  -26.4230   20.1855 O   0  0  0  0  0  0
  -26.5639  -34.8926   22.4668 O   0  0  0  0  0  0
  -23.5437  -32.1413   23.7299 O   0  0  0  0  0  0
  -28.2902  -20.2058   21.3808 C   0  0  0  0  0  0
  -28.2365  -21.6308   21.3245 C   0  0  0  0  0  0
  -30.0383  -20.2737   19.7735 C   0  0  0  0  0  0
  -29.2190  -19.4632   20.6030 C   0  0  0  0  0  0
  -29.1080  -22.3599   20.4820 C   0  0  0  0  0  0
  -29.7346  -16.8773   19.5724 C   0  0  0  0  0  0
  -30.1077  -16.9494   21.5536 C   0  0  0  0  0  0
  -29.2468  -17.8727   20.6513 C   0  0  0  0  0  0
  -29.2535  -23.9428   20.5435 C   0  0  0  0  0  0
  -28.1079  -24.9475   20.0556 C   0  0  0  0  0  0
  -29.9873  -21.6481   19.7159 N   0  0  0  0  0  0
  -29.8249  -15.8124   20.6220 N   0  0  0  0  0  0
  -31.4705  -12.5437   19.1572 H   0  0  0  0  0  0
  -30.3697  -11.4378   19.9336 H   0  0  0  0  0  0
  -29.7755  -11.7305   17.5029 H   0  0  0  0  0  0
  -29.6303  -13.4569   17.7266 H   0  0  0  0  0  0
  -27.8845  -11.2774   18.9093 H   0  0  0  0  0  0
  -27.3679  -12.5215   17.8036 H   0  0  0  0  0  0
  -27.6476  -14.2494   19.4849 H   0  0  0  0  0  0
  -28.7100  -12.1348   21.4228 H   0  0  0  0  0  0
  -28.4337  -13.8188   21.7992 H   0  0  0  0  0  0
  -25.2765   -9.5689   22.4748 H   0  0  0  0  0  0
  -24.0000   -7.4642   22.7477 H   0  0  0  0  0  0
  -21.0837   -8.8778   19.8950 H   0  0  0  0  0  0
  -22.3693  -10.9676   19.6161 H   0  0  0  0  0  0
  -21.2014   -7.6151   23.9716 H   0  0  0  0  0  0
  -21.1467   -6.0520   25.9074 H   0  0  0  0  0  0
  -22.0604   -2.7611   23.2838 H   0  0  0  0  0  0
  -22.4117  -11.9867   22.4788 H   0  0  0  0  0  0
  -21.1112  -13.1232   22.2682 H   0  0  0  0  0  0
  -24.6532  -15.8466   20.5055 H   0  0  0  0  0  0
  -26.2838  -15.6300   20.1093 H   0  0  0  0  0  0
  -26.7197  -32.5438   23.1074 H   0  0  0  0  0  0
  -25.0039  -33.9688   25.0372 H   0  0  0  0  0  0
  -22.7160  -31.3008   21.4001 H   0  0  0  0  0  0
  -23.3763  -35.9607   23.3307 H   0  0  0  0  0  0
  -24.3577  -36.8906   22.2059 H   0  0  0  0  0  0
  -23.7243  -37.6472   23.6681 H   0  0  0  0  0  0
  -26.1019  -31.5472   20.6129 H   0  0  0  0  0  0
  -26.8416  -30.8248   22.0106 H   0  0  0  0  0  0
  -28.1139  -28.9551   21.2022 H   0  0  0  0  0  0
  -25.9643  -25.9191   19.0004 H   0  0  0  0  0  0
  -23.9697  -27.3052   19.0079 H   0  0  0  0  0  0
  -23.7581  -30.5944   19.4046 H   0  0  0  0  0  0
  -22.7569  -29.2459   19.8570 H   0  0  0  0  0  0
  -25.1296  -36.1907   25.0819 H   0  0  0  0  0  0
  -20.9961  -28.3261   24.1400 H   0  0  0  0  0  0
  -20.5682  -26.2288   23.3600 H   0  0  0  0  0  0
  -21.6645  -26.7437   22.1189 H   0  0  0  0  0  0
  -19.6931  -25.6287   21.1236 H   0  0  0  0  0  0
  -19.6700  -27.3192   20.6744 H   0  0  0  0  0  0
  -17.4192  -26.6660   21.4025 H   0  0  0  0  0  0
  -18.0332  -26.0061   22.9012 H   0  0  0  0  0  0
  -19.7956  -30.7253   24.2241 H   0  0  0  0  0  0
  -17.5041  -31.6270   24.5158 H   0  0  0  0  0  0
  -15.5359  -30.2974   23.7686 H   0  0  0  0  0  0
  -15.8673  -28.0820   22.7065 H   0  0  0  0  0  0
  -24.5887  -30.7105   25.7755 H   0  0  0  0  0  0
  -24.8936  -32.2913   26.4859 H   0  0  0  0  0  0
  -25.8032  -30.8900   27.0211 H   0  0  0  0  0  0
  -26.2948  -29.6731   24.1234 H   0  0  0  0  0  0
  -27.4074  -29.7285   25.4703 H   0  0  0  0  0  0
  -27.8811  -30.4285   23.9423 H   0  0  0  0  0  0
  -27.2649  -33.3652   26.2022 H   0  0  0  0  0  0
  -28.3873  -32.6870   25.0319 H   0  0  0  0  0  0
  -28.0708  -31.8491   26.5428 H   0  0  0  0  0  0
  -28.2577  -38.0094   24.7506 H   0  0  0  0  0  0
  -28.1079  -36.2616   24.6298 H   0  0  0  0  0  0
  -27.2287  -37.1430   25.8867 H   0  0  0  0  0  0
  -20.9372  -29.8734   21.6870 H   0  0  0  0  0  0
  -26.0178  -38.2831   24.1424 H   0  0  0  0  0  0
  -27.6118  -19.6844   22.0401 H   0  0  0  0  0  0
  -27.5451  -22.1589   21.9661 H   0  0  0  0  0  0
  -30.7719  -19.8086   19.1323 H   0  0  0  0  0  0
  -30.6971  -17.1453   19.1284 H   0  0  0  0  0  0
  -28.9971  -16.6896   18.7907 H   0  0  0  0  0  0
  -29.7015  -16.8282   22.5585 H   0  0  0  0  0  0
  -31.1627  -17.2336   21.6009 H   0  0  0  0  0  0
  -28.2015  -17.6210   20.8498 H   0  0  0  0  0  0
  -30.1645  -24.2065   20.0059 H   0  0  0  0  0  0
  -29.4681  -24.1799   21.5848 H   0  0  0  0  0  0
  -27.2064  -24.6885   20.6135 H   0  0  0  0  0  0
  -27.8981  -24.7288   19.0077 H   0  0  0  0  0  0
  1 25  1  0  0  0
  1 30  2  0  0  0
  1 82  1  0  0  0
  2  3  1  0  0  0
  2 25  1  0  0  0
  2 83  1  0  0  0
  2 84  1  0  0  0
  3  4  1  0  0  0
  3 85  1  0  0  0
  3 86  1  0  0  0
  4  5  1  0  0  0
  4 87  1  0  0  0
  4 88  1  0  0  0
  5  6  1  0  0  0
  5 26  1  0  0  0
  5 89  1  0  0  0
  6 25  1  0  0  0
  6 90  1  0  0  0
  6 91  1  0  0  0
  7  8  2  0  0  0
  7 26  1  0  0  0
  7 29  1  0  0  0
  8  9  1  0  0  0
  8 22  1  0  0  0
  9 10  1  0  0  0
  9 27  2  0  0  0
 10 11  2  0  0  0
 10 15  1  0  0  0
 11 12  1  0  0  0
 11 92  1  0  0  0
 12 13  2  0  0  0
 12 93  1  0  0  0
 13 14  1  0  0  0
 13 31  1  0  0  0
 14 15  2  0  0  0
 14 94  1  0  0  0
 15 95  1  0  0  0
 16 17  2  0  0  0
 16 21  1  0  0  0
 16 31  1  0  0  0
 17 18  1  0  0  0
 17 96  1  0  0  0
 18 19  2  0  0  0
 18 97  1  0  0  0
 19 20  1  0  0  0
 19 24  1  0  0  0
 20 21  2  0  0  0
 20 98  1  0  0  0
 21 23  1  0  0  0
 22 28  1  0  0  0
 22 32  2  0  0  0
 26 27  1  0  0  0
 28 99  1  0  0  0
 28100  1  0  0  0
 29101  1  0  0  0
 29102  1  0  0  0
 33 34  1  0  0  0
 33 66  1  0  0  0
 33 70  2  0  0  0
 34 36  1  0  0  0
 34 59  1  0  0  0
 34103  1  0  0  0
 35 44  2  0  0  0
 35 45  1  0  0  0
 35 68  1  0  0  0
 36 56  1  0  0  0
 36104  1  0  0  0
 37 39  1  0  0  0
 37 47  1  0  0  0
 37 66  1  0  0  0
 37105  1  0  0  0
 38 43  2  0  0  0
 38 46  1  0  0  0
 38 47  1  0  0  0
 39 64  1  0  0  0
 39 67  2  0  0  0
 40 52  1  0  0  0
 40 53  2  0  0  0
 40 58  1  0  0  0
 41106  1  0  0  0
 41107  1  0  0  0
 41108  1  0  0  0
 41 48  1  0  0  0
 42 43  1  0  0  0
 42 66  1  0  0  0
 42109  1  0  0  0
 42110  1  0  0  0
 43 44  1  0  0  0
 44111  1  0  0  0
 45 46  2  0  0  0
 45112  1  0  0  0
 46113  1  0  0  0
 47114  1  0  0  0
 47115  1  0  0  0
 48 56  1  0  0  0
 48 65  1  0  0  0
 48116  1  0  0  0
 49 50  1  0  0  0
 49 53  1  0  0  0
 49 64  1  0  0  0
 49117  1  0  0  0
 50 51  1  0  0  0
 50118  1  0  0  0
 50119  1  0  0  0
 51 52  1  0  0  0
 51120  1  0  0  0
 51121  1  0  0  0
 52122  1  0  0  0
 52123  1  0  0  0
 53 54  1  0  0  0
 54 55  2  0  0  0
 54124  1  0  0  0
 55 57  1  0  0  0
 55125  1  0  0  0
 56 69  2  0  0  0
 57 58  2  0  0  0
 57126  1  0  0  0
 58127  1  0  0  0
 59 60  1  0  0  0
 59 61  1  0  0  0
 59 62  1  0  0  0
 60128  1  0  0  0
 60129  1  0  0  0
 60130  1  0  0  0
 61131  1  0  0  0
 61132  1  0  0  0
 61133  1  0  0  0
 62134  1  0  0  0
 62135  1  0  0  0
 62136  1  0  0  0
 63 65  1  0  0  0
 63137  1  0  0  0
 63138  1  0  0  0
 63139  1  0  0  0
 64140  1  0  0  0
 65141  1  0  0  0
 68 80  1  0  0  0
 71 72  2  0  0  0
 71 74  1  0  0  0
 71142  1  0  0  0
 72 75  1  0  0  0
 72143  1  0  0  0
 73 74  2  0  0  0
 73 81  1  0  0  0
 73144  1  0  0  0
 74 78  1  0  0  0
 75 79  1  0  0  0
 75 81  2  0  0  0
 76 78  1  0  0  0
 76 82  1  0  0  0
 76145  1  0  0  0
 76146  1  0  0  0
 77 78  1  0  0  0
 77 82  1  0  0  0
 77147  1  0  0  0
 77148  1  0  0  0
 78149  1  0  0  0
 79 80  1  0  0  0
 79150  1  0  0  0
 79151  1  0  0  0
 80152  1  0  0  0
 80153  1  0  0  0
M  ISO  4   1 100  68 101  80 101  82 100
M  END
> <chiral flag>
0

> <version>
0

> <s_m_source_file>
/data/baiqing/PycharmProjects/Reinvent-master-3.2/result/LINK_invent/BTK/process_docking_weight1_custom_sum_contain_oxygen_bond_distance_aromatic_linkinvent_7_9_3/rearranged_h_0191.sdf

> <i_m_source_file_index>
58

> <r_mmod_Potential_Energy-OPLS-2005>
54.7121200561523

> <r_mmod_Stretch_Energy-OPLS-2005>
93.0406951904297

> <r_mmod_Bend_Energy-OPLS-2005>
156.203063964844

> <r_mmod_Torsional_Energy-OPLS-2005>
259.471099853516

> <r_mmod_Improper_Torsional_Energy-OPLS-2005>
14.7883939743042

> <r_mmod_Van_der_Waal_Energy-OPLS-2005>
140.549896240234

> <r_mmod_Electrostatic_Energy-OPLS-2005>
-462.796966552734

> <r_mmod_Solvation_Energy-OPLS-2005>
-212.754379272461

> <b_mmod_Minimization_Converged-OPLS-2005>
0

> <r_mmod_RMS_Derivative-OPLS-2005>
1.4998140335083

$$$$
58
                    3D
 Structure written by MMmdl.
165174  0  0  1  0            999 V2000
  -30.7343  -14.4374   20.6221 C   0  0  0  0  0  0
  -30.4171  -12.3072   19.4124 C   0  0  0  0  0  0
  -29.4873  -12.5128   18.2009 C   0  0  0  0  0  0
  -28.0116  -12.3663   18.6176 C   0  0  0  0  0  0
  -27.6606  -13.2053   19.8748 C   0  0  2  0  0  0
  -28.7009  -12.9840   20.9949 C   0  0  0  0  0  0
  -25.2584  -13.8162   20.5675 C   0  0  0  0  0  0
  -24.1836  -13.0440   20.9175 C   0  0  0  0  0  0
  -24.6391  -11.6905   20.8738 C   0  0  0  0  0  0
  -23.9057  -10.4291   21.0408 C   0  0  0  0  0  0
  -24.3612   -9.4209   21.9186 C   0  0  0  0  0  0
  -23.6289   -8.2243   22.0756 C   0  0  0  0  0  0
  -22.4271   -8.0281   21.3546 C   0  0  0  0  0  0
  -21.9906   -9.0255   20.4649 C   0  0  0  0  0  0
  -22.7232  -10.2134   20.3057 C   0  0  0  0  0  0
  -21.6851   -6.0734   22.5279 C   0  0  0  0  0  0
  -21.4009   -6.5637   23.8211 C   0  0  0  0  0  0
  -21.3659   -5.6791   24.9173 C   0  0  0  0  0  0
  -21.6045   -4.3054   24.7226 C   0  0  0  0  0  0
  -21.8819   -3.8145   23.4348 C   0  0  0  0  0  0
  -21.9191   -4.6962   22.3402 C   0  0  0  0  0  0
  -22.7859  -13.5239   21.1837 C   0  0  0  0  0  0
  -22.1661   -4.2148   21.0980 F   0  0  0  0  0  0
  -21.5632   -3.4539   25.7740 F   0  0  0  0  0  0
  -30.0344  -13.2825   20.4459 N   0  0  0  0  0  0
  -26.3019  -12.9329   20.3369 N   0  0  0  0  0  0
  -25.9316  -11.6489   20.5772 N   0  0  0  0  0  0
  -22.0498  -12.8234   22.0394 N   0  0  0  0  0  0
  -25.4309  -15.1878   20.4071 N   0  0  0  0  0  0
  -31.8312  -14.6382   20.0884 O   0  0  0  0  0  0
  -21.6637   -6.8878   21.4241 O   0  0  0  0  0  0
  -22.3548  -14.5548   20.6689 O   0  0  0  0  0  0
  -24.6122  -31.8696   23.2122 C   0  0  0  0  0  0
  -25.9025  -32.4836   23.8409 C   0  0  1  0  0  0
  -27.2372  -27.4489   20.0995 C   0  0  0  0  0  0
  -25.5896  -33.8632   24.2343 N   0  0  0  0  0  0
  -23.4003  -30.4919   21.5515 C   0  0  2  0  0  0
  -24.8507  -28.9592   20.1169 C   0  0  0  0  0  0
  -22.7399  -29.4659   22.4998 C   0  0  0  0  0  0
  -18.0269  -28.1372   22.8491 C   0  0  0  0  0  0
  -24.1485  -36.7316   23.2635 C   0  0  0  0  0  0
  -25.9268  -30.8383   21.3652 C   0  0  0  0  0  0
  -26.0067  -29.4700   20.7218 C   0  0  0  0  0  0
  -27.2034  -28.7188   20.7229 C   0  0  0  0  0  0
  -26.0727  -26.9571   19.4784 C   0  0  0  0  0  0
  -24.8766  -27.6984   19.4951 C   0  0  0  0  0  0
  -23.6105  -29.8230   20.1661 C   0  0  0  0  0  0
  -25.4105  -36.3120   24.0341 C   0  0  1  0  0  0
  -20.5858  -28.3656   23.1325 C   0  0  2  0  0  0
  -20.6762  -26.9395   22.5420 C   0  0  0  0  0  0
  -19.5748  -26.6383   21.5210 C   0  0  0  0  0  0
  -18.1920  -26.7920   22.1616 C   0  0  0  0  0  0
  -19.1519  -28.8830   23.2905 C   0  0  0  0  0  0
  -18.9449  -30.1434   23.8917 C   0  0  0  0  0  0
  -17.6453  -30.6581   24.0564 C   0  0  0  0  0  0
  -25.9032  -34.9484   23.5139 C   0  0  0  0  0  0
  -16.5346  -29.9088   23.6322 C   0  0  0  0  0  0
  -16.7260  -28.6501   23.0348 C   0  0  0  0  0  0
  -26.4468  -31.6604   25.0721 C   0  0  0  0  0  0
  -25.3744  -31.3708   26.1479 C   0  0  0  0  0  0
  -27.0287  -30.3049   24.6069 C   0  0  0  0  0  0
  -27.6055  -32.4309   25.7480 C   0  0  0  0  0  0
  -27.5586  -37.1805   24.8460 C   0  0  0  0  0  0
  -21.4130  -29.3026   22.3735 N   0  0  0  0  0  0
  -26.4293  -37.3803   23.9416 N   0  0  0  0  0  0
  -24.6643  -31.0807   22.1019 N   0  0  0  0  0  0
  -23.4175  -28.8197   23.3033 O   0  0  0  0  0  0
  -28.3617  -26.6583   20.0509 O   0  0  0  0  0  0
  -26.5589  -34.8931   22.4697 O   0  0  0  0  0  0
  -23.5319  -32.1439   23.7525 O   0  0  0  0  0  0
  -30.4683  -17.4715   22.5895 C   0  0  0  0  0  0
  -30.6082  -22.2017   20.3896 C   0  0  0  0  0  0
  -30.9476  -16.0189   22.4829 C   0  0  0  0  0  0
  -30.4218  -20.6869   20.2096 C   0  0  0  0  0  0
  -29.3079  -16.4147   20.8148 C   0  0  0  0  0  0
  -28.6997  -21.3798   21.5821 C   0  0  0  0  0  0
  -29.9121  -17.7744   21.2056 C   0  0  1  0  0  0
  -29.6244  -22.6069   21.4934 C   0  0  2  0  0  0
  -28.9329  -18.9764   21.1481 C   0  0  0  0  0  0
  -29.7978  -25.0985   21.2496 C   0  0  0  0  0  0
  -29.0153  -26.4306   21.2977 C   0  0  0  0  0  0
  -30.1648  -15.3765   21.4155 N   0  0  0  0  0  0
  -29.6169  -20.2609   21.3549 N   0  0  0  0  0  0
  -28.9210  -23.8935   21.2359 N   0  3  0  0  0  0
  -31.4605  -12.4052   19.1070 H   0  0  0  0  0  0
  -30.3190  -11.2935   19.8037 H   0  0  0  0  0  0
  -29.7264  -11.7939   17.4160 H   0  0  0  0  0  0
  -29.6519  -13.5022   17.7711 H   0  0  0  0  0  0
  -27.8264  -11.3096   18.8151 H   0  0  0  0  0  0
  -27.3569  -12.6385   17.7889 H   0  0  0  0  0  0
  -27.7054  -14.2526   19.5783 H   0  0  0  0  0  0
  -28.6741  -11.9492   21.3393 H   0  0  0  0  0  0
  -28.4570  -13.5883   21.8698 H   0  0  0  0  0  0
  -25.2759   -9.5681   22.4759 H   0  0  0  0  0  0
  -23.9999   -7.4633   22.7475 H   0  0  0  0  0  0
  -21.0838   -8.8773   19.8954 H   0  0  0  0  0  0
  -22.3695  -10.9673   19.6165 H   0  0  0  0  0  0
  -21.1998   -7.6144   23.9713 H   0  0  0  0  0  0
  -21.1481   -6.0521   25.9076 H   0  0  0  0  0  0
  -22.0599   -2.7608   23.2849 H   0  0  0  0  0  0
  -22.4108  -11.9892   22.4777 H   0  0  0  0  0  0
  -21.1118  -13.1269   22.2599 H   0  0  0  0  0  0
  -24.6663  -15.8454   20.5144 H   0  0  0  0  0  0
  -26.2863  -15.6235   20.0871 H   0  0  0  0  0  0
  -26.7101  -32.5568   23.1182 H   0  0  0  0  0  0
  -25.0069  -33.9802   25.0503 H   0  0  0  0  0  0
  -22.6883  -31.3079   21.4122 H   0  0  0  0  0  0
  -23.3754  -35.9642   23.3292 H   0  0  0  0  0  0
  -24.3587  -36.8935   22.2052 H   0  0  0  0  0  0
  -23.7222  -37.6514   23.6650 H   0  0  0  0  0  0
  -26.0317  -31.5996   20.5911 H   0  0  0  0  0  0
  -26.8171  -30.9002   21.9785 H   0  0  0  0  0  0
  -28.0930  -29.1202   21.1881 H   0  0  0  0  0  0
  -26.0894  -25.9919   18.9919 H   0  0  0  0  0  0
  -23.9895  -27.2995   19.0225 H   0  0  0  0  0  0
  -23.7159  -30.5970   19.4052 H   0  0  0  0  0  0
  -22.7363  -29.2394   19.8719 H   0  0  0  0  0  0
  -25.1276  -36.1992   25.0833 H   0  0  0  0  0  0
  -20.9947  -28.3219   24.1446 H   0  0  0  0  0  0
  -20.5664  -26.2261   23.3603 H   0  0  0  0  0  0
  -21.6636  -26.7441   22.1217 H   0  0  0  0  0  0
  -19.6913  -25.6299   21.1229 H   0  0  0  0  0  0
  -19.6696  -27.3205   20.6750 H   0  0  0  0  0  0
  -17.4196  -26.6674   21.4010 H   0  0  0  0  0  0
  -18.0316  -26.0050   22.8999 H   0  0  0  0  0  0
  -19.7927  -30.7237   24.2303 H   0  0  0  0  0  0
  -17.5014  -31.6265   24.5160 H   0  0  0  0  0  0
  -15.5350  -30.3001   23.7633 H   0  0  0  0  0  0
  -15.8656  -28.0831   22.7058 H   0  0  0  0  0  0
  -24.5909  -30.7061   25.7819 H   0  0  0  0  0  0
  -24.8947  -32.2869   26.4936 H   0  0  0  0  0  0
  -25.8103  -30.8869   27.0229 H   0  0  0  0  0  0
  -26.2814  -29.6823   24.1135 H   0  0  0  0  0  0
  -27.4083  -29.7270   25.4505 H   0  0  0  0  0  0
  -27.8643  -30.4377   23.9190 H   0  0  0  0  0  0
  -27.2686  -33.3601   26.2086 H   0  0  0  0  0  0
  -28.3853  -32.6876   25.0298 H   0  0  0  0  0  0
  -28.0733  -31.8411   26.5372 H   0  0  0  0  0  0
  -28.2592  -38.0114   24.7536 H   0  0  0  0  0  0
  -28.1093  -36.2648   24.6248 H   0  0  0  0  0  0
  -27.2312  -37.1416   25.8864 H   0  0  0  0  0  0
  -20.9285  -29.8748   21.6963 H   0  0  0  0  0  0
  -26.0186  -38.2879   24.1435 H   0  0  0  0  0  0
  -31.2637  -18.1587   22.8812 H   0  0  0  0  0  0
  -29.6772  -17.5462   23.3374 H   0  0  0  0  0  0
  -30.4071  -22.7107   19.4463 H   0  0  0  0  0  0
  -31.6312  -22.4452   20.6786 H   0  0  0  0  0  0
  -30.8158  -15.4878   23.4263 H   0  0  0  0  0  0
  -32.0153  -16.0048   22.2533 H   0  0  0  0  0  0
  -31.3758  -20.1593   20.1606 H   0  0  0  0  0  0
  -29.8880  -20.4952   19.2762 H   0  0  0  0  0  0
  -29.2226  -16.3221   19.7297 H   0  0  0  0  0  0
  -28.3042  -16.3063   21.2289 H   0  0  0  0  0  0
  -27.9386  -21.4081   20.7992 H   0  0  0  0  0  0
  -28.1953  -21.3061   22.5471 H   0  0  0  0  0  0
  -30.7499  -17.9533   20.5296 H   0  0  0  0  0  0
  -30.1653  -22.6853   22.4390 H   0  0  0  0  0  0
  -28.1685  -18.8459   21.9166 H   0  0  0  0  0  0
  -28.4041  -18.9867   20.1929 H   0  0  0  0  0  0
  -30.4374  -25.0528   22.1322 H   0  0  0  0  0  0
  -30.4625  -25.0890   20.3853 H   0  0  0  0  0  0
  -29.7070  -27.2542   21.4797 H   0  0  0  0  0  0
  -28.3066  -26.4212   22.1285 H   0  0  0  0  0  0
  -28.2269  -24.0007   21.9598 H   0  0  0  0  0  0
  -28.4278  -23.8468   20.3574 H   0  0  0  0  0  0
  1 25  1  0  0  0
  1 30  2  0  0  0
  1 82  1  0  0  0
  2  3  1  0  0  0
  2 25  1  0  0  0
  2 85  1  0  0  0
  2 86  1  0  0  0
  3  4  1  0  0  0
  3 87  1  0  0  0
  3 88  1  0  0  0
  4  5  1  0  0  0
  4 89  1  0  0  0
  4 90  1  0  0  0
  5  6  1  0  0  0
  5 26  1  0  0  0
  5 91  1  0  0  0
  6 25  1  0  0  0
  6 92  1  0  0  0
  6 93  1  0  0  0
  7  8  2  0  0  0
  7 26  1  0  0  0
  7 29  1  0  0  0
  8  9  1  0  0  0
  8 22  1  0  0  0
  9 10  1  0  0  0
  9 27  2  0  0  0
 10 11  2  0  0  0
 10 15  1  0  0  0
 11 12  1  0  0  0
 11 94  1  0  0  0
 12 13  2  0  0  0
 12 95  1  0  0  0
 13 14  1  0  0  0
 13 31  1  0  0  0
 14 15  2  0  0  0
 14 96  1  0  0  0
 15 97  1  0  0  0
 16 17  2  0  0  0
 16 21  1  0  0  0
 16 31  1  0  0  0
 17 18  1  0  0  0
 17 98  1  0  0  0
 18 19  2  0  0  0
 18 99  1  0  0  0
 19 20  1  0  0  0
 19 24  1  0  0  0
 20 21  2  0  0  0
 20100  1  0  0  0
 21 23  1  0  0  0
 22 28  1  0  0  0
 22 32  2  0  0  0
 26 27  1  0  0  0
 28101  1  0  0  0
 28102  1  0  0  0
 29103  1  0  0  0
 29104  1  0  0  0
 33 34  1  0  0  0
 33 66  1  0  0  0
 33 70  2  0  0  0
 34 36  1  0  0  0
 34 59  1  0  0  0
 34105  1  0  0  0
 35 44  2  0  0  0
 35 45  1  0  0  0
 35 68  1  0  0  0
 36 56  1  0  0  0
 36106  1  0  0  0
 37 39  1  0  0  0
 37 47  1  0  0  0
 37 66  1  0  0  0
 37107  1  0  0  0
 38 43  2  0  0  0
 38 46  1  0  0  0
 38 47  1  0  0  0
 39 64  1  0  0  0
 39 67  2  0  0  0
 40 52  1  0  0  0
 40 53  2  0  0  0
 40 58  1  0  0  0
 41108  1  0  0  0
 41109  1  0  0  0
 41110  1  0  0  0
 41 48  1  0  0  0
 42 43  1  0  0  0
 42 66  1  0  0  0
 42111  1  0  0  0
 42112  1  0  0  0
 43 44  1  0  0  0
 44113  1  0  0  0
 45 46  2  0  0  0
 45114  1  0  0  0
 46115  1  0  0  0
 47116  1  0  0  0
 47117  1  0  0  0
 48 56  1  0  0  0
 48 65  1  0  0  0
 48118  1  0  0  0
 49 50  1  0  0  0
 49 53  1  0  0  0
 49 64  1  0  0  0
 49119  1  0  0  0
 50 51  1  0  0  0
 50120  1  0  0  0
 50121  1  0  0  0
 51 52  1  0  0  0
 51122  1  0  0  0
 51123  1  0  0  0
 52124  1  0  0  0
 52125  1  0  0  0
 53 54  1  0  0  0
 54 55  2  0  0  0
 54126  1  0  0  0
 55 57  1  0  0  0
 55127  1  0  0  0
 56 69  2  0  0  0
 57 58  2  0  0  0
 57128  1  0  0  0
 58129  1  0  0  0
 59 60  1  0  0  0
 59 61  1  0  0  0
 59 62  1  0  0  0
 60130  1  0  0  0
 60131  1  0  0  0
 60132  1  0  0  0
 61133  1  0  0  0
 61134  1  0  0  0
 61135  1  0  0  0
 62136  1  0  0  0
 62137  1  0  0  0
 62138  1  0  0  0
 63 65  1  0  0  0
 63139  1  0  0  0
 63140  1  0  0  0
 63141  1  0  0  0
 64142  1  0  0  0
 65143  1  0  0  0
 68 81  1  0  0  0
 71 73  1  0  0  0
 71 77  1  0  0  0
 71144  1  0  0  0
 71145  1  0  0  0
 72 74  1  0  0  0
 72 78  1  0  0  0
 72146  1  0  0  0
 72147  1  0  0  0
 73 82  1  0  0  0
 73148  1  0  0  0
 73149  1  0  0  0
 74 83  1  0  0  0
 74150  1  0  0  0
 74151  1  0  0  0
 75 77  1  0  0  0
 75 82  1  0  0  0
 75152  1  0  0  0
 75153  1  0  0  0
 76 78  1  0  0  0
 76 83  1  0  0  0
 76154  1  0  0  0
 76155  1  0  0  0
 77 79  1  0  0  0
 77156  1  0  0  0
 78 84  1  0  0  0
 78157  1  0  0  0
 79 83  1  0  0  0
 79158  1  0  0  0
 79159  1  0  0  0
 80 81  1  0  0  0
 80 84  1  0  0  0
 80160  1  0  0  0
 80161  1  0  0  0
 81162  1  0  0  0
 81163  1  0  0  0
 84164  1  0  0  0
 84165  1  0  0  0
M  CHG  1  84   1
M  ISO  4   1 100  68 101  81 101  82 100
M  END
> <chiral flag>
0

> <version>
0

> <s_m_source_file>
/data/baiqing/PycharmProjects/Reinvent-master-3.2/result/LINK_invent/BTK/process_docking_weight1_custom_sum_contain_oxygen_bond_distance_aromatic_linkinvent_7_9_3/rearranged_h_0191.sdf

> <i_m_source_file_index>
59

> <r_mmod_Potential_Energy-OPLS-2005>
110.762451171875

> <r_mmod_Stretch_Energy-OPLS-2005>
35.723316192627

> <r_mmod_Bend_Energy-OPLS-2005>
138.122985839844

> <r_mmod_Torsional_Energy-OPLS-2005>
411.951629638672

> <r_mmod_Improper_Torsional_Energy-OPLS-2005>
5.65741729736328

> <r_mmod_Van_der_Waal_Energy-OPLS-2005>
123.596366882324

> <r_mmod_Electrostatic_Energy-OPLS-2005>
-180.37956237793

> <r_mmod_Solvation_Energy-OPLS-2005>
-433.57666015625

> <b_mmod_Minimization_Converged-OPLS-2005>
0

> <r_mmod_RMS_Derivative-OPLS-2005>
0.502319753170013

$$$$
59
                    3D
 Structure written by MMmdl.
165174  0  0  1  0            999 V2000
  -30.6887  -14.6656   20.4447 C   0  0  0  0  0  0
  -30.4090  -12.4050   19.4577 C   0  0  0  0  0  0
  -29.4942  -12.4928   18.2207 C   0  0  0  0  0  0
  -28.0200  -12.3388   18.6398 C   0  0  0  0  0  0
  -27.6392  -13.2367   19.8489 C   0  0  2  0  0  0
  -28.6906  -13.1718   20.9770 C   0  0  0  0  0  0
  -25.2496  -13.8203   20.5736 C   0  0  0  0  0  0
  -24.1798  -13.0443   20.9225 C   0  0  0  0  0  0
  -24.6398  -11.6922   20.8766 C   0  0  0  0  0  0
  -23.9074  -10.4296   21.0405 C   0  0  0  0  0  0
  -24.3617   -9.4208   21.9179 C   0  0  0  0  0  0
  -23.6293   -8.2246   22.0751 C   0  0  0  0  0  0
  -22.4275   -8.0278   21.3543 C   0  0  0  0  0  0
  -21.9918   -9.0258   20.4641 C   0  0  0  0  0  0
  -22.7250  -10.2137   20.3053 C   0  0  0  0  0  0
  -21.6853   -6.0729   22.5273 C   0  0  0  0  0  0
  -21.4018   -6.5642   23.8204 C   0  0  0  0  0  0
  -21.3665   -5.6801   24.9170 C   0  0  0  0  0  0
  -21.6039   -4.3060   24.7220 C   0  0  0  0  0  0
  -21.8819   -3.8144   23.4346 C   0  0  0  0  0  0
  -21.9197   -4.6957   22.3402 C   0  0  0  0  0  0
  -22.7813  -13.5200   21.1891 C   0  0  0  0  0  0
  -22.1665   -4.2149   21.0983 F   0  0  0  0  0  0
  -21.5626   -3.4547   25.7742 F   0  0  0  0  0  0
  -29.9905  -13.4867   20.3740 N   0  0  0  0  0  0
  -26.2934  -12.9432   20.3320 N   0  0  0  0  0  0
  -25.9331  -11.6577   20.5787 N   0  0  0  0  0  0
  -22.0482  -12.8182   22.0439 N   0  0  0  0  0  0
  -25.4183  -15.1937   20.4185 N   0  0  0  0  0  0
  -31.8961  -14.6650   20.1832 O   0  0  0  0  0  0
  -21.6641   -6.8874   21.4241 O   0  0  0  0  0  0
  -22.3506  -14.5524   20.6747 O   0  0  0  0  0  0
  -24.6246  -31.8593   23.2035 C   0  0  0  0  0  0
  -25.9084  -32.4780   23.8367 C   0  0  1  0  0  0
  -27.2285  -27.3083   20.1463 C   0  0  0  0  0  0
  -25.5908  -33.8574   24.2300 N   0  0  0  0  0  0
  -23.4213  -30.4799   21.5470 C   0  0  2  0  0  0
  -24.8733  -28.9248   20.1293 C   0  0  0  0  0  0
  -22.7486  -29.4605   22.4969 C   0  0  0  0  0  0
  -18.0278  -28.1375   22.8480 C   0  0  0  0  0  0
  -24.1487  -36.7296   23.2637 C   0  0  0  0  0  0
  -25.9628  -30.7864   21.3797 C   0  0  0  0  0  0
  -26.0401  -29.4044   20.7411 C   0  0  0  0  0  0
  -27.2232  -28.6055   20.7497 C   0  0  0  0  0  0
  -26.0476  -26.8850   19.5056 C   0  0  0  0  0  0
  -24.8760  -27.6661   19.5088 C   0  0  0  0  0  0
  -23.6421  -29.8082   20.1666 C   0  0  0  0  0  0
  -25.4108  -36.3072   24.0312 C   0  0  1  0  0  0
  -20.5882  -28.3675   23.1278 C   0  0  2  0  0  0
  -20.6773  -26.9402   22.5410 C   0  0  0  0  0  0
  -19.5754  -26.6372   21.5210 C   0  0  0  0  0  0
  -18.1926  -26.7915   22.1613 C   0  0  0  0  0  0
  -19.1535  -28.8849   23.2870 C   0  0  0  0  0  0
  -18.9462  -30.1449   23.8894 C   0  0  0  0  0  0
  -17.6463  -30.6586   24.0551 C   0  0  0  0  0  0
  -25.9039  -34.9440   23.5104 C   0  0  0  0  0  0
  -16.5351  -29.9080   23.6332 C   0  0  0  0  0  0
  -16.7266  -28.6493   23.0361 C   0  0  0  0  0  0
  -26.4479  -31.6593   25.0732 C   0  0  0  0  0  0
  -25.3705  -31.3705   26.1453 C   0  0  0  0  0  0
  -27.0326  -30.3021   24.6177 C   0  0  0  0  0  0
  -27.6078  -32.4316   25.7470 C   0  0  0  0  0  0
  -27.5575  -37.1788   24.8451 C   0  0  0  0  0  0
  -21.4205  -29.3035   22.3691 N   0  0  0  0  0  0
  -26.4292  -37.3761   23.9394 N   0  0  0  0  0  0
  -24.6884  -31.0590   22.1003 N   0  0  0  0  0  0
  -23.4212  -28.8151   23.3052 O   0  0  0  0  0  0
  -28.3459  -26.4744   20.0404 O   0  0  0  0  0  0
  -26.5623  -34.8896   22.4678 O   0  0  0  0  0  0
  -23.5404  -32.1399   23.7354 O   0  0  0  0  0  0
  -28.0269  -20.5346   18.7632 C   0  0  0  0  0  0
  -27.1186  -19.9566   19.8003 C   0  0  0  0  0  0
  -29.6458  -16.6448   21.5685 C   0  0  0  0  0  0
  -30.5472  -16.8742   19.3962 C   0  0  0  0  0  0
  -28.8035  -17.9567   21.3135 C   0  0  0  0  0  0
  -29.6814  -18.1526   19.1669 C   0  0  0  0  0  0
  -28.5817  -20.2060   20.1570 C   0  0  0  0  0  0
  -26.6577  -23.7865   20.8078 C   0  0  0  0  0  0
  -28.8683  -21.4228   21.1321 C   0  0  0  0  0  0
  -28.6682  -25.4816   21.0821 C   0  0  0  0  0  0
  -28.1503  -23.9527   21.1372 C   0  0  2  0  0  0
  -30.0047  -15.8712   20.3552 N   0  0  0  0  0  0
  -29.4149  -18.9411   20.3860 N   0  0  0  0  0  0
  -29.0058  -22.8289   20.5447 N   0  3  0  0  0  0
  -31.4555  -12.4816   19.1587 H   0  0  0  0  0  0
  -30.3086  -11.4337   19.9439 H   0  0  0  0  0  0
  -29.7596  -11.7229   17.4954 H   0  0  0  0  0  0
  -29.6371  -13.4502   17.7183 H   0  0  0  0  0  0
  -27.8621  -11.2906   18.8941 H   0  0  0  0  0  0
  -27.3615  -12.5442   17.7953 H   0  0  0  0  0  0
  -27.6345  -14.2608   19.4733 H   0  0  0  0  0  0
  -28.7125  -12.1831   21.4389 H   0  0  0  0  0  0
  -28.4460  -13.8786   21.7704 H   0  0  0  0  0  0
  -25.2762   -9.5691   22.4757 H   0  0  0  0  0  0
  -24.0003   -7.4637   22.7477 H   0  0  0  0  0  0
  -21.0849   -8.8762   19.8947 H   0  0  0  0  0  0
  -22.3692  -10.9662   19.6170 H   0  0  0  0  0  0
  -21.2008   -7.6151   23.9715 H   0  0  0  0  0  0
  -21.1490   -6.0527   25.9075 H   0  0  0  0  0  0
  -22.0591   -2.7609   23.2850 H   0  0  0  0  0  0
  -22.4115  -11.9835   22.4793 H   0  0  0  0  0  0
  -21.1089  -13.1175   22.2656 H   0  0  0  0  0  0
  -24.6490  -15.8449   20.5328 H   0  0  0  0  0  0
  -26.2732  -15.6362   20.1072 H   0  0  0  0  0  0
  -26.7153  -32.5466   23.1128 H   0  0  0  0  0  0
  -25.0011  -33.9729   25.0413 H   0  0  0  0  0  0
  -22.7147  -31.2983   21.3987 H   0  0  0  0  0  0
  -23.3739  -35.9645   23.3309 H   0  0  0  0  0  0
  -24.3571  -36.8933   22.2060 H   0  0  0  0  0  0
  -23.7261  -37.6492   23.6671 H   0  0  0  0  0  0
  -26.0817  -31.5385   20.5979 H   0  0  0  0  0  0
  -26.8466  -30.8541   22.0019 H   0  0  0  0  0  0
  -28.1226  -28.9761   21.2234 H   0  0  0  0  0  0
  -26.0317  -25.9335   18.9951 H   0  0  0  0  0  0
  -23.9836  -27.2968   19.0227 H   0  0  0  0  0  0
  -23.7668  -30.5789   19.4052 H   0  0  0  0  0  0
  -22.7619  -29.2366   19.8636 H   0  0  0  0  0  0
  -25.1298  -36.1939   25.0804 H   0  0  0  0  0  0
  -20.9965  -28.3250   24.1399 H   0  0  0  0  0  0
  -20.5683  -26.2279   23.3603 H   0  0  0  0  0  0
  -21.6638  -26.7433   22.1208 H   0  0  0  0  0  0
  -19.6919  -25.6285   21.1237 H   0  0  0  0  0  0
  -19.6703  -27.3189   20.6746 H   0  0  0  0  0  0
  -17.4202  -26.6663   21.4012 H   0  0  0  0  0  0
  -18.0324  -26.0066   22.9018 H   0  0  0  0  0  0
  -19.7946  -30.7243   24.2295 H   0  0  0  0  0  0
  -17.5018  -31.6269   24.5137 H   0  0  0  0  0  0
  -15.5353  -30.2971   23.7658 H   0  0  0  0  0  0
  -15.8661  -28.0792   22.7102 H   0  0  0  0  0  0
  -24.5926  -30.7014   25.7755 H   0  0  0  0  0  0
  -24.8824  -32.2850   26.4838 H   0  0  0  0  0  0
  -25.8017  -30.8914   27.0257 H   0  0  0  0  0  0
  -26.2907  -29.6751   24.1215 H   0  0  0  0  0  0
  -27.4050  -29.7287   25.4669 H   0  0  0  0  0  0
  -27.8753  -30.4303   23.9379 H   0  0  0  0  0  0
  -27.2775  -33.3674   26.1981 H   0  0  0  0  0  0
  -28.3899  -32.6781   25.0279 H   0  0  0  0  0  0
  -28.0716  -31.8464   26.5418 H   0  0  0  0  0  0
  -28.2580  -38.0099   24.7524 H   0  0  0  0  0  0
  -28.1099  -36.2628   24.6284 H   0  0  0  0  0  0
  -27.2270  -37.1446   25.8846 H   0  0  0  0  0  0
  -20.9393  -29.8764   21.6906 H   0  0  0  0  0  0
  -26.0174  -38.2822   24.1450 H   0  0  0  0  0  0
  -27.8117  -21.5661   18.4926 H   0  0  0  0  0  0
  -28.2546  -19.9024   17.9087 H   0  0  0  0  0  0
  -26.7646  -18.9466   19.6047 H   0  0  0  0  0  0
  -26.3731  -20.6147   20.2423 H   0  0  0  0  0  0
  -29.0868  -16.0015   22.2482 H   0  0  0  0  0  0
  -30.5679  -16.9042   22.0919 H   0  0  0  0  0  0
  -31.5401  -17.1863   19.7287 H   0  0  0  0  0  0
  -30.6949  -16.3988   18.4238 H   0  0  0  0  0  0
  -28.6113  -18.4480   22.2694 H   0  0  0  0  0  0
  -27.8284  -17.6486   20.9354 H   0  0  0  0  0  0
  -28.7431  -17.8533   18.6983 H   0  0  0  0  0  0
  -30.2043  -18.7897   18.4506 H   0  0  0  0  0  0
  -26.0623  -24.5655   21.2843 H   0  0  0  0  0  0
  -26.2727  -22.8371   21.1797 H   0  0  0  0  0  0
  -26.4745  -23.8215   19.7347 H   0  0  0  0  0  0
  -29.7934  -21.2154   21.6706 H   0  0  0  0  0  0
  -28.0996  -21.4225   21.9054 H   0  0  0  0  0  0
  -29.7575  -25.4628   21.1395 H   0  0  0  0  0  0
  -28.3688  -25.9486   22.0220 H   0  0  0  0  0  0
  -28.2186  -23.7423   22.2062 H   0  0  0  0  0  0
  -28.8911  -22.7803   19.5446 H   0  0  0  0  0  0
  -29.9728  -23.0758   20.6930 H   0  0  0  0  0  0
  1 25  1  0  0  0
  1 30  2  0  0  0
  1 82  1  0  0  0
  2  3  1  0  0  0
  2 25  1  0  0  0
  2 85  1  0  0  0
  2 86  1  0  0  0
  3  4  1  0  0  0
  3 87  1  0  0  0
  3 88  1  0  0  0
  4  5  1  0  0  0
  4 89  1  0  0  0
  4 90  1  0  0  0
  5  6  1  0  0  0
  5 26  1  0  0  0
  5 91  1  0  0  0
  6 25  1  0  0  0
  6 92  1  0  0  0
  6 93  1  0  0  0
  7  8  2  0  0  0
  7 26  1  0  0  0
  7 29  1  0  0  0
  8  9  1  0  0  0
  8 22  1  0  0  0
  9 10  1  0  0  0
  9 27  2  0  0  0
 10 11  2  0  0  0
 10 15  1  0  0  0
 11 12  1  0  0  0
 11 94  1  0  0  0
 12 13  2  0  0  0
 12 95  1  0  0  0
 13 14  1  0  0  0
 13 31  1  0  0  0
 14 15  2  0  0  0
 14 96  1  0  0  0
 15 97  1  0  0  0
 16 17  2  0  0  0
 16 21  1  0  0  0
 16 31  1  0  0  0
 17 18  1  0  0  0
 17 98  1  0  0  0
 18 19  2  0  0  0
 18 99  1  0  0  0
 19 20  1  0  0  0
 19 24  1  0  0  0
 20 21  2  0  0  0
 20100  1  0  0  0
 21 23  1  0  0  0
 22 28  1  0  0  0
 22 32  2  0  0  0
 26 27  1  0  0  0
 28101  1  0  0  0
 28102  1  0  0  0
 29103  1  0  0  0
 29104  1  0  0  0
 33 34  1  0  0  0
 33 66  1  0  0  0
 33 70  2  0  0  0
 34 36  1  0  0  0
 34 59  1  0  0  0
 34105  1  0  0  0
 35 44  2  0  0  0
 35 45  1  0  0  0
 35 68  1  0  0  0
 36 56  1  0  0  0
 36106  1  0  0  0
 37 39  1  0  0  0
 37 47  1  0  0  0
 37 66  1  0  0  0
 37107  1  0  0  0
 38 43  2  0  0  0
 38 46  1  0  0  0
 38 47  1  0  0  0
 39 64  1  0  0  0
 39 67  2  0  0  0
 40 52  1  0  0  0
 40 53  2  0  0  0
 40 58  1  0  0  0
 41108  1  0  0  0
 41109  1  0  0  0
 41110  1  0  0  0
 41 48  1  0  0  0
 42 43  1  0  0  0
 42 66  1  0  0  0
 42111  1  0  0  0
 42112  1  0  0  0
 43 44  1  0  0  0
 44113  1  0  0  0
 45 46  2  0  0  0
 45114  1  0  0  0
 46115  1  0  0  0
 47116  1  0  0  0
 47117  1  0  0  0
 48 56  1  0  0  0
 48 65  1  0  0  0
 48118  1  0  0  0
 49 50  1  0  0  0
 49 53  1  0  0  0
 49 64  1  0  0  0
 49119  1  0  0  0
 50 51  1  0  0  0
 50120  1  0  0  0
 50121  1  0  0  0
 51 52  1  0  0  0
 51122  1  0  0  0
 51123  1  0  0  0
 52124  1  0  0  0
 52125  1  0  0  0
 53 54  1  0  0  0
 54 55  2  0  0  0
 54126  1  0  0  0
 55 57  1  0  0  0
 55127  1  0  0  0
 56 69  2  0  0  0
 57 58  2  0  0  0
 57128  1  0  0  0
 58129  1  0  0  0
 59 60  1  0  0  0
 59 61  1  0  0  0
 59 62  1  0  0  0
 60130  1  0  0  0
 60131  1  0  0  0
 60132  1  0  0  0
 61133  1  0  0  0
 61134  1  0  0  0
 61135  1  0  0  0
 62136  1  0  0  0
 62137  1  0  0  0
 62138  1  0  0  0
 63 65  1  0  0  0
 63139  1  0  0  0
 63140  1  0  0  0
 63141  1  0  0  0
 64142  1  0  0  0
 65143  1  0  0  0
 68 80  1  0  0  0
 71 72  1  0  0  0
 71 77  1  0  0  0
 71144  1  0  0  0
 71145  1  0  0  0
 72 77  1  0  0  0
 72146  1  0  0  0
 72147  1  0  0  0
 73 75  1  0  0  0
 73 82  1  0  0  0
 73148  1  0  0  0
 73149  1  0  0  0
 74 76  1  0  0  0
 74 82  1  0  0  0
 74150  1  0  0  0
 74151  1  0  0  0
 75 83  1  0  0  0
 75152  1  0  0  0
 75153  1  0  0  0
 76 83  1  0  0  0
 76154  1  0  0  0
 76155  1  0  0  0
 77 79  1  0  0  0
 77 83  1  0  0  0
 78156  1  0  0  0
 78157  1  0  0  0
 78158  1  0  0  0
 78 81  1  0  0  0
 79 84  1  0  0  0
 79159  1  0  0  0
 79160  1  0  0  0
 80 81  1  0  0  0
 80161  1  0  0  0
 80162  1  0  0  0
 81 84  1  0  0  0
 81163  1  0  0  0
 84164  1  0  0  0
 84165  1  0  0  0
M  CHG  1  84   1
M  ISO  4   1 100  68 101  80 101  82 100
M  END
> <chiral flag>
0

> <version>
0

> <s_m_source_file>
/data/baiqing/PycharmProjects/Reinvent-master-3.2/result/LINK_invent/BTK/process_docking_weight1_custom_sum_contain_oxygen_bond_distance_aromatic_linkinvent_7_9_3/rearranged_h_0191.sdf

> <i_m_source_file_index>
60

> <r_mmod_Potential_Energy-OPLS-2005>
310.034729003906

> <r_mmod_Stretch_Energy-OPLS-2005>
97.1725463867188

> <r_mmod_Bend_Energy-OPLS-2005>
195.79704284668

> <r_mmod_Torsional_Energy-OPLS-2005>
459.112121582031

> <r_mmod_Improper_Torsional_Energy-OPLS-2005>
18.3395328521729

> <r_mmod_Van_der_Waal_Energy-OPLS-2005>
131.6455078125

> <r_mmod_Electrostatic_Energy-OPLS-2005>
-228.236877441406

> <r_mmod_Solvation_Energy-OPLS-2005>
-422.661376953125

> <b_mmod_Minimization_Converged-OPLS-2005>
0

> <r_mmod_RMS_Derivative-OPLS-2005>
2.91789221763611

$$$$
60
                    3D
 Structure written by MMmdl.
155163  0  0  1  0            999 V2000
  -30.6229  -14.7638   20.4565 C   0  0  0  0  0  0
  -30.4268  -12.4698   19.4725 C   0  0  0  0  0  0
  -29.5094  -12.5175   18.2322 C   0  0  0  0  0  0
  -28.0349  -12.3426   18.6457 C   0  0  0  0  0  0
  -27.6391  -13.2429   19.8480 C   0  0  2  0  0  0
  -28.6855  -13.2004   20.9818 C   0  0  0  0  0  0
  -25.2506  -13.8229   20.5715 C   0  0  0  0  0  0
  -24.1801  -13.0448   20.9194 C   0  0  0  0  0  0
  -24.6422  -11.6933   20.8744 C   0  0  0  0  0  0
  -23.9104  -10.4299   21.0408 C   0  0  0  0  0  0
  -24.3643   -9.4208   21.9189 C   0  0  0  0  0  0
  -23.6298   -8.2255   22.0762 C   0  0  0  0  0  0
  -22.4279   -8.0299   21.3554 C   0  0  0  0  0  0
  -21.9927   -9.0280   20.4660 C   0  0  0  0  0  0
  -22.7272  -10.2148   20.3060 C   0  0  0  0  0  0
  -21.6855   -6.0741   22.5280 C   0  0  0  0  0  0
  -21.4021   -6.5639   23.8217 C   0  0  0  0  0  0
  -21.3659   -5.6792   24.9177 C   0  0  0  0  0  0
  -21.6044   -4.3055   24.7227 C   0  0  0  0  0  0
  -21.8816   -3.8146   23.4349 C   0  0  0  0  0  0
  -21.9191   -4.6966   22.3404 C   0  0  0  0  0  0
  -22.7822  -13.5228   21.1847 C   0  0  0  0  0  0
  -22.1657   -4.2148   21.0984 F   0  0  0  0  0  0
  -21.5623   -3.4538   25.7741 F   0  0  0  0  0  0
  -29.9779  -13.5482   20.3840 N   0  0  0  0  0  0
  -26.2939  -12.9460   20.3291 N   0  0  0  0  0  0
  -25.9359  -11.6590   20.5744 N   0  0  0  0  0  0
  -22.0467  -12.8219   22.0412 N   0  0  0  0  0  0
  -25.4209  -15.1955   20.4187 N   0  0  0  0  0  0
  -31.8250  -14.8174   20.1798 O   0  0  0  0  0  0
  -21.6644   -6.8889   21.4242 O   0  0  0  0  0  0
  -22.3504  -14.5532   20.6692 O   0  0  0  0  0  0
  -24.6329  -31.8537   23.1955 C   0  0  0  0  0  0
  -25.9147  -32.4744   23.8320 C   0  0  1  0  0  0
  -27.2220  -27.2468   20.1510 C   0  0  0  0  0  0
  -25.5942  -33.8545   24.2263 N   0  0  0  0  0  0
  -23.4304  -30.4721   21.5395 C   0  0  2  0  0  0
  -24.8786  -28.9108   20.1155 C   0  0  0  0  0  0
  -22.7504  -29.4587   22.4921 C   0  0  0  0  0  0
  -18.0283  -28.1388   22.8487 C   0  0  0  0  0  0
  -24.1482  -36.7264   23.2643 C   0  0  0  0  0  0
  -25.9753  -30.7660   21.3723 C   0  0  0  0  0  0
  -26.0508  -29.3836   20.7214 C   0  0  0  0  0  0
  -27.2284  -28.5673   20.7202 C   0  0  0  0  0  0
  -26.0304  -26.8386   19.5186 C   0  0  0  0  0  0
  -24.8756  -27.6483   19.4991 C   0  0  0  0  0  0
  -23.6489  -29.7992   20.1582 C   0  0  0  0  0  0
  -25.4112  -36.3064   24.0337 C   0  0  1  0  0  0
  -20.5890  -28.3698   23.1280 C   0  0  2  0  0  0
  -20.6766  -26.9415   22.5422 C   0  0  0  0  0  0
  -19.5746  -26.6388   21.5217 C   0  0  0  0  0  0
  -18.1926  -26.7931   22.1626 C   0  0  0  0  0  0
  -19.1539  -28.8856   23.2874 C   0  0  0  0  0  0
  -18.9460  -30.1453   23.8898 C   0  0  0  0  0  0
  -17.6463  -30.6589   24.0557 C   0  0  0  0  0  0
  -25.9050  -34.9432   23.5099 C   0  0  0  0  0  0
  -16.5349  -29.9090   23.6337 C   0  0  0  0  0  0
  -16.7273  -28.6503   23.0364 C   0  0  0  0  0  0
  -26.4511  -31.6564   25.0706 C   0  0  0  0  0  0
  -25.3729  -31.3714   26.1424 C   0  0  0  0  0  0
  -27.0359  -30.2980   24.6193 C   0  0  0  0  0  0
  -27.6070  -32.4294   25.7490 C   0  0  0  0  0  0
  -27.5573  -37.1796   24.8475 C   0  0  0  0  0  0
  -21.4212  -29.3039   22.3660 N   0  0  0  0  0  0
  -26.4286  -37.3765   23.9417 N   0  0  0  0  0  0
  -24.6988  -31.0493   22.0923 N   0  0  0  0  0  0
  -23.4192  -28.8140   23.3033 O   0  0  0  0  0  0
  -28.3161  -26.3522   20.1557 O   0  0  0  0  0  0
  -26.5634  -34.8913   22.4675 O   0  0  0  0  0  0
  -23.5479  -32.1355   23.7257 O   0  0  0  0  0  0
  -30.2962  -17.1952   19.7132 C   0  0  0  0  0  0
  -29.5289  -16.8573   21.5540 C   0  0  0  0  0  0
  -29.3125  -18.0596   20.5617 C   0  0  0  0  0  0
  -29.5366  -19.6197   21.0107 C   0  0  0  0  0  0
  -28.9050  -22.2197   20.8769 C   0  0  0  0  0  0
  -28.1561  -24.9643   20.7361 C   0  0  0  0  0  0
  -28.6104  -23.5755   19.9914 C   0  0  1  0  0  0
  -29.8638  -15.9410   20.4225 N   0  0  0  0  0  0
  -29.7964  -23.9052   19.2098 N   0  0  0  0  0  0
  -28.9632  -20.8183   20.2136 N   0  3  0  0  0  0
  -31.4689  -12.5851   19.1716 H   0  0  0  0  0  0
  -30.3635  -11.4983   19.9651 H   0  0  0  0  0  0
  -29.7942  -11.7422   17.5203 H   0  0  0  0  0  0
  -29.6388  -13.4694   17.7132 H   0  0  0  0  0  0
  -27.8882  -11.2923   18.9032 H   0  0  0  0  0  0
  -27.3807  -12.5405   17.7957 H   0  0  0  0  0  0
  -27.6273  -14.2633   19.4642 H   0  0  0  0  0  0
  -28.7263  -12.2159   21.4494 H   0  0  0  0  0  0
  -28.4241  -13.9085   21.7697 H   0  0  0  0  0  0
  -25.2791   -9.5665   22.4762 H   0  0  0  0  0  0
  -23.9997   -7.4644   22.7489 H   0  0  0  0  0  0
  -21.0851   -8.8818   19.8971 H   0  0  0  0  0  0
  -22.3748  -10.9691   19.6163 H   0  0  0  0  0  0
  -21.2028   -7.6150   23.9717 H   0  0  0  0  0  0
  -21.1474   -6.0526   25.9080 H   0  0  0  0  0  0
  -22.0595   -2.7608   23.2853 H   0  0  0  0  0  0
  -22.4081  -11.9888   22.4804 H   0  0  0  0  0  0
  -21.1087  -13.1249   22.2626 H   0  0  0  0  0  0
  -24.6595  -15.8527   20.5473 H   0  0  0  0  0  0
  -26.2856  -15.6377   20.1305 H   0  0  0  0  0  0
  -26.7218  -32.5397   23.1066 H   0  0  0  0  0  0
  -25.0089  -33.9678   25.0414 H   0  0  0  0  0  0
  -22.7284  -31.2956   21.3923 H   0  0  0  0  0  0
  -23.3746  -35.9593   23.3309 H   0  0  0  0  0  0
  -24.3573  -36.8876   22.2056 H   0  0  0  0  0  0
  -23.7229  -37.6465   23.6659 H   0  0  0  0  0  0
  -26.1110  -31.5227   20.5988 H   0  0  0  0  0  0
  -26.8534  -30.8212   22.0046 H   0  0  0  0  0  0
  -28.1292  -28.9318   21.1942 H   0  0  0  0  0  0
  -25.9871  -25.8670   19.0460 H   0  0  0  0  0  0
  -23.9807  -27.2831   19.0138 H   0  0  0  0  0  0
  -23.7711  -30.5716   19.3984 H   0  0  0  0  0  0
  -22.7679  -29.2300   19.8552 H   0  0  0  0  0  0
  -25.1294  -36.1911   25.0830 H   0  0  0  0  0  0
  -20.9981  -28.3268   24.1401 H   0  0  0  0  0  0
  -20.5648  -26.2303   23.3622 H   0  0  0  0  0  0
  -21.6634  -26.7431   22.1219 H   0  0  0  0  0  0
  -19.6900  -25.6302   21.1237 H   0  0  0  0  0  0
  -19.6677  -27.3203   20.6748 H   0  0  0  0  0  0
  -17.4194  -26.6684   21.4026 H   0  0  0  0  0  0
  -18.0317  -26.0074   22.9021 H   0  0  0  0  0  0
  -19.7932  -30.7270   24.2270 H   0  0  0  0  0  0
  -17.5014  -31.6272   24.5158 H   0  0  0  0  0  0
  -15.5347  -30.2992   23.7659 H   0  0  0  0  0  0
  -15.8670  -28.0815   22.7103 H   0  0  0  0  0  0
  -24.5925  -30.7034   25.7759 H   0  0  0  0  0  0
  -24.8887  -32.2872   26.4818 H   0  0  0  0  0  0
  -25.8048  -30.8924   27.0219 H   0  0  0  0  0  0
  -26.2947  -29.6720   24.1207 H   0  0  0  0  0  0
  -27.4024  -29.7252   25.4725 H   0  0  0  0  0  0
  -27.8829  -30.4252   23.9449 H   0  0  0  0  0  0
  -27.2698  -33.3612   26.2046 H   0  0  0  0  0  0
  -28.3907  -32.6816   25.0331 H   0  0  0  0  0  0
  -28.0704  -31.8410   26.5421 H   0  0  0  0  0  0
  -28.2613  -38.0071   24.7511 H   0  0  0  0  0  0
  -28.1046  -36.2610   24.6319 H   0  0  0  0  0  0
  -27.2292  -37.1468   25.8877 H   0  0  0  0  0  0
  -20.9398  -29.8748   21.6857 H   0  0  0  0  0  0
  -26.0156  -38.2839   24.1399 H   0  0  0  0  0  0
  -31.3472  -17.4523   19.8697 H   0  0  0  0  0  0
  -30.0621  -17.2069   18.6482 H   0  0  0  0  0  0
  -28.6267  -16.5855   22.1029 H   0  0  0  0  0  0
  -30.3573  -17.0126   22.2486 H   0  0  0  0  0  0
  -28.3100  -17.9455   20.1458 H   0  0  0  0  0  0
  -30.6055  -19.8003   21.1274 H   0  0  0  0  0  0
  -29.1368  -19.7240   22.0191 H   0  0  0  0  0  0
  -28.1319  -22.1544   21.6446 H   0  0  0  0  0  0
  -29.8326  -22.3653   21.4316 H   0  0  0  0  0  0
  -27.1263  -24.8370   21.0727 H   0  0  0  0  0  0
  -28.7244  -25.0086   21.6659 H   0  0  0  0  0  0
  -27.8204  -23.3296   19.2804 H   0  0  0  0  0  0
  -30.5008  -24.3125   19.8160 H   0  0  0  0  0  0
  -30.2345  -23.0771   18.8223 H   0  0  0  0  0  0
  -28.0221  -20.5849   19.9403 H   0  0  0  0  0  0
  -29.5015  -20.8947   19.3684 H   0  0  0  0  0  0
  1 25  1  0  0  0
  1 30  2  0  0  0
  1 78  1  0  0  0
  2  3  1  0  0  0
  2 25  1  0  0  0
  2 81  1  0  0  0
  2 82  1  0  0  0
  3  4  1  0  0  0
  3 83  1  0  0  0
  3 84  1  0  0  0
  4  5  1  0  0  0
  4 85  1  0  0  0
  4 86  1  0  0  0
  5  6  1  0  0  0
  5 26  1  0  0  0
  5 87  1  0  0  0
  6 25  1  0  0  0
  6 88  1  0  0  0
  6 89  1  0  0  0
  7  8  2  0  0  0
  7 26  1  0  0  0
  7 29  1  0  0  0
  8  9  1  0  0  0
  8 22  1  0  0  0
  9 10  1  0  0  0
  9 27  2  0  0  0
 10 11  2  0  0  0
 10 15  1  0  0  0
 11 12  1  0  0  0
 11 90  1  0  0  0
 12 13  2  0  0  0
 12 91  1  0  0  0
 13 14  1  0  0  0
 13 31  1  0  0  0
 14 15  2  0  0  0
 14 92  1  0  0  0
 15 93  1  0  0  0
 16 17  2  0  0  0
 16 21  1  0  0  0
 16 31  1  0  0  0
 17 18  1  0  0  0
 17 94  1  0  0  0
 18 19  2  0  0  0
 18 95  1  0  0  0
 19 20  1  0  0  0
 19 24  1  0  0  0
 20 21  2  0  0  0
 20 96  1  0  0  0
 21 23  1  0  0  0
 22 28  1  0  0  0
 22 32  2  0  0  0
 26 27  1  0  0  0
 28 97  1  0  0  0
 28 98  1  0  0  0
 29 99  1  0  0  0
 29100  1  0  0  0
 33 34  1  0  0  0
 33 66  1  0  0  0
 33 70  2  0  0  0
 34 36  1  0  0  0
 34 59  1  0  0  0
 34101  1  0  0  0
 35 44  2  0  0  0
 35 45  1  0  0  0
 35 68  1  0  0  0
 36 56  1  0  0  0
 36102  1  0  0  0
 37 39  1  0  0  0
 37 47  1  0  0  0
 37 66  1  0  0  0
 37103  1  0  0  0
 38 43  2  0  0  0
 38 46  1  0  0  0
 38 47  1  0  0  0
 39 64  1  0  0  0
 39 67  2  0  0  0
 40 52  1  0  0  0
 40 53  2  0  0  0
 40 58  1  0  0  0
 41104  1  0  0  0
 41105  1  0  0  0
 41106  1  0  0  0
 41 48  1  0  0  0
 42 43  1  0  0  0
 42 66  1  0  0  0
 42107  1  0  0  0
 42108  1  0  0  0
 43 44  1  0  0  0
 44109  1  0  0  0
 45 46  2  0  0  0
 45110  1  0  0  0
 46111  1  0  0  0
 47112  1  0  0  0
 47113  1  0  0  0
 48 56  1  0  0  0
 48 65  1  0  0  0
 48114  1  0  0  0
 49 50  1  0  0  0
 49 53  1  0  0  0
 49 64  1  0  0  0
 49115  1  0  0  0
 50 51  1  0  0  0
 50116  1  0  0  0
 50117  1  0  0  0
 51 52  1  0  0  0
 51118  1  0  0  0
 51119  1  0  0  0
 52120  1  0  0  0
 52121  1  0  0  0
 53 54  1  0  0  0
 54 55  2  0  0  0
 54122  1  0  0  0
 55 57  1  0  0  0
 55123  1  0  0  0
 56 69  2  0  0  0
 57 58  2  0  0  0
 57124  1  0  0  0
 58125  1  0  0  0
 59 60  1  0  0  0
 59 61  1  0  0  0
 59 62  1  0  0  0
 60126  1  0  0  0
 60127  1  0  0  0
 60128  1  0  0  0
 61129  1  0  0  0
 61130  1  0  0  0
 61131  1  0  0  0
 62132  1  0  0  0
 62133  1  0  0  0
 62134  1  0  0  0
 63 65  1  0  0  0
 63135  1  0  0  0
 63136  1  0  0  0
 63137  1  0  0  0
 64138  1  0  0  0
 65139  1  0  0  0
 68 76  1  0  0  0
 71 73  1  0  0  0
 71 78  1  0  0  0
 71140  1  0  0  0
 71141  1  0  0  0
 72 73  1  0  0  0
 72 78  1  0  0  0
 72142  1  0  0  0
 72143  1  0  0  0
 73 74  1  0  0  0
 73144  1  0  0  0
 74 80  1  0  0  0
 74145  1  0  0  0
 74146  1  0  0  0
 75 77  1  0  0  0
 75 80  1  0  0  0
 75147  1  0  0  0
 75148  1  0  0  0
 76 77  1  0  0  0
 76149  1  0  0  0
 76150  1  0  0  0
 77 79  1  0  0  0
 77151  1  0  0  0
 79152  1  0  0  0
 79153  1  0  0  0
 80154  1  0  0  0
 80155  1  0  0  0
M  CHG  1  80   1
M  ISO  4   1 100  68 101  76 101  78 100
M  END
> <chiral flag>
0

> <version>
0

> <s_m_source_file>
/data/baiqing/PycharmProjects/Reinvent-master-3.2/result/LINK_invent/BTK/process_docking_weight1_custom_sum_contain_oxygen_bond_distance_aromatic_linkinvent_7_9_3/rearranged_h_0191.sdf

> <i_m_source_file_index>
61

> <r_mmod_Potential_Energy-OPLS-2005>
136.928741455078

> <r_mmod_Stretch_Energy-OPLS-2005>
141.448532104492

> <r_mmod_Bend_Energy-OPLS-2005>
187.808502197266

> <r_mmod_Torsional_Energy-OPLS-2005>
298.7177734375

> <r_mmod_Improper_Torsional_Energy-OPLS-2005>
18.6893253326416

> <r_mmod_Van_der_Waal_Energy-OPLS-2005>
112.456848144531

> <r_mmod_Electrostatic_Energy-OPLS-2005>
-200.099548339844

> <r_mmod_Solvation_Energy-OPLS-2005>
-515.549072265625

> <b_mmod_Minimization_Converged-OPLS-2005>
0

> <r_mmod_RMS_Derivative-OPLS-2005>
1.88438093662262

$$$$
61
                    3D
 Structure written by MMmdl.
165174  0  0  1  0            999 V2000
  -30.7263  -14.6456   20.2333 C   0  0  0  0  0  0
  -30.4193  -12.3279   19.4759 C   0  0  0  0  0  0
  -29.4332  -12.1522   18.2787 C   0  0  0  0  0  0
  -28.0287  -12.7554   18.5160 C   0  0  0  0  0  0
  -27.7123  -12.7695   20.0112 C   0  0  2  0  0  0
  -28.7242  -13.3837   20.9752 C   0  0  0  0  0  0
  -25.3060  -13.7592   20.5601 C   0  0  0  0  0  0
  -24.1839  -13.0433   20.9121 C   0  0  0  0  0  0
  -24.5741  -11.6739   20.8931 C   0  0  0  0  0  0
  -23.8432  -10.4258   21.0619 C   0  0  0  0  0  0
  -24.3223   -9.4187   21.9279 C   0  0  0  0  0  0
  -23.6125   -8.2124   22.0762 C   0  0  0  0  0  0
  -22.4135   -8.0121   21.3531 C   0  0  0  0  0  0
  -21.9614   -9.0073   20.4694 C   0  0  0  0  0  0
  -22.6715  -10.2068   20.3175 C   0  0  0  0  0  0
  -21.6777   -6.0673   22.5302 C   0  0  0  0  0  0
  -21.3945   -6.5633   23.8220 C   0  0  0  0  0  0
  -21.3651   -5.6792   24.9207 C   0  0  0  0  0  0
  -21.6056   -4.3045   24.7256 C   0  0  0  0  0  0
  -21.8827   -3.8125   23.4388 C   0  0  0  0  0  0
  -21.9168   -4.6913   22.3436 C   0  0  0  0  0  0
  -22.7968  -13.5563   21.1737 C   0  0  0  0  0  0
  -22.1671   -4.2132   21.1011 F   0  0  0  0  0  0
  -21.5613   -3.4518   25.7759 F   0  0  0  0  0  0
  -30.0289  -13.4820   20.3111 N   0  0  0  0  0  0
  -26.3077  -12.7965   20.3909 N   0  0  0  0  0  0
  -25.8400  -11.5600   20.6112 N   0  0  0  0  0  0
  -22.0461  -12.8706   22.0279 N   0  0  0  0  0  0
  -25.5454  -15.1178   20.3700 N   0  0  0  0  0  0
  -31.9470  -14.6985   20.3516 O   0  0  0  0  0  0
  -21.6556   -6.8707   21.4214 O   0  0  0  0  0  0
  -22.3853  -14.5927   20.6564 O   0  0  0  0  0  0
  -24.6164  -31.8652   23.2098 C   0  0  0  0  0  0
  -25.9043  -32.4815   23.8402 C   0  0  1  0  0  0
  -27.2281  -27.3991   20.1235 C   0  0  0  0  0  0
  -25.5872  -33.8618   24.2311 N   0  0  0  0  0  0
  -23.4076  -30.4875   21.5520 C   0  0  2  0  0  0
  -24.8572  -28.9540   20.1126 C   0  0  0  0  0  0
  -22.7423  -29.4625   22.4993 C   0  0  0  0  0  0
  -18.0269  -28.1368   22.8499 C   0  0  0  0  0  0
  -24.1485  -36.7311   23.2636 C   0  0  0  0  0  0
  -25.9396  -30.8233   21.3683 C   0  0  0  0  0  0
  -26.0177  -29.4557   20.7142 C   0  0  0  0  0  0
  -27.2101  -28.6878   20.7135 C   0  0  0  0  0  0
  -26.0565  -26.9306   19.4932 C   0  0  0  0  0  0
  -24.8738  -27.6943   19.4916 C   0  0  0  0  0  0
  -23.6188  -29.8214   20.1665 C   0  0  0  0  0  0
  -25.4107  -36.3106   24.0337 C   0  0  1  0  0  0
  -20.5866  -28.3649   23.1319 C   0  0  2  0  0  0
  -20.6755  -26.9379   22.5415 C   0  0  0  0  0  0
  -19.5747  -26.6374   21.5210 C   0  0  0  0  0  0
  -18.1924  -26.7914   22.1623 C   0  0  0  0  0  0
  -19.1522  -28.8833   23.2896 C   0  0  0  0  0  0
  -18.9448  -30.1437   23.8908 C   0  0  0  0  0  0
  -17.6453  -30.6575   24.0564 C   0  0  0  0  0  0
  -25.9044  -34.9474   23.5133 C   0  0  0  0  0  0
  -16.5343  -29.9084   23.6320 C   0  0  0  0  0  0
  -16.7253  -28.6497   23.0341 C   0  0  0  0  0  0
  -26.4463  -31.6600   25.0735 C   0  0  0  0  0  0
  -25.3715  -31.3716   26.1476 C   0  0  0  0  0  0
  -27.0279  -30.3042   24.6098 C   0  0  0  0  0  0
  -27.6044  -32.4305   25.7482 C   0  0  0  0  0  0
  -27.5580  -37.1807   24.8465 C   0  0  0  0  0  0
  -21.4149  -29.3018   22.3734 N   0  0  0  0  0  0
  -26.4290  -37.3789   23.9413 N   0  0  0  0  0  0
  -24.6732  -31.0730   22.1018 N   0  0  0  0  0  0
  -23.4189  -28.8159   23.3034 O   0  0  0  0  0  0
  -28.3574  -26.5984   20.1541 O   0  0  0  0  0  0
  -26.5606  -34.8924   22.4699 O   0  0  0  0  0  0
  -23.5344  -32.1411   23.7475 O   0  0  0  0  0  0
  -29.7075  -16.2496   17.1297 C   0  0  0  0  0  0
  -29.4414  -17.4182   18.0548 C   0  0  0  0  0  0
  -27.9214  -20.7813   21.4708 C   0  0  0  0  0  0
  -30.5614  -15.3467   17.9933 C   0  0  0  0  0  0
  -27.6609  -22.2332   21.0156 C   0  0  0  0  0  0
  -29.8545  -21.8274   20.5033 C   0  0  0  0  0  0
  -29.3798  -20.4729   21.1025 C   0  0  2  0  0  0
  -30.1349  -17.0529   19.3921 C   0  0  1  0  0  0
  -29.5474  -17.9174   20.5609 C   0  0  0  0  0  0
  -29.0544  -24.1544   20.2766 C   0  0  0  0  0  0
  -28.1939  -25.3300   20.8443 C   0  0  0  0  0  0
  -30.1339  -15.5527   19.3948 N   0  0  0  0  0  0
  -28.9723  -22.8785   21.0362 N   0  0  0  0  0  0
  -29.5295  -19.3560   20.1225 N   0  3  0  0  0  0
  -31.4417  -12.4129   19.1078 H   0  0  0  0  0  0
  -30.4112  -11.4363   20.1048 H   0  0  0  0  0  0
  -29.2943  -11.0773   18.1666 H   0  0  0  0  0  0
  -29.8426  -12.4362   17.3104 H   0  0  0  0  0  0
  -27.2740  -12.1973   17.9587 H   0  0  0  0  0  0
  -27.9908  -13.7785   18.1406 H   0  0  0  0  0  0
  -27.9927  -11.7293   20.2071 H   0  0  0  0  0  0
  -28.8141  -12.7982   21.8925 H   0  0  0  0  0  0
  -28.3815  -14.3757   21.2750 H   0  0  0  0  0  0
  -25.2403   -9.5722   22.4776 H   0  0  0  0  0  0
  -23.9953   -7.4498   22.7420 H   0  0  0  0  0  0
  -21.0537   -8.8468   19.9045 H   0  0  0  0  0  0
  -22.3053  -10.9626   19.6343 H   0  0  0  0  0  0
  -21.1894   -7.6146   23.9692 H   0  0  0  0  0  0
  -21.1494   -6.0541   25.9110 H   0  0  0  0  0  0
  -22.0617   -2.7596   23.2881 H   0  0  0  0  0  0
  -22.3896  -12.0351   22.4753 H   0  0  0  0  0  0
  -21.1116  -13.1902   22.2430 H   0  0  0  0  0  0
  -24.8100  -15.8123   20.4237 H   0  0  0  0  0  0
  -26.4127  -15.4754   19.9904 H   0  0  0  0  0  0
  -26.7109  -32.5531   23.1157 H   0  0  0  0  0  0
  -25.0017  -33.9780   25.0457 H   0  0  0  0  0  0
  -22.6980  -31.3058   21.4129 H   0  0  0  0  0  0
  -23.3745  -35.9649   23.3314 H   0  0  0  0  0  0
  -24.3579  -36.8903   22.2045 H   0  0  0  0  0  0
  -23.7241  -37.6521   23.6650 H   0  0  0  0  0  0
  -26.0536  -31.5870   20.5985 H   0  0  0  0  0  0
  -26.8290  -30.8801   21.9852 H   0  0  0  0  0  0
  -28.1036  -29.0650   21.1937 H   0  0  0  0  0  0
  -26.0541  -25.9639   19.0110 H   0  0  0  0  0  0
  -23.9856  -27.3046   19.0145 H   0  0  0  0  0  0
  -23.7277  -30.5985   19.4098 H   0  0  0  0  0  0
  -22.7433  -29.2405   19.8700 H   0  0  0  0  0  0
  -25.1285  -36.1976   25.0829 H   0  0  0  0  0  0
  -20.9944  -28.3212   24.1454 H   0  0  0  0  0  0
  -20.5654  -26.2257   23.3608 H   0  0  0  0  0  0
  -21.6627  -26.7426   22.1221 H   0  0  0  0  0  0
  -19.6911  -25.6297   21.1229 H   0  0  0  0  0  0
  -19.6690  -27.3199   20.6764 H   0  0  0  0  0  0
  -17.4181  -26.6637   21.4027 H   0  0  0  0  0  0
  -18.0332  -26.0064   22.9037 H   0  0  0  0  0  0
  -19.7919  -30.7227   24.2300 H   0  0  0  0  0  0
  -17.5010  -31.6267   24.5132 H   0  0  0  0  0  0
  -15.5345  -30.2981   23.7643 H   0  0  0  0  0  0
  -15.8650  -28.0812   22.7061 H   0  0  0  0  0  0
  -24.5901  -30.7044   25.7811 H   0  0  0  0  0  0
  -24.8897  -32.2881   26.4900 H   0  0  0  0  0  0
  -25.8064  -30.8901   27.0245 H   0  0  0  0  0  0
  -26.2831  -29.6830   24.1103 H   0  0  0  0  0  0
  -27.4001  -29.7236   25.4546 H   0  0  0  0  0  0
  -27.8695  -30.4366   23.9293 H   0  0  0  0  0  0
  -27.2685  -33.3595   26.2096 H   0  0  0  0  0  0
  -28.3840  -32.6862   25.0295 H   0  0  0  0  0  0
  -28.0739  -31.8406   26.5359 H   0  0  0  0  0  0
  -28.2597  -38.0096   24.7503 H   0  0  0  0  0  0
  -28.1064  -36.2631   24.6305 H   0  0  0  0  0  0
  -27.2303  -37.1474   25.8862 H   0  0  0  0  0  0
  -20.9310  -29.8733   21.6949 H   0  0  0  0  0  0
  -26.0179  -38.2870   24.1400 H   0  0  0  0  0  0
  -30.2202  -16.5385   16.2115 H   0  0  0  0  0  0
  -28.7768  -15.7521   16.8553 H   0  0  0  0  0  0
  -28.3636  -17.5358   18.1843 H   0  0  0  0  0  0
  -29.8278  -18.3448   17.6292 H   0  0  0  0  0  0
  -27.2039  -20.0892   21.0268 H   0  0  0  0  0  0
  -27.8017  -20.7036   22.5539 H   0  0  0  0  0  0
  -31.6152  -15.6216   17.8805 H   0  0  0  0  0  0
  -30.5122  -14.3335   17.6364 H   0  0  0  0  0  0
  -26.9430  -22.7367   21.6665 H   0  0  0  0  0  0
  -27.2578  -22.2398   20.0009 H   0  0  0  0  0  0
  -29.7416  -21.8078   19.4160 H   0  0  0  0  0  0
  -30.9072  -22.0243   20.7097 H   0  0  0  0  0  0
  -29.9520  -20.2514   22.0067 H   0  0  0  0  0  0
  -31.1881  -17.3428   19.3212 H   0  0  0  0  0  0
  -30.1670  -17.8055   21.4507 H   0  0  0  0  0  0
  -28.5378  -17.6032   20.8297 H   0  0  0  0  0  0
  -30.0980  -24.4713   20.2671 H   0  0  0  0  0  0
  -28.7830  -23.9804   19.2353 H   0  0  0  0  0  0
  -28.4681  -25.4986   21.8856 H   0  0  0  0  0  0
  -27.1503  -25.0151   20.8640 H   0  0  0  0  0  0
  -30.4158  -19.5095   19.6707 H   0  0  0  0  0  0
  -28.8222  -19.4596   19.4126 H   0  0  0  0  0  0
  1 25  1  0  0  0
  1 30  2  0  0  0
  1 82  1  0  0  0
  2  3  1  0  0  0
  2 25  1  0  0  0
  2 85  1  0  0  0
  2 86  1  0  0  0
  3  4  1  0  0  0
  3 87  1  0  0  0
  3 88  1  0  0  0
  4  5  1  0  0  0
  4 89  1  0  0  0
  4 90  1  0  0  0
  5  6  1  0  0  0
  5 26  1  0  0  0
  5 91  1  0  0  0
  6 25  1  0  0  0
  6 92  1  0  0  0
  6 93  1  0  0  0
  7  8  2  0  0  0
  7 26  1  0  0  0
  7 29  1  0  0  0
  8  9  1  0  0  0
  8 22  1  0  0  0
  9 10  1  0  0  0
  9 27  2  0  0  0
 10 11  2  0  0  0
 10 15  1  0  0  0
 11 12  1  0  0  0
 11 94  1  0  0  0
 12 13  2  0  0  0
 12 95  1  0  0  0
 13 14  1  0  0  0
 13 31  1  0  0  0
 14 15  2  0  0  0
 14 96  1  0  0  0
 15 97  1  0  0  0
 16 17  2  0  0  0
 16 21  1  0  0  0
 16 31  1  0  0  0
 17 18  1  0  0  0
 17 98  1  0  0  0
 18 19  2  0  0  0
 18 99  1  0  0  0
 19 20  1  0  0  0
 19 24  1  0  0  0
 20 21  2  0  0  0
 20100  1  0  0  0
 21 23  1  0  0  0
 22 28  1  0  0  0
 22 32  2  0  0  0
 26 27  1  0  0  0
 28101  1  0  0  0
 28102  1  0  0  0
 29103  1  0  0  0
 29104  1  0  0  0
 33 34  1  0  0  0
 33 66  1  0  0  0
 33 70  2  0  0  0
 34 36  1  0  0  0
 34 59  1  0  0  0
 34105  1  0  0  0
 35 44  2  0  0  0
 35 45  1  0  0  0
 35 68  1  0  0  0
 36 56  1  0  0  0
 36106  1  0  0  0
 37 39  1  0  0  0
 37 47  1  0  0  0
 37 66  1  0  0  0
 37107  1  0  0  0
 38 43  2  0  0  0
 38 46  1  0  0  0
 38 47  1  0  0  0
 39 64  1  0  0  0
 39 67  2  0  0  0
 40 52  1  0  0  0
 40 53  2  0  0  0
 40 58  1  0  0  0
 41108  1  0  0  0
 41109  1  0  0  0
 41110  1  0  0  0
 41 48  1  0  0  0
 42 43  1  0  0  0
 42 66  1  0  0  0
 42111  1  0  0  0
 42112  1  0  0  0
 43 44  1  0  0  0
 44113  1  0  0  0
 45 46  2  0  0  0
 45114  1  0  0  0
 46115  1  0  0  0
 47116  1  0  0  0
 47117  1  0  0  0
 48 56  1  0  0  0
 48 65  1  0  0  0
 48118  1  0  0  0
 49 50  1  0  0  0
 49 53  1  0  0  0
 49 64  1  0  0  0
 49119  1  0  0  0
 50 51  1  0  0  0
 50120  1  0  0  0
 50121  1  0  0  0
 51 52  1  0  0  0
 51122  1  0  0  0
 51123  1  0  0  0
 52124  1  0  0  0
 52125  1  0  0  0
 53 54  1  0  0  0
 54 55  2  0  0  0
 54126  1  0  0  0
 55 57  1  0  0  0
 55127  1  0  0  0
 56 69  2  0  0  0
 57 58  2  0  0  0
 57128  1  0  0  0
 58129  1  0  0  0
 59 60  1  0  0  0
 59 61  1  0  0  0
 59 62  1  0  0  0
 60130  1  0  0  0
 60131  1  0  0  0
 60132  1  0  0  0
 61133  1  0  0  0
 61134  1  0  0  0
 61135  1  0  0  0
 62136  1  0  0  0
 62137  1  0  0  0
 62138  1  0  0  0
 63 65  1  0  0  0
 63139  1  0  0  0
 63140  1  0  0  0
 63141  1  0  0  0
 64142  1  0  0  0
 65143  1  0  0  0
 68 81  1  0  0  0
 71 72  1  0  0  0
 71 74  1  0  0  0
 71144  1  0  0  0
 71145  1  0  0  0
 72 78  1  0  0  0
 72146  1  0  0  0
 72147  1  0  0  0
 73 75  1  0  0  0
 73 77  1  0  0  0
 73148  1  0  0  0
 73149  1  0  0  0
 74 82  1  0  0  0
 74150  1  0  0  0
 74151  1  0  0  0
 75 83  1  0  0  0
 75152  1  0  0  0
 75153  1  0  0  0
 76 77  1  0  0  0
 76 83  1  0  0  0
 76154  1  0  0  0
 76155  1  0  0  0
 77 84  1  0  0  0
 77156  1  0  0  0
 78 79  1  0  0  0
 78 82  1  0  0  0
 78157  1  0  0  0
 79 84  1  0  0  0
 79158  1  0  0  0
 79159  1  0  0  0
 80 81  1  0  0  0
 80 83  1  0  0  0
 80160  1  0  0  0
 80161  1  0  0  0
 81162  1  0  0  0
 81163  1  0  0  0
 84164  1  0  0  0
 84165  1  0  0  0
M  CHG  1  84   1
M  ISO  4   1 100  68 101  81 101  82 100
M  END
> <chiral flag>
0

> <version>
0

> <s_m_source_file>
/data/baiqing/PycharmProjects/Reinvent-master-3.2/result/LINK_invent/BTK/process_docking_weight1_custom_sum_contain_oxygen_bond_distance_aromatic_linkinvent_7_9_3/rearranged_h_0191.sdf

> <i_m_source_file_index>
62

> <r_mmod_Potential_Energy-OPLS-2005>
459.274597167969

> <r_mmod_Stretch_Energy-OPLS-2005>
52.6377334594727

> <r_mmod_Bend_Energy-OPLS-2005>
242.901794433594

> <r_mmod_Torsional_Energy-OPLS-2005>
476.459503173828

> <r_mmod_Improper_Torsional_Energy-OPLS-2005>
28.6387691497803

> <r_mmod_Van_der_Waal_Energy-OPLS-2005>
140.174850463867

> <r_mmod_Electrostatic_Energy-OPLS-2005>
-160.118103027344

> <r_mmod_Solvation_Energy-OPLS-2005>
-462.445159912109

> <b_mmod_Minimization_Converged-OPLS-2005>
0

> <r_mmod_RMS_Derivative-OPLS-2005>
3.92344355583191

$$$$
62
                    3D
 Structure written by MMmdl.
166176  0  0  1  0            999 V2000
  -30.7428  -14.4930   20.4029 C   0  0  0  0  0  0
  -30.4036  -12.2821   19.4395 C   0  0  0  0  0  0
  -29.4944  -12.4436   18.2090 C   0  0  0  0  0  0
  -28.0092  -12.3529   18.6222 C   0  0  0  0  0  0
  -27.6472  -13.2188   19.8636 C   0  0  2  0  0  0
  -28.7060  -13.1050   20.9810 C   0  0  0  0  0  0
  -25.2468  -13.8128   20.5615 C   0  0  0  0  0  0
  -24.1792  -13.0395   20.9242 C   0  0  0  0  0  0
  -24.6401  -11.6888   20.8817 C   0  0  0  0  0  0
  -23.9074  -10.4276   21.0437 C   0  0  0  0  0  0
  -24.3626   -9.4190   21.9204 C   0  0  0  0  0  0
  -23.6286   -8.2234   22.0756 C   0  0  0  0  0  0
  -22.4271   -8.0283   21.3542 C   0  0  0  0  0  0
  -21.9916   -9.0268   20.4651 C   0  0  0  0  0  0
  -22.7255  -10.2145   20.3068 C   0  0  0  0  0  0
  -21.6859   -6.0738   22.5279 C   0  0  0  0  0  0
  -21.4018   -6.5636   23.8211 C   0  0  0  0  0  0
  -21.3654   -5.6789   24.9167 C   0  0  0  0  0  0
  -21.6047   -4.3048   24.7222 C   0  0  0  0  0  0
  -21.8825   -3.8140   23.4334 C   0  0  0  0  0  0
  -21.9202   -4.6965   22.3392 C   0  0  0  0  0  0
  -22.7812  -13.5185   21.1856 C   0  0  0  0  0  0
  -22.1670   -4.2149   21.0972 F   0  0  0  0  0  0
  -21.5628   -3.4530   25.7728 F   0  0  0  0  0  0
  -30.0205  -13.3440   20.3756 N   0  0  0  0  0  0
  -26.2969  -12.9364   20.3401 N   0  0  0  0  0  0
  -25.9345  -11.6515   20.5888 N   0  0  0  0  0  0
  -22.0434  -12.8210   22.0412 N   0  0  0  0  0  0
  -25.3915  -15.1818   20.3708 N   0  0  0  0  0  0
  -31.9679  -14.4948   20.2964 O   0  0  0  0  0  0
  -21.6641   -6.8883   21.4237 O   0  0  0  0  0  0
  -22.3517  -14.5485   20.6680 O   0  0  0  0  0  0
  -24.6125  -31.8702   23.2117 C   0  0  0  0  0  0
  -25.9014  -32.4839   23.8416 C   0  0  1  0  0  0
  -27.2425  -27.4566   20.1007 C   0  0  0  0  0  0
  -25.5895  -33.8643   24.2352 N   0  0  0  0  0  0
  -23.4010  -30.4909   21.5514 C   0  0  2  0  0  0
  -24.8500  -28.9581   20.1177 C   0  0  0  0  0  0
  -22.7392  -29.4673   22.5015 C   0  0  0  0  0  0
  -18.0249  -28.1379   22.8505 C   0  0  0  0  0  0
  -24.1468  -36.7320   23.2639 C   0  0  0  0  0  0
  -25.9224  -30.8503   21.3527 C   0  0  0  0  0  0
  -26.0071  -29.4802   20.7086 C   0  0  0  0  0  0
  -27.2085  -28.7388   20.6915 C   0  0  0  0  0  0
  -26.0689  -26.9434   19.5047 C   0  0  0  0  0  0
  -24.8745  -27.6894   19.5123 C   0  0  0  0  0  0
  -23.6083  -29.8197   20.1662 C   0  0  0  0  0  0
  -25.4091  -36.3139   24.0345 C   0  0  1  0  0  0
  -20.5836  -28.3663   23.1327 C   0  0  2  0  0  0
  -20.6734  -26.9404   22.5425 C   0  0  0  0  0  0
  -19.5736  -26.6393   21.5198 C   0  0  0  0  0  0
  -18.1909  -26.7926   22.1616 C   0  0  0  0  0  0
  -19.1502  -28.8834   23.2911 C   0  0  0  0  0  0
  -18.9440  -30.1430   23.8931 C   0  0  0  0  0  0
  -17.6456  -30.6602   24.0556 C   0  0  0  0  0  0
  -25.9016  -34.9497   23.5143 C   0  0  0  0  0  0
  -16.5340  -29.9115   23.6316 C   0  0  0  0  0  0
  -16.7236  -28.6516   23.0357 C   0  0  0  0  0  0
  -26.4466  -31.6599   25.0709 C   0  0  0  0  0  0
  -25.3759  -31.3673   26.1473 C   0  0  0  0  0  0
  -27.0274  -30.3059   24.6014 C   0  0  0  0  0  0
  -27.6069  -32.4298   25.7465 C   0  0  0  0  0  0
  -27.5569  -37.1809   24.8470 C   0  0  0  0  0  0
  -21.4117  -29.3056   22.3757 N   0  0  0  0  0  0
  -26.4289  -37.3811   23.9410 N   0  0  0  0  0  0
  -24.6638  -31.0819   22.0997 N   0  0  0  0  0  0
  -23.4167  -28.8212   23.3049 O   0  0  0  0  0  0
  -28.4148  -26.7362   20.1040 O   0  0  0  0  0  0
  -26.5587  -34.8946   22.4701 O   0  0  0  0  0  0
  -23.5322  -32.1448   23.7523 O   0  0  0  0  0  0
  -30.4961  -19.4408   20.0948 C   0  0  0  0  0  0
  -29.9001  -18.2284   20.4891 C   0  0  0  0  0  0
  -28.6191  -18.3482   21.0625 C   0  0  0  0  0  0
  -28.6594  -20.6266   20.7420 C   0  0  0  0  0  0
  -29.3982  -16.7272   17.9329 C   0  0  0  0  0  0
  -29.6501  -25.1349   21.4798 C   0  0  0  0  0  0
  -29.5959  -23.6092   21.6357 C   0  0  0  0  0  0
  -28.1908  -24.2698   19.8049 C   0  0  0  0  0  0
  -30.6724  -16.9476   20.1895 C   0  0  1  0  0  0
  -30.5110  -16.3106   18.8485 C   0  0  2  0  0  0
  -28.3469  -25.4619   20.7584 C   0  0  2  0  0  0
  -27.8235  -17.1521   21.5289 C   0  0  0  0  0  0
  -27.9131  -21.9591   20.7753 C   0  0  0  0  0  0
  -29.8791  -20.6314   20.2122 N   0  0  0  0  0  0
  -28.0138  -19.5481   21.1812 N   0  0  0  0  0  0
  -30.0761  -15.6232   20.0519 N   0  0  0  0  0  0
  -28.4457  -15.8349   17.6995 N   0  0  0  0  0  0
  -28.8178  -23.1010   20.4808 N   0  3  2  0  0  0
  -29.3793  -17.8192   17.3724 O   0  0  0  0  0  0
  -31.4533  -12.3351   19.1463 H   0  0  0  0  0  0
  -30.2685  -11.3041   19.9034 H   0  0  0  0  0  0
  -29.7208  -11.6674   17.4770 H   0  0  0  0  0  0
  -29.7022  -13.3907   17.7119 H   0  0  0  0  0  0
  -27.8064  -11.3032   18.8407 H   0  0  0  0  0  0
  -27.3662  -12.6118   17.7813 H   0  0  0  0  0  0
  -27.6510  -14.2548   19.5428 H   0  0  0  0  0  0
  -28.6808  -12.1185   21.4462 H   0  0  0  0  0  0
  -28.5090  -13.8303   21.7711 H   0  0  0  0  0  0
  -25.2770   -9.5677   22.4782 H   0  0  0  0  0  0
  -24.0003   -7.4628   22.7467 H   0  0  0  0  0  0
  -21.0844   -8.8806   19.8952 H   0  0  0  0  0  0
  -22.3710  -10.9706   19.6182 H   0  0  0  0  0  0
  -21.2005   -7.6147   23.9712 H   0  0  0  0  0  0
  -21.1465   -6.0512   25.9074 H   0  0  0  0  0  0
  -22.0602   -2.7604   23.2837 H   0  0  0  0  0  0
  -22.4040  -11.9910   22.4878 H   0  0  0  0  0  0
  -21.1050  -13.1276   22.2581 H   0  0  0  0  0  0
  -24.5767  -15.7851   20.3999 H   0  0  0  0  0  0
  -26.1593  -15.5870   19.8531 H   0  0  0  0  0  0
  -26.7073  -32.5589   23.1186 H   0  0  0  0  0  0
  -25.0060  -33.9807   25.0505 H   0  0  0  0  0  0
  -22.6875  -31.3036   21.4094 H   0  0  0  0  0  0
  -23.3736  -35.9649   23.3340 H   0  0  0  0  0  0
  -24.3562  -36.8899   22.2048 H   0  0  0  0  0  0
  -23.7213  -37.6535   23.6621 H   0  0  0  0  0  0
  -26.0112  -31.6141   20.5787 H   0  0  0  0  0  0
  -26.8162  -30.9212   21.9598 H   0  0  0  0  0  0
  -28.1061  -29.1417   21.1405 H   0  0  0  0  0  0
  -26.0693  -25.9799   19.0192 H   0  0  0  0  0  0
  -23.9844  -27.2828   19.0532 H   0  0  0  0  0  0
  -23.7127  -30.5908   19.4025 H   0  0  0  0  0  0
  -22.7342  -29.2343   19.8745 H   0  0  0  0  0  0
  -25.1252  -36.2025   25.0838 H   0  0  0  0  0  0
  -20.9913  -28.3249   24.1453 H   0  0  0  0  0  0
  -20.5586  -26.2298   23.3627 H   0  0  0  0  0  0
  -21.6613  -26.7444   22.1252 H   0  0  0  0  0  0
  -19.6905  -25.6298   21.1246 H   0  0  0  0  0  0
  -19.6668  -27.3179   20.6711 H   0  0  0  0  0  0
  -17.4166  -26.6656   21.4033 H   0  0  0  0  0  0
  -18.0335  -26.0056   22.9006 H   0  0  0  0  0  0
  -19.7921  -30.7204   24.2370 H   0  0  0  0  0  0
  -17.5017  -31.6287   24.5133 H   0  0  0  0  0  0
  -15.5338  -30.3023   23.7616 H   0  0  0  0  0  0
  -15.8637  -28.0814   22.7097 H   0  0  0  0  0  0
  -24.5959  -30.6982   25.7812 H   0  0  0  0  0  0
  -24.8913  -32.2804   26.4939 H   0  0  0  0  0  0
  -25.8158  -30.8857   27.0210 H   0  0  0  0  0  0
  -26.2777  -29.6844   24.1106 H   0  0  0  0  0  0
  -27.4112  -29.7281   25.4421 H   0  0  0  0  0  0
  -27.8572  -30.4389   23.9078 H   0  0  0  0  0  0
  -27.2712  -33.3586   26.2084 H   0  0  0  0  0  0
  -28.3860  -32.6870   25.0277 H   0  0  0  0  0  0
  -28.0741  -31.8384   26.5345 H   0  0  0  0  0  0
  -28.2610  -38.0084   24.7508 H   0  0  0  0  0  0
  -28.1053  -36.2627   24.6312 H   0  0  0  0  0  0
  -27.2303  -37.1467   25.8880 H   0  0  0  0  0  0
  -20.9292  -29.8789   21.6974 H   0  0  0  0  0  0
  -26.0204  -38.2895   24.1447 H   0  0  0  0  0  0
  -31.4721  -19.4502   19.6314 H   0  0  0  0  0  0
  -30.4996  -25.4170   20.8587 H   0  0  0  0  0  0
  -29.7492  -25.6535   22.4326 H   0  0  0  0  0  0
  -29.1049  -23.3557   22.5770 H   0  0  0  0  0  0
  -30.5923  -23.1641   21.6627 H   0  0  0  0  0  0
  -28.7477  -24.4637   18.8865 H   0  0  0  0  0  0
  -27.1527  -24.0989   19.5264 H   0  0  0  0  0  0
  -31.6837  -17.0243   20.5867 H   0  0  0  0  0  0
  -31.4239  -15.9844   18.3483 H   0  0  0  0  0  0
  -27.5421  -25.4465   21.4980 H   0  0  0  0  0  0
  -28.3680  -16.6018   22.2949 H   0  0  0  0  0  0
  -27.6514  -16.4833   20.6889 H   0  0  0  0  0  0
  -26.8525  -17.4421   21.9320 H   0  0  0  0  0  0
  -27.3909  -22.0893   21.7228 H   0  0  0  0  0  0
  -27.1481  -21.8891   20.0020 H   0  0  0  0  0  0
  -28.4927  -14.9252   18.1257 H   0  0  0  0  0  0
  -27.6911  -16.0573   17.0653 H   0  0  0  0  0  0
  -29.4832  -22.6568   19.8568 H   0  0  0  0  0  0
  1 25  1  0  0  0
  1 30  2  0  0  0
  1 86  1  0  0  0
  2  3  1  0  0  0
  2 25  1  0  0  0
  2 90  1  0  0  0
  2 91  1  0  0  0
  3  4  1  0  0  0
  3 92  1  0  0  0
  3 93  1  0  0  0
  4  5  1  0  0  0
  4 94  1  0  0  0
  4 95  1  0  0  0
  5  6  1  0  0  0
  5 26  1  0  0  0
  5 96  1  0  0  0
  6 25  1  0  0  0
  6 97  1  0  0  0
  6 98  1  0  0  0
  7  8  2  0  0  0
  7 26  1  0  0  0
  7 29  1  0  0  0
  8  9  1  0  0  0
  8 22  1  0  0  0
  9 10  1  0  0  0
  9 27  2  0  0  0
 10 11  2  0  0  0
 10 15  1  0  0  0
 11 12  1  0  0  0
 11 99  1  0  0  0
 12 13  2  0  0  0
 12100  1  0  0  0
 13 14  1  0  0  0
 13 31  1  0  0  0
 14 15  2  0  0  0
 14101  1  0  0  0
 15102  1  0  0  0
 16 17  2  0  0  0
 16 21  1  0  0  0
 16 31  1  0  0  0
 17 18  1  0  0  0
 17103  1  0  0  0
 18 19  2  0  0  0
 18104  1  0  0  0
 19 20  1  0  0  0
 19 24  1  0  0  0
 20 21  2  0  0  0
 20105  1  0  0  0
 21 23  1  0  0  0
 22 28  1  0  0  0
 22 32  2  0  0  0
 26 27  1  0  0  0
 28106  1  0  0  0
 28107  1  0  0  0
 29108  1  0  0  0
 29109  1  0  0  0
 33 34  1  0  0  0
 33 66  1  0  0  0
 33 70  2  0  0  0
 34 36  1  0  0  0
 34 59  1  0  0  0
 34110  1  0  0  0
 35 44  2  0  0  0
 35 45  1  0  0  0
 35 68  1  0  0  0
 36 56  1  0  0  0
 36111  1  0  0  0
 37 39  1  0  0  0
 37 47  1  0  0  0
 37 66  1  0  0  0
 37112  1  0  0  0
 38 43  2  0  0  0
 38 46  1  0  0  0
 38 47  1  0  0  0
 39 64  1  0  0  0
 39 67  2  0  0  0
 40 52  1  0  0  0
 40 53  2  0  0  0
 40 58  1  0  0  0
 41113  1  0  0  0
 41114  1  0  0  0
 41115  1  0  0  0
 41 48  1  0  0  0
 42 43  1  0  0  0
 42 66  1  0  0  0
 42116  1  0  0  0
 42117  1  0  0  0
 43 44  1  0  0  0
 44118  1  0  0  0
 45 46  2  0  0  0
 45119  1  0  0  0
 46120  1  0  0  0
 47121  1  0  0  0
 47122  1  0  0  0
 48 56  1  0  0  0
 48 65  1  0  0  0
 48123  1  0  0  0
 49 50  1  0  0  0
 49 53  1  0  0  0
 49 64  1  0  0  0
 49124  1  0  0  0
 50 51  1  0  0  0
 50125  1  0  0  0
 50126  1  0  0  0
 51 52  1  0  0  0
 51127  1  0  0  0
 51128  1  0  0  0
 52129  1  0  0  0
 52130  1  0  0  0
 53 54  1  0  0  0
 54 55  2  0  0  0
 54131  1  0  0  0
 55 57  1  0  0  0
 55132  1  0  0  0
 56 69  2  0  0  0
 57 58  2  0  0  0
 57133  1  0  0  0
 58134  1  0  0  0
 59 60  1  0  0  0
 59 61  1  0  0  0
 59 62  1  0  0  0
 60135  1  0  0  0
 60136  1  0  0  0
 60137  1  0  0  0
 61138  1  0  0  0
 61139  1  0  0  0
 61140  1  0  0  0
 62141  1  0  0  0
 62142  1  0  0  0
 62143  1  0  0  0
 63 65  1  0  0  0
 63144  1  0  0  0
 63145  1  0  0  0
 63146  1  0  0  0
 64147  1  0  0  0
 65148  1  0  0  0
 68 81  1  0  0  0
 71 72  2  0  0  0
 71 84  1  0  0  0
 71149  1  0  0  0
 72 73  1  0  0  0
 72 79  1  0  0  0
 73 82  1  0  0  0
 73 85  2  0  0  0
 74 83  1  0  0  0
 74 84  2  0  0  0
 74 85  1  0  0  0
 75 87  1  0  0  0
 75 89  2  0  0  0
 75 80  1  0  0  0
 76 77  1  0  0  0
 76 81  1  0  0  0
 76150  1  0  0  0
 76151  1  0  0  0
 77 88  1  0  0  0
 77152  1  0  0  0
 77153  1  0  0  0
 78 81  1  0  0  0
 78 88  1  0  0  0
 78154  1  0  0  0
 78155  1  0  0  0
 79 80  1  0  0  0
 79 86  1  0  0  0
 79156  1  0  0  0
 80 86  1  0  0  0
 80157  1  0  0  0
 81158  1  0  0  0
 82159  1  0  0  0
 82160  1  0  0  0
 82161  1  0  0  0
 83162  1  0  0  0
 83163  1  0  0  0
 83 88  1  0  0  0
 87164  1  0  0  0
 87165  1  0  0  0
 88166  1  0  0  0
M  CHG  1  88   1
M  ISO  4   1 100  68 101  81 101  86 100
M  END
> <chiral flag>
0

> <version>
0

> <s_m_source_file>
/data/baiqing/PycharmProjects/Reinvent-master-3.2/result/LINK_invent/BTK/process_docking_weight1_custom_sum_contain_oxygen_bond_distance_aromatic_linkinvent_7_9_3/rearranged_h_0191.sdf

> <i_m_source_file_index>
63

> <r_mmod_Potential_Energy-OPLS-2005>
-460.591949462891

> <r_mmod_Stretch_Energy-OPLS-2005>
38.3825531005859

> <r_mmod_Bend_Energy-OPLS-2005>
148.110229492188

> <r_mmod_Torsional_Energy-OPLS-2005>
387.164703369141

> <r_mmod_Improper_Torsional_Energy-OPLS-2005>
24.6544551849365

> <r_mmod_Van_der_Waal_Energy-OPLS-2005>
154.037704467773

> <r_mmod_Electrostatic_Energy-OPLS-2005>
-813.675231933594

> <r_mmod_Solvation_Energy-OPLS-2005>
-433.769744873047

> <b_mmod_Minimization_Converged-OPLS-2005>
0

> <r_mmod_RMS_Derivative-OPLS-2005>
3.98567986488342

$$$$
63
                    3D
 Structure written by MMmdl.
161171  0  0  1  0            999 V2000
  -30.6685  -14.8076   20.4302 C   0  0  0  0  0  0
  -30.4110  -12.5112   19.4603 C   0  0  0  0  0  0
  -29.4896  -12.5074   18.2247 C   0  0  0  0  0  0
  -28.0224  -12.3219   18.6524 C   0  0  0  0  0  0
  -27.6260  -13.2409   19.8391 C   0  0  2  0  0  0
  -28.6835  -13.2400   20.9635 C   0  0  0  0  0  0
  -25.2441  -13.8208   20.5733 C   0  0  0  0  0  0
  -24.1754  -13.0435   20.9240 C   0  0  0  0  0  0
  -24.6365  -11.6924   20.8783 C   0  0  0  0  0  0
  -23.9058  -10.4290   21.0416 C   0  0  0  0  0  0
  -24.3608   -9.4204   21.9195 C   0  0  0  0  0  0
  -23.6292   -8.2236   22.0753 C   0  0  0  0  0  0
  -22.4279   -8.0267   21.3534 C   0  0  0  0  0  0
  -21.9906   -9.0247   20.4644 C   0  0  0  0  0  0
  -22.7229  -10.2134   20.3064 C   0  0  0  0  0  0
  -21.6848   -6.0721   22.5277 C   0  0  0  0  0  0
  -21.4006   -6.5630   23.8209 C   0  0  0  0  0  0
  -21.3662   -5.6788   24.9176 C   0  0  0  0  0  0
  -21.6055   -4.3053   24.7223 C   0  0  0  0  0  0
  -21.8820   -3.8132   23.4343 C   0  0  0  0  0  0
  -21.9186   -4.6944   22.3398 C   0  0  0  0  0  0
  -22.7781  -13.5225   21.1881 C   0  0  0  0  0  0
  -22.1661   -4.2130   21.0975 F   0  0  0  0  0  0
  -21.5634   -3.4538   25.7735 F   0  0  0  0  0  0
  -29.9548  -13.6228   20.3376 N   0  0  0  0  0  0
  -26.2867  -12.9431   20.3305 N   0  0  0  0  0  0
  -25.9297  -11.6568   20.5793 N   0  0  0  0  0  0
  -22.0414  -12.8237   22.0438 N   0  0  0  0  0  0
  -25.4098  -15.1930   20.4126 N   0  0  0  0  0  0
  -31.8868  -14.7240   20.2433 O   0  0  0  0  0  0
  -21.6638   -6.8864   21.4237 O   0  0  0  0  0  0
  -22.3482  -14.5534   20.6714 O   0  0  0  0  0  0
  -24.6342  -31.8521   23.1945 C   0  0  0  0  0  0
  -25.9152  -32.4737   23.8316 C   0  0  1  0  0  0
  -27.2236  -27.2292   20.1423 C   0  0  0  0  0  0
  -25.5934  -33.8545   24.2235 N   0  0  0  0  0  0
  -23.4344  -30.4715   21.5384 C   0  0  2  0  0  0
  -24.8862  -28.9111   20.1133 C   0  0  0  0  0  0
  -22.7526  -29.4581   22.4903 C   0  0  0  0  0  0
  -18.0293  -28.1376   22.8480 C   0  0  0  0  0  0
  -24.1484  -36.7280   23.2634 C   0  0  0  0  0  0
  -25.9829  -30.7555   21.3805 C   0  0  0  0  0  0
  -26.0597  -29.3735   20.7252 C   0  0  0  0  0  0
  -27.2355  -28.5472   20.7238 C   0  0  0  0  0  0
  -26.0297  -26.8431   19.4984 C   0  0  0  0  0  0
  -24.8787  -27.6561   19.4854 C   0  0  0  0  0  0
  -23.6574  -29.8007   20.1571 C   0  0  0  0  0  0
  -25.4107  -36.3060   24.0327 C   0  0  1  0  0  0
  -20.5903  -28.3697   23.1255 C   0  0  2  0  0  0
  -20.6780  -26.9412   22.5407 C   0  0  0  0  0  0
  -19.5757  -26.6374   21.5210 C   0  0  0  0  0  0
  -18.1936  -26.7918   22.1618 C   0  0  0  0  0  0
  -19.1550  -28.8855   23.2862 C   0  0  0  0  0  0
  -18.9468  -30.1451   23.8886 C   0  0  0  0  0  0
  -17.6465  -30.6582   24.0547 C   0  0  0  0  0  0
  -25.9062  -34.9436   23.5091 C   0  0  0  0  0  0
  -16.5355  -29.9071   23.6329 C   0  0  0  0  0  0
  -16.7278  -28.6485   23.0357 C   0  0  0  0  0  0
  -26.4509  -31.6569   25.0722 C   0  0  0  0  0  0
  -25.3717  -31.3739   26.1432 C   0  0  0  0  0  0
  -27.0352  -30.2968   24.6244 C   0  0  0  0  0  0
  -27.6050  -32.4324   25.7505 C   0  0  0  0  0  0
  -27.5591  -37.1762   24.8440 C   0  0  0  0  0  0
  -21.4231  -29.3037   22.3643 N   0  0  0  0  0  0
  -26.4262  -37.3780   23.9445 N   0  0  0  0  0  0
  -24.7027  -31.0453   22.0937 N   0  0  0  0  0  0
  -23.4213  -28.8141   23.3026 O   0  0  0  0  0  0
  -28.2830  -26.2827   20.1582 O   0  0  0  0  0  0
  -26.5645  -34.8913   22.4659 O   0  0  0  0  0  0
  -23.5483  -32.1364   23.7217 O   0  0  0  0  0  0
  -30.1288  -21.6660   19.9697 C   0  0  0  0  0  0
  -29.8193  -23.0776   20.0541 C   0  0  0  0  0  0
  -28.5213  -23.4828   20.4965 C   0  0  0  0  0  0
  -29.1861  -20.6551   20.3446 C   0  0  0  0  0  0
  -32.3341  -23.8723   19.8994 C   0  0  0  0  0  0
  -31.5939  -24.8722   20.7552 C   0  0  0  0  0  0
  -30.7735  -18.6404   20.1367 C   0  0  0  0  0  0
  -28.5904  -18.2159   21.0258 C   0  0  0  0  0  0
  -30.8023  -17.1803   19.5442 C   0  0  0  0  0  0
  -28.7458  -16.6470   20.6744 C   0  0  0  0  0  0
  -30.8517  -24.1030   19.6881 C   0  0  0  0  0  0
  -28.0219  -24.9792   20.8874 C   0  0  0  0  0  0
  -27.6623  -22.4588   20.8312 N   0  0  0  0  0  0
  -27.9705  -21.1293   20.7599 N   0  0  0  0  0  0
  -29.4224  -19.2020   20.2864 N   0  0  0  0  0  0
  -30.0857  -16.0942   20.2926 N   0  0  0  0  0  0
  -31.4474  -12.6200   19.1394 H   0  0  0  0  0  0
  -30.3631  -11.5538   19.9823 H   0  0  0  0  0  0
  -29.7834  -11.7189   17.5306 H   0  0  0  0  0  0
  -29.5970  -13.4478   17.6819 H   0  0  0  0  0  0
  -27.8932  -11.2772   18.9362 H   0  0  0  0  0  0
  -27.3563  -12.4891   17.8044 H   0  0  0  0  0  0
  -27.5937  -14.2465   19.4244 H   0  0  0  0  0  0
  -28.7587  -12.2560   21.4283 H   0  0  0  0  0  0
  -28.4151  -13.9261   21.7641 H   0  0  0  0  0  0
  -25.2735   -9.5704   22.4794 H   0  0  0  0  0  0
  -23.9987   -7.4634   22.7488 H   0  0  0  0  0  0
  -21.0823   -8.8775   19.8976 H   0  0  0  0  0  0
  -22.3661  -10.9680   19.6196 H   0  0  0  0  0  0
  -21.2002   -7.6140   23.9708 H   0  0  0  0  0  0
  -21.1494   -6.0516   25.9084 H   0  0  0  0  0  0
  -22.0599   -2.7591   23.2843 H   0  0  0  0  0  0
  -22.4002  -11.9890   22.4833 H   0  0  0  0  0  0
  -21.1048  -13.1309   22.2653 H   0  0  0  0  0  0
  -24.6403  -15.8439   20.5234 H   0  0  0  0  0  0
  -26.2523  -15.6306   20.0660 H   0  0  0  0  0  0
  -26.7227  -32.5388   23.1068 H   0  0  0  0  0  0
  -25.0019  -33.9679   25.0338 H   0  0  0  0  0  0
  -22.7321  -31.2942   21.3874 H   0  0  0  0  0  0
  -23.3772  -35.9582   23.3227 H   0  0  0  0  0  0
  -24.3587  -36.8976   22.2062 H   0  0  0  0  0  0
  -23.7199  -37.6440   23.6706 H   0  0  0  0  0  0
  -26.1242  -31.5156   20.6110 H   0  0  0  0  0  0
  -26.8586  -30.8069   22.0161 H   0  0  0  0  0  0
  -28.1344  -28.8968   21.2126 H   0  0  0  0  0  0
  -25.9767  -25.8762   19.0166 H   0  0  0  0  0  0
  -23.9829  -27.3003   18.9951 H   0  0  0  0  0  0
  -23.7838  -30.5741   19.3986 H   0  0  0  0  0  0
  -22.7761  -29.2336   19.8513 H   0  0  0  0  0  0
  -25.1279  -36.1878   25.0816 H   0  0  0  0  0  0
  -20.9982  -28.3271   24.1379 H   0  0  0  0  0  0
  -20.5655  -26.2317   23.3620 H   0  0  0  0  0  0
  -21.6646  -26.7417   22.1213 H   0  0  0  0  0  0
  -19.6916  -25.6281   21.1248 H   0  0  0  0  0  0
  -19.6683  -27.3170   20.6731 H   0  0  0  0  0  0
  -17.4206  -26.6659   21.4019 H   0  0  0  0  0  0
  -18.0334  -26.0057   22.9013 H   0  0  0  0  0  0
  -19.7949  -30.7260   24.2254 H   0  0  0  0  0  0
  -17.5024  -31.6262   24.5143 H   0  0  0  0  0  0
  -15.5352  -30.2960   23.7670 H   0  0  0  0  0  0
  -15.8683  -28.0790   22.7084 H   0  0  0  0  0  0
  -24.5875  -30.7116   25.7749 H   0  0  0  0  0  0
  -24.8928  -32.2915   26.4858 H   0  0  0  0  0  0
  -25.8008  -30.8898   27.0211 H   0  0  0  0  0  0
  -26.2938  -29.6712   24.1262 H   0  0  0  0  0  0
  -27.3984  -29.7246   25.4790 H   0  0  0  0  0  0
  -27.8844  -30.4214   23.9527 H   0  0  0  0  0  0
  -27.2637  -33.3613   26.2089 H   0  0  0  0  0  0
  -28.3854  -32.6907   25.0338 H   0  0  0  0  0  0
  -28.0732  -31.8453   26.5414 H   0  0  0  0  0  0
  -28.2514  -38.0155   24.7629 H   0  0  0  0  0  0
  -28.1180  -36.2694   24.6069 H   0  0  0  0  0  0
  -27.2344  -37.1170   25.8843 H   0  0  0  0  0  0
  -20.9434  -29.8745   21.6827 H   0  0  0  0  0  0
  -26.0130  -38.2829   24.1531 H   0  0  0  0  0  0
  -31.1068  -21.3739   19.6228 H   0  0  0  0  0  0
  -32.6668  -22.9605   20.3916 H   0  0  0  0  0  0
  -33.0210  -24.2746   19.1562 H   0  0  0  0  0  0
  -31.7994  -25.9250   20.5721 H   0  0  0  0  0  0
  -31.4229  -24.6024   21.7956 H   0  0  0  0  0  0
  -31.3671  -19.2754   19.4802 H   0  0  0  0  0  0
  -31.2731  -18.6548   21.1069 H   0  0  0  0  0  0
  -28.8122  -18.3514   22.0856 H   0  0  0  0  0  0
  -27.5396  -18.4902   20.9172 H   0  0  0  0  0  0
  -31.8535  -16.9353   19.3936 H   0  0  0  0  0  0
  -30.3822  -17.2035   18.5374 H   0  0  0  0  0  0
  -28.0979  -16.4492   19.8208 H   0  0  0  0  0  0
  -28.3318  -16.0770   21.5038 H   0  0  0  0  0  0
  -30.5578  -24.6412   18.7877 H   0  0  0  0  0  0
  -28.4249  -25.1444   21.8876 H   0  0  0  0  0  0
  -26.9482  -24.8931   21.0547 H   0  0  0  0  0  0
  1 25  1  0  0  0
  1 30  2  0  0  0
  1 86  1  0  0  0
  2  3  1  0  0  0
  2 25  1  0  0  0
  2 87  1  0  0  0
  2 88  1  0  0  0
  3  4  1  0  0  0
  3 89  1  0  0  0
  3 90  1  0  0  0
  4  5  1  0  0  0
  4 91  1  0  0  0
  4 92  1  0  0  0
  5  6  1  0  0  0
  5 26  1  0  0  0
  5 93  1  0  0  0
  6 25  1  0  0  0
  6 94  1  0  0  0
  6 95  1  0  0  0
  7  8  2  0  0  0
  7 26  1  0  0  0
  7 29  1  0  0  0
  8  9  1  0  0  0
  8 22  1  0  0  0
  9 10  1  0  0  0
  9 27  2  0  0  0
 10 11  2  0  0  0
 10 15  1  0  0  0
 11 12  1  0  0  0
 11 96  1  0  0  0
 12 13  2  0  0  0
 12 97  1  0  0  0
 13 14  1  0  0  0
 13 31  1  0  0  0
 14 15  2  0  0  0
 14 98  1  0  0  0
 15 99  1  0  0  0
 16 17  2  0  0  0
 16 21  1  0  0  0
 16 31  1  0  0  0
 17 18  1  0  0  0
 17100  1  0  0  0
 18 19  2  0  0  0
 18101  1  0  0  0
 19 20  1  0  0  0
 19 24  1  0  0  0
 20 21  2  0  0  0
 20102  1  0  0  0
 21 23  1  0  0  0
 22 28  1  0  0  0
 22 32  2  0  0  0
 26 27  1  0  0  0
 28103  1  0  0  0
 28104  1  0  0  0
 29105  1  0  0  0
 29106  1  0  0  0
 33 34  1  0  0  0
 33 66  1  0  0  0
 33 70  2  0  0  0
 34 36  1  0  0  0
 34 59  1  0  0  0
 34107  1  0  0  0
 35 44  2  0  0  0
 35 45  1  0  0  0
 35 68  1  0  0  0
 36 56  1  0  0  0
 36108  1  0  0  0
 37 39  1  0  0  0
 37 47  1  0  0  0
 37 66  1  0  0  0
 37109  1  0  0  0
 38 43  2  0  0  0
 38 46  1  0  0  0
 38 47  1  0  0  0
 39 64  1  0  0  0
 39 67  2  0  0  0
 40 52  1  0  0  0
 40 53  2  0  0  0
 40 58  1  0  0  0
 41110  1  0  0  0
 41111  1  0  0  0
 41112  1  0  0  0
 41 48  1  0  0  0
 42 43  1  0  0  0
 42 66  1  0  0  0
 42113  1  0  0  0
 42114  1  0  0  0
 43 44  1  0  0  0
 44115  1  0  0  0
 45 46  2  0  0  0
 45116  1  0  0  0
 46117  1  0  0  0
 47118  1  0  0  0
 47119  1  0  0  0
 48 56  1  0  0  0
 48 65  1  0  0  0
 48120  1  0  0  0
 49 50  1  0  0  0
 49 53  1  0  0  0
 49 64  1  0  0  0
 49121  1  0  0  0
 50 51  1  0  0  0
 50122  1  0  0  0
 50123  1  0  0  0
 51 52  1  0  0  0
 51124  1  0  0  0
 51125  1  0  0  0
 52126  1  0  0  0
 52127  1  0  0  0
 53 54  1  0  0  0
 54 55  2  0  0  0
 54128  1  0  0  0
 55 57  1  0  0  0
 55129  1  0  0  0
 56 69  2  0  0  0
 57 58  2  0  0  0
 57130  1  0  0  0
 58131  1  0  0  0
 59 60  1  0  0  0
 59 61  1  0  0  0
 59 62  1  0  0  0
 60132  1  0  0  0
 60133  1  0  0  0
 60134  1  0  0  0
 61135  1  0  0  0
 61136  1  0  0  0
 61137  1  0  0  0
 62138  1  0  0  0
 62139  1  0  0  0
 62140  1  0  0  0
 63 65  1  0  0  0
 63141  1  0  0  0
 63142  1  0  0  0
 63143  1  0  0  0
 64144  1  0  0  0
 65145  1  0  0  0
 68 82  1  0  0  0
 71 72  2  0  0  0
 71 74  1  0  0  0
 71146  1  0  0  0
 72 73  1  0  0  0
 72 81  1  0  0  0
 73 82  1  0  0  0
 73 83  2  0  0  0
 74 84  2  0  0  0
 74 85  1  0  0  0
 75 76  1  0  0  0
 75 81  1  0  0  0
 75147  1  0  0  0
 75148  1  0  0  0
 76 81  1  0  0  0
 76149  1  0  0  0
 76150  1  0  0  0
 77 79  1  0  0  0
 77 85  1  0  0  0
 77151  1  0  0  0
 77152  1  0  0  0
 78 80  1  0  0  0
 78 85  1  0  0  0
 78153  1  0  0  0
 78154  1  0  0  0
 79 86  1  0  0  0
 79155  1  0  0  0
 79156  1  0  0  0
 80 86  1  0  0  0
 80157  1  0  0  0
 80158  1  0  0  0
 81159  1  0  0  0
 82160  1  0  0  0
 82161  1  0  0  0
 83 84  1  0  0  0
M  ISO  4   1 100  68 101  82 101  86 100
M  END
> <chiral flag>
0

> <version>
0

> <s_m_source_file>
/data/baiqing/PycharmProjects/Reinvent-master-3.2/result/LINK_invent/BTK/process_docking_weight1_custom_sum_contain_oxygen_bond_distance_aromatic_linkinvent_7_9_3/rearranged_h_0191.sdf

> <i_m_source_file_index>
64

> <r_mmod_Potential_Energy-OPLS-2005>
526.185729980469

> <r_mmod_Stretch_Energy-OPLS-2005>
147.557052612305

> <r_mmod_Bend_Energy-OPLS-2005>
248.795272827148

> <r_mmod_Torsional_Energy-OPLS-2005>
377.890655517578

> <r_mmod_Improper_Torsional_Energy-OPLS-2005>
16.2538261413574

> <r_mmod_Van_der_Waal_Energy-OPLS-2005>
144.040679931641

> <r_mmod_Electrostatic_Energy-OPLS-2005>
-291.403076171875

> <r_mmod_Solvation_Energy-OPLS-2005>
-236.209411621094

> <b_mmod_Minimization_Converged-OPLS-2005>
0

> <r_mmod_RMS_Derivative-OPLS-2005>
1.82525527477264

$$$$
64
                    3D
 Structure written by MMmdl.
159168  0  0  1  0            999 V2000
  -30.6488  -14.5848   20.4633 C   0  0  0  0  0  0
  -30.4309  -12.3488   19.4465 C   0  0  0  0  0  0
  -29.5030  -12.4734   18.2198 C   0  0  0  0  0  0
  -28.0227  -12.3287   18.6334 C   0  0  0  0  0  0
  -27.6475  -13.2070   19.8576 C   0  0  2  0  0  0
  -28.6960  -13.0843   20.9860 C   0  0  0  0  0  0
  -25.2559  -13.8147   20.5695 C   0  0  0  0  0  0
  -24.1822  -13.0424   20.9207 C   0  0  0  0  0  0
  -24.6385  -11.6894   20.8765 C   0  0  0  0  0  0
  -23.9057  -10.4278   21.0420 C   0  0  0  0  0  0
  -24.3623   -9.4191   21.9185 C   0  0  0  0  0  0
  -23.6300   -8.2227   22.0742 C   0  0  0  0  0  0
  -22.4279   -8.0274   21.3540 C   0  0  0  0  0  0
  -21.9909   -9.0251   20.4644 C   0  0  0  0  0  0
  -22.7234  -10.2131   20.3061 C   0  0  0  0  0  0
  -21.6854   -6.0735   22.5278 C   0  0  0  0  0  0
  -21.4016   -6.5638   23.8213 C   0  0  0  0  0  0
  -21.3659   -5.6788   24.9174 C   0  0  0  0  0  0
  -21.6050   -4.3052   24.7222 C   0  0  0  0  0  0
  -21.8820   -3.8147   23.4339 C   0  0  0  0  0  0
  -21.9194   -4.6964   22.3401 C   0  0  0  0  0  0
  -22.7844  -13.5227   21.1850 C   0  0  0  0  0  0
  -22.1656   -4.2150   21.0977 F   0  0  0  0  0  0
  -21.5630   -3.4535   25.7733 F   0  0  0  0  0  0
  -30.0116  -13.3816   20.4057 N   0  0  0  0  0  0
  -26.2965  -12.9305   20.3329 N   0  0  0  0  0  0
  -25.9309  -11.6474   20.5795 N   0  0  0  0  0  0
  -22.0472  -12.8240   22.0413 N   0  0  0  0  0  0
  -25.4288  -15.1872   20.4089 N   0  0  0  0  0  0
  -31.8563  -14.6995   20.2302 O   0  0  0  0  0  0
  -21.6637   -6.8881   21.4238 O   0  0  0  0  0  0
  -22.3539  -14.5526   20.6677 O   0  0  0  0  0  0
  -24.6178  -31.8642   23.2065 C   0  0  0  0  0  0
  -25.9049  -32.4803   23.8374 C   0  0  1  0  0  0
  -27.2229  -27.3857   20.1135 C   0  0  0  0  0  0
  -25.5897  -33.8605   24.2302 N   0  0  0  0  0  0
  -23.4091  -30.4870   21.5468 C   0  0  2  0  0  0
  -24.8560  -28.9462   20.1152 C   0  0  0  0  0  0
  -22.7431  -29.4635   22.4956 C   0  0  0  0  0  0
  -18.0274  -28.1377   22.8486 C   0  0  0  0  0  0
  -24.1489  -36.7306   23.2638 C   0  0  0  0  0  0
  -25.9428  -30.8148   21.3681 C   0  0  0  0  0  0
  -26.0190  -29.4451   20.7173 C   0  0  0  0  0  0
  -27.2091  -28.6730   20.7115 C   0  0  0  0  0  0
  -26.0482  -26.9163   19.4948 C   0  0  0  0  0  0
  -24.8678  -27.6834   19.4985 C   0  0  0  0  0  0
  -23.6209  -29.8192   20.1620 C   0  0  0  0  0  0
  -25.4108  -36.3097   24.0332 C   0  0  1  0  0  0
  -20.5870  -28.3663   23.1302 C   0  0  2  0  0  0
  -20.6759  -26.9391   22.5417 C   0  0  0  0  0  0
  -19.5742  -26.6378   21.5209 C   0  0  0  0  0  0
  -18.1920  -26.7925   22.1614 C   0  0  0  0  0  0
  -19.1527  -28.8835   23.2893 C   0  0  0  0  0  0
  -18.9455  -30.1441   23.8906 C   0  0  0  0  0  0
  -17.6457  -30.6580   24.0565 C   0  0  0  0  0  0
  -25.9035  -34.9464   23.5116 C   0  0  0  0  0  0
  -16.5345  -29.9084   23.6327 C   0  0  0  0  0  0
  -16.7264  -28.6501   23.0344 C   0  0  0  0  0  0
  -26.4466  -31.6606   25.0725 C   0  0  0  0  0  0
  -25.3729  -31.3745   26.1482 C   0  0  0  0  0  0
  -27.0303  -30.3042   24.6131 C   0  0  0  0  0  0
  -27.6029  -32.4347   25.7486 C   0  0  0  0  0  0
  -27.5587  -37.1799   24.8453 C   0  0  0  0  0  0
  -21.4151  -29.3030   22.3706 N   0  0  0  0  0  0
  -26.4288  -37.3787   23.9415 N   0  0  0  0  0  0
  -24.6750  -31.0712   22.0982 N   0  0  0  0  0  0
  -23.4188  -28.8157   23.2994 O   0  0  0  0  0  0
  -28.3554  -26.5906   20.0955 O   0  0  0  0  0  0
  -26.5601  -34.8923   22.4679 O   0  0  0  0  0  0
  -23.5357  -32.1409   23.7431 O   0  0  0  0  0  0
  -29.7676  -17.7878   19.0727 C   0  0  0  0  0  0
  -30.4720  -21.3179   19.8533 C   0  0  0  0  0  0
  -29.7181  -16.2539   18.9603 C   0  0  0  0  0  0
  -29.7808  -16.8400   21.2442 C   0  0  0  0  0  0
  -29.3670  -22.0402   20.6003 C   0  0  2  0  0  0
  -29.1738  -18.0443   20.4492 C   0  0  1  0  0  0
  -29.1727  -20.5879   20.0693 C   0  0  2  0  0  0
  -27.8620  -24.0683   20.5391 C   0  0  0  0  0  0
  -28.3700  -25.4753   21.0257 C   0  0  0  0  0  0
  -29.8325  -15.6766   20.3169 N   0  0  0  0  0  0
  -28.8609  -23.2203   19.8620 N   0  0  0  0  0  0
  -29.3523  -19.4311   21.0154 N   0  3  0  0  0  0
  -31.4730  -12.4627   19.1430 H   0  0  0  0  0  0
  -30.3522  -11.3581   19.8972 H   0  0  0  0  0  0
  -29.7574  -11.7118   17.4813 H   0  0  0  0  0  0
  -29.6585  -13.4368   17.7318 H   0  0  0  0  0  0
  -27.8514  -11.2778   18.8705 H   0  0  0  0  0  0
  -27.3711  -12.5565   17.7884 H   0  0  0  0  0  0
  -27.6511  -14.2357   19.5072 H   0  0  0  0  0  0
  -28.6916  -12.0812   21.4150 H   0  0  0  0  0  0
  -28.4658  -13.7721   21.8027 H   0  0  0  0  0  0
  -25.2767   -9.5669   22.4763 H   0  0  0  0  0  0
  -24.0018   -7.4615   22.7452 H   0  0  0  0  0  0
  -21.0838   -8.8775   19.8953 H   0  0  0  0  0  0
  -22.3690  -10.9682   19.6185 H   0  0  0  0  0  0
  -21.2001   -7.6144   23.9719 H   0  0  0  0  0  0
  -21.1485   -6.0512   25.9079 H   0  0  0  0  0  0
  -22.0602   -2.7607   23.2839 H   0  0  0  0  0  0
  -22.4090  -11.9932   22.4864 H   0  0  0  0  0  0
  -21.1076  -13.1267   22.2572 H   0  0  0  0  0  0
  -24.6612  -15.8419   20.5126 H   0  0  0  0  0  0
  -26.2819  -15.6226   20.0821 H   0  0  0  0  0  0
  -26.7118  -32.5498   23.1130 H   0  0  0  0  0  0
  -25.0059  -33.9767   25.0457 H   0  0  0  0  0  0
  -22.6995  -31.3048   21.4048 H   0  0  0  0  0  0
  -23.3756  -35.9633   23.3278 H   0  0  0  0  0  0
  -24.3592  -36.8947   22.2059 H   0  0  0  0  0  0
  -23.7236  -37.6498   23.6673 H   0  0  0  0  0  0
  -26.0651  -31.5783   20.5983 H   0  0  0  0  0  0
  -26.8270  -30.8665   21.9917 H   0  0  0  0  0  0
  -28.1077  -29.0519   21.1779 H   0  0  0  0  0  0
  -26.0415  -25.9553   19.0022 H   0  0  0  0  0  0
  -23.9767  -27.2972   19.0230 H   0  0  0  0  0  0
  -23.7349  -30.5943   19.4031 H   0  0  0  0  0  0
  -22.7437  -29.2428   19.8625 H   0  0  0  0  0  0
  -25.1289  -36.1948   25.0826 H   0  0  0  0  0  0
  -20.9970  -28.3235   24.1420 H   0  0  0  0  0  0
  -20.5642  -26.2273   23.3608 H   0  0  0  0  0  0
  -21.6629  -26.7413   22.1220 H   0  0  0  0  0  0
  -19.6897  -25.6291   21.1231 H   0  0  0  0  0  0
  -19.6692  -27.3193   20.6745 H   0  0  0  0  0  0
  -17.4191  -26.6679   21.4014 H   0  0  0  0  0  0
  -18.0312  -26.0066   22.9007 H   0  0  0  0  0  0
  -19.7932  -30.7253   24.2282 H   0  0  0  0  0  0
  -17.5011  -31.6264   24.5161 H   0  0  0  0  0  0
  -15.5345  -30.2985   23.7650 H   0  0  0  0  0  0
  -15.8664  -28.0825   22.7051 H   0  0  0  0  0  0
  -24.5852  -30.7143   25.7830 H   0  0  0  0  0  0
  -24.8982  -32.2924   26.4963 H   0  0  0  0  0  0
  -25.8072  -30.8880   27.0224 H   0  0  0  0  0  0
  -26.2864  -29.6810   24.1151 H   0  0  0  0  0  0
  -27.4030  -29.7275   25.4604 H   0  0  0  0  0  0
  -27.8717  -30.4357   23.9323 H   0  0  0  0  0  0
  -27.2615  -33.3615   26.2110 H   0  0  0  0  0  0
  -28.3804  -32.6970   25.0300 H   0  0  0  0  0  0
  -28.0737  -31.8460   26.5367 H   0  0  0  0  0  0
  -28.2575  -38.0125   24.7534 H   0  0  0  0  0  0
  -28.1113  -36.2659   24.6223 H   0  0  0  0  0  0
  -27.2318  -37.1380   25.8857 H   0  0  0  0  0  0
  -20.9307  -29.8784   21.6958 H   0  0  0  0  0  0
  -26.0170  -38.2856   24.1446 H   0  0  0  0  0  0
  -29.2138  -18.2763   18.2693 H   0  0  0  0  0  0
  -30.8008  -18.1375   19.0281 H   0  0  0  0  0  0
  -31.3441  -21.0258   20.4365 H   0  0  0  0  0  0
  -30.6952  -21.6245   18.8326 H   0  0  0  0  0  0
  -30.4878  -15.8967   18.2720 H   0  0  0  0  0  0
  -28.7605  -15.9499   18.5365 H   0  0  0  0  0  0
  -29.1821  -16.6015   22.1245 H   0  0  0  0  0  0
  -30.7921  -17.0718   21.5841 H   0  0  0  0  0  0
  -29.5316  -22.1388   21.6737 H   0  0  0  0  0  0
  -28.0955  -17.8868   20.3721 H   0  0  0  0  0  0
  -28.4819  -20.4157   19.2453 H   0  0  0  0  0  0
  -27.0093  -24.1983   19.8743 H   0  0  0  0  0  0
  -27.4698  -23.5179   21.3966 H   0  0  0  0  0  0
  -29.3844  -25.3763   21.4116 H   0  0  0  0  0  0
  -27.7754  -25.7588   21.8975 H   0  0  0  0  0  0
  -29.6353  -23.8272   19.5993 H   0  0  0  0  0  0
  -30.2706  -19.5028   21.4199 H   0  0  0  0  0  0
  -28.6926  -19.5370   21.7713 H   0  0  0  0  0  0
  1 25  1  0  0  0
  1 30  2  0  0  0
  1 80  1  0  0  0
  2  3  1  0  0  0
  2 25  1  0  0  0
  2 83  1  0  0  0
  2 84  1  0  0  0
  3  4  1  0  0  0
  3 85  1  0  0  0
  3 86  1  0  0  0
  4  5  1  0  0  0
  4 87  1  0  0  0
  4 88  1  0  0  0
  5  6  1  0  0  0
  5 26  1  0  0  0
  5 89  1  0  0  0
  6 25  1  0  0  0
  6 90  1  0  0  0
  6 91  1  0  0  0
  7  8  2  0  0  0
  7 26  1  0  0  0
  7 29  1  0  0  0
  8  9  1  0  0  0
  8 22  1  0  0  0
  9 10  1  0  0  0
  9 27  2  0  0  0
 10 11  2  0  0  0
 10 15  1  0  0  0
 11 12  1  0  0  0
 11 92  1  0  0  0
 12 13  2  0  0  0
 12 93  1  0  0  0
 13 14  1  0  0  0
 13 31  1  0  0  0
 14 15  2  0  0  0
 14 94  1  0  0  0
 15 95  1  0  0  0
 16 17  2  0  0  0
 16 21  1  0  0  0
 16 31  1  0  0  0
 17 18  1  0  0  0
 17 96  1  0  0  0
 18 19  2  0  0  0
 18 97  1  0  0  0
 19 20  1  0  0  0
 19 24  1  0  0  0
 20 21  2  0  0  0
 20 98  1  0  0  0
 21 23  1  0  0  0
 22 28  1  0  0  0
 22 32  2  0  0  0
 26 27  1  0  0  0
 28 99  1  0  0  0
 28100  1  0  0  0
 29101  1  0  0  0
 29102  1  0  0  0
 33 34  1  0  0  0
 33 66  1  0  0  0
 33 70  2  0  0  0
 34 36  1  0  0  0
 34 59  1  0  0  0
 34103  1  0  0  0
 35 44  2  0  0  0
 35 45  1  0  0  0
 35 68  1  0  0  0
 36 56  1  0  0  0
 36104  1  0  0  0
 37 39  1  0  0  0
 37 47  1  0  0  0
 37 66  1  0  0  0
 37105  1  0  0  0
 38 43  2  0  0  0
 38 46  1  0  0  0
 38 47  1  0  0  0
 39 64  1  0  0  0
 39 67  2  0  0  0
 40 52  1  0  0  0
 40 53  2  0  0  0
 40 58  1  0  0  0
 41106  1  0  0  0
 41107  1  0  0  0
 41108  1  0  0  0
 41 48  1  0  0  0
 42 43  1  0  0  0
 42 66  1  0  0  0
 42109  1  0  0  0
 42110  1  0  0  0
 43 44  1  0  0  0
 44111  1  0  0  0
 45 46  2  0  0  0
 45112  1  0  0  0
 46113  1  0  0  0
 47114  1  0  0  0
 47115  1  0  0  0
 48 56  1  0  0  0
 48 65  1  0  0  0
 48116  1  0  0  0
 49 50  1  0  0  0
 49 53  1  0  0  0
 49 64  1  0  0  0
 49117  1  0  0  0
 50 51  1  0  0  0
 50118  1  0  0  0
 50119  1  0  0  0
 51 52  1  0  0  0
 51120  1  0  0  0
 51121  1  0  0  0
 52122  1  0  0  0
 52123  1  0  0  0
 53 54  1  0  0  0
 54 55  2  0  0  0
 54124  1  0  0  0
 55 57  1  0  0  0
 55125  1  0  0  0
 56 69  2  0  0  0
 57 58  2  0  0  0
 57126  1  0  0  0
 58127  1  0  0  0
 59 60  1  0  0  0
 59 61  1  0  0  0
 59 62  1  0  0  0
 60128  1  0  0  0
 60129  1  0  0  0
 60130  1  0  0  0
 61131  1  0  0  0
 61132  1  0  0  0
 61133  1  0  0  0
 62134  1  0  0  0
 62135  1  0  0  0
 62136  1  0  0  0
 63 65  1  0  0  0
 63137  1  0  0  0
 63138  1  0  0  0
 63139  1  0  0  0
 64140  1  0  0  0
 65141  1  0  0  0
 68 79  1  0  0  0
 71 73  1  0  0  0
 71 76  1  0  0  0
 71142  1  0  0  0
 71143  1  0  0  0
 72 75  1  0  0  0
 72 77  1  0  0  0
 72144  1  0  0  0
 72145  1  0  0  0
 73 80  1  0  0  0
 73146  1  0  0  0
 73147  1  0  0  0
 74 76  1  0  0  0
 74 80  1  0  0  0
 74148  1  0  0  0
 74149  1  0  0  0
 75 77  1  0  0  0
 75 81  1  0  0  0
 75150  1  0  0  0
 76 82  1  0  0  0
 76151  1  0  0  0
 77 82  1  0  0  0
 77152  1  0  0  0
 78 79  1  0  0  0
 78 81  1  0  0  0
 78153  1  0  0  0
 78154  1  0  0  0
 79155  1  0  0  0
 79156  1  0  0  0
 81157  1  0  0  0
 82158  1  0  0  0
 82159  1  0  0  0
M  CHG  1  82   1
M  ISO  4   1 100  68 101  79 101  80 100
M  END
> <chiral flag>
0

> <version>
0

> <s_m_source_file>
/data/baiqing/PycharmProjects/Reinvent-master-3.2/result/LINK_invent/BTK/process_docking_weight1_custom_sum_contain_oxygen_bond_distance_aromatic_linkinvent_7_9_3/rearranged_h_0191.sdf

> <i_m_source_file_index>
65

> <r_mmod_Potential_Energy-OPLS-2005>
145.535293579102

> <r_mmod_Stretch_Energy-OPLS-2005>
52.9025268554688

> <r_mmod_Bend_Energy-OPLS-2005>
156.945266723633

> <r_mmod_Torsional_Energy-OPLS-2005>
435.807373046875

> <r_mmod_Improper_Torsional_Energy-OPLS-2005>
17.8617687225342

> <r_mmod_Van_der_Waal_Energy-OPLS-2005>
114.04515838623

> <r_mmod_Electrostatic_Energy-OPLS-2005>
-197.509735107422

> <r_mmod_Solvation_Energy-OPLS-2005>
-468.852355957031

> <b_mmod_Minimization_Converged-OPLS-2005>
0

> <r_mmod_RMS_Derivative-OPLS-2005>
1.50582778453827

$$$$
65
                    3D
 Structure written by MMmdl.
158166  0  0  1  0            999 V2000
  -30.6792  -14.5293   20.5633 C   0  0  0  0  0  0
  -30.4309  -12.3417   19.4267 C   0  0  0  0  0  0
  -29.5000  -12.5082   18.2069 C   0  0  0  0  0  0
  -28.0212  -12.3595   18.6172 C   0  0  0  0  0  0
  -27.6588  -13.2081   19.8657 C   0  0  2  0  0  0
  -28.7017  -13.0159   20.9886 C   0  0  0  0  0  0
  -25.2586  -13.8144   20.5658 C   0  0  0  0  0  0
  -24.1844  -13.0430   20.9167 C   0  0  0  0  0  0
  -24.6403  -11.6899   20.8722 C   0  0  0  0  0  0
  -23.9060  -10.4295   21.0398 C   0  0  0  0  0  0
  -24.3620   -9.4213   21.9175 C   0  0  0  0  0  0
  -23.6293   -8.2248   22.0750 C   0  0  0  0  0  0
  -22.4271   -8.0288   21.3545 C   0  0  0  0  0  0
  -21.9911   -9.0256   20.4641 C   0  0  0  0  0  0
  -22.7235  -10.2136   20.3043 C   0  0  0  0  0  0
  -21.6858   -6.0735   22.5283 C   0  0  0  0  0  0
  -21.4021   -6.5638   23.8214 C   0  0  0  0  0  0
  -21.3657   -5.6790   24.9177 C   0  0  0  0  0  0
  -21.6040   -4.3050   24.7232 C   0  0  0  0  0  0
  -21.8818   -3.8145   23.4350 C   0  0  0  0  0  0
  -21.9201   -4.6964   22.3407 C   0  0  0  0  0  0
  -22.7872  -13.5241   21.1833 C   0  0  0  0  0  0
  -22.1665   -4.2147   21.0982 F   0  0  0  0  0  0
  -21.5631   -3.4532   25.7742 F   0  0  0  0  0  0
  -30.0259  -13.3389   20.4325 N   0  0  0  0  0  0
  -26.3018  -12.9317   20.3305 N   0  0  0  0  0  0
  -25.9329  -11.6477   20.5724 N   0  0  0  0  0  0
  -22.0505  -12.8245   22.0393 N   0  0  0  0  0  0
  -25.4299  -15.1859   20.4081 N   0  0  0  0  0  0
  -31.8192  -14.7096   20.1275 O   0  0  0  0  0  0
  -21.6639   -6.8883   21.4244 O   0  0  0  0  0  0
  -22.3562  -14.5547   20.6673 O   0  0  0  0  0  0
  -24.6200  -31.8641   23.2051 C   0  0  0  0  0  0
  -25.9068  -32.4801   23.8372 C   0  0  1  0  0  0
  -27.2277  -27.3799   20.1122 C   0  0  0  0  0  0
  -25.5906  -33.8608   24.2300 N   0  0  0  0  0  0
  -23.4113  -30.4901   21.5451 C   0  0  2  0  0  0
  -24.8599  -28.9558   20.1080 C   0  0  0  0  0  0
  -22.7447  -29.4644   22.4939 C   0  0  0  0  0  0
  -18.0287  -28.1386   22.8500 C   0  0  0  0  0  0
  -24.1487  -36.7316   23.2638 C   0  0  0  0  0  0
  -25.9474  -30.8156   21.3663 C   0  0  0  0  0  0
  -26.0248  -29.4471   20.7130 C   0  0  0  0  0  0
  -27.2132  -28.6687   20.7106 C   0  0  0  0  0  0
  -26.0496  -26.9374   19.4678 C   0  0  0  0  0  0
  -24.8720  -27.7035   19.4766 C   0  0  0  0  0  0
  -23.6238  -29.8273   20.1603 C   0  0  0  0  0  0
  -25.4104  -36.3113   24.0333 C   0  0  1  0  0  0
  -20.5877  -28.3676   23.1301 C   0  0  2  0  0  0
  -20.6778  -26.9406   22.5415 C   0  0  0  0  0  0
  -19.5754  -26.6384   21.5223 C   0  0  0  0  0  0
  -18.1928  -26.7934   22.1626 C   0  0  0  0  0  0
  -19.1534  -28.8850   23.2897 C   0  0  0  0  0  0
  -18.9466  -30.1456   23.8905 C   0  0  0  0  0  0
  -17.6461  -30.6589   24.0570 C   0  0  0  0  0  0
  -25.9029  -34.9474   23.5107 C   0  0  0  0  0  0
  -16.5352  -29.9095   23.6323 C   0  0  0  0  0  0
  -16.7268  -28.6514   23.0342 C   0  0  0  0  0  0
  -26.4472  -31.6596   25.0733 C   0  0  0  0  0  0
  -25.3731  -31.3715   26.1478 C   0  0  0  0  0  0
  -27.0300  -30.3033   24.6139 C   0  0  0  0  0  0
  -27.6039  -32.4328   25.7499 C   0  0  0  0  0  0
  -27.5569  -37.1819   24.8461 C   0  0  0  0  0  0
  -21.4167  -29.3037   22.3695 N   0  0  0  0  0  0
  -26.4286  -37.3810   23.9400 N   0  0  0  0  0  0
  -24.6779  -31.0722   22.0954 N   0  0  0  0  0  0
  -23.4200  -28.8163   23.2969 O   0  0  0  0  0  0
  -28.3513  -26.5605   20.1492 O   0  0  0  0  0  0
  -26.5612  -34.8936   22.4684 O   0  0  0  0  0  0
  -23.5377  -32.1395   23.7416 O   0  0  0  0  0  0
  -31.0592  -20.0733   20.9775 C   0  0  0  0  0  0
  -30.8489  -21.4323   21.0298 C   0  0  0  0  0  0
  -29.4710  -21.5638   20.6840 C   0  0  0  0  0  0
  -31.8586  -22.4883   21.3941 C   0  0  0  0  0  0
  -30.1872  -17.2498   22.8252 C   0  0  0  0  0  0
  -29.5860  -18.0019   20.4329 C   0  0  0  0  0  0
  -29.1995  -24.1123   20.3372 C   0  0  0  0  0  0
  -28.1148  -25.2031   20.6346 C   0  0  0  0  0  0
  -30.3586  -16.9605   21.3237 C   0  0  2  0  0  0
  -28.8954  -20.3837   20.4705 N   0  0  0  0  0  0
  -29.8658  -19.4435   20.6688 N   0  0  0  0  0  0
  -28.7033  -22.7457   20.6220 N   0  0  0  0  0  0
  -29.9495  -15.5502   21.0752 N   0  0  0  0  0  0
  -31.4742  -12.4536   19.1267 H   0  0  0  0  0  0
  -30.3486  -11.3344   19.8389 H   0  0  0  0  0  0
  -29.7503  -11.7760   17.4384 H   0  0  0  0  0  0
  -29.6586  -13.4888   17.7547 H   0  0  0  0  0  0
  -27.8402  -11.3041   18.8193 H   0  0  0  0  0  0
  -27.3708  -12.6209   17.7808 H   0  0  0  0  0  0
  -27.6948  -14.2516   19.5518 H   0  0  0  0  0  0
  -28.6924  -11.9833   21.3401 H   0  0  0  0  0  0
  -28.4550  -13.6230   21.8608 H   0  0  0  0  0  0
  -25.2775   -9.5694   22.4738 H   0  0  0  0  0  0
  -24.0010   -7.4646   22.7474 H   0  0  0  0  0  0
  -21.0835   -8.8764   19.8956 H   0  0  0  0  0  0
  -22.3684  -10.9668   19.6143 H   0  0  0  0  0  0
  -21.2002   -7.6146   23.9717 H   0  0  0  0  0  0
  -21.1477   -6.0519   25.9077 H   0  0  0  0  0  0
  -22.0596   -2.7609   23.2849 H   0  0  0  0  0  0
  -22.4122  -11.9909   22.4792 H   0  0  0  0  0  0
  -21.1110  -13.1253   22.2555 H   0  0  0  0  0  0
  -24.6607  -15.8379   20.5159 H   0  0  0  0  0  0
  -26.2758  -15.6300   20.0746 H   0  0  0  0  0  0
  -26.7130  -32.5496   23.1130 H   0  0  0  0  0  0
  -25.0082  -33.9758   25.0460 H   0  0  0  0  0  0
  -22.7046  -31.3096   21.4041 H   0  0  0  0  0  0
  -23.3744  -35.9654   23.3311 H   0  0  0  0  0  0
  -24.3576  -36.8929   22.2049 H   0  0  0  0  0  0
  -23.7254  -37.6531   23.6654 H   0  0  0  0  0  0
  -26.0702  -31.5798   20.5961 H   0  0  0  0  0  0
  -26.8316  -30.8667   21.9875 H   0  0  0  0  0  0
  -28.1054  -29.0411   21.1946 H   0  0  0  0  0  0
  -26.0257  -25.9925   18.9452 H   0  0  0  0  0  0
  -23.9843  -27.3293   18.9859 H   0  0  0  0  0  0
  -23.7364  -30.6040   19.4037 H   0  0  0  0  0  0
  -22.7476  -29.2515   19.8592 H   0  0  0  0  0  0
  -25.1285  -36.1957   25.0828 H   0  0  0  0  0  0
  -20.9980  -28.3250   24.1416 H   0  0  0  0  0  0
  -20.5711  -26.2285   23.3604 H   0  0  0  0  0  0
  -21.6649  -26.7456   22.1188 H   0  0  0  0  0  0
  -19.6921  -25.6302   21.1242 H   0  0  0  0  0  0
  -19.6696  -27.3221   20.6784 H   0  0  0  0  0  0
  -17.4202  -26.6694   21.4018 H   0  0  0  0  0  0
  -18.0302  -26.0079   22.9022 H   0  0  0  0  0  0
  -19.7932  -30.7287   24.2262 H   0  0  0  0  0  0
  -17.5007  -31.6266   24.5184 H   0  0  0  0  0  0
  -15.5358  -30.2993   23.7647 H   0  0  0  0  0  0
  -15.8662  -28.0839   22.7036 H   0  0  0  0  0  0
  -24.5907  -30.7058   25.7808 H   0  0  0  0  0  0
  -24.8921  -32.2889   26.4908 H   0  0  0  0  0  0
  -25.8083  -30.8897   27.0242 H   0  0  0  0  0  0
  -26.2851  -29.6814   24.1171 H   0  0  0  0  0  0
  -27.4041  -29.7264   25.4605 H   0  0  0  0  0  0
  -27.8707  -30.4338   23.9315 H   0  0  0  0  0  0
  -27.2645  -33.3622   26.2084 H   0  0  0  0  0  0
  -28.3851  -32.6907   25.0334 H   0  0  0  0  0  0
  -28.0718  -31.8461   26.5411 H   0  0  0  0  0  0
  -28.2604  -38.0105   24.7504 H   0  0  0  0  0  0
  -28.1048  -36.2641   24.6280 H   0  0  0  0  0  0
  -27.2288  -37.1458   25.8869 H   0  0  0  0  0  0
  -20.9320  -29.8768   21.6935 H   0  0  0  0  0  0
  -26.0162  -38.2882   24.1417 H   0  0  0  0  0  0
  -31.9625  -19.5049   21.1500 H   0  0  0  0  0  0
  -32.8228  -22.0602   21.6696 H   0  0  0  0  0  0
  -31.5266  -23.0843   22.2458 H   0  0  0  0  0  0
  -32.0504  -23.1683   20.5645 H   0  0  0  0  0  0
  -30.5358  -18.2473   23.0896 H   0  0  0  0  0  0
  -30.7527  -16.5441   23.4344 H   0  0  0  0  0  0
  -29.1401  -17.1827   23.1256 H   0  0  0  0  0  0
  -28.5127  -17.8479   20.5584 H   0  0  0  0  0  0
  -29.7987  -17.7965   19.3833 H   0  0  0  0  0  0
  -30.0912  -24.3373   20.9174 H   0  0  0  0  0  0
  -29.4857  -24.1597   19.2867 H   0  0  0  0  0  0
  -27.9841  -25.2672   21.7161 H   0  0  0  0  0  0
  -27.1730  -24.8060   20.2616 H   0  0  0  0  0  0
  -31.4214  -17.0557   21.0948 H   0  0  0  0  0  0
  -27.7299  -22.5867   20.3804 H   0  0  0  0  0  0
  -29.0112  -15.3016   21.3518 H   0  0  0  0  0  0
  1 25  1  0  0  0
  1 30  2  0  0  0
  1 83  1  0  0  0
  2  3  1  0  0  0
  2 25  1  0  0  0
  2 84  1  0  0  0
  2 85  1  0  0  0
  3  4  1  0  0  0
  3 86  1  0  0  0
  3 87  1  0  0  0
  4  5  1  0  0  0
  4 88  1  0  0  0
  4 89  1  0  0  0
  5  6  1  0  0  0
  5 26  1  0  0  0
  5 90  1  0  0  0
  6 25  1  0  0  0
  6 91  1  0  0  0
  6 92  1  0  0  0
  7  8  2  0  0  0
  7 26  1  0  0  0
  7 29  1  0  0  0
  8  9  1  0  0  0
  8 22  1  0  0  0
  9 10  1  0  0  0
  9 27  2  0  0  0
 10 11  2  0  0  0
 10 15  1  0  0  0
 11 12  1  0  0  0
 11 93  1  0  0  0
 12 13  2  0  0  0
 12 94  1  0  0  0
 13 14  1  0  0  0
 13 31  1  0  0  0
 14 15  2  0  0  0
 14 95  1  0  0  0
 15 96  1  0  0  0
 16 17  2  0  0  0
 16 21  1  0  0  0
 16 31  1  0  0  0
 17 18  1  0  0  0
 17 97  1  0  0  0
 18 19  2  0  0  0
 18 98  1  0  0  0
 19 20  1  0  0  0
 19 24  1  0  0  0
 20 21  2  0  0  0
 20 99  1  0  0  0
 21 23  1  0  0  0
 22 28  1  0  0  0
 22 32  2  0  0  0
 26 27  1  0  0  0
 28100  1  0  0  0
 28101  1  0  0  0
 29102  1  0  0  0
 29103  1  0  0  0
 33 34  1  0  0  0
 33 66  1  0  0  0
 33 70  2  0  0  0
 34 36  1  0  0  0
 34 59  1  0  0  0
 34104  1  0  0  0
 35 44  2  0  0  0
 35 45  1  0  0  0
 35 68  1  0  0  0
 36 56  1  0  0  0
 36105  1  0  0  0
 37 39  1  0  0  0
 37 47  1  0  0  0
 37 66  1  0  0  0
 37106  1  0  0  0
 38 43  2  0  0  0
 38 46  1  0  0  0
 38 47  1  0  0  0
 39 64  1  0  0  0
 39 67  2  0  0  0
 40 52  1  0  0  0
 40 53  2  0  0  0
 40 58  1  0  0  0
 41107  1  0  0  0
 41108  1  0  0  0
 41109  1  0  0  0
 41 48  1  0  0  0
 42 43  1  0  0  0
 42 66  1  0  0  0
 42110  1  0  0  0
 42111  1  0  0  0
 43 44  1  0  0  0
 44112  1  0  0  0
 45 46  2  0  0  0
 45113  1  0  0  0
 46114  1  0  0  0
 47115  1  0  0  0
 47116  1  0  0  0
 48 56  1  0  0  0
 48 65  1  0  0  0
 48117  1  0  0  0
 49 50  1  0  0  0
 49 53  1  0  0  0
 49 64  1  0  0  0
 49118  1  0  0  0
 50 51  1  0  0  0
 50119  1  0  0  0
 50120  1  0  0  0
 51 52  1  0  0  0
 51121  1  0  0  0
 51122  1  0  0  0
 52123  1  0  0  0
 52124  1  0  0  0
 53 54  1  0  0  0
 54 55  2  0  0  0
 54125  1  0  0  0
 55 57  1  0  0  0
 55126  1  0  0  0
 56 69  2  0  0  0
 57 58  2  0  0  0
 57127  1  0  0  0
 58128  1  0  0  0
 59 60  1  0  0  0
 59 61  1  0  0  0
 59 62  1  0  0  0
 60129  1  0  0  0
 60130  1  0  0  0
 60131  1  0  0  0
 61132  1  0  0  0
 61133  1  0  0  0
 61134  1  0  0  0
 62135  1  0  0  0
 62136  1  0  0  0
 62137  1  0  0  0
 63 65  1  0  0  0
 63138  1  0  0  0
 63139  1  0  0  0
 63140  1  0  0  0
 64141  1  0  0  0
 65142  1  0  0  0
 68 78  1  0  0  0
 71 72  2  0  0  0
 71 81  1  0  0  0
 71143  1  0  0  0
 72 73  1  0  0  0
 72 74  1  0  0  0
 73 80  2  0  0  0
 73 82  1  0  0  0
 74144  1  0  0  0
 74145  1  0  0  0
 74146  1  0  0  0
 75147  1  0  0  0
 75148  1  0  0  0
 75149  1  0  0  0
 75 79  1  0  0  0
 76 79  1  0  0  0
 76 81  1  0  0  0
 76150  1  0  0  0
 76151  1  0  0  0
 77 78  1  0  0  0
 77 82  1  0  0  0
 77152  1  0  0  0
 77153  1  0  0  0
 78154  1  0  0  0
 78155  1  0  0  0
 79 83  1  0  0  0
 79156  1  0  0  0
 80 81  1  0  0  0
 82157  1  0  0  0
 83158  1  0  0  0
M  ISO  4   1 100  68 101  78 101  83 100
M  END
> <chiral flag>
0

> <version>
0

> <s_m_source_file>
/data/baiqing/PycharmProjects/Reinvent-master-3.2/result/LINK_invent/BTK/process_docking_weight1_custom_sum_contain_oxygen_bond_distance_aromatic_linkinvent_7_9_3/rearranged_h_0191.sdf

> <i_m_source_file_index>
66

> <r_mmod_Potential_Energy-OPLS-2005>
-145.230499267578

> <r_mmod_Stretch_Energy-OPLS-2005>
49.2877731323242

> <r_mmod_Bend_Energy-OPLS-2005>
124.323608398438

> <r_mmod_Torsional_Energy-OPLS-2005>
220.466430664062

> <r_mmod_Improper_Torsional_Energy-OPLS-2005>
5.06937599182129

> <r_mmod_Van_der_Waal_Energy-OPLS-2005>
125.36092376709

> <r_mmod_Electrostatic_Energy-OPLS-2005>
-465.491516113281

> <r_mmod_Solvation_Energy-OPLS-2005>
-228.507339477539

> <b_mmod_Minimization_Converged-OPLS-2005>
0

> <r_mmod_RMS_Derivative-OPLS-2005>
2.41147136688232

$$$$
66
                    3D
 Structure written by MMmdl.
157166  0  0  1  0            999 V2000
  -30.6063  -14.7866   20.4795 C   0  0  0  0  0  0
  -30.4331  -12.4786   19.5018 C   0  0  0  0  0  0
  -29.5236  -12.5069   18.2528 C   0  0  0  0  0  0
  -28.0484  -12.3260   18.6588 C   0  0  0  0  0  0
  -27.6417  -13.2348   19.8504 C   0  0  2  0  0  0
  -28.6783  -13.1908   20.9932 C   0  0  0  0  0  0
  -25.2516  -13.8190   20.5678 C   0  0  0  0  0  0
  -24.1802  -13.0446   20.9160 C   0  0  0  0  0  0
  -24.6386  -11.6916   20.8708 C   0  0  0  0  0  0
  -23.9070  -10.4297   21.0391 C   0  0  0  0  0  0
  -24.3624   -9.4219   21.9169 C   0  0  0  0  0  0
  -23.6290   -8.2264   22.0755 C   0  0  0  0  0  0
  -22.4268   -8.0294   21.3555 C   0  0  0  0  0  0
  -21.9899   -9.0268   20.4665 C   0  0  0  0  0  0
  -22.7235  -10.2139   20.3063 C   0  0  0  0  0  0
  -21.6853   -6.0748   22.5293 C   0  0  0  0  0  0
  -21.4021   -6.5655   23.8228 C   0  0  0  0  0  0
  -21.3650   -5.6805   24.9186 C   0  0  0  0  0  0
  -21.6040   -4.3068   24.7231 C   0  0  0  0  0  0
  -21.8813   -3.8159   23.4353 C   0  0  0  0  0  0
  -21.9186   -4.6975   22.3410 C   0  0  0  0  0  0
  -22.7834  -13.5232   21.1834 C   0  0  0  0  0  0
  -22.1651   -4.2168   21.0986 F   0  0  0  0  0  0
  -21.5605   -3.4542   25.7736 F   0  0  0  0  0  0
  -29.9783  -13.5562   20.4171 N   0  0  0  0  0  0
  -26.2943  -12.9408   20.3260 N   0  0  0  0  0  0
  -25.9323  -11.6548   20.5726 N   0  0  0  0  0  0
  -22.0487  -12.8236   22.0403 N   0  0  0  0  0  0
  -25.4198  -15.1924   20.4137 N   0  0  0  0  0  0
  -31.7729  -14.8764   20.0793 O   0  0  0  0  0  0
  -21.6633   -6.8891   21.4258 O   0  0  0  0  0  0
  -22.3529  -14.5546   20.6692 O   0  0  0  0  0  0
  -24.6351  -31.8527   23.1959 C   0  0  0  0  0  0
  -25.9162  -32.4740   23.8324 C   0  0  1  0  0  0
  -27.2025  -27.2099   20.1461 C   0  0  0  0  0  0
  -25.5952  -33.8551   24.2249 N   0  0  0  0  0  0
  -23.4351  -30.4736   21.5397 C   0  0  2  0  0  0
  -24.8826  -28.9198   20.1051 C   0  0  0  0  0  0
  -22.7515  -29.4587   22.4882 C   0  0  0  0  0  0
  -18.0285  -28.1393   22.8479 C   0  0  0  0  0  0
  -24.1502  -36.7281   23.2633 C   0  0  0  0  0  0
  -25.9841  -30.7489   21.3846 C   0  0  0  0  0  0
  -26.0537  -29.3667   20.7296 C   0  0  0  0  0  0
  -27.2177  -28.5246   20.7389 C   0  0  0  0  0  0
  -26.0203  -26.8640   19.4546 C   0  0  0  0  0  0
  -24.8738  -27.6812   19.4499 C   0  0  0  0  0  0
  -23.6559  -29.8105   20.1546 C   0  0  0  0  0  0
  -25.4130  -36.3067   24.0317 C   0  0  1  0  0  0
  -20.5885  -28.3717   23.1256 C   0  0  2  0  0  0
  -20.6769  -26.9428   22.5396 C   0  0  0  0  0  0
  -19.5759  -26.6398   21.5188 C   0  0  0  0  0  0
  -18.1938  -26.7937   22.1608 C   0  0  0  0  0  0
  -19.1537  -28.8871   23.2867 C   0  0  0  0  0  0
  -18.9454  -30.1452   23.8916 C   0  0  0  0  0  0
  -17.6455  -30.6593   24.0553 C   0  0  0  0  0  0
  -25.9066  -34.9434   23.5084 C   0  0  0  0  0  0
  -16.5350  -29.9089   23.6318 C   0  0  0  0  0  0
  -16.7268  -28.6495   23.0371 C   0  0  0  0  0  0
  -26.4525  -31.6579   25.0722 C   0  0  0  0  0  0
  -25.3727  -31.3736   26.1422 C   0  0  0  0  0  0
  -27.0354  -30.2979   24.6228 C   0  0  0  0  0  0
  -27.6092  -32.4322   25.7483 C   0  0  0  0  0  0
  -27.5589  -37.1799   24.8468 C   0  0  0  0  0  0
  -21.4215  -29.3063   22.3638 N   0  0  0  0  0  0
  -26.4310  -37.3764   23.9404 N   0  0  0  0  0  0
  -24.7043  -31.0437   22.0963 N   0  0  0  0  0  0
  -23.4178  -28.8104   23.3001 O   0  0  0  0  0  0
  -28.2576  -26.2579   20.2311 O   0  0  0  0  0  0
  -26.5643  -34.8908   22.4654 O   0  0  0  0  0  0
  -23.5486  -32.1389   23.7200 O   0  0  0  0  0  0
  -29.1668  -17.9482   22.0113 C   0  0  0  0  0  0
  -28.6716  -23.6737   19.4013 C   0  0  0  0  0  0
  -28.4500  -23.8208   21.4345 C   0  0  0  0  0  0
  -29.6955  -16.4846   22.0837 C   0  0  0  0  0  0
  -29.7956  -17.2157   19.8659 C   0  0  0  0  0  0
  -29.7278  -18.5732   20.7259 C   0  0  1  0  0  0
  -28.3552  -22.5593   20.4780 C   0  0  2  0  0  0
  -27.9311  -24.7635   20.2824 C   0  0  1  0  0  0
  -28.9602  -19.9236   20.1678 C   0  0  0  0  0  0
  -29.8558  -15.9518   20.7198 N   0  0  0  0  0  0
  -29.2872  -21.3323   20.7307 N   0  3  0  0  0  0
  -31.4783  -12.5980   19.2121 H   0  0  0  0  0  0
  -30.3738  -11.5082   20.0013 H   0  0  0  0  0  0
  -29.8208  -11.7239   17.5543 H   0  0  0  0  0  0
  -29.6496  -13.4524   17.7247 H   0  0  0  0  0  0
  -27.9096  -11.2790   18.9309 H   0  0  0  0  0  0
  -27.3948  -12.5052   17.8051 H   0  0  0  0  0  0
  -27.6321  -14.2527   19.4603 H   0  0  0  0  0  0
  -28.7219  -12.2005   21.4460 H   0  0  0  0  0  0
  -28.3944  -13.8751   21.7920 H   0  0  0  0  0  0
  -25.2776   -9.5674   22.4744 H   0  0  0  0  0  0
  -23.9989   -7.4650   22.7477 H   0  0  0  0  0  0
  -21.0819   -8.8795   19.8985 H   0  0  0  0  0  0
  -22.3686  -10.9677   19.6179 H   0  0  0  0  0  0
  -21.2039   -7.6168   23.9732 H   0  0  0  0  0  0
  -21.1461   -6.0538   25.9085 H   0  0  0  0  0  0
  -22.0590   -2.7625   23.2849 H   0  0  0  0  0  0
  -22.4099  -11.9902   22.4804 H   0  0  0  0  0  0
  -21.1130  -13.1305   22.2639 H   0  0  0  0  0  0
  -24.6558  -15.8455   20.5482 H   0  0  0  0  0  0
  -26.2825  -15.6404   20.1315 H   0  0  0  0  0  0
  -26.7210  -32.5364   23.1052 H   0  0  0  0  0  0
  -25.0100  -33.9706   25.0388 H   0  0  0  0  0  0
  -22.7336  -31.2969   21.3903 H   0  0  0  0  0  0
  -23.3764  -35.9611   23.3299 H   0  0  0  0  0  0
  -24.3590  -36.8898   22.2044 H   0  0  0  0  0  0
  -23.7243  -37.6480   23.6657 H   0  0  0  0  0  0
  -26.1249  -31.5045   20.6115 H   0  0  0  0  0  0
  -26.8637  -30.8048   22.0143 H   0  0  0  0  0  0
  -28.1098  -28.8548   21.2521 H   0  0  0  0  0  0
  -25.9503  -25.9352   18.9091 H   0  0  0  0  0  0
  -23.9879  -27.3463   18.9287 H   0  0  0  0  0  0
  -23.7811  -30.5888   19.4008 H   0  0  0  0  0  0
  -22.7763  -29.2442   19.8448 H   0  0  0  0  0  0
  -25.1301  -36.1926   25.0806 H   0  0  0  0  0  0
  -20.9978  -28.3292   24.1378 H   0  0  0  0  0  0
  -20.5667  -26.2313   23.3594 H   0  0  0  0  0  0
  -21.6636  -26.7448   22.1195 H   0  0  0  0  0  0
  -19.6931  -25.6307   21.1230 H   0  0  0  0  0  0
  -19.6706  -27.3194   20.6711 H   0  0  0  0  0  0
  -17.4197  -26.6664   21.4021 H   0  0  0  0  0  0
  -18.0362  -26.0074   22.9013 H   0  0  0  0  0  0
  -19.7930  -30.7245   24.2327 H   0  0  0  0  0  0
  -17.5014  -31.6284   24.5146 H   0  0  0  0  0  0
  -15.5353  -30.3007   23.7640 H   0  0  0  0  0  0
  -15.8658  -28.0800   22.7136 H   0  0  0  0  0  0
  -24.5924  -30.7070   25.7720 H   0  0  0  0  0  0
  -24.8890  -32.2903   26.4812 H   0  0  0  0  0  0
  -25.8018  -30.8919   27.0220 H   0  0  0  0  0  0
  -26.2919  -29.6744   24.1247 H   0  0  0  0  0  0
  -27.4005  -29.7232   25.4751 H   0  0  0  0  0  0
  -27.8829  -30.4224   23.9482 H   0  0  0  0  0  0
  -27.2722  -33.3632   26.2067 H   0  0  0  0  0  0
  -28.3901  -32.6881   25.0306 H   0  0  0  0  0  0
  -28.0778  -31.8443   26.5389 H   0  0  0  0  0  0
  -28.2603  -38.0099   24.7501 H   0  0  0  0  0  0
  -28.1091  -36.2628   24.6319 H   0  0  0  0  0  0
  -27.2304  -37.1459   25.8870 H   0  0  0  0  0  0
  -20.9400  -29.8777   21.6831 H   0  0  0  0  0  0
  -26.0187  -38.2841   24.1401 H   0  0  0  0  0  0
  -29.4315  -18.5197   22.9031 H   0  0  0  0  0  0
  -28.0774  -17.9235   21.9641 H   0  0  0  0  0  0
  -29.7376  -23.8759   19.2791 H   0  0  0  0  0  0
  -28.2024  -23.4966   18.4337 H   0  0  0  0  0  0
  -29.4678  -24.0590   21.7513 H   0  0  0  0  0  0
  -27.7852  -23.7733   22.2987 H   0  0  0  0  0  0
  -29.0366  -15.8610   22.6881 H   0  0  0  0  0  0
  -30.6711  -16.4799   22.5750 H   0  0  0  0  0  0
  -30.6292  -17.2475   19.1622 H   0  0  0  0  0  0
  -28.8936  -17.1426   19.2568 H   0  0  0  0  0  0
  -30.7639  -18.8531   20.9179 H   0  0  0  0  0  0
  -27.3184  -22.2228   20.4044 H   0  0  0  0  0  0
  -26.8548  -24.5976   20.2324 H   0  0  0  0  0  0
  -27.8873  -19.7640   20.2806 H   0  0  0  0  0  0
  -29.1262  -19.9800   19.0927 H   0  0  0  0  0  0
  -29.2869  -21.2021   21.7291 H   0  0  0  0  0  0
  -30.2364  -21.5673   20.4868 H   0  0  0  0  0  0
  1 25  1  0  0  0
  1 30  2  0  0  0
  1 80  1  0  0  0
  2  3  1  0  0  0
  2 25  1  0  0  0
  2 82  1  0  0  0
  2 83  1  0  0  0
  3  4  1  0  0  0
  3 84  1  0  0  0
  3 85  1  0  0  0
  4  5  1  0  0  0
  4 86  1  0  0  0
  4 87  1  0  0  0
  5  6  1  0  0  0
  5 26  1  0  0  0
  5 88  1  0  0  0
  6 25  1  0  0  0
  6 89  1  0  0  0
  6 90  1  0  0  0
  7  8  2  0  0  0
  7 26  1  0  0  0
  7 29  1  0  0  0
  8  9  1  0  0  0
  8 22  1  0  0  0
  9 10  1  0  0  0
  9 27  2  0  0  0
 10 11  2  0  0  0
 10 15  1  0  0  0
 11 12  1  0  0  0
 11 91  1  0  0  0
 12 13  2  0  0  0
 12 92  1  0  0  0
 13 14  1  0  0  0
 13 31  1  0  0  0
 14 15  2  0  0  0
 14 93  1  0  0  0
 15 94  1  0  0  0
 16 17  2  0  0  0
 16 21  1  0  0  0
 16 31  1  0  0  0
 17 18  1  0  0  0
 17 95  1  0  0  0
 18 19  2  0  0  0
 18 96  1  0  0  0
 19 20  1  0  0  0
 19 24  1  0  0  0
 20 21  2  0  0  0
 20 97  1  0  0  0
 21 23  1  0  0  0
 22 28  1  0  0  0
 22 32  2  0  0  0
 26 27  1  0  0  0
 28 98  1  0  0  0
 28 99  1  0  0  0
 29100  1  0  0  0
 29101  1  0  0  0
 33 34  1  0  0  0
 33 66  1  0  0  0
 33 70  2  0  0  0
 34 36  1  0  0  0
 34 59  1  0  0  0
 34102  1  0  0  0
 35 44  2  0  0  0
 35 45  1  0  0  0
 35 68  1  0  0  0
 36 56  1  0  0  0
 36103  1  0  0  0
 37 39  1  0  0  0
 37 47  1  0  0  0
 37 66  1  0  0  0
 37104  1  0  0  0
 38 43  2  0  0  0
 38 46  1  0  0  0
 38 47  1  0  0  0
 39 64  1  0  0  0
 39 67  2  0  0  0
 40 52  1  0  0  0
 40 53  2  0  0  0
 40 58  1  0  0  0
 41105  1  0  0  0
 41106  1  0  0  0
 41107  1  0  0  0
 41 48  1  0  0  0
 42 43  1  0  0  0
 42 66  1  0  0  0
 42108  1  0  0  0
 42109  1  0  0  0
 43 44  1  0  0  0
 44110  1  0  0  0
 45 46  2  0  0  0
 45111  1  0  0  0
 46112  1  0  0  0
 47113  1  0  0  0
 47114  1  0  0  0
 48 56  1  0  0  0
 48 65  1  0  0  0
 48115  1  0  0  0
 49 50  1  0  0  0
 49 53  1  0  0  0
 49 64  1  0  0  0
 49116  1  0  0  0
 50 51  1  0  0  0
 50117  1  0  0  0
 50118  1  0  0  0
 51 52  1  0  0  0
 51119  1  0  0  0
 51120  1  0  0  0
 52121  1  0  0  0
 52122  1  0  0  0
 53 54  1  0  0  0
 54 55  2  0  0  0
 54123  1  0  0  0
 55 57  1  0  0  0
 55124  1  0  0  0
 56 69  2  0  0  0
 57 58  2  0  0  0
 57125  1  0  0  0
 58126  1  0  0  0
 59 60  1  0  0  0
 59 61  1  0  0  0
 59 62  1  0  0  0
 60127  1  0  0  0
 60128  1  0  0  0
 60129  1  0  0  0
 61130  1  0  0  0
 61131  1  0  0  0
 61132  1  0  0  0
 62133  1  0  0  0
 62134  1  0  0  0
 62135  1  0  0  0
 63 65  1  0  0  0
 63136  1  0  0  0
 63137  1  0  0  0
 63138  1  0  0  0
 64139  1  0  0  0
 65140  1  0  0  0
 68 78  1  0  0  0
 71 74  1  0  0  0
 71 76  1  0  0  0
 71141  1  0  0  0
 71142  1  0  0  0
 72 77  1  0  0  0
 72 78  1  0  0  0
 72143  1  0  0  0
 72144  1  0  0  0
 73 77  1  0  0  0
 73 78  1  0  0  0
 73145  1  0  0  0
 73146  1  0  0  0
 74 80  1  0  0  0
 74147  1  0  0  0
 74148  1  0  0  0
 75 76  1  0  0  0
 75 80  1  0  0  0
 75149  1  0  0  0
 75150  1  0  0  0
 76 79  1  0  0  0
 76151  1  0  0  0
 77 81  1  0  0  0
 77152  1  0  0  0
 78153  1  0  0  0
 79 81  1  0  0  0
 79154  1  0  0  0
 79155  1  0  0  0
 81156  1  0  0  0
 81157  1  0  0  0
M  CHG  1  81   1
M  ISO  4   1 100  68 101  78 101  80 100
M  END
> <chiral flag>
0

> <version>
0

> <s_m_source_file>
/data/baiqing/PycharmProjects/Reinvent-master-3.2/result/LINK_invent/BTK/process_docking_weight1_custom_sum_contain_oxygen_bond_distance_aromatic_linkinvent_7_9_3/rearranged_h_0191.sdf

> <i_m_source_file_index>
67

> <r_mmod_Potential_Energy-OPLS-2005>
352.752319335938

> <r_mmod_Stretch_Energy-OPLS-2005>
147.317123413086

> <r_mmod_Bend_Energy-OPLS-2005>
246.088638305664

> <r_mmod_Torsional_Energy-OPLS-2005>
362.712768554688

> <r_mmod_Improper_Torsional_Energy-OPLS-2005>
9.55293560028076

> <r_mmod_Van_der_Waal_Energy-OPLS-2005>
117.83332824707

> <r_mmod_Electrostatic_Energy-OPLS-2005>
-168.219528198242

> <r_mmod_Solvation_Energy-OPLS-2005>
-477.035369873047

> <b_mmod_Minimization_Converged-OPLS-2005>
0

> <r_mmod_RMS_Derivative-OPLS-2005>
2.72816157341003

$$$$
67
                    3D
 Structure written by MMmdl.
167176  0  0  1  0            999 V2000
  -30.6935  -14.5209   20.5984 C   0  0  0  0  0  0
  -30.4227  -12.3432   19.4410 C   0  0  0  0  0  0
  -29.4992  -12.5057   18.2147 C   0  0  0  0  0  0
  -28.0195  -12.3651   18.6271 C   0  0  0  0  0  0
  -27.6557  -13.2161   19.8744 C   0  0  2  0  0  0
  -28.6951  -13.0327   21.0007 C   0  0  0  0  0  0
  -25.2563  -13.8203   20.5718 C   0  0  0  0  0  0
  -24.1830  -13.0432   20.9190 C   0  0  0  0  0  0
  -24.6395  -11.6912   20.8716 C   0  0  0  0  0  0
  -23.9071  -10.4297   21.0393 C   0  0  0  0  0  0
  -24.3632   -9.4214   21.9173 C   0  0  0  0  0  0
  -23.6301   -8.2260   22.0739 C   0  0  0  0  0  0
  -22.4277   -8.0299   21.3543 C   0  0  0  0  0  0
  -21.9904   -9.0272   20.4642 C   0  0  0  0  0  0
  -22.7244  -10.2137   20.3043 C   0  0  0  0  0  0
  -21.6849   -6.0763   22.5291 C   0  0  0  0  0  0
  -21.4021   -6.5650   23.8237 C   0  0  0  0  0  0
  -21.3640   -5.6791   24.9187 C   0  0  0  0  0  0
  -21.6058   -4.3063   24.7218 C   0  0  0  0  0  0
  -21.8813   -3.8156   23.4337 C   0  0  0  0  0  0
  -21.9192   -4.6989   22.3407 C   0  0  0  0  0  0
  -22.7865  -13.5227   21.1866 C   0  0  0  0  0  0
  -22.1642   -4.2178   21.0978 F   0  0  0  0  0  0
  -21.5625   -3.4538   25.7714 F   0  0  0  0  0  0
  -30.0216  -13.3439   20.4453 N   0  0  0  0  0  0
  -26.3001  -12.9388   20.3380 N   0  0  0  0  0  0
  -25.9329  -11.6526   20.5767 N   0  0  0  0  0  0
  -22.0529  -12.8199   22.0426 N   0  0  0  0  0  0
  -25.4287  -15.1927   20.4173 N   0  0  0  0  0  0
  -31.7970  -14.7227   20.0783 O   0  0  0  0  0  0
  -21.6645   -6.8893   21.4244 O   0  0  0  0  0  0
  -22.3559  -14.5556   20.6762 O   0  0  0  0  0  0
  -24.6134  -31.8637   23.2080 C   0  0  0  0  0  0
  -25.9013  -32.4799   23.8377 C   0  0  1  0  0  0
  -27.2421  -27.3929   20.1258 C   0  0  0  0  0  0
  -25.5868  -33.8615   24.2295 N   0  0  0  0  0  0
  -23.4064  -30.4851   21.5441 C   0  0  2  0  0  0
  -24.8583  -28.9473   20.1072 C   0  0  0  0  0  0
  -22.7407  -29.4630   22.4947 C   0  0  0  0  0  0
  -18.0256  -28.1381   22.8498 C   0  0  0  0  0  0
  -24.1477  -36.7314   23.2636 C   0  0  0  0  0  0
  -25.9344  -30.8222   21.3651 C   0  0  0  0  0  0
  -26.0131  -29.4513   20.7164 C   0  0  0  0  0  0
  -27.2001  -28.6794   20.7243 C   0  0  0  0  0  0
  -26.0651  -26.9098   19.5062 C   0  0  0  0  0  0
  -24.8836  -27.6799   19.4970 C   0  0  0  0  0  0
  -23.6165  -29.8132   20.1584 C   0  0  0  0  0  0
  -25.4104  -36.3117   24.0337 C   0  0  1  0  0  0
  -20.5853  -28.3660   23.1317 C   0  0  2  0  0  0
  -20.6747  -26.9385   22.5450 C   0  0  0  0  0  0
  -19.5738  -26.6384   21.5227 C   0  0  0  0  0  0
  -18.1904  -26.7932   22.1612 C   0  0  0  0  0  0
  -19.1513  -28.8834   23.2912 C   0  0  0  0  0  0
  -18.9435  -30.1437   23.8937 C   0  0  0  0  0  0
  -17.6440  -30.6588   24.0571 C   0  0  0  0  0  0
  -25.9044  -34.9472   23.5129 C   0  0  0  0  0  0
  -16.5333  -29.9099   23.6311 C   0  0  0  0  0  0
  -16.7249  -28.6507   23.0350 C   0  0  0  0  0  0
  -26.4459  -31.6594   25.0708 C   0  0  0  0  0  0
  -25.3738  -31.3707   26.1467 C   0  0  0  0  0  0
  -27.0264  -30.3021   24.6108 C   0  0  0  0  0  0
  -27.6057  -32.4301   25.7436 C   0  0  0  0  0  0
  -27.5606  -37.1770   24.8433 C   0  0  0  0  0  0
  -21.4125  -29.3038   22.3709 N   0  0  0  0  0  0
  -26.4271  -37.3820   23.9443 N   0  0  0  0  0  0
  -24.6686  -31.0710   22.0971 N   0  0  0  0  0  0
  -23.4162  -28.8172   23.3005 O   0  0  0  0  0  0
  -28.4144  -26.6559   20.2118 O   0  0  0  0  0  0
  -26.5632  -34.8926   22.4708 O   0  0  0  0  0  0
  -23.5316  -32.1408   23.7457 O   0  0  0  0  0  0
  -27.5758  -21.9881   19.4329 C   0  0  0  0  0  0
  -28.5228  -21.3449   20.2681 C   0  0  0  0  0  0
  -29.3814  -23.4471   20.8143 C   0  0  0  0  0  0
  -28.4912  -24.0828   19.8904 C   0  0  0  0  0  0
  -30.1175  -17.3270   22.8886 C   0  0  0  0  0  0
  -30.6079  -15.9029   22.6018 C   0  0  0  0  0  0
  -29.4876  -16.7322   20.6687 C   0  0  0  0  0  0
  -29.9691  -17.9520   21.5073 C   0  0  1  0  0  0
  -31.0855  -24.8910   24.0210 C   0  0  0  0  0  0
  -30.4021  -24.2202   21.6429 C   0  0  0  0  0  0
  -28.6424  -19.8006   20.2716 C   0  0  0  0  0  0
  -28.6755  -25.5291   19.3460 C   0  0  0  0  0  0
  -29.9602  -24.3832   23.1096 C   0  0  0  0  0  0
  -27.5637  -23.3348   19.2353 N   0  0  0  0  0  0
  -29.4001  -22.0882   20.9975 N   0  0  0  0  0  0
  -30.0609  -15.5068   21.2960 N   0  0  0  0  0  0
  -29.1660  -19.2226   21.5332 N   0  3  0  0  0  0
  -31.4718  -12.4433   19.1493 H   0  0  0  0  0  0
  -30.3238  -11.3417   19.8637 H   0  0  0  0  0  0
  -29.7460  -11.7607   17.4556 H   0  0  0  0  0  0
  -29.6663  -13.4788   17.7520 H   0  0  0  0  0  0
  -27.8331  -11.3110   18.8337 H   0  0  0  0  0  0
  -27.3719  -12.6323   17.7900 H   0  0  0  0  0  0
  -27.6867  -14.2598   19.5625 H   0  0  0  0  0  0
  -28.6808  -12.0071   21.3717 H   0  0  0  0  0  0
  -28.4427  -13.6592   21.8586 H   0  0  0  0  0  0
  -25.2781   -9.5696   22.4741 H   0  0  0  0  0  0
  -24.0020   -7.4640   22.7428 H   0  0  0  0  0  0
  -21.0844   -8.8788   19.8943 H   0  0  0  0  0  0
  -22.3713  -10.9678   19.6144 H   0  0  0  0  0  0
  -21.2021   -7.6161   23.9743 H   0  0  0  0  0  0
  -21.1456   -6.0527   25.9088 H   0  0  0  0  0  0
  -22.0607   -2.7626   23.2847 H   0  0  0  0  0  0
  -22.4124  -11.9820   22.4773 H   0  0  0  0  0  0
  -21.1167  -13.1248   22.2666 H   0  0  0  0  0  0
  -24.6707  -15.8559   20.5399 H   0  0  0  0  0  0
  -26.2904  -15.6274   20.1149 H   0  0  0  0  0  0
  -26.7072  -32.5499   23.1125 H   0  0  0  0  0  0
  -24.9940  -33.9774   25.0389 H   0  0  0  0  0  0
  -22.6986  -31.3050   21.4026 H   0  0  0  0  0  0
  -23.3777  -35.9596   23.3207 H   0  0  0  0  0  0
  -24.3604  -36.9035   22.2071 H   0  0  0  0  0  0
  -23.7145  -37.6458   23.6714 H   0  0  0  0  0  0
  -26.0478  -31.5879   20.5963 H   0  0  0  0  0  0
  -26.8195  -30.8786   21.9852 H   0  0  0  0  0  0
  -28.0874  -29.0642   21.2091 H   0  0  0  0  0  0
  -26.0363  -25.9282   19.0568 H   0  0  0  0  0  0
  -23.9933  -27.2884   19.0238 H   0  0  0  0  0  0
  -23.7174  -30.5868   19.3969 H   0  0  0  0  0  0
  -22.7421  -29.2289   19.8657 H   0  0  0  0  0  0
  -25.1264  -36.1971   25.0825 H   0  0  0  0  0  0
  -20.9954  -28.3234   24.1429 H   0  0  0  0  0  0
  -20.5583  -26.2281   23.3646 H   0  0  0  0  0  0
  -21.6619  -26.7403   22.1266 H   0  0  0  0  0  0
  -19.6902  -25.6293   21.1240 H   0  0  0  0  0  0
  -19.6695  -27.3204   20.6756 H   0  0  0  0  0  0
  -17.4189  -26.6687   21.4001 H   0  0  0  0  0  0
  -18.0300  -26.0059   22.8980 H   0  0  0  0  0  0
  -19.7926  -30.7229   24.2344 H   0  0  0  0  0  0
  -17.5006  -31.6276   24.5156 H   0  0  0  0  0  0
  -15.5340  -30.3020   23.7633 H   0  0  0  0  0  0
  -15.8638  -28.0840   22.7070 H   0  0  0  0  0  0
  -24.5926  -30.7027   25.7817 H   0  0  0  0  0  0
  -24.8909  -32.2854   26.4920 H   0  0  0  0  0  0
  -25.8104  -30.8886   27.0225 H   0  0  0  0  0  0
  -26.2793  -29.6781   24.1183 H   0  0  0  0  0  0
  -27.4019  -29.7264   25.4581 H   0  0  0  0  0  0
  -27.8647  -30.4297   23.9253 H   0  0  0  0  0  0
  -27.2711  -33.3589   26.2074 H   0  0  0  0  0  0
  -28.3834  -32.6884   25.0231 H   0  0  0  0  0  0
  -28.0774  -31.8385   26.5295 H   0  0  0  0  0  0
  -28.2535  -38.0162   24.7659 H   0  0  0  0  0  0
  -28.1192  -36.2715   24.6014 H   0  0  0  0  0  0
  -27.2366  -37.1123   25.8837 H   0  0  0  0  0  0
  -20.9263  -29.8763   21.6945 H   0  0  0  0  0  0
  -26.0158  -38.2860   24.1596 H   0  0  0  0  0  0
  -26.8625  -21.4144   18.8616 H   0  0  0  0  0  0
  -30.7995  -17.8839   23.5328 H   0  0  0  0  0  0
  -29.1482  -17.2855   23.3896 H   0  0  0  0  0  0
  -30.2990  -15.2062   23.3824 H   0  0  0  0  0  0
  -31.7002  -15.8968   22.5748 H   0  0  0  0  0  0
  -29.8115  -16.8302   19.6295 H   0  0  0  0  0  0
  -28.4012  -16.6446   20.6659 H   0  0  0  0  0  0
  -30.9661  -18.2175   21.1489 H   0  0  0  0  0  0
  -30.7358  -25.0143   25.0468 H   0  0  0  0  0  0
  -31.4730  -25.8539   23.6873 H   0  0  0  0  0  0
  -31.9175  -24.1860   24.0406 H   0  0  0  0  0  0
  -30.5989  -25.1994   21.2087 H   0  0  0  0  0  0
  -31.3489  -23.6816   21.6023 H   0  0  0  0  0  0
  -29.2716  -19.5049   19.4327 H   0  0  0  0  0  0
  -27.6584  -19.3686   20.0866 H   0  0  0  0  0  0
  -28.1614  -25.6414   18.3902 H   0  0  0  0  0  0
  -29.7300  -25.6147   19.0807 H   0  0  0  0  0  0
  -29.1026  -25.0565   23.1641 H   0  0  0  0  0  0
  -29.6179  -23.4236   23.4991 H   0  0  0  0  0  0
  -29.7579  -19.9478   21.9075 H   0  0  0  0  0  0
  -28.3936  -19.1260   22.1725 H   0  0  0  0  0  0
  1 25  1  0  0  0
  1 30  2  0  0  0
  1 86  1  0  0  0
  2  3  1  0  0  0
  2 25  1  0  0  0
  2 88  1  0  0  0
  2 89  1  0  0  0
  3  4  1  0  0  0
  3 90  1  0  0  0
  3 91  1  0  0  0
  4  5  1  0  0  0
  4 92  1  0  0  0
  4 93  1  0  0  0
  5  6  1  0  0  0
  5 26  1  0  0  0
  5 94  1  0  0  0
  6 25  1  0  0  0
  6 95  1  0  0  0
  6 96  1  0  0  0
  7  8  2  0  0  0
  7 26  1  0  0  0
  7 29  1  0  0  0
  8  9  1  0  0  0
  8 22  1  0  0  0
  9 10  1  0  0  0
  9 27  2  0  0  0
 10 11  2  0  0  0
 10 15  1  0  0  0
 11 12  1  0  0  0
 11 97  1  0  0  0
 12 13  2  0  0  0
 12 98  1  0  0  0
 13 14  1  0  0  0
 13 31  1  0  0  0
 14 15  2  0  0  0
 14 99  1  0  0  0
 15100  1  0  0  0
 16 17  2  0  0  0
 16 21  1  0  0  0
 16 31  1  0  0  0
 17 18  1  0  0  0
 17101  1  0  0  0
 18 19  2  0  0  0
 18102  1  0  0  0
 19 20  1  0  0  0
 19 24  1  0  0  0
 20 21  2  0  0  0
 20103  1  0  0  0
 21 23  1  0  0  0
 22 28  1  0  0  0
 22 32  2  0  0  0
 26 27  1  0  0  0
 28104  1  0  0  0
 28105  1  0  0  0
 29106  1  0  0  0
 29107  1  0  0  0
 33 34  1  0  0  0
 33 66  1  0  0  0
 33 70  2  0  0  0
 34 36  1  0  0  0
 34 59  1  0  0  0
 34108  1  0  0  0
 35 44  2  0  0  0
 35 45  1  0  0  0
 35 68  1  0  0  0
 36 56  1  0  0  0
 36109  1  0  0  0
 37 39  1  0  0  0
 37 47  1  0  0  0
 37 66  1  0  0  0
 37110  1  0  0  0
 38 43  2  0  0  0
 38 46  1  0  0  0
 38 47  1  0  0  0
 39 64  1  0  0  0
 39 67  2  0  0  0
 40 52  1  0  0  0
 40 53  2  0  0  0
 40 58  1  0  0  0
 41111  1  0  0  0
 41112  1  0  0  0
 41113  1  0  0  0
 41 48  1  0  0  0
 42 43  1  0  0  0
 42 66  1  0  0  0
 42114  1  0  0  0
 42115  1  0  0  0
 43 44  1  0  0  0
 44116  1  0  0  0
 45 46  2  0  0  0
 45117  1  0  0  0
 46118  1  0  0  0
 47119  1  0  0  0
 47120  1  0  0  0
 48 56  1  0  0  0
 48 65  1  0  0  0
 48121  1  0  0  0
 49 50  1  0  0  0
 49 53  1  0  0  0
 49 64  1  0  0  0
 49122  1  0  0  0
 50 51  1  0  0  0
 50123  1  0  0  0
 50124  1  0  0  0
 51 52  1  0  0  0
 51125  1  0  0  0
 51126  1  0  0  0
 52127  1  0  0  0
 52128  1  0  0  0
 53 54  1  0  0  0
 54 55  2  0  0  0
 54129  1  0  0  0
 55 57  1  0  0  0
 55130  1  0  0  0
 56 69  2  0  0  0
 57 58  2  0  0  0
 57131  1  0  0  0
 58132  1  0  0  0
 59 60  1  0  0  0
 59 61  1  0  0  0
 59 62  1  0  0  0
 60133  1  0  0  0
 60134  1  0  0  0
 60135  1  0  0  0
 61136  1  0  0  0
 61137  1  0  0  0
 61138  1  0  0  0
 62139  1  0  0  0
 62140  1  0  0  0
 62141  1  0  0  0
 63 65  1  0  0  0
 63142  1  0  0  0
 63143  1  0  0  0
 63144  1  0  0  0
 64145  1  0  0  0
 65146  1  0  0  0
 68 82  1  0  0  0
 71 72  2  0  0  0
 71 84  1  0  0  0
 71147  1  0  0  0
 72 81  1  0  0  0
 72 85  1  0  0  0
 73 74  1  0  0  0
 73 80  1  0  0  0
 73 85  2  0  0  0
 74 82  1  0  0  0
 74 84  2  0  0  0
 75 76  1  0  0  0
 75 78  1  0  0  0
 75148  1  0  0  0
 75149  1  0  0  0
 76 86  1  0  0  0
 76150  1  0  0  0
 76151  1  0  0  0
 77 78  1  0  0  0
 77 86  1  0  0  0
 77152  1  0  0  0
 77153  1  0  0  0
 78 87  1  0  0  0
 78154  1  0  0  0
 79 83  1  0  0  0
 79155  1  0  0  0
 79156  1  0  0  0
 79157  1  0  0  0
 80 83  1  0  0  0
 80158  1  0  0  0
 80159  1  0  0  0
 81 87  1  0  0  0
 81160  1  0  0  0
 81161  1  0  0  0
 82162  1  0  0  0
 82163  1  0  0  0
 83164  1  0  0  0
 83165  1  0  0  0
 87166  1  0  0  0
 87167  1  0  0  0
M  CHG  1  87   1
M  ISO  4   1 100  68 101  82 101  86 100
M  END
> <chiral flag>
0

> <version>
0

> <s_m_source_file>
/data/baiqing/PycharmProjects/Reinvent-master-3.2/result/LINK_invent/BTK/process_docking_weight1_custom_sum_contain_oxygen_bond_distance_aromatic_linkinvent_7_9_3/rearranged_h_0191.sdf

> <i_m_source_file_index>
68

> <r_mmod_Potential_Energy-OPLS-2005>
48.733699798584

> <r_mmod_Stretch_Energy-OPLS-2005>
54.0606803894043

> <r_mmod_Bend_Energy-OPLS-2005>
154.040664672852

> <r_mmod_Torsional_Energy-OPLS-2005>
348.159637451172

> <r_mmod_Improper_Torsional_Energy-OPLS-2005>
7.1819953918457

> <r_mmod_Van_der_Waal_Energy-OPLS-2005>
137.962203979492

> <r_mmod_Electrostatic_Energy-OPLS-2005>
-213.122955322266

> <r_mmod_Solvation_Energy-OPLS-2005>
-460.792663574219

> <b_mmod_Minimization_Converged-OPLS-2005>
0

> <r_mmod_RMS_Derivative-OPLS-2005>
3.40733408927917

$$$$
68
                    3D
 Structure written by MMmdl.
151160  0  0  1  0            999 V2000
  -30.3960  -15.4160   20.3458 C   0  0  0  0  0  0
  -30.4311  -12.9170   19.5374 C   0  0  0  0  0  0
  -29.5389  -12.5984   18.3089 C   0  0  0  0  0  0
  -28.1003  -12.2878   18.7481 C   0  0  0  0  0  0
  -27.6030  -13.2874   19.8186 C   0  0  2  0  0  0
  -28.6295  -13.5397   20.9461 C   0  0  0  0  0  0
  -25.2355  -13.8262   20.5798 C   0  0  0  0  0  0
  -24.1716  -13.0434   20.9273 C   0  0  0  0  0  0
  -24.6388  -11.6936   20.8760 C   0  0  0  0  0  0
  -23.9089  -10.4289   21.0397 C   0  0  0  0  0  0
  -24.3630   -9.4205   21.9180 C   0  0  0  0  0  0
  -23.6296   -8.2246   22.0754 C   0  0  0  0  0  0
  -22.4280   -8.0282   21.3544 C   0  0  0  0  0  0
  -21.9914   -9.0257   20.4648 C   0  0  0  0  0  0
  -22.7253  -10.2133   20.3053 C   0  0  0  0  0  0
  -21.6855   -6.0734   22.5280 C   0  0  0  0  0  0
  -21.4020   -6.5638   23.8211 C   0  0  0  0  0  0
  -21.3658   -5.6791   24.9170 C   0  0  0  0  0  0
  -21.6042   -4.3053   24.7220 C   0  0  0  0  0  0
  -21.8818   -3.8146   23.4345 C   0  0  0  0  0  0
  -21.9192   -4.6960   22.3400 C   0  0  0  0  0  0
  -22.7731  -13.5179   21.1911 C   0  0  0  0  0  0
  -22.1661   -4.2146   21.0980 F   0  0  0  0  0  0
  -21.5622   -3.4539   25.7738 F   0  0  0  0  0  0
  -29.8396  -14.0881   20.3056 N   0  0  0  0  0  0
  -26.2784  -12.9558   20.3238 N   0  0  0  0  0  0
  -25.9328  -11.6650   20.5716 N   0  0  0  0  0  0
  -22.0394  -12.8164   22.0469 N   0  0  0  0  0  0
  -25.3975  -15.2005   20.4291 N   0  0  0  0  0  0
  -31.6206  -15.3720   20.1454 O   0  0  0  0  0  0
  -21.6641   -6.8880   21.4244 O   0  0  0  0  0  0
  -22.3408  -14.5479   20.6747 O   0  0  0  0  0  0
  -24.6714  -31.8140   23.1615 C   0  0  0  0  0  0
  -25.9347  -32.4545   23.8120 C   0  0  1  0  0  0
  -27.2265  -26.8312   20.1953 C   0  0  0  0  0  0
  -25.5974  -33.8366   24.2022 N   0  0  0  0  0  0
  -23.4931  -30.4202   21.5121 C   0  0  2  0  0  0
  -24.9509  -28.7884   20.1120 C   0  0  0  0  0  0
  -22.7716  -29.4394   22.4736 C   0  0  0  0  0  0
  -18.0340  -28.1425   22.8459 C   0  0  0  0  0  0
  -24.1492  -36.7198   23.2654 C   0  0  0  0  0  0
  -26.0668  -30.5874   21.4084 C   0  0  0  0  0  0
  -26.1352  -29.1668   20.7554 C   0  0  0  0  0  0
  -27.2620  -28.2096   20.7733 C   0  0  0  0  0  0
  -26.0149  -26.6350   19.4910 C   0  0  0  0  0  0
  -24.9224  -27.5463   19.4566 C   0  0  0  0  0  0
  -23.7402  -29.7276   20.1424 C   0  0  0  0  0  0
  -25.4133  -36.2946   24.0294 C   0  0  1  0  0  0
  -20.5969  -28.3779   23.1164 C   0  0  2  0  0  0
  -20.6809  -26.9442   22.5415 C   0  0  0  0  0  0
  -19.5789  -26.6379   21.5223 C   0  0  0  0  0  0
  -18.1964  -26.7963   22.1610 C   0  0  0  0  0  0
  -19.1602  -28.8919   23.2799 C   0  0  0  0  0  0
  -18.9516  -30.1502   23.8841 C   0  0  0  0  0  0
  -17.6507  -30.6606   24.0560 C   0  0  0  0  0  0
  -25.9103  -34.9328   23.4990 C   0  0  0  0  0  0
  -16.5392  -29.9093   23.6349 C   0  0  0  0  0  0
  -16.7324  -28.6519   23.0360 C   0  0  0  0  0  0
  -26.4559  -31.6531   25.0688 C   0  0  0  0  0  0
  -25.3651  -31.3817   26.1325 C   0  0  0  0  0  0
  -27.0475  -30.2884   24.6502 C   0  0  0  0  0  0
  -27.6039  -32.4358   25.7484 C   0  0  0  0  0  0
  -27.5568  -37.1744   24.8456 C   0  0  0  0  0  0
  -21.4374  -29.3050   22.3491 N   0  0  0  0  0  0
  -26.4271  -37.3690   23.9410 N   0  0  0  0  0  0
  -24.7658  -30.9696   22.0809 N   0  0  0  0  0  0
  -23.4211  -28.7975   23.3026 O   0  0  0  0  0  0
  -28.1949  -25.6639   20.3013 O   0  0  0  0  0  0
  -26.5737  -34.8881   22.4604 O   0  0  0  0  0  0
  -23.5755  -32.1161   23.6638 O   0  0  0  0  0  0
  -29.5620  -22.0692   21.5271 C   0  0  0  0  0  0
  -29.8935  -20.6965   21.4874 C   0  0  0  0  0  0
  -28.7224  -22.4303   20.4010 C   0  0  0  0  0  0
  -30.8575  -19.8081   22.1921 C   0  0  0  0  0  0
  -31.2158  -18.6516   21.2050 C   0  0  0  0  0  0
  -30.0353  -18.4068   20.2137 C   0  0  2  0  0  0
  -30.0602  -23.0453   22.5586 C   0  0  0  0  0  0
  -27.9373  -24.0174   19.9884 C   0  0  0  0  0  0
  -28.6524  -21.0863   19.7777 N   0  0  0  0  0  0
  -29.3191  -19.9449   20.4882 N   0  0  0  0  0  0
  -29.6645  -16.7456   20.4147 N   0  0  0  0  0  0
  -31.4407  -13.1370   19.1889 H   0  0  0  0  0  0
  -30.5346  -12.0411   20.1803 H   0  0  0  0  0  0
  -29.9499  -11.7603   17.7439 H   0  0  0  0  0  0
  -29.5353  -13.4541   17.6322 H   0  0  0  0  0  0
  -28.0945  -11.2796   19.1642 H   0  0  0  0  0  0
  -27.4283  -12.2706   17.8900 H   0  0  0  0  0  0
  -27.4930  -14.2308   19.2817 H   0  0  0  0  0  0
  -28.8346  -12.6319   21.5155 H   0  0  0  0  0  0
  -28.2385  -14.2700   21.6562 H   0  0  0  0  0  0
  -25.2770   -9.5682   22.4762 H   0  0  0  0  0  0
  -23.9996   -7.4640   22.7484 H   0  0  0  0  0  0
  -21.0840   -8.8783   19.8964 H   0  0  0  0  0  0
  -22.3704  -10.9673   19.6168 H   0  0  0  0  0  0
  -21.2024   -7.6147   23.9713 H   0  0  0  0  0  0
  -21.1477   -6.0522   25.9075 H   0  0  0  0  0  0
  -22.0597   -2.7606   23.2847 H   0  0  0  0  0  0
  -22.4018  -11.9830   22.4853 H   0  0  0  0  0  0
  -21.1014  -13.1186   22.2686 H   0  0  0  0  0  0
  -24.6315  -15.8506   20.5690 H   0  0  0  0  0  0
  -26.2418  -15.6499   20.1015 H   0  0  0  0  0  0
  -26.7420  -32.5053   23.0828 H   0  0  0  0  0  0
  -25.0035  -33.9422   25.0117 H   0  0  0  0  0  0
  -22.8125  -31.2545   21.3309 H   0  0  0  0  0  0
  -23.3770  -35.9507   23.3259 H   0  0  0  0  0  0
  -24.3564  -36.8916   22.2079 H   0  0  0  0  0  0
  -23.7230  -37.6358   23.6760 H   0  0  0  0  0  0
  -26.2531  -31.3200   20.6224 H   0  0  0  0  0  0
  -26.9237  -30.6515   22.0664 H   0  0  0  0  0  0
  -28.1510  -28.4957   21.3172 H   0  0  0  0  0  0
  -25.8717  -25.6903   18.9878 H   0  0  0  0  0  0
  -24.0265  -27.2520   18.9271 H   0  0  0  0  0  0
  -23.9067  -30.4932   19.3837 H   0  0  0  0  0  0
  -22.8484  -29.1875   19.8202 H   0  0  0  0  0  0
  -25.1330  -36.1733   25.0782 H   0  0  0  0  0  0
  -21.0057  -28.3420   24.1292 H   0  0  0  0  0  0
  -20.5695  -26.2402   23.3676 H   0  0  0  0  0  0
  -21.6673  -26.7417   22.1222 H   0  0  0  0  0  0
  -19.6948  -25.6275   21.1295 H   0  0  0  0  0  0
  -19.6741  -27.3155   20.6725 H   0  0  0  0  0  0
  -17.4251  -26.6740   21.3993 H   0  0  0  0  0  0
  -18.0317  -26.0105   22.8997 H   0  0  0  0  0  0
  -19.7994  -30.7327   24.2188 H   0  0  0  0  0  0
  -17.5065  -31.6279   24.5179 H   0  0  0  0  0  0
  -15.5395  -30.2975   23.7712 H   0  0  0  0  0  0
  -15.8728  -28.0824   22.7095 H   0  0  0  0  0  0
  -24.5871  -30.7124   25.7630 H   0  0  0  0  0  0
  -24.8786  -32.3022   26.4565 H   0  0  0  0  0  0
  -25.7843  -30.9119   27.0231 H   0  0  0  0  0  0
  -26.3170  -29.6511   24.1506 H   0  0  0  0  0  0
  -27.3965  -29.7306   25.5200 H   0  0  0  0  0  0
  -27.9117  -30.4034   23.9956 H   0  0  0  0  0  0
  -27.2636  -33.3752   26.1854 H   0  0  0  0  0  0
  -28.3945  -32.6770   25.0367 H   0  0  0  0  0  0
  -28.0591  -31.8619   26.5565 H   0  0  0  0  0  0
  -28.2550  -38.0075   24.7521 H   0  0  0  0  0  0
  -28.1104  -36.2598   24.6259 H   0  0  0  0  0  0
  -27.2285  -37.1359   25.8859 H   0  0  0  0  0  0
  -20.9651  -29.8741   21.6601 H   0  0  0  0  0  0
  -26.0118  -38.2739   24.1448 H   0  0  0  0  0  0
  -30.3840  -19.4005   23.0861 H   0  0  0  0  0  0
  -31.7487  -20.3483   22.5112 H   0  0  0  0  0  0
  -31.5330  -17.7628   21.7502 H   0  0  0  0  0  0
  -32.0798  -18.9659   20.6184 H   0  0  0  0  0  0
  -30.4237  -18.4559   19.1950 H   0  0  0  0  0  0
  -31.0295  -22.7523   22.9643 H   0  0  0  0  0  0
  -29.3740  -23.1269   23.4022 H   0  0  0  0  0  0
  -30.1831  -24.0478   22.1471 H   0  0  0  0  0  0
  -26.9046  -23.8904   20.3116 H   0  0  0  0  0  0
  -27.8562  -24.0105   18.9015 H   0  0  0  0  0  0
  -28.6737  -16.6069   20.5501 H   0  0  0  0  0  0
  1 25  1  0  0  0
  1 30  2  0  0  0
  1 81  1  0  0  0
  2  3  1  0  0  0
  2 25  1  0  0  0
  2 82  1  0  0  0
  2 83  1  0  0  0
  3  4  1  0  0  0
  3 84  1  0  0  0
  3 85  1  0  0  0
  4  5  1  0  0  0
  4 86  1  0  0  0
  4 87  1  0  0  0
  5  6  1  0  0  0
  5 26  1  0  0  0
  5 88  1  0  0  0
  6 25  1  0  0  0
  6 89  1  0  0  0
  6 90  1  0  0  0
  7  8  2  0  0  0
  7 26  1  0  0  0
  7 29  1  0  0  0
  8  9  1  0  0  0
  8 22  1  0  0  0
  9 10  1  0  0  0
  9 27  2  0  0  0
 10 11  2  0  0  0
 10 15  1  0  0  0
 11 12  1  0  0  0
 11 91  1  0  0  0
 12 13  2  0  0  0
 12 92  1  0  0  0
 13 14  1  0  0  0
 13 31  1  0  0  0
 14 15  2  0  0  0
 14 93  1  0  0  0
 15 94  1  0  0  0
 16 17  2  0  0  0
 16 21  1  0  0  0
 16 31  1  0  0  0
 17 18  1  0  0  0
 17 95  1  0  0  0
 18 19  2  0  0  0
 18 96  1  0  0  0
 19 20  1  0  0  0
 19 24  1  0  0  0
 20 21  2  0  0  0
 20 97  1  0  0  0
 21 23  1  0  0  0
 22 28  1  0  0  0
 22 32  2  0  0  0
 26 27  1  0  0  0
 28 98  1  0  0  0
 28 99  1  0  0  0
 29100  1  0  0  0
 29101  1  0  0  0
 33 34  1  0  0  0
 33 66  1  0  0  0
 33 70  2  0  0  0
 34 36  1  0  0  0
 34 59  1  0  0  0
 34102  1  0  0  0
 35 44  2  0  0  0
 35 45  1  0  0  0
 35 68  1  0  0  0
 36 56  1  0  0  0
 36103  1  0  0  0
 37 39  1  0  0  0
 37 47  1  0  0  0
 37 66  1  0  0  0
 37104  1  0  0  0
 38 43  2  0  0  0
 38 46  1  0  0  0
 38 47  1  0  0  0
 39 64  1  0  0  0
 39 67  2  0  0  0
 40 52  1  0  0  0
 40 53  2  0  0  0
 40 58  1  0  0  0
 41105  1  0  0  0
 41106  1  0  0  0
 41107  1  0  0  0
 41 48  1  0  0  0
 42 43  1  0  0  0
 42 66  1  0  0  0
 42108  1  0  0  0
 42109  1  0  0  0
 43 44  1  0  0  0
 44110  1  0  0  0
 45 46  2  0  0  0
 45111  1  0  0  0
 46112  1  0  0  0
 47113  1  0  0  0
 47114  1  0  0  0
 48 56  1  0  0  0
 48 65  1  0  0  0
 48115  1  0  0  0
 49 50  1  0  0  0
 49 53  1  0  0  0
 49 64  1  0  0  0
 49116  1  0  0  0
 50 51  1  0  0  0
 50117  1  0  0  0
 50118  1  0  0  0
 51 52  1  0  0  0
 51119  1  0  0  0
 51120  1  0  0  0
 52121  1  0  0  0
 52122  1  0  0  0
 53 54  1  0  0  0
 54 55  2  0  0  0
 54123  1  0  0  0
 55 57  1  0  0  0
 55124  1  0  0  0
 56 69  2  0  0  0
 57 58  2  0  0  0
 57125  1  0  0  0
 58126  1  0  0  0
 59 60  1  0  0  0
 59 61  1  0  0  0
 59 62  1  0  0  0
 60127  1  0  0  0
 60128  1  0  0  0
 60129  1  0  0  0
 61130  1  0  0  0
 61131  1  0  0  0
 61132  1  0  0  0
 62133  1  0  0  0
 62134  1  0  0  0
 62135  1  0  0  0
 63 65  1  0  0  0
 63136  1  0  0  0
 63137  1  0  0  0
 63138  1  0  0  0
 64139  1  0  0  0
 65140  1  0  0  0
 68 78  1  0  0  0
 71 72  2  0  0  0
 71 73  1  0  0  0
 71 77  1  0  0  0
 72 74  1  0  0  0
 72 80  1  0  0  0
 73 78  1  0  0  0
 73 79  2  0  0  0
 74 75  1  0  0  0
 74141  1  0  0  0
 74142  1  0  0  0
 75 76  1  0  0  0
 75143  1  0  0  0
 75144  1  0  0  0
 76 80  1  0  0  0
 76 81  1  0  0  0
 76145  1  0  0  0
 77146  1  0  0  0
 77147  1  0  0  0
 77148  1  0  0  0
 78149  1  0  0  0
 78150  1  0  0  0
 79 80  1  0  0  0
 81151  1  0  0  0
M  ISO  4   1 100  68 101  78 101  81 100
M  END
> <chiral flag>
0

> <version>
0

> <s_m_source_file>
/data/baiqing/PycharmProjects/Reinvent-master-3.2/result/LINK_invent/BTK/process_docking_weight1_custom_sum_contain_oxygen_bond_distance_aromatic_linkinvent_7_9_3/rearranged_h_0191.sdf

> <i_m_source_file_index>
69

> <r_mmod_Potential_Energy-OPLS-2005>
1739.33703613281

> <r_mmod_Stretch_Energy-OPLS-2005>
744.646545410156

> <r_mmod_Bend_Energy-OPLS-2005>
622.298583984375

> <r_mmod_Torsional_Energy-OPLS-2005>
252.292266845703

> <r_mmod_Improper_Torsional_Energy-OPLS-2005>
13.3412790298462

> <r_mmod_Van_der_Waal_Energy-OPLS-2005>
103.553588867188

> <r_mmod_Electrostatic_Energy-OPLS-2005>
-391.933776855469

> <r_mmod_Solvation_Energy-OPLS-2005>
-232.606948852539

> <b_mmod_Minimization_Converged-OPLS-2005>
0

> <r_mmod_RMS_Derivative-OPLS-2005>
1.43820297718048

$$$$
69
                    3D
 Structure written by MMmdl.
155165  0  0  1  0            999 V2000
  -30.4838  -15.2701   20.4602 C   0  0  0  0  0  0
  -30.4353  -12.8125   19.5781 C   0  0  0  0  0  0
  -29.5632  -12.5962   18.3174 C   0  0  0  0  0  0
  -28.1008  -12.3311   18.7115 C   0  0  0  0  0  0
  -27.6251  -13.2864   19.8365 C   0  0  2  0  0  0
  -28.6409  -13.4623   20.9847 C   0  0  0  0  0  0
  -25.2449  -13.8289   20.5684 C   0  0  0  0  0  0
  -24.1786  -13.0476   20.9174 C   0  0  0  0  0  0
  -24.6469  -11.6968   20.8697 C   0  0  0  0  0  0
  -23.9163  -10.4315   21.0322 C   0  0  0  0  0  0
  -24.3660   -9.4230   21.9113 C   0  0  0  0  0  0
  -23.6324   -8.2282   22.0733 C   0  0  0  0  0  0
  -22.4312   -8.0321   21.3536 C   0  0  0  0  0  0
  -21.9958   -9.0308   20.4649 C   0  0  0  0  0  0
  -22.7310  -10.2173   20.3015 C   0  0  0  0  0  0
  -21.6890   -6.0726   22.5244 C   0  0  0  0  0  0
  -21.4071   -6.5606   23.8194 C   0  0  0  0  0  0
  -21.3655   -5.6713   24.9136 C   0  0  0  0  0  0
  -21.6058   -4.2994   24.7170 C   0  0  0  0  0  0
  -21.8820   -3.8125   23.4294 C   0  0  0  0  0  0
  -21.9225   -4.6948   22.3373 C   0  0  0  0  0  0
  -22.7775  -13.5256   21.1751 C   0  0  0  0  0  0
  -22.1647   -4.2109   21.0927 F   0  0  0  0  0  0
  -21.5640   -3.4494   25.7707 F   0  0  0  0  0  0
  -29.8830  -13.9705   20.3843 N   0  0  0  0  0  0
  -26.2913  -12.9605   20.3223 N   0  0  0  0  0  0
  -25.9431  -11.6694   20.5724 N   0  0  0  0  0  0
  -22.0377  -12.8337   22.0316 N   0  0  0  0  0  0
  -25.4149  -15.2018   20.4064 N   0  0  0  0  0  0
  -31.6912  -15.2167   20.1754 O   0  0  0  0  0  0
  -21.6684   -6.8916   21.4234 O   0  0  0  0  0  0
  -22.3472  -14.5522   20.6516 O   0  0  0  0  0  0
  -24.6655  -31.8275   23.1787 C   0  0  0  0  0  0
  -25.9368  -32.4605   23.8230 C   0  0  1  0  0  0
  -27.2397  -26.9061   20.2953 C   0  0  0  0  0  0
  -25.6024  -33.8431   24.2158 N   0  0  0  0  0  0
  -23.4853  -30.4409   21.5219 C   0  0  2  0  0  0
  -24.9563  -28.8135   20.1325 C   0  0  0  0  0  0
  -22.7677  -29.4475   22.4775 C   0  0  0  0  0  0
  -18.0331  -28.1392   22.8467 C   0  0  0  0  0  0
  -24.1475  -36.7210   23.2625 C   0  0  0  0  0  0
  -26.0562  -30.6342   21.4162 C   0  0  0  0  0  0
  -26.1348  -29.2188   20.7781 C   0  0  0  0  0  0
  -27.2718  -28.2906   20.8283 C   0  0  0  0  0  0
  -26.0432  -26.6707   19.5682 C   0  0  0  0  0  0
  -24.9414  -27.5647   19.4959 C   0  0  0  0  0  0
  -23.7415  -29.7470   20.1536 C   0  0  0  0  0  0
  -25.4123  -36.3008   24.0300 C   0  0  1  0  0  0
  -20.5957  -28.3748   23.1171 C   0  0  2  0  0  0
  -20.6804  -26.9429   22.5405 C   0  0  0  0  0  0
  -19.5793  -26.6349   21.5213 C   0  0  0  0  0  0
  -18.1976  -26.7926   22.1629 C   0  0  0  0  0  0
  -19.1586  -28.8882   23.2812 C   0  0  0  0  0  0
  -18.9505  -30.1477   23.8827 C   0  0  0  0  0  0
  -17.6490  -30.6589   24.0524 C   0  0  0  0  0  0
  -25.9102  -34.9364   23.5053 C   0  0  0  0  0  0
  -16.5372  -29.9054   23.6336 C   0  0  0  0  0  0
  -16.7303  -28.6474   23.0352 C   0  0  0  0  0  0
  -26.4614  -31.6515   25.0739 C   0  0  0  0  0  0
  -25.3665  -31.3815   26.1337 C   0  0  0  0  0  0
  -27.0561  -30.2861   24.6524 C   0  0  0  0  0  0
  -27.6171  -32.4224   25.7552 C   0  0  0  0  0  0
  -27.5616  -37.1735   24.8434 C   0  0  0  0  0  0
  -21.4320  -29.3070   22.3486 N   0  0  0  0  0  0
  -26.4293  -37.3751   23.9410 N   0  0  0  0  0  0
  -24.7560  -30.9934   22.0949 N   0  0  0  0  0  0
  -23.4203  -28.8050   23.3019 O   0  0  0  0  0  0
  -28.2544  -25.8057   20.2746 O   0  0  0  0  0  0
  -26.5742  -34.8895   22.4644 O   0  0  0  0  0  0
  -23.5726  -32.1278   23.6891 O   0  0  0  0  0  0
  -28.7130  -22.0406   22.3830 C   0  0  0  0  0  0
  -28.4761  -23.3117   22.9663 C   0  0  0  0  0  0
  -28.7597  -21.8714   20.9930 C   0  0  0  0  0  0
  -28.2393  -24.4320   20.9059 C   0  0  0  0  0  0
  -29.8495  -22.8119   25.1388 C   0  0  0  0  0  0
  -28.4326  -22.4491   25.5343 C   0  0  0  0  0  0
  -28.8057  -17.5422   20.1846 C   0  0  0  0  0  0
  -30.5701  -17.9710   21.0353 C   0  0  0  0  0  0
  -28.6751  -23.5077   24.4701 C   0  0  0  0  0  0
  -29.2213  -18.9003   21.0159 C   0  0  0  0  0  0
  -28.2182  -24.4478   22.2441 N   0  0  0  0  0  0
  -28.5498  -23.1484   20.2931 N   0  0  0  0  0  0
  -29.8725  -16.5942   20.8002 N   0  0  0  0  0  0
  -29.0789  -20.4515   20.4471 N   0  0  0  0  0  0
  -31.4656  -12.9830   19.2700 H   0  0  0  0  0  0
  -30.4666  -11.9026   20.1822 H   0  0  0  0  0  0
  -29.9590  -11.7616   17.7350 H   0  0  0  0  0  0
  -29.6181  -13.4814   17.6815 H   0  0  0  0  0  0
  -28.0188  -11.2960   19.0386 H   0  0  0  0  0  0
  -27.4610  -12.4169   17.8359 H   0  0  0  0  0  0
  -27.5648  -14.2627   19.3584 H   0  0  0  0  0  0
  -28.7945  -12.5420   21.5506 H   0  0  0  0  0  0
  -28.2729  -14.2002   21.6959 H   0  0  0  0  0  0
  -25.2815   -9.5720   22.4621 H   0  0  0  0  0  0
  -24.0030   -7.4717   22.7514 H   0  0  0  0  0  0
  -21.0877   -8.8877   19.9004 H   0  0  0  0  0  0
  -22.3792  -10.9683   19.6087 H   0  0  0  0  0  0
  -21.2067   -7.6113   23.9699 H   0  0  0  0  0  0
  -21.1463   -6.0427   25.9021 H   0  0  0  0  0  0
  -22.0626   -2.7598   23.2775 H   0  0  0  0  0  0
  -22.4070  -12.0107   22.4854 H   0  0  0  0  0  0
  -21.1016  -13.1418   22.2402 H   0  0  0  0  0  0
  -24.6630  -15.8709   20.5356 H   0  0  0  0  0  0
  -26.2786  -15.6251   20.0824 H   0  0  0  0  0  0
  -26.7449  -32.5201   23.0976 H   0  0  0  0  0  0
  -25.0001  -33.9475   25.0193 H   0  0  0  0  0  0
  -22.7998  -31.2749   21.3414 H   0  0  0  0  0  0
  -23.3795  -35.9486   23.3207 H   0  0  0  0  0  0
  -24.3546  -36.8949   22.2067 H   0  0  0  0  0  0
  -23.7179  -37.6341   23.6710 H   0  0  0  0  0  0
  -26.2390  -31.3736   20.6339 H   0  0  0  0  0  0
  -26.9099  -30.6959   22.0822 H   0  0  0  0  0  0
  -28.1671  -28.6236   21.3402 H   0  0  0  0  0  0
  -25.9366  -25.7151   19.0784 H   0  0  0  0  0  0
  -24.0584  -27.2467   18.9576 H   0  0  0  0  0  0
  -23.9154  -30.5106   19.3938 H   0  0  0  0  0  0
  -22.8477  -29.2122   19.8272 H   0  0  0  0  0  0
  -25.1302  -36.1818   25.0803 H   0  0  0  0  0  0
  -21.0101  -28.3379   24.1268 H   0  0  0  0  0  0
  -20.5687  -26.2385   23.3663 H   0  0  0  0  0  0
  -21.6675  -26.7397   22.1245 H   0  0  0  0  0  0
  -19.6956  -25.6237   21.1311 H   0  0  0  0  0  0
  -19.6744  -27.3094   20.6689 H   0  0  0  0  0  0
  -17.4273  -26.6684   21.3999 H   0  0  0  0  0  0
  -18.0349  -26.0064   22.9022 H   0  0  0  0  0  0
  -19.7949  -30.7316   24.2205 H   0  0  0  0  0  0
  -17.5008  -31.6268   24.5132 H   0  0  0  0  0  0
  -15.5362  -30.2923   23.7663 H   0  0  0  0  0  0
  -15.8722  -28.0744   22.7099 H   0  0  0  0  0  0
  -24.5790  -30.7271   25.7555 H   0  0  0  0  0  0
  -24.8930  -32.3076   26.4597 H   0  0  0  0  0  0
  -25.7772  -30.8998   27.0219 H   0  0  0  0  0  0
  -26.3300  -29.6429   24.1534 H   0  0  0  0  0  0
  -27.4089  -29.7297   25.5228 H   0  0  0  0  0  0
  -27.9214  -30.4012   23.9986 H   0  0  0  0  0  0
  -27.2802  -33.3500   26.2148 H   0  0  0  0  0  0
  -28.4013  -32.6780   25.0415 H   0  0  0  0  0  0
  -28.0786  -31.8295   26.5456 H   0  0  0  0  0  0
  -28.2557  -38.0112   24.7654 H   0  0  0  0  0  0
  -28.1205  -36.2684   24.6037 H   0  0  0  0  0  0
  -27.2341  -37.1097   25.8823 H   0  0  0  0  0  0
  -20.9595  -29.8750   21.6620 H   0  0  0  0  0  0
  -26.0153  -38.2802   24.1450 H   0  0  0  0  0  0
  -28.9204  -21.1947   23.0245 H   0  0  0  0  0  0
  -30.4075  -22.0560   24.5861 H   0  0  0  0  0  0
  -30.4530  -23.4211   25.8119 H   0  0  0  0  0  0
  -28.1741  -22.7274   26.5576 H   0  0  0  0  0  0
  -27.9881  -21.5146   25.2074 H   0  0  0  0  0  0
  -28.9373  -17.6528   19.1090 H   0  0  0  0  0  0
  -27.7760  -17.2365   20.3774 H   0  0  0  0  0  0
  -31.1073  -18.0318   21.9865 H   0  0  0  0  0  0
  -31.2665  -18.2264   20.2357 H   0  0  0  0  0  0
  -28.4618  -24.5280   24.7872 H   0  0  0  0  0  0
  -28.7582  -18.8671   22.0067 H   0  0  0  0  0  0
  -29.1414  -20.4785   19.4333 H   0  0  0  0  0  0
  1 25  1  0  0  0
  1 30  2  0  0  0
  1 83  1  0  0  0
  2  3  1  0  0  0
  2 25  1  0  0  0
  2 85  1  0  0  0
  2 86  1  0  0  0
  3  4  1  0  0  0
  3 87  1  0  0  0
  3 88  1  0  0  0
  4  5  1  0  0  0
  4 89  1  0  0  0
  4 90  1  0  0  0
  5  6  1  0  0  0
  5 26  1  0  0  0
  5 91  1  0  0  0
  6 25  1  0  0  0
  6 92  1  0  0  0
  6 93  1  0  0  0
  7  8  2  0  0  0
  7 26  1  0  0  0
  7 29  1  0  0  0
  8  9  1  0  0  0
  8 22  1  0  0  0
  9 10  1  0  0  0
  9 27  2  0  0  0
 10 11  2  0  0  0
 10 15  1  0  0  0
 11 12  1  0  0  0
 11 94  1  0  0  0
 12 13  2  0  0  0
 12 95  1  0  0  0
 13 14  1  0  0  0
 13 31  1  0  0  0
 14 15  2  0  0  0
 14 96  1  0  0  0
 15 97  1  0  0  0
 16 17  2  0  0  0
 16 21  1  0  0  0
 16 31  1  0  0  0
 17 18  1  0  0  0
 17 98  1  0  0  0
 18 19  2  0  0  0
 18 99  1  0  0  0
 19 20  1  0  0  0
 19 24  1  0  0  0
 20 21  2  0  0  0
 20100  1  0  0  0
 21 23  1  0  0  0
 22 28  1  0  0  0
 22 32  2  0  0  0
 26 27  1  0  0  0
 28101  1  0  0  0
 28102  1  0  0  0
 29103  1  0  0  0
 29104  1  0  0  0
 33 34  1  0  0  0
 33 66  1  0  0  0
 33 70  2  0  0  0
 34 36  1  0  0  0
 34 59  1  0  0  0
 34105  1  0  0  0
 35 44  2  0  0  0
 35 45  1  0  0  0
 35 68  1  0  0  0
 36 56  1  0  0  0
 36106  1  0  0  0
 37 39  1  0  0  0
 37 47  1  0  0  0
 37 66  1  0  0  0
 37107  1  0  0  0
 38 43  2  0  0  0
 38 46  1  0  0  0
 38 47  1  0  0  0
 39 64  1  0  0  0
 39 67  2  0  0  0
 40 52  1  0  0  0
 40 53  2  0  0  0
 40 58  1  0  0  0
 41108  1  0  0  0
 41109  1  0  0  0
 41110  1  0  0  0
 41 48  1  0  0  0
 42 43  1  0  0  0
 42 66  1  0  0  0
 42111  1  0  0  0
 42112  1  0  0  0
 43 44  1  0  0  0
 44113  1  0  0  0
 45 46  2  0  0  0
 45114  1  0  0  0
 46115  1  0  0  0
 47116  1  0  0  0
 47117  1  0  0  0
 48 56  1  0  0  0
 48 65  1  0  0  0
 48118  1  0  0  0
 49 50  1  0  0  0
 49 53  1  0  0  0
 49 64  1  0  0  0
 49119  1  0  0  0
 50 51  1  0  0  0
 50120  1  0  0  0
 50121  1  0  0  0
 51 52  1  0  0  0
 51122  1  0  0  0
 51123  1  0  0  0
 52124  1  0  0  0
 52125  1  0  0  0
 53 54  1  0  0  0
 54 55  2  0  0  0
 54126  1  0  0  0
 55 57  1  0  0  0
 55127  1  0  0  0
 56 69  2  0  0  0
 57 58  2  0  0  0
 57128  1  0  0  0
 58129  1  0  0  0
 59 60  1  0  0  0
 59 61  1  0  0  0
 59 62  1  0  0  0
 60130  1  0  0  0
 60131  1  0  0  0
 60132  1  0  0  0
 61133  1  0  0  0
 61134  1  0  0  0
 61135  1  0  0  0
 62136  1  0  0  0
 62137  1  0  0  0
 62138  1  0  0  0
 63 65  1  0  0  0
 63139  1  0  0  0
 63140  1  0  0  0
 63141  1  0  0  0
 64142  1  0  0  0
 65143  1  0  0  0
 68 74  1  0  0  0
 71 72  2  0  0  0
 71 73  1  0  0  0
 71144  1  0  0  0
 72 81  1  0  0  0
 72 79  1  0  0  0
 73 82  2  0  0  0
 73 84  1  0  0  0
 74 81  2  0  0  0
 74 82  1  0  0  0
 75 76  1  0  0  0
 75 79  1  0  0  0
 75145  1  0  0  0
 75146  1  0  0  0
 76 79  1  0  0  0
 76147  1  0  0  0
 76148  1  0  0  0
 77 80  1  0  0  0
 77 83  1  0  0  0
 77149  1  0  0  0
 77150  1  0  0  0
 78 80  1  0  0  0
 78 83  1  0  0  0
 78151  1  0  0  0
 78152  1  0  0  0
 79153  1  0  0  0
 80 84  1  0  0  0
 80154  1  0  0  0
 84155  1  0  0  0
M  ISO  4   1 100  68 101  74 101  83 100
M  END
> <chiral flag>
0

> <version>
0

> <s_m_source_file>
/data/baiqing/PycharmProjects/Reinvent-master-3.2/result/LINK_invent/BTK/process_docking_weight1_custom_sum_contain_oxygen_bond_distance_aromatic_linkinvent_7_9_3/rearranged_h_0191.sdf

> <i_m_source_file_index>
70

> <r_mmod_Potential_Energy-OPLS-2005>
803.270446777344

> <r_mmod_Stretch_Energy-OPLS-2005>
498.149810791016

> <r_mmod_Bend_Energy-OPLS-2005>
476.939056396484

> <r_mmod_Torsional_Energy-OPLS-2005>
302.548919677734

> <r_mmod_Improper_Torsional_Energy-OPLS-2005>
11.0116271972656

> <r_mmod_Van_der_Waal_Energy-OPLS-2005>
124.613624572754

> <r_mmod_Electrostatic_Energy-OPLS-2005>
-831.316772460938

> <r_mmod_Solvation_Energy-OPLS-2005>
-241.858535766602

> <b_mmod_Minimization_Converged-OPLS-2005>
0

> <r_mmod_RMS_Derivative-OPLS-2005>
9.59337425231934

$$$$
70
                    3D
 Structure written by MMmdl.
172181  0  0  1  0            999 V2000
  -30.5759  -14.9311   20.4897 C   0  0  0  0  0  0
  -30.4342  -12.5908   19.5055 C   0  0  0  0  0  0
  -29.5237  -12.5583   18.2559 C   0  0  0  0  0  0
  -28.0568  -12.3329   18.6649 C   0  0  0  0  0  0
  -27.6314  -13.2503   19.8395 C   0  0  2  0  0  0
  -28.6647  -13.2596   20.9829 C   0  0  0  0  0  0
  -25.2471  -13.8223   20.5701 C   0  0  0  0  0  0
  -24.1781  -13.0450   20.9209 C   0  0  0  0  0  0
  -24.6397  -11.6928   20.8723 C   0  0  0  0  0  0
  -23.9084  -10.4301   21.0396 C   0  0  0  0  0  0
  -24.3635   -9.4217   21.9174 C   0  0  0  0  0  0
  -23.6315   -8.2248   22.0744 C   0  0  0  0  0  0
  -22.4295   -8.0283   21.3540 C   0  0  0  0  0  0
  -21.9928   -9.0257   20.4641 C   0  0  0  0  0  0
  -22.7253  -10.2137   20.3052 C   0  0  0  0  0  0
  -21.6865   -6.0729   22.5280 C   0  0  0  0  0  0
  -21.4016   -6.5629   23.8215 C   0  0  0  0  0  0
  -21.3668   -5.6778   24.9171 C   0  0  0  0  0  0
  -21.6049   -4.3043   24.7223 C   0  0  0  0  0  0
  -21.8824   -3.8138   23.4342 C   0  0  0  0  0  0
  -21.9196   -4.6956   22.3399 C   0  0  0  0  0  0
  -22.7806  -13.5215   21.1868 C   0  0  0  0  0  0
  -22.1671   -4.2139   21.0979 F   0  0  0  0  0  0
  -21.5635   -3.4533   25.7741 F   0  0  0  0  0  0
  -29.9550  -13.6783   20.4117 N   0  0  0  0  0  0
  -26.2888  -12.9457   20.3219 N   0  0  0  0  0  0
  -25.9332  -11.6583   20.5704 N   0  0  0  0  0  0
  -22.0443  -12.8223   22.0424 N   0  0  0  0  0  0
  -25.4169  -15.1956   20.4182 N   0  0  0  0  0  0
  -31.7140  -15.0232   20.0164 O   0  0  0  0  0  0
  -21.6651   -6.8883   21.4247 O   0  0  0  0  0  0
  -22.3492  -14.5511   20.6691 O   0  0  0  0  0  0
  -24.6453  -31.8426   23.1881 C   0  0  0  0  0  0
  -25.9218  -32.4683   23.8268 C   0  0  1  0  0  0
  -27.2086  -27.1167   20.1507 C   0  0  0  0  0  0
  -25.5961  -33.8492   24.2178 N   0  0  0  0  0  0
  -23.4489  -30.4642   21.5339 C   0  0  2  0  0  0
  -24.8966  -28.8898   20.1115 C   0  0  0  0  0  0
  -22.7573  -29.4543   22.4844 C   0  0  0  0  0  0
  -18.0303  -28.1405   22.8473 C   0  0  0  0  0  0
  -24.1492  -36.7248   23.2646 C   0  0  0  0  0  0
  -26.0085  -30.7096   21.3915 C   0  0  0  0  0  0
  -26.0764  -29.3201   20.7317 C   0  0  0  0  0  0
  -27.2353  -28.4509   20.7315 C   0  0  0  0  0  0
  -26.0043  -26.7986   19.4849 C   0  0  0  0  0  0
  -24.8749  -27.6437   19.4719 C   0  0  0  0  0  0
  -23.6756  -29.7964   20.1527 C   0  0  0  0  0  0
  -25.4123  -36.3024   24.0313 C   0  0  1  0  0  0
  -20.5915  -28.3723   23.1227 C   0  0  2  0  0  0
  -20.6794  -26.9423   22.5405 C   0  0  0  0  0  0
  -19.5770  -26.6378   21.5222 C   0  0  0  0  0  0
  -18.1944  -26.7945   22.1625 C   0  0  0  0  0  0
  -19.1559  -28.8881   23.2847 C   0  0  0  0  0  0
  -18.9484  -30.1479   23.8872 C   0  0  0  0  0  0
  -17.6479  -30.6598   24.0555 C   0  0  0  0  0  0
  -25.9073  -34.9399   23.5050 C   0  0  0  0  0  0
  -16.5368  -29.9085   23.6348 C   0  0  0  0  0  0
  -16.7291  -28.6510   23.0362 C   0  0  0  0  0  0
  -26.4538  -31.6564   25.0720 C   0  0  0  0  0  0
  -25.3714  -31.3752   26.1408 C   0  0  0  0  0  0
  -27.0409  -30.2956   24.6322 C   0  0  0  0  0  0
  -27.6056  -32.4345   25.7507 C   0  0  0  0  0  0
  -27.5573  -37.1776   24.8465 C   0  0  0  0  0  0
  -21.4262  -29.3050   22.3601 N   0  0  0  0  0  0
  -26.4282  -37.3739   23.9408 N   0  0  0  0  0  0
  -24.7208  -31.0269   22.0926 N   0  0  0  0  0  0
  -23.4214  -28.8089   23.2995 O   0  0  0  0  0  0
  -28.2552  -26.1174   20.1995 O   0  0  0  0  0  0
  -26.5665  -34.8900   22.4635 O   0  0  0  0  0  0
  -23.5571  -32.1316   23.7093 O   0  0  0  0  0  0
  -30.4170  -21.8427   18.5059 C   0  0  0  0  0  0
  -30.1332  -15.8411   22.5686 C   0  0  0  0  0  0
  -30.7997  -20.9629   19.7197 C   0  0  0  0  0  0
  -31.5293  -16.3346   23.0863 C   0  0  0  0  0  0
  -28.5160  -21.6257   20.4237 C   0  0  0  0  0  0
  -31.7090  -17.9590   21.1788 C   0  0  0  0  0  0
  -29.8021  -23.2384   18.8443 C   0  0  2  0  0  0
  -28.9785  -23.2347   20.1747 C   0  0  1  0  0  0
  -30.1873  -17.6848   21.0399 C   0  0  1  0  0  0
  -29.7917  -23.7717   16.3077 C   0  0  0  0  0  0
  -29.0040  -23.7711   17.6265 C   0  0  0  0  0  0
  -27.9437  -24.5811   20.2993 C   0  0  0  0  0  0
  -29.3253  -18.9100   20.2341 C   0  0  0  0  0  0
  -29.9689  -16.0765   21.1075 N   0  0  0  0  0  0
  -32.3838  -16.9415   22.0266 N   0  3  0  0  0  0
  -29.6098  -20.4756   20.4708 N   0  3  1  0  0  0
  -31.4735  -12.7323   19.2042 H   0  0  0  0  0  0
  -30.4093  -11.6290   20.0206 H   0  0  0  0  0  0
  -29.8478  -11.7765   17.5689 H   0  0  0  0  0  0
  -29.6146  -13.5019   17.7143 H   0  0  0  0  0  0
  -27.9530  -11.2872   18.9580 H   0  0  0  0  0  0
  -27.3961  -12.4780   17.8095 H   0  0  0  0  0  0
  -27.6023  -14.2611   19.4307 H   0  0  0  0  0  0
  -28.7429  -12.2782   21.4531 H   0  0  0  0  0  0
  -28.3217  -13.9456   21.7569 H   0  0  0  0  0  0
  -25.2787   -9.5693   22.4738 H   0  0  0  0  0  0
  -24.0029   -7.4642   22.7457 H   0  0  0  0  0  0
  -21.0859   -8.8775   19.8949 H   0  0  0  0  0  0
  -22.3718  -10.9668   19.6154 H   0  0  0  0  0  0
  -21.2002   -7.6138   23.9719 H   0  0  0  0  0  0
  -21.1493   -6.0500   25.9073 H   0  0  0  0  0  0
  -22.0595   -2.7599   23.2845 H   0  0  0  0  0  0
  -22.4077  -11.9924   22.4879 H   0  0  0  0  0  0
  -21.1039  -13.1232   22.2567 H   0  0  0  0  0  0
  -24.6494  -15.8495   20.5297 H   0  0  0  0  0  0
  -26.2743  -15.6398   20.1158 H   0  0  0  0  0  0
  -26.7275  -32.5283   23.0991 H   0  0  0  0  0  0
  -25.0087  -33.9602   25.0309 H   0  0  0  0  0  0
  -22.7530  -31.2918   21.3807 H   0  0  0  0  0  0
  -23.3764  -35.9571   23.3290 H   0  0  0  0  0  0
  -24.3585  -36.8898   22.2066 H   0  0  0  0  0  0
  -23.7229  -37.6430   23.6697 H   0  0  0  0  0  0
  -26.1712  -31.4628   20.6192 H   0  0  0  0  0  0
  -26.8769  -30.7557   22.0369 H   0  0  0  0  0  0
  -28.1347  -28.7752   21.2353 H   0  0  0  0  0  0
  -25.8931  -25.8608   18.9646 H   0  0  0  0  0  0
  -23.9777  -27.3124   18.9674 H   0  0  0  0  0  0
  -23.8150  -30.5733   19.3999 H   0  0  0  0  0  0
  -22.7884  -29.2426   19.8406 H   0  0  0  0  0  0
  -25.1307  -36.1851   25.0802 H   0  0  0  0  0  0
  -21.0018  -28.3328   24.1346 H   0  0  0  0  0  0
  -20.5707  -26.2336   23.3625 H   0  0  0  0  0  0
  -21.6653  -26.7438   22.1190 H   0  0  0  0  0  0
  -19.6927  -25.6283   21.1269 H   0  0  0  0  0  0
  -19.6712  -27.3173   20.6741 H   0  0  0  0  0  0
  -17.4213  -26.6687   21.4030 H   0  0  0  0  0  0
  -18.0339  -26.0094   22.9030 H   0  0  0  0  0  0
  -19.7959  -30.7304   24.2229 H   0  0  0  0  0  0
  -17.5033  -31.6285   24.5153 H   0  0  0  0  0  0
  -15.5370  -30.2981   23.7693 H   0  0  0  0  0  0
  -15.8692  -28.0828   22.7091 H   0  0  0  0  0  0
  -24.5901  -30.7094   25.7727 H   0  0  0  0  0  0
  -24.8901  -32.2931   26.4790 H   0  0  0  0  0  0
  -25.7991  -30.8954   27.0218 H   0  0  0  0  0  0
  -26.3033  -29.6670   24.1320 H   0  0  0  0  0  0
  -27.4001  -29.7268   25.4910 H   0  0  0  0  0  0
  -27.8952  -30.4192   23.9660 H   0  0  0  0  0  0
  -27.2637  -33.3669   26.2018 H   0  0  0  0  0  0
  -28.3901  -32.6870   25.0358 H   0  0  0  0  0  0
  -28.0689  -31.8519   26.5482 H   0  0  0  0  0  0
  -28.2566  -38.0098   24.7526 H   0  0  0  0  0  0
  -28.1087  -36.2619   24.6267 H   0  0  0  0  0  0
  -27.2292  -37.1394   25.8870 H   0  0  0  0  0  0
  -20.9477  -29.8758   21.6773 H   0  0  0  0  0  0
  -26.0148  -38.2799   24.1433 H   0  0  0  0  0  0
  -29.7260  -21.2722   17.8834 H   0  0  0  0  0  0
  -31.3047  -21.9907   17.8895 H   0  0  0  0  0  0
  -29.3220  -16.3200   23.1214 H   0  0  0  0  0  0
  -30.0294  -14.7950   22.8661 H   0  0  0  0  0  0
  -31.4329  -21.5373   20.3969 H   0  0  0  0  0  0
  -31.4081  -20.1258   19.3777 H   0  0  0  0  0  0
  -32.0761  -15.5036   23.5351 H   0  0  0  0  0  0
  -31.3870  -17.0653   23.8841 H   0  0  0  0  0  0
  -27.8049  -21.3618   19.6397 H   0  0  0  0  0  0
  -27.9464  -21.5688   21.3514 H   0  0  0  0  0  0
  -31.8721  -18.9382   21.6311 H   0  0  0  0  0  0
  -32.1932  -17.9770   20.2019 H   0  0  0  0  0  0
  -30.6319  -23.9303   19.0015 H   0  0  0  0  0  0
  -29.7005  -23.4119   20.9722 H   0  0  0  0  0  0
  -29.8226  -18.0266   22.0088 H   0  0  0  0  0  0
  -30.0222  -22.7613   15.9678 H   0  0  0  0  0  0
  -30.7322  -24.3141   16.4083 H   0  0  0  0  0  0
  -29.2182  -24.2501   15.5135 H   0  0  0  0  0  0
  -28.6902  -24.7992   17.8110 H   0  0  0  0  0  0
  -28.0899  -23.1898   17.4967 H   0  0  0  0  0  0
  -27.4706  -24.4842   21.2769 H   0  0  0  0  0  0
  -27.1400  -24.3551   19.6044 H   0  0  0  0  0  0
  -28.2725  -18.7559   20.4686 H   0  0  0  0  0  0
  -29.3894  -18.7286   19.1599 H   0  0  0  0  0  0
  -32.6627  -16.1971   21.3992 H   0  0  0  0  0  0
  -33.2275  -17.3216   22.4275 H   0  0  0  0  0  0
  -29.8982  -20.5099   21.4381 H   0  0  0  0  0  0
  1 25  1  0  0  0
  1 30  2  0  0  0
  1 84  1  0  0  0
  2  3  1  0  0  0
  2 25  1  0  0  0
  2 87  1  0  0  0
  2 88  1  0  0  0
  3  4  1  0  0  0
  3 89  1  0  0  0
  3 90  1  0  0  0
  4  5  1  0  0  0
  4 91  1  0  0  0
  4 92  1  0  0  0
  5  6  1  0  0  0
  5 26  1  0  0  0
  5 93  1  0  0  0
  6 25  1  0  0  0
  6 94  1  0  0  0
  6 95  1  0  0  0
  7  8  2  0  0  0
  7 26  1  0  0  0
  7 29  1  0  0  0
  8  9  1  0  0  0
  8 22  1  0  0  0
  9 10  1  0  0  0
  9 27  2  0  0  0
 10 11  2  0  0  0
 10 15  1  0  0  0
 11 12  1  0  0  0
 11 96  1  0  0  0
 12 13  2  0  0  0
 12 97  1  0  0  0
 13 14  1  0  0  0
 13 31  1  0  0  0
 14 15  2  0  0  0
 14 98  1  0  0  0
 15 99  1  0  0  0
 16 17  2  0  0  0
 16 21  1  0  0  0
 16 31  1  0  0  0
 17 18  1  0  0  0
 17100  1  0  0  0
 18 19  2  0  0  0
 18101  1  0  0  0
 19 20  1  0  0  0
 19 24  1  0  0  0
 20 21  2  0  0  0
 20102  1  0  0  0
 21 23  1  0  0  0
 22 28  1  0  0  0
 22 32  2  0  0  0
 26 27  1  0  0  0
 28103  1  0  0  0
 28104  1  0  0  0
 29105  1  0  0  0
 29106  1  0  0  0
 33 34  1  0  0  0
 33 66  1  0  0  0
 33 70  2  0  0  0
 34 36  1  0  0  0
 34 59  1  0  0  0
 34107  1  0  0  0
 35 44  2  0  0  0
 35 45  1  0  0  0
 35 68  1  0  0  0
 36 56  1  0  0  0
 36108  1  0  0  0
 37 39  1  0  0  0
 37 47  1  0  0  0
 37 66  1  0  0  0
 37109  1  0  0  0
 38 43  2  0  0  0
 38 46  1  0  0  0
 38 47  1  0  0  0
 39 64  1  0  0  0
 39 67  2  0  0  0
 40 52  1  0  0  0
 40 53  2  0  0  0
 40 58  1  0  0  0
 41110  1  0  0  0
 41111  1  0  0  0
 41112  1  0  0  0
 41 48  1  0  0  0
 42 43  1  0  0  0
 42 66  1  0  0  0
 42113  1  0  0  0
 42114  1  0  0  0
 43 44  1  0  0  0
 44115  1  0  0  0
 45 46  2  0  0  0
 45116  1  0  0  0
 46117  1  0  0  0
 47118  1  0  0  0
 47119  1  0  0  0
 48 56  1  0  0  0
 48 65  1  0  0  0
 48120  1  0  0  0
 49 50  1  0  0  0
 49 53  1  0  0  0
 49 64  1  0  0  0
 49121  1  0  0  0
 50 51  1  0  0  0
 50122  1  0  0  0
 50123  1  0  0  0
 51 52  1  0  0  0
 51124  1  0  0  0
 51125  1  0  0  0
 52126  1  0  0  0
 52127  1  0  0  0
 53 54  1  0  0  0
 54 55  2  0  0  0
 54128  1  0  0  0
 55 57  1  0  0  0
 55129  1  0  0  0
 56 69  2  0  0  0
 57 58  2  0  0  0
 57130  1  0  0  0
 58131  1  0  0  0
 59 60  1  0  0  0
 59 61  1  0  0  0
 59 62  1  0  0  0
 60132  1  0  0  0
 60133  1  0  0  0
 60134  1  0  0  0
 61135  1  0  0  0
 61136  1  0  0  0
 61137  1  0  0  0
 62138  1  0  0  0
 62139  1  0  0  0
 62140  1  0  0  0
 63 65  1  0  0  0
 63141  1  0  0  0
 63142  1  0  0  0
 63143  1  0  0  0
 64144  1  0  0  0
 65145  1  0  0  0
 68 82  1  0  0  0
 71 73  1  0  0  0
 71 77  1  0  0  0
 71146  1  0  0  0
 71147  1  0  0  0
 72 74  1  0  0  0
 72 84  1  0  0  0
 72148  1  0  0  0
 72149  1  0  0  0
 73 86  1  0  0  0
 73150  1  0  0  0
 73151  1  0  0  0
 74 85  1  0  0  0
 74152  1  0  0  0
 74153  1  0  0  0
 75 78  1  0  0  0
 75 86  1  0  0  0
 75154  1  0  0  0
 75155  1  0  0  0
 76 79  1  0  0  0
 76 85  1  0  0  0
 76156  1  0  0  0
 76157  1  0  0  0
 77 78  1  0  0  0
 77 81  1  0  0  0
 77158  1  0  0  0
 78 82  1  0  0  0
 78159  1  0  0  0
 79 83  1  0  0  0
 79 84  1  0  0  0
 79160  1  0  0  0
 80 81  1  0  0  0
 80161  1  0  0  0
 80162  1  0  0  0
 80163  1  0  0  0
 81164  1  0  0  0
 81165  1  0  0  0
 82166  1  0  0  0
 82167  1  0  0  0
 83168  1  0  0  0
 83169  1  0  0  0
 83 86  1  0  0  0
 85170  1  0  0  0
 85171  1  0  0  0
 86172  1  0  0  0
M  CHG  2  85   1  86   1
M  ISO  4   1 100  68 101  82 101  84 100
M  END
> <chiral flag>
0

> <version>
0

> <s_m_source_file>
/data/baiqing/PycharmProjects/Reinvent-master-3.2/result/LINK_invent/BTK/process_docking_weight1_custom_sum_contain_oxygen_bond_distance_aromatic_linkinvent_7_9_3/rearranged_h_0191.sdf

> <i_m_source_file_index>
71

> <r_mmod_Potential_Energy-OPLS-2005>
646.325317382812

> <r_mmod_Stretch_Energy-OPLS-2005>
322.121063232422

> <r_mmod_Bend_Energy-OPLS-2005>
357.323547363281

> <r_mmod_Torsional_Energy-OPLS-2005>
446.284484863281

> <r_mmod_Improper_Torsional_Energy-OPLS-2005>
7.50049924850464

> <r_mmod_Van_der_Waal_Energy-OPLS-2005>
164.290817260742

> <r_mmod_Electrostatic_Energy-OPLS-2005>
100.013397216797

> <r_mmod_Solvation_Energy-OPLS-2005>
-942.886352539062

> <b_mmod_Minimization_Converged-OPLS-2005>
0

> <r_mmod_RMS_Derivative-OPLS-2005>
1.94162154197693

$$$$
71
                    3D
 Structure written by MMmdl.
153162  0  0  1  0            999 V2000
  -30.6100  -14.8340   20.4384 C   0  0  0  0  0  0
  -30.4315  -12.5179   19.5089 C   0  0  0  0  0  0
  -29.5188  -12.4997   18.2623 C   0  0  0  0  0  0
  -28.0505  -12.3069   18.6779 C   0  0  0  0  0  0
  -27.6268  -13.2466   19.8355 C   0  0  2  0  0  0
  -28.6638  -13.2760   20.9802 C   0  0  0  0  0  0
  -25.2406  -13.8204   20.5711 C   0  0  0  0  0  0
  -24.1748  -13.0425   20.9227 C   0  0  0  0  0  0
  -24.6378  -11.6899   20.8750 C   0  0  0  0  0  0
  -23.9080  -10.4256   21.0397 C   0  0  0  0  0  0
  -24.3611   -9.4162   21.9178 C   0  0  0  0  0  0
  -23.6262   -8.2216   22.0749 C   0  0  0  0  0  0
  -22.4247   -8.0256   21.3546 C   0  0  0  0  0  0
  -21.9898   -9.0243   20.4657 C   0  0  0  0  0  0
  -22.7235  -10.2111   20.3050 C   0  0  0  0  0  0
  -21.6841   -6.0717   22.5286 C   0  0  0  0  0  0
  -21.4016   -6.5630   23.8216 C   0  0  0  0  0  0
  -21.3679   -5.6798   24.9191 C   0  0  0  0  0  0
  -21.6035   -4.3059   24.7251 C   0  0  0  0  0  0
  -21.8803   -3.8126   23.4373 C   0  0  0  0  0  0
  -21.9174   -4.6933   22.3419 C   0  0  0  0  0  0
  -22.7765  -13.5158   21.1932 C   0  0  0  0  0  0
  -22.1630   -4.2112   21.1001 F   0  0  0  0  0  0
  -21.5637   -3.4548   25.7772 F   0  0  0  0  0  0
  -29.9667  -13.6139   20.3941 N   0  0  0  0  0  0
  -26.2846  -12.9464   20.3224 N   0  0  0  0  0  0
  -25.9291  -11.6583   20.5709 N   0  0  0  0  0  0
  -22.0448  -12.8132   22.0507 N   0  0  0  0  0  0
  -25.4039  -15.1945   20.4164 N   0  0  0  0  0  0
  -31.8080  -14.8819   20.1378 O   0  0  0  0  0  0
  -21.6618   -6.8846   21.4235 O   0  0  0  0  0  0
  -22.3420  -14.5467   20.6769 O   0  0  0  0  0  0
  -24.6315  -31.8509   23.1964 C   0  0  0  0  0  0
  -25.9123  -32.4734   23.8314 C   0  0  1  0  0  0
  -27.2083  -27.2346   20.1365 C   0  0  0  0  0  0
  -25.5929  -33.8530   24.2289 N   0  0  0  0  0  0
  -23.4312  -30.4703   21.5382 C   0  0  2  0  0  0
  -24.8797  -28.9168   20.1100 C   0  0  0  0  0  0
  -22.7506  -29.4545   22.4890 C   0  0  0  0  0  0
  -18.0280  -28.1392   22.8498 C   0  0  0  0  0  0
  -24.1501  -36.7282   23.2638 C   0  0  0  0  0  0
  -25.9725  -30.7674   21.3666 C   0  0  0  0  0  0
  -26.0492  -29.3791   20.7241 C   0  0  0  0  0  0
  -27.2143  -28.5444   20.7353 C   0  0  0  0  0  0
  -26.0177  -26.8444   19.4887 C   0  0  0  0  0  0
  -24.8697  -27.6613   19.4829 C   0  0  0  0  0  0
  -23.6530  -29.8044   20.1547 C   0  0  0  0  0  0
  -25.4105  -36.3047   24.0357 C   0  0  1  0  0  0
  -20.5887  -28.3684   23.1316 C   0  0  2  0  0  0
  -20.6772  -26.9395   22.5442 C   0  0  0  0  0  0
  -19.5747  -26.6395   21.5236 C   0  0  0  0  0  0
  -18.1921  -26.7933   22.1631 C   0  0  0  0  0  0
  -19.1535  -28.8843   23.2912 C   0  0  0  0  0  0
  -18.9438  -30.1435   23.8940 C   0  0  0  0  0  0
  -17.6442  -30.6589   24.0561 C   0  0  0  0  0  0
  -25.9025  -34.9421   23.5120 C   0  0  0  0  0  0
  -16.5341  -29.9099   23.6311 C   0  0  0  0  0  0
  -16.7264  -28.6513   23.0343 C   0  0  0  0  0  0
  -26.4543  -31.6508   25.0645 C   0  0  0  0  0  0
  -25.3820  -31.3600   26.1402 C   0  0  0  0  0  0
  -27.0392  -30.2960   24.6017 C   0  0  0  0  0  0
  -27.6137  -32.4198   25.7420 C   0  0  0  0  0  0
  -27.5580  -37.1787   24.8473 C   0  0  0  0  0  0
  -21.4194  -29.3036   22.3695 N   0  0  0  0  0  0
  -26.4282  -37.3746   23.9416 N   0  0  0  0  0  0
  -24.6982  -31.0449   22.0948 N   0  0  0  0  0  0
  -23.4210  -28.8077   23.2976 O   0  0  0  0  0  0
  -28.3050  -26.3488   20.2399 O   0  0  0  0  0  0
  -26.5566  -34.8903   22.4671 O   0  0  0  0  0  0
  -23.5458  -32.1330   23.7250 O   0  0  0  0  0  0
  -29.7349  -22.2174   18.8588 C   0  0  0  0  0  0
  -28.7303  -20.8545   20.5681 C   0  0  0  0  0  0
  -30.3823  -21.0521   18.4175 C   0  0  0  0  0  0
  -28.8710  -22.1844   19.9722 C   0  0  0  0  0  0
  -29.4310  -19.6811   20.0505 C   0  0  0  0  0  0
  -29.3058  -16.9032   19.6151 C   0  0  0  0  0  0
  -30.5286  -17.3029   21.1695 C   0  0  0  0  0  0
  -29.3724  -18.1526   20.5556 C   0  0  0  0  0  0
  -28.1841  -23.5519   20.4738 C   0  0  0  0  0  0
  -28.3749  -24.9568   19.6545 C   0  0  0  0  0  0
  -30.2491  -19.8355   18.9904 N   0  0  0  0  0  0
  -29.8956  -16.0183   20.6809 N   0  0  0  0  0  0
  -31.4691  -12.6506   19.1984 H   0  0  0  0  0  0
  -30.3966  -11.5688   20.0449 H   0  0  0  0  0  0
  -29.8244  -11.6943   17.5934 H   0  0  0  0  0  0
  -29.6314  -13.4290   17.6978 H   0  0  0  0  0  0
  -27.9335  -11.2684   18.9915 H   0  0  0  0  0  0
  -27.3913  -12.4381   17.8184 H   0  0  0  0  0  0
  -27.5927  -14.2459   19.4023 H   0  0  0  0  0  0
  -28.7074  -12.3245   21.5091 H   0  0  0  0  0  0
  -28.3743  -14.0310   21.7162 H   0  0  0  0  0  0
  -25.2742   -9.5617   22.4772 H   0  0  0  0  0  0
  -23.9962   -7.4581   22.7460 H   0  0  0  0  0  0
  -21.0833   -8.8756   19.8963 H   0  0  0  0  0  0
  -22.3679  -10.9650   19.6173 H   0  0  0  0  0  0
  -21.2013   -7.6136   23.9707 H   0  0  0  0  0  0
  -21.1530   -6.0543   25.9092 H   0  0  0  0  0  0
  -22.0559   -2.7585   23.2904 H   0  0  0  0  0  0
  -22.4097  -11.9805   22.4874 H   0  0  0  0  0  0
  -21.1060  -13.1128   22.2769 H   0  0  0  0  0  0
  -24.6314  -15.8419   20.5379 H   0  0  0  0  0  0
  -26.2547  -15.6437   20.1040 H   0  0  0  0  0  0
  -26.7162  -32.5451   23.1046 H   0  0  0  0  0  0
  -25.0108  -33.9650   25.0465 H   0  0  0  0  0  0
  -22.7334  -31.2943   21.3844 H   0  0  0  0  0  0
  -23.3747  -35.9627   23.3271 H   0  0  0  0  0  0
  -24.3603  -36.8903   22.2048 H   0  0  0  0  0  0
  -23.7281  -37.6503   23.6657 H   0  0  0  0  0  0
  -26.0680  -31.5180   20.5811 H   0  0  0  0  0  0
  -26.8643  -30.8568   21.9731 H   0  0  0  0  0  0
  -28.1063  -28.8764   21.2437 H   0  0  0  0  0  0
  -25.9290  -25.8818   19.0100 H   0  0  0  0  0  0
  -23.9704  -27.3055   19.0029 H   0  0  0  0  0  0
  -23.7942  -30.5764   19.3977 H   0  0  0  0  0  0
  -22.7754  -29.2404   19.8369 H   0  0  0  0  0  0
  -25.1282  -36.1881   25.0851 H   0  0  0  0  0  0
  -20.9980  -28.3220   24.1441 H   0  0  0  0  0  0
  -20.5673  -26.2241   23.3611 H   0  0  0  0  0  0
  -21.6630  -26.7431   22.1218 H   0  0  0  0  0  0
  -19.6897  -25.6320   21.1224 H   0  0  0  0  0  0
  -19.6699  -27.3240   20.6793 H   0  0  0  0  0  0
  -17.4197  -26.6701   21.4028 H   0  0  0  0  0  0
  -18.0298  -26.0075   22.9017 H   0  0  0  0  0  0
  -19.7900  -30.7234   24.2378 H   0  0  0  0  0  0
  -17.4981  -31.6268   24.5149 H   0  0  0  0  0  0
  -15.5333  -30.3008   23.7607 H   0  0  0  0  0  0
  -15.8662  -28.0835   22.7066 H   0  0  0  0  0  0
  -24.6051  -30.6872   25.7756 H   0  0  0  0  0  0
  -24.8956  -32.2735   26.4826 H   0  0  0  0  0  0
  -25.8215  -30.8812   27.0164 H   0  0  0  0  0  0
  -26.2928  -29.6668   24.1152 H   0  0  0  0  0  0
  -27.4281  -29.7224   25.4436 H   0  0  0  0  0  0
  -27.8709  -30.4287   23.9092 H   0  0  0  0  0  0
  -27.2804  -33.3510   26.2012 H   0  0  0  0  0  0
  -28.3970  -32.6698   25.0252 H   0  0  0  0  0  0
  -28.0780  -31.8268   26.5312 H   0  0  0  0  0  0
  -28.2594  -38.0084   24.7485 H   0  0  0  0  0  0
  -28.1075  -36.2611   24.6330 H   0  0  0  0  0  0
  -27.2284  -37.1471   25.8873 H   0  0  0  0  0  0
  -20.9360  -29.8760   21.6927 H   0  0  0  0  0  0
  -26.0155  -38.2818   24.1426 H   0  0  0  0  0  0
  -29.9307  -23.1312   18.3172 H   0  0  0  0  0  0
  -28.0818  -20.7415   21.4297 H   0  0  0  0  0  0
  -31.0349  -21.0952   17.5596 H   0  0  0  0  0  0
  -29.9515  -17.0062   18.7386 H   0  0  0  0  0  0
  -28.2916  -16.6562   19.3007 H   0  0  0  0  0  0
  -31.4976  -17.5200   20.7130 H   0  0  0  0  0  0
  -30.6038  -17.4106   22.2516 H   0  0  0  0  0  0
  -28.5283  -18.1112   21.2463 H   0  0  0  0  0  0
  -28.5350  -23.7079   21.4898 H   0  0  0  0  0  0
  -27.1118  -23.3638   20.5674 H   0  0  0  0  0  0
  -27.8194  -24.8970   18.7185 H   0  0  0  0  0  0
  -29.4162  -24.9500   19.3354 H   0  0  0  0  0  0
  1 25  1  0  0  0
  1 30  2  0  0  0
  1 82  1  0  0  0
  2  3  1  0  0  0
  2 25  1  0  0  0
  2 83  1  0  0  0
  2 84  1  0  0  0
  3  4  1  0  0  0
  3 85  1  0  0  0
  3 86  1  0  0  0
  4  5  1  0  0  0
  4 87  1  0  0  0
  4 88  1  0  0  0
  5  6  1  0  0  0
  5 26  1  0  0  0
  5 89  1  0  0  0
  6 25  1  0  0  0
  6 90  1  0  0  0
  6 91  1  0  0  0
  7  8  2  0  0  0
  7 26  1  0  0  0
  7 29  1  0  0  0
  8  9  1  0  0  0
  8 22  1  0  0  0
  9 10  1  0  0  0
  9 27  2  0  0  0
 10 11  2  0  0  0
 10 15  1  0  0  0
 11 12  1  0  0  0
 11 92  1  0  0  0
 12 13  2  0  0  0
 12 93  1  0  0  0
 13 14  1  0  0  0
 13 31  1  0  0  0
 14 15  2  0  0  0
 14 94  1  0  0  0
 15 95  1  0  0  0
 16 17  2  0  0  0
 16 21  1  0  0  0
 16 31  1  0  0  0
 17 18  1  0  0  0
 17 96  1  0  0  0
 18 19  2  0  0  0
 18 97  1  0  0  0
 19 20  1  0  0  0
 19 24  1  0  0  0
 20 21  2  0  0  0
 20 98  1  0  0  0
 21 23  1  0  0  0
 22 28  1  0  0  0
 22 32  2  0  0  0
 26 27  1  0  0  0
 28 99  1  0  0  0
 28100  1  0  0  0
 29101  1  0  0  0
 29102  1  0  0  0
 33 34  1  0  0  0
 33 66  1  0  0  0
 33 70  2  0  0  0
 34 36  1  0  0  0
 34 59  1  0  0  0
 34103  1  0  0  0
 35 44  2  0  0  0
 35 45  1  0  0  0
 35 68  1  0  0  0
 36 56  1  0  0  0
 36104  1  0  0  0
 37 39  1  0  0  0
 37 47  1  0  0  0
 37 66  1  0  0  0
 37105  1  0  0  0
 38 43  2  0  0  0
 38 46  1  0  0  0
 38 47  1  0  0  0
 39 64  1  0  0  0
 39 67  2  0  0  0
 40 52  1  0  0  0
 40 53  2  0  0  0
 40 58  1  0  0  0
 41106  1  0  0  0
 41107  1  0  0  0
 41108  1  0  0  0
 41 48  1  0  0  0
 42 43  1  0  0  0
 42 66  1  0  0  0
 42109  1  0  0  0
 42110  1  0  0  0
 43 44  1  0  0  0
 44111  1  0  0  0
 45 46  2  0  0  0
 45112  1  0  0  0
 46113  1  0  0  0
 47114  1  0  0  0
 47115  1  0  0  0
 48 56  1  0  0  0
 48 65  1  0  0  0
 48116  1  0  0  0
 49 50  1  0  0  0
 49 53  1  0  0  0
 49 64  1  0  0  0
 49117  1  0  0  0
 50 51  1  0  0  0
 50118  1  0  0  0
 50119  1  0  0  0
 51 52  1  0  0  0
 51120  1  0  0  0
 51121  1  0  0  0
 52122  1  0  0  0
 52123  1  0  0  0
 53 54  1  0  0  0
 54 55  2  0  0  0
 54124  1  0  0  0
 55 57  1  0  0  0
 55125  1  0  0  0
 56 69  2  0  0  0
 57 58  2  0  0  0
 57126  1  0  0  0
 58127  1  0  0  0
 59 60  1  0  0  0
 59 61  1  0  0  0
 59 62  1  0  0  0
 60128  1  0  0  0
 60129  1  0  0  0
 60130  1  0  0  0
 61131  1  0  0  0
 61132  1  0  0  0
 61133  1  0  0  0
 62134  1  0  0  0
 62135  1  0  0  0
 62136  1  0  0  0
 63 65  1  0  0  0
 63137  1  0  0  0
 63138  1  0  0  0
 63139  1  0  0  0
 64140  1  0  0  0
 65141  1  0  0  0
 68 80  1  0  0  0
 71 73  2  0  0  0
 71 74  1  0  0  0
 71142  1  0  0  0
 72 74  2  0  0  0
 72 75  1  0  0  0
 72143  1  0  0  0
 73 81  1  0  0  0
 73144  1  0  0  0
 74 79  1  0  0  0
 75 81  2  0  0  0
 75 78  1  0  0  0
 76 78  1  0  0  0
 76 82  1  0  0  0
 76145  1  0  0  0
 76146  1  0  0  0
 77 78  1  0  0  0
 77 82  1  0  0  0
 77147  1  0  0  0
 77148  1  0  0  0
 78149  1  0  0  0
 79 80  1  0  0  0
 79150  1  0  0  0
 79151  1  0  0  0
 80152  1  0  0  0
 80153  1  0  0  0
M  ISO  4   1 100  68 101  80 101  82 100
M  END
> <chiral flag>
0

> <version>
0

> <s_m_source_file>
/data/baiqing/PycharmProjects/Reinvent-master-3.2/result/LINK_invent/BTK/process_docking_weight1_custom_sum_contain_oxygen_bond_distance_aromatic_linkinvent_7_9_3/rearranged_h_0191.sdf

> <i_m_source_file_index>
72

> <r_mmod_Potential_Energy-OPLS-2005>
198.448303222656

> <r_mmod_Stretch_Energy-OPLS-2005>
137.291275024414

> <r_mmod_Bend_Energy-OPLS-2005>
200.035888671875

> <r_mmod_Torsional_Energy-OPLS-2005>
252.24494934082

> <r_mmod_Improper_Torsional_Energy-OPLS-2005>
10.4051628112793

> <r_mmod_Van_der_Waal_Energy-OPLS-2005>
136.783203125

> <r_mmod_Electrostatic_Energy-OPLS-2005>
-440.081146240234

> <r_mmod_Solvation_Energy-OPLS-2005>
-219.933319091797

> <b_mmod_Minimization_Converged-OPLS-2005>
0

> <r_mmod_RMS_Derivative-OPLS-2005>
5.36764335632324

$$$$
72
                    3D
 Structure written by MMmdl.
165175  0  0  1  0            999 V2000
  -30.6393  -14.8811   20.4248 C   0  0  0  0  0  0
  -30.4126  -12.5543   19.4785 C   0  0  0  0  0  0
  -29.5006  -12.5109   18.2364 C   0  0  0  0  0  0
  -28.0344  -12.3097   18.6614 C   0  0  0  0  0  0
  -27.6194  -13.2461   19.8275 C   0  0  2  0  0  0
  -28.6697  -13.2923   20.9603 C   0  0  0  0  0  0
  -25.2396  -13.8204   20.5719 C   0  0  0  0  0  0
  -24.1738  -13.0416   20.9265 C   0  0  0  0  0  0
  -24.6366  -11.6904   20.8783 C   0  0  0  0  0  0
  -23.9050  -10.4275   21.0397 C   0  0  0  0  0  0
  -24.3590   -9.4194   21.9179 C   0  0  0  0  0  0
  -23.6274   -8.2230   22.0755 C   0  0  0  0  0  0
  -22.4258   -8.0267   21.3546 C   0  0  0  0  0  0
  -21.9884   -9.0235   20.4650 C   0  0  0  0  0  0
  -22.7208  -10.2119   20.3046 C   0  0  0  0  0  0
  -21.6851   -6.0711   22.5282 C   0  0  0  0  0  0
  -21.4015   -6.5618   23.8214 C   0  0  0  0  0  0
  -21.3655   -5.6775   24.9180 C   0  0  0  0  0  0
  -21.6053   -4.3039   24.7229 C   0  0  0  0  0  0
  -21.8815   -3.8125   23.4351 C   0  0  0  0  0  0
  -21.9192   -4.6938   22.3409 C   0  0  0  0  0  0
  -22.7755  -13.5191   21.1902 C   0  0  0  0  0  0
  -22.1671   -4.2121   21.0989 F   0  0  0  0  0  0
  -21.5625   -3.4527   25.7743 F   0  0  0  0  0  0
  -29.9421  -13.6788   20.3397 N   0  0  0  0  0  0
  -26.2827  -12.9445   20.3236 N   0  0  0  0  0  0
  -25.9291  -11.6572   20.5746 N   0  0  0  0  0  0
  -22.0377  -12.8222   22.0463 N   0  0  0  0  0  0
  -25.3973  -15.1926   20.4101 N   0  0  0  0  0  0
  -31.8539  -14.8118   20.2081 O   0  0  0  0  0  0
  -21.6634   -6.8855   21.4240 O   0  0  0  0  0  0
  -22.3458  -14.5491   20.6713 O   0  0  0  0  0  0
  -24.6388  -31.8510   23.1938 C   0  0  0  0  0  0
  -25.9184  -32.4725   23.8310 C   0  0  1  0  0  0
  -27.2057  -27.1900   20.1307 C   0  0  0  0  0  0
  -25.5956  -33.8534   24.2232 N   0  0  0  0  0  0
  -23.4382  -30.4745   21.5403 C   0  0  2  0  0  0
  -24.8834  -28.9118   20.1106 C   0  0  0  0  0  0
  -22.7542  -29.4599   22.4900 C   0  0  0  0  0  0
  -18.0303  -28.1395   22.8485 C   0  0  0  0  0  0
  -24.1495  -36.7263   23.2643 C   0  0  0  0  0  0
  -25.9925  -30.7391   21.3876 C   0  0  0  0  0  0
  -26.0621  -29.3571   20.7246 C   0  0  0  0  0  0
  -27.2289  -28.5112   20.7183 C   0  0  0  0  0  0
  -26.0095  -26.8436   19.4679 C   0  0  0  0  0  0
  -24.8669  -27.6658   19.4696 C   0  0  0  0  0  0
  -23.6598  -29.8097   20.1576 C   0  0  0  0  0  0
  -25.4126  -36.3056   24.0326 C   0  0  1  0  0  0
  -20.5912  -28.3724   23.1247 C   0  0  2  0  0  0
  -20.6796  -26.9434   22.5406 C   0  0  0  0  0  0
  -19.5766  -26.6384   21.5219 C   0  0  0  0  0  0
  -18.1944  -26.7935   22.1627 C   0  0  0  0  0  0
  -19.1560  -28.8876   23.2859 C   0  0  0  0  0  0
  -18.9474  -30.1471   23.8886 C   0  0  0  0  0  0
  -17.6474  -30.6592   24.0559 C   0  0  0  0  0  0
  -25.9072  -34.9422   23.5086 C   0  0  0  0  0  0
  -16.5364  -29.9089   23.6332 C   0  0  0  0  0  0
  -16.7290  -28.6505   23.0358 C   0  0  0  0  0  0
  -26.4512  -31.6564   25.0730 C   0  0  0  0  0  0
  -25.3705  -31.3742   26.1433 C   0  0  0  0  0  0
  -27.0360  -30.2956   24.6283 C   0  0  0  0  0  0
  -27.6058  -32.4322   25.7501 C   0  0  0  0  0  0
  -27.5583  -37.1792   24.8466 C   0  0  0  0  0  0
  -21.4242  -29.3052   22.3619 N   0  0  0  0  0  0
  -26.4296  -37.3761   23.9408 N   0  0  0  0  0  0
  -24.7096  -31.0411   22.0954 N   0  0  0  0  0  0
  -23.4214  -28.8148   23.3027 O   0  0  0  0  0  0
  -28.2563  -26.2193   20.1550 O   0  0  0  0  0  0
  -26.5646  -34.8910   22.4656 O   0  0  0  0  0  0
  -23.5522  -32.1371   23.7192 O   0  0  0  0  0  0
  -29.0566  -22.6632   22.5047 C   0  0  0  0  0  0
  -29.1873  -21.6074   23.3506 C   0  0  0  0  0  0
  -29.0726  -20.7874   21.2515 C   0  0  0  0  0  0
  -29.0794  -22.7911   25.6829 C   0  0  0  0  0  0
  -30.4882  -22.2792   25.5014 C   0  0  0  0  0  0
  -30.6063  -18.7904   20.2340 C   0  0  0  0  0  0
  -28.3022  -18.2010   20.7650 C   0  0  0  0  0  0
  -30.9007  -17.3869   20.9598 C   0  0  0  0  0  0
  -28.6974  -16.7062   20.2794 C   0  0  0  0  0  0
  -29.3364  -21.5655   24.8345 C   0  0  0  0  0  0
  -29.1820  -19.4624   20.3346 C   0  0  0  0  0  0
  -28.7557  -23.3459   20.1350 C   0  0  0  0  0  0
  -27.9273  -24.7573   20.5099 C   0  0  0  0  0  0
  -28.9178  -22.2078   21.2112 N   0  0  0  0  0  0
  -29.2012  -20.5055   22.5565 N   0  3  0  0  0  0
  -30.0613  -16.1766   20.6166 N   0  0  0  0  0  0
  -31.4495  -12.6661   19.1594 H   0  0  0  0  0  0
  -30.3773  -11.6097   20.0221 H   0  0  0  0  0  0
  -29.8089  -11.7083   17.5648 H   0  0  0  0  0  0
  -29.6049  -13.4398   17.6730 H   0  0  0  0  0  0
  -27.9276  -11.2712   18.9741 H   0  0  0  0  0  0
  -27.3679  -12.4391   17.8070 H   0  0  0  0  0  0
  -27.5743  -14.2384   19.3843 H   0  0  0  0  0  0
  -28.7552  -12.3247   21.4574 H   0  0  0  0  0  0
  -28.3860  -14.0106   21.7290 H   0  0  0  0  0  0
  -25.2713   -9.5705   22.4777 H   0  0  0  0  0  0
  -23.9980   -7.4624   22.7473 H   0  0  0  0  0  0
  -21.0808   -8.8737   19.8965 H   0  0  0  0  0  0
  -22.3634  -10.9653   19.6165 H   0  0  0  0  0  0
  -21.2015   -7.6119   23.9721 H   0  0  0  0  0  0
  -21.1486   -6.0500   25.9091 H   0  0  0  0  0  0
  -22.0600   -2.7585   23.2863 H   0  0  0  0  0  0
  -22.3934  -11.9892   22.4911 H   0  0  0  0  0  0
  -21.0998  -13.1296   22.2603 H   0  0  0  0  0  0
  -24.6196  -15.8354   20.5194 H   0  0  0  0  0  0
  -26.2326  -15.6382   20.0557 H   0  0  0  0  0  0
  -26.7249  -32.5342   23.1043 H   0  0  0  0  0  0
  -25.0089  -33.9662   25.0369 H   0  0  0  0  0  0
  -22.7387  -31.3001   21.3924 H   0  0  0  0  0  0
  -23.3769  -35.9583   23.3299 H   0  0  0  0  0  0
  -24.3585  -36.8894   22.2059 H   0  0  0  0  0  0
  -23.7231  -37.6455   23.6673 H   0  0  0  0  0  0
  -26.1510  -31.5024   20.6247 H   0  0  0  0  0  0
  -26.8613  -30.7789   22.0328 H   0  0  0  0  0  0
  -28.1309  -28.8516   21.2081 H   0  0  0  0  0  0
  -25.9367  -25.9062   18.9369 H   0  0  0  0  0  0
  -23.9706  -27.3242   18.9701 H   0  0  0  0  0  0
  -23.7928  -30.5877   19.4052 H   0  0  0  0  0  0
  -22.7732  -29.2533   19.8476 H   0  0  0  0  0  0
  -25.1311  -36.1901   25.0820 H   0  0  0  0  0  0
  -21.0011  -28.3313   24.1366 H   0  0  0  0  0  0
  -20.5709  -26.2343   23.3625 H   0  0  0  0  0  0
  -21.6660  -26.7458   22.1189 H   0  0  0  0  0  0
  -19.6931  -25.6288   21.1269 H   0  0  0  0  0  0
  -19.6698  -27.3180   20.6736 H   0  0  0  0  0  0
  -17.4221  -26.6688   21.4019 H   0  0  0  0  0  0
  -18.0334  -26.0076   22.9022 H   0  0  0  0  0  0
  -19.7954  -30.7283   24.2254 H   0  0  0  0  0  0
  -17.5030  -31.6272   24.5162 H   0  0  0  0  0  0
  -15.5365  -30.2986   23.7658 H   0  0  0  0  0  0
  -15.8691  -28.0814   22.7085 H   0  0  0  0  0  0
  -24.5889  -30.7085   25.7752 H   0  0  0  0  0  0
  -24.8882  -32.2916   26.4817 H   0  0  0  0  0  0
  -25.7996  -30.8941   27.0236 H   0  0  0  0  0  0
  -26.2953  -29.6696   24.1292 H   0  0  0  0  0  0
  -27.3973  -29.7245   25.4845 H   0  0  0  0  0  0
  -27.8872  -30.4190   23.9586 H   0  0  0  0  0  0
  -27.2658  -33.3646   26.2022 H   0  0  0  0  0  0
  -28.3878  -32.6849   25.0328 H   0  0  0  0  0  0
  -28.0706  -31.8483   26.5454 H   0  0  0  0  0  0
  -28.2596  -38.0094   24.7518 H   0  0  0  0  0  0
  -28.1083  -36.2623   24.6288 H   0  0  0  0  0  0
  -27.2299  -37.1434   25.8868 H   0  0  0  0  0  0
  -20.9457  -29.8751   21.6783 H   0  0  0  0  0  0
  -26.0173  -38.2840   24.1393 H   0  0  0  0  0  0
  -29.0639  -23.7073   22.7701 H   0  0  0  0  0  0
  -28.8161  -23.7226   25.1861 H   0  0  0  0  0  0
  -28.6103  -22.6372   26.6530 H   0  0  0  0  0  0
  -30.9606  -21.7917   26.3514 H   0  0  0  0  0  0
  -31.1560  -22.8559   24.8624 H   0  0  0  0  0  0
  -30.7990  -18.6275   19.1715 H   0  0  0  0  0  0
  -31.3591  -19.5201   20.5352 H   0  0  0  0  0  0
  -28.2924  -18.1444   21.8528 H   0  0  0  0  0  0
  -27.2621  -18.3984   20.5012 H   0  0  0  0  0  0
  -30.8192  -17.5296   22.0380 H   0  0  0  0  0  0
  -31.9555  -17.1702   20.7961 H   0  0  0  0  0  0
  -28.5790  -16.6359   19.1973 H   0  0  0  0  0  0
  -27.9697  -16.0276   20.7154 H   0  0  0  0  0  0
  -29.0176  -20.6079   25.2394 H   0  0  0  0  0  0
  -28.8811  -19.7913   19.3390 H   0  0  0  0  0  0
  -29.7719  -23.6193   19.8522 H   0  0  0  0  0  0
  -28.3201  -22.8924   19.2449 H   0  0  0  0  0  0
  -27.8209  -24.8238   21.5876 H   0  0  0  0  0  0
  -26.9042  -24.5383   20.2137 H   0  0  0  0  0  0
  -29.3281  -19.5654   22.9091 H   0  0  0  0  0  0
  1 25  1  0  0  0
  1 30  2  0  0  0
  1 86  1  0  0  0
  2  3  1  0  0  0
  2 25  1  0  0  0
  2 87  1  0  0  0
  2 88  1  0  0  0
  3  4  1  0  0  0
  3 89  1  0  0  0
  3 90  1  0  0  0
  4  5  1  0  0  0
  4 91  1  0  0  0
  4 92  1  0  0  0
  5  6  1  0  0  0
  5 26  1  0  0  0
  5 93  1  0  0  0
  6 25  1  0  0  0
  6 94  1  0  0  0
  6 95  1  0  0  0
  7  8  2  0  0  0
  7 26  1  0  0  0
  7 29  1  0  0  0
  8  9  1  0  0  0
  8 22  1  0  0  0
  9 10  1  0  0  0
  9 27  2  0  0  0
 10 11  2  0  0  0
 10 15  1  0  0  0
 11 12  1  0  0  0
 11 96  1  0  0  0
 12 13  2  0  0  0
 12 97  1  0  0  0
 13 14  1  0  0  0
 13 31  1  0  0  0
 14 15  2  0  0  0
 14 98  1  0  0  0
 15 99  1  0  0  0
 16 17  2  0  0  0
 16 21  1  0  0  0
 16 31  1  0  0  0
 17 18  1  0  0  0
 17100  1  0  0  0
 18 19  2  0  0  0
 18101  1  0  0  0
 19 20  1  0  0  0
 19 24  1  0  0  0
 20 21  2  0  0  0
 20102  1  0  0  0
 21 23  1  0  0  0
 22 28  1  0  0  0
 22 32  2  0  0  0
 26 27  1  0  0  0
 28103  1  0  0  0
 28104  1  0  0  0
 29105  1  0  0  0
 29106  1  0  0  0
 33 34  1  0  0  0
 33 66  1  0  0  0
 33 70  2  0  0  0
 34 36  1  0  0  0
 34 59  1  0  0  0
 34107  1  0  0  0
 35 44  2  0  0  0
 35 45  1  0  0  0
 35 68  1  0  0  0
 36 56  1  0  0  0
 36108  1  0  0  0
 37 39  1  0  0  0
 37 47  1  0  0  0
 37 66  1  0  0  0
 37109  1  0  0  0
 38 43  2  0  0  0
 38 46  1  0  0  0
 38 47  1  0  0  0
 39 64  1  0  0  0
 39 67  2  0  0  0
 40 52  1  0  0  0
 40 53  2  0  0  0
 40 58  1  0  0  0
 41110  1  0  0  0
 41111  1  0  0  0
 41112  1  0  0  0
 41 48  1  0  0  0
 42 43  1  0  0  0
 42 66  1  0  0  0
 42113  1  0  0  0
 42114  1  0  0  0
 43 44  1  0  0  0
 44115  1  0  0  0
 45 46  2  0  0  0
 45116  1  0  0  0
 46117  1  0  0  0
 47118  1  0  0  0
 47119  1  0  0  0
 48 56  1  0  0  0
 48 65  1  0  0  0
 48120  1  0  0  0
 49 50  1  0  0  0
 49 53  1  0  0  0
 49 64  1  0  0  0
 49121  1  0  0  0
 50 51  1  0  0  0
 50122  1  0  0  0
 50123  1  0  0  0
 51 52  1  0  0  0
 51124  1  0  0  0
 51125  1  0  0  0
 52126  1  0  0  0
 52127  1  0  0  0
 53 54  1  0  0  0
 54 55  2  0  0  0
 54128  1  0  0  0
 55 57  1  0  0  0
 55129  1  0  0  0
 56 69  2  0  0  0
 57 58  2  0  0  0
 57130  1  0  0  0
 58131  1  0  0  0
 59 60  1  0  0  0
 59 61  1  0  0  0
 59 62  1  0  0  0
 60132  1  0  0  0
 60133  1  0  0  0
 60134  1  0  0  0
 61135  1  0  0  0
 61136  1  0  0  0
 61137  1  0  0  0
 62138  1  0  0  0
 62139  1  0  0  0
 62140  1  0  0  0
 63 65  1  0  0  0
 63141  1  0  0  0
 63142  1  0  0  0
 63143  1  0  0  0
 64144  1  0  0  0
 65145  1  0  0  0
 68 83  1  0  0  0
 71 72  2  0  0  0
 71 84  1  0  0  0
 71146  1  0  0  0
 72 85  1  0  0  0
 72 80  1  0  0  0
 73 84  1  0  0  0
 73 85  2  0  0  0
 73 81  1  0  0  0
 74 75  1  0  0  0
 74 80  1  0  0  0
 74147  1  0  0  0
 74148  1  0  0  0
 75 80  1  0  0  0
 75149  1  0  0  0
 75150  1  0  0  0
 76 78  1  0  0  0
 76 81  1  0  0  0
 76151  1  0  0  0
 76152  1  0  0  0
 77 79  1  0  0  0
 77 81  1  0  0  0
 77153  1  0  0  0
 77154  1  0  0  0
 78 86  1  0  0  0
 78155  1  0  0  0
 78156  1  0  0  0
 79 86  1  0  0  0
 79157  1  0  0  0
 79158  1  0  0  0
 80159  1  0  0  0
 81160  1  0  0  0
 82 83  1  0  0  0
 82 84  1  0  0  0
 82161  1  0  0  0
 82162  1  0  0  0
 83163  1  0  0  0
 83164  1  0  0  0
 85165  1  0  0  0
M  CHG  1  85   1
M  ISO  4   1 100  68 101  83 101  86 100
M  END
> <chiral flag>
0

> <version>
0

> <s_m_source_file>
/data/baiqing/PycharmProjects/Reinvent-master-3.2/result/LINK_invent/BTK/process_docking_weight1_custom_sum_contain_oxygen_bond_distance_aromatic_linkinvent_7_9_3/rearranged_h_0191.sdf

> <i_m_source_file_index>
73

> <r_mmod_Potential_Energy-OPLS-2005>
638.090698242188

> <r_mmod_Stretch_Energy-OPLS-2005>
211.000793457031

> <r_mmod_Bend_Energy-OPLS-2005>
314.512512207031

> <r_mmod_Torsional_Energy-OPLS-2005>
388.849792480469

> <r_mmod_Improper_Torsional_Energy-OPLS-2005>
3.44070982933044

> <r_mmod_Van_der_Waal_Energy-OPLS-2005>
129.710479736328

> <r_mmod_Electrostatic_Energy-OPLS-2005>
-148.064544677734

> <r_mmod_Solvation_Energy-OPLS-2005>
-413.542236328125

> <b_mmod_Minimization_Converged-OPLS-2005>
0

> <r_mmod_RMS_Derivative-OPLS-2005>
2.48005175590515

$$$$
73
                    3D
 Structure written by MMmdl.
159169  0  0  1  0            999 V2000
  -30.4421  -15.3513   20.3722 C   0  0  0  0  0  0
  -30.4282  -12.8721   19.5413 C   0  0  0  0  0  0
  -29.5392  -12.6020   18.3012 C   0  0  0  0  0  0
  -28.0916  -12.3118   18.7268 C   0  0  0  0  0  0
  -27.6059  -13.2914   19.8240 C   0  0  2  0  0  0
  -28.6329  -13.5138   20.9568 C   0  0  0  0  0  0
  -25.2344  -13.8275   20.5758 C   0  0  0  0  0  0
  -24.1712  -13.0443   20.9251 C   0  0  0  0  0  0
  -24.6397  -11.6940   20.8761 C   0  0  0  0  0  0
  -23.9093  -10.4305   21.0408 C   0  0  0  0  0  0
  -24.3631   -9.4212   21.9187 C   0  0  0  0  0  0
  -23.6292   -8.2255   22.0758 C   0  0  0  0  0  0
  -22.4277   -8.0290   21.3550 C   0  0  0  0  0  0
  -21.9922   -9.0271   20.4654 C   0  0  0  0  0  0
  -22.7259  -10.2140   20.3065 C   0  0  0  0  0  0
  -21.6870   -6.0739   22.5277 C   0  0  0  0  0  0
  -21.4030   -6.5638   23.8210 C   0  0  0  0  0  0
  -21.3655   -5.6792   24.9168 C   0  0  0  0  0  0
  -21.6038   -4.3052   24.7220 C   0  0  0  0  0  0
  -21.8808   -3.8142   23.4340 C   0  0  0  0  0  0
  -21.9196   -4.6961   22.3394 C   0  0  0  0  0  0
  -22.7724  -13.5196   21.1887 C   0  0  0  0  0  0
  -22.1657   -4.2147   21.0976 F   0  0  0  0  0  0
  -21.5627   -3.4537   25.7731 F   0  0  0  0  0  0
  -29.8556  -14.0420   20.3230 N   0  0  0  0  0  0
  -26.2793  -12.9582   20.3224 N   0  0  0  0  0  0
  -25.9347  -11.6667   20.5711 N   0  0  0  0  0  0
  -22.0377  -12.8192   22.0450 N   0  0  0  0  0  0
  -25.3936  -15.2012   20.4219 N   0  0  0  0  0  0
  -31.6547  -15.2931   20.1052 O   0  0  0  0  0  0
  -21.6639   -6.8886   21.4245 O   0  0  0  0  0  0
  -22.3407  -14.5492   20.6719 O   0  0  0  0  0  0
  -24.6666  -31.8191   23.1651 C   0  0  0  0  0  0
  -25.9320  -32.4563   23.8146 C   0  0  1  0  0  0
  -27.2214  -26.8770   20.1952 C   0  0  0  0  0  0
  -25.5979  -33.8380   24.2043 N   0  0  0  0  0  0
  -23.4843  -30.4257   21.5162 C   0  0  2  0  0  0
  -24.9395  -28.8011   20.1140 C   0  0  0  0  0  0
  -22.7689  -29.4406   22.4772 C   0  0  0  0  0  0
  -18.0330  -28.1402   22.8467 C   0  0  0  0  0  0
  -24.1500  -36.7193   23.2649 C   0  0  0  0  0  0
  -26.0560  -30.6085   21.4040 C   0  0  0  0  0  0
  -26.1239  -29.1917   20.7506 C   0  0  0  0  0  0
  -27.2574  -28.2526   20.7630 C   0  0  0  0  0  0
  -26.0072  -26.6471   19.5099 C   0  0  0  0  0  0
  -24.9103  -27.5504   19.4719 C   0  0  0  0  0  0
  -23.7272  -29.7345   20.1448 C   0  0  0  0  0  0
  -25.4143  -36.2947   24.0291 C   0  0  1  0  0  0
  -20.5957  -28.3743   23.1185 C   0  0  2  0  0  0
  -20.6806  -26.9422   22.5404 C   0  0  0  0  0  0
  -19.5779  -26.6365   21.5215 C   0  0  0  0  0  0
  -18.1961  -26.7934   22.1622 C   0  0  0  0  0  0
  -19.1592  -28.8892   23.2810 C   0  0  0  0  0  0
  -18.9501  -30.1484   23.8846 C   0  0  0  0  0  0
  -17.6491  -30.6589   24.0547 C   0  0  0  0  0  0
  -25.9106  -34.9334   23.4996 C   0  0  0  0  0  0
  -16.5382  -29.9073   23.6345 C   0  0  0  0  0  0
  -16.7310  -28.6493   23.0365 C   0  0  0  0  0  0
  -26.4558  -31.6526   25.0694 C   0  0  0  0  0  0
  -25.3670  -31.3794   26.1338 C   0  0  0  0  0  0
  -27.0465  -30.2891   24.6462 C   0  0  0  0  0  0
  -27.6038  -32.4346   25.7501 C   0  0  0  0  0  0
  -27.5570  -37.1755   24.8463 C   0  0  0  0  0  0
  -21.4353  -29.3021   22.3524 N   0  0  0  0  0  0
  -26.4282  -37.3688   23.9405 N   0  0  0  0  0  0
  -24.7574  -30.9795   22.0814 N   0  0  0  0  0  0
  -23.4210  -28.7990   23.3052 O   0  0  0  0  0  0
  -28.2239  -25.7557   20.2733 O   0  0  0  0  0  0
  -26.5726  -34.8874   22.4592 O   0  0  0  0  0  0
  -23.5723  -32.1185   23.6703 O   0  0  0  0  0  0
  -30.3425  -23.5144   20.8018 C   0  0  0  0  0  0
  -29.2104  -22.8451   20.4326 C   0  0  0  0  0  0
  -30.9668  -21.3828   20.8197 C   0  0  0  0  0  0
  -33.4968  -20.6734   21.1547 C   0  0  0  0  0  0
  -33.0117  -20.0310   19.8814 C   0  0  0  0  0  0
  -28.7546  -18.8205   21.5856 C   0  0  0  0  0  0
  -28.7462  -17.2091   21.3785 C   0  0  0  0  0  0
  -30.0966  -18.1872   19.8411 C   0  0  0  0  0  0
  -32.0228  -20.3325   20.9940 C   0  0  0  0  0  0
  -29.1870  -19.6215   20.3120 C   0  0  2  0  0  0
  -28.0172  -24.0901   20.1534 C   0  0  0  0  0  0
  -29.6427  -21.3114   20.4731 N   0  0  0  0  0  0
  -31.3365  -22.6406   21.0165 N   0  3  0  0  0  0
  -29.7550  -16.7022   20.4029 N   0  0  0  0  0  0
  -31.4479  -13.0670   19.2059 H   0  0  0  0  0  0
  -30.5020  -11.9826   20.1682 H   0  0  0  0  0  0
  -29.9346  -11.7705   17.7170 H   0  0  0  0  0  0
  -29.5614  -13.4766   17.6487 H   0  0  0  0  0  0
  -28.0569  -11.2882   19.1015 H   0  0  0  0  0  0
  -27.4245  -12.3463   17.8651 H   0  0  0  0  0  0
  -27.5073  -14.2500   19.3136 H   0  0  0  0  0  0
  -28.8177  -12.5990   21.5198 H   0  0  0  0  0  0
  -28.2500  -14.2430   21.6729 H   0  0  0  0  0  0
  -25.2777   -9.5688   22.4761 H   0  0  0  0  0  0
  -23.9991   -7.4659   22.7490 H   0  0  0  0  0  0
  -21.0845   -8.8807   19.8977 H   0  0  0  0  0  0
  -22.3717  -10.9684   19.6175 H   0  0  0  0  0  0
  -21.2039   -7.6153   23.9713 H   0  0  0  0  0  0
  -21.1483   -6.0523   25.9072 H   0  0  0  0  0  0
  -22.0591   -2.7607   23.2841 H   0  0  0  0  0  0
  -22.4003  -11.9883   22.4884 H   0  0  0  0  0  0
  -21.0998  -13.1247   22.2640 H   0  0  0  0  0  0
  -24.6210  -15.8473   20.5435 H   0  0  0  0  0  0
  -26.2381  -15.6503   20.0925 H   0  0  0  0  0  0
  -26.7398  -32.5087   23.0866 H   0  0  0  0  0  0
  -25.0073  -33.9465   25.0159 H   0  0  0  0  0  0
  -22.7998  -31.2576   21.3399 H   0  0  0  0  0  0
  -23.3770  -35.9515   23.3280 H   0  0  0  0  0  0
  -24.3572  -36.8874   22.2069 H   0  0  0  0  0  0
  -23.7250  -37.6368   23.6732 H   0  0  0  0  0  0
  -26.2428  -31.3459   20.6221 H   0  0  0  0  0  0
  -26.9134  -30.6674   22.0621 H   0  0  0  0  0  0
  -28.1525  -28.5525   21.2896 H   0  0  0  0  0  0
  -25.8753  -25.6911   19.0226 H   0  0  0  0  0  0
  -24.0129  -27.2425   18.9533 H   0  0  0  0  0  0
  -23.8859  -30.5013   19.3854 H   0  0  0  0  0  0
  -22.8362  -29.1905   19.8261 H   0  0  0  0  0  0
  -25.1345  -36.1743   25.0784 H   0  0  0  0  0  0
  -21.0042  -28.3352   24.1306 H   0  0  0  0  0  0
  -20.5687  -26.2362   23.3645 H   0  0  0  0  0  0
  -21.6674  -26.7393   22.1214 H   0  0  0  0  0  0
  -19.6943  -25.6260   21.1283 H   0  0  0  0  0  0
  -19.6724  -27.3142   20.6719 H   0  0  0  0  0  0
  -17.4234  -26.6672   21.4021 H   0  0  0  0  0  0
  -18.0348  -26.0082   22.9026 H   0  0  0  0  0  0
  -19.7972  -30.7317   24.2190 H   0  0  0  0  0  0
  -17.5038  -31.6266   24.5148 H   0  0  0  0  0  0
  -15.5378  -30.2955   23.7692 H   0  0  0  0  0  0
  -15.8712  -28.0785   22.7117 H   0  0  0  0  0  0
  -24.5855  -30.7147   25.7641 H   0  0  0  0  0  0
  -24.8859  -32.3004   26.4646 H   0  0  0  0  0  0
  -25.7884  -30.9033   27.0200 H   0  0  0  0  0  0
  -26.3144  -29.6548   24.1454 H   0  0  0  0  0  0
  -27.3965  -29.7279   25.5136 H   0  0  0  0  0  0
  -27.9098  -30.4066   23.9909 H   0  0  0  0  0  0
  -27.2597  -33.3688   26.1954 H   0  0  0  0  0  0
  -28.3917  -32.6841   25.0380 H   0  0  0  0  0  0
  -28.0635  -31.8559   26.5524 H   0  0  0  0  0  0
  -28.2563  -38.0071   24.7505 H   0  0  0  0  0  0
  -28.1090  -36.2594   24.6301 H   0  0  0  0  0  0
  -27.2283  -37.1407   25.8864 H   0  0  0  0  0  0
  -20.9611  -29.8702   21.6639 H   0  0  0  0  0  0
  -26.0123  -38.2748   24.1400 H   0  0  0  0  0  0
  -30.5063  -24.5776   20.9175 H   0  0  0  0  0  0
  -33.8260  -21.7078   21.0835 H   0  0  0  0  0  0
  -34.0842  -20.0522   21.8285 H   0  0  0  0  0  0
  -33.2982  -18.9962   19.7060 H   0  0  0  0  0  0
  -32.9781  -20.6581   18.9916 H   0  0  0  0  0  0
  -29.4557  -19.0533   22.3878 H   0  0  0  0  0  0
  -27.7831  -19.1658   21.9399 H   0  0  0  0  0  0
  -27.7642  -16.9058   21.0149 H   0  0  0  0  0  0
  -28.8793  -16.7090   22.3397 H   0  0  0  0  0  0
  -31.1501  -18.2600   20.0598 H   0  0  0  0  0  0
  -30.0693  -18.1308   18.7537 H   0  0  0  0  0  0
  -31.6651  -19.5708   21.6832 H   0  0  0  0  0  0
  -28.3221  -19.6517   19.6494 H   0  0  0  0  0  0
  -27.1799  -23.8550   20.8101 H   0  0  0  0  0  0
  -27.6365  -23.9144   19.1478 H   0  0  0  0  0  0
  -32.2750  -22.9108   21.2831 H   0  0  0  0  0  0
  1 25  1  0  0  0
  1 30  2  0  0  0
  1 84  1  0  0  0
  2  3  1  0  0  0
  2 25  1  0  0  0
  2 85  1  0  0  0
  2 86  1  0  0  0
  3  4  1  0  0  0
  3 87  1  0  0  0
  3 88  1  0  0  0
  4  5  1  0  0  0
  4 89  1  0  0  0
  4 90  1  0  0  0
  5  6  1  0  0  0
  5 26  1  0  0  0
  5 91  1  0  0  0
  6 25  1  0  0  0
  6 92  1  0  0  0
  6 93  1  0  0  0
  7  8  2  0  0  0
  7 26  1  0  0  0
  7 29  1  0  0  0
  8  9  1  0  0  0
  8 22  1  0  0  0
  9 10  1  0  0  0
  9 27  2  0  0  0
 10 11  2  0  0  0
 10 15  1  0  0  0
 11 12  1  0  0  0
 11 94  1  0  0  0
 12 13  2  0  0  0
 12 95  1  0  0  0
 13 14  1  0  0  0
 13 31  1  0  0  0
 14 15  2  0  0  0
 14 96  1  0  0  0
 15 97  1  0  0  0
 16 17  2  0  0  0
 16 21  1  0  0  0
 16 31  1  0  0  0
 17 18  1  0  0  0
 17 98  1  0  0  0
 18 19  2  0  0  0
 18 99  1  0  0  0
 19 20  1  0  0  0
 19 24  1  0  0  0
 20 21  2  0  0  0
 20100  1  0  0  0
 21 23  1  0  0  0
 22 28  1  0  0  0
 22 32  2  0  0  0
 26 27  1  0  0  0
 28101  1  0  0  0
 28102  1  0  0  0
 29103  1  0  0  0
 29104  1  0  0  0
 33 34  1  0  0  0
 33 66  1  0  0  0
 33 70  2  0  0  0
 34 36  1  0  0  0
 34 59  1  0  0  0
 34105  1  0  0  0
 35 44  2  0  0  0
 35 45  1  0  0  0
 35 68  1  0  0  0
 36 56  1  0  0  0
 36106  1  0  0  0
 37 39  1  0  0  0
 37 47  1  0  0  0
 37 66  1  0  0  0
 37107  1  0  0  0
 38 43  2  0  0  0
 38 46  1  0  0  0
 38 47  1  0  0  0
 39 64  1  0  0  0
 39 67  2  0  0  0
 40 52  1  0  0  0
 40 53  2  0  0  0
 40 58  1  0  0  0
 41108  1  0  0  0
 41109  1  0  0  0
 41110  1  0  0  0
 41 48  1  0  0  0
 42 43  1  0  0  0
 42 66  1  0  0  0
 42111  1  0  0  0
 42112  1  0  0  0
 43 44  1  0  0  0
 44113  1  0  0  0
 45 46  2  0  0  0
 45114  1  0  0  0
 46115  1  0  0  0
 47116  1  0  0  0
 47117  1  0  0  0
 48 56  1  0  0  0
 48 65  1  0  0  0
 48118  1  0  0  0
 49 50  1  0  0  0
 49 53  1  0  0  0
 49 64  1  0  0  0
 49119  1  0  0  0
 50 51  1  0  0  0
 50120  1  0  0  0
 50121  1  0  0  0
 51 52  1  0  0  0
 51122  1  0  0  0
 51123  1  0  0  0
 52124  1  0  0  0
 52125  1  0  0  0
 53 54  1  0  0  0
 54 55  2  0  0  0
 54126  1  0  0  0
 55 57  1  0  0  0
 55127  1  0  0  0
 56 69  2  0  0  0
 57 58  2  0  0  0
 57128  1  0  0  0
 58129  1  0  0  0
 59 60  1  0  0  0
 59 61  1  0  0  0
 59 62  1  0  0  0
 60130  1  0  0  0
 60131  1  0  0  0
 60132  1  0  0  0
 61133  1  0  0  0
 61134  1  0  0  0
 61135  1  0  0  0
 62136  1  0  0  0
 62137  1  0  0  0
 62138  1  0  0  0
 63 65  1  0  0  0
 63139  1  0  0  0
 63140  1  0  0  0
 63141  1  0  0  0
 64142  1  0  0  0
 65143  1  0  0  0
 68 81  1  0  0  0
 71 72  2  0  0  0
 71 83  1  0  0  0
 71144  1  0  0  0
 72 81  1  0  0  0
 72 82  1  0  0  0
 73 82  1  0  0  0
 73 83  2  0  0  0
 73 79  1  0  0  0
 74 75  1  0  0  0
 74 79  1  0  0  0
 74145  1  0  0  0
 74146  1  0  0  0
 75 79  1  0  0  0
 75147  1  0  0  0
 75148  1  0  0  0
 76 77  1  0  0  0
 76 80  1  0  0  0
 76149  1  0  0  0
 76150  1  0  0  0
 77 84  1  0  0  0
 77151  1  0  0  0
 77152  1  0  0  0
 78 80  1  0  0  0
 78 84  1  0  0  0
 78153  1  0  0  0
 78154  1  0  0  0
 79155  1  0  0  0
 80 82  1  0  0  0
 80156  1  0  0  0
 81157  1  0  0  0
 81158  1  0  0  0
 83159  1  0  0  0
M  CHG  1  83   1
M  ISO  4   1 100  68 101  81 101  84 100
M  END
> <chiral flag>
0

> <version>
0

> <s_m_source_file>
/data/baiqing/PycharmProjects/Reinvent-master-3.2/result/LINK_invent/BTK/process_docking_weight1_custom_sum_contain_oxygen_bond_distance_aromatic_linkinvent_7_9_3/rearranged_h_0191.sdf

> <i_m_source_file_index>
74

> <r_mmod_Potential_Energy-OPLS-2005>
1777.16711425781

> <r_mmod_Stretch_Energy-OPLS-2005>
713.193969726562

> <r_mmod_Bend_Energy-OPLS-2005>
604.295227050781

> <r_mmod_Torsional_Energy-OPLS-2005>
377.663543701172

> <r_mmod_Improper_Torsional_Energy-OPLS-2005>
8.83297634124756

> <r_mmod_Van_der_Waal_Energy-OPLS-2005>
109.120529174805

> <r_mmod_Electrostatic_Energy-OPLS-2005>
-165.487518310547

> <r_mmod_Solvation_Energy-OPLS-2005>
-409.807220458984

> <b_mmod_Minimization_Converged-OPLS-2005>
0

> <r_mmod_RMS_Derivative-OPLS-2005>
2.03808784484863

$$$$
74
                    3D
 Structure written by MMmdl.
166175  0  0  1  0            999 V2000
  -30.7366  -14.5124   20.4906 C   0  0  0  0  0  0
  -30.4224  -12.2887   19.4539 C   0  0  0  0  0  0
  -29.5120  -12.4493   18.2189 C   0  0  0  0  0  0
  -28.0387  -12.2850   18.6473 C   0  0  0  0  0  0
  -27.6662  -13.1909   19.8538 C   0  0  2  0  0  0
  -28.7148  -13.0603   20.9860 C   0  0  0  0  0  0
  -25.2698  -13.8053   20.5665 C   0  0  0  0  0  0
  -24.1909  -13.0384   20.9121 C   0  0  0  0  0  0
  -24.6444  -11.6845   20.8702 C   0  0  0  0  0  0
  -23.9089  -10.4241   21.0383 C   0  0  0  0  0  0
  -24.3614   -9.4124   21.9164 C   0  0  0  0  0  0
  -23.6225   -8.2201   22.0760 C   0  0  0  0  0  0
  -22.4202   -8.0292   21.3550 C   0  0  0  0  0  0
  -21.9871   -9.0272   20.4641 C   0  0  0  0  0  0
  -22.7251  -10.2120   20.3034 C   0  0  0  0  0  0
  -21.6814   -6.0731   22.5295 C   0  0  0  0  0  0
  -21.4006   -6.5634   23.8237 C   0  0  0  0  0  0
  -21.3650   -5.6774   24.9190 C   0  0  0  0  0  0
  -21.6044   -4.3046   24.7216 C   0  0  0  0  0  0
  -21.8794   -3.8141   23.4339 C   0  0  0  0  0  0
  -21.9160   -4.6963   22.3403 C   0  0  0  0  0  0
  -22.7942  -13.5264   21.1720 C   0  0  0  0  0  0
  -22.1616   -4.2168   21.0970 F   0  0  0  0  0  0
  -21.5627   -3.4521   25.7711 F   0  0  0  0  0  0
  -30.0401  -13.3377   20.4147 N   0  0  0  0  0  0
  -26.3095  -12.9207   20.3299 N   0  0  0  0  0  0
  -25.9352  -11.6383   20.5697 N   0  0  0  0  0  0
  -22.0485  -12.8398   22.0315 N   0  0  0  0  0  0
  -25.4486  -15.1748   20.4057 N   0  0  0  0  0  0
  -31.8967  -14.6178   20.0855 O   0  0  0  0  0  0
  -21.6554   -6.8895   21.4270 O   0  0  0  0  0  0
  -22.3689  -14.5564   20.6523 O   0  0  0  0  0  0
  -24.6167  -31.8682   23.2147 C   0  0  0  0  0  0
  -25.9033  -32.4844   23.8471 C   0  0  1  0  0  0
  -27.2443  -27.4038   20.1090 C   0  0  0  0  0  0
  -25.5849  -33.8641   24.2404 N   0  0  0  0  0  0
  -23.4107  -30.4937   21.5535 C   0  0  2  0  0  0
  -24.8668  -28.9595   20.1256 C   0  0  0  0  0  0
  -22.7458  -29.4648   22.4948 C   0  0  0  0  0  0
  -18.0275  -28.1434   22.8493 C   0  0  0  0  0  0
  -24.1451  -36.7345   23.2665 C   0  0  0  0  0  0
  -25.9491  -30.8163   21.3887 C   0  0  0  0  0  0
  -26.0268  -29.4472   20.7389 C   0  0  0  0  0  0
  -27.2208  -28.6762   20.7396 C   0  0  0  0  0  0
  -26.0697  -26.9495   19.4772 C   0  0  0  0  0  0
  -24.8822  -27.7051   19.4950 C   0  0  0  0  0  0
  -23.6264  -29.8282   20.1706 C   0  0  0  0  0  0
  -25.4072  -36.3168   24.0382 C   0  0  1  0  0  0
  -20.5885  -28.3720   23.1282 C   0  0  2  0  0  0
  -20.6757  -26.9425   22.5410 C   0  0  0  0  0  0
  -19.5718  -26.6435   21.5227 C   0  0  0  0  0  0
  -18.1892  -26.7974   22.1632 C   0  0  0  0  0  0
  -19.1516  -28.8876   23.2904 C   0  0  0  0  0  0
  -18.9449  -30.1486   23.8937 C   0  0  0  0  0  0
  -17.6447  -30.6594   24.0602 C   0  0  0  0  0  0
  -25.9014  -34.9515   23.5210 C   0  0  0  0  0  0
  -16.5345  -29.9112   23.6354 C   0  0  0  0  0  0
  -16.7261  -28.6543   23.0333 C   0  0  0  0  0  0
  -26.4452  -31.6598   25.0797 C   0  0  0  0  0  0
  -25.3684  -31.3651   26.1539 C   0  0  0  0  0  0
  -27.0292  -30.2997   24.6281 C   0  0  0  0  0  0
  -27.6069  -32.4307   25.7491 C   0  0  0  0  0  0
  -27.5577  -37.1814   24.8469 C   0  0  0  0  0  0
  -21.4160  -29.3063   22.3670 N   0  0  0  0  0  0
  -26.4280  -37.3823   23.9427 N   0  0  0  0  0  0
  -24.6751  -31.0761   22.1087 N   0  0  0  0  0  0
  -23.4202  -28.8139   23.2957 O   0  0  0  0  0  0
  -28.3410  -26.5588   20.0225 O   0  0  0  0  0  0
  -26.5577  -34.8940   22.4792 O   0  0  0  0  0  0
  -23.5317  -32.1475   23.7485 O   0  0  0  0  0  0
  -31.1299  -24.5785   21.3366 C   0  0  0  0  0  0
  -29.7642  -16.1471   22.0306 C   0  0  0  0  0  0
  -29.8578  -16.6156   19.5514 C   0  0  0  0  0  0
  -30.6217  -23.8326   20.1041 C   0  0  0  0  0  0
  -30.0726  -17.6518   22.2294 C   0  0  0  0  0  0
  -30.0635  -18.1383   19.8723 C   0  0  0  0  0  0
  -29.6697  -24.9838   21.5588 C   0  0  1  0  0  0
  -29.2343  -26.4335   21.1340 C   0  0  0  0  0  0
  -28.9146  -21.1278   20.7983 C   0  0  0  0  0  0
  -29.6282  -19.9803   21.6062 C   0  0  0  0  0  0
  -29.0109  -22.5296   21.5329 C   0  0  0  0  0  0
  -29.9973  -15.6412   20.6680 N   0  0  0  0  0  0
  -29.4810  -18.5343   21.1865 N   0  3  0  0  0  0
  -29.2953  -23.7855   20.7323 N   0  3  2  0  0  0
  -31.4767  -12.3195   19.1754 H   0  0  0  0  0  0
  -30.2663  -11.3056   19.9059 H   0  0  0  0  0  0
  -29.7773  -11.7079   17.4609 H   0  0  0  0  0  0
  -29.6605  -13.4260   17.7598 H   0  0  0  0  0  0
  -27.9135  -11.2369   18.9343 H   0  0  0  0  0  0
  -27.3653  -12.4508   17.8073 H   0  0  0  0  0  0
  -27.6882  -14.2155   19.4835 H   0  0  0  0  0  0
  -28.6991  -12.0503   21.4024 H   0  0  0  0  0  0
  -28.4766  -13.7217   21.8165 H   0  0  0  0  0  0
  -25.2752   -9.5548   22.4752 H   0  0  0  0  0  0
  -23.9883   -7.4582   22.7502 H   0  0  0  0  0  0
  -21.0788   -8.8836   19.8957 H   0  0  0  0  0  0
  -22.3732  -10.9676   19.6154 H   0  0  0  0  0  0
  -21.2029   -7.6139   23.9766 H   0  0  0  0  0  0
  -21.1485   -6.0490   25.9114 H   0  0  0  0  0  0
  -22.0574   -2.7604   23.2813 H   0  0  0  0  0  0
  -22.4007  -12.0161   22.4945 H   0  0  0  0  0  0
  -21.1108  -13.1591   22.2283 H   0  0  0  0  0  0
  -24.6910  -15.8372   20.5251 H   0  0  0  0  0  0
  -26.3033  -15.6000   20.0723 H   0  0  0  0  0  0
  -26.7106  -32.5574   23.1229 H   0  0  0  0  0  0
  -24.9948  -33.9786   25.0505 H   0  0  0  0  0  0
  -22.7024  -31.3115   21.4151 H   0  0  0  0  0  0
  -23.3736  -35.9667   23.3348 H   0  0  0  0  0  0
  -24.3533  -36.8940   22.2075 H   0  0  0  0  0  0
  -23.7143  -37.6538   23.6655 H   0  0  0  0  0  0
  -26.0832  -31.5749   20.6146 H   0  0  0  0  0  0
  -26.8289  -30.8693   22.0156 H   0  0  0  0  0  0
  -28.1151  -29.0628   21.2072 H   0  0  0  0  0  0
  -26.0776  -25.9939   18.9704 H   0  0  0  0  0  0
  -23.9936  -27.3282   19.0070 H   0  0  0  0  0  0
  -23.7298  -30.6063   19.4121 H   0  0  0  0  0  0
  -22.7498  -29.2491   19.8746 H   0  0  0  0  0  0
  -25.1226  -36.2097   25.0870 H   0  0  0  0  0  0
  -21.0032  -28.3342   24.1384 H   0  0  0  0  0  0
  -20.5670  -26.2325   23.3615 H   0  0  0  0  0  0
  -21.6614  -26.7447   22.1170 H   0  0  0  0  0  0
  -19.6880  -25.6369   21.1174 H   0  0  0  0  0  0
  -19.6660  -27.3315   20.6800 H   0  0  0  0  0  0
  -17.4155  -26.6758   21.4029 H   0  0  0  0  0  0
  -18.0268  -26.0122   22.9014 H   0  0  0  0  0  0
  -19.7911  -30.7292   24.2326 H   0  0  0  0  0  0
  -17.4988  -31.6266   24.5227 H   0  0  0  0  0  0
  -15.5333  -30.3011   23.7678 H   0  0  0  0  0  0
  -15.8661  -28.0893   22.7015 H   0  0  0  0  0  0
  -24.5884  -30.7014   25.7788 H   0  0  0  0  0  0
  -24.8846  -32.2776   26.5042 H   0  0  0  0  0  0
  -25.7979  -30.8683   27.0257 H   0  0  0  0  0  0
  -26.2811  -29.6665   24.1517 H   0  0  0  0  0  0
  -27.4127  -29.7308   25.4769 H   0  0  0  0  0  0
  -27.8646  -30.4200   23.9387 H   0  0  0  0  0  0
  -27.2749  -33.3652   26.2002 H   0  0  0  0  0  0
  -28.3829  -32.6807   25.0239 H   0  0  0  0  0  0
  -28.0832  -31.8488   26.5400 H   0  0  0  0  0  0
  -28.2614  -38.0092   24.7550 H   0  0  0  0  0  0
  -28.1041  -36.2643   24.6249 H   0  0  0  0  0  0
  -27.2327  -37.1416   25.8876 H   0  0  0  0  0  0
  -20.9338  -29.8778   21.6877 H   0  0  0  0  0  0
  -26.0234  -38.2930   24.1419 H   0  0  0  0  0  0
  -31.8267  -25.3924   21.1392 H   0  0  0  0  0  0
  -31.5127  -23.9241   22.1229 H   0  0  0  0  0  0
  -28.7267  -15.9461   22.2953 H   0  0  0  0  0  0
  -30.3655  -15.5838   22.7517 H   0  0  0  0  0  0
  -30.5136  -16.3435   18.7195 H   0  0  0  0  0  0
  -28.8487  -16.4743   19.1595 H   0  0  0  0  0  0
  -31.0919  -22.8634   19.9223 H   0  0  0  0  0  0
  -30.6226  -24.4486   19.2025 H   0  0  0  0  0  0
  -31.1549  -17.8007   22.2358 H   0  0  0  0  0  0
  -29.7343  -17.9475   23.2243 H   0  0  0  0  0  0
  -29.6466  -18.7326   19.0542 H   0  0  0  0  0  0
  -31.1332  -18.3722   19.8776 H   0  0  0  0  0  0
  -29.3844  -24.8085   22.5958 H   0  0  0  0  0  0
  -30.1184  -27.0269   20.8874 H   0  0  0  0  0  0
  -28.8204  -26.9315   22.0102 H   0  0  0  0  0  0
  -27.8589  -20.8690   20.7008 H   0  0  0  0  0  0
  -29.3099  -21.1764   19.7863 H   0  0  0  0  0  0
  -29.2205  -20.0433   22.6198 H   0  0  0  0  0  0
  -30.6914  -20.2046   21.7067 H   0  0  0  0  0  0
  -29.7511  -22.4440   22.3292 H   0  0  0  0  0  0
  -28.0728  -22.6967   22.0653 H   0  0  0  0  0  0
  -28.4902  -18.3275   21.1511 H   0  0  0  0  0  0
  -28.5556  -23.9889   20.0730 H   0  0  0  0  0  0
  1 25  1  0  0  0
  1 30  2  0  0  0
  1 82  1  0  0  0
  2  3  1  0  0  0
  2 25  1  0  0  0
  2 85  1  0  0  0
  2 86  1  0  0  0
  3  4  1  0  0  0
  3 87  1  0  0  0
  3 88  1  0  0  0
  4  5  1  0  0  0
  4 89  1  0  0  0
  4 90  1  0  0  0
  5  6  1  0  0  0
  5 26  1  0  0  0
  5 91  1  0  0  0
  6 25  1  0  0  0
  6 92  1  0  0  0
  6 93  1  0  0  0
  7  8  2  0  0  0
  7 26  1  0  0  0
  7 29  1  0  0  0
  8  9  1  0  0  0
  8 22  1  0  0  0
  9 10  1  0  0  0
  9 27  2  0  0  0
 10 11  2  0  0  0
 10 15  1  0  0  0
 11 12  1  0  0  0
 11 94  1  0  0  0
 12 13  2  0  0  0
 12 95  1  0  0  0
 13 14  1  0  0  0
 13 31  1  0  0  0
 14 15  2  0  0  0
 14 96  1  0  0  0
 15 97  1  0  0  0
 16 17  2  0  0  0
 16 21  1  0  0  0
 16 31  1  0  0  0
 17 18  1  0  0  0
 17 98  1  0  0  0
 18 19  2  0  0  0
 18 99  1  0  0  0
 19 20  1  0  0  0
 19 24  1  0  0  0
 20 21  2  0  0  0
 20100  1  0  0  0
 21 23  1  0  0  0
 22 28  1  0  0  0
 22 32  2  0  0  0
 26 27  1  0  0  0
 28101  1  0  0  0
 28102  1  0  0  0
 29103  1  0  0  0
 29104  1  0  0  0
 33 34  1  0  0  0
 33 66  1  0  0  0
 33 70  2  0  0  0
 34 36  1  0  0  0
 34 59  1  0  0  0
 34105  1  0  0  0
 35 44  2  0  0  0
 35 45  1  0  0  0
 35 68  1  0  0  0
 36 56  1  0  0  0
 36106  1  0  0  0
 37 39  1  0  0  0
 37 47  1  0  0  0
 37 66  1  0  0  0
 37107  1  0  0  0
 38 43  2  0  0  0
 38 46  1  0  0  0
 38 47  1  0  0  0
 39 64  1  0  0  0
 39 67  2  0  0  0
 40 52  1  0  0  0
 40 53  2  0  0  0
 40 58  1  0  0  0
 41108  1  0  0  0
 41109  1  0  0  0
 41110  1  0  0  0
 41 48  1  0  0  0
 42 43  1  0  0  0
 42 66  1  0  0  0
 42111  1  0  0  0
 42112  1  0  0  0
 43 44  1  0  0  0
 44113  1  0  0  0
 45 46  2  0  0  0
 45114  1  0  0  0
 46115  1  0  0  0
 47116  1  0  0  0
 47117  1  0  0  0
 48 56  1  0  0  0
 48 65  1  0  0  0
 48118  1  0  0  0
 49 50  1  0  0  0
 49 53  1  0  0  0
 49 64  1  0  0  0
 49119  1  0  0  0
 50 51  1  0  0  0
 50120  1  0  0  0
 50121  1  0  0  0
 51 52  1  0  0  0
 51122  1  0  0  0
 51123  1  0  0  0
 52124  1  0  0  0
 52125  1  0  0  0
 53 54  1  0  0  0
 54 55  2  0  0  0
 54126  1  0  0  0
 55 57  1  0  0  0
 55127  1  0  0  0
 56 69  2  0  0  0
 57 58  2  0  0  0
 57128  1  0  0  0
 58129  1  0  0  0
 59 60  1  0  0  0
 59 61  1  0  0  0
 59 62  1  0  0  0
 60130  1  0  0  0
 60131  1  0  0  0
 60132  1  0  0  0
 61133  1  0  0  0
 61134  1  0  0  0
 61135  1  0  0  0
 62136  1  0  0  0
 62137  1  0  0  0
 62138  1  0  0  0
 63 65  1  0  0  0
 63139  1  0  0  0
 63140  1  0  0  0
 63141  1  0  0  0
 64142  1  0  0  0
 65143  1  0  0  0
 68 78  1  0  0  0
 71 74  1  0  0  0
 71 77  1  0  0  0
 71144  1  0  0  0
 71145  1  0  0  0
 72 75  1  0  0  0
 72 82  1  0  0  0
 72146  1  0  0  0
 72147  1  0  0  0
 73 76  1  0  0  0
 73 82  1  0  0  0
 73148  1  0  0  0
 73149  1  0  0  0
 74 84  1  0  0  0
 74150  1  0  0  0
 74151  1  0  0  0
 75 83  1  0  0  0
 75152  1  0  0  0
 75153  1  0  0  0
 76 83  1  0  0  0
 76154  1  0  0  0
 76155  1  0  0  0
 77 78  1  0  0  0
 77 84  1  0  0  0
 77156  1  0  0  0
 78157  1  0  0  0
 78158  1  0  0  0
 79 80  1  0  0  0
 79 81  1  0  0  0
 79159  1  0  0  0
 79160  1  0  0  0
 80161  1  0  0  0
 80162  1  0  0  0
 80 83  1  0  0  0
 81163  1  0  0  0
 81164  1  0  0  0
 81 84  1  0  0  0
 83165  1  0  0  0
 84166  1  0  0  0
M  CHG  2  83   1  84   1
M  ISO  4   1 100  68 101  78 101  82 100
M  END
> <chiral flag>
0

> <version>
0

> <s_m_source_file>
/data/baiqing/PycharmProjects/Reinvent-master-3.2/result/LINK_invent/BTK/process_docking_weight1_custom_sum_contain_oxygen_bond_distance_aromatic_linkinvent_7_9_3/rearranged_h_0191.sdf

> <i_m_source_file_index>
75

> <r_mmod_Potential_Energy-OPLS-2005>
21.967170715332

> <r_mmod_Stretch_Energy-OPLS-2005>
60.5614242553711

> <r_mmod_Bend_Energy-OPLS-2005>
162.917510986328

> <r_mmod_Torsional_Energy-OPLS-2005>
458.506225585938

> <r_mmod_Improper_Torsional_Energy-OPLS-2005>
11.1705436706543

> <r_mmod_Van_der_Waal_Energy-OPLS-2005>
133.240051269531

> <r_mmod_Electrostatic_Energy-OPLS-2005>
95.2657775878906

> <r_mmod_Solvation_Energy-OPLS-2005>
-925.832641601562

> <b_mmod_Minimization_Converged-OPLS-2005>
0

> <r_mmod_RMS_Derivative-OPLS-2005>
7.50479316711426

$$$$
75
                    3D
 Structure written by MMmdl.
178187  0  0  1  0            999 V2000
  -30.7991  -14.4066   20.5749 C   0  0  0  0  0  0
  -30.4073  -12.2863   19.3983 C   0  0  0  0  0  0
  -29.4803  -12.4918   18.1914 C   0  0  0  0  0  0
  -28.0057  -12.3226   18.6072 C   0  0  0  0  0  0
  -27.6434  -13.1759   19.8502 C   0  0  2  0  0  0
  -28.7049  -13.0400   20.9726 C   0  0  0  0  0  0
  -25.2552  -13.8073   20.5635 C   0  0  0  0  0  0
  -24.1838  -13.0400   20.9265 C   0  0  0  0  0  0
  -24.6363  -11.6831   20.8844 C   0  0  0  0  0  0
  -23.9024  -10.4258   21.0457 C   0  0  0  0  0  0
  -24.3573   -9.4160   21.9234 C   0  0  0  0  0  0
  -23.6270   -8.2176   22.0774 C   0  0  0  0  0  0
  -22.4282   -8.0223   21.3524 C   0  0  0  0  0  0
  -21.9893   -9.0207   20.4650 C   0  0  0  0  0  0
  -22.7205  -10.2103   20.3092 C   0  0  0  0  0  0
  -21.6820   -6.0708   22.5281 C   0  0  0  0  0  0
  -21.3971   -6.5618   23.8202 C   0  0  0  0  0  0
  -21.3680   -5.6775   24.9184 C   0  0  0  0  0  0
  -21.6036   -4.3032   24.7224 C   0  0  0  0  0  0
  -21.8808   -3.8128   23.4349 C   0  0  0  0  0  0
  -21.9168   -4.6947   22.3406 C   0  0  0  0  0  0
  -22.7857  -13.5189   21.1889 C   0  0  0  0  0  0
  -22.1648   -4.2125   21.0990 F   0  0  0  0  0  0
  -21.5642   -3.4544   25.7742 F   0  0  0  0  0  0
  -30.0374  -13.2927   20.4013 N   0  0  0  0  0  0
  -26.2954  -12.9164   20.3295 N   0  0  0  0  0  0
  -25.9270  -11.6369   20.5800 N   0  0  0  0  0  0
  -22.0425  -12.8237   22.0429 N   0  0  0  0  0  0
  -25.4183  -15.1812   20.3717 N   0  0  0  0  0  0
  -31.9538  -14.5119   20.1716 O   0  0  0  0  0  0
  -21.6605   -6.8868   21.4251 O   0  0  0  0  0  0
  -22.3570  -14.5485   20.6655 O   0  0  0  0  0  0
  -24.6093  -31.8692   23.2166 C   0  0  0  0  0  0
  -25.9003  -32.4813   23.8435 C   0  0  1  0  0  0
  -27.2139  -27.4613   20.1053 C   0  0  0  0  0  0
  -25.5883  -33.8609   24.2392 N   0  0  0  0  0  0
  -23.3980  -30.4956   21.5562 C   0  0  2  0  0  0
  -24.8426  -28.9807   20.0988 C   0  0  0  0  0  0
  -22.7378  -29.4699   22.5049 C   0  0  0  0  0  0
  -18.0278  -28.1347   22.8551 C   0  0  0  0  0  0
  -24.1482  -36.7332   23.2650 C   0  0  0  0  0  0
  -25.9256  -30.8497   21.3626 C   0  0  0  0  0  0
  -26.0041  -29.4954   20.6946 C   0  0  0  0  0  0
  -27.1978  -28.7474   20.6850 C   0  0  0  0  0  0
  -26.0486  -26.9636   19.4866 C   0  0  0  0  0  0
  -24.8610  -27.7144   19.4873 C   0  0  0  0  0  0
  -23.5977  -29.8315   20.1674 C   0  0  0  0  0  0
  -25.4110  -36.3126   24.0363 C   0  0  1  0  0  0
  -20.5891  -28.3675   23.1339 C   0  0  2  0  0  0
  -20.6805  -26.9478   22.5268 C   0  0  0  0  0  0
  -19.5678  -26.6287   21.5223 C   0  0  0  0  0  0
  -18.1840  -26.7926   22.1577 C   0  0  0  0  0  0
  -19.1541  -28.8817   23.2945 C   0  0  0  0  0  0
  -18.9471  -30.1440   23.8968 C   0  0  0  0  0  0
  -17.6477  -30.6578   24.0607 C   0  0  0  0  0  0
  -25.9026  -34.9473   23.5167 C   0  0  0  0  0  0
  -16.5371  -29.9123   23.6327 C   0  0  0  0  0  0
  -16.7279  -28.6508   23.0370 C   0  0  0  0  0  0
  -26.4431  -31.6608   25.0769 C   0  0  0  0  0  0
  -25.3745  -31.3703   26.1572 C   0  0  0  0  0  0
  -27.0265  -30.3068   24.6123 C   0  0  0  0  0  0
  -27.6005  -32.4356   25.7519 C   0  0  0  0  0  0
  -27.5585  -37.1814   24.8456 C   0  0  0  0  0  0
  -21.4110  -29.3103   22.3799 N   0  0  0  0  0  0
  -26.4319  -37.3802   23.9371 N   0  0  0  0  0  0
  -24.6622  -31.0847   22.1030 N   0  0  0  0  0  0
  -23.4097  -28.8203   23.3099 O   0  0  0  0  0  0
  -28.3061  -26.6424   20.2384 O   0  0  0  0  0  0
  -26.5564  -34.8932   22.4716 O   0  0  0  0  0  0
  -23.5297  -32.1453   23.7606 O   0  0  0  0  0  0
  -27.4810  -25.8222   22.4009 C   0  0  0  0  0  0
  -27.3201  -24.7432   23.2846 C   0  0  0  0  0  0
  -27.8859  -23.4872   22.9428 C   0  0  0  0  0  0
  -28.1803  -25.6414   21.1887 C   0  0  0  0  0  0
  -28.6026  -23.4196   21.7160 C   0  0  0  0  0  0
  -28.2649  -17.6889   22.1302 C   0  0  0  0  0  0
  -30.3560  -16.8311   18.8742 C   0  0  0  0  0  0
  -29.5418  -17.6163   17.8263 C   0  0  0  0  0  0
  -28.0210  -18.3859   19.6379 C   0  0  0  0  0  0
  -28.9116  -17.7218   20.7140 C   0  0  2  0  0  0
  -29.4905  -16.4151   20.1028 C   0  0  2  0  0  0
  -26.5389  -24.9686   24.5698 C   0  0  0  0  0  0
  -27.9259  -19.4304   17.4262 C   0  0  0  0  0  0
  -27.7530  -22.2748   23.8943 C   0  0  0  0  0  0
  -26.7174  -19.1264   23.4481 C   0  0  0  0  0  0
  -26.2533  -20.5142   22.9271 C   0  0  0  0  0  0
  -28.7469  -24.4639   20.8667 N   0  0  0  0  0  0
  -27.0659  -18.2772   22.3018 N   0  0  0  0  0  0
  -30.1854  -15.5016   21.0306 N   0  0  0  0  0  0
  -28.7925  -18.7577   18.4207 N   0  3  2  0  0  0
  -26.4093  -21.6351   23.8827 N   0  3  0  0  0  0
  -28.9209  -17.2845   23.0904 O   0  0  0  0  0  0
  -29.2952  -21.9255   21.1990 Cl  0  0  0  0  0  0
  -31.4492  -12.3670   19.0793 H   0  0  0  0  0  0
  -30.2956  -11.2800   19.8007 H   0  0  0  0  0  0
  -29.7288  -11.7848   17.3989 H   0  0  0  0  0  0
  -29.6315  -13.4915   17.7689 H   0  0  0  0  0  0
  -27.8328  -11.2663   18.8108 H   0  0  0  0  0  0
  -27.3568  -12.5827   17.7699 H   0  0  0  0  0  0
  -27.6281  -14.1864   19.4783 H   0  0  0  0  0  0
  -28.6840  -12.0374   21.4070 H   0  0  0  0  0  0
  -28.4845  -13.7206   21.7921 H   0  0  0  0  0  0
  -25.2709   -9.5575   22.4850 H   0  0  0  0  0  0
  -23.9933   -7.4542   22.7457 H   0  0  0  0  0  0
  -21.0828   -8.8703   19.8964 H   0  0  0  0  0  0
  -22.3658  -10.9632   19.6198 H   0  0  0  0  0  0
  -21.1950   -7.6133   23.9705 H   0  0  0  0  0  0
  -21.1531   -6.0522   25.9080 H   0  0  0  0  0  0
  -22.0586   -2.7605   23.2842 H   0  0  0  0  0  0
  -22.3969  -11.9880   22.4878 H   0  0  0  0  0  0
  -21.0981  -13.1226   22.2468 H   0  0  0  0  0  0
  -24.5655  -15.7293   20.3203 H   0  0  0  0  0  0
  -26.1049  -15.5029   19.7069 H   0  0  0  0  0  0
  -26.7135  -32.5527   23.1232 H   0  0  0  0  0  0
  -25.0048  -33.9790   25.0554 H   0  0  0  0  0  0
  -22.6853  -31.3148   21.4172 H   0  0  0  0  0  0
  -23.3751  -35.9651   23.3327 H   0  0  0  0  0  0
  -24.3594  -36.8902   22.2049 H   0  0  0  0  0  0
  -23.7219  -37.6551   23.6643 H   0  0  0  0  0  0
  -26.0398  -31.6291   20.6095 H   0  0  0  0  0  0
  -26.8113  -30.8958   21.9839 H   0  0  0  0  0  0
  -28.0892  -29.1235   21.1629 H   0  0  0  0  0  0
  -26.0485  -25.9755   19.0498 H   0  0  0  0  0  0
  -23.9647  -27.3126   19.0341 H   0  0  0  0  0  0
  -23.6835  -30.6087   19.4052 H   0  0  0  0  0  0
  -22.7267  -29.2343   19.8868 H   0  0  0  0  0  0
  -25.1273  -36.2042   25.0869 H   0  0  0  0  0  0
  -20.9985  -28.3211   24.1452 H   0  0  0  0  0  0
  -21.6548  -26.7723   22.0774 H   0  0  0  0  0  0
  -20.6029  -26.2273   23.3413 H   0  0  0  0  0  0
  -19.6895  -25.6126   21.1464 H   0  0  0  0  0  0
  -19.6569  -27.2969   20.6640 H   0  0  0  0  0  0
  -17.4200  -26.6871   21.3832 H   0  0  0  0  0  0
  -18.0048  -26.0025   22.8839 H   0  0  0  0  0  0
  -19.7896  -30.7283   24.2430 H   0  0  0  0  0  0
  -17.5011  -31.6241   24.5273 H   0  0  0  0  0  0
  -15.5371  -30.2985   23.7758 H   0  0  0  0  0  0
  -15.8658  -28.0884   22.7060 H   0  0  0  0  0  0
  -24.5868  -30.7079   25.7938 H   0  0  0  0  0  0
  -24.8992  -32.2857   26.5136 H   0  0  0  0  0  0
  -25.8167  -30.8792   27.0265 H   0  0  0  0  0  0
  -26.2801  -29.6855   24.1157 H   0  0  0  0  0  0
  -27.4016  -29.7277   25.4568 H   0  0  0  0  0  0
  -27.8658  -30.4399   23.9301 H   0  0  0  0  0  0
  -27.2589  -33.3642   26.2151 H   0  0  0  0  0  0
  -28.3783  -32.6972   25.0321 H   0  0  0  0  0  0
  -28.0751  -31.8464   26.5381 H   0  0  0  0  0  0
  -28.2617  -38.0101   24.7502 H   0  0  0  0  0  0
  -28.1079  -36.2621   24.6317 H   0  0  0  0  0  0
  -27.2295  -37.1509   25.8867 H   0  0  0  0  0  0
  -20.9200  -29.8771   21.7011 H   0  0  0  0  0  0
  -26.0229  -38.2896   24.1381 H   0  0  0  0  0  0
  -27.0402  -26.7788   22.6440 H   0  0  0  0  0  0
  -31.2143  -17.4235   19.1890 H   0  0  0  0  0  0
  -30.7691  -15.9640   18.3563 H   0  0  0  0  0  0
  -28.8484  -16.9428   17.3204 H   0  0  0  0  0  0
  -30.2198  -17.9937   17.0555 H   0  0  0  0  0  0
  -27.5458  -19.2912   20.0127 H   0  0  0  0  0  0
  -27.2188  -17.6958   19.3698 H   0  0  0  0  0  0
  -29.7528  -18.3951   20.8822 H   0  0  0  0  0  0
  -28.6456  -15.8668   19.7190 H   0  0  0  0  0  0
  -27.1711  -24.8299   25.4479 H   0  0  0  0  0  0
  -25.6927  -24.2901   24.6508 H   0  0  0  0  0  0
  -26.1208  -25.9723   24.6082 H   0  0  0  0  0  0
  -28.4759  -19.6630   16.5127 H   0  0  0  0  0  0
  -27.5325  -20.3698   17.8234 H   0  0  0  0  0  0
  -27.0741  -18.8003   17.1710 H   0  0  0  0  0  0
  -27.9468  -22.6234   24.9098 H   0  0  0  0  0  0
  -28.5258  -21.5219   23.7151 H   0  0  0  0  0  0
  -25.9077  -18.6540   24.0128 H   0  0  0  0  0  0
  -27.5545  -19.2326   24.1388 H   0  0  0  0  0  0
  -26.7346  -20.7835   21.9901 H   0  0  0  0  0  0
  -25.1921  -20.4252   22.6990 H   0  0  0  0  0  0
  -26.5013  -18.4282   21.4794 H   0  0  0  0  0  0
  -30.7927  -16.0118   21.6568 H   0  0  0  0  0  0
  -29.4873  -19.4371   18.7012 H   0  0  0  0  0  0
  -25.7285  -22.3372   23.6462 H   0  0  0  0  0  0
  -26.1772  -21.3221   24.8120 H   0  0  0  0  0  0
  1 25  1  0  0  0
  1 30  2  0  0  0
  1 89  1  0  0  0
  2  3  1  0  0  0
  2 25  1  0  0  0
  2 94  1  0  0  0
  2 95  1  0  0  0
  3  4  1  0  0  0
  3 96  1  0  0  0
  3 97  1  0  0  0
  4  5  1  0  0  0
  4 98  1  0  0  0
  4 99  1  0  0  0
  5  6  1  0  0  0
  5 26  1  0  0  0
  5100  1  0  0  0
  6 25  1  0  0  0
  6101  1  0  0  0
  6102  1  0  0  0
  7  8  2  0  0  0
  7 26  1  0  0  0
  7 29  1  0  0  0
  8  9  1  0  0  0
  8 22  1  0  0  0
  9 10  1  0  0  0
  9 27  2  0  0  0
 10 11  2  0  0  0
 10 15  1  0  0  0
 11 12  1  0  0  0
 11103  1  0  0  0
 12 13  2  0  0  0
 12104  1  0  0  0
 13 14  1  0  0  0
 13 31  1  0  0  0
 14 15  2  0  0  0
 14105  1  0  0  0
 15106  1  0  0  0
 16 17  2  0  0  0
 16 21  1  0  0  0
 16 31  1  0  0  0
 17 18  1  0  0  0
 17107  1  0  0  0
 18 19  2  0  0  0
 18108  1  0  0  0
 19 20  1  0  0  0
 19 24  1  0  0  0
 20 21  2  0  0  0
 20109  1  0  0  0
 21 23  1  0  0  0
 22 28  1  0  0  0
 22 32  2  0  0  0
 26 27  1  0  0  0
 28110  1  0  0  0
 28111  1  0  0  0
 29112  1  0  0  0
 29113  1  0  0  0
 33 34  1  0  0  0
 33 66  1  0  0  0
 33 70  2  0  0  0
 34 36  1  0  0  0
 34 59  1  0  0  0
 34114  1  0  0  0
 35 44  2  0  0  0
 35 45  1  0  0  0
 35 68  1  0  0  0
 36 56  1  0  0  0
 36115  1  0  0  0
 37 39  1  0  0  0
 37 47  1  0  0  0
 37 66  1  0  0  0
 37116  1  0  0  0
 38 43  2  0  0  0
 38 46  1  0  0  0
 38 47  1  0  0  0
 39 64  1  0  0  0
 39 67  2  0  0  0
 40 52  1  0  0  0
 40 53  2  0  0  0
 40 58  1  0  0  0
 41117  1  0  0  0
 41118  1  0  0  0
 41119  1  0  0  0
 41 48  1  0  0  0
 42 43  1  0  0  0
 42 66  1  0  0  0
 42120  1  0  0  0
 42121  1  0  0  0
 43 44  1  0  0  0
 44122  1  0  0  0
 45 46  2  0  0  0
 45123  1  0  0  0
 46124  1  0  0  0
 47125  1  0  0  0
 47126  1  0  0  0
 48 56  1  0  0  0
 48 65  1  0  0  0
 48127  1  0  0  0
 49 50  1  0  0  0
 49 53  1  0  0  0
 49 64  1  0  0  0
 49128  1  0  0  0
 50 51  1  0  0  0
 50129  1  0  0  0
 50130  1  0  0  0
 51 52  1  0  0  0
 51131  1  0  0  0
 51132  1  0  0  0
 52133  1  0  0  0
 52134  1  0  0  0
 53 54  1  0  0  0
 54 55  2  0  0  0
 54135  1  0  0  0
 55 57  1  0  0  0
 55136  1  0  0  0
 56 69  2  0  0  0
 57 58  2  0  0  0
 57137  1  0  0  0
 58138  1  0  0  0
 59 60  1  0  0  0
 59 61  1  0  0  0
 59 62  1  0  0  0
 60139  1  0  0  0
 60140  1  0  0  0
 60141  1  0  0  0
 61142  1  0  0  0
 61143  1  0  0  0
 61144  1  0  0  0
 62145  1  0  0  0
 62146  1  0  0  0
 62147  1  0  0  0
 63 65  1  0  0  0
 63148  1  0  0  0
 63149  1  0  0  0
 63150  1  0  0  0
 64151  1  0  0  0
 65152  1  0  0  0
 68 74  1  0  0  0
 71 72  2  0  0  0
 71 74  1  0  0  0
 71153  1  0  0  0
 72 73  1  0  0  0
 72 82  1  0  0  0
 73 75  2  0  0  0
 73 84  1  0  0  0
 74 87  2  0  0  0
 75 87  1  0  0  0
 75 93  1  0  0  0
 76 88  1  0  0  0
 76 92  2  0  0  0
 76 80  1  0  0  0
 77 78  1  0  0  0
 77 81  1  0  0  0
 77154  1  0  0  0
 77155  1  0  0  0
 78 90  1  0  0  0
 78156  1  0  0  0
 78157  1  0  0  0
 79 80  1  0  0  0
 79 90  1  0  0  0
 79158  1  0  0  0
 79159  1  0  0  0
 80 81  1  0  0  0
 80160  1  0  0  0
 81 89  1  0  0  0
 81161  1  0  0  0
 82162  1  0  0  0
 82163  1  0  0  0
 82164  1  0  0  0
 83165  1  0  0  0
 83166  1  0  0  0
 83167  1  0  0  0
 83 90  1  0  0  0
 84 91  1  0  0  0
 84168  1  0  0  0
 84169  1  0  0  0
 85 86  1  0  0  0
 85 88  1  0  0  0
 85170  1  0  0  0
 85171  1  0  0  0
 86 91  1  0  0  0
 86172  1  0  0  0
 86173  1  0  0  0
 88174  1  0  0  0
 89175  1  0  0  0
 90176  1  0  0  0
 91177  1  0  0  0
 91178  1  0  0  0
M  CHG  2  90   1  91   1
M  ISO  4   1 100  68 101  74 101  89 100
M  END
> <chiral flag>
0

> <version>
0

> <s_m_source_file>
/data/baiqing/PycharmProjects/Reinvent-master-3.2/result/LINK_invent/BTK/process_docking_weight1_custom_sum_contain_oxygen_bond_distance_aromatic_linkinvent_7_9_3/rearranged_h_0191.sdf

> <i_m_source_file_index>
76

> <r_mmod_Potential_Energy-OPLS-2005>
-353.016082763672

> <r_mmod_Stretch_Energy-OPLS-2005>
42.6537628173828

> <r_mmod_Bend_Energy-OPLS-2005>
123.262229919434

> <r_mmod_Torsional_Energy-OPLS-2005>
331.849273681641

> <r_mmod_Improper_Torsional_Energy-OPLS-2005>
16.4865169525146

> <r_mmod_Van_der_Waal_Energy-OPLS-2005>
151.426879882812

> <r_mmod_Electrostatic_Energy-OPLS-2005>
-74.284553527832

> <r_mmod_Solvation_Energy-OPLS-2005>
-969.2607421875

> <b_mmod_Minimization_Converged-OPLS-2005>
0

> <r_mmod_RMS_Derivative-OPLS-2005>
8.21403408050537

$$$$
76
                    3D
 Structure written by MMmdl.
157166  0  0  1  0            999 V2000
  -30.6105  -14.7631   20.4495 C   0  0  0  0  0  0
  -30.4404  -12.4669   19.4682 C   0  0  0  0  0  0
  -29.5100  -12.5021   18.2344 C   0  0  0  0  0  0
  -28.0349  -12.3307   18.6487 C   0  0  0  0  0  0
  -27.6439  -13.2274   19.8552 C   0  0  2  0  0  0
  -28.6950  -13.1409   20.9824 C   0  0  0  0  0  0
  -25.2544  -13.8173   20.5798 C   0  0  0  0  0  0
  -24.1808  -13.0411   20.9215 C   0  0  0  0  0  0
  -24.6406  -11.6886   20.8746 C   0  0  0  0  0  0
  -23.9084  -10.4273   21.0419 C   0  0  0  0  0  0
  -24.3635   -9.4185   21.9193 C   0  0  0  0  0  0
  -23.6297   -8.2232   22.0765 C   0  0  0  0  0  0
  -22.4280   -8.0272   21.3562 C   0  0  0  0  0  0
  -21.9916   -9.0254   20.4668 C   0  0  0  0  0  0
  -22.7251  -10.2126   20.3078 C   0  0  0  0  0  0
  -21.6857   -6.0736   22.5300 C   0  0  0  0  0  0
  -21.3994   -6.5644   23.8229 C   0  0  0  0  0  0
  -21.3661   -5.6799   24.9197 C   0  0  0  0  0  0
  -21.6047   -4.3065   24.7241 C   0  0  0  0  0  0
  -21.8819   -3.8150   23.4361 C   0  0  0  0  0  0
  -21.9193   -4.6960   22.3419 C   0  0  0  0  0  0
  -22.7842  -13.5211   21.1843 C   0  0  0  0  0  0
  -22.1654   -4.2147   21.0991 F   0  0  0  0  0  0
  -21.5648   -3.4538   25.7751 F   0  0  0  0  0  0
  -29.9839  -13.5311   20.3951 N   0  0  0  0  0  0
  -26.2965  -12.9384   20.3353 N   0  0  0  0  0  0
  -25.9337  -11.6511   20.5756 N   0  0  0  0  0  0
  -22.0464  -12.8264   22.0418 N   0  0  0  0  0  0
  -25.4168  -15.1908   20.4392 N   0  0  0  0  0  0
  -31.7902  -14.8405   20.0892 O   0  0  0  0  0  0
  -21.6633   -6.8865   21.4264 O   0  0  0  0  0  0
  -22.3553  -14.5521   20.6659 O   0  0  0  0  0  0
  -24.6344  -31.8482   23.1885 C   0  0  0  0  0  0
  -25.9176  -32.4709   23.8225 C   0  0  1  0  0  0
  -27.2232  -27.2273   20.1259 C   0  0  0  0  0  0
  -25.5998  -33.8509   24.2162 N   0  0  0  0  0  0
  -23.4311  -30.4700   21.5325 C   0  0  2  0  0  0
  -24.8793  -28.9086   20.0985 C   0  0  0  0  0  0
  -22.7521  -29.4576   22.4867 C   0  0  0  0  0  0
  -18.0300  -28.1399   22.8487 C   0  0  0  0  0  0
  -24.1499  -36.7208   23.2639 C   0  0  0  0  0  0
  -25.9793  -30.7498   21.3742 C   0  0  0  0  0  0
  -26.0476  -29.3708   20.7134 C   0  0  0  0  0  0
  -27.2160  -28.5399   20.7176 C   0  0  0  0  0  0
  -26.0315  -26.8330   19.4811 C   0  0  0  0  0  0
  -24.8808  -27.6507   19.4696 C   0  0  0  0  0  0
  -23.6480  -29.7972   20.1486 C   0  0  0  0  0  0
  -25.4128  -36.3009   24.0319 C   0  0  1  0  0  0
  -20.5903  -28.3713   23.1258 C   0  0  2  0  0  0
  -20.6773  -26.9433   22.5406 C   0  0  0  0  0  0
  -19.5751  -26.6381   21.5214 C   0  0  0  0  0  0
  -18.1934  -26.7940   22.1619 C   0  0  0  0  0  0
  -19.1558  -28.8875   23.2855 C   0  0  0  0  0  0
  -18.9483  -30.1479   23.8867 C   0  0  0  0  0  0
  -17.6469  -30.6593   24.0572 C   0  0  0  0  0  0
  -25.9085  -34.9417   23.5024 C   0  0  0  0  0  0
  -16.5364  -29.9099   23.6354 C   0  0  0  0  0  0
  -16.7285  -28.6513   23.0355 C   0  0  0  0  0  0
  -26.4539  -31.6575   25.0646 C   0  0  0  0  0  0
  -25.3721  -31.3800   26.1339 C   0  0  0  0  0  0
  -27.0349  -30.2958   24.6180 C   0  0  0  0  0  0
  -27.6082  -32.4342   25.7405 C   0  0  0  0  0  0
  -27.5577  -37.1756   24.8472 C   0  0  0  0  0  0
  -21.4220  -29.3037   22.3631 N   0  0  0  0  0  0
  -26.4273  -37.3743   23.9434 N   0  0  0  0  0  0
  -24.7009  -31.0429   22.0877 N   0  0  0  0  0  0
  -23.4207  -28.8143   23.3007 O   0  0  0  0  0  0
  -28.3283  -26.3435   20.2367 O   0  0  0  0  0  0
  -26.5638  -34.8937   22.4593 O   0  0  0  0  0  0
  -23.5495  -32.1331   23.7172 O   0  0  0  0  0  0
  -29.1994  -22.4248   19.9400 C   0  0  0  0  0  0
  -28.2963  -23.5545   20.1065 C   0  0  0  0  0  0
  -28.8011  -21.0874   20.3088 C   0  0  0  0  0  0
  -26.7863  -22.0106   20.9446 C   0  0  0  0  0  0
  -29.1306  -17.9176   21.8179 C   0  0  0  0  0  0
  -29.1112  -16.3596   21.7364 C   0  0  0  0  0  0
  -30.0608  -17.2333   19.7745 C   0  0  0  0  0  0
  -29.1733  -18.4208   20.3728 C   0  0  2  0  0  0
  -25.3876  -21.7383   21.4640 C   0  0  0  0  0  0
  -28.5141  -25.0352   19.4957 C   0  0  0  0  0  0
  -27.0806  -23.2791   20.6313 N   0  0  0  0  0  0
  -27.5666  -20.9346   20.8053 N   0  0  0  0  0  0
  -29.8446  -15.9355   20.5341 N   0  0  0  0  0  0
  -29.5986  -19.8773   20.1758 N   0  0  0  0  0  0
  -31.4755  -12.6018   19.1513 H   0  0  0  0  0  0
  -30.4084  -11.4892   19.9517 H   0  0  0  0  0  0
  -29.7929  -11.7227   17.5258 H   0  0  0  0  0  0
  -29.6297  -13.4513   17.7086 H   0  0  0  0  0  0
  -27.8870  -11.2810   18.9053 H   0  0  0  0  0  0
  -27.3772  -12.5255   17.8010 H   0  0  0  0  0  0
  -27.6420  -14.2538   19.4860 H   0  0  0  0  0  0
  -28.7465  -12.1255   21.3802 H   0  0  0  0  0  0
  -28.4272  -13.7712   21.8290 H   0  0  0  0  0  0
  -25.2777   -9.5654   22.4785 H   0  0  0  0  0  0
  -24.0007   -7.4623   22.7501 H   0  0  0  0  0  0
  -21.0836   -8.8779   19.8987 H   0  0  0  0  0  0
  -22.3703  -10.9682   19.6211 H   0  0  0  0  0  0
  -21.1956   -7.6149   23.9731 H   0  0  0  0  0  0
  -21.1491   -6.0526   25.9104 H   0  0  0  0  0  0
  -22.0585   -2.7610   23.2870 H   0  0  0  0  0  0
  -22.3979  -11.9899   22.4835 H   0  0  0  0  0  0
  -21.1118  -13.1386   22.2625 H   0  0  0  0  0  0
  -24.6497  -15.8307   20.6149 H   0  0  0  0  0  0
  -26.2911  -15.6591   20.2398 H   0  0  0  0  0  0
  -26.7247  -32.5297   23.0960 H   0  0  0  0  0  0
  -25.0272  -33.9669   25.0391 H   0  0  0  0  0  0
  -22.7254  -31.2882   21.3792 H   0  0  0  0  0  0
  -23.3787  -35.9510   23.3284 H   0  0  0  0  0  0
  -24.3590  -36.8823   22.2052 H   0  0  0  0  0  0
  -23.7223  -37.6399   23.6664 H   0  0  0  0  0  0
  -26.1298  -31.5124   20.6094 H   0  0  0  0  0  0
  -26.8527  -30.7864   22.0156 H   0  0  0  0  0  0
  -28.1061  -28.8878   21.2218 H   0  0  0  0  0  0
  -25.9538  -25.8583   19.0222 H   0  0  0  0  0  0
  -23.9870  -27.2880   18.9824 H   0  0  0  0  0  0
  -23.7630  -30.5675   19.3835 H   0  0  0  0  0  0
  -22.7646  -29.2283   19.8525 H   0  0  0  0  0  0
  -25.1320  -36.1805   25.0806 H   0  0  0  0  0  0
  -21.0001  -28.3268   24.1372 H   0  0  0  0  0  0
  -20.5656  -26.2325   23.3605 H   0  0  0  0  0  0
  -21.6645  -26.7432   22.1219 H   0  0  0  0  0  0
  -19.6906  -25.6283   21.1268 H   0  0  0  0  0  0
  -19.6699  -27.3182   20.6740 H   0  0  0  0  0  0
  -17.4213  -26.6724   21.4013 H   0  0  0  0  0  0
  -18.0315  -26.0070   22.8998 H   0  0  0  0  0  0
  -19.7961  -30.7307   24.2211 H   0  0  0  0  0  0
  -17.5037  -31.6286   24.5166 H   0  0  0  0  0  0
  -15.5366  -30.2980   23.7702 H   0  0  0  0  0  0
  -15.8687  -28.0823   22.7076 H   0  0  0  0  0  0
  -24.6036  -30.6973   25.7728 H   0  0  0  0  0  0
  -24.8751  -32.2969   26.4516 H   0  0  0  0  0  0
  -25.8027  -30.9239   27.0254 H   0  0  0  0  0  0
  -26.2927  -29.6715   24.1201 H   0  0  0  0  0  0
  -27.3983  -29.7250   25.4731 H   0  0  0  0  0  0
  -27.8839  -30.4178   23.9444 H   0  0  0  0  0  0
  -27.2721  -33.3726   26.1838 H   0  0  0  0  0  0
  -28.3965  -32.6755   25.0258 H   0  0  0  0  0  0
  -28.0667  -31.8531   26.5422 H   0  0  0  0  0  0
  -28.2594  -38.0060   24.7525 H   0  0  0  0  0  0
  -28.1069  -36.2587   24.6267 H   0  0  0  0  0  0
  -27.2295  -37.1359   25.8878 H   0  0  0  0  0  0
  -20.9415  -29.8762   21.6832 H   0  0  0  0  0  0
  -26.0109  -38.2792   24.1467 H   0  0  0  0  0  0
  -30.1693  -22.5872   19.4879 H   0  0  0  0  0  0
  -30.0293  -18.2379   22.3510 H   0  0  0  0  0  0
  -28.2683  -18.3084   22.3592 H   0  0  0  0  0  0
  -28.0802  -16.0184   21.6457 H   0  0  0  0  0  0
  -29.5306  -15.9101   22.6386 H   0  0  0  0  0  0
  -31.1196  -17.4907   19.8256 H   0  0  0  0  0  0
  -29.8235  -17.0763   18.7212 H   0  0  0  0  0  0
  -28.1652  -18.3226   19.9640 H   0  0  0  0  0  0
  -24.9032  -22.6461   21.8221 H   0  0  0  0  0  0
  -25.4024  -21.0170   22.2824 H   0  0  0  0  0  0
  -24.7681  -21.3178   20.6731 H   0  0  0  0  0  0
  -27.9857  -25.0814   18.5432 H   0  0  0  0  0  0
  -29.5624  -25.0577   19.1956 H   0  0  0  0  0  0
  -30.5388  -20.0112   19.8218 H   0  0  0  0  0  0
  1 25  1  0  0  0
  1 30  2  0  0  0
  1 83  1  0  0  0
  2  3  1  0  0  0
  2 25  1  0  0  0
  2 85  1  0  0  0
  2 86  1  0  0  0
  3  4  1  0  0  0
  3 87  1  0  0  0
  3 88  1  0  0  0
  4  5  1  0  0  0
  4 89  1  0  0  0
  4 90  1  0  0  0
  5  6  1  0  0  0
  5 26  1  0  0  0
  5 91  1  0  0  0
  6 25  1  0  0  0
  6 92  1  0  0  0
  6 93  1  0  0  0
  7  8  2  0  0  0
  7 26  1  0  0  0
  7 29  1  0  0  0
  8  9  1  0  0  0
  8 22  1  0  0  0
  9 10  1  0  0  0
  9 27  2  0  0  0
 10 11  2  0  0  0
 10 15  1  0  0  0
 11 12  1  0  0  0
 11 94  1  0  0  0
 12 13  2  0  0  0
 12 95  1  0  0  0
 13 14  1  0  0  0
 13 31  1  0  0  0
 14 15  2  0  0  0
 14 96  1  0  0  0
 15 97  1  0  0  0
 16 17  2  0  0  0
 16 21  1  0  0  0
 16 31  1  0  0  0
 17 18  1  0  0  0
 17 98  1  0  0  0
 18 19  2  0  0  0
 18 99  1  0  0  0
 19 20  1  0  0  0
 19 24  1  0  0  0
 20 21  2  0  0  0
 20100  1  0  0  0
 21 23  1  0  0  0
 22 28  1  0  0  0
 22 32  2  0  0  0
 26 27  1  0  0  0
 28101  1  0  0  0
 28102  1  0  0  0
 29103  1  0  0  0
 29104  1  0  0  0
 33 34  1  0  0  0
 33 66  1  0  0  0
 33 70  2  0  0  0
 34 36  1  0  0  0
 34 59  1  0  0  0
 34105  1  0  0  0
 35 44  2  0  0  0
 35 45  1  0  0  0
 35 68  1  0  0  0
 36 56  1  0  0  0
 36106  1  0  0  0
 37 39  1  0  0  0
 37 47  1  0  0  0
 37 66  1  0  0  0
 37107  1  0  0  0
 38 43  2  0  0  0
 38 46  1  0  0  0
 38 47  1  0  0  0
 39 64  1  0  0  0
 39 67  2  0  0  0
 40 52  1  0  0  0
 40 53  2  0  0  0
 40 58  1  0  0  0
 41108  1  0  0  0
 41109  1  0  0  0
 41110  1  0  0  0
 41 48  1  0  0  0
 42 43  1  0  0  0
 42 66  1  0  0  0
 42111  1  0  0  0
 42112  1  0  0  0
 43 44  1  0  0  0
 44113  1  0  0  0
 45 46  2  0  0  0
 45114  1  0  0  0
 46115  1  0  0  0
 47116  1  0  0  0
 47117  1  0  0  0
 48 56  1  0  0  0
 48 65  1  0  0  0
 48118  1  0  0  0
 49 50  1  0  0  0
 49 53  1  0  0  0
 49 64  1  0  0  0
 49119  1  0  0  0
 50 51  1  0  0  0
 50120  1  0  0  0
 50121  1  0  0  0
 51 52  1  0  0  0
 51122  1  0  0  0
 51123  1  0  0  0
 52124  1  0  0  0
 52125  1  0  0  0
 53 54  1  0  0  0
 54 55  2  0  0  0
 54126  1  0  0  0
 55 57  1  0  0  0
 55127  1  0  0  0
 56 69  2  0  0  0
 57 58  2  0  0  0
 57128  1  0  0  0
 58129  1  0  0  0
 59 60  1  0  0  0
 59 61  1  0  0  0
 59 62  1  0  0  0
 60130  1  0  0  0
 60131  1  0  0  0
 60132  1  0  0  0
 61133  1  0  0  0
 61134  1  0  0  0
 61135  1  0  0  0
 62136  1  0  0  0
 62137  1  0  0  0
 62138  1  0  0  0
 63 65  1  0  0  0
 63139  1  0  0  0
 63140  1  0  0  0
 63141  1  0  0  0
 64142  1  0  0  0
 65143  1  0  0  0
 68 80  1  0  0  0
 71 72  2  0  0  0
 71 73  1  0  0  0
 71144  1  0  0  0
 72 80  1  0  0  0
 72 81  1  0  0  0
 73 82  2  0  0  0
 73 84  1  0  0  0
 74 79  1  0  0  0
 74 81  2  0  0  0
 74 82  1  0  0  0
 75 76  1  0  0  0
 75 78  1  0  0  0
 75145  1  0  0  0
 75146  1  0  0  0
 76 83  1  0  0  0
 76147  1  0  0  0
 76148  1  0  0  0
 77 78  1  0  0  0
 77 83  1  0  0  0
 77149  1  0  0  0
 77150  1  0  0  0
 78 84  1  0  0  0
 78151  1  0  0  0
 79152  1  0  0  0
 79153  1  0  0  0
 79154  1  0  0  0
 80155  1  0  0  0
 80156  1  0  0  0
 84157  1  0  0  0
M  ISO  4   1 100  68 101  80 101  83 100
M  END
> <chiral flag>
0

> <version>
0

> <s_m_source_file>
/data/baiqing/PycharmProjects/Reinvent-master-3.2/result/LINK_invent/BTK/process_docking_weight1_custom_sum_contain_oxygen_bond_distance_aromatic_linkinvent_7_9_3/rearranged_h_0191.sdf

> <i_m_source_file_index>
77

> <r_mmod_Potential_Energy-OPLS-2005>
-150.082855224609

> <r_mmod_Stretch_Energy-OPLS-2005>
129.584671020508

> <r_mmod_Bend_Energy-OPLS-2005>
231.899261474609

> <r_mmod_Torsional_Energy-OPLS-2005>
305.114318847656

> <r_mmod_Improper_Torsional_Energy-OPLS-2005>
13.4388303756714

> <r_mmod_Van_der_Waal_Energy-OPLS-2005>
133.065795898438

> <r_mmod_Electrostatic_Energy-OPLS-2005>
-822.263122558594

> <r_mmod_Solvation_Energy-OPLS-2005>
-237.676284790039

> <b_mmod_Minimization_Converged-OPLS-2005>
0

> <r_mmod_RMS_Derivative-OPLS-2005>
3.86361837387085

$$$$
77
                    3D
 Structure written by MMmdl.
154163  0  0  1  0            999 V2000
  -30.5653  -14.8692   20.4155 C   0  0  0  0  0  0
  -30.4280  -12.5307   19.4888 C   0  0  0  0  0  0
  -29.5133  -12.5211   18.2421 C   0  0  0  0  0  0
  -28.0423  -12.3292   18.6541 C   0  0  0  0  0  0
  -27.6312  -13.2435   19.8382 C   0  0  2  0  0  0
  -28.6720  -13.2390   20.9766 C   0  0  0  0  0  0
  -25.2482  -13.8194   20.5697 C   0  0  0  0  0  0
  -24.1784  -13.0432   20.9219 C   0  0  0  0  0  0
  -24.6392  -11.6914   20.8739 C   0  0  0  0  0  0
  -23.9076  -10.4282   21.0396 C   0  0  0  0  0  0
  -24.3597   -9.4188   21.9182 C   0  0  0  0  0  0
  -23.6277   -8.2213   22.0737 C   0  0  0  0  0  0
  -22.4259   -8.0262   21.3540 C   0  0  0  0  0  0
  -21.9917   -9.0239   20.4644 C   0  0  0  0  0  0
  -22.7245  -10.2119   20.3056 C   0  0  0  0  0  0
  -21.6845   -6.0736   22.5282 C   0  0  0  0  0  0
  -21.4010   -6.5637   23.8217 C   0  0  0  0  0  0
  -21.3659   -5.6780   24.9176 C   0  0  0  0  0  0
  -21.6050   -4.3046   24.7230 C   0  0  0  0  0  0
  -21.8816   -3.8148   23.4344 C   0  0  0  0  0  0
  -21.9179   -4.6967   22.3401 C   0  0  0  0  0  0
  -22.7809  -13.5220   21.1872 C   0  0  0  0  0  0
  -22.1665   -4.2141   21.0981 F   0  0  0  0  0  0
  -21.5630   -3.4537   25.7748 F   0  0  0  0  0  0
  -29.9541  -13.6235   20.3780 N   0  0  0  0  0  0
  -26.2899  -12.9416   20.3224 N   0  0  0  0  0  0
  -25.9331  -11.6547   20.5724 N   0  0  0  0  0  0
  -22.0428  -12.8227   22.0408 N   0  0  0  0  0  0
  -25.4187  -15.1923   20.4208 N   0  0  0  0  0  0
  -31.7671  -14.9298   20.1399 O   0  0  0  0  0  0
  -21.6622   -6.8862   21.4237 O   0  0  0  0  0  0
  -22.3509  -14.5527   20.6713 O   0  0  0  0  0  0
  -24.6404  -31.8442   23.1878 C   0  0  0  0  0  0
  -25.9194  -32.4697   23.8257 C   0  0  1  0  0  0
  -27.2258  -27.1795   20.1209 C   0  0  0  0  0  0
  -25.5939  -33.8494   24.2172 N   0  0  0  0  0  0
  -23.4396  -30.4620   21.5331 C   0  0  2  0  0  0
  -24.8877  -28.8876   20.1073 C   0  0  0  0  0  0
  -22.7560  -29.4541   22.4900 C   0  0  0  0  0  0
  -18.0297  -28.1385   22.8487 C   0  0  0  0  0  0
  -24.1492  -36.7260   23.2632 C   0  0  0  0  0  0
  -25.9915  -30.7308   21.3760 C   0  0  0  0  0  0
  -26.0609  -29.3439   20.7189 C   0  0  0  0  0  0
  -27.2254  -28.4987   20.7185 C   0  0  0  0  0  0
  -26.0241  -26.8062   19.4847 C   0  0  0  0  0  0
  -24.8776  -27.6315   19.4798 C   0  0  0  0  0  0
  -23.6596  -29.7815   20.1550 C   0  0  0  0  0  0
  -25.4123  -36.3009   24.0311 C   0  0  1  0  0  0
  -20.5922  -28.3686   23.1272 C   0  0  2  0  0  0
  -20.6772  -26.9399   22.5408 C   0  0  0  0  0  0
  -19.5752  -26.6370   21.5210 C   0  0  0  0  0  0
  -18.1941  -26.7933   22.1629 C   0  0  0  0  0  0
  -19.1561  -28.8863   23.2856 C   0  0  0  0  0  0
  -18.9466  -30.1480   23.8852 C   0  0  0  0  0  0
  -17.6450  -30.6571   24.0568 C   0  0  0  0  0  0
  -25.9072  -34.9393   23.5049 C   0  0  0  0  0  0
  -16.5342  -29.9069   23.6336 C   0  0  0  0  0  0
  -16.7281  -28.6505   23.0337 C   0  0  0  0  0  0
  -26.4514  -31.6566   25.0691 C   0  0  0  0  0  0
  -25.3698  -31.3764   26.1386 C   0  0  0  0  0  0
  -27.0353  -30.2974   24.6233 C   0  0  0  0  0  0
  -27.6056  -32.4321   25.7480 C   0  0  0  0  0  0
  -27.5580  -37.1791   24.8456 C   0  0  0  0  0  0
  -21.4268  -29.3021   22.3658 N   0  0  0  0  0  0
  -26.4276  -37.3730   23.9397 N   0  0  0  0  0  0
  -24.7101  -31.0330   22.0885 N   0  0  0  0  0  0
  -23.4238  -28.8094   23.3023 O   0  0  0  0  0  0
  -28.3174  -26.2589   20.2207 O   0  0  0  0  0  0
  -26.5645  -34.8899   22.4625 O   0  0  0  0  0  0
  -23.5538  -32.1282   23.7142 O   0  0  0  0  0  0
  -29.0435  -22.1949   19.7187 C   0  0  0  0  0  0
  -28.4230  -23.4236   20.2328 C   0  0  0  0  0  0
  -28.8615  -20.9152   20.4044 C   0  0  0  0  0  0
  -27.5557  -22.0863   21.9114 C   0  0  0  0  0  0
  -29.1929  -16.9458   19.5864 C   0  0  0  0  0  0
  -30.3926  -17.3548   21.1544 C   0  0  0  0  0  0
  -29.1973  -18.1853   20.5637 C   0  0  0  0  0  0
  -26.6922  -22.0186   23.1520 C   0  0  0  0  0  0
  -28.4416  -24.8915   19.5215 C   0  0  0  0  0  0
  -27.6755  -23.2969   21.3518 N   0  0  0  0  0  0
  -28.0936  -20.9257   21.5092 N   0  0  0  0  0  0
  -29.8216  -16.0552   20.6327 N   0  0  0  0  0  0
  -29.4280  -19.6146   20.0060 N   0  0  0  0  0  0
  -29.7837  -22.2454   18.5829 F   0  0  0  0  0  0
  -31.4681  -12.6622   19.1830 H   0  0  0  0  0  0
  -30.3865  -11.5717   20.0077 H   0  0  0  0  0  0
  -29.8220  -11.7338   17.5512 H   0  0  0  0  0  0
  -29.6184  -13.4633   17.7001 H   0  0  0  0  0  0
  -27.9131  -11.2846   18.9400 H   0  0  0  0  0  0
  -27.3818  -12.4940   17.8007 H   0  0  0  0  0  0
  -27.6106  -14.2553   19.4323 H   0  0  0  0  0  0
  -28.7356  -12.2604   21.4547 H   0  0  0  0  0  0
  -28.3850  -13.9464   21.7560 H   0  0  0  0  0  0
  -25.2718   -9.5686   22.4792 H   0  0  0  0  0  0
  -23.9983   -7.4616   22.7482 H   0  0  0  0  0  0
  -21.0828   -8.8782   19.8976 H   0  0  0  0  0  0
  -22.3687  -10.9664   19.6188 H   0  0  0  0  0  0
  -21.1996   -7.6144   23.9727 H   0  0  0  0  0  0
  -21.1505   -6.0504   25.9082 H   0  0  0  0  0  0
  -22.0594   -2.7608   23.2837 H   0  0  0  0  0  0
  -22.3995  -11.9883   22.4837 H   0  0  0  0  0  0
  -21.1067  -13.1326   22.2596 H   0  0  0  0  0  0
  -24.6584  -15.8466   20.5646 H   0  0  0  0  0  0
  -26.2864  -15.6406   20.1573 H   0  0  0  0  0  0
  -26.7280  -32.5309   23.0998 H   0  0  0  0  0  0
  -25.0052  -33.9590   25.0305 H   0  0  0  0  0  0
  -22.7372  -31.2838   21.3757 H   0  0  0  0  0  0
  -23.3722  -35.9620   23.3270 H   0  0  0  0  0  0
  -24.3572  -36.8904   22.2048 H   0  0  0  0  0  0
  -23.7288  -37.6476   23.6691 H   0  0  0  0  0  0
  -26.1279  -31.4855   20.6006 H   0  0  0  0  0  0
  -26.8706  -30.7879   22.0074 H   0  0  0  0  0  0
  -28.1194  -28.8387   21.2205 H   0  0  0  0  0  0
  -25.9237  -25.8362   19.0228 H   0  0  0  0  0  0
  -23.9739  -27.2735   19.0043 H   0  0  0  0  0  0
  -23.7807  -30.5444   19.3847 H   0  0  0  0  0  0
  -22.7781  -29.2085   19.8617 H   0  0  0  0  0  0
  -25.1321  -36.1814   25.0801 H   0  0  0  0  0  0
  -21.0010  -28.3234   24.1399 H   0  0  0  0  0  0
  -20.5637  -26.2295   23.3605 H   0  0  0  0  0  0
  -21.6638  -26.7384   22.1219 H   0  0  0  0  0  0
  -19.6888  -25.6270   21.1264 H   0  0  0  0  0  0
  -19.6704  -27.3164   20.6727 H   0  0  0  0  0  0
  -17.4214  -26.6679   21.4026 H   0  0  0  0  0  0
  -18.0334  -26.0081   22.9031 H   0  0  0  0  0  0
  -19.7928  -30.7346   24.2175 H   0  0  0  0  0  0
  -17.4978  -31.6245   24.5179 H   0  0  0  0  0  0
  -15.5338  -30.2923   23.7696 H   0  0  0  0  0  0
  -15.8697  -28.0818   22.7026 H   0  0  0  0  0  0
  -24.5867  -30.7122   25.7710 H   0  0  0  0  0  0
  -24.8881  -32.2943   26.4774 H   0  0  0  0  0  0
  -25.7971  -30.8958   27.0189 H   0  0  0  0  0  0
  -26.2941  -29.6722   24.1241 H   0  0  0  0  0  0
  -27.3969  -29.7268   25.4792 H   0  0  0  0  0  0
  -27.8849  -30.4199   23.9512 H   0  0  0  0  0  0
  -27.2658  -33.3623   26.2043 H   0  0  0  0  0  0
  -28.3889  -32.6872   25.0335 H   0  0  0  0  0  0
  -28.0690  -31.8437   26.5407 H   0  0  0  0  0  0
  -28.2588  -38.0094   24.7478 H   0  0  0  0  0  0
  -28.1082  -36.2623   24.6296 H   0  0  0  0  0  0
  -27.2290  -37.1457   25.8853 H   0  0  0  0  0  0
  -20.9473  -29.8743   21.6859 H   0  0  0  0  0  0
  -26.0129  -38.2802   24.1369 H   0  0  0  0  0  0
  -29.8111  -17.0721   18.6933 H   0  0  0  0  0  0
  -28.1834  -16.6453   19.2996 H   0  0  0  0  0  0
  -30.4442  -17.4144   22.2429 H   0  0  0  0  0  0
  -31.3634  -17.6112   20.7206 H   0  0  0  0  0  0
  -28.3304  -18.1588   21.2261 H   0  0  0  0  0  0
  -26.2426  -22.9853   23.3800 H   0  0  0  0  0  0
  -27.2851  -21.7103   24.0116 H   0  0  0  0  0  0
  -25.8865  -21.2983   23.0155 H   0  0  0  0  0  0
  -27.7717  -24.8408   18.6674 H   0  0  0  0  0  0
  -29.4284  -24.9349   19.0591 H   0  0  0  0  0  0
  -29.9757  -19.6793   19.1560 H   0  0  0  0  0  0
  1 25  1  0  0  0
  1 30  2  0  0  0
  1 82  1  0  0  0
  2  3  1  0  0  0
  2 25  1  0  0  0
  2 85  1  0  0  0
  2 86  1  0  0  0
  3  4  1  0  0  0
  3 87  1  0  0  0
  3 88  1  0  0  0
  4  5  1  0  0  0
  4 89  1  0  0  0
  4 90  1  0  0  0
  5  6  1  0  0  0
  5 26  1  0  0  0
  5 91  1  0  0  0
  6 25  1  0  0  0
  6 92  1  0  0  0
  6 93  1  0  0  0
  7  8  2  0  0  0
  7 26  1  0  0  0
  7 29  1  0  0  0
  8  9  1  0  0  0
  8 22  1  0  0  0
  9 10  1  0  0  0
  9 27  2  0  0  0
 10 11  2  0  0  0
 10 15  1  0  0  0
 11 12  1  0  0  0
 11 94  1  0  0  0
 12 13  2  0  0  0
 12 95  1  0  0  0
 13 14  1  0  0  0
 13 31  1  0  0  0
 14 15  2  0  0  0
 14 96  1  0  0  0
 15 97  1  0  0  0
 16 17  2  0  0  0
 16 21  1  0  0  0
 16 31  1  0  0  0
 17 18  1  0  0  0
 17 98  1  0  0  0
 18 19  2  0  0  0
 18 99  1  0  0  0
 19 20  1  0  0  0
 19 24  1  0  0  0
 20 21  2  0  0  0
 20100  1  0  0  0
 21 23  1  0  0  0
 22 28  1  0  0  0
 22 32  2  0  0  0
 26 27  1  0  0  0
 28101  1  0  0  0
 28102  1  0  0  0
 29103  1  0  0  0
 29104  1  0  0  0
 33 34  1  0  0  0
 33 66  1  0  0  0
 33 70  2  0  0  0
 34 36  1  0  0  0
 34 59  1  0  0  0
 34105  1  0  0  0
 35 44  2  0  0  0
 35 45  1  0  0  0
 35 68  1  0  0  0
 36 56  1  0  0  0
 36106  1  0  0  0
 37 39  1  0  0  0
 37 47  1  0  0  0
 37 66  1  0  0  0
 37107  1  0  0  0
 38 43  2  0  0  0
 38 46  1  0  0  0
 38 47  1  0  0  0
 39 64  1  0  0  0
 39 67  2  0  0  0
 40 52  1  0  0  0
 40 53  2  0  0  0
 40 58  1  0  0  0
 41108  1  0  0  0
 41109  1  0  0  0
 41110  1  0  0  0
 41 48  1  0  0  0
 42 43  1  0  0  0
 42 66  1  0  0  0
 42111  1  0  0  0
 42112  1  0  0  0
 43 44  1  0  0  0
 44113  1  0  0  0
 45 46  2  0  0  0
 45114  1  0  0  0
 46115  1  0  0  0
 47116  1  0  0  0
 47117  1  0  0  0
 48 56  1  0  0  0
 48 65  1  0  0  0
 48118  1  0  0  0
 49 50  1  0  0  0
 49 53  1  0  0  0
 49 64  1  0  0  0
 49119  1  0  0  0
 50 51  1  0  0  0
 50120  1  0  0  0
 50121  1  0  0  0
 51 52  1  0  0  0
 51122  1  0  0  0
 51123  1  0  0  0
 52124  1  0  0  0
 52125  1  0  0  0
 53 54  1  0  0  0
 54 55  2  0  0  0
 54126  1  0  0  0
 55 57  1  0  0  0
 55127  1  0  0  0
 56 69  2  0  0  0
 57 58  2  0  0  0
 57128  1  0  0  0
 58129  1  0  0  0
 59 60  1  0  0  0
 59 61  1  0  0  0
 59 62  1  0  0  0
 60130  1  0  0  0
 60131  1  0  0  0
 60132  1  0  0  0
 61133  1  0  0  0
 61134  1  0  0  0
 61135  1  0  0  0
 62136  1  0  0  0
 62137  1  0  0  0
 62138  1  0  0  0
 63 65  1  0  0  0
 63139  1  0  0  0
 63140  1  0  0  0
 63141  1  0  0  0
 64142  1  0  0  0
 65143  1  0  0  0
 68 79  1  0  0  0
 71 72  2  0  0  0
 71 73  1  0  0  0
 71 84  1  0  0  0
 72 79  1  0  0  0
 72 80  1  0  0  0
 73 81  2  0  0  0
 73 83  1  0  0  0
 74 78  1  0  0  0
 74 80  2  0  0  0
 74 81  1  0  0  0
 75 77  1  0  0  0
 75 82  1  0  0  0
 75144  1  0  0  0
 75145  1  0  0  0
 76 77  1  0  0  0
 76 82  1  0  0  0
 76146  1  0  0  0
 76147  1  0  0  0
 77 83  1  0  0  0
 77148  1  0  0  0
 78149  1  0  0  0
 78150  1  0  0  0
 78151  1  0  0  0
 79152  1  0  0  0
 79153  1  0  0  0
 83154  1  0  0  0
M  ISO  4   1 100  68 101  79 101  82 100
M  END
> <chiral flag>
0

> <version>
0

> <s_m_source_file>
/data/baiqing/PycharmProjects/Reinvent-master-3.2/result/LINK_invent/BTK/process_docking_weight1_custom_sum_contain_oxygen_bond_distance_aromatic_linkinvent_7_9_3/rearranged_h_0191.sdf

> <i_m_source_file_index>
78

> <r_mmod_Potential_Energy-OPLS-2005>
7.69024896621704

> <r_mmod_Stretch_Energy-OPLS-2005>
174.499389648438

> <r_mmod_Bend_Energy-OPLS-2005>
241.380981445312

> <r_mmod_Torsional_Energy-OPLS-2005>
252.365325927734

> <r_mmod_Improper_Torsional_Energy-OPLS-2005>
10.3571615219116

> <r_mmod_Van_der_Waal_Energy-OPLS-2005>
134.562438964844

> <r_mmod_Electrostatic_Energy-OPLS-2005>
-722.454040527344

> <r_mmod_Solvation_Energy-OPLS-2005>
-228.552429199219

> <b_mmod_Minimization_Converged-OPLS-2005>
0

> <r_mmod_RMS_Derivative-OPLS-2005>
3.86449813842773

$$$$
78
                    3D
 Structure written by MMmdl.
165173  0  0  1  0            999 V2000
  -30.6764  -14.4611   20.5704 C   0  0  0  0  0  0
  -30.4290  -12.2965   19.4191 C   0  0  0  0  0  0
  -29.4929  -12.4952   18.2074 C   0  0  0  0  0  0
  -28.0117  -12.3581   18.6178 C   0  0  0  0  0  0
  -27.6592  -13.1859   19.8807 C   0  0  2  0  0  0
  -28.7038  -12.9406   20.9939 C   0  0  0  0  0  0
  -25.2589  -13.8100   20.5679 C   0  0  0  0  0  0
  -24.1813  -13.0414   20.9186 C   0  0  0  0  0  0
  -24.6344  -11.6878   20.8765 C   0  0  0  0  0  0
  -23.9006  -10.4278   21.0419 C   0  0  0  0  0  0
  -24.3569   -9.4202   21.9194 C   0  0  0  0  0  0
  -23.6272   -8.2230   22.0747 C   0  0  0  0  0  0
  -22.4263   -8.0266   21.3534 C   0  0  0  0  0  0
  -21.9878   -9.0227   20.4639 C   0  0  0  0  0  0
  -22.7179  -10.2124   20.3061 C   0  0  0  0  0  0
  -21.6849   -6.0738   22.5276 C   0  0  0  0  0  0
  -21.4010   -6.5642   23.8212 C   0  0  0  0  0  0
  -21.3653   -5.6791   24.9165 C   0  0  0  0  0  0
  -21.6034   -4.3053   24.7216 C   0  0  0  0  0  0
  -21.8819   -3.8152   23.4337 C   0  0  0  0  0  0
  -21.9186   -4.6973   22.3396 C   0  0  0  0  0  0
  -22.7846  -13.5245   21.1834 C   0  0  0  0  0  0
  -22.1660   -4.2159   21.0979 F   0  0  0  0  0  0
  -21.5619   -3.4535   25.7730 F   0  0  0  0  0  0
  -30.0307  -13.2679   20.4473 N   0  0  0  0  0  0
  -26.2996  -12.9215   20.3386 N   0  0  0  0  0  0
  -25.9264  -11.6409   20.5802 N   0  0  0  0  0  0
  -22.0471  -12.8259   22.0401 N   0  0  0  0  0  0
  -25.4338  -15.1810   20.4043 N   0  0  0  0  0  0
  -31.8186  -14.6510   20.1408 O   0  0  0  0  0  0
  -21.6623   -6.8869   21.4235 O   0  0  0  0  0  0
  -22.3540  -14.5549   20.6671 O   0  0  0  0  0  0
  -24.6113  -31.8699   23.2112 C   0  0  0  0  0  0
  -25.9026  -32.4833   23.8397 C   0  0  1  0  0  0
  -27.2376  -27.4638   20.1029 C   0  0  0  0  0  0
  -25.5904  -33.8637   24.2338 N   0  0  0  0  0  0
  -23.3965  -30.4909   21.5531 C   0  0  2  0  0  0
  -24.8461  -28.9617   20.1143 C   0  0  0  0  0  0
  -22.7382  -29.4648   22.5024 C   0  0  0  0  0  0
  -18.0251  -28.1339   22.8494 C   0  0  0  0  0  0
  -24.1490  -36.7317   23.2626 C   0  0  0  0  0  0
  -25.9203  -30.8484   21.3563 C   0  0  0  0  0  0
  -26.0028  -29.4834   20.7068 C   0  0  0  0  0  0
  -27.2042  -28.7439   20.6949 C   0  0  0  0  0  0
  -26.0695  -26.9471   19.5023 C   0  0  0  0  0  0
  -24.8754  -27.6946   19.5045 C   0  0  0  0  0  0
  -23.6021  -29.8209   20.1671 C   0  0  0  0  0  0
  -25.4114  -36.3117   24.0334 C   0  0  1  0  0  0
  -20.5841  -28.3632   23.1332 C   0  0  2  0  0  0
  -20.6760  -26.9377   22.5421 C   0  0  0  0  0  0
  -19.5736  -26.6372   21.5218 C   0  0  0  0  0  0
  -18.1913  -26.7884   22.1630 C   0  0  0  0  0  0
  -19.1493  -28.8806   23.2909 C   0  0  0  0  0  0
  -18.9407  -30.1418   23.8909 C   0  0  0  0  0  0
  -17.6407  -30.6555   24.0544 C   0  0  0  0  0  0
  -25.9046  -34.9479   23.5127 C   0  0  0  0  0  0
  -16.5306  -29.9052   23.6295 C   0  0  0  0  0  0
  -16.7238  -28.6458   23.0336 C   0  0  0  0  0  0
  -26.4470  -31.6599   25.0707 C   0  0  0  0  0  0
  -25.3727  -31.3738   26.1447 C   0  0  0  0  0  0
  -27.0284  -30.3032   24.6064 C   0  0  0  0  0  0
  -27.6054  -32.4323   25.7468 C   0  0  0  0  0  0
  -27.5587  -37.1821   24.8460 C   0  0  0  0  0  0
  -21.4115  -29.3010   22.3760 N   0  0  0  0  0  0
  -26.4303  -37.3803   23.9397 N   0  0  0  0  0  0
  -24.6606  -31.0836   22.0994 N   0  0  0  0  0  0
  -23.4183  -28.8167   23.3024 O   0  0  0  0  0  0
  -28.4038  -26.7385   20.1086 O   0  0  0  0  0  0
  -26.5596  -34.8919   22.4687 O   0  0  0  0  0  0
  -23.5323  -32.1423   23.7538 O   0  0  0  0  0  0
  -29.3599  -15.9706   22.0528 C   0  0  0  0  0  0
  -29.5809  -16.4180   19.5999 C   0  0  0  0  0  0
  -29.5811  -17.4835   22.3070 C   0  0  0  0  0  0
  -29.8578  -17.8922   19.9238 C   0  0  0  0  0  0
  -26.7212  -20.6160   21.5069 C   0  0  0  0  0  0
  -29.1569  -19.7757   21.3753 C   0  0  0  0  0  0
  -28.4797  -24.2943   20.0309 C   0  0  0  0  0  0
  -28.3719  -21.8180   19.9321 C   0  0  0  0  0  0
  -28.3631  -25.5538   20.9103 C   0  0  0  0  0  0
  -27.9870  -20.4845   20.6325 C   0  0  2  0  0  0
  -29.8412  -15.5154   20.7356 N   0  0  0  0  0  0
  -29.1369  -18.3009   21.1518 N   0  3  0  0  0  0
  -28.3031  -23.0283   20.7900 N   0  3  0  0  0  0
  -31.4697  -12.4131   19.1147 H   0  0  0  0  0  0
  -30.3479  -11.2816   19.8114 H   0  0  0  0  0  0
  -29.7307  -11.7703   17.4269 H   0  0  0  0  0  0
  -29.6612  -13.4809   17.7708 H   0  0  0  0  0  0
  -27.8166  -11.3019   18.8063 H   0  0  0  0  0  0
  -27.3607  -12.6391   17.7885 H   0  0  0  0  0  0
  -27.7025  -14.2314   19.5889 H   0  0  0  0  0  0
  -28.6858  -11.8927   21.2980 H   0  0  0  0  0  0
  -28.4669  -13.5016   21.8956 H   0  0  0  0  0  0
  -25.2703   -9.5688   22.4785 H   0  0  0  0  0  0
  -23.9989   -7.4608   22.7458 H   0  0  0  0  0  0
  -21.0811   -8.8724   19.8943 H   0  0  0  0  0  0
  -22.3616  -10.9667   19.6189 H   0  0  0  0  0  0
  -21.2013   -7.6151   23.9725 H   0  0  0  0  0  0
  -21.1476   -6.0511   25.9069 H   0  0  0  0  0  0
  -22.0612   -2.7620   23.2825 H   0  0  0  0  0  0
  -22.4079  -11.9933   22.4823 H   0  0  0  0  0  0
  -21.1100  -13.1313   22.2633 H   0  0  0  0  0  0
  -24.6481  -15.8207   20.4526 H   0  0  0  0  0  0
  -26.2569  -15.5936   19.9882 H   0  0  0  0  0  0
  -26.7105  -32.5556   23.1182 H   0  0  0  0  0  0
  -25.0087  -33.9825   25.0506 H   0  0  0  0  0  0
  -22.6818  -31.3058   21.4195 H   0  0  0  0  0  0
  -23.3746  -35.9656   23.3305 H   0  0  0  0  0  0
  -24.3562  -36.8920   22.2033 H   0  0  0  0  0  0
  -23.7262  -37.6541   23.6623 H   0  0  0  0  0  0
  -26.0216  -31.6179   20.5882 H   0  0  0  0  0  0
  -26.8114  -30.9059   21.9696 H   0  0  0  0  0  0
  -28.0961  -29.1505   21.1503 H   0  0  0  0  0  0
  -26.0780  -25.9768   19.0259 H   0  0  0  0  0  0
  -23.9884  -27.2955   19.0331 H   0  0  0  0  0  0
  -23.6969  -30.5958   19.4053 H   0  0  0  0  0  0
  -22.7291  -29.2329   19.8782 H   0  0  0  0  0  0
  -25.1295  -36.1990   25.0831 H   0  0  0  0  0  0
  -20.9902  -28.3186   24.1459 H   0  0  0  0  0  0
  -20.5673  -26.2237   23.3597 H   0  0  0  0  0  0
  -21.6627  -26.7429   22.1205 H   0  0  0  0  0  0
  -19.6892  -25.6288   21.1231 H   0  0  0  0  0  0
  -19.6663  -27.3193   20.6754 H   0  0  0  0  0  0
  -17.4203  -26.6604   21.4022 H   0  0  0  0  0  0
  -18.0304  -26.0013   22.9007 H   0  0  0  0  0  0
  -19.7872  -30.7240   24.2307 H   0  0  0  0  0  0
  -17.4937  -31.6239   24.5118 H   0  0  0  0  0  0
  -15.5294  -30.2943   23.7592 H   0  0  0  0  0  0
  -15.8652  -28.0765   22.7041 H   0  0  0  0  0  0
  -24.5888  -30.7102   25.7773 H   0  0  0  0  0  0
  -24.8921  -32.2918   26.4848 H   0  0  0  0  0  0
  -25.8039  -30.8921   27.0232 H   0  0  0  0  0  0
  -26.2817  -29.6821   24.1098 H   0  0  0  0  0  0
  -27.4036  -29.7240   25.4517 H   0  0  0  0  0  0
  -27.8657  -30.4339   23.9199 H   0  0  0  0  0  0
  -27.2669  -33.3613   26.2074 H   0  0  0  0  0  0
  -28.3838  -32.6928   25.0278 H   0  0  0  0  0  0
  -28.0748  -31.8435   26.5364 H   0  0  0  0  0  0
  -28.2630  -38.0097   24.7503 H   0  0  0  0  0  0
  -28.1063  -36.2638   24.6299 H   0  0  0  0  0  0
  -27.2285  -37.1490   25.8857 H   0  0  0  0  0  0
  -20.9262  -29.8727   21.6992 H   0  0  0  0  0  0
  -26.0190  -38.2879   24.1398 H   0  0  0  0  0  0
  -28.2925  -15.7530   22.1083 H   0  0  0  0  0  0
  -29.8278  -15.3981   22.8550 H   0  0  0  0  0  0
  -30.1556  -16.1312   18.7162 H   0  0  0  0  0  0
  -28.5350  -16.3100   19.3132 H   0  0  0  0  0  0
  -30.6359  -17.6785   22.5043 H   0  0  0  0  0  0
  -29.0371  -17.7787   23.2055 H   0  0  0  0  0  0
  -29.5581  -18.5097   19.0758 H   0  0  0  0  0  0
  -30.9291  -18.0510   20.0603 H   0  0  0  0  0  0
  -26.3821  -19.6465   21.8743 H   0  0  0  0  0  0
  -25.8948  -21.0504   20.9425 H   0  0  0  0  0  0
  -26.8917  -21.2446   22.3825 H   0  0  0  0  0  0
  -29.0937  -20.0025   22.4406 H   0  0  0  0  0  0
  -30.1236  -20.1700   21.0544 H   0  0  0  0  0  0
  -29.4513  -24.2881   19.5329 H   0  0  0  0  0  0
  -27.7243  -24.3333   19.2468 H   0  0  0  0  0  0
  -27.6810  -21.9684   19.0994 H   0  0  0  0  0  0
  -29.3606  -21.7357   19.4773 H   0  0  0  0  0  0
  -29.1959  -25.5941   21.6137 H   0  0  0  0  0  0
  -27.4561  -25.5122   21.5178 H   0  0  0  0  0  0
  -27.7090  -19.8319   19.8032 H   0  0  0  0  0  0
  -28.1672  -18.0571   21.0167 H   0  0  0  0  0  0
  -27.3940  -23.0461   21.2281 H   0  0  0  0  0  0
  -28.9950  -22.9748   21.5227 H   0  0  0  0  0  0
  1 25  1  0  0  0
  1 30  2  0  0  0
  1 81  1  0  0  0
  2  3  1  0  0  0
  2 25  1  0  0  0
  2 84  1  0  0  0
  2 85  1  0  0  0
  3  4  1  0  0  0
  3 86  1  0  0  0
  3 87  1  0  0  0
  4  5  1  0  0  0
  4 88  1  0  0  0
  4 89  1  0  0  0
  5  6  1  0  0  0
  5 26  1  0  0  0
  5 90  1  0  0  0
  6 25  1  0  0  0
  6 91  1  0  0  0
  6 92  1  0  0  0
  7  8  2  0  0  0
  7 26  1  0  0  0
  7 29  1  0  0  0
  8  9  1  0  0  0
  8 22  1  0  0  0
  9 10  1  0  0  0
  9 27  2  0  0  0
 10 11  2  0  0  0
 10 15  1  0  0  0
 11 12  1  0  0  0
 11 93  1  0  0  0
 12 13  2  0  0  0
 12 94  1  0  0  0
 13 14  1  0  0  0
 13 31  1  0  0  0
 14 15  2  0  0  0
 14 95  1  0  0  0
 15 96  1  0  0  0
 16 17  2  0  0  0
 16 21  1  0  0  0
 16 31  1  0  0  0
 17 18  1  0  0  0
 17 97  1  0  0  0
 18 19  2  0  0  0
 18 98  1  0  0  0
 19 20  1  0  0  0
 19 24  1  0  0  0
 20 21  2  0  0  0
 20 99  1  0  0  0
 21 23  1  0  0  0
 22 28  1  0  0  0
 22 32  2  0  0  0
 26 27  1  0  0  0
 28100  1  0  0  0
 28101  1  0  0  0
 29102  1  0  0  0
 29103  1  0  0  0
 33 34  1  0  0  0
 33 66  1  0  0  0
 33 70  2  0  0  0
 34 36  1  0  0  0
 34 59  1  0  0  0
 34104  1  0  0  0
 35 44  2  0  0  0
 35 45  1  0  0  0
 35 68  1  0  0  0
 36 56  1  0  0  0
 36105  1  0  0  0
 37 39  1  0  0  0
 37 47  1  0  0  0
 37 66  1  0  0  0
 37106  1  0  0  0
 38 43  2  0  0  0
 38 46  1  0  0  0
 38 47  1  0  0  0
 39 64  1  0  0  0
 39 67  2  0  0  0
 40 52  1  0  0  0
 40 53  2  0  0  0
 40 58  1  0  0  0
 41107  1  0  0  0
 41108  1  0  0  0
 41109  1  0  0  0
 41 48  1  0  0  0
 42 43  1  0  0  0
 42 66  1  0  0  0
 42110  1  0  0  0
 42111  1  0  0  0
 43 44  1  0  0  0
 44112  1  0  0  0
 45 46  2  0  0  0
 45113  1  0  0  0
 46114  1  0  0  0
 47115  1  0  0  0
 47116  1  0  0  0
 48 56  1  0  0  0
 48 65  1  0  0  0
 48117  1  0  0  0
 49 50  1  0  0  0
 49 53  1  0  0  0
 49 64  1  0  0  0
 49118  1  0  0  0
 50 51  1  0  0  0
 50119  1  0  0  0
 50120  1  0  0  0
 51 52  1  0  0  0
 51121  1  0  0  0
 51122  1  0  0  0
 52123  1  0  0  0
 52124  1  0  0  0
 53 54  1  0  0  0
 54 55  2  0  0  0
 54125  1  0  0  0
 55 57  1  0  0  0
 55126  1  0  0  0
 56 69  2  0  0  0
 57 58  2  0  0  0
 57127  1  0  0  0
 58128  1  0  0  0
 59 60  1  0  0  0
 59 61  1  0  0  0
 59 62  1  0  0  0
 60129  1  0  0  0
 60130  1  0  0  0
 60131  1  0  0  0
 61132  1  0  0  0
 61133  1  0  0  0
 61134  1  0  0  0
 62135  1  0  0  0
 62136  1  0  0  0
 62137  1  0  0  0
 63 65  1  0  0  0
 63138  1  0  0  0
 63139  1  0  0  0
 63140  1  0  0  0
 64141  1  0  0  0
 65142  1  0  0  0
 68 79  1  0  0  0
 71 73  1  0  0  0
 71 81  1  0  0  0
 71143  1  0  0  0
 71144  1  0  0  0
 72 74  1  0  0  0
 72 81  1  0  0  0
 72145  1  0  0  0
 72146  1  0  0  0
 73 82  1  0  0  0
 73147  1  0  0  0
 73148  1  0  0  0
 74 82  1  0  0  0
 74149  1  0  0  0
 74150  1  0  0  0
 75151  1  0  0  0
 75152  1  0  0  0
 75153  1  0  0  0
 75 80  1  0  0  0
 76 80  1  0  0  0
 76154  1  0  0  0
 76155  1  0  0  0
 76 82  1  0  0  0
 77 79  1  0  0  0
 77 83  1  0  0  0
 77156  1  0  0  0
 77157  1  0  0  0
 78 80  1  0  0  0
 78 83  1  0  0  0
 78158  1  0  0  0
 78159  1  0  0  0
 79160  1  0  0  0
 79161  1  0  0  0
 80162  1  0  0  0
 82163  1  0  0  0
 83164  1  0  0  0
 83165  1  0  0  0
M  CHG  2  82   1  83   1
M  ISO  4   1 100  68 101  79 101  81 100
M  END
> <chiral flag>
0

> <version>
0

> <s_m_source_file>
/data/baiqing/PycharmProjects/Reinvent-master-3.2/result/LINK_invent/BTK/process_docking_weight1_custom_sum_contain_oxygen_bond_distance_aromatic_linkinvent_7_9_3/rearranged_h_0191.sdf

> <i_m_source_file_index>
79

> <r_mmod_Potential_Energy-OPLS-2005>
-34.3289604187012

> <r_mmod_Stretch_Energy-OPLS-2005>
36.1430969238281

> <r_mmod_Bend_Energy-OPLS-2005>
93.4739532470703

> <r_mmod_Torsional_Energy-OPLS-2005>
443.067138671875

> <r_mmod_Improper_Torsional_Energy-OPLS-2005>
15.4154624938965

> <r_mmod_Van_der_Waal_Energy-OPLS-2005>
133.823394775391

> <r_mmod_Electrostatic_Energy-OPLS-2005>
171.723052978516

> <r_mmod_Solvation_Energy-OPLS-2005>
-939.520141601562

> <b_mmod_Minimization_Converged-OPLS-2005>
0

> <r_mmod_RMS_Derivative-OPLS-2005>
2.63631367683411

$$$$
79
                    3D
 Structure written by MMmdl.
154163  0  0  1  0            999 V2000
  -30.5661  -14.8677   20.4320 C   0  0  0  0  0  0
  -30.4389  -12.5286   19.5035 C   0  0  0  0  0  0
  -29.5222  -12.5233   18.2579 C   0  0  0  0  0  0
  -28.0507  -12.3265   18.6682 C   0  0  0  0  0  0
  -27.6384  -13.2427   19.8505 C   0  0  2  0  0  0
  -28.6795  -13.2273   20.9923 C   0  0  0  0  0  0
  -25.2490  -13.8213   20.5707 C   0  0  0  0  0  0
  -24.1793  -13.0444   20.9216 C   0  0  0  0  0  0
  -24.6400  -11.6925   20.8749 C   0  0  0  0  0  0
  -23.9079  -10.4296   21.0405 C   0  0  0  0  0  0
  -24.3626   -9.4209   21.9183 C   0  0  0  0  0  0
  -23.6298   -8.2246   22.0753 C   0  0  0  0  0  0
  -22.4280   -8.0284   21.3544 C   0  0  0  0  0  0
  -21.9917   -9.0259   20.4647 C   0  0  0  0  0  0
  -22.7250  -10.2137   20.3056 C   0  0  0  0  0  0
  -21.6855   -6.0737   22.5278 C   0  0  0  0  0  0
  -21.4016   -6.5640   23.8212 C   0  0  0  0  0  0
  -21.3660   -5.6792   24.9174 C   0  0  0  0  0  0
  -21.6044   -4.3055   24.7224 C   0  0  0  0  0  0
  -21.8819   -3.8147   23.4345 C   0  0  0  0  0  0
  -21.9194   -4.6964   22.3401 C   0  0  0  0  0  0
  -22.7813  -13.5217   21.1872 C   0  0  0  0  0  0
  -22.1662   -4.2150   21.0979 F   0  0  0  0  0  0
  -21.5628   -3.4538   25.7737 F   0  0  0  0  0  0
  -29.9719  -13.6126   20.4112 N   0  0  0  0  0  0
  -26.2923  -12.9438   20.3282 N   0  0  0  0  0  0
  -25.9335  -11.6570   20.5753 N   0  0  0  0  0  0
  -22.0461  -12.8206   22.0428 N   0  0  0  0  0  0
  -25.4166  -15.1940   20.4121 N   0  0  0  0  0  0
  -31.7450  -14.9598   20.0756 O   0  0  0  0  0  0
  -21.6642   -6.8881   21.4241 O   0  0  0  0  0  0
  -22.3495  -14.5522   20.6717 O   0  0  0  0  0  0
  -24.6399  -31.8476   23.1932 C   0  0  0  0  0  0
  -25.9189  -32.4712   23.8301 C   0  0  1  0  0  0
  -27.2124  -27.1655   20.1409 C   0  0  0  0  0  0
  -25.5951  -33.8519   24.2214 N   0  0  0  0  0  0
  -23.4416  -30.4699   21.5376 C   0  0  2  0  0  0
  -24.8907  -28.9084   20.1058 C   0  0  0  0  0  0
  -22.7550  -29.4563   22.4868 C   0  0  0  0  0  0
  -18.0301  -28.1393   22.8478 C   0  0  0  0  0  0
  -24.1491  -36.7264   23.2640 C   0  0  0  0  0  0
  -25.9963  -30.7278   21.3924 C   0  0  0  0  0  0
  -26.0649  -29.3432   20.7325 C   0  0  0  0  0  0
  -27.2235  -28.4839   20.7431 C   0  0  0  0  0  0
  -26.0228  -26.8464   19.4443 C   0  0  0  0  0  0
  -24.8814  -27.6722   19.4473 C   0  0  0  0  0  0
  -23.6660  -29.8058   20.1539 C   0  0  0  0  0  0
  -25.4121  -36.3044   24.0318 C   0  0  1  0  0  0
  -20.5912  -28.3716   23.1241 C   0  0  2  0  0  0
  -20.6786  -26.9422   22.5404 C   0  0  0  0  0  0
  -19.5759  -26.6382   21.5211 C   0  0  0  0  0  0
  -18.1941  -26.7932   22.1624 C   0  0  0  0  0  0
  -19.1557  -28.8872   23.2853 C   0  0  0  0  0  0
  -18.9475  -30.1470   23.8877 C   0  0  0  0  0  0
  -17.6472  -30.6590   24.0559 C   0  0  0  0  0  0
  -25.9069  -34.9417   23.5072 C   0  0  0  0  0  0
  -16.5363  -29.9084   23.6335 C   0  0  0  0  0  0
  -16.7287  -28.6503   23.0354 C   0  0  0  0  0  0
  -26.4521  -31.6571   25.0731 C   0  0  0  0  0  0
  -25.3712  -31.3755   26.1430 C   0  0  0  0  0  0
  -27.0386  -30.2969   24.6305 C   0  0  0  0  0  0
  -27.6052  -32.4337   25.7514 C   0  0  0  0  0  0
  -27.5577  -37.1788   24.8463 C   0  0  0  0  0  0
  -21.4246  -29.3047   22.3617 N   0  0  0  0  0  0
  -26.4287  -37.3754   23.9408 N   0  0  0  0  0  0
  -24.7119  -31.0357   22.0958 N   0  0  0  0  0  0
  -23.4210  -28.8101   23.2999 O   0  0  0  0  0  0
  -28.2624  -26.1864   20.2484 O   0  0  0  0  0  0
  -26.5652  -34.8906   22.4648 O   0  0  0  0  0  0
  -23.5526  -32.1343   23.7167 O   0  0  0  0  0  0
  -30.5218  -18.6955   20.8949 C   0  0  0  0  0  0
  -28.6504  -18.4607   20.1180 C   0  0  0  0  0  0
  -27.9655  -21.8765   20.3365 C   0  0  0  0  0  0
  -29.8727  -22.4053   20.2126 C   0  0  0  0  0  0
  -28.6250  -23.3036   20.5977 C   0  0  1  0  0  0
  -29.9099  -17.4817   20.0753 C   0  0  2  0  0  0
  -29.6027  -19.7341   20.0925 C   0  0  1  0  0  0
  -28.0482  -24.6966   19.8859 C   0  0  0  0  0  0
  -29.7818  -16.0230   20.6327 N   0  0  0  0  0  0
  -29.2136  -21.1367   20.7109 N   0  3  2  0  0  0
  -31.4782  -12.6647   19.2004 H   0  0  0  0  0  0
  -30.4041  -11.5640   20.0125 H   0  0  0  0  0  0
  -29.8266  -11.7367   17.5662 H   0  0  0  0  0  0
  -29.6302  -13.4654   17.7180 H   0  0  0  0  0  0
  -27.9275  -11.2810   18.9531 H   0  0  0  0  0  0
  -27.3926  -12.4887   17.8138 H   0  0  0  0  0  0
  -27.6174  -14.2547   19.4454 H   0  0  0  0  0  0
  -28.7401  -12.2406   21.4539 H   0  0  0  0  0  0
  -28.3918  -13.9196   21.7850 H   0  0  0  0  0  0
  -25.2770   -9.5685   22.4759 H   0  0  0  0  0  0
  -24.0006   -7.4637   22.7473 H   0  0  0  0  0  0
  -21.0848   -8.8781   19.8953 H   0  0  0  0  0  0
  -22.3707  -10.9677   19.6166 H   0  0  0  0  0  0
  -21.2010   -7.6148   23.9716 H   0  0  0  0  0  0
  -21.1481   -6.0522   25.9077 H   0  0  0  0  0  0
  -22.0598   -2.7609   23.2845 H   0  0  0  0  0  0
  -22.4081  -11.9871   22.4819 H   0  0  0  0  0  0
  -21.1076  -13.1223   22.2630 H   0  0  0  0  0  0
  -24.6450  -15.8440   20.5168 H   0  0  0  0  0  0
  -26.2571  -15.6328   20.0593 H   0  0  0  0  0  0
  -26.7252  -32.5327   23.1029 H   0  0  0  0  0  0
  -25.0079  -33.9642   25.0347 H   0  0  0  0  0  0
  -22.7426  -31.2954   21.3882 H   0  0  0  0  0  0
  -23.3756  -35.9593   23.3294 H   0  0  0  0  0  0
  -24.3578  -36.8901   22.2056 H   0  0  0  0  0  0
  -23.7244  -37.6459   23.6678 H   0  0  0  0  0  0
  -26.1525  -31.4843   20.6221 H   0  0  0  0  0  0
  -26.8670  -30.7742   22.0346 H   0  0  0  0  0  0
  -28.1118  -28.8055   21.2683 H   0  0  0  0  0  0
  -25.9273  -25.9251   18.8920 H   0  0  0  0  0  0
  -23.9911  -27.3428   18.9292 H   0  0  0  0  0  0
  -23.7991  -30.5836   19.4011 H   0  0  0  0  0  0
  -22.7817  -29.2466   19.8432 H   0  0  0  0  0  0
  -25.1308  -36.1877   25.0810 H   0  0  0  0  0  0
  -21.0006  -28.3304   24.1361 H   0  0  0  0  0  0
  -20.5680  -26.2329   23.3620 H   0  0  0  0  0  0
  -21.6652  -26.7430   22.1202 H   0  0  0  0  0  0
  -19.6919  -25.6287   21.1253 H   0  0  0  0  0  0
  -19.6695  -27.3181   20.6732 H   0  0  0  0  0  0
  -17.4209  -26.6675   21.4029 H   0  0  0  0  0  0
  -18.0342  -26.0079   22.9027 H   0  0  0  0  0  0
  -19.7951  -30.7291   24.2237 H   0  0  0  0  0  0
  -17.5025  -31.6268   24.5165 H   0  0  0  0  0  0
  -15.5362  -30.2979   23.7671 H   0  0  0  0  0  0
  -15.8687  -28.0815   22.7079 H   0  0  0  0  0  0
  -24.5900  -30.7090   25.7756 H   0  0  0  0  0  0
  -24.8888  -32.2933   26.4799 H   0  0  0  0  0  0
  -25.8001  -30.8971   27.0243 H   0  0  0  0  0  0
  -26.3003  -29.6694   24.1299 H   0  0  0  0  0  0
  -27.3987  -29.7266   25.4878 H   0  0  0  0  0  0
  -27.8918  -30.4208   23.9632 H   0  0  0  0  0  0
  -27.2641  -33.3649   26.2050 H   0  0  0  0  0  0
  -28.3884  -32.6880   25.0360 H   0  0  0  0  0  0
  -28.0697  -31.8493   26.5467 H   0  0  0  0  0  0
  -28.2584  -38.0095   24.7518 H   0  0  0  0  0  0
  -28.1085  -36.2625   24.6280 H   0  0  0  0  0  0
  -27.2296  -37.1423   25.8866 H   0  0  0  0  0  0
  -20.9447  -29.8772   21.6811 H   0  0  0  0  0  0
  -26.0156  -38.2823   24.1414 H   0  0  0  0  0  0
  -31.5914  -18.8413   20.7391 H   0  0  0  0  0  0
  -30.2988  -18.6493   21.9638 H   0  0  0  0  0  0
  -28.0653  -18.3765   21.0373 H   0  0  0  0  0  0
  -27.9970  -18.3840   19.2482 H   0  0  0  0  0  0
  -27.6878  -21.7140   19.2924 H   0  0  0  0  0  0
  -27.1232  -21.6470   20.9893 H   0  0  0  0  0  0
  -30.7853  -22.6523   20.7551 H   0  0  0  0  0  0
  -30.0669  -22.3807   19.1378 H   0  0  0  0  0  0
  -28.6414  -23.4576   21.6782 H   0  0  0  0  0  0
  -30.3342  -17.4697   19.0686 H   0  0  0  0  0  0
  -29.9792  -19.8884   19.0801 H   0  0  0  0  0  0
  -26.9765  -24.5364   19.9630 H   0  0  0  0  0  0
  -28.2535  -24.6330   18.8169 H   0  0  0  0  0  0
  -28.8624  -15.8015   20.9856 H   0  0  0  0  0  0
  -29.2702  -21.1008   21.7173 H   0  0  0  0  0  0
  1 25  1  0  0  0
  1 30  2  0  0  0
  1 79  1  0  0  0
  2  3  1  0  0  0
  2 25  1  0  0  0
  2 81  1  0  0  0
  2 82  1  0  0  0
  3  4  1  0  0  0
  3 83  1  0  0  0
  3 84  1  0  0  0
  4  5  1  0  0  0
  4 85  1  0  0  0
  4 86  1  0  0  0
  5  6  1  0  0  0
  5 26  1  0  0  0
  5 87  1  0  0  0
  6 25  1  0  0  0
  6 88  1  0  0  0
  6 89  1  0  0  0
  7  8  2  0  0  0
  7 26  1  0  0  0
  7 29  1  0  0  0
  8  9  1  0  0  0
  8 22  1  0  0  0
  9 10  1  0  0  0
  9 27  2  0  0  0
 10 11  2  0  0  0
 10 15  1  0  0  0
 11 12  1  0  0  0
 11 90  1  0  0  0
 12 13  2  0  0  0
 12 91  1  0  0  0
 13 14  1  0  0  0
 13 31  1  0  0  0
 14 15  2  0  0  0
 14 92  1  0  0  0
 15 93  1  0  0  0
 16 17  2  0  0  0
 16 21  1  0  0  0
 16 31  1  0  0  0
 17 18  1  0  0  0
 17 94  1  0  0  0
 18 19  2  0  0  0
 18 95  1  0  0  0
 19 20  1  0  0  0
 19 24  1  0  0  0
 20 21  2  0  0  0
 20 96  1  0  0  0
 21 23  1  0  0  0
 22 28  1  0  0  0
 22 32  2  0  0  0
 26 27  1  0  0  0
 28 97  1  0  0  0
 28 98  1  0  0  0
 29 99  1  0  0  0
 29100  1  0  0  0
 33 34  1  0  0  0
 33 66  1  0  0  0
 33 70  2  0  0  0
 34 36  1  0  0  0
 34 59  1  0  0  0
 34101  1  0  0  0
 35 44  2  0  0  0
 35 45  1  0  0  0
 35 68  1  0  0  0
 36 56  1  0  0  0
 36102  1  0  0  0
 37 39  1  0  0  0
 37 47  1  0  0  0
 37 66  1  0  0  0
 37103  1  0  0  0
 38 43  2  0  0  0
 38 46  1  0  0  0
 38 47  1  0  0  0
 39 64  1  0  0  0
 39 67  2  0  0  0
 40 52  1  0  0  0
 40 53  2  0  0  0
 40 58  1  0  0  0
 41104  1  0  0  0
 41105  1  0  0  0
 41106  1  0  0  0
 41 48  1  0  0  0
 42 43  1  0  0  0
 42 66  1  0  0  0
 42107  1  0  0  0
 42108  1  0  0  0
 43 44  1  0  0  0
 44109  1  0  0  0
 45 46  2  0  0  0
 45110  1  0  0  0
 46111  1  0  0  0
 47112  1  0  0  0
 47113  1  0  0  0
 48 56  1  0  0  0
 48 65  1  0  0  0
 48114  1  0  0  0
 49 50  1  0  0  0
 49 53  1  0  0  0
 49 64  1  0  0  0
 49115  1  0  0  0
 50 51  1  0  0  0
 50116  1  0  0  0
 50117  1  0  0  0
 51 52  1  0  0  0
 51118  1  0  0  0
 51119  1  0  0  0
 52120  1  0  0  0
 52121  1  0  0  0
 53 54  1  0  0  0
 54 55  2  0  0  0
 54122  1  0  0  0
 55 57  1  0  0  0
 55123  1  0  0  0
 56 69  2  0  0  0
 57 58  2  0  0  0
 57124  1  0  0  0
 58125  1  0  0  0
 59 60  1  0  0  0
 59 61  1  0  0  0
 59 62  1  0  0  0
 60126  1  0  0  0
 60127  1  0  0  0
 60128  1  0  0  0
 61129  1  0  0  0
 61130  1  0  0  0
 61131  1  0  0  0
 62132  1  0  0  0
 62133  1  0  0  0
 62134  1  0  0  0
 63 65  1  0  0  0
 63135  1  0  0  0
 63136  1  0  0  0
 63137  1  0  0  0
 64138  1  0  0  0
 65139  1  0  0  0
 68 78  1  0  0  0
 71 76  1  0  0  0
 71140  1  0  0  0
 71141  1  0  0  0
 71 77  1  0  0  0
 72 76  1  0  0  0
 72 77  1  0  0  0
 72142  1  0  0  0
 72143  1  0  0  0
 73 75  1  0  0  0
 73144  1  0  0  0
 73145  1  0  0  0
 73 80  1  0  0  0
 74 75  1  0  0  0
 74 80  1  0  0  0
 74146  1  0  0  0
 74147  1  0  0  0
 75 78  1  0  0  0
 75148  1  0  0  0
 76 79  1  0  0  0
 76149  1  0  0  0
 77 80  1  0  0  0
 77150  1  0  0  0
 78151  1  0  0  0
 78152  1  0  0  0
 79153  1  0  0  0
 80154  1  0  0  0
M  CHG  1  80   1
M  ISO  4   1 100  68 101  78 101  79 100
M  END
> <chiral flag>
0

> <version>
0

> <s_m_source_file>
/data/baiqing/PycharmProjects/Reinvent-master-3.2/result/LINK_invent/BTK/process_docking_weight1_custom_sum_contain_oxygen_bond_distance_aromatic_linkinvent_7_9_3/rearranged_h_0191.sdf

> <i_m_source_file_index>
80

> <r_mmod_Potential_Energy-OPLS-2005>
283.253295898438

> <r_mmod_Stretch_Energy-OPLS-2005>
192.938522338867

> <r_mmod_Bend_Energy-OPLS-2005>
298.785552978516

> <r_mmod_Torsional_Energy-OPLS-2005>
247.050811767578

> <r_mmod_Improper_Torsional_Energy-OPLS-2005>
5.94918489456177

> <r_mmod_Van_der_Waal_Energy-OPLS-2005>
124.823104858398

> <r_mmod_Electrostatic_Energy-OPLS-2005>
-255.36669921875

> <r_mmod_Solvation_Energy-OPLS-2005>
-485.802398681641

> <b_mmod_Minimization_Converged-OPLS-2005>
0

> <r_mmod_RMS_Derivative-OPLS-2005>
0.172355979681015

$$$$
80
                    3D
 Structure written by MMmdl.
166175  0  0  1  0            999 V2000
  -30.7109  -14.4855   20.5258 C   0  0  0  0  0  0
  -30.4125  -12.3003   19.4357 C   0  0  0  0  0  0
  -29.4944  -12.4832   18.2100 C   0  0  0  0  0  0
  -28.0189  -12.3389   18.6285 C   0  0  0  0  0  0
  -27.6526  -13.2070   19.8625 C   0  0  2  0  0  0
  -28.6974  -13.0447   20.9922 C   0  0  0  0  0  0
  -25.2571  -13.8165   20.5686 C   0  0  0  0  0  0
  -24.1828  -13.0440   20.9184 C   0  0  0  0  0  0
  -24.6396  -11.6905   20.8754 C   0  0  0  0  0  0
  -23.9068  -10.4291   21.0412 C   0  0  0  0  0  0
  -24.3629   -9.4196   21.9171 C   0  0  0  0  0  0
  -23.6288   -8.2242   22.0738 C   0  0  0  0  0  0
  -22.4261   -8.0298   21.3536 C   0  0  0  0  0  0
  -21.9901   -9.0287   20.4648 C   0  0  0  0  0  0
  -22.7250  -10.2145   20.3058 C   0  0  0  0  0  0
  -21.6857   -6.0742   22.5293 C   0  0  0  0  0  0
  -21.4024   -6.5644   23.8228 C   0  0  0  0  0  0
  -21.3642   -5.6787   24.9180 C   0  0  0  0  0  0
  -21.6040   -4.3052   24.7227 C   0  0  0  0  0  0
  -21.8818   -3.8141   23.4350 C   0  0  0  0  0  0
  -21.9190   -4.6967   22.3409 C   0  0  0  0  0  0
  -22.7855  -13.5255   21.1845 C   0  0  0  0  0  0
  -22.1656   -4.2158   21.0982 F   0  0  0  0  0  0
  -21.5605   -3.4536   25.7731 F   0  0  0  0  0  0
  -30.0223  -13.3172   20.4222 N   0  0  0  0  0  0
  -26.2983  -12.9326   20.3335 N   0  0  0  0  0  0
  -25.9313  -11.6499   20.5792 N   0  0  0  0  0  0
  -22.0488  -12.8264   22.0415 N   0  0  0  0  0  0
  -25.4313  -15.1881   20.4087 N   0  0  0  0  0  0
  -31.8817  -14.6064   20.1540 O   0  0  0  0  0  0
  -21.6629   -6.8889   21.4255 O   0  0  0  0  0  0
  -22.3555  -14.5568   20.6689 O   0  0  0  0  0  0
  -24.6158  -31.8693   23.2144 C   0  0  0  0  0  0
  -25.9055  -32.4826   23.8434 C   0  0  1  0  0  0
  -27.2209  -27.4346   20.0705 C   0  0  0  0  0  0
  -25.5916  -33.8623   24.2381 N   0  0  0  0  0  0
  -23.4027  -30.4997   21.5529 C   0  0  2  0  0  0
  -24.8410  -28.9704   20.1154 C   0  0  0  0  0  0
  -22.7423  -29.4673   22.4952 C   0  0  0  0  0  0
  -18.0287  -28.1376   22.8478 C   0  0  0  0  0  0
  -24.1489  -36.7315   23.2636 C   0  0  0  0  0  0
  -25.9349  -30.8364   21.3663 C   0  0  0  0  0  0
  -26.0069  -29.4739   20.7041 C   0  0  0  0  0  0
  -27.1986  -28.7132   20.6796 C   0  0  0  0  0  0
  -26.0159  -26.9313   19.5225 C   0  0  0  0  0  0
  -24.8393  -27.6968   19.5269 C   0  0  0  0  0  0
  -23.6103  -29.8442   20.1637 C   0  0  0  0  0  0
  -25.4099  -36.3113   24.0354 C   0  0  1  0  0  0
  -20.5878  -28.3681   23.1285 C   0  0  2  0  0  0
  -20.6768  -26.9411   22.5407 C   0  0  0  0  0  0
  -19.5754  -26.6377   21.5200 C   0  0  0  0  0  0
  -18.1933  -26.7929   22.1597 C   0  0  0  0  0  0
  -19.1539  -28.8844   23.2887 C   0  0  0  0  0  0
  -18.9461  -30.1431   23.8928 C   0  0  0  0  0  0
  -17.6466  -30.6565   24.0577 C   0  0  0  0  0  0
  -25.9028  -34.9475   23.5156 C   0  0  0  0  0  0
  -16.5359  -29.9080   23.6307 C   0  0  0  0  0  0
  -16.7277  -28.6490   23.0344 C   0  0  0  0  0  0
  -26.4475  -31.6604   25.0756 C   0  0  0  0  0  0
  -25.3765  -31.3809   26.1556 C   0  0  0  0  0  0
  -27.0239  -30.3019   24.6156 C   0  0  0  0  0  0
  -27.6121  -32.4286   25.7433 C   0  0  0  0  0  0
  -27.5596  -37.1788   24.8449 C   0  0  0  0  0  0
  -21.4158  -29.3045   22.3689 N   0  0  0  0  0  0
  -26.4281  -37.3797   23.9431 N   0  0  0  0  0  0
  -24.6703  -31.0817   22.1026 N   0  0  0  0  0  0
  -23.4203  -28.8191   23.2980 O   0  0  0  0  0  0
  -28.4006  -26.7163   20.0709 O   0  0  0  0  0  0
  -26.5571  -34.8910   22.4710 O   0  0  0  0  0  0
  -23.5360  -32.1432   23.7550 O   0  0  0  0  0  0
  -29.1522  -24.4086   19.6397 C   0  0  0  0  0  0
  -28.7053  -23.1110   19.4785 C   0  0  0  0  0  0
  -30.6371  -23.0965   20.5112 C   0  0  0  0  0  0
  -29.7054  -16.4284   19.5695 C   0  0  0  0  0  0
  -30.3212  -16.3598   21.9933 C   0  0  0  0  0  0
  -28.9942  -17.7709   19.8313 C   0  0  0  0  0  0
  -29.6170  -17.7333   22.1537 C   0  0  0  0  0  0
  -27.4619  -22.5973   18.8138 C   0  0  0  0  0  0
  -31.8996  -22.6186   21.1523 C   0  0  0  0  0  0
  -28.6114  -25.7029   19.0734 C   0  0  0  0  0  0
  -29.7958  -20.8116   19.8369 C   0  0  0  0  0  0
  -29.2857  -19.9608   21.0330 C   0  0  0  0  0  0
  -30.3539  -24.3836   20.3413 N   0  0  0  0  0  0
  -29.7087  -22.2703   19.9801 N   0  0  0  0  0  0
  -29.9753  -15.6008   20.7706 N   0  0  0  0  0  0
  -29.6842  -18.5230   20.9021 N   0  3  0  0  0  0
  -31.4594  -12.3756   19.1405 H   0  0  0  0  0  0
  -30.2917  -11.3010   19.8584 H   0  0  0  0  0  0
  -29.7401  -11.7461   17.4436 H   0  0  0  0  0  0
  -29.6641  -13.4627   17.7595 H   0  0  0  0  0  0
  -27.8519  -11.2872   18.8598 H   0  0  0  0  0  0
  -27.3629  -12.5696   17.7885 H   0  0  0  0  0  0
  -27.6712  -14.2442   19.5326 H   0  0  0  0  0  0
  -28.6718  -12.0325   21.3986 H   0  0  0  0  0  0
  -28.4731  -13.7131   21.8244 H   0  0  0  0  0  0
  -25.2785   -9.5651   22.4740 H   0  0  0  0  0  0
  -23.9994   -7.4629   22.7460 H   0  0  0  0  0  0
  -21.0810   -8.8840   19.8971 H   0  0  0  0  0  0
  -22.3736  -10.9694   19.6172 H   0  0  0  0  0  0
  -21.2040   -7.6161   23.9743 H   0  0  0  0  0  0
  -21.1441   -6.0507   25.9082 H   0  0  0  0  0  0
  -22.0602   -2.7604   23.2860 H   0  0  0  0  0  0
  -22.4079  -11.9942   22.4848 H   0  0  0  0  0  0
  -21.1118  -13.1341   22.2613 H   0  0  0  0  0  0
  -24.6698  -15.8477   20.5180 H   0  0  0  0  0  0
  -26.2863  -15.6177   20.0832 H   0  0  0  0  0  0
  -26.7132  -32.5540   23.1207 H   0  0  0  0  0  0
  -25.0123  -33.9784   25.0558 H   0  0  0  0  0  0
  -22.6913  -31.3178   21.4202 H   0  0  0  0  0  0
  -23.3754  -35.9636   23.3250 H   0  0  0  0  0  0
  -24.3628  -36.8971   22.2065 H   0  0  0  0  0  0
  -23.7207  -37.6495   23.6670 H   0  0  0  0  0  0
  -26.0555  -31.6091   20.6054 H   0  0  0  0  0  0
  -26.8208  -30.8804   21.9888 H   0  0  0  0  0  0
  -28.1037  -29.1049   21.1231 H   0  0  0  0  0  0
  -25.9335  -25.9381   19.1090 H   0  0  0  0  0  0
  -23.9327  -27.2950   19.0948 H   0  0  0  0  0  0
  -23.7341  -30.6281   19.4151 H   0  0  0  0  0  0
  -22.7303  -29.2787   19.8528 H   0  0  0  0  0  0
  -25.1255  -36.1990   25.0841 H   0  0  0  0  0  0
  -20.9978  -28.3266   24.1400 H   0  0  0  0  0  0
  -20.5626  -26.2314   23.3607 H   0  0  0  0  0  0
  -21.6643  -26.7409   22.1243 H   0  0  0  0  0  0
  -19.6917  -25.6296   21.1211 H   0  0  0  0  0  0
  -19.6684  -27.3193   20.6743 H   0  0  0  0  0  0
  -17.4206  -26.6698   21.3995 H   0  0  0  0  0  0
  -18.0314  -26.0052   22.8962 H   0  0  0  0  0  0
  -19.7939  -30.7235   24.2323 H   0  0  0  0  0  0
  -17.5017  -31.6240   24.5192 H   0  0  0  0  0  0
  -15.5363  -30.3005   23.7583 H   0  0  0  0  0  0
  -15.8678  -28.0802   22.7064 H   0  0  0  0  0  0
  -24.5911  -30.7140   25.7979 H   0  0  0  0  0  0
  -24.8991  -32.3006   26.4955 H   0  0  0  0  0  0
  -25.8138  -30.9048   27.0341 H   0  0  0  0  0  0
  -26.2748  -29.6793   24.1246 H   0  0  0  0  0  0
  -27.4004  -29.7265   25.4626 H   0  0  0  0  0  0
  -27.8616  -30.4292   23.9291 H   0  0  0  0  0  0
  -27.2837  -33.3599   26.2051 H   0  0  0  0  0  0
  -28.3870  -32.6807   25.0177 H   0  0  0  0  0  0
  -28.0850  -31.8377   26.5284 H   0  0  0  0  0  0
  -28.2613  -38.0091   24.7508 H   0  0  0  0  0  0
  -28.1091  -36.2634   24.6206 H   0  0  0  0  0  0
  -27.2353  -37.1367   25.8862 H   0  0  0  0  0  0
  -20.9319  -29.8825   21.6956 H   0  0  0  0  0  0
  -26.0179  -38.2865   24.1477 H   0  0  0  0  0  0
  -30.6471  -16.6446   19.0590 H   0  0  0  0  0  0
  -29.1170  -15.8564   18.8506 H   0  0  0  0  0  0
  -30.1047  -15.7441   22.8680 H   0  0  0  0  0  0
  -31.4002  -16.5278   22.0062 H   0  0  0  0  0  0
  -27.9531  -17.6009   20.1139 H   0  0  0  0  0  0
  -28.9656  -18.3385   18.9027 H   0  0  0  0  0  0
  -30.0806  -18.2814   22.9752 H   0  0  0  0  0  0
  -28.5730  -17.5872   22.4353 H   0  0  0  0  0  0
  -26.6756  -23.3535   18.8017 H   0  0  0  0  0  0
  -27.0602  -21.7316   19.3414 H   0  0  0  0  0  0
  -27.6576  -22.3020   17.7824 H   0  0  0  0  0  0
  -32.4811  -23.4625   21.5266 H   0  0  0  0  0  0
  -32.5139  -22.0862   20.4262 H   0  0  0  0  0  0
  -31.6779  -21.9582   21.9902 H   0  0  0  0  0  0
  -27.7756  -25.4968   18.4110 H   0  0  0  0  0  0
  -29.3546  -26.1186   18.3919 H   0  0  0  0  0  0
  -29.2624  -20.5416   18.9269 H   0  0  0  0  0  0
  -30.8389  -20.5670   19.6352 H   0  0  0  0  0  0
  -28.2043  -20.0505   21.1455 H   0  0  0  0  0  0
  -29.7198  -20.3634   21.9485 H   0  0  0  0  0  0
  -30.6607  -18.5443   20.6518 H   0  0  0  0  0  0
  1 25  1  0  0  0
  1 30  2  0  0  0
  1 85  1  0  0  0
  2  3  1  0  0  0
  2 25  1  0  0  0
  2 87  1  0  0  0
  2 88  1  0  0  0
  3  4  1  0  0  0
  3 89  1  0  0  0
  3 90  1  0  0  0
  4  5  1  0  0  0
  4 91  1  0  0  0
  4 92  1  0  0  0
  5  6  1  0  0  0
  5 26  1  0  0  0
  5 93  1  0  0  0
  6 25  1  0  0  0
  6 94  1  0  0  0
  6 95  1  0  0  0
  7  8  2  0  0  0
  7 26  1  0  0  0
  7 29  1  0  0  0
  8  9  1  0  0  0
  8 22  1  0  0  0
  9 10  1  0  0  0
  9 27  2  0  0  0
 10 11  2  0  0  0
 10 15  1  0  0  0
 11 12  1  0  0  0
 11 96  1  0  0  0
 12 13  2  0  0  0
 12 97  1  0  0  0
 13 14  1  0  0  0
 13 31  1  0  0  0
 14 15  2  0  0  0
 14 98  1  0  0  0
 15 99  1  0  0  0
 16 17  2  0  0  0
 16 21  1  0  0  0
 16 31  1  0  0  0
 17 18  1  0  0  0
 17100  1  0  0  0
 18 19  2  0  0  0
 18101  1  0  0  0
 19 20  1  0  0  0
 19 24  1  0  0  0
 20 21  2  0  0  0
 20102  1  0  0  0
 21 23  1  0  0  0
 22 28  1  0  0  0
 22 32  2  0  0  0
 26 27  1  0  0  0
 28103  1  0  0  0
 28104  1  0  0  0
 29105  1  0  0  0
 29106  1  0  0  0
 33 34  1  0  0  0
 33 66  1  0  0  0
 33 70  2  0  0  0
 34 36  1  0  0  0
 34 59  1  0  0  0
 34107  1  0  0  0
 35 44  2  0  0  0
 35 45  1  0  0  0
 35 68  1  0  0  0
 36 56  1  0  0  0
 36108  1  0  0  0
 37 39  1  0  0  0
 37 47  1  0  0  0
 37 66  1  0  0  0
 37109  1  0  0  0
 38 43  2  0  0  0
 38 46  1  0  0  0
 38 47  1  0  0  0
 39 64  1  0  0  0
 39 67  2  0  0  0
 40 52  1  0  0  0
 40 53  2  0  0  0
 40 58  1  0  0  0
 41110  1  0  0  0
 41111  1  0  0  0
 41112  1  0  0  0
 41 48  1  0  0  0
 42 43  1  0  0  0
 42 66  1  0  0  0
 42113  1  0  0  0
 42114  1  0  0  0
 43 44  1  0  0  0
 44115  1  0  0  0
 45 46  2  0  0  0
 45116  1  0  0  0
 46117  1  0  0  0
 47118  1  0  0  0
 47119  1  0  0  0
 48 56  1  0  0  0
 48 65  1  0  0  0
 48120  1  0  0  0
 49 50  1  0  0  0
 49 53  1  0  0  0
 49 64  1  0  0  0
 49121  1  0  0  0
 50 51  1  0  0  0
 50122  1  0  0  0
 50123  1  0  0  0
 51 52  1  0  0  0
 51124  1  0  0  0
 51125  1  0  0  0
 52126  1  0  0  0
 52127  1  0  0  0
 53 54  1  0  0  0
 54 55  2  0  0  0
 54128  1  0  0  0
 55 57  1  0  0  0
 55129  1  0  0  0
 56 69  2  0  0  0
 57 58  2  0  0  0
 57130  1  0  0  0
 58131  1  0  0  0
 59 60  1  0  0  0
 59 61  1  0  0  0
 59 62  1  0  0  0
 60132  1  0  0  0
 60133  1  0  0  0
 60134  1  0  0  0
 61135  1  0  0  0
 61136  1  0  0  0
 61137  1  0  0  0
 62138  1  0  0  0
 62139  1  0  0  0
 62140  1  0  0  0
 63 65  1  0  0  0
 63141  1  0  0  0
 63142  1  0  0  0
 63143  1  0  0  0
 64144  1  0  0  0
 65145  1  0  0  0
 68 80  1  0  0  0
 71 72  2  0  0  0
 71 80  1  0  0  0
 71 83  1  0  0  0
 72 78  1  0  0  0
 72 84  1  0  0  0
 73 79  1  0  0  0
 73 83  2  0  0  0
 73 84  1  0  0  0
 74 76  1  0  0  0
 74 85  1  0  0  0
 74146  1  0  0  0
 74147  1  0  0  0
 75 77  1  0  0  0
 75 85  1  0  0  0
 75148  1  0  0  0
 75149  1  0  0  0
 76 86  1  0  0  0
 76150  1  0  0  0
 76151  1  0  0  0
 77 86  1  0  0  0
 77152  1  0  0  0
 77153  1  0  0  0
 78154  1  0  0  0
 78155  1  0  0  0
 78156  1  0  0  0
 79157  1  0  0  0
 79158  1  0  0  0
 79159  1  0  0  0
 80160  1  0  0  0
 80161  1  0  0  0
 81 82  1  0  0  0
 81 84  1  0  0  0
 81162  1  0  0  0
 81163  1  0  0  0
 82164  1  0  0  0
 82165  1  0  0  0
 82 86  1  0  0  0
 86166  1  0  0  0
M  CHG  1  86   1
M  ISO  4   1 100  68 101  80 101  85 100
M  END
> <chiral flag>
0

> <version>
0

> <s_m_source_file>
/data/baiqing/PycharmProjects/Reinvent-master-3.2/result/LINK_invent/BTK/process_docking_weight1_custom_sum_contain_oxygen_bond_distance_aromatic_linkinvent_7_9_3/rearranged_h_0191.sdf

> <i_m_source_file_index>
81

> <r_mmod_Potential_Energy-OPLS-2005>
60.9416389465332

> <r_mmod_Stretch_Energy-OPLS-2005>
40.0824317932129

> <r_mmod_Bend_Energy-OPLS-2005>
122.912666320801

> <r_mmod_Torsional_Energy-OPLS-2005>
409.647827148438

> <r_mmod_Improper_Torsional_Energy-OPLS-2005>
11.8986949920654

> <r_mmod_Van_der_Waal_Energy-OPLS-2005>
132.350479125977

> <r_mmod_Electrostatic_Energy-OPLS-2005>
-193.060653686523

> <r_mmod_Solvation_Energy-OPLS-2005>
-481.474639892578

> <b_mmod_Minimization_Converged-OPLS-2005>
0

> <r_mmod_RMS_Derivative-OPLS-2005>
3.00732135772705

$$$$
81
                    3D
 Structure written by MMmdl.
156164  0  0  1  0            999 V2000
  -30.5855  -14.9567   20.4985 C   0  0  0  0  0  0
  -30.4520  -12.6038   19.5412 C   0  0  0  0  0  0
  -29.5295  -12.5413   18.3023 C   0  0  0  0  0  0
  -28.0833  -12.2781   18.7430 C   0  0  0  0  0  0
  -27.6458  -13.2437   19.8717 C   0  0  2  0  0  0
  -28.6845  -13.2882   21.0194 C   0  0  0  0  0  0
  -25.2528  -13.8208   20.5765 C   0  0  0  0  0  0
  -24.1827  -13.0439   20.9208 C   0  0  0  0  0  0
  -24.6433  -11.6917   20.8786 C   0  0  0  0  0  0
  -23.9112  -10.4286   21.0434 C   0  0  0  0  0  0
  -24.3653   -9.4200   21.9204 C   0  0  0  0  0  0
  -23.6309   -8.2254   22.0793 C   0  0  0  0  0  0
  -22.4290   -8.0311   21.3571 C   0  0  0  0  0  0
  -21.9935   -9.0291   20.4689 C   0  0  0  0  0  0
  -22.7283  -10.2152   20.3084 C   0  0  0  0  0  0
  -21.6847   -6.0766   22.5274 C   0  0  0  0  0  0
  -21.4007   -6.5662   23.8215 C   0  0  0  0  0  0
  -21.3651   -5.6819   24.9182 C   0  0  0  0  0  0
  -21.6034   -4.3079   24.7228 C   0  0  0  0  0  0
  -21.8831   -3.8178   23.4350 C   0  0  0  0  0  0
  -21.9184   -4.6991   22.3414 C   0  0  0  0  0  0
  -22.7824  -13.5201   21.1848 C   0  0  0  0  0  0
  -22.1661   -4.2176   21.0992 F   0  0  0  0  0  0
  -21.5623   -3.4554   25.7741 F   0  0  0  0  0  0
  -29.9683  -13.7020   20.4385 N   0  0  0  0  0  0
  -26.2985  -12.9440   20.3439 N   0  0  0  0  0  0
  -25.9373  -11.6558   20.5879 N   0  0  0  0  0  0
  -22.0518  -12.8150   22.0423 N   0  0  0  0  0  0
  -25.4259  -15.1932   20.4128 N   0  0  0  0  0  0
  -31.7276  -15.0235   20.0252 O   0  0  0  0  0  0
  -21.6634   -6.8907   21.4256 O   0  0  0  0  0  0
  -22.3495  -14.5505   20.6729 O   0  0  0  0  0  0
  -24.6424  -31.8428   23.1918 C   0  0  0  0  0  0
  -25.9176  -32.4683   23.8323 C   0  0  1  0  0  0
  -27.1878  -27.1064   20.1430 C   0  0  0  0  0  0
  -25.5876  -33.8476   24.2229 N   0  0  0  0  0  0
  -23.4529  -30.4648   21.5365 C   0  0  2  0  0  0
  -24.8972  -28.9027   20.1052 C   0  0  0  0  0  0
  -22.7619  -29.4500   22.4862 C   0  0  0  0  0  0
  -18.0348  -28.1337   22.8467 C   0  0  0  0  0  0
  -24.1524  -36.7287   23.2654 C   0  0  0  0  0  0
  -26.0106  -30.7076   21.4005 C   0  0  0  0  0  0
  -26.0755  -29.3181   20.7370 C   0  0  0  0  0  0
  -27.2185  -28.4325   20.7466 C   0  0  0  0  0  0
  -25.9948  -26.8207   19.4404 C   0  0  0  0  0  0
  -24.8739  -27.6728   19.4388 C   0  0  0  0  0  0
  -23.6809  -29.8072   20.1515 C   0  0  0  0  0  0
  -25.4131  -36.3039   24.0343 C   0  0  1  0  0  0
  -20.5981  -28.3681   23.1258 C   0  0  2  0  0  0
  -20.6868  -26.9390   22.5384 C   0  0  0  0  0  0
  -19.5827  -26.6388   21.5187 C   0  0  0  0  0  0
  -18.1995  -26.7912   22.1551 C   0  0  0  0  0  0
  -19.1593  -28.8819   23.2868 C   0  0  0  0  0  0
  -18.9435  -30.1436   23.8893 C   0  0  0  0  0  0
  -17.6416  -30.6510   24.0558 C   0  0  0  0  0  0
  -25.9083  -34.9392   23.5121 C   0  0  0  0  0  0
  -16.5335  -29.8990   23.6307 C   0  0  0  0  0  0
  -16.7332  -28.6444   23.0274 C   0  0  0  0  0  0
  -26.4509  -31.6504   25.0721 C   0  0  0  0  0  0
  -25.3711  -31.3589   26.1424 C   0  0  0  0  0  0
  -27.0365  -30.2905   24.6234 C   0  0  0  0  0  0
  -27.6120  -32.4233   25.7418 C   0  0  0  0  0  0
  -27.5602  -37.1801   24.8471 C   0  0  0  0  0  0
  -21.4316  -29.2969   22.3584 N   0  0  0  0  0  0
  -26.4315  -37.3741   23.9416 N   0  0  0  0  0  0
  -24.7230  -31.0273   22.0972 N   0  0  0  0  0  0
  -23.4255  -28.8083   23.3029 O   0  0  0  0  0  0
  -28.2073  -26.0878   20.2602 O   0  0  0  0  0  0
  -26.5703  -34.8867   22.4726 O   0  0  0  0  0  0
  -23.5529  -32.1259   23.7147 O   0  0  0  0  0  0
  -29.8359  -17.3671   23.2591 C   0  0  0  0  0  0
  -28.6085  -17.5770   22.3913 C   0  0  0  0  0  0
  -30.5839  -16.2303   22.5591 C   0  0  0  0  0  0
  -29.1411  -17.3877   20.9624 C   0  0  1  0  0  0
  -29.5896  -18.9322   20.3931 C   0  0  0  0  0  0
  -28.5292  -23.1665   20.6703 C   0  0  0  0  0  0
  -28.8272  -21.6493   19.9586 C   0  0  0  0  0  0
  -27.9958  -24.5745   19.8926 C   0  0  0  0  0  0
  -30.0521  -16.0929   21.1871 N   0  0  0  0  0  0
  -28.7568  -20.2557   20.7245 N   0  3  0  0  0  0
  -31.4833  -12.7526   19.2144 H   0  0  0  0  0  0
  -30.4587  -11.6546   20.0803 H   0  0  0  0  0  0
  -29.8674  -11.7680   17.6119 H   0  0  0  0  0  0
  -29.5790  -13.4887   17.7648 H   0  0  0  0  0  0
  -28.0485  -11.2523   19.1155 H   0  0  0  0  0  0
  -27.3962  -12.3138   17.9009 H   0  0  0  0  0  0
  -27.6118  -14.2363   19.4212 H   0  0  0  0  0  0
  -28.7753  -12.3149   21.5069 H   0  0  0  0  0  0
  -28.3766  -13.9958   21.7904 H   0  0  0  0  0  0
  -25.2792   -9.5652   22.4774 H   0  0  0  0  0  0
  -23.9994   -7.4657   22.7532 H   0  0  0  0  0  0
  -21.0851   -8.8833   19.9006 H   0  0  0  0  0  0
  -22.3754  -10.9707   19.6214 H   0  0  0  0  0  0
  -21.2007   -7.6166   23.9722 H   0  0  0  0  0  0
  -21.1450   -6.0547   25.9078 H   0  0  0  0  0  0
  -22.0615   -2.7627   23.2842 H   0  0  0  0  0  0
  -22.4084  -11.9648   22.4521 H   0  0  0  0  0  0
  -21.1263  -13.1294   22.2934 H   0  0  0  0  0  0
  -24.6682  -15.8579   20.5309 H   0  0  0  0  0  0
  -26.2804  -15.6200   20.0804 H   0  0  0  0  0  0
  -26.7254  -32.5286   23.1077 H   0  0  0  0  0  0
  -24.9811  -33.9595   25.0217 H   0  0  0  0  0  0
  -22.7578  -31.2909   21.3876 H   0  0  0  0  0  0
  -23.3770  -35.9645   23.3289 H   0  0  0  0  0  0
  -24.3675  -36.8927   22.2095 H   0  0  0  0  0  0
  -23.7285  -37.6486   23.6685 H   0  0  0  0  0  0
  -26.1634  -31.4706   20.6363 H   0  0  0  0  0  0
  -26.8868  -30.7624   22.0341 H   0  0  0  0  0  0
  -28.1080  -28.7319   21.2820 H   0  0  0  0  0  0
  -25.8717  -25.8999   18.8946 H   0  0  0  0  0  0
  -23.9835  -27.3595   18.9130 H   0  0  0  0  0  0
  -23.8178  -30.5854   19.3984 H   0  0  0  0  0  0
  -22.7958  -29.2505   19.8422 H   0  0  0  0  0  0
  -25.1320  -36.1930   25.0837 H   0  0  0  0  0  0
  -21.0012  -28.3254   24.1402 H   0  0  0  0  0  0
  -20.5798  -26.2247   23.3562 H   0  0  0  0  0  0
  -21.6738  -26.7478   22.1136 H   0  0  0  0  0  0
  -19.7002  -25.6307   21.1142 H   0  0  0  0  0  0
  -19.6751  -27.3249   20.6760 H   0  0  0  0  0  0
  -17.4315  -26.6754   21.3861 H   0  0  0  0  0  0
  -18.0292  -25.9981   22.8839 H   0  0  0  0  0  0
  -19.7871  -30.7323   24.2201 H   0  0  0  0  0  0
  -17.4905  -31.6162   24.5175 H   0  0  0  0  0  0
  -15.5301  -30.2832   23.7590 H   0  0  0  0  0  0
  -15.8797  -28.0793   22.6839 H   0  0  0  0  0  0
  -24.5974  -30.6853   25.7711 H   0  0  0  0  0  0
  -24.8761  -32.2697   26.4815 H   0  0  0  0  0  0
  -25.8026  -30.8774   27.0219 H   0  0  0  0  0  0
  -26.2942  -29.6622   24.1292 H   0  0  0  0  0  0
  -27.4103  -29.7169   25.4732 H   0  0  0  0  0  0
  -27.8824  -30.4189   23.9474 H   0  0  0  0  0  0
  -27.2831  -33.3604   26.1924 H   0  0  0  0  0  0
  -28.3904  -32.6656   25.0162 H   0  0  0  0  0  0
  -28.0821  -31.8347   26.5325 H   0  0  0  0  0  0
  -28.2593  -38.0106   24.7484 H   0  0  0  0  0  0
  -28.1101  -36.2631   24.6332 H   0  0  0  0  0  0
  -27.2319  -37.1515   25.8866 H   0  0  0  0  0  0
  -20.9543  -29.8619   21.6698 H   0  0  0  0  0  0
  -26.0184  -38.2817   24.1389 H   0  0  0  0  0  0
  -29.5930  -17.1269   24.2959 H   0  0  0  0  0  0
  -30.4438  -18.2742   23.2850 H   0  0  0  0  0  0
  -28.1255  -18.5339   22.5815 H   0  0  0  0  0  0
  -27.8743  -16.8003   22.6207 H   0  0  0  0  0  0
  -31.6573  -16.4260   22.5573 H   0  0  0  0  0  0
  -30.4370  -15.3017   23.1143 H   0  0  0  0  0  0
  -28.3144  -17.0537   20.3303 H   0  0  0  0  0  0
  -30.6084  -19.1345   20.7191 H   0  0  0  0  0  0
  -29.6294  -18.8695   19.3059 H   0  0  0  0  0  0
  -29.4438  -23.4390   21.1937 H   0  0  0  0  0  0
  -27.8206  -22.9930   21.4795 H   0  0  0  0  0  0
  -28.1414  -21.5493   19.1151 H   0  0  0  0  0  0
  -29.8123  -21.6918   19.4932 H   0  0  0  0  0  0
  -26.9210  -24.4094   19.8610 H   0  0  0  0  0  0
  -28.3077  -24.4907   18.8529 H   0  0  0  0  0  0
  -28.9647  -20.4563   21.6880 H   0  0  0  0  0  0
  -27.7845  -19.9918   20.6841 H   0  0  0  0  0  0
  1 25  1  0  0  0
  1 30  2  0  0  0
  1 79  1  0  0  0
  2  3  1  0  0  0
  2 25  1  0  0  0
  2 81  1  0  0  0
  2 82  1  0  0  0
  3  4  1  0  0  0
  3 83  1  0  0  0
  3 84  1  0  0  0
  4  5  1  0  0  0
  4 85  1  0  0  0
  4 86  1  0  0  0
  5  6  1  0  0  0
  5 26  1  0  0  0
  5 87  1  0  0  0
  6 25  1  0  0  0
  6 88  1  0  0  0
  6 89  1  0  0  0
  7  8  2  0  0  0
  7 26  1  0  0  0
  7 29  1  0  0  0
  8  9  1  0  0  0
  8 22  1  0  0  0
  9 10  1  0  0  0
  9 27  2  0  0  0
 10 11  2  0  0  0
 10 15  1  0  0  0
 11 12  1  0  0  0
 11 90  1  0  0  0
 12 13  2  0  0  0
 12 91  1  0  0  0
 13 14  1  0  0  0
 13 31  1  0  0  0
 14 15  2  0  0  0
 14 92  1  0  0  0
 15 93  1  0  0  0
 16 17  2  0  0  0
 16 21  1  0  0  0
 16 31  1  0  0  0
 17 18  1  0  0  0
 17 94  1  0  0  0
 18 19  2  0  0  0
 18 95  1  0  0  0
 19 20  1  0  0  0
 19 24  1  0  0  0
 20 21  2  0  0  0
 20 96  1  0  0  0
 21 23  1  0  0  0
 22 28  1  0  0  0
 22 32  2  0  0  0
 26 27  1  0  0  0
 28 97  1  0  0  0
 28 98  1  0  0  0
 29 99  1  0  0  0
 29100  1  0  0  0
 33 34  1  0  0  0
 33 66  1  0  0  0
 33 70  2  0  0  0
 34 36  1  0  0  0
 34 59  1  0  0  0
 34101  1  0  0  0
 35 44  2  0  0  0
 35 45  1  0  0  0
 35 68  1  0  0  0
 36 56  1  0  0  0
 36102  1  0  0  0
 37 39  1  0  0  0
 37 47  1  0  0  0
 37 66  1  0  0  0
 37103  1  0  0  0
 38 43  2  0  0  0
 38 46  1  0  0  0
 38 47  1  0  0  0
 39 64  1  0  0  0
 39 67  2  0  0  0
 40 52  1  0  0  0
 40 53  2  0  0  0
 40 58  1  0  0  0
 41104  1  0  0  0
 41105  1  0  0  0
 41106  1  0  0  0
 41 48  1  0  0  0
 42 43  1  0  0  0
 42 66  1  0  0  0
 42107  1  0  0  0
 42108  1  0  0  0
 43 44  1  0  0  0
 44109  1  0  0  0
 45 46  2  0  0  0
 45110  1  0  0  0
 46111  1  0  0  0
 47112  1  0  0  0
 47113  1  0  0  0
 48 56  1  0  0  0
 48 65  1  0  0  0
 48114  1  0  0  0
 49 50  1  0  0  0
 49 53  1  0  0  0
 49 64  1  0  0  0
 49115  1  0  0  0
 50 51  1  0  0  0
 50116  1  0  0  0
 50117  1  0  0  0
 51 52  1  0  0  0
 51118  1  0  0  0
 51119  1  0  0  0
 52120  1  0  0  0
 52121  1  0  0  0
 53 54  1  0  0  0
 54 55  2  0  0  0
 54122  1  0  0  0
 55 57  1  0  0  0
 55123  1  0  0  0
 56 69  2  0  0  0
 57 58  2  0  0  0
 57124  1  0  0  0
 58125  1  0  0  0
 59 60  1  0  0  0
 59 61  1  0  0  0
 59 62  1  0  0  0
 60126  1  0  0  0
 60127  1  0  0  0
 60128  1  0  0  0
 61129  1  0  0  0
 61130  1  0  0  0
 61131  1  0  0  0
 62132  1  0  0  0
 62133  1  0  0  0
 62134  1  0  0  0
 63 65  1  0  0  0
 63135  1  0  0  0
 63136  1  0  0  0
 63137  1  0  0  0
 64138  1  0  0  0
 65139  1  0  0  0
 68 78  1  0  0  0
 71 72  1  0  0  0
 71 73  1  0  0  0
 71140  1  0  0  0
 71141  1  0  0  0
 72 74  1  0  0  0
 72142  1  0  0  0
 72143  1  0  0  0
 73 79  1  0  0  0
 73144  1  0  0  0
 73145  1  0  0  0
 74 75  1  0  0  0
 74 79  1  0  0  0
 74146  1  0  0  0
 75 80  1  0  0  0
 75147  1  0  0  0
 75148  1  0  0  0
 76 77  1  0  0  0
 76 78  1  0  0  0
 76149  1  0  0  0
 76150  1  0  0  0
 77 80  1  0  0  0
 77151  1  0  0  0
 77152  1  0  0  0
 78153  1  0  0  0
 78154  1  0  0  0
 80155  1  0  0  0
 80156  1  0  0  0
M  CHG  1  80   1
M  ISO  4   1 100  68 101  78 101  79 100
M  END
> <chiral flag>
0

> <version>
0

> <s_m_source_file>
/data/baiqing/PycharmProjects/Reinvent-master-3.2/result/LINK_invent/BTK/process_docking_weight1_custom_sum_contain_oxygen_bond_distance_aromatic_linkinvent_7_9_3/rearranged_h_0191.sdf

> <i_m_source_file_index>
82

> <r_mmod_Potential_Energy-OPLS-2005>
716.52685546875

> <r_mmod_Stretch_Energy-OPLS-2005>
300.230560302734

> <r_mmod_Bend_Energy-OPLS-2005>
351.753692626953

> <r_mmod_Torsional_Energy-OPLS-2005>
390.164276123047

> <r_mmod_Improper_Torsional_Energy-OPLS-2005>
3.23606491088867

> <r_mmod_Van_der_Waal_Energy-OPLS-2005>
113.151794433594

> <r_mmod_Electrostatic_Energy-OPLS-2005>
-184.018478393555

> <r_mmod_Solvation_Energy-OPLS-2005>
-470.888549804688

> <b_mmod_Minimization_Converged-OPLS-2005>
0

> <r_mmod_RMS_Derivative-OPLS-2005>
6.3234806060791

$$$$
82
                    3D
 Structure written by MMmdl.
163172  0  0  1  0            999 V2000
  -30.7545  -14.4213   20.6184 C   0  0  0  0  0  0
  -30.4300  -12.2946   19.4155 C   0  0  0  0  0  0
  -29.5079  -12.5017   18.1981 C   0  0  0  0  0  0
  -28.0233  -12.3756   18.6027 C   0  0  0  0  0  0
  -27.6683  -13.2006   19.8689 C   0  0  2  0  0  0
  -28.7102  -12.9772   20.9878 C   0  0  0  0  0  0
  -25.2655  -13.8162   20.5617 C   0  0  0  0  0  0
  -24.1893  -13.0466   20.9166 C   0  0  0  0  0  0
  -24.6444  -11.6931   20.8749 C   0  0  0  0  0  0
  -23.9141  -10.4317   21.0432 C   0  0  0  0  0  0
  -24.3683   -9.4223   21.9203 C   0  0  0  0  0  0
  -23.6347   -8.2274   22.0767 C   0  0  0  0  0  0
  -22.4317   -8.0343   21.3565 C   0  0  0  0  0  0
  -21.9964   -9.0326   20.4660 C   0  0  0  0  0  0
  -22.7315  -10.2193   20.3077 C   0  0  0  0  0  0
  -21.6865   -6.0792   22.5314 C   0  0  0  0  0  0
  -21.4023   -6.5666   23.8258 C   0  0  0  0  0  0
  -21.3645   -5.6803   24.9192 C   0  0  0  0  0  0
  -21.6043   -4.3069   24.7216 C   0  0  0  0  0  0
  -21.8819   -3.8184   23.4327 C   0  0  0  0  0  0
  -21.9198   -4.7028   22.3399 C   0  0  0  0  0  0
  -22.7914  -13.5289   21.1825 C   0  0  0  0  0  0
  -22.1667   -4.2221   21.0969 F   0  0  0  0  0  0
  -21.5617   -3.4539   25.7711 F   0  0  0  0  0  0
  -30.0450  -13.2755   20.4408 N   0  0  0  0  0  0
  -26.3078  -12.9315   20.3323 N   0  0  0  0  0  0
  -25.9343  -11.6492   20.5737 N   0  0  0  0  0  0
  -22.0507  -12.8330   22.0384 N   0  0  0  0  0  0
  -25.4382  -15.1856   20.3949 N   0  0  0  0  0  0
  -31.8593  -14.6109   20.0974 O   0  0  0  0  0  0
  -21.6647   -6.8955   21.4288 O   0  0  0  0  0  0
  -22.3617  -14.5573   20.6644 O   0  0  0  0  0  0
  -24.6172  -31.8639   23.2065 C   0  0  0  0  0  0
  -25.9075  -32.4793   23.8353 C   0  0  1  0  0  0
  -27.2480  -27.4124   20.0936 C   0  0  0  0  0  0
  -25.5951  -33.8598   24.2262 N   0  0  0  0  0  0
  -23.4059  -30.4865   21.5434 C   0  0  2  0  0  0
  -24.8563  -28.9454   20.1161 C   0  0  0  0  0  0
  -22.7424  -29.4650   22.4959 C   0  0  0  0  0  0
  -18.0269  -28.1416   22.8465 C   0  0  0  0  0  0
  -24.1473  -36.7265   23.2642 C   0  0  0  0  0  0
  -25.9371  -30.8167   21.3695 C   0  0  0  0  0  0
  -26.0152  -29.4489   20.7220 C   0  0  0  0  0  0
  -27.2083  -28.6876   20.7154 C   0  0  0  0  0  0
  -26.0643  -26.9326   19.4798 C   0  0  0  0  0  0
  -24.8778  -27.6868   19.4944 C   0  0  0  0  0  0
  -23.6186  -29.8138   20.1601 C   0  0  0  0  0  0
  -25.4109  -36.3065   24.0312 C   0  0  1  0  0  0
  -20.5860  -28.3719   23.1308 C   0  0  2  0  0  0
  -20.6795  -26.9449   22.5457 C   0  0  0  0  0  0
  -19.5781  -26.6400   21.5253 C   0  0  0  0  0  0
  -18.1929  -26.7953   22.1603 C   0  0  0  0  0  0
  -19.1520  -28.8875   23.2868 C   0  0  0  0  0  0
  -18.9486  -30.1477   23.8884 C   0  0  0  0  0  0
  -17.6509  -30.6626   24.0586 C   0  0  0  0  0  0
  -25.9063  -34.9452   23.5067 C   0  0  0  0  0  0
  -16.5383  -29.9150   23.6360 C   0  0  0  0  0  0
  -16.7268  -28.6572   23.0344 C   0  0  0  0  0  0
  -26.4522  -31.6613   25.0724 C   0  0  0  0  0  0
  -25.3822  -31.3780   26.1506 C   0  0  0  0  0  0
  -27.0356  -30.3036   24.6140 C   0  0  0  0  0  0
  -27.6020  -32.4406   25.7523 C   0  0  0  0  0  0
  -27.5538  -37.1786   24.8453 C   0  0  0  0  0  0
  -21.4153  -29.3038   22.3689 N   0  0  0  0  0  0
  -26.4246  -37.3797   23.9435 N   0  0  0  0  0  0
  -24.6696  -31.0735   22.0959 N   0  0  0  0  0  0
  -23.4179  -28.8229   23.3048 O   0  0  0  0  0  0
  -28.4256  -26.6782   20.1072 O   0  0  0  0  0  0
  -26.5584  -34.8922   22.4612 O   0  0  0  0  0  0
  -23.5367  -32.1405   23.7456 O   0  0  0  0  0  0
  -32.0515  -20.1241   20.2722 C   0  0  0  0  0  0
  -29.1579  -16.2606   20.8994 C   0  0  0  0  0  0
  -31.0705  -16.0215   22.4110 C   0  0  0  0  0  0
  -29.3800  -17.7728   21.1982 C   0  0  0  0  0  0
  -31.7271  -17.3035   21.8457 C   0  0  0  0  0  0
  -30.6570  -20.7169   20.2991 C   0  0  1  0  0  0
  -31.0814  -19.6234   21.3068 C   0  0  1  0  0  0
  -30.6568  -22.2258   20.6261 C   0  0  0  0  0  0
  -29.6076  -24.4815   20.2688 C   0  0  0  0  0  0
  -28.3409  -25.2619   19.8303 C   0  0  0  0  0  0
  -30.2148  -15.3675   21.4203 N   0  0  0  0  0  0
  -30.8046  -18.1756   21.0572 N   0  3  0  0  0  0
  -29.4574  -22.9918   20.1905 N   0  3  0  0  0  0
  -31.4754  -12.3860   19.1176 H   0  0  0  0  0  0
  -30.3307  -11.2814   19.8082 H   0  0  0  0  0  0
  -29.7542  -11.7762   17.4204 H   0  0  0  0  0  0
  -29.6897  -13.4866   17.7655 H   0  0  0  0  0  0
  -27.8134  -11.3199   18.7806 H   0  0  0  0  0  0
  -27.3892  -12.6725   17.7681 H   0  0  0  0  0  0
  -27.7130  -14.2448   19.5748 H   0  0  0  0  0  0
  -28.6813  -11.9407   21.3275 H   0  0  0  0  0  0
  -28.4679  -13.5735   21.8643 H   0  0  0  0  0  0
  -25.2847   -9.5693   22.4750 H   0  0  0  0  0  0
  -24.0088   -7.4646   22.7434 H   0  0  0  0  0  0
  -21.0927   -8.8866   19.8925 H   0  0  0  0  0  0
  -22.3826  -10.9752   19.6177 H   0  0  0  0  0  0
  -21.2025   -7.6178   23.9810 H   0  0  0  0  0  0
  -21.1452   -6.0487   25.9105 H   0  0  0  0  0  0
  -22.0599   -2.7664   23.2790 H   0  0  0  0  0  0
  -22.4095  -12.0006   22.4827 H   0  0  0  0  0  0
  -21.1107  -13.1380   22.2500 H   0  0  0  0  0  0
  -24.6642  -15.8373   20.4766 H   0  0  0  0  0  0
  -26.2782  -15.6160   20.0335 H   0  0  0  0  0  0
  -26.7145  -32.5506   23.1110 H   0  0  0  0  0  0
  -25.0307  -33.9802   25.0529 H   0  0  0  0  0  0
  -22.6957  -31.3036   21.4001 H   0  0  0  0  0  0
  -23.3726  -35.9601   23.3342 H   0  0  0  0  0  0
  -24.3559  -36.8881   22.2054 H   0  0  0  0  0  0
  -23.7250  -37.6487   23.6644 H   0  0  0  0  0  0
  -26.0551  -31.5722   20.5925 H   0  0  0  0  0  0
  -26.8193  -30.8721   21.9925 H   0  0  0  0  0  0
  -28.0937  -29.0620   21.2128 H   0  0  0  0  0  0
  -26.0312  -25.9765   18.9773 H   0  0  0  0  0  0
  -23.9922  -27.2998   19.0101 H   0  0  0  0  0  0
  -23.7285  -30.5832   19.3959 H   0  0  0  0  0  0
  -22.7451  -29.2305   19.8637 H   0  0  0  0  0  0
  -25.1291  -36.1898   25.0798 H   0  0  0  0  0  0
  -20.9925  -28.3330   24.1438 H   0  0  0  0  0  0
  -20.5791  -26.2325   23.3652 H   0  0  0  0  0  0
  -21.6662  -26.7565   22.1193 H   0  0  0  0  0  0
  -19.6985  -25.6320   21.1266 H   0  0  0  0  0  0
  -19.6734  -27.3233   20.6807 H   0  0  0  0  0  0
  -17.4235  -26.6729   21.3963 H   0  0  0  0  0  0
  -18.0275  -26.0088   22.8989 H   0  0  0  0  0  0
  -19.7996  -30.7264   24.2229 H   0  0  0  0  0  0
  -17.5121  -31.6306   24.5207 H   0  0  0  0  0  0
  -15.5401  -30.3088   23.7739 H   0  0  0  0  0  0
  -15.8637  -28.0950   22.7035 H   0  0  0  0  0  0
  -24.5962  -30.7130   25.7937 H   0  0  0  0  0  0
  -24.9060  -32.2974   26.4916 H   0  0  0  0  0  0
  -25.8250  -30.9025   27.0276 H   0  0  0  0  0  0
  -26.2913  -29.6804   24.1168 H   0  0  0  0  0  0
  -27.4113  -29.7292   25.4633 H   0  0  0  0  0  0
  -27.8734  -30.4332   23.9282 H   0  0  0  0  0  0
  -27.2511  -33.3699   26.2021 H   0  0  0  0  0  0
  -28.3843  -32.7041   25.0394 H   0  0  0  0  0  0
  -28.0621  -31.8614   26.5534 H   0  0  0  0  0  0
  -28.2550  -38.0094   24.7523 H   0  0  0  0  0  0
  -28.1034  -36.2632   24.6216 H   0  0  0  0  0  0
  -27.2251  -37.1353   25.8856 H   0  0  0  0  0  0
  -20.9371  -29.8686   21.6808 H   0  0  0  0  0  0
  -26.0088  -38.2837   24.1558 H   0  0  0  0  0  0
  -32.8709  -20.7461   20.6217 H   0  0  0  0  0  0
  -32.2833  -19.5104   19.4014 H   0  0  0  0  0  0
  -28.1944  -15.9592   21.3134 H   0  0  0  0  0  0
  -29.0825  -16.1387   19.8160 H   0  0  0  0  0  0
  -30.4619  -16.2551   23.2873 H   0  0  0  0  0  0
  -31.8454  -15.3412   22.7714 H   0  0  0  0  0  0
  -29.0399  -18.0013   22.2091 H   0  0  0  0  0  0
  -28.7595  -18.3676   20.5261 H   0  0  0  0  0  0
  -32.5662  -17.0366   21.1996 H   0  0  0  0  0  0
  -32.1604  -17.8462   22.6856 H   0  0  0  0  0  0
  -30.0329  -20.4255   19.4573 H   0  0  0  0  0  0
  -31.2093  -19.8894   22.3554 H   0  0  0  0  0  0
  -31.5260  -22.6625   20.1300 H   0  0  0  0  0  0
  -30.8247  -22.3635   21.6960 H   0  0  0  0  0  0
  -29.8502  -24.7564   21.2944 H   0  0  0  0  0  0
  -30.4540  -24.7975   19.6525 H   0  0  0  0  0  0
  -27.4839  -24.8402   20.3571 H   0  0  0  0  0  0
  -28.1790  -25.1124   18.7605 H   0  0  0  0  0  0
  -31.0354  -18.0044   20.0893 H   0  0  0  0  0  0
  -28.6749  -22.7025   20.7570 H   0  0  0  0  0  0
  -29.2530  -22.7321   19.2397 H   0  0  0  0  0  0
  1 25  1  0  0  0
  1 30  2  0  0  0
  1 81  1  0  0  0
  2  3  1  0  0  0
  2 25  1  0  0  0
  2 84  1  0  0  0
  2 85  1  0  0  0
  3  4  1  0  0  0
  3 86  1  0  0  0
  3 87  1  0  0  0
  4  5  1  0  0  0
  4 88  1  0  0  0
  4 89  1  0  0  0
  5  6  1  0  0  0
  5 26  1  0  0  0
  5 90  1  0  0  0
  6 25  1  0  0  0
  6 91  1  0  0  0
  6 92  1  0  0  0
  7  8  2  0  0  0
  7 26  1  0  0  0
  7 29  1  0  0  0
  8  9  1  0  0  0
  8 22  1  0  0  0
  9 10  1  0  0  0
  9 27  2  0  0  0
 10 11  2  0  0  0
 10 15  1  0  0  0
 11 12  1  0  0  0
 11 93  1  0  0  0
 12 13  2  0  0  0
 12 94  1  0  0  0
 13 14  1  0  0  0
 13 31  1  0  0  0
 14 15  2  0  0  0
 14 95  1  0  0  0
 15 96  1  0  0  0
 16 17  2  0  0  0
 16 21  1  0  0  0
 16 31  1  0  0  0
 17 18  1  0  0  0
 17 97  1  0  0  0
 18 19  2  0  0  0
 18 98  1  0  0  0
 19 20  1  0  0  0
 19 24  1  0  0  0
 20 21  2  0  0  0
 20 99  1  0  0  0
 21 23  1  0  0  0
 22 28  1  0  0  0
 22 32  2  0  0  0
 26 27  1  0  0  0
 28100  1  0  0  0
 28101  1  0  0  0
 29102  1  0  0  0
 29103  1  0  0  0
 33 34  1  0  0  0
 33 66  1  0  0  0
 33 70  2  0  0  0
 34 36  1  0  0  0
 34 59  1  0  0  0
 34104  1  0  0  0
 35 44  2  0  0  0
 35 45  1  0  0  0
 35 68  1  0  0  0
 36 56  1  0  0  0
 36105  1  0  0  0
 37 39  1  0  0  0
 37 47  1  0  0  0
 37 66  1  0  0  0
 37106  1  0  0  0
 38 43  2  0  0  0
 38 46  1  0  0  0
 38 47  1  0  0  0
 39 64  1  0  0  0
 39 67  2  0  0  0
 40 52  1  0  0  0
 40 53  2  0  0  0
 40 58  1  0  0  0
 41107  1  0  0  0
 41108  1  0  0  0
 41109  1  0  0  0
 41 48  1  0  0  0
 42 43  1  0  0  0
 42 66  1  0  0  0
 42110  1  0  0  0
 42111  1  0  0  0
 43 44  1  0  0  0
 44112  1  0  0  0
 45 46  2  0  0  0
 45113  1  0  0  0
 46114  1  0  0  0
 47115  1  0  0  0
 47116  1  0  0  0
 48 56  1  0  0  0
 48 65  1  0  0  0
 48117  1  0  0  0
 49 50  1  0  0  0
 49 53  1  0  0  0
 49 64  1  0  0  0
 49118  1  0  0  0
 50 51  1  0  0  0
 50119  1  0  0  0
 50120  1  0  0  0
 51 52  1  0  0  0
 51121  1  0  0  0
 51122  1  0  0  0
 52123  1  0  0  0
 52124  1  0  0  0
 53 54  1  0  0  0
 54 55  2  0  0  0
 54125  1  0  0  0
 55 57  1  0  0  0
 55126  1  0  0  0
 56 69  2  0  0  0
 57 58  2  0  0  0
 57127  1  0  0  0
 58128  1  0  0  0
 59 60  1  0  0  0
 59 61  1  0  0  0
 59 62  1  0  0  0
 60129  1  0  0  0
 60130  1  0  0  0
 60131  1  0  0  0
 61132  1  0  0  0
 61133  1  0  0  0
 61134  1  0  0  0
 62135  1  0  0  0
 62136  1  0  0  0
 62137  1  0  0  0
 63 65  1  0  0  0
 63138  1  0  0  0
 63139  1  0  0  0
 63140  1  0  0  0
 64141  1  0  0  0
 65142  1  0  0  0
 68 80  1  0  0  0
 71 76  1  0  0  0
 71143  1  0  0  0
 71144  1  0  0  0
 71 77  1  0  0  0
 72 74  1  0  0  0
 72 81  1  0  0  0
 72145  1  0  0  0
 72146  1  0  0  0
 73 75  1  0  0  0
 73 81  1  0  0  0
 73147  1  0  0  0
 73148  1  0  0  0
 74149  1  0  0  0
 74150  1  0  0  0
 74 82  1  0  0  0
 75 82  1  0  0  0
 75151  1  0  0  0
 75152  1  0  0  0
 76 77  1  0  0  0
 76 78  1  0  0  0
 76153  1  0  0  0
 77 82  1  0  0  0
 77154  1  0  0  0
 78 83  1  0  0  0
 78155  1  0  0  0
 78156  1  0  0  0
 79 80  1  0  0  0
 79 83  1  0  0  0
 79157  1  0  0  0
 79158  1  0  0  0
 80159  1  0  0  0
 80160  1  0  0  0
 82161  1  0  0  0
 83162  1  0  0  0
 83163  1  0  0  0
M  CHG  2  82   1  83   1
M  ISO  4   1 100  68 101  80 101  81 100
M  END
> <chiral flag>
0

> <version>
0

> <s_m_source_file>
/data/baiqing/PycharmProjects/Reinvent-master-3.2/result/LINK_invent/BTK/process_docking_weight1_custom_sum_contain_oxygen_bond_distance_aromatic_linkinvent_7_9_3/rearranged_h_0191.sdf

> <i_m_source_file_index>
83

> <r_mmod_Potential_Energy-OPLS-2005>
-34.2714881896973

> <r_mmod_Stretch_Energy-OPLS-2005>
43.468635559082

> <r_mmod_Bend_Energy-OPLS-2005>
121.461837768555

> <r_mmod_Torsional_Energy-OPLS-2005>
426.887664794922

> <r_mmod_Improper_Torsional_Energy-OPLS-2005>
4.51200771331787

> <r_mmod_Van_der_Waal_Energy-OPLS-2005>
145.167877197266

> <r_mmod_Electrostatic_Energy-OPLS-2005>
138.528701782227

> <r_mmod_Solvation_Energy-OPLS-2005>
-927.1220703125

> <b_mmod_Minimization_Converged-OPLS-2005>
0

> <r_mmod_RMS_Derivative-OPLS-2005>
4.78047180175781

$$$$
83
                    3D
 Structure written by MMmdl.
171181  0  0  1  0            999 V2000
  -30.8108  -14.3749   20.7006 C   0  0  0  0  0  0
  -30.4169  -12.2972   19.4208 C   0  0  0  0  0  0
  -29.4983  -12.5431   18.2098 C   0  0  0  0  0  0
  -28.0203  -12.3824   18.6044 C   0  0  0  0  0  0
  -27.6657  -13.2152   19.8644 C   0  0  2  0  0  0
  -28.6950  -12.9928   20.9901 C   0  0  0  0  0  0
  -25.2593  -13.8195   20.5627 C   0  0  0  0  0  0
  -24.1850  -13.0445   20.9170 C   0  0  0  0  0  0
  -24.6432  -11.6924   20.8741 C   0  0  0  0  0  0
  -23.9102  -10.4294   21.0409 C   0  0  0  0  0  0
  -24.3650   -9.4200   21.9197 C   0  0  0  0  0  0
  -23.6316   -8.2243   22.0777 C   0  0  0  0  0  0
  -22.4285   -8.0294   21.3581 C   0  0  0  0  0  0
  -21.9928   -9.0268   20.4681 C   0  0  0  0  0  0
  -22.7280  -10.2136   20.3066 C   0  0  0  0  0  0
  -21.6844   -6.0734   22.5301 C   0  0  0  0  0  0
  -21.4014   -6.5638   23.8241 C   0  0  0  0  0  0
  -21.3665   -5.6778   24.9200 C   0  0  0  0  0  0
  -21.6050   -4.3050   24.7214 C   0  0  0  0  0  0
  -21.8822   -3.8141   23.4341 C   0  0  0  0  0  0
  -21.9199   -4.6973   22.3401 C   0  0  0  0  0  0
  -22.7875  -13.5251   21.1803 C   0  0  0  0  0  0
  -22.1661   -4.2162   21.0978 F   0  0  0  0  0  0
  -21.5629   -3.4523   25.7723 F   0  0  0  0  0  0
  -30.0572  -13.2584   20.4779 N   0  0  0  0  0  0
  -26.3043  -12.9392   20.3275 N   0  0  0  0  0  0
  -25.9359  -11.6544   20.5739 N   0  0  0  0  0  0
  -22.0466  -12.8295   22.0351 N   0  0  0  0  0  0
  -25.4213  -15.1930   20.4085 N   0  0  0  0  0  0
  -31.8065  -14.6466   20.0195 O   0  0  0  0  0  0
  -21.6647   -6.8886   21.4266 O   0  0  0  0  0  0
  -22.3558  -14.5538   20.6597 O   0  0  0  0  0  0
  -24.6155  -31.8696   23.2112 C   0  0  0  0  0  0
  -25.9052  -32.4819   23.8393 C   0  0  1  0  0  0
  -27.2265  -27.4366   20.0736 C   0  0  0  0  0  0
  -25.5930  -33.8620   24.2329 N   0  0  0  0  0  0
  -23.4008  -30.4930   21.5574 C   0  0  2  0  0  0
  -24.8411  -28.9618   20.1171 C   0  0  0  0  0  0
  -22.7419  -29.4661   22.5056 C   0  0  0  0  0  0
  -18.0272  -28.1398   22.8486 C   0  0  0  0  0  0
  -24.1493  -36.7285   23.2640 C   0  0  0  0  0  0
  -25.9312  -30.8256   21.3707 C   0  0  0  0  0  0
  -26.0035  -29.4643   20.7122 C   0  0  0  0  0  0
  -27.1977  -28.7075   20.6919 C   0  0  0  0  0  0
  -26.0387  -26.9485   19.4736 C   0  0  0  0  0  0
  -24.8539  -27.7012   19.5002 C   0  0  0  0  0  0
  -23.6054  -29.8311   20.1702 C   0  0  0  0  0  0
  -25.4123  -36.3108   24.0339 C   0  0  1  0  0  0
  -20.5859  -28.3655   23.1363 C   0  0  2  0  0  0
  -20.6778  -26.9403   22.5432 C   0  0  0  0  0  0
  -19.5748  -26.6401   21.5240 C   0  0  0  0  0  0
  -18.1923  -26.7944   22.1633 C   0  0  0  0  0  0
  -19.1517  -28.8852   23.2906 C   0  0  0  0  0  0
  -18.9444  -30.1480   23.8884 C   0  0  0  0  0  0
  -17.6438  -30.6596   24.0578 C   0  0  0  0  0  0
  -25.9052  -34.9476   23.5125 C   0  0  0  0  0  0
  -16.5332  -29.9090   23.6351 C   0  0  0  0  0  0
  -16.7256  -28.6528   23.0325 C   0  0  0  0  0  0
  -26.4487  -31.6590   25.0704 C   0  0  0  0  0  0
  -25.3757  -31.3667   26.1448 C   0  0  0  0  0  0
  -27.0325  -30.3049   24.6060 C   0  0  0  0  0  0
  -27.6086  -32.4288   25.7436 C   0  0  0  0  0  0
  -27.5579  -37.1802   24.8479 C   0  0  0  0  0  0
  -21.4142  -29.3012   22.3775 N   0  0  0  0  0  0
  -26.4303  -37.3793   23.9413 N   0  0  0  0  0  0
  -24.6671  -31.0783   22.1039 N   0  0  0  0  0  0
  -23.4200  -28.8220   23.3093 O   0  0  0  0  0  0
  -28.4059  -26.7155   20.0786 O   0  0  0  0  0  0
  -26.5576  -34.8922   22.4669 O   0  0  0  0  0  0
  -23.5342  -32.1475   23.7512 O   0  0  0  0  0  0
  -30.6398  -24.5839   19.0423 C   0  0  0  0  0  0
  -31.9076  -23.1704   20.3619 C   0  0  0  0  0  0
  -29.6042  -24.5591   19.9965 C   0  0  0  0  0  0
  -30.8585  -23.1310   21.3224 C   0  0  0  0  0  0
  -34.1784  -22.6134   21.6314 C   0  0  0  0  0  0
  -34.4896  -23.2368   20.2994 C   0  0  0  0  0  0
  -29.8478  -16.2313   23.7266 C   0  0  0  0  0  0
  -30.3398  -14.9470   23.0697 C   0  0  0  0  0  0
  -30.5153  -16.7052   21.4734 C   0  0  0  0  0  0
  -33.2141  -22.4427   20.4742 C   0  0  0  0  0  0
  -30.5174  -17.3160   22.8856 C   0  0  1  0  0  0
  -30.9316  -22.3404   22.6251 C   0  0  0  0  0  0
  -28.3103  -25.3199   19.7640 C   0  0  0  0  0  0
  -29.8618  -18.7061   23.0022 C   0  0  0  0  0  0
  -30.6984  -19.8557   22.3981 C   0  0  0  0  0  0
  -31.7828  -23.8843   19.2172 N   0  0  0  0  0  0
  -29.7049  -23.8223   21.1333 N   0  0  0  0  0  0
  -30.3646  -15.2475   21.6334 N   0  0  0  0  0  0
  -30.0397  -21.1645   22.6166 N   0  3  0  0  0  0
  -31.4662  -12.3732   19.1253 H   0  0  0  0  0  0
  -30.2939  -11.2783   19.7899 H   0  0  0  0  0  0
  -29.7536  -11.8565   17.3988 H   0  0  0  0  0  0
  -29.6627  -13.5531   17.8311 H   0  0  0  0  0  0
  -27.8328  -11.3241   18.7916 H   0  0  0  0  0  0
  -27.3815  -12.6723   17.7692 H   0  0  0  0  0  0
  -27.7174  -14.2666   19.5768 H   0  0  0  0  0  0
  -28.6450  -11.9674   21.3609 H   0  0  0  0  0  0
  -28.3954  -13.6281   21.8189 H   0  0  0  0  0  0
  -25.2782   -9.5672   22.4770 H   0  0  0  0  0  0
  -24.0030   -7.4620   22.7485 H   0  0  0  0  0  0
  -21.0859   -8.8804   19.8974 H   0  0  0  0  0  0
  -22.3762  -10.9679   19.6160 H   0  0  0  0  0  0
  -21.1993   -7.6132   23.9770 H   0  0  0  0  0  0
  -21.1496   -6.0489   25.9118 H   0  0  0  0  0  0
  -22.0592   -2.7599   23.2832 H   0  0  0  0  0  0
  -22.4011  -11.9966   22.4822 H   0  0  0  0  0  0
  -21.1087  -13.1403   22.2476 H   0  0  0  0  0  0
  -24.6414  -15.8316   20.5189 H   0  0  0  0  0  0
  -26.2739  -15.6546   20.1161 H   0  0  0  0  0  0
  -26.7095  -32.5514   23.1117 H   0  0  0  0  0  0
  -25.0137  -33.9779   25.0512 H   0  0  0  0  0  0
  -22.6873  -31.3099   21.4263 H   0  0  0  0  0  0
  -23.3769  -35.9604   23.3336 H   0  0  0  0  0  0
  -24.3586  -36.8849   22.2047 H   0  0  0  0  0  0
  -23.7214  -37.6491   23.6623 H   0  0  0  0  0  0
  -26.0516  -31.5923   20.6072 H   0  0  0  0  0  0
  -26.8152  -30.8701   21.9922 H   0  0  0  0  0  0
  -28.0945  -29.0879   21.1617 H   0  0  0  0  0  0
  -25.9927  -25.9938   18.9712 H   0  0  0  0  0  0
  -23.9584  -27.3064   19.0407 H   0  0  0  0  0  0
  -23.7162  -30.6126   19.4173 H   0  0  0  0  0  0
  -22.7247  -29.2604   19.8694 H   0  0  0  0  0  0
  -25.1307  -36.1982   25.0827 H   0  0  0  0  0  0
  -20.9911  -28.3196   24.1504 H   0  0  0  0  0  0
  -20.5793  -26.2223   23.3590 H   0  0  0  0  0  0
  -21.6639  -26.7528   22.1160 H   0  0  0  0  0  0
  -19.6926  -25.6338   21.1226 H   0  0  0  0  0  0
  -19.6709  -27.3257   20.6816 H   0  0  0  0  0  0
  -17.4209  -26.6696   21.4020 H   0  0  0  0  0  0
  -18.0307  -26.0105   22.9043 H   0  0  0  0  0  0
  -19.7920  -30.7319   24.2212 H   0  0  0  0  0  0
  -17.4994  -31.6276   24.5184 H   0  0  0  0  0  0
  -15.5334  -30.2974   23.7732 H   0  0  0  0  0  0
  -15.8653  -28.0887   22.6991 H   0  0  0  0  0  0
  -24.5942  -30.7005   25.7763 H   0  0  0  0  0  0
  -24.8932  -32.2807   26.4927 H   0  0  0  0  0  0
  -25.8126  -30.8803   27.0178 H   0  0  0  0  0  0
  -26.2852  -29.6773   24.1181 H   0  0  0  0  0  0
  -27.4200  -29.7315   25.4491 H   0  0  0  0  0  0
  -27.8647  -30.4400   23.9142 H   0  0  0  0  0  0
  -27.2753  -33.3596   26.2038 H   0  0  0  0  0  0
  -28.3868  -32.6818   25.0218 H   0  0  0  0  0  0
  -28.0780  -31.8376   26.5306 H   0  0  0  0  0  0
  -28.2639  -38.0059   24.7513 H   0  0  0  0  0  0
  -28.1030  -36.2599   24.6353 H   0  0  0  0  0  0
  -27.2281  -37.1493   25.8872 H   0  0  0  0  0  0
  -20.9337  -29.8671   21.6923 H   0  0  0  0  0  0
  -26.0203  -38.2874   24.1408 H   0  0  0  0  0  0
  -30.5556  -25.1645   18.1328 H   0  0  0  0  0  0
  -33.8987  -23.2777   22.4467 H   0  0  0  0  0  0
  -34.7932  -21.7620   21.9177 H   0  0  0  0  0  0
  -35.2568  -22.7879   19.6734 H   0  0  0  0  0  0
  -34.4227  -24.3228   20.2512 H   0  0  0  0  0  0
  -30.0970  -16.2828   24.7864 H   0  0  0  0  0  0
  -28.7601  -16.2877   23.6346 H   0  0  0  0  0  0
  -29.7320  -14.0915   23.3567 H   0  0  0  0  0  0
  -31.3566  -14.7280   23.4004 H   0  0  0  0  0  0
  -29.6795  -17.0745   20.8778 H   0  0  0  0  0  0
  -31.4309  -16.9840   20.9456 H   0  0  0  0  0  0
  -33.1593  -21.4666   19.9962 H   0  0  0  0  0  0
  -31.5544  -17.3937   23.2197 H   0  0  0  0  0  0
  -30.5832  -23.0045   23.4149 H   0  0  0  0  0  0
  -31.9466  -22.0695   22.9076 H   0  0  0  0  0  0
  -27.5328  -24.8555   20.3750 H   0  0  0  0  0  0
  -28.0311  -25.1779   18.7188 H   0  0  0  0  0  0
  -29.7154  -18.9137   24.0632 H   0  0  0  0  0  0
  -28.8677  -18.6846   22.5572 H   0  0  0  0  0  0
  -30.8686  -19.6984   21.3318 H   0  0  0  0  0  0
  -31.6817  -19.8550   22.8763 H   0  0  0  0  0  0
  -29.3130  -21.3212   21.9371 H   0  0  0  0  0  0
  -29.6032  -21.1418   23.5217 H   0  0  0  0  0  0
  1 25  1  0  0  0
  1 30  2  0  0  0
  1 88  1  0  0  0
  2  3  1  0  0  0
  2 25  1  0  0  0
  2 90  1  0  0  0
  2 91  1  0  0  0
  3  4  1  0  0  0
  3 92  1  0  0  0
  3 93  1  0  0  0
  4  5  1  0  0  0
  4 94  1  0  0  0
  4 95  1  0  0  0
  5  6  1  0  0  0
  5 26  1  0  0  0
  5 96  1  0  0  0
  6 25  1  0  0  0
  6 97  1  0  0  0
  6 98  1  0  0  0
  7  8  2  0  0  0
  7 26  1  0  0  0
  7 29  1  0  0  0
  8  9  1  0  0  0
  8 22  1  0  0  0
  9 10  1  0  0  0
  9 27  2  0  0  0
 10 11  2  0  0  0
 10 15  1  0  0  0
 11 12  1  0  0  0
 11 99  1  0  0  0
 12 13  2  0  0  0
 12100  1  0  0  0
 13 14  1  0  0  0
 13 31  1  0  0  0
 14 15  2  0  0  0
 14101  1  0  0  0
 15102  1  0  0  0
 16 17  2  0  0  0
 16 21  1  0  0  0
 16 31  1  0  0  0
 17 18  1  0  0  0
 17103  1  0  0  0
 18 19  2  0  0  0
 18104  1  0  0  0
 19 20  1  0  0  0
 19 24  1  0  0  0
 20 21  2  0  0  0
 20105  1  0  0  0
 21 23  1  0  0  0
 22 28  1  0  0  0
 22 32  2  0  0  0
 26 27  1  0  0  0
 28106  1  0  0  0
 28107  1  0  0  0
 29108  1  0  0  0
 29109  1  0  0  0
 33 34  1  0  0  0
 33 66  1  0  0  0
 33 70  2  0  0  0
 34 36  1  0  0  0
 34 59  1  0  0  0
 34110  1  0  0  0
 35 44  2  0  0  0
 35 45  1  0  0  0
 35 68  1  0  0  0
 36 56  1  0  0  0
 36111  1  0  0  0
 37 39  1  0  0  0
 37 47  1  0  0  0
 37 66  1  0  0  0
 37112  1  0  0  0
 38 43  2  0  0  0
 38 46  1  0  0  0
 38 47  1  0  0  0
 39 64  1  0  0  0
 39 67  2  0  0  0
 40 52  1  0  0  0
 40 53  2  0  0  0
 40 58  1  0  0  0
 41113  1  0  0  0
 41114  1  0  0  0
 41115  1  0  0  0
 41 48  1  0  0  0
 42 43  1  0  0  0
 42 66  1  0  0  0
 42116  1  0  0  0
 42117  1  0  0  0
 43 44  1  0  0  0
 44118  1  0  0  0
 45 46  2  0  0  0
 45119  1  0  0  0
 46120  1  0  0  0
 47121  1  0  0  0
 47122  1  0  0  0
 48 56  1  0  0  0
 48 65  1  0  0  0
 48123  1  0  0  0
 49 50  1  0  0  0
 49 53  1  0  0  0
 49 64  1  0  0  0
 49124  1  0  0  0
 50 51  1  0  0  0
 50125  1  0  0  0
 50126  1  0  0  0
 51 52  1  0  0  0
 51127  1  0  0  0
 51128  1  0  0  0
 52129  1  0  0  0
 52130  1  0  0  0
 53 54  1  0  0  0
 54 55  2  0  0  0
 54131  1  0  0  0
 55 57  1  0  0  0
 55132  1  0  0  0
 56 69  2  0  0  0
 57 58  2  0  0  0
 57133  1  0  0  0
 58134  1  0  0  0
 59 60  1  0  0  0
 59 61  1  0  0  0
 59 62  1  0  0  0
 60135  1  0  0  0
 60136  1  0  0  0
 60137  1  0  0  0
 61138  1  0  0  0
 61139  1  0  0  0
 61140  1  0  0  0
 62141  1  0  0  0
 62142  1  0  0  0
 62143  1  0  0  0
 63 65  1  0  0  0
 63144  1  0  0  0
 63145  1  0  0  0
 63146  1  0  0  0
 64147  1  0  0  0
 65148  1  0  0  0
 68 83  1  0  0  0
 71 73  2  0  0  0
 71 86  1  0  0  0
 71149  1  0  0  0
 72 74  1  0  0  0
 72 86  2  0  0  0
 72 80  1  0  0  0
 73 83  1  0  0  0
 73 87  1  0  0  0
 74 82  1  0  0  0
 74 87  2  0  0  0
 75 76  1  0  0  0
 75 80  1  0  0  0
 75150  1  0  0  0
 75151  1  0  0  0
 76 80  1  0  0  0
 76152  1  0  0  0
 76153  1  0  0  0
 77 78  1  0  0  0
 77 81  1  0  0  0
 77154  1  0  0  0
 77155  1  0  0  0
 78 88  1  0  0  0
 78156  1  0  0  0
 78157  1  0  0  0
 79 81  1  0  0  0
 79 88  1  0  0  0
 79158  1  0  0  0
 79159  1  0  0  0
 80160  1  0  0  0
 81 84  1  0  0  0
 81161  1  0  0  0
 82 89  1  0  0  0
 82162  1  0  0  0
 82163  1  0  0  0
 83164  1  0  0  0
 83165  1  0  0  0
 84 85  1  0  0  0
 84166  1  0  0  0
 84167  1  0  0  0
 85 89  1  0  0  0
 85168  1  0  0  0
 85169  1  0  0  0
 89170  1  0  0  0
 89171  1  0  0  0
M  CHG  1  89   1
M  ISO  4   1 100  68 101  83 101  88 100
M  END
> <chiral flag>
0

> <version>
0

> <s_m_source_file>
/data/baiqing/PycharmProjects/Reinvent-master-3.2/result/LINK_invent/BTK/process_docking_weight1_custom_sum_contain_oxygen_bond_distance_aromatic_linkinvent_7_9_3/rearranged_h_0191.sdf

> <i_m_source_file_index>
84

> <r_mmod_Potential_Energy-OPLS-2005>
57.4070243835449

> <r_mmod_Stretch_Energy-OPLS-2005>
38.5611801147461

> <r_mmod_Bend_Energy-OPLS-2005>
128.195999145508

> <r_mmod_Torsional_Energy-OPLS-2005>
348.843109130859

> <r_mmod_Improper_Torsional_Energy-OPLS-2005>
4.81639909744263

> <r_mmod_Van_der_Waal_Energy-OPLS-2005>
158.636596679688

> <r_mmod_Electrostatic_Energy-OPLS-2005>
-164.950927734375

> <r_mmod_Solvation_Energy-OPLS-2005>
-466.596069335938

> <b_mmod_Minimization_Converged-OPLS-2005>
0

> <r_mmod_RMS_Derivative-OPLS-2005>
4.57863140106201

$$$$
84
                    3D
 Structure written by MMmdl.
173184  0  0  1  0            999 V2000
  -30.7140  -14.4208   20.5468 C   0  0  0  0  0  0
  -30.4149  -12.2683   19.4115 C   0  0  0  0  0  0
  -29.4882  -12.4898   18.1996 C   0  0  0  0  0  0
  -28.0095  -12.3594   18.6156 C   0  0  0  0  0  0
  -27.6610  -13.1975   19.8745 C   0  0  2  0  0  0
  -28.7038  -12.9773   20.9934 C   0  0  0  0  0  0
  -25.2605  -13.8144   20.5687 C   0  0  0  0  0  0
  -24.1842  -13.0434   20.9175 C   0  0  0  0  0  0
  -24.6381  -11.6895   20.8748 C   0  0  0  0  0  0
  -23.9047  -10.4288   21.0414 C   0  0  0  0  0  0
  -24.3604   -9.4202   21.9189 C   0  0  0  0  0  0
  -23.6280   -8.2236   22.0759 C   0  0  0  0  0  0
  -22.4264   -8.0280   21.3545 C   0  0  0  0  0  0
  -21.9897   -9.0253   20.4648 C   0  0  0  0  0  0
  -22.7223  -10.2131   20.3060 C   0  0  0  0  0  0
  -21.6846   -6.0738   22.5278 C   0  0  0  0  0  0
  -21.4010   -6.5643   23.8214 C   0  0  0  0  0  0
  -21.3659   -5.6794   24.9177 C   0  0  0  0  0  0
  -21.6043   -4.3057   24.7226 C   0  0  0  0  0  0
  -21.8818   -3.8150   23.4348 C   0  0  0  0  0  0
  -21.9189   -4.6966   22.3403 C   0  0  0  0  0  0
  -22.7867  -13.5241   21.1837 C   0  0  0  0  0  0
  -22.1658   -4.2153   21.0980 F   0  0  0  0  0  0
  -21.5629   -3.4539   25.7740 F   0  0  0  0  0  0
  -30.0358  -13.2524   20.4319 N   0  0  0  0  0  0
  -26.3030  -12.9289   20.3386 N   0  0  0  0  0  0
  -25.9304  -11.6461   20.5787 N   0  0  0  0  0  0
  -22.0500  -12.8241   22.0400 N   0  0  0  0  0  0
  -25.4365  -15.1857   20.4107 N   0  0  0  0  0  0
  -31.8706  -14.5787   20.1434 O   0  0  0  0  0  0
  -21.6630   -6.8876   21.4239 O   0  0  0  0  0  0
  -22.3556  -14.5549   20.6689 O   0  0  0  0  0  0
  -24.6108  -31.8708   23.2127 C   0  0  0  0  0  0
  -25.9020  -32.4833   23.8412 C   0  0  1  0  0  0
  -27.2420  -27.4735   20.0692 C   0  0  0  0  0  0
  -25.5895  -33.8632   24.2350 N   0  0  0  0  0  0
  -23.3958  -30.4953   21.5526 C   0  0  2  0  0  0
  -24.8398  -28.9607   20.1169 C   0  0  0  0  0  0
  -22.7379  -29.4685   22.5014 C   0  0  0  0  0  0
  -18.0262  -28.1379   22.8501 C   0  0  0  0  0  0
  -24.1485  -36.7322   23.2640 C   0  0  0  0  0  0
  -25.9208  -30.8450   21.3596 C   0  0  0  0  0  0
  -25.9962  -29.4802   20.7092 C   0  0  0  0  0  0
  -27.1941  -28.7389   20.6902 C   0  0  0  0  0  0
  -26.0586  -26.9440   19.5021 C   0  0  0  0  0  0
  -24.8626  -27.6883   19.5191 C   0  0  0  0  0  0
  -23.6013  -29.8261   20.1669 C   0  0  0  0  0  0
  -25.4108  -36.3124   24.0345 C   0  0  1  0  0  0
  -20.5847  -28.3665   23.1336 C   0  0  2  0  0  0
  -20.6758  -26.9407   22.5425 C   0  0  0  0  0  0
  -19.5736  -26.6395   21.5219 C   0  0  0  0  0  0
  -18.1912  -26.7928   22.1630 C   0  0  0  0  0  0
  -19.1509  -28.8836   23.2917 C   0  0  0  0  0  0
  -18.9438  -30.1441   23.8929 C   0  0  0  0  0  0
  -17.6442  -30.6588   24.0574 C   0  0  0  0  0  0
  -25.9032  -34.9483   23.5145 C   0  0  0  0  0  0
  -16.5334  -29.9093   23.6326 C   0  0  0  0  0  0
  -16.7250  -28.6509   23.0347 C   0  0  0  0  0  0
  -26.4463  -31.6594   25.0719 C   0  0  0  0  0  0
  -25.3747  -31.3675   26.1478 C   0  0  0  0  0  0
  -27.0271  -30.3041   24.6062 C   0  0  0  0  0  0
  -27.6060  -32.4294   25.7465 C   0  0  0  0  0  0
  -27.5584  -37.1820   24.8469 C   0  0  0  0  0  0
  -21.4107  -29.3046   22.3754 N   0  0  0  0  0  0
  -26.4298  -37.3805   23.9411 N   0  0  0  0  0  0
  -24.6606  -31.0845   22.1006 N   0  0  0  0  0  0
  -23.4173  -28.8230   23.3040 O   0  0  0  0  0  0
  -28.4577  -26.8292   20.0601 O   0  0  0  0  0  0
  -26.5591  -34.8925   22.4703 O   0  0  0  0  0  0
  -23.5313  -32.1451   23.7542 O   0  0  0  0  0  0
  -30.7888  -21.2259   21.2805 C   0  0  0  0  0  0
  -30.9501  -19.2266   19.4259 C   0  0  0  0  0  0
  -30.1953  -19.9865   21.6074 C   0  0  0  0  0  0
  -30.2887  -18.9507   20.6422 C   0  0  0  0  0  0
  -31.4462  -21.3905   20.0498 C   0  0  0  0  0  0
  -28.4689  -20.8249   23.3917 C   0  0  0  0  0  0
  -29.7696  -20.6664   24.1467 C   0  0  0  0  0  0
  -33.1930  -23.2875   20.6481 C   0  0  0  0  0  0
  -32.7485  -24.6828   20.1921 C   0  0  0  0  0  0
  -29.6707  -16.4641   19.8417 C   0  0  0  0  0  0
  -30.5247  -16.5566   21.7320 C   0  0  0  0  0  0
  -29.4866  -19.8080   22.9321 C   0  0  0  0  0  0
  -29.7284  -17.5524   20.9022 C   0  0  0  0  0  0
  -32.1391  -22.6982   19.6969 C   0  0  2  0  0  0
  -31.4025  -24.0457   19.8037 C   0  0  2  0  0  0
  -30.1427  -25.8591   18.6861 C   0  0  0  0  0  0
  -28.6904  -25.7329   19.1814 C   0  0  0  0  0  0
  -31.5163  -20.4117   19.1310 N   0  0  0  0  0  0
  -29.9618  -15.4799   20.8992 N   0  0  0  0  0  0
  -30.8178  -24.5506   18.5382 N   0  3  0  0  0  0
  -31.4607  -12.3554   19.1121 H   0  0  0  0  0  0
  -30.2999  -11.2566   19.8038 H   0  0  0  0  0  0
  -29.7182  -11.7712   17.4120 H   0  0  0  0  0  0
  -29.6651  -13.4789   17.7739 H   0  0  0  0  0  0
  -27.8129  -11.3036   18.8082 H   0  0  0  0  0  0
  -27.3591  -12.6410   17.7868 H   0  0  0  0  0  0
  -27.7037  -14.2435   19.5760 H   0  0  0  0  0  0
  -28.6633  -11.9502   21.3576 H   0  0  0  0  0  0
  -28.4873  -13.6075   21.8572 H   0  0  0  0  0  0
  -25.2753   -9.5676   22.4761 H   0  0  0  0  0  0
  -23.9992   -7.4627   22.7477 H   0  0  0  0  0  0
  -21.0831   -8.8772   19.8950 H   0  0  0  0  0  0
  -22.3689  -10.9675   19.6171 H   0  0  0  0  0  0
  -21.2004   -7.6153   23.9719 H   0  0  0  0  0  0
  -21.1481   -6.0526   25.9079 H   0  0  0  0  0  0
  -22.0598   -2.7615   23.2848 H   0  0  0  0  0  0
  -22.4096  -11.9884   22.4776 H   0  0  0  0  0  0
  -21.1128  -13.1287   22.2616 H   0  0  0  0  0  0
  -24.6780  -15.8482   20.5298 H   0  0  0  0  0  0
  -26.3055  -15.6228   20.1318 H   0  0  0  0  0  0
  -26.7094  -32.5560   23.1180 H   0  0  0  0  0  0
  -25.0057  -33.9800   25.0502 H   0  0  0  0  0  0
  -22.6835  -31.3114   21.4155 H   0  0  0  0  0  0
  -23.3744  -35.9659   23.3318 H   0  0  0  0  0  0
  -24.3575  -36.8914   22.2050 H   0  0  0  0  0  0
  -23.7238  -37.6535   23.6632 H   0  0  0  0  0  0
  -26.0291  -31.6116   20.5905 H   0  0  0  0  0  0
  -26.8107  -30.8986   21.9753 H   0  0  0  0  0  0
  -28.0917  -29.1441   21.1361 H   0  0  0  0  0  0
  -26.0313  -25.9649   19.0478 H   0  0  0  0  0  0
  -23.9678  -27.2773   19.0724 H   0  0  0  0  0  0
  -23.7061  -30.6005   19.4058 H   0  0  0  0  0  0
  -22.7250  -29.2449   19.8734 H   0  0  0  0  0  0
  -25.1279  -36.2010   25.0836 H   0  0  0  0  0  0
  -20.9934  -28.3226   24.1457 H   0  0  0  0  0  0
  -20.5673  -26.2269   23.3603 H   0  0  0  0  0  0
  -21.6628  -26.7463   22.1209 H   0  0  0  0  0  0
  -19.6895  -25.6315   21.1226 H   0  0  0  0  0  0
  -19.6672  -27.3222   20.6764 H   0  0  0  0  0  0
  -17.4183  -26.6678   21.4026 H   0  0  0  0  0  0
  -18.0310  -26.0064   22.9021 H   0  0  0  0  0  0
  -19.7913  -30.7247   24.2313 H   0  0  0  0  0  0
  -17.5000  -31.6269   24.5172 H   0  0  0  0  0  0
  -15.5336  -30.3011   23.7628 H   0  0  0  0  0  0
  -15.8649  -28.0841   22.7045 H   0  0  0  0  0  0
  -24.5911  -30.7026   25.7819 H   0  0  0  0  0  0
  -24.8935  -32.2811   26.4973 H   0  0  0  0  0  0
  -25.8117  -30.8817   27.0213 H   0  0  0  0  0  0
  -26.2785  -29.6826   24.1132 H   0  0  0  0  0  0
  -27.4056  -29.7261   25.4504 H   0  0  0  0  0  0
  -27.8626  -30.4354   23.9182 H   0  0  0  0  0  0
  -27.2691  -33.3563   26.2121 H   0  0  0  0  0  0
  -28.3826  -32.6903   25.0263 H   0  0  0  0  0  0
  -28.0782  -31.8376   26.5312 H   0  0  0  0  0  0
  -28.2622  -38.0098   24.7509 H   0  0  0  0  0  0
  -28.1058  -36.2634   24.6307 H   0  0  0  0  0  0
  -27.2299  -37.1493   25.8871 H   0  0  0  0  0  0
  -20.9261  -29.8763   21.6975 H   0  0  0  0  0  0
  -26.0200  -38.2891   24.1401 H   0  0  0  0  0  0
  -30.7546  -22.0544   21.9731 H   0  0  0  0  0  0
  -31.0527  -18.4856   18.6503 H   0  0  0  0  0  0
  -28.3422  -21.7259   22.7946 H   0  0  0  0  0  0
  -27.5660  -20.4535   23.8721 H   0  0  0  0  0  0
  -29.7064  -20.1930   25.1242 H   0  0  0  0  0  0
  -30.5066  -21.4617   24.0709 H   0  0  0  0  0  0
  -32.9685  -23.1057   21.7010 H   0  0  0  0  0  0
  -34.2214  -23.0164   20.4075 H   0  0  0  0  0  0
  -33.3294  -25.0499   19.3433 H   0  0  0  0  0  0
  -32.6913  -25.4250   20.9896 H   0  0  0  0  0  0
  -28.6881  -16.3716   19.3778 H   0  0  0  0  0  0
  -30.4452  -16.5160   19.0749 H   0  0  0  0  0  0
  -31.6061  -16.6851   21.6373 H   0  0  0  0  0  0
  -30.2284  -16.5274   22.7813 H   0  0  0  0  0  0
  -29.2797  -18.7658   23.1563 H   0  0  0  0  0  0
  -28.7207  -17.6587   21.3099 H   0  0  0  0  0  0
  -32.5907  -22.5997   18.7057 H   0  0  0  0  0  0
  -30.6965  -24.0582   20.6371 H   0  0  0  0  0  0
  -30.7290  -26.4877   19.3591 H   0  0  0  0  0  0
  -30.1437  -26.3726   17.7246 H   0  0  0  0  0  0
  -28.5282  -24.8137   19.7448 H   0  0  0  0  0  0
  -28.0323  -25.7097   18.3129 H   0  0  0  0  0  0
  -30.1625  -23.8806   18.1640 H   0  0  0  0  0  0
  -31.5540  -24.6461   17.8554 H   0  0  0  0  0  0
  1 25  1  0  0  0
  1 30  2  0  0  0
  1 89  1  0  0  0
  2  3  1  0  0  0
  2 25  1  0  0  0
  2 91  1  0  0  0
  2 92  1  0  0  0
  3  4  1  0  0  0
  3 93  1  0  0  0
  3 94  1  0  0  0
  4  5  1  0  0  0
  4 95  1  0  0  0
  4 96  1  0  0  0
  5  6  1  0  0  0
  5 26  1  0  0  0
  5 97  1  0  0  0
  6 25  1  0  0  0
  6 98  1  0  0  0
  6 99  1  0  0  0
  7  8  2  0  0  0
  7 26  1  0  0  0
  7 29  1  0  0  0
  8  9  1  0  0  0
  8 22  1  0  0  0
  9 10  1  0  0  0
  9 27  2  0  0  0
 10 11  2  0  0  0
 10 15  1  0  0  0
 11 12  1  0  0  0
 11100  1  0  0  0
 12 13  2  0  0  0
 12101  1  0  0  0
 13 14  1  0  0  0
 13 31  1  0  0  0
 14 15  2  0  0  0
 14102  1  0  0  0
 15103  1  0  0  0
 16 17  2  0  0  0
 16 21  1  0  0  0
 16 31  1  0  0  0
 17 18  1  0  0  0
 17104  1  0  0  0
 18 19  2  0  0  0
 18105  1  0  0  0
 19 20  1  0  0  0
 19 24  1  0  0  0
 20 21  2  0  0  0
 20106  1  0  0  0
 21 23  1  0  0  0
 22 28  1  0  0  0
 22 32  2  0  0  0
 26 27  1  0  0  0
 28107  1  0  0  0
 28108  1  0  0  0
 29109  1  0  0  0
 29110  1  0  0  0
 33 34  1  0  0  0
 33 66  1  0  0  0
 33 70  2  0  0  0
 34 36  1  0  0  0
 34 59  1  0  0  0
 34111  1  0  0  0
 35 44  2  0  0  0
 35 45  1  0  0  0
 35 68  1  0  0  0
 36 56  1  0  0  0
 36112  1  0  0  0
 37 39  1  0  0  0
 37 47  1  0  0  0
 37 66  1  0  0  0
 37113  1  0  0  0
 38 43  2  0  0  0
 38 46  1  0  0  0
 38 47  1  0  0  0
 39 64  1  0  0  0
 39 67  2  0  0  0
 40 52  1  0  0  0
 40 53  2  0  0  0
 40 58  1  0  0  0
 41114  1  0  0  0
 41115  1  0  0  0
 41116  1  0  0  0
 41 48  1  0  0  0
 42 43  1  0  0  0
 42 66  1  0  0  0
 42117  1  0  0  0
 42118  1  0  0  0
 43 44  1  0  0  0
 44119  1  0  0  0
 45 46  2  0  0  0
 45120  1  0  0  0
 46121  1  0  0  0
 47122  1  0  0  0
 47123  1  0  0  0
 48 56  1  0  0  0
 48 65  1  0  0  0
 48124  1  0  0  0
 49 50  1  0  0  0
 49 53  1  0  0  0
 49 64  1  0  0  0
 49125  1  0  0  0
 50 51  1  0  0  0
 50126  1  0  0  0
 50127  1  0  0  0
 51 52  1  0  0  0
 51128  1  0  0  0
 51129  1  0  0  0
 52130  1  0  0  0
 52131  1  0  0  0
 53 54  1  0  0  0
 54 55  2  0  0  0
 54132  1  0  0  0
 55 57  1  0  0  0
 55133  1  0  0  0
 56 69  2  0  0  0
 57 58  2  0  0  0
 57134  1  0  0  0
 58135  1  0  0  0
 59 60  1  0  0  0
 59 61  1  0  0  0
 59 62  1  0  0  0
 60136  1  0  0  0
 60137  1  0  0  0
 60138  1  0  0  0
 61139  1  0  0  0
 61140  1  0  0  0
 61141  1  0  0  0
 62142  1  0  0  0
 62143  1  0  0  0
 62144  1  0  0  0
 63 65  1  0  0  0
 63145  1  0  0  0
 63146  1  0  0  0
 63147  1  0  0  0
 64148  1  0  0  0
 65149  1  0  0  0
 68 87  1  0  0  0
 71 73  2  0  0  0
 71 75  1  0  0  0
 71150  1  0  0  0
 72 74  2  0  0  0
 72 88  1  0  0  0
 72151  1  0  0  0
 73 74  1  0  0  0
 73 82  1  0  0  0
 74 83  1  0  0  0
 75 88  2  0  0  0
 75 84  1  0  0  0
 76 77  1  0  0  0
 76 82  1  0  0  0
 76152  1  0  0  0
 76153  1  0  0  0
 77 82  1  0  0  0
 77154  1  0  0  0
 77155  1  0  0  0
 78 79  1  0  0  0
 78 84  1  0  0  0
 78156  1  0  0  0
 78157  1  0  0  0
 79 85  1  0  0  0
 79158  1  0  0  0
 79159  1  0  0  0
 80 83  1  0  0  0
 80 89  1  0  0  0
 80160  1  0  0  0
 80161  1  0  0  0
 81 83  1  0  0  0
 81 89  1  0  0  0
 81162  1  0  0  0
 81163  1  0  0  0
 82164  1  0  0  0
 83165  1  0  0  0
 84 85  1  0  0  0
 84166  1  0  0  0
 85 90  1  0  0  0
 85167  1  0  0  0
 86 87  1  0  0  0
 86 90  1  0  0  0
 86168  1  0  0  0
 86169  1  0  0  0
 87170  1  0  0  0
 87171  1  0  0  0
 90172  1  0  0  0
 90173  1  0  0  0
M  CHG  1  90   1
M  ISO  4   1 100  68 101  87 101  89 100
M  END
> <chiral flag>
0

> <version>
0

> <s_m_source_file>
/data/baiqing/PycharmProjects/Reinvent-master-3.2/result/LINK_invent/BTK/process_docking_weight1_custom_sum_contain_oxygen_bond_distance_aromatic_linkinvent_7_9_3/rearranged_h_0191.sdf

> <i_m_source_file_index>
85

> <r_mmod_Potential_Energy-OPLS-2005>
-182.997375488281

> <r_mmod_Stretch_Energy-OPLS-2005>
33.919849395752

> <r_mmod_Bend_Energy-OPLS-2005>
122.250205993652

> <r_mmod_Torsional_Energy-OPLS-2005>
347.782623291016

> <r_mmod_Improper_Torsional_Energy-OPLS-2005>
13.2332038879395

> <r_mmod_Van_der_Waal_Energy-OPLS-2005>
163.374328613281

> <r_mmod_Electrostatic_Energy-OPLS-2005>
-415.666442871094

> <r_mmod_Solvation_Energy-OPLS-2005>
-460.670776367188

> <b_mmod_Minimization_Converged-OPLS-2005>
0

> <r_mmod_RMS_Derivative-OPLS-2005>
1.23067390918732

$$$$
85
                    3D
 Structure written by MMmdl.
165174  0  0  1  0            999 V2000
  -30.6872  -14.6692   20.5065 C   0  0  0  0  0  0
  -30.4185  -12.4192   19.4667 C   0  0  0  0  0  0
  -29.4987  -12.5026   18.2307 C   0  0  0  0  0  0
  -28.0270  -12.3267   18.6499 C   0  0  0  0  0  0
  -27.6446  -13.2229   19.8578 C   0  0  2  0  0  0
  -28.6945  -13.1228   20.9902 C   0  0  0  0  0  0
  -25.2495  -13.8179   20.5664 C   0  0  0  0  0  0
  -24.1794  -13.0447   20.9273 C   0  0  0  0  0  0
  -24.6395  -11.6923   20.8864 C   0  0  0  0  0  0
  -23.9072  -10.4303   21.0492 C   0  0  0  0  0  0
  -24.3635   -9.4198   21.9244 C   0  0  0  0  0  0
  -23.6301   -8.2237   22.0770 C   0  0  0  0  0  0
  -22.4286   -8.0302   21.3555 C   0  0  0  0  0  0
  -21.9934   -9.0288   20.4664 C   0  0  0  0  0  0
  -22.7272  -10.2161   20.3099 C   0  0  0  0  0  0
  -21.6842   -6.0751   22.5279 C   0  0  0  0  0  0
  -21.4007   -6.5661   23.8217 C   0  0  0  0  0  0
  -21.3655   -5.6813   24.9178 C   0  0  0  0  0  0
  -21.6034   -4.3069   24.7236 C   0  0  0  0  0  0
  -21.8808   -3.8159   23.4355 C   0  0  0  0  0  0
  -21.9194   -4.6970   22.3412 C   0  0  0  0  0  0
  -22.7827  -13.5220   21.1931 C   0  0  0  0  0  0
  -22.1652   -4.2143   21.0987 F   0  0  0  0  0  0
  -21.5643   -3.4564   25.7758 F   0  0  0  0  0  0
  -29.9939  -13.4825   20.4092 N   0  0  0  0  0  0
  -26.2943  -12.9385   20.3364 N   0  0  0  0  0  0
  -25.9326  -11.6546   20.5898 N   0  0  0  0  0  0
  -22.0473  -12.8208   22.0479 N   0  0  0  0  0  0
  -25.4139  -15.1880   20.3869 N   0  0  0  0  0  0
  -31.8639  -14.7022   20.1343 O   0  0  0  0  0  0
  -21.6633   -6.8907   21.4245 O   0  0  0  0  0  0
  -22.3484  -14.5517   20.6758 O   0  0  0  0  0  0
  -24.6238  -31.8593   23.2040 C   0  0  0  0  0  0
  -25.9108  -32.4780   23.8357 C   0  0  1  0  0  0
  -27.2321  -27.3249   20.1057 C   0  0  0  0  0  0
  -25.5938  -33.8585   24.2294 N   0  0  0  0  0  0
  -23.4193  -30.4805   21.5462 C   0  0  2  0  0  0
  -24.8704  -28.9397   20.1086 C   0  0  0  0  0  0
  -22.7484  -29.4587   22.4948 C   0  0  0  0  0  0
  -18.0281  -28.1399   22.8480 C   0  0  0  0  0  0
  -24.1499  -36.7287   23.2631 C   0  0  0  0  0  0
  -25.9602  -30.7877   21.3818 C   0  0  0  0  0  0
  -26.0340  -29.4170   20.7214 C   0  0  0  0  0  0
  -27.2124  -28.6151   20.7201 C   0  0  0  0  0  0
  -26.0446  -26.9021   19.4626 C   0  0  0  0  0  0
  -24.8762  -27.6880   19.4766 C   0  0  0  0  0  0
  -23.6379  -29.8198   20.1594 C   0  0  0  0  0  0
  -25.4128  -36.3082   24.0319 C   0  0  1  0  0  0
  -20.5878  -28.3671   23.1330 C   0  0  2  0  0  0
  -20.6791  -26.9402   22.5433 C   0  0  0  0  0  0
  -19.5769  -26.6387   21.5237 C   0  0  0  0  0  0
  -18.1947  -26.7936   22.1637 C   0  0  0  0  0  0
  -19.1521  -28.8861   23.2887 C   0  0  0  0  0  0
  -18.9443  -30.1479   23.8874 C   0  0  0  0  0  0
  -17.6433  -30.6597   24.0556 C   0  0  0  0  0  0
  -25.9058  -34.9449   23.5103 C   0  0  0  0  0  0
  -16.5326  -29.9091   23.6335 C   0  0  0  0  0  0
  -16.7253  -28.6521   23.0330 C   0  0  0  0  0  0
  -26.4495  -31.6587   25.0725 C   0  0  0  0  0  0
  -25.3723  -31.3726   26.1446 C   0  0  0  0  0  0
  -27.0342  -30.3005   24.6211 C   0  0  0  0  0  0
  -27.6056  -32.4308   25.7495 C   0  0  0  0  0  0
  -27.5586  -37.1799   24.8466 C   0  0  0  0  0  0
  -21.4189  -29.3005   22.3716 N   0  0  0  0  0  0
  -26.4303  -37.3780   23.9400 N   0  0  0  0  0  0
  -24.6851  -31.0604   22.0991 N   0  0  0  0  0  0
  -23.4222  -28.8149   23.3020 O   0  0  0  0  0  0
  -28.3617  -26.4962   20.2115 O   0  0  0  0  0  0
  -26.5614  -34.8903   22.4663 O   0  0  0  0  0  0
  -23.5407  -32.1401   23.7362 O   0  0  0  0  0  0
  -27.9841  -21.4881   20.0841 C   0  0  0  0  0  0
  -27.6887  -22.8815   19.9981 C   0  0  0  0  0  0
  -29.3215  -21.0245   20.1064 C   0  0  0  0  0  0
  -28.7391  -23.8401   19.9515 C   0  0  0  0  0  0
  -30.3003  -22.0561   20.1945 C   0  0  0  0  0  0
  -28.9046  -16.2813   21.5009 C   0  0  0  0  0  0
  -30.6102  -17.1902   20.2115 C   0  0  0  0  0  0
  -28.7080  -17.8320   21.4001 C   0  0  1  0  0  0
  -26.2382  -23.2998   19.8426 C   0  0  0  0  0  0
  -31.7817  -21.7375   20.2780 C   0  0  0  0  0  0
  -28.4700  -18.4864   22.7659 C   0  0  0  0  0  0
  -29.6714  -19.5245   19.7286 C   0  0  0  0  0  0
  -28.5571  -25.3041   19.3657 C   0  0  0  0  0  0
  -30.0146  -23.3938   20.1203 N   0  0  0  0  0  0
  -30.0308  -15.8854   20.6449 N   0  0  0  0  0  0
  -29.9008  -18.4074   20.7399 N   0  3  2  0  0  0
  -31.4621  -12.5074   19.1596 H   0  0  0  0  0  0
  -30.3477  -11.4361   19.9361 H   0  0  0  0  0  0
  -29.7721  -11.7379   17.5031 H   0  0  0  0  0  0
  -29.6289  -13.4661   17.7318 H   0  0  0  0  0  0
  -27.8899  -11.2766   18.9129 H   0  0  0  0  0  0
  -27.3608  -12.5181   17.8077 H   0  0  0  0  0  0
  -27.6539  -14.2451   19.4833 H   0  0  0  0  0  0
  -28.7247  -12.1059   21.3837 H   0  0  0  0  0  0
  -28.4344  -13.7459   21.8420 H   0  0  0  0  0  0
  -25.2770   -9.5661   22.4854 H   0  0  0  0  0  0
  -23.9992   -7.4583   22.7447 H   0  0  0  0  0  0
  -21.0892   -8.8831   19.8944 H   0  0  0  0  0  0
  -22.3761  -10.9727   19.6224 H   0  0  0  0  0  0
  -21.1988   -7.6172   23.9708 H   0  0  0  0  0  0
  -21.1490   -6.0560   25.9072 H   0  0  0  0  0  0
  -22.0592   -2.7625   23.2871 H   0  0  0  0  0  0
  -22.4033  -11.9789   22.4749 H   0  0  0  0  0  0
  -21.1099  -13.1235   22.2699 H   0  0  0  0  0  0
  -24.6358  -15.8373   20.4263 H   0  0  0  0  0  0
  -26.2442  -15.6002   19.9857 H   0  0  0  0  0  0
  -26.7169  -32.5434   23.1096 H   0  0  0  0  0  0
  -25.0094  -33.9763   25.0442 H   0  0  0  0  0  0
  -22.7072  -31.2950   21.4048 H   0  0  0  0  0  0
  -23.3755  -35.9622   23.3302 H   0  0  0  0  0  0
  -24.3577  -36.8913   22.2041 H   0  0  0  0  0  0
  -23.7276  -37.6498   23.6652 H   0  0  0  0  0  0
  -26.1012  -31.5529   20.6160 H   0  0  0  0  0  0
  -26.8374  -30.8303   22.0173 H   0  0  0  0  0  0
  -28.1030  -28.9698   21.2183 H   0  0  0  0  0  0
  -25.9687  -25.9491   18.9647 H   0  0  0  0  0  0
  -23.9797  -27.3166   18.9991 H   0  0  0  0  0  0
  -23.7648  -30.6012   19.4091 H   0  0  0  0  0  0
  -22.7575  -29.2562   19.8519 H   0  0  0  0  0  0
  -25.1315  -36.1913   25.0809 H   0  0  0  0  0  0
  -20.9928  -28.3218   24.1464 H   0  0  0  0  0  0
  -20.5785  -26.2234   23.3602 H   0  0  0  0  0  0
  -21.6655  -26.7513   22.1163 H   0  0  0  0  0  0
  -19.6920  -25.6301   21.1274 H   0  0  0  0  0  0
  -19.6737  -27.3195   20.6770 H   0  0  0  0  0  0
  -17.4217  -26.6640   21.4037 H   0  0  0  0  0  0
  -18.0354  -26.0106   22.9065 H   0  0  0  0  0  0
  -19.7911  -30.7314   24.2204 H   0  0  0  0  0  0
  -17.4982  -31.6269   24.5172 H   0  0  0  0  0  0
  -15.5318  -30.2982   23.7704 H   0  0  0  0  0  0
  -15.8649  -28.0868   22.7034 H   0  0  0  0  0  0
  -24.5896  -30.7085   25.7781 H   0  0  0  0  0  0
  -24.8895  -32.2875   26.4864 H   0  0  0  0  0  0
  -25.8020  -30.8904   27.0228 H   0  0  0  0  0  0
  -26.2932  -29.6747   24.1227 H   0  0  0  0  0  0
  -27.4017  -29.7287   25.4744 H   0  0  0  0  0  0
  -27.8807  -30.4293   23.9469 H   0  0  0  0  0  0
  -27.2691  -33.3613   26.2080 H   0  0  0  0  0  0
  -28.3853  -32.6866   25.0310 H   0  0  0  0  0  0
  -28.0733  -31.8417   26.5401 H   0  0  0  0  0  0
  -28.2604  -38.0097   24.7489 H   0  0  0  0  0  0
  -28.1086  -36.2614   24.6313 H   0  0  0  0  0  0
  -27.2283  -37.1472   25.8869 H   0  0  0  0  0  0
  -20.9369  -29.8669   21.6882 H   0  0  0  0  0  0
  -26.0172  -38.2852   24.1385 H   0  0  0  0  0  0
  -27.1758  -20.7707   20.0217 H   0  0  0  0  0  0
  -29.1070  -15.9715   22.5287 H   0  0  0  0  0  0
  -27.9890  -15.7937   21.1837 H   0  0  0  0  0  0
  -30.6217  -17.2117   19.1214 H   0  0  0  0  0  0
  -31.6534  -17.2559   20.5246 H   0  0  0  0  0  0
  -27.8384  -18.0186   20.7657 H   0  0  0  0  0  0
  -25.5669  -22.5229   20.2089 H   0  0  0  0  0  0
  -26.0002  -23.4775   18.7922 H   0  0  0  0  0  0
  -26.0293  -24.2013   20.4193 H   0  0  0  0  0  0
  -32.2821  -22.4243   20.9598 H   0  0  0  0  0  0
  -32.2443  -21.8213   19.2929 H   0  0  0  0  0  0
  -31.9548  -20.7325   20.6580 H   0  0  0  0  0  0
  -27.5827  -18.0804   23.2545 H   0  0  0  0  0  0
  -28.3327  -19.5646   22.6712 H   0  0  0  0  0  0
  -29.3196  -18.3268   23.4296 H   0  0  0  0  0  0
  -30.5720  -19.5845   19.1171 H   0  0  0  0  0  0
  -28.9120  -19.1842   19.0233 H   0  0  0  0  0  0
  -27.8712  -25.2624   18.5228 H   0  0  0  0  0  0
  -29.5022  -25.5227   18.8676 H   0  0  0  0  0  0
  -30.4961  -18.7706   21.4676 H   0  0  0  0  0  0
  1 25  1  0  0  0
  1 30  2  0  0  0
  1 85  1  0  0  0
  2  3  1  0  0  0
  2 25  1  0  0  0
  2 87  1  0  0  0
  2 88  1  0  0  0
  3  4  1  0  0  0
  3 89  1  0  0  0
  3 90  1  0  0  0
  4  5  1  0  0  0
  4 91  1  0  0  0
  4 92  1  0  0  0
  5  6  1  0  0  0
  5 26  1  0  0  0
  5 93  1  0  0  0
  6 25  1  0  0  0
  6 94  1  0  0  0
  6 95  1  0  0  0
  7  8  2  0  0  0
  7 26  1  0  0  0
  7 29  1  0  0  0
  8  9  1  0  0  0
  8 22  1  0  0  0
  9 10  1  0  0  0
  9 27  2  0  0  0
 10 11  2  0  0  0
 10 15  1  0  0  0
 11 12  1  0  0  0
 11 96  1  0  0  0
 12 13  2  0  0  0
 12 97  1  0  0  0
 13 14  1  0  0  0
 13 31  1  0  0  0
 14 15  2  0  0  0
 14 98  1  0  0  0
 15 99  1  0  0  0
 16 17  2  0  0  0
 16 21  1  0  0  0
 16 31  1  0  0  0
 17 18  1  0  0  0
 17100  1  0  0  0
 18 19  2  0  0  0
 18101  1  0  0  0
 19 20  1  0  0  0
 19 24  1  0  0  0
 20 21  2  0  0  0
 20102  1  0  0  0
 21 23  1  0  0  0
 22 28  1  0  0  0
 22 32  2  0  0  0
 26 27  1  0  0  0
 28103  1  0  0  0
 28104  1  0  0  0
 29105  1  0  0  0
 29106  1  0  0  0
 33 34  1  0  0  0
 33 66  1  0  0  0
 33 70  2  0  0  0
 34 36  1  0  0  0
 34 59  1  0  0  0
 34107  1  0  0  0
 35 44  2  0  0  0
 35 45  1  0  0  0
 35 68  1  0  0  0
 36 56  1  0  0  0
 36108  1  0  0  0
 37 39  1  0  0  0
 37 47  1  0  0  0
 37 66  1  0  0  0
 37109  1  0  0  0
 38 43  2  0  0  0
 38 46  1  0  0  0
 38 47  1  0  0  0
 39 64  1  0  0  0
 39 67  2  0  0  0
 40 52  1  0  0  0
 40 53  2  0  0  0
 40 58  1  0  0  0
 41110  1  0  0  0
 41111  1  0  0  0
 41112  1  0  0  0
 41 48  1  0  0  0
 42 43  1  0  0  0
 42 66  1  0  0  0
 42113  1  0  0  0
 42114  1  0  0  0
 43 44  1  0  0  0
 44115  1  0  0  0
 45 46  2  0  0  0
 45116  1  0  0  0
 46117  1  0  0  0
 47118  1  0  0  0
 47119  1  0  0  0
 48 56  1  0  0  0
 48 65  1  0  0  0
 48120  1  0  0  0
 49 50  1  0  0  0
 49 53  1  0  0  0
 49 64  1  0  0  0
 49121  1  0  0  0
 50 51  1  0  0  0
 50122  1  0  0  0
 50123  1  0  0  0
 51 52  1  0  0  0
 51124  1  0  0  0
 51125  1  0  0  0
 52126  1  0  0  0
 52127  1  0  0  0
 53 54  1  0  0  0
 54 55  2  0  0  0
 54128  1  0  0  0
 55 57  1  0  0  0
 55129  1  0  0  0
 56 69  2  0  0  0
 57 58  2  0  0  0
 57130  1  0  0  0
 58131  1  0  0  0
 59 60  1  0  0  0
 59 61  1  0  0  0
 59 62  1  0  0  0
 60132  1  0  0  0
 60133  1  0  0  0
 60134  1  0  0  0
 61135  1  0  0  0
 61136  1  0  0  0
 61137  1  0  0  0
 62138  1  0  0  0
 62139  1  0  0  0
 62140  1  0  0  0
 63 65  1  0  0  0
 63141  1  0  0  0
 63142  1  0  0  0
 63143  1  0  0  0
 64144  1  0  0  0
 65145  1  0  0  0
 68 83  1  0  0  0
 71 72  2  0  0  0
 71 73  1  0  0  0
 71146  1  0  0  0
 72 74  1  0  0  0
 72 79  1  0  0  0
 73 75  2  0  0  0
 73 82  1  0  0  0
 74 83  1  0  0  0
 74 84  2  0  0  0
 75 80  1  0  0  0
 75 84  1  0  0  0
 76 78  1  0  0  0
 76 85  1  0  0  0
 76147  1  0  0  0
 76148  1  0  0  0
 77 85  1  0  0  0
 77 86  1  0  0  0
 77149  1  0  0  0
 77150  1  0  0  0
 78 81  1  0  0  0
 78 86  1  0  0  0
 78151  1  0  0  0
 79152  1  0  0  0
 79153  1  0  0  0
 79154  1  0  0  0
 80155  1  0  0  0
 80156  1  0  0  0
 80157  1  0  0  0
 81158  1  0  0  0
 81159  1  0  0  0
 81160  1  0  0  0
 82161  1  0  0  0
 82162  1  0  0  0
 82 86  1  0  0  0
 83163  1  0  0  0
 83164  1  0  0  0
 86165  1  0  0  0
M  CHG  1  86   1
M  ISO  4   1 100  68 101  83 101  85 100
M  END
> <chiral flag>
0

> <version>
0

> <s_m_source_file>
/data/baiqing/PycharmProjects/Reinvent-master-3.2/result/LINK_invent/BTK/process_docking_weight1_custom_sum_contain_oxygen_bond_distance_aromatic_linkinvent_7_9_3/rearranged_h_0191.sdf

> <i_m_source_file_index>
86

> <r_mmod_Potential_Energy-OPLS-2005>
30.7510471343994

> <r_mmod_Stretch_Energy-OPLS-2005>
84.3796997070312

> <r_mmod_Bend_Energy-OPLS-2005>
197.478805541992

> <r_mmod_Torsional_Energy-OPLS-2005>
345.773406982422

> <r_mmod_Improper_Torsional_Energy-OPLS-2005>
16.2977161407471

> <r_mmod_Van_der_Waal_Energy-OPLS-2005>
139.597106933594

> <r_mmod_Electrostatic_Energy-OPLS-2005>
-351.64501953125

> <r_mmod_Solvation_Energy-OPLS-2005>
-456.105804443359

> <b_mmod_Minimization_Converged-OPLS-2005>
0

> <r_mmod_RMS_Derivative-OPLS-2005>
4.25429010391235

$$$$
86
                    3D
 Structure written by MMmdl.
162171  0  0  1  0            999 V2000
  -30.6528  -14.6103   20.4378 C   0  0  0  0  0  0
  -30.4301  -12.3553   19.4545 C   0  0  0  0  0  0
  -29.5067  -12.4590   18.2230 C   0  0  0  0  0  0
  -28.0276  -12.3169   18.6362 C   0  0  0  0  0  0
  -27.6473  -13.2066   19.8505 C   0  0  2  0  0  0
  -28.6953  -13.1118   20.9816 C   0  0  0  0  0  0
  -25.2573  -13.8174   20.5684 C   0  0  0  0  0  0
  -24.1821  -13.0463   20.9180 C   0  0  0  0  0  0
  -24.6370  -11.6912   20.8736 C   0  0  0  0  0  0
  -23.9026  -10.4295   21.0409 C   0  0  0  0  0  0
  -24.3592   -9.4221   21.9186 C   0  0  0  0  0  0
  -23.6289   -8.2248   22.0764 C   0  0  0  0  0  0
  -22.4281   -8.0263   21.3535 C   0  0  0  0  0  0
  -21.9893   -9.0241   20.4653 C   0  0  0  0  0  0
  -22.7194  -10.2127   20.3049 C   0  0  0  0  0  0
  -21.6862   -6.0737   22.5283 C   0  0  0  0  0  0
  -21.4042   -6.5647   23.8216 C   0  0  0  0  0  0
  -21.3652   -5.6809   24.9177 C   0  0  0  0  0  0
  -21.6018   -4.3066   24.7238 C   0  0  0  0  0  0
  -21.8826   -3.8147   23.4378 C   0  0  0  0  0  0
  -21.9219   -4.6963   22.3421 C   0  0  0  0  0  0
  -22.7852  -13.5238   21.1834 C   0  0  0  0  0  0
  -22.1679   -4.2129   21.1001 F   0  0  0  0  0  0
  -21.5602   -3.4563   25.7758 F   0  0  0  0  0  0
  -30.0081  -13.4067   20.3951 N   0  0  0  0  0  0
  -26.2963  -12.9325   20.3283 N   0  0  0  0  0  0
  -25.9291  -11.6488   20.5750 N   0  0  0  0  0  0
  -22.0488  -12.8212   22.0341 N   0  0  0  0  0  0
  -25.4358  -15.1885   20.4076 N   0  0  0  0  0  0
  -31.8711  -14.6850   20.2635 O   0  0  0  0  0  0
  -21.6654   -6.8862   21.4227 O   0  0  0  0  0  0
  -22.3543  -14.5564   20.6699 O   0  0  0  0  0  0
  -24.6199  -31.8650   23.2092 C   0  0  0  0  0  0
  -25.9077  -32.4802   23.8393 C   0  0  1  0  0  0
  -27.2280  -27.3763   20.1337 C   0  0  0  0  0  0
  -25.5934  -33.8604   24.2321 N   0  0  0  0  0  0
  -23.4099  -30.4889   21.5507 C   0  0  2  0  0  0
  -24.8583  -28.9542   20.1136 C   0  0  0  0  0  0
  -22.7436  -29.4641   22.4982 C   0  0  0  0  0  0
  -18.0283  -28.1365   22.8491 C   0  0  0  0  0  0
  -24.1502  -36.7302   23.2636 C   0  0  0  0  0  0
  -25.9456  -30.8201   21.3703 C   0  0  0  0  0  0
  -26.0245  -29.4534   20.7090 C   0  0  0  0  0  0
  -27.2140  -28.6790   20.7024 C   0  0  0  0  0  0
  -26.0423  -26.9129   19.5189 C   0  0  0  0  0  0
  -24.8677  -27.6873   19.5092 C   0  0  0  0  0  0
  -23.6219  -29.8253   20.1645 C   0  0  0  0  0  0
  -25.4125  -36.3094   24.0329 C   0  0  1  0  0  0
  -20.5874  -28.3674   23.1333 C   0  0  2  0  0  0
  -20.6768  -26.9399   22.5457 C   0  0  0  0  0  0
  -19.5765  -26.6379   21.5223 C   0  0  0  0  0  0
  -18.1922  -26.7942   22.1579 C   0  0  0  0  0  0
  -19.1527  -28.8839   23.2910 C   0  0  0  0  0  0
  -18.9435  -30.1442   23.8906 C   0  0  0  0  0  0
  -17.6436  -30.6572   24.0563 C   0  0  0  0  0  0
  -25.9044  -34.9456   23.5119 C   0  0  0  0  0  0
  -16.5335  -29.9060   23.6332 C   0  0  0  0  0  0
  -16.7266  -28.6485   23.0348 C   0  0  0  0  0  0
  -26.4480  -31.6586   25.0732 C   0  0  0  0  0  0
  -25.3717  -31.3707   26.1452 C   0  0  0  0  0  0
  -27.0315  -30.3009   24.6166 C   0  0  0  0  0  0
  -27.6046  -32.4312   25.7499 C   0  0  0  0  0  0
  -27.5604  -37.1810   24.8450 C   0  0  0  0  0  0
  -21.4151  -29.3035   22.3714 N   0  0  0  0  0  0
  -26.4313  -37.3781   23.9393 N   0  0  0  0  0  0
  -24.6768  -31.0724   22.1005 N   0  0  0  0  0  0
  -23.4186  -28.8159   23.3014 O   0  0  0  0  0  0
  -28.3559  -26.5630   20.2025 O   0  0  0  0  0  0
  -26.5593  -34.8909   22.4664 O   0  0  0  0  0  0
  -23.5384  -32.1398   23.7465 O   0  0  0  0  0  0
  -27.6560  -21.0811   20.7631 C   0  0  0  0  0  0
  -28.8651  -16.9895   18.8350 C   0  0  0  0  0  0
  -27.8547  -19.5662   21.0172 C   0  0  0  0  0  0
  -30.2190  -16.3167   18.6564 C   0  0  0  0  0  0
  -29.9010  -20.5151   21.3329 C   0  0  0  0  0  0
  -29.0598  -21.7154   20.7874 C   0  0  2  0  0  0
  -29.0861  -16.8072   20.3426 C   0  0  2  0  0  0
  -29.7988  -17.9788   21.1086 C   0  0  0  0  0  0
  -29.3755  -24.3126   20.9043 C   0  0  0  0  0  0
  -28.1090  -25.1550   20.5248 C   0  0  0  0  0  0
  -29.9061  -15.6239   19.9089 N   0  0  0  0  0  0
  -29.2673  -19.3228   20.7330 N   0  0  0  0  0  0
  -29.1279  -22.9852   21.5943 N   0  3  0  0  0  0
  -31.4739  -12.4697   19.1549 H   0  0  0  0  0  0
  -30.3503  -11.3717   19.9220 H   0  0  0  0  0  0
  -29.7678  -11.6924   17.4906 H   0  0  0  0  0  0
  -29.6580  -13.4164   17.7273 H   0  0  0  0  0  0
  -27.8544  -11.2698   18.8801 H   0  0  0  0  0  0
  -27.3823  -12.5376   17.7855 H   0  0  0  0  0  0
  -27.6473  -14.2295   19.4805 H   0  0  0  0  0  0
  -28.6997  -12.1172   21.4311 H   0  0  0  0  0  0
  -28.4649  -13.8166   21.7816 H   0  0  0  0  0  0
  -25.2750   -9.5746   22.4736 H   0  0  0  0  0  0
  -24.0023   -7.4659   22.7493 H   0  0  0  0  0  0
  -21.0824   -8.8731   19.8967 H   0  0  0  0  0  0
  -22.3631  -10.9646   19.6152 H   0  0  0  0  0  0
  -21.2041   -7.6156   23.9700 H   0  0  0  0  0  0
  -21.1453   -6.0553   25.9072 H   0  0  0  0  0  0
  -22.0612   -2.7591   23.2901 H   0  0  0  0  0  0
  -22.4192  -11.9907   22.4728 H   0  0  0  0  0  0
  -21.1113  -13.1240   22.2574 H   0  0  0  0  0  0
  -24.6737  -15.8513   20.4935 H   0  0  0  0  0  0
  -26.2854  -15.6048   20.0487 H   0  0  0  0  0  0
  -26.7149  -32.5500   23.1158 H   0  0  0  0  0  0
  -25.0140  -33.9763   25.0508 H   0  0  0  0  0  0
  -22.7005  -31.3074   21.4136 H   0  0  0  0  0  0
  -23.3772  -35.9629   23.3291 H   0  0  0  0  0  0
  -24.3596  -36.8924   22.2051 H   0  0  0  0  0  0
  -23.7255  -37.6501   23.6659 H   0  0  0  0  0  0
  -26.0732  -31.5946   20.6122 H   0  0  0  0  0  0
  -26.8238  -30.8603   22.0023 H   0  0  0  0  0  0
  -28.1099  -29.0599   21.1713 H   0  0  0  0  0  0
  -26.0001  -25.9411   19.0506 H   0  0  0  0  0  0
  -23.9700  -27.2973   19.0482 H   0  0  0  0  0  0
  -23.7324  -30.6042   19.4089 H   0  0  0  0  0  0
  -22.7451  -29.2493   19.8666 H   0  0  0  0  0  0
  -25.1312  -36.1947   25.0836 H   0  0  0  0  0  0
  -20.9973  -28.3245   24.1438 H   0  0  0  0  0  0
  -20.5652  -26.2271   23.3633 H   0  0  0  0  0  0
  -21.6644  -26.7415   22.1264 H   0  0  0  0  0  0
  -19.6917  -25.6287   21.1258 H   0  0  0  0  0  0
  -19.6739  -27.3192   20.6754 H   0  0  0  0  0  0
  -17.4229  -26.6782   21.3923 H   0  0  0  0  0  0
  -18.0236  -26.0048   22.8919 H   0  0  0  0  0  0
  -19.7898  -30.7280   24.2283 H   0  0  0  0  0  0
  -17.4967  -31.6252   24.5168 H   0  0  0  0  0  0
  -15.5325  -30.2942   23.7655 H   0  0  0  0  0  0
  -15.8684  -28.0802   22.7045 H   0  0  0  0  0  0
  -24.6000  -30.6907   25.7816 H   0  0  0  0  0  0
  -24.8753  -32.2847   26.4729 H   0  0  0  0  0  0
  -25.8069  -30.9056   27.0307 H   0  0  0  0  0  0
  -26.2883  -29.6782   24.1175 H   0  0  0  0  0  0
  -27.3984  -29.7243   25.4670 H   0  0  0  0  0  0
  -27.8768  -30.4279   23.9395 H   0  0  0  0  0  0
  -27.2640  -33.3573   26.2137 H   0  0  0  0  0  0
  -28.3816  -32.6939   25.0309 H   0  0  0  0  0  0
  -28.0768  -31.8407   26.5360 H   0  0  0  0  0  0
  -28.2614  -38.0114   24.7495 H   0  0  0  0  0  0
  -28.1108  -36.2644   24.6275 H   0  0  0  0  0  0
  -27.2326  -37.1466   25.8853 H   0  0  0  0  0  0
  -20.9281  -29.8791   21.6976 H   0  0  0  0  0  0
  -26.0202  -38.2862   24.1374 H   0  0  0  0  0  0
  -26.9927  -21.4950   21.5246 H   0  0  0  0  0  0
  -27.1806  -21.2572   19.7953 H   0  0  0  0  0  0
  -28.0365  -16.3990   18.4364 H   0  0  0  0  0  0
  -28.8338  -18.0166   18.4687 H   0  0  0  0  0  0
  -27.1914  -18.9488   20.4087 H   0  0  0  0  0  0
  -27.6508  -19.3341   22.0659 H   0  0  0  0  0  0
  -31.0712  -16.9989   18.7226 H   0  0  0  0  0  0
  -30.2738  -15.6806   17.7726 H   0  0  0  0  0  0
  -29.8175  -20.4584   22.4225 H   0  0  0  0  0  0
  -30.9604  -20.5988   21.0834 H   0  0  0  0  0  0
  -29.3819  -21.9133   19.7638 H   0  0  0  0  0  0
  -28.1554  -16.5160   20.8276 H   0  0  0  0  0  0
  -30.8714  -17.9681   20.9091 H   0  0  0  0  0  0
  -29.6890  -17.8403   22.1845 H   0  0  0  0  0  0
  -29.9437  -24.9140   21.6184 H   0  0  0  0  0  0
  -30.0317  -24.1866   20.0412 H   0  0  0  0  0  0
  -27.4149  -25.1265   21.3681 H   0  0  0  0  0  0
  -27.6164  -24.6534   19.6935 H   0  0  0  0  0  0
  -29.9179  -22.8584   22.2073 H   0  0  0  0  0  0
  -28.3273  -23.0535   22.2021 H   0  0  0  0  0  0
  1 25  1  0  0  0
  1 30  2  0  0  0
  1 81  1  0  0  0
  2  3  1  0  0  0
  2 25  1  0  0  0
  2 84  1  0  0  0
  2 85  1  0  0  0
  3  4  1  0  0  0
  3 86  1  0  0  0
  3 87  1  0  0  0
  4  5  1  0  0  0
  4 88  1  0  0  0
  4 89  1  0  0  0
  5  6  1  0  0  0
  5 26  1  0  0  0
  5 90  1  0  0  0
  6 25  1  0  0  0
  6 91  1  0  0  0
  6 92  1  0  0  0
  7  8  2  0  0  0
  7 26  1  0  0  0
  7 29  1  0  0  0
  8  9  1  0  0  0
  8 22  1  0  0  0
  9 10  1  0  0  0
  9 27  2  0  0  0
 10 11  2  0  0  0
 10 15  1  0  0  0
 11 12  1  0  0  0
 11 93  1  0  0  0
 12 13  2  0  0  0
 12 94  1  0  0  0
 13 14  1  0  0  0
 13 31  1  0  0  0
 14 15  2  0  0  0
 14 95  1  0  0  0
 15 96  1  0  0  0
 16 17  2  0  0  0
 16 21  1  0  0  0
 16 31  1  0  0  0
 17 18  1  0  0  0
 17 97  1  0  0  0
 18 19  2  0  0  0
 18 98  1  0  0  0
 19 20  1  0  0  0
 19 24  1  0  0  0
 20 21  2  0  0  0
 20 99  1  0  0  0
 21 23  1  0  0  0
 22 28  1  0  0  0
 22 32  2  0  0  0
 26 27  1  0  0  0
 28100  1  0  0  0
 28101  1  0  0  0
 29102  1  0  0  0
 29103  1  0  0  0
 33 34  1  0  0  0
 33 66  1  0  0  0
 33 70  2  0  0  0
 34 36  1  0  0  0
 34 59  1  0  0  0
 34104  1  0  0  0
 35 44  2  0  0  0
 35 45  1  0  0  0
 35 68  1  0  0  0
 36 56  1  0  0  0
 36105  1  0  0  0
 37 39  1  0  0  0
 37 47  1  0  0  0
 37 66  1  0  0  0
 37106  1  0  0  0
 38 43  2  0  0  0
 38 46  1  0  0  0
 38 47  1  0  0  0
 39 64  1  0  0  0
 39 67  2  0  0  0
 40 52  1  0  0  0
 40 53  2  0  0  0
 40 58  1  0  0  0
 41107  1  0  0  0
 41108  1  0  0  0
 41109  1  0  0  0
 41 48  1  0  0  0
 42 43  1  0  0  0
 42 66  1  0  0  0
 42110  1  0  0  0
 42111  1  0  0  0
 43 44  1  0  0  0
 44112  1  0  0  0
 45 46  2  0  0  0
 45113  1  0  0  0
 46114  1  0  0  0
 47115  1  0  0  0
 47116  1  0  0  0
 48 56  1  0  0  0
 48 65  1  0  0  0
 48117  1  0  0  0
 49 50  1  0  0  0
 49 53  1  0  0  0
 49 64  1  0  0  0
 49118  1  0  0  0
 50 51  1  0  0  0
 50119  1  0  0  0
 50120  1  0  0  0
 51 52  1  0  0  0
 51121  1  0  0  0
 51122  1  0  0  0
 52123  1  0  0  0
 52124  1  0  0  0
 53 54  1  0  0  0
 54 55  2  0  0  0
 54125  1  0  0  0
 55 57  1  0  0  0
 55126  1  0  0  0
 56 69  2  0  0  0
 57 58  2  0  0  0
 57127  1  0  0  0
 58128  1  0  0  0
 59 60  1  0  0  0
 59 61  1  0  0  0
 59 62  1  0  0  0
 60129  1  0  0  0
 60130  1  0  0  0
 60131  1  0  0  0
 61132  1  0  0  0
 61133  1  0  0  0
 61134  1  0  0  0
 62135  1  0  0  0
 62136  1  0  0  0
 62137  1  0  0  0
 63 65  1  0  0  0
 63138  1  0  0  0
 63139  1  0  0  0
 63140  1  0  0  0
 64141  1  0  0  0
 65142  1  0  0  0
 68 80  1  0  0  0
 71 73  1  0  0  0
 71 76  1  0  0  0
 71143  1  0  0  0
 71144  1  0  0  0
 72 74  1  0  0  0
 72 77  1  0  0  0
 72145  1  0  0  0
 72146  1  0  0  0
 73 82  1  0  0  0
 73147  1  0  0  0
 73148  1  0  0  0
 74 81  1  0  0  0
 74149  1  0  0  0
 74150  1  0  0  0
 75 76  1  0  0  0
 75 82  1  0  0  0
 75151  1  0  0  0
 75152  1  0  0  0
 76 83  1  0  0  0
 76153  1  0  0  0
 77 78  1  0  0  0
 77 81  1  0  0  0
 77154  1  0  0  0
 78 82  1  0  0  0
 78155  1  0  0  0
 78156  1  0  0  0
 79 80  1  0  0  0
 79 83  1  0  0  0
 79157  1  0  0  0
 79158  1  0  0  0
 80159  1  0  0  0
 80160  1  0  0  0
 83161  1  0  0  0
 83162  1  0  0  0
M  CHG  1  83   1
M  ISO  4   1 100  68 101  80 101  81 100
M  END
> <chiral flag>
0

> <version>
0

> <s_m_source_file>
/data/baiqing/PycharmProjects/Reinvent-master-3.2/result/LINK_invent/BTK/process_docking_weight1_custom_sum_contain_oxygen_bond_distance_aromatic_linkinvent_7_9_3/rearranged_h_0191.sdf

> <i_m_source_file_index>
87

> <r_mmod_Potential_Energy-OPLS-2005>
156.448745727539

> <r_mmod_Stretch_Energy-OPLS-2005>
59.8084564208984

> <r_mmod_Bend_Energy-OPLS-2005>
178.689605712891

> <r_mmod_Torsional_Energy-OPLS-2005>
388.052978515625

> <r_mmod_Improper_Torsional_Energy-OPLS-2005>
32.8294677734375

> <r_mmod_Van_der_Waal_Energy-OPLS-2005>
117.305740356445

> <r_mmod_Electrostatic_Energy-OPLS-2005>
-212.795822143555

> <r_mmod_Solvation_Energy-OPLS-2005>
-452.071136474609

> <b_mmod_Minimization_Converged-OPLS-2005>
0

> <r_mmod_RMS_Derivative-OPLS-2005>
3.77969551086426

$$$$
87
                    3D
 Structure written by MMmdl.
161169  0  0  1  0            999 V2000
  -30.6928  -14.5907   20.4946 C   0  0  0  0  0  0
  -30.4159  -12.3625   19.4527 C   0  0  0  0  0  0
  -29.4970  -12.4924   18.2213 C   0  0  0  0  0  0
  -28.0211  -12.3434   18.6369 C   0  0  0  0  0  0
  -27.6481  -13.2239   19.8605 C   0  0  2  0  0  0
  -28.6947  -13.1101   20.9907 C   0  0  0  0  0  0
  -25.2536  -13.8194   20.5717 C   0  0  0  0  0  0
  -24.1811  -13.0443   20.9196 C   0  0  0  0  0  0
  -24.6394  -11.6916   20.8753 C   0  0  0  0  0  0
  -23.9072  -10.4294   21.0415 C   0  0  0  0  0  0
  -24.3622   -9.4207   21.9191 C   0  0  0  0  0  0
  -23.6296   -8.2244   22.0759 C   0  0  0  0  0  0
  -22.4277   -8.0285   21.3550 C   0  0  0  0  0  0
  -21.9915   -9.0260   20.4652 C   0  0  0  0  0  0
  -22.7246  -10.2137   20.3061 C   0  0  0  0  0  0
  -21.6851   -6.0739   22.5283 C   0  0  0  0  0  0
  -21.4014   -6.5642   23.8217 C   0  0  0  0  0  0
  -21.3660   -5.6794   24.9179 C   0  0  0  0  0  0
  -21.6041   -4.3057   24.7226 C   0  0  0  0  0  0
  -21.8818   -3.8150   23.4347 C   0  0  0  0  0  0
  -21.9193   -4.6968   22.3405 C   0  0  0  0  0  0
  -22.7829  -13.5230   21.1855 C   0  0  0  0  0  0
  -22.1660   -4.2154   21.0985 F   0  0  0  0  0  0
  -21.5629   -3.4542   25.7739 F   0  0  0  0  0  0
  -30.0088  -13.4092   20.4099 N   0  0  0  0  0  0
  -26.2972  -12.9392   20.3348 N   0  0  0  0  0  0
  -25.9326  -11.6537   20.5786 N   0  0  0  0  0  0
  -22.0478  -12.8220   22.0413 N   0  0  0  0  0  0
  -25.4240  -15.1912   20.4150 N   0  0  0  0  0  0
  -31.8745  -14.6657   20.1435 O   0  0  0  0  0  0
  -21.6641   -6.8879   21.4242 O   0  0  0  0  0  0
  -22.3517  -14.5541   20.6712 O   0  0  0  0  0  0
  -24.6227  -31.8625   23.2055 C   0  0  0  0  0  0
  -25.9089  -32.4790   23.8373 C   0  0  1  0  0  0
  -27.2196  -27.3529   20.1184 C   0  0  0  0  0  0
  -25.5921  -33.8590   24.2301 N   0  0  0  0  0  0
  -23.4150  -30.4858   21.5469 C   0  0  2  0  0  0
  -24.8608  -28.9430   20.1125 C   0  0  0  0  0  0
  -22.7459  -29.4630   22.4951 C   0  0  0  0  0  0
  -18.0284  -28.1379   22.8486 C   0  0  0  0  0  0
  -24.1490  -36.7303   23.2639 C   0  0  0  0  0  0
  -25.9520  -30.8043   21.3703 C   0  0  0  0  0  0
  -26.0270  -29.4331   20.7148 C   0  0  0  0  0  0
  -27.2137  -28.6489   20.7083 C   0  0  0  0  0  0
  -26.0390  -26.9056   19.4894 C   0  0  0  0  0  0
  -24.8661  -27.6836   19.4923 C   0  0  0  0  0  0
  -23.6278  -29.8203   20.1616 C   0  0  0  0  0  0
  -25.4112  -36.3091   24.0331 C   0  0  1  0  0  0
  -20.5881  -28.3676   23.1299 C   0  0  2  0  0  0
  -20.6775  -26.9402   22.5416 C   0  0  0  0  0  0
  -19.5753  -26.6382   21.5217 C   0  0  0  0  0  0
  -18.1928  -26.7923   22.1625 C   0  0  0  0  0  0
  -19.1537  -28.8845   23.2891 C   0  0  0  0  0  0
  -18.9461  -30.1446   23.8901 C   0  0  0  0  0  0
  -17.6463  -30.6584   24.0558 C   0  0  0  0  0  0
  -25.9047  -34.9455   23.5117 C   0  0  0  0  0  0
  -16.5353  -29.9080   23.6332 C   0  0  0  0  0  0
  -16.7274  -28.6498   23.0351 C   0  0  0  0  0  0
  -26.4493  -31.6587   25.0730 C   0  0  0  0  0  0
  -25.3741  -31.3702   26.1470 C   0  0  0  0  0  0
  -27.0324  -30.3019   24.6144 C   0  0  0  0  0  0
  -27.6070  -32.4308   25.7487 C   0  0  0  0  0  0
  -27.5578  -37.1802   24.8466 C   0  0  0  0  0  0
  -21.4179  -29.3034   22.3699 N   0  0  0  0  0  0
  -26.4291  -37.3781   23.9408 N   0  0  0  0  0  0
  -24.6819  -31.0668   22.0984 N   0  0  0  0  0  0
  -23.4199  -28.8165   23.3015 O   0  0  0  0  0  0
  -28.3344  -26.5184   20.1366 O   0  0  0  0  0  0
  -26.5614  -34.8910   22.4683 O   0  0  0  0  0  0
  -23.5401  -32.1408   23.7408 O   0  0  0  0  0  0
  -30.5223  -16.6131   21.8210 C   0  0  0  0  0  0
  -29.7052  -16.6068   19.5723 C   0  0  0  0  0  0
  -29.7202  -17.9287   22.0609 C   0  0  0  0  0  0
  -28.9411  -17.9411   19.8726 C   0  0  0  0  0  0
  -30.7542  -21.4934   19.9504 C   0  0  0  0  0  0
  -28.9704  -20.0816   21.1576 C   0  0  0  0  0  0
  -28.8206  -23.9391   20.0422 C   0  0  0  0  0  0
  -28.1401  -25.1879   20.7352 C   0  0  0  0  0  0
  -29.2446  -21.3471   20.2295 C   0  0  1  0  0  0
  -29.9907  -15.7437   20.7485 N   0  0  0  0  0  0
  -29.6467  -18.7756   20.8574 N   0  0  0  0  0  0
  -28.6747  -22.6316   20.8045 N   0  3  0  0  0  0
  -31.4619  -12.4467   19.1531 H   0  0  0  0  0  0
  -30.3156  -11.3757   19.9071 H   0  0  0  0  0  0
  -29.7530  -11.7372   17.4770 H   0  0  0  0  0  0
  -29.6502  -13.4606   17.7416 H   0  0  0  0  0  0
  -27.8538  -11.2923   18.8745 H   0  0  0  0  0  0
  -27.3660  -12.5708   17.7952 H   0  0  0  0  0  0
  -27.6574  -14.2549   19.5095 H   0  0  0  0  0  0
  -28.6935  -12.1081   21.4223 H   0  0  0  0  0  0
  -28.4582  -13.7960   21.8061 H   0  0  0  0  0  0
  -25.2768   -9.5684   22.4766 H   0  0  0  0  0  0
  -24.0007   -7.4635   22.7477 H   0  0  0  0  0  0
  -21.0847   -8.8779   19.8957 H   0  0  0  0  0  0
  -22.3706  -10.9678   19.6171 H   0  0  0  0  0  0
  -21.2005   -7.6149   23.9720 H   0  0  0  0  0  0
  -21.1482   -6.0526   25.9081 H   0  0  0  0  0  0
  -22.0594   -2.7612   23.2849 H   0  0  0  0  0  0
  -22.4093  -11.9868   22.4787 H   0  0  0  0  0  0
  -21.1101  -13.1244   22.2633 H   0  0  0  0  0  0
  -24.6608  -15.8481   20.5357 H   0  0  0  0  0  0
  -26.2874  -15.6327   20.1257 H   0  0  0  0  0  0
  -26.7153  -32.5470   23.1114 H   0  0  0  0  0  0
  -25.0058  -33.9749   25.0439 H   0  0  0  0  0  0
  -22.7078  -31.3053   21.4046 H   0  0  0  0  0  0
  -23.3744  -35.9645   23.3323 H   0  0  0  0  0  0
  -24.3583  -36.8909   22.2051 H   0  0  0  0  0  0
  -23.7258  -37.6516   23.6652 H   0  0  0  0  0  0
  -26.0781  -31.5675   20.6014 H   0  0  0  0  0  0
  -26.8350  -30.8546   21.9957 H   0  0  0  0  0  0
  -28.1107  -29.0185   21.1848 H   0  0  0  0  0  0
  -26.0165  -25.9409   19.0022 H   0  0  0  0  0  0
  -23.9713  -27.3048   19.0180 H   0  0  0  0  0  0
  -23.7427  -30.5974   19.4047 H   0  0  0  0  0  0
  -22.7492  -29.2470   19.8605 H   0  0  0  0  0  0
  -25.1290  -36.1949   25.0823 H   0  0  0  0  0  0
  -20.9974  -28.3241   24.1423 H   0  0  0  0  0  0
  -20.5689  -26.2277   23.3608 H   0  0  0  0  0  0
  -21.6639  -26.7439   22.1198 H   0  0  0  0  0  0
  -19.6917  -25.6300   21.1234 H   0  0  0  0  0  0
  -19.6698  -27.3203   20.6759 H   0  0  0  0  0  0
  -17.4204  -26.6681   21.4020 H   0  0  0  0  0  0
  -18.0318  -26.0062   22.9020 H   0  0  0  0  0  0
  -19.7939  -30.7261   24.2270 H   0  0  0  0  0  0
  -17.5019  -31.6264   24.5156 H   0  0  0  0  0  0
  -15.5356  -30.2979   23.7657 H   0  0  0  0  0  0
  -15.8677  -28.0819   22.7067 H   0  0  0  0  0  0
  -24.5922  -30.7039   25.7807 H   0  0  0  0  0  0
  -24.8916  -32.2851   26.4918 H   0  0  0  0  0  0
  -25.8078  -30.8874   27.0236 H   0  0  0  0  0  0
  -26.2874  -29.6772   24.1199 H   0  0  0  0  0  0
  -27.4078  -29.7271   25.4622 H   0  0  0  0  0  0
  -27.8721  -30.4329   23.9314 H   0  0  0  0  0  0
  -27.2705  -33.3617   26.2064 H   0  0  0  0  0  0
  -28.3870  -32.6854   25.0296 H   0  0  0  0  0  0
  -28.0740  -31.8423   26.5397 H   0  0  0  0  0  0
  -28.2597  -38.0097   24.7505 H   0  0  0  0  0  0
  -28.1067  -36.2625   24.6293 H   0  0  0  0  0  0
  -27.2294  -37.1457   25.8869 H   0  0  0  0  0  0
  -20.9353  -29.8759   21.6910 H   0  0  0  0  0  0
  -26.0179  -38.2860   24.1400 H   0  0  0  0  0  0
  -30.5491  -16.0427   22.7516 H   0  0  0  0  0  0
  -31.5604  -16.8712   21.6000 H   0  0  0  0  0  0
  -30.6453  -16.8499   19.0721 H   0  0  0  0  0  0
  -29.1284  -16.0307   18.8468 H   0  0  0  0  0  0
  -30.2106  -18.4842   22.8629 H   0  0  0  0  0  0
  -28.7177  -17.6921   22.4238 H   0  0  0  0  0  0
  -27.9319  -17.7158   20.2239 H   0  0  0  0  0  0
  -28.8233  -18.5027   18.9445 H   0  0  0  0  0  0
  -31.1633  -20.5782   19.5226 H   0  0  0  0  0  0
  -31.3104  -21.7052   20.8637 H   0  0  0  0  0  0
  -30.9620  -22.2872   19.2343 H   0  0  0  0  0  0
  -27.8955  -19.9146   21.2466 H   0  0  0  0  0  0
  -29.2941  -20.3757   22.1574 H   0  0  0  0  0  0
  -29.8784  -24.1634   19.9142 H   0  0  0  0  0  0
  -28.4069  -23.8160   19.0409 H   0  0  0  0  0  0
  -28.5319  -25.2646   21.7498 H   0  0  0  0  0  0
  -27.0808  -24.9643   20.8672 H   0  0  0  0  0  0
  -28.7452  -21.1747   19.2745 H   0  0  0  0  0  0
  -27.6890  -22.4704   20.9485 H   0  0  0  0  0  0
  -29.0773  -22.7579   21.7205 H   0  0  0  0  0  0
  1 25  1  0  0  0
  1 30  2  0  0  0
  1 80  1  0  0  0
  2  3  1  0  0  0
  2 25  1  0  0  0
  2 83  1  0  0  0
  2 84  1  0  0  0
  3  4  1  0  0  0
  3 85  1  0  0  0
  3 86  1  0  0  0
  4  5  1  0  0  0
  4 87  1  0  0  0
  4 88  1  0  0  0
  5  6  1  0  0  0
  5 26  1  0  0  0
  5 89  1  0  0  0
  6 25  1  0  0  0
  6 90  1  0  0  0
  6 91  1  0  0  0
  7  8  2  0  0  0
  7 26  1  0  0  0
  7 29  1  0  0  0
  8  9  1  0  0  0
  8 22  1  0  0  0
  9 10  1  0  0  0
  9 27  2  0  0  0
 10 11  2  0  0  0
 10 15  1  0  0  0
 11 12  1  0  0  0
 11 92  1  0  0  0
 12 13  2  0  0  0
 12 93  1  0  0  0
 13 14  1  0  0  0
 13 31  1  0  0  0
 14 15  2  0  0  0
 14 94  1  0  0  0
 15 95  1  0  0  0
 16 17  2  0  0  0
 16 21  1  0  0  0
 16 31  1  0  0  0
 17 18  1  0  0  0
 17 96  1  0  0  0
 18 19  2  0  0  0
 18 97  1  0  0  0
 19 20  1  0  0  0
 19 24  1  0  0  0
 20 21  2  0  0  0
 20 98  1  0  0  0
 21 23  1  0  0  0
 22 28  1  0  0  0
 22 32  2  0  0  0
 26 27  1  0  0  0
 28 99  1  0  0  0
 28100  1  0  0  0
 29101  1  0  0  0
 29102  1  0  0  0
 33 34  1  0  0  0
 33 66  1  0  0  0
 33 70  2  0  0  0
 34 36  1  0  0  0
 34 59  1  0  0  0
 34103  1  0  0  0
 35 44  2  0  0  0
 35 45  1  0  0  0
 35 68  1  0  0  0
 36 56  1  0  0  0
 36104  1  0  0  0
 37 39  1  0  0  0
 37 47  1  0  0  0
 37 66  1  0  0  0
 37105  1  0  0  0
 38 43  2  0  0  0
 38 46  1  0  0  0
 38 47  1  0  0  0
 39 64  1  0  0  0
 39 67  2  0  0  0
 40 52  1  0  0  0
 40 53  2  0  0  0
 40 58  1  0  0  0
 41106  1  0  0  0
 41107  1  0  0  0
 41108  1  0  0  0
 41 48  1  0  0  0
 42 43  1  0  0  0
 42 66  1  0  0  0
 42109  1  0  0  0
 42110  1  0  0  0
 43 44  1  0  0  0
 44111  1  0  0  0
 45 46  2  0  0  0
 45112  1  0  0  0
 46113  1  0  0  0
 47114  1  0  0  0
 47115  1  0  0  0
 48 56  1  0  0  0
 48 65  1  0  0  0
 48116  1  0  0  0
 49 50  1  0  0  0
 49 53  1  0  0  0
 49 64  1  0  0  0
 49117  1  0  0  0
 50 51  1  0  0  0
 50118  1  0  0  0
 50119  1  0  0  0
 51 52  1  0  0  0
 51120  1  0  0  0
 51121  1  0  0  0
 52122  1  0  0  0
 52123  1  0  0  0
 53 54  1  0  0  0
 54 55  2  0  0  0
 54124  1  0  0  0
 55 57  1  0  0  0
 55125  1  0  0  0
 56 69  2  0  0  0
 57 58  2  0  0  0
 57126  1  0  0  0
 58127  1  0  0  0
 59 60  1  0  0  0
 59 61  1  0  0  0
 59 62  1  0  0  0
 60128  1  0  0  0
 60129  1  0  0  0
 60130  1  0  0  0
 61131  1  0  0  0
 61132  1  0  0  0
 61133  1  0  0  0
 62134  1  0  0  0
 62135  1  0  0  0
 62136  1  0  0  0
 63 65  1  0  0  0
 63137  1  0  0  0
 63138  1  0  0  0
 63139  1  0  0  0
 64140  1  0  0  0
 65141  1  0  0  0
 68 78  1  0  0  0
 71 73  1  0  0  0
 71 80  1  0  0  0
 71142  1  0  0  0
 71143  1  0  0  0
 72 74  1  0  0  0
 72 80  1  0  0  0
 72144  1  0  0  0
 72145  1  0  0  0
 73 81  1  0  0  0
 73146  1  0  0  0
 73147  1  0  0  0
 74 81  1  0  0  0
 74148  1  0  0  0
 74149  1  0  0  0
 75150  1  0  0  0
 75151  1  0  0  0
 75152  1  0  0  0
 75 79  1  0  0  0
 76 79  1  0  0  0
 76 81  1  0  0  0
 76153  1  0  0  0
 76154  1  0  0  0
 77 78  1  0  0  0
 77 82  1  0  0  0
 77155  1  0  0  0
 77156  1  0  0  0
 78157  1  0  0  0
 78158  1  0  0  0
 79 82  1  0  0  0
 79159  1  0  0  0
 82160  1  0  0  0
 82161  1  0  0  0
M  CHG  1  82   1
M  ISO  4   1 100  68 101  78 101  80 100
M  END
> <chiral flag>
0

> <version>
0

> <s_m_source_file>
/data/baiqing/PycharmProjects/Reinvent-master-3.2/result/LINK_invent/BTK/process_docking_weight1_custom_sum_contain_oxygen_bond_distance_aromatic_linkinvent_7_9_3/rearranged_h_0191.sdf

> <i_m_source_file_index>
88

> <r_mmod_Potential_Energy-OPLS-2005>
125.400688171387

> <r_mmod_Stretch_Energy-OPLS-2005>
69.2962036132812

> <r_mmod_Bend_Energy-OPLS-2005>
136.212692260742

> <r_mmod_Torsional_Energy-OPLS-2005>
382.776733398438

> <r_mmod_Improper_Torsional_Energy-OPLS-2005>
10.1121349334717

> <r_mmod_Van_der_Waal_Energy-OPLS-2005>
134.239807128906

> <r_mmod_Electrostatic_Energy-OPLS-2005>
-198.2216796875

> <r_mmod_Solvation_Energy-OPLS-2005>
-447.389221191406

> <b_mmod_Minimization_Converged-OPLS-2005>
0

> <r_mmod_RMS_Derivative-OPLS-2005>
1.07098305225372

$$$$
88
                    3D
 Structure written by MMmdl.
165175  0  0  1  0            999 V2000
  -30.7674  -14.3615   20.7083 C   0  0  0  0  0  0
  -30.4242  -12.3019   19.3835 C   0  0  0  0  0  0
  -29.4831  -12.5313   18.1872 C   0  0  0  0  0  0
  -28.0090  -12.3802   18.6077 C   0  0  0  0  0  0
  -27.6678  -13.1979   19.8802 C   0  0  2  0  0  0
  -28.7075  -12.9265   20.9884 C   0  0  0  0  0  0
  -25.2587  -13.8098   20.5591 C   0  0  0  0  0  0
  -24.1849  -13.0411   20.9177 C   0  0  0  0  0  0
  -24.6402  -11.6878   20.8753 C   0  0  0  0  0  0
  -23.9065  -10.4271   21.0413 C   0  0  0  0  0  0
  -24.3623   -9.4184   21.9185 C   0  0  0  0  0  0
  -23.6290   -8.2229   22.0767 C   0  0  0  0  0  0
  -22.4275   -8.0273   21.3546 C   0  0  0  0  0  0
  -21.9906   -9.0247   20.4653 C   0  0  0  0  0  0
  -22.7246  -10.2115   20.3056 C   0  0  0  0  0  0
  -21.6838   -6.0736   22.5279 C   0  0  0  0  0  0
  -21.4009   -6.5642   23.8213 C   0  0  0  0  0  0
  -21.3662   -5.6797   24.9176 C   0  0  0  0  0  0
  -21.6044   -4.3060   24.7224 C   0  0  0  0  0  0
  -21.8818   -3.8148   23.4347 C   0  0  0  0  0  0
  -21.9190   -4.6966   22.3402 C   0  0  0  0  0  0
  -22.7877  -13.5226   21.1862 C   0  0  0  0  0  0
  -22.1659   -4.2156   21.0977 F   0  0  0  0  0  0
  -21.5626   -3.4544   25.7735 F   0  0  0  0  0  0
  -30.0489  -13.2354   20.4544 N   0  0  0  0  0  0
  -26.3052  -12.9287   20.3375 N   0  0  0  0  0  0
  -25.9330  -11.6450   20.5778 N   0  0  0  0  0  0
  -22.0526  -12.8213   22.0413 N   0  0  0  0  0  0
  -25.4267  -15.1774   20.3784 N   0  0  0  0  0  0
  -31.7786  -14.6808   20.0738 O   0  0  0  0  0  0
  -21.6629   -6.8876   21.4243 O   0  0  0  0  0  0
  -22.3553  -14.5534   20.6720 O   0  0  0  0  0  0
  -24.6115  -31.8710   23.2146 C   0  0  0  0  0  0
  -25.9021  -32.4832   23.8432 C   0  0  1  0  0  0
  -27.2359  -27.4553   20.0837 C   0  0  0  0  0  0
  -25.5889  -33.8631   24.2356 N   0  0  0  0  0  0
  -23.3982  -30.4960   21.5553 C   0  0  2  0  0  0
  -24.8439  -28.9650   20.1199 C   0  0  0  0  0  0
  -22.7392  -29.4674   22.5015 C   0  0  0  0  0  0
  -18.0272  -28.1366   22.8498 C   0  0  0  0  0  0
  -24.1484  -36.7318   23.2642 C   0  0  0  0  0  0
  -25.9261  -30.8398   21.3678 C   0  0  0  0  0  0
  -26.0042  -29.4753   20.7165 C   0  0  0  0  0  0
  -27.2019  -28.7258   20.7015 C   0  0  0  0  0  0
  -26.0556  -26.9619   19.4778 C   0  0  0  0  0  0
  -24.8617  -27.7035   19.5034 C   0  0  0  0  0  0
  -23.6063  -29.8313   20.1691 C   0  0  0  0  0  0
  -25.4103  -36.3118   24.0345 C   0  0  1  0  0  0
  -20.5860  -28.3652   23.1330 C   0  0  2  0  0  0
  -20.6760  -26.9390   22.5429 C   0  0  0  0  0  0
  -19.5741  -26.6377   21.5219 C   0  0  0  0  0  0
  -18.1916  -26.7915   22.1628 C   0  0  0  0  0  0
  -19.1517  -28.8827   23.2909 C   0  0  0  0  0  0
  -18.9451  -30.1435   23.8916 C   0  0  0  0  0  0
  -17.6453  -30.6575   24.0562 C   0  0  0  0  0  0
  -25.9029  -34.9479   23.5146 C   0  0  0  0  0  0
  -16.5345  -29.9073   23.6322 C   0  0  0  0  0  0
  -16.7263  -28.6488   23.0348 C   0  0  0  0  0  0
  -26.4473  -31.6597   25.0740 C   0  0  0  0  0  0
  -25.3763  -31.3673   26.1501 C   0  0  0  0  0  0
  -27.0300  -30.3046   24.6081 C   0  0  0  0  0  0
  -27.6051  -32.4315   25.7492 C   0  0  0  0  0  0
  -27.5577  -37.1816   24.8469 C   0  0  0  0  0  0
  -21.4128  -29.3029   22.3744 N   0  0  0  0  0  0
  -26.4296  -37.3794   23.9411 N   0  0  0  0  0  0
  -24.6634  -31.0825   22.1044 N   0  0  0  0  0  0
  -23.4176  -28.8215   23.3047 O   0  0  0  0  0  0
  -28.4170  -26.7393   20.0359 O   0  0  0  0  0  0
  -26.5591  -34.8922   22.4707 O   0  0  0  0  0  0
  -23.5313  -32.1459   23.7547 O   0  0  0  0  0  0
  -28.0492  -23.8884   22.0213 C   0  0  0  0  0  0
  -27.9122  -23.2980   19.7229 C   0  0  0  0  0  0
  -27.7977  -22.8932   21.0623 C   0  0  0  0  0  0
  -28.3217  -25.4379   20.3821 C   0  0  0  0  0  0
  -30.0931  -16.2272   23.4265 C   0  0  0  0  0  0
  -27.1773  -17.9771   20.9574 C   0  0  0  0  0  0
  -31.3385  -15.5802   22.8310 C   0  0  0  0  0  0
  -26.4232  -19.3014   20.8924 C   0  0  0  0  0  0
  -28.7603  -19.7145   20.5714 C   0  0  0  0  0  0
  -28.6001  -18.3835   21.3277 C   0  0  1  0  0  0
  -29.4812  -16.1026   22.0354 C   0  0  2  0  0  0
  -27.2766  -21.5240   21.5134 C   0  0  0  0  0  0
  -29.6343  -17.2722   21.0393 C   0  0  0  0  0  0
  -28.3061  -25.1649   21.6798 N   0  0  0  0  0  0
  -28.1925  -24.5699   19.3858 N   0  0  0  0  0  0
  -30.4281  -14.9855   21.8514 N   0  0  0  0  0  0
  -27.4201  -20.3614   20.5880 N   0  3  2  0  0  0
  -31.4649  -12.4201   19.0751 H   0  0  0  0  0  0
  -30.3392  -11.2760   19.7456 H   0  0  0  0  0  0
  -29.7174  -11.8292   17.3860 H   0  0  0  0  0  0
  -29.6495  -13.5292   17.7790 H   0  0  0  0  0  0
  -27.8175  -11.3211   18.7856 H   0  0  0  0  0  0
  -27.3546  -12.6735   17.7863 H   0  0  0  0  0  0
  -27.7296  -14.2540   19.6167 H   0  0  0  0  0  0
  -28.4518  -13.4762   21.8931 H   0  0  0  0  0  0
  -28.6786  -11.8773   21.2841 H   0  0  0  0  0  0
  -25.2771   -9.5655   22.4757 H   0  0  0  0  0  0
  -23.9999   -7.4617   22.7487 H   0  0  0  0  0  0
  -21.0837   -8.8762   19.8952 H   0  0  0  0  0  0
  -22.3714  -10.9655   19.6162 H   0  0  0  0  0  0
  -21.2000   -7.6152   23.9714 H   0  0  0  0  0  0
  -21.1487   -6.0530   25.9078 H   0  0  0  0  0  0
  -22.0598   -2.7615   23.2841 H   0  0  0  0  0  0
  -22.4138  -11.9832   22.4723 H   0  0  0  0  0  0
  -21.1160  -13.1252   22.2657 H   0  0  0  0  0  0
  -24.6435  -15.8198   20.4176 H   0  0  0  0  0  0
  -26.2543  -15.5774   19.9580 H   0  0  0  0  0  0
  -26.7086  -32.5556   23.1195 H   0  0  0  0  0  0
  -25.0034  -33.9811   25.0497 H   0  0  0  0  0  0
  -22.6854  -31.3119   21.4196 H   0  0  0  0  0  0
  -23.3735  -35.9662   23.3325 H   0  0  0  0  0  0
  -24.3579  -36.8905   22.2052 H   0  0  0  0  0  0
  -23.7246  -37.6535   23.6640 H   0  0  0  0  0  0
  -26.0374  -31.6072   20.6003 H   0  0  0  0  0  0
  -26.8146  -30.8929   21.9853 H   0  0  0  0  0  0
  -28.0993  -29.1208   21.1549 H   0  0  0  0  0  0
  -26.0467  -26.0067   18.9724 H   0  0  0  0  0  0
  -23.9707  -27.3053   19.0368 H   0  0  0  0  0  0
  -23.7161  -30.6087   19.4115 H   0  0  0  0  0  0
  -22.7285  -29.2542   19.8712 H   0  0  0  0  0  0
  -25.1276  -36.1993   25.0838 H   0  0  0  0  0  0
  -20.9955  -28.3213   24.1449 H   0  0  0  0  0  0
  -20.5655  -26.2264   23.3615 H   0  0  0  0  0  0
  -21.6633  -26.7431   22.1231 H   0  0  0  0  0  0
  -19.6901  -25.6294   21.1225 H   0  0  0  0  0  0
  -19.6672  -27.3206   20.6760 H   0  0  0  0  0  0
  -17.4193  -26.6671   21.4019 H   0  0  0  0  0  0
  -18.0307  -26.0048   22.9012 H   0  0  0  0  0  0
  -19.7928  -30.7240   24.2290 H   0  0  0  0  0  0
  -17.5009  -31.6260   24.5156 H   0  0  0  0  0  0
  -15.5341  -30.2979   23.7637 H   0  0  0  0  0  0
  -15.8664  -28.0809   22.7055 H   0  0  0  0  0  0
  -24.5912  -30.7046   25.7839 H   0  0  0  0  0  0
  -24.8990  -32.2820   26.5025 H   0  0  0  0  0  0
  -25.8145  -30.8783   27.0212 H   0  0  0  0  0  0
  -26.2833  -29.6806   24.1148 H   0  0  0  0  0  0
  -27.4103  -29.7270   25.4518 H   0  0  0  0  0  0
  -27.8659  -30.4376   23.9203 H   0  0  0  0  0  0
  -27.2653  -33.3569   26.2151 H   0  0  0  0  0  0
  -28.3812  -32.6948   25.0295 H   0  0  0  0  0  0
  -28.0780  -31.8400   26.5340 H   0  0  0  0  0  0
  -28.2610  -38.0096   24.7496 H   0  0  0  0  0  0
  -28.1056  -36.2628   24.6317 H   0  0  0  0  0  0
  -27.2303  -37.1497   25.8875 H   0  0  0  0  0  0
  -20.9276  -29.8759   21.6985 H   0  0  0  0  0  0
  -26.0184  -38.2875   24.1403 H   0  0  0  0  0  0
  -27.9712  -23.6817   23.0791 H   0  0  0  0  0  0
  -27.7222  -22.6144   18.9081 H   0  0  0  0  0  0
  -30.2299  -17.2467   23.7876 H   0  0  0  0  0  0
  -29.5980  -15.5981   24.1693 H   0  0  0  0  0  0
  -27.1630  -17.4941   19.9792 H   0  0  0  0  0  0
  -26.7337  -17.2929   21.6813 H   0  0  0  0  0  0
  -31.8214  -14.8683   23.5015 H   0  0  0  0  0  0
  -32.0559  -16.2884   22.4101 H   0  0  0  0  0  0
  -25.9402  -19.4728   21.8570 H   0  0  0  0  0  0
  -25.6322  -19.2775   20.1431 H   0  0  0  0  0  0
  -29.0283  -19.5188   19.5324 H   0  0  0  0  0  0
  -29.5432  -20.3485   20.9908 H   0  0  0  0  0  0
  -28.6285  -18.6142   22.3948 H   0  0  0  0  0  0
  -28.4517  -15.7538   22.1030 H   0  0  0  0  0  0
  -26.2123  -21.6845   21.6966 H   0  0  0  0  0  0
  -27.7066  -21.2664   22.4835 H   0  0  0  0  0  0
  -29.5154  -16.9243   20.0123 H   0  0  0  0  0  0
  -30.6378  -17.6980   21.0944 H   0  0  0  0  0  0
  -27.2122  -20.6580   19.6468 H   0  0  0  0  0  0
  1 25  1  0  0  0
  1 30  2  0  0  0
  1 86  1  0  0  0
  2  3  1  0  0  0
  2 25  1  0  0  0
  2 88  1  0  0  0
  2 89  1  0  0  0
  3  4  1  0  0  0
  3 90  1  0  0  0
  3 91  1  0  0  0
  4  5  1  0  0  0
  4 92  1  0  0  0
  4 93  1  0  0  0
  5  6  1  0  0  0
  5 26  1  0  0  0
  5 94  1  0  0  0
  6 25  1  0  0  0
  6 95  1  0  0  0
  6 96  1  0  0  0
  7  8  2  0  0  0
  7 26  1  0  0  0
  7 29  1  0  0  0
  8  9  1  0  0  0
  8 22  1  0  0  0
  9 10  1  0  0  0
  9 27  2  0  0  0
 10 11  2  0  0  0
 10 15  1  0  0  0
 11 12  1  0  0  0
 11 97  1  0  0  0
 12 13  2  0  0  0
 12 98  1  0  0  0
 13 14  1  0  0  0
 13 31  1  0  0  0
 14 15  2  0  0  0
 14 99  1  0  0  0
 15100  1  0  0  0
 16 17  2  0  0  0
 16 21  1  0  0  0
 16 31  1  0  0  0
 17 18  1  0  0  0
 17101  1  0  0  0
 18 19  2  0  0  0
 18102  1  0  0  0
 19 20  1  0  0  0
 19 24  1  0  0  0
 20 21  2  0  0  0
 20103  1  0  0  0
 21 23  1  0  0  0
 22 28  1  0  0  0
 22 32  2  0  0  0
 26 27  1  0  0  0
 28104  1  0  0  0
 28105  1  0  0  0
 29106  1  0  0  0
 29107  1  0  0  0
 33 34  1  0  0  0
 33 66  1  0  0  0
 33 70  2  0  0  0
 34 36  1  0  0  0
 34 59  1  0  0  0
 34108  1  0  0  0
 35 44  2  0  0  0
 35 45  1  0  0  0
 35 68  1  0  0  0
 36 56  1  0  0  0
 36109  1  0  0  0
 37 39  1  0  0  0
 37 47  1  0  0  0
 37 66  1  0  0  0
 37110  1  0  0  0
 38 43  2  0  0  0
 38 46  1  0  0  0
 38 47  1  0  0  0
 39 64  1  0  0  0
 39 67  2  0  0  0
 40 52  1  0  0  0
 40 53  2  0  0  0
 40 58  1  0  0  0
 41111  1  0  0  0
 41112  1  0  0  0
 41113  1  0  0  0
 41 48  1  0  0  0
 42 43  1  0  0  0
 42 66  1  0  0  0
 42114  1  0  0  0
 42115  1  0  0  0
 43 44  1  0  0  0
 44116  1  0  0  0
 45 46  2  0  0  0
 45117  1  0  0  0
 46118  1  0  0  0
 47119  1  0  0  0
 47120  1  0  0  0
 48 56  1  0  0  0
 48 65  1  0  0  0
 48121  1  0  0  0
 49 50  1  0  0  0
 49 53  1  0  0  0
 49 64  1  0  0  0
 49122  1  0  0  0
 50 51  1  0  0  0
 50123  1  0  0  0
 50124  1  0  0  0
 51 52  1  0  0  0
 51125  1  0  0  0
 51126  1  0  0  0
 52127  1  0  0  0
 52128  1  0  0  0
 53 54  1  0  0  0
 54 55  2  0  0  0
 54129  1  0  0  0
 55 57  1  0  0  0
 55130  1  0  0  0
 56 69  2  0  0  0
 57 58  2  0  0  0
 57131  1  0  0  0
 58132  1  0  0  0
 59 60  1  0  0  0
 59 61  1  0  0  0
 59 62  1  0  0  0
 60133  1  0  0  0
 60134  1  0  0  0
 60135  1  0  0  0
 61136  1  0  0  0
 61137  1  0  0  0
 61138  1  0  0  0
 62139  1  0  0  0
 62140  1  0  0  0
 62141  1  0  0  0
 63 65  1  0  0  0
 63142  1  0  0  0
 63143  1  0  0  0
 63144  1  0  0  0
 64145  1  0  0  0
 65146  1  0  0  0
 68 74  1  0  0  0
 71 73  2  0  0  0
 71 84  1  0  0  0
 71147  1  0  0  0
 72 73  1  0  0  0
 72 85  2  0  0  0
 72148  1  0  0  0
 73 82  1  0  0  0
 74 84  2  0  0  0
 74 85  1  0  0  0
 75 77  1  0  0  0
 75 81  1  0  0  0
 75149  1  0  0  0
 75150  1  0  0  0
 76 78  1  0  0  0
 76 80  1  0  0  0
 76151  1  0  0  0
 76152  1  0  0  0
 77 86  1  0  0  0
 77153  1  0  0  0
 77154  1  0  0  0
 78 87  1  0  0  0
 78155  1  0  0  0
 78156  1  0  0  0
 79 80  1  0  0  0
 79 87  1  0  0  0
 79157  1  0  0  0
 79158  1  0  0  0
 80 83  1  0  0  0
 80159  1  0  0  0
 81 83  1  0  0  0
 81 86  1  0  0  0
 81160  1  0  0  0
 82161  1  0  0  0
 82162  1  0  0  0
 82 87  1  0  0  0
 83163  1  0  0  0
 83164  1  0  0  0
 87165  1  0  0  0
M  CHG  1  87   1
M  ISO  4   1 100  68 101  74 101  86 100
M  END
> <chiral flag>
0

> <version>
0

> <s_m_source_file>
/data/baiqing/PycharmProjects/Reinvent-master-3.2/result/LINK_invent/BTK/process_docking_weight1_custom_sum_contain_oxygen_bond_distance_aromatic_linkinvent_7_9_3/rearranged_h_0191.sdf

> <i_m_source_file_index>
89

> <r_mmod_Potential_Energy-OPLS-2005>
-290.018676757812

> <r_mmod_Stretch_Energy-OPLS-2005>
34.704418182373

> <r_mmod_Bend_Energy-OPLS-2005>
134.937057495117

> <r_mmod_Torsional_Energy-OPLS-2005>
365.799560546875

> <r_mmod_Improper_Torsional_Energy-OPLS-2005>
11.3703927993774

> <r_mmod_Van_der_Waal_Energy-OPLS-2005>
154.385528564453

> <r_mmod_Electrostatic_Energy-OPLS-2005>
-525.657592773438

> <r_mmod_Solvation_Energy-OPLS-2005>
-472.93017578125

> <b_mmod_Minimization_Converged-OPLS-2005>
0

> <r_mmod_RMS_Derivative-OPLS-2005>
1.95742416381836

$$$$
89
                    3D
 Structure written by MMmdl.
160169  0  0  1  0            999 V2000
  -30.7204  -14.5162   20.5740 C   0  0  0  0  0  0
  -30.4150  -12.3376   19.4438 C   0  0  0  0  0  0
  -29.4910  -12.4777   18.2168 C   0  0  0  0  0  0
  -28.0172  -12.3029   18.6288 C   0  0  0  0  0  0
  -27.6450  -13.1805   19.8494 C   0  0  2  0  0  0
  -28.6876  -13.0347   20.9876 C   0  0  0  0  0  0
  -25.2537  -13.8074   20.5619 C   0  0  0  0  0  0
  -24.1802  -13.0398   20.9238 C   0  0  0  0  0  0
  -24.6335  -11.6862   20.8805 C   0  0  0  0  0  0
  -23.9001  -10.4267   21.0453 C   0  0  0  0  0  0
  -24.3576   -9.4177   21.9206 C   0  0  0  0  0  0
  -23.6264   -8.2208   22.0756 C   0  0  0  0  0  0
  -22.4250   -8.0252   21.3542 C   0  0  0  0  0  0
  -21.9881   -9.0224   20.4645 C   0  0  0  0  0  0
  -22.7193  -10.2113   20.3076 C   0  0  0  0  0  0
  -21.6830   -6.0718   22.5287 C   0  0  0  0  0  0
  -21.3992   -6.5630   23.8219 C   0  0  0  0  0  0
  -21.3666   -5.6797   24.9188 C   0  0  0  0  0  0
  -21.6051   -4.3061   24.7235 C   0  0  0  0  0  0
  -21.8811   -3.8139   23.4360 C   0  0  0  0  0  0
  -21.9185   -4.6948   22.3410 C   0  0  0  0  0  0
  -22.7835  -13.5228   21.1900 C   0  0  0  0  0  0
  -22.1653   -4.2135   21.0986 F   0  0  0  0  0  0
  -21.5649   -3.4548   25.7751 F   0  0  0  0  0  0
  -30.0107  -13.3543   20.4344 N   0  0  0  0  0  0
  -26.2917  -12.9189   20.3241 N   0  0  0  0  0  0
  -25.9238  -11.6389   20.5779 N   0  0  0  0  0  0
  -22.0463  -12.8223   22.0435 N   0  0  0  0  0  0
  -25.4233  -15.1769   20.3879 N   0  0  0  0  0  0
  -31.8572  -14.6187   20.1028 O   0  0  0  0  0  0
  -21.6613   -6.8852   21.4245 O   0  0  0  0  0  0
  -22.3533  -14.5536   20.6747 O   0  0  0  0  0  0
  -24.6144  -31.8661   23.2046 C   0  0  0  0  0  0
  -25.9026  -32.4816   23.8361 C   0  0  1  0  0  0
  -27.2526  -27.4328   20.0820 C   0  0  0  0  0  0
  -25.5869  -33.8616   24.2301 N   0  0  0  0  0  0
  -23.4042  -30.4830   21.5482 C   0  0  2  0  0  0
  -24.8529  -28.9445   20.1180 C   0  0  0  0  0  0
  -22.7389  -29.4633   22.5001 C   0  0  0  0  0  0
  -18.0251  -28.1387   22.8535 C   0  0  0  0  0  0
  -24.1481  -36.7334   23.2639 C   0  0  0  0  0  0
  -25.9300  -30.8317   21.3521 C   0  0  0  0  0  0
  -26.0111  -29.4606   20.7089 C   0  0  0  0  0  0
  -27.2102  -28.7114   20.6868 C   0  0  0  0  0  0
  -26.0691  -26.9247   19.4986 C   0  0  0  0  0  0
  -24.8763  -27.6754   19.5131 C   0  0  0  0  0  0
  -23.6136  -29.8084   20.1663 C   0  0  0  0  0  0
  -25.4103  -36.3124   24.0334 C   0  0  1  0  0  0
  -20.5840  -28.3671   23.1354 C   0  0  2  0  0  0
  -20.6717  -26.9363   22.5521 C   0  0  0  0  0  0
  -19.5719  -26.6353   21.5296 C   0  0  0  0  0  0
  -18.1886  -26.7920   22.1699 C   0  0  0  0  0  0
  -19.1501  -28.8847   23.2932 C   0  0  0  0  0  0
  -18.9433  -30.1488   23.8878 C   0  0  0  0  0  0
  -17.6434  -30.6616   24.0544 C   0  0  0  0  0  0
  -25.9030  -34.9485   23.5117 C   0  0  0  0  0  0
  -16.5324  -29.9111   23.6328 C   0  0  0  0  0  0
  -16.7236  -28.6530   23.0338 C   0  0  0  0  0  0
  -26.4468  -31.6603   25.0696 C   0  0  0  0  0  0
  -25.3748  -31.3670   26.1449 C   0  0  0  0  0  0
  -27.0243  -30.3042   24.6025 C   0  0  0  0  0  0
  -27.6042  -32.4322   25.7475 C   0  0  0  0  0  0
  -27.5579  -37.1823   24.8473 C   0  0  0  0  0  0
  -21.4121  -29.3019   22.3724 N   0  0  0  0  0  0
  -26.4297  -37.3805   23.9405 N   0  0  0  0  0  0
  -24.6679  -31.0754   22.0946 N   0  0  0  0  0  0
  -23.4147  -28.8206   23.3089 O   0  0  0  0  0  0
  -28.4607  -26.7590   20.0658 O   0  0  0  0  0  0
  -26.5606  -34.8942   22.4696 O   0  0  0  0  0  0
  -23.5333  -32.1402   23.7460 O   0  0  0  0  0  0
  -27.9866  -21.0375   20.3452 C   0  0  0  0  0  0
  -29.0600  -22.2829   21.7836 C   0  0  0  0  0  0
  -28.8173  -20.9594   21.5056 C   0  0  0  0  0  0
  -28.9721  -16.2620   20.7028 C   0  0  0  0  0  0
  -31.1297  -16.4513   21.9621 C   0  0  0  0  0  0
  -28.5722  -17.6592   21.2640 C   0  0  0  0  0  0
  -30.5350  -17.6956   22.6462 C   0  0  0  0  0  0
  -29.2558  -19.7820   22.3794 C   0  0  0  0  0  0
  -28.0763  -24.5076   20.9849 C   0  0  0  0  0  0
  -28.5272  -25.3514   19.7726 C   0  0  0  0  0  0
  -27.7011  -22.2914   19.9954 N   0  0  0  0  0  0
  -28.3379  -23.0653   20.9019 N   0  0  0  0  0  0
  -30.1723  -15.5777   21.2475 N   0  0  0  0  0  0
  -29.6960  -18.5047   21.7267 N   0  3  0  0  0  0
  -31.4589  -12.4310   19.1339 H   0  0  0  0  0  0
  -30.3314  -11.3403   19.8798 H   0  0  0  0  0  0
  -29.7570  -11.7354   17.4625 H   0  0  0  0  0  0
  -29.6321  -13.4546   17.7549 H   0  0  0  0  0  0
  -27.8616  -11.2504   18.8691 H   0  0  0  0  0  0
  -27.3594  -12.5232   17.7866 H   0  0  0  0  0  0
  -27.6584  -14.1932   19.4575 H   0  0  0  0  0  0
  -28.6841  -12.0107   21.3662 H   0  0  0  0  0  0
  -28.4380  -13.6600   21.8463 H   0  0  0  0  0  0
  -25.2716   -9.5676   22.4771 H   0  0  0  0  0  0
  -23.9981   -7.4593   22.7461 H   0  0  0  0  0  0
  -21.0821   -8.8730   19.8934 H   0  0  0  0  0  0
  -22.3641  -10.9656   19.6193 H   0  0  0  0  0  0
  -21.1951   -7.6133   23.9711 H   0  0  0  0  0  0
  -21.1519   -6.0538   25.9096 H   0  0  0  0  0  0
  -22.0585   -2.7600   23.2877 H   0  0  0  0  0  0
  -22.4056  -11.9856   22.4793 H   0  0  0  0  0  0
  -21.1098  -13.1293   22.2652 H   0  0  0  0  0  0
  -24.6327  -15.8095   20.4294 H   0  0  0  0  0  0
  -26.2259  -15.5803   19.9257 H   0  0  0  0  0  0
  -26.7095  -32.5553   23.1119 H   0  0  0  0  0  0
  -24.9986  -33.9765   25.0426 H   0  0  0  0  0  0
  -22.6920  -31.2973   21.4033 H   0  0  0  0  0  0
  -23.3725  -35.9688   23.3322 H   0  0  0  0  0  0
  -24.3559  -36.8927   22.2047 H   0  0  0  0  0  0
  -23.7252  -37.6556   23.6637 H   0  0  0  0  0  0
  -26.0305  -31.5879   20.5711 H   0  0  0  0  0  0
  -26.8237  -30.9014   21.9604 H   0  0  0  0  0  0
  -28.1095  -29.1155   21.1316 H   0  0  0  0  0  0
  -26.0458  -25.9601   19.0149 H   0  0  0  0  0  0
  -23.9856  -27.2693   19.0538 H   0  0  0  0  0  0
  -23.7206  -30.5808   19.4026 H   0  0  0  0  0  0
  -22.7397  -29.2231   19.8753 H   0  0  0  0  0  0
  -25.1275  -36.1990   25.0823 H   0  0  0  0  0  0
  -20.9936  -28.3285   24.1469 H   0  0  0  0  0  0
  -20.5512  -26.2320   23.3774 H   0  0  0  0  0  0
  -21.6582  -26.7280   22.1375 H   0  0  0  0  0  0
  -19.6859  -25.6246   21.1357 H   0  0  0  0  0  0
  -19.6716  -27.3159   20.6830 H   0  0  0  0  0  0
  -17.4149  -26.6601   21.4130 H   0  0  0  0  0  0
  -18.0260  -26.0083   22.9111 H   0  0  0  0  0  0
  -19.7910  -30.7370   24.2138 H   0  0  0  0  0  0
  -17.4986  -31.6326   24.5091 H   0  0  0  0  0  0
  -15.5328  -30.3028   23.7626 H   0  0  0  0  0  0
  -15.8632  -28.0848   22.7055 H   0  0  0  0  0  0
  -24.5944  -30.7006   25.7761 H   0  0  0  0  0  0
  -24.8900  -32.2791   26.4932 H   0  0  0  0  0  0
  -25.8109  -30.8816   27.0190 H   0  0  0  0  0  0
  -26.2724  -29.6846   24.1123 H   0  0  0  0  0  0
  -27.4048  -29.7250   25.4443 H   0  0  0  0  0  0
  -27.8567  -30.4323   23.9102 H   0  0  0  0  0  0
  -27.2655  -33.3610   26.2078 H   0  0  0  0  0  0
  -28.3863  -32.6888   25.0322 H   0  0  0  0  0  0
  -28.0713  -31.8439   26.5376 H   0  0  0  0  0  0
  -28.2627  -38.0092   24.7497 H   0  0  0  0  0  0
  -28.1039  -36.2622   24.6326 H   0  0  0  0  0  0
  -27.2301  -37.1540   25.8881 H   0  0  0  0  0  0
  -20.9280  -29.8693   21.6908 H   0  0  0  0  0  0
  -26.0189  -38.2889   24.1392 H   0  0  0  0  0  0
  -27.5289  -20.2398   19.7774 H   0  0  0  0  0  0
  -29.6161  -22.7304   22.5976 H   0  0  0  0  0  0
  -29.0700  -16.3364   19.6175 H   0  0  0  0  0  0
  -28.1036  -15.6441   20.8990 H   0  0  0  0  0  0
  -31.6552  -15.8559   22.7106 H   0  0  0  0  0  0
  -31.8954  -16.8029   21.2677 H   0  0  0  0  0  0
  -27.8966  -17.5040   22.1075 H   0  0  0  0  0  0
  -27.9848  -18.1881   20.5166 H   0  0  0  0  0  0
  -31.3567  -18.2959   23.0372 H   0  0  0  0  0  0
  -29.9425  -17.3893   23.5111 H   0  0  0  0  0  0
  -28.4743  -19.5481   23.1028 H   0  0  0  0  0  0
  -30.0841  -20.1320   22.9970 H   0  0  0  0  0  0
  -27.0093  -24.6489   21.1578 H   0  0  0  0  0  0
  -28.5779  -24.8845   21.8777 H   0  0  0  0  0  0
  -27.9969  -25.0859   18.8591 H   0  0  0  0  0  0
  -29.5757  -25.1320   19.5652 H   0  0  0  0  0  0
  -30.2716  -18.7503   20.9354 H   0  0  0  0  0  0
  1 25  1  0  0  0
  1 30  2  0  0  0
  1 83  1  0  0  0
  2  3  1  0  0  0
  2 25  1  0  0  0
  2 85  1  0  0  0
  2 86  1  0  0  0
  3  4  1  0  0  0
  3 87  1  0  0  0
  3 88  1  0  0  0
  4  5  1  0  0  0
  4 89  1  0  0  0
  4 90  1  0  0  0
  5  6  1  0  0  0
  5 26  1  0  0  0
  5 91  1  0  0  0
  6 25  1  0  0  0
  6 92  1  0  0  0
  6 93  1  0  0  0
  7  8  2  0  0  0
  7 26  1  0  0  0
  7 29  1  0  0  0
  8  9  1  0  0  0
  8 22  1  0  0  0
  9 10  1  0  0  0
  9 27  2  0  0  0
 10 11  2  0  0  0
 10 15  1  0  0  0
 11 12  1  0  0  0
 11 94  1  0  0  0
 12 13  2  0  0  0
 12 95  1  0  0  0
 13 14  1  0  0  0
 13 31  1  0  0  0
 14 15  2  0  0  0
 14 96  1  0  0  0
 15 97  1  0  0  0
 16 17  2  0  0  0
 16 21  1  0  0  0
 16 31  1  0  0  0
 17 18  1  0  0  0
 17 98  1  0  0  0
 18 19  2  0  0  0
 18 99  1  0  0  0
 19 20  1  0  0  0
 19 24  1  0  0  0
 20 21  2  0  0  0
 20100  1  0  0  0
 21 23  1  0  0  0
 22 28  1  0  0  0
 22 32  2  0  0  0
 26 27  1  0  0  0
 28101  1  0  0  0
 28102  1  0  0  0
 29103  1  0  0  0
 29104  1  0  0  0
 33 34  1  0  0  0
 33 66  1  0  0  0
 33 70  2  0  0  0
 34 36  1  0  0  0
 34 59  1  0  0  0
 34105  1  0  0  0
 35 44  2  0  0  0
 35 45  1  0  0  0
 35 68  1  0  0  0
 36 56  1  0  0  0
 36106  1  0  0  0
 37 39  1  0  0  0
 37 47  1  0  0  0
 37 66  1  0  0  0
 37107  1  0  0  0
 38 43  2  0  0  0
 38 46  1  0  0  0
 38 47  1  0  0  0
 39 64  1  0  0  0
 39 67  2  0  0  0
 40 52  1  0  0  0
 40 53  2  0  0  0
 40 58  1  0  0  0
 41108  1  0  0  0
 41109  1  0  0  0
 41110  1  0  0  0
 41 48  1  0  0  0
 42 43  1  0  0  0
 42 66  1  0  0  0
 42111  1  0  0  0
 42112  1  0  0  0
 43 44  1  0  0  0
 44113  1  0  0  0
 45 46  2  0  0  0
 45114  1  0  0  0
 46115  1  0  0  0
 47116  1  0  0  0
 47117  1  0  0  0
 48 56  1  0  0  0
 48 65  1  0  0  0
 48118  1  0  0  0
 49 50  1  0  0  0
 49 53  1  0  0  0
 49 64  1  0  0  0
 49119  1  0  0  0
 50 51  1  0  0  0
 50120  1  0  0  0
 50121  1  0  0  0
 51 52  1  0  0  0
 51122  1  0  0  0
 51123  1  0  0  0
 52124  1  0  0  0
 52125  1  0  0  0
 53 54  1  0  0  0
 54 55  2  0  0  0
 54126  1  0  0  0
 55 57  1  0  0  0
 55127  1  0  0  0
 56 69  2  0  0  0
 57 58  2  0  0  0
 57128  1  0  0  0
 58129  1  0  0  0
 59 60  1  0  0  0
 59 61  1  0  0  0
 59 62  1  0  0  0
 60130  1  0  0  0
 60131  1  0  0  0
 60132  1  0  0  0
 61133  1  0  0  0
 61134  1  0  0  0
 61135  1  0  0  0
 62136  1  0  0  0
 62137  1  0  0  0
 62138  1  0  0  0
 63 65  1  0  0  0
 63139  1  0  0  0
 63140  1  0  0  0
 63141  1  0  0  0
 64142  1  0  0  0
 65143  1  0  0  0
 68 80  1  0  0  0
 71 73  1  0  0  0
 71 81  2  0  0  0
 71144  1  0  0  0
 72 73  2  0  0  0
 72 82  1  0  0  0
 72145  1  0  0  0
 73 78  1  0  0  0
 74 76  1  0  0  0
 74 83  1  0  0  0
 74146  1  0  0  0
 74147  1  0  0  0
 75 77  1  0  0  0
 75 83  1  0  0  0
 75148  1  0  0  0
 75149  1  0  0  0
 76 84  1  0  0  0
 76150  1  0  0  0
 76151  1  0  0  0
 77 84  1  0  0  0
 77152  1  0  0  0
 77153  1  0  0  0
 78154  1  0  0  0
 78155  1  0  0  0
 78 84  1  0  0  0
 79 80  1  0  0  0
 79 82  1  0  0  0
 79156  1  0  0  0
 79157  1  0  0  0
 80158  1  0  0  0
 80159  1  0  0  0
 81 82  1  0  0  0
 84160  1  0  0  0
M  CHG  1  84   1
M  ISO  4   1 100  68 101  80 101  83 100
M  END
> <chiral flag>
0

> <version>
0

> <s_m_source_file>
/data/baiqing/PycharmProjects/Reinvent-master-3.2/result/LINK_invent/BTK/process_docking_weight1_custom_sum_contain_oxygen_bond_distance_aromatic_linkinvent_7_9_3/rearranged_h_0191.sdf

> <i_m_source_file_index>
90

> <r_mmod_Potential_Energy-OPLS-2005>
39.0793037414551

> <r_mmod_Stretch_Energy-OPLS-2005>
43.9980049133301

> <r_mmod_Bend_Energy-OPLS-2005>
137.861175537109

> <r_mmod_Torsional_Energy-OPLS-2005>
370.813262939453

> <r_mmod_Improper_Torsional_Energy-OPLS-2005>
6.70772933959961

> <r_mmod_Van_der_Waal_Energy-OPLS-2005>
140.874160766602

> <r_mmod_Electrostatic_Energy-OPLS-2005>
-210.07649230957

> <r_mmod_Solvation_Energy-OPLS-2005>
-469.526977539062

> <b_mmod_Minimization_Converged-OPLS-2005>
0

> <r_mmod_RMS_Derivative-OPLS-2005>
2.97040128707886

$$$$
90
                    3D
 Structure written by MMmdl.
169178  0  0  1  0            999 V2000
  -30.7331  -14.4371   20.5823 C   0  0  0  0  0  0
  -30.4205  -12.2886   19.4279 C   0  0  0  0  0  0
  -29.4998  -12.4866   18.2085 C   0  0  0  0  0  0
  -28.0185  -12.3595   18.6176 C   0  0  0  0  0  0
  -27.6633  -13.2060   19.8681 C   0  0  2  0  0  0
  -28.7015  -12.9996   20.9949 C   0  0  0  0  0  0
  -25.2599  -13.8180   20.5639 C   0  0  0  0  0  0
  -24.1837  -13.0476   20.9158 C   0  0  0  0  0  0
  -24.6380  -11.6933   20.8716 C   0  0  0  0  0  0
  -23.9041  -10.4308   21.0404 C   0  0  0  0  0  0
  -24.3593   -9.4229   21.9177 C   0  0  0  0  0  0
  -23.6266   -8.2275   22.0762 C   0  0  0  0  0  0
  -22.4261   -8.0309   21.3553 C   0  0  0  0  0  0
  -21.9893   -9.0280   20.4660 C   0  0  0  0  0  0
  -22.7225  -10.2155   20.3053 C   0  0  0  0  0  0
  -21.6871   -6.0741   22.5266 C   0  0  0  0  0  0
  -21.4022   -6.5623   23.8199 C   0  0  0  0  0  0
  -21.3646   -5.6776   24.9150 C   0  0  0  0  0  0
  -21.6048   -4.3038   24.7216 C   0  0  0  0  0  0
  -21.8813   -3.8133   23.4333 C   0  0  0  0  0  0
  -21.9193   -4.6956   22.3389 C   0  0  0  0  0  0
  -22.7853  -13.5288   21.1800 C   0  0  0  0  0  0
  -22.1666   -4.2140   21.0973 F   0  0  0  0  0  0
  -21.5627   -3.4520   25.7728 F   0  0  0  0  0  0
  -30.0374  -13.2788   20.4441 N   0  0  0  0  0  0
  -26.3035  -12.9340   20.3315 N   0  0  0  0  0  0
  -25.9304  -11.6507   20.5715 N   0  0  0  0  0  0
  -22.0456  -12.8329   22.0362 N   0  0  0  0  0  0
  -25.4343  -15.1904   20.4018 N   0  0  0  0  0  0
  -31.8429  -14.6172   20.0798 O   0  0  0  0  0  0
  -21.6646   -6.8900   21.4243 O   0  0  0  0  0  0
  -22.3558  -14.5604   20.6644 O   0  0  0  0  0  0
  -24.6107  -31.8720   23.2143 C   0  0  0  0  0  0
  -25.9012  -32.4846   23.8426 C   0  0  1  0  0  0
  -27.2350  -27.4680   20.0982 C   0  0  0  0  0  0
  -25.5876  -33.8645   24.2353 N   0  0  0  0  0  0
  -23.3982  -30.4946   21.5531 C   0  0  2  0  0  0
  -24.8471  -28.9599   20.1243 C   0  0  0  0  0  0
  -22.7387  -29.4669   22.5003 C   0  0  0  0  0  0
  -18.0265  -28.1371   22.8493 C   0  0  0  0  0  0
  -24.1478  -36.7323   23.2633 C   0  0  0  0  0  0
  -25.9235  -30.8434   21.3673 C   0  0  0  0  0  0
  -26.0023  -29.4750   20.7282 C   0  0  0  0  0  0
  -27.2009  -28.7298   20.7287 C   0  0  0  0  0  0
  -26.0727  -26.9617   19.4868 C   0  0  0  0  0  0
  -24.8723  -27.6964   19.5086 C   0  0  0  0  0  0
  -23.6090  -29.8263   20.1681 C   0  0  0  0  0  0
  -25.4097  -36.3128   24.0336 C   0  0  1  0  0  0
  -20.5850  -28.3649   23.1322 C   0  0  2  0  0  0
  -20.6749  -26.9389   22.5419 C   0  0  0  0  0  0
  -19.5731  -26.6384   21.5209 C   0  0  0  0  0  0
  -18.1908  -26.7923   22.1624 C   0  0  0  0  0  0
  -19.1515  -28.8830   23.2907 C   0  0  0  0  0  0
  -18.9450  -30.1433   23.8915 C   0  0  0  0  0  0
  -17.6454  -30.6577   24.0568 C   0  0  0  0  0  0
  -25.9023  -34.9489   23.5143 C   0  0  0  0  0  0
  -16.5346  -29.9079   23.6325 C   0  0  0  0  0  0
  -16.7255  -28.6498   23.0349 C   0  0  0  0  0  0
  -26.4460  -31.6611   25.0736 C   0  0  0  0  0  0
  -25.3733  -31.3719   26.1487 C   0  0  0  0  0  0
  -27.0268  -30.3051   24.6083 C   0  0  0  0  0  0
  -27.6046  -32.4321   25.7496 C   0  0  0  0  0  0
  -27.5577  -37.1814   24.8459 C   0  0  0  0  0  0
  -21.4124  -29.3025   22.3736 N   0  0  0  0  0  0
  -26.4287  -37.3809   23.9408 N   0  0  0  0  0  0
  -24.6613  -31.0840   22.1034 N   0  0  0  0  0  0
  -23.4173  -28.8209   23.3032 O   0  0  0  0  0  0
  -28.3822  -26.7303   19.9898 O   0  0  0  0  0  0
  -26.5593  -34.8930   22.4709 O   0  0  0  0  0  0
  -23.5306  -32.1461   23.7547 O   0  0  0  0  0  0
  -31.4586  -24.6817   18.0718 C   0  0  0  0  0  0
  -31.2173  -23.3016   18.3027 C   0  0  0  0  0  0
  -30.8372  -25.3840   19.0673 C   0  0  0  0  0  0
  -30.4762  -23.2204   19.4477 C   0  0  0  0  0  0
  -31.2769  -21.1079   20.2519 C   0  0  0  0  0  0
  -28.9168  -21.3553   19.6342 C   0  0  0  0  0  0
  -30.9348  -19.8822   21.1131 C   0  0  0  0  0  0
  -28.5831  -20.0993   20.4809 C   0  0  0  0  0  0
  -31.4092  -16.9364   22.5788 C   0  0  0  0  0  0
  -29.3782  -24.8368   21.0867 C   0  0  0  0  0  0
  -29.4097  -17.8573   21.2024 C   0  0  0  0  0  0
  -29.0237  -26.3384   21.1985 C   0  0  0  0  0  0
  -30.5816  -16.8284   21.2770 C   0  0  2  0  0  0
  -30.1793  -24.4940   19.9099 N   0  0  0  0  0  0
  -30.1436  -22.0198   20.0838 N   0  0  0  0  0  0
  -30.0868  -15.4435   21.1967 N   0  0  0  0  0  0
  -29.7474  -19.1753   20.5709 N   0  3  0  0  0  0
  -31.4667  -12.3758   19.1306 H   0  0  0  0  0  0
  -30.3108  -11.2802   19.8303 H   0  0  0  0  0  0
  -29.7346  -11.7516   17.4382 H   0  0  0  0  0  0
  -29.6841  -13.4612   17.7578 H   0  0  0  0  0  0
  -27.8147  -11.3066   18.8108 H   0  0  0  0  0  0
  -27.3780  -12.6395   17.7810 H   0  0  0  0  0  0
  -27.7064  -14.2495   19.5562 H   0  0  0  0  0  0
  -28.6690  -11.9715   21.3581 H   0  0  0  0  0  0
  -28.4594  -13.6233   21.8573 H   0  0  0  0  0  0
  -25.2747   -9.5689   22.4748 H   0  0  0  0  0  0
  -23.9956   -7.4669   22.7493 H   0  0  0  0  0  0
  -21.0816   -8.8823   19.8975 H   0  0  0  0  0  0
  -22.3694  -10.9696   19.6151 H   0  0  0  0  0  0
  -21.2025   -7.6138   23.9697 H   0  0  0  0  0  0
  -21.1470   -6.0504   25.9053 H   0  0  0  0  0  0
  -22.0599   -2.7600   23.2839 H   0  0  0  0  0  0
  -22.4034  -12.0003   22.4804 H   0  0  0  0  0  0
  -21.1075  -13.1406   22.2521 H   0  0  0  0  0  0
  -24.6674  -15.8478   20.4893 H   0  0  0  0  0  0
  -26.2755  -15.6142   20.0308 H   0  0  0  0  0  0
  -26.7094  -32.5585   23.1209 H   0  0  0  0  0  0
  -25.0007  -33.9818   25.0484 H   0  0  0  0  0  0
  -22.6838  -31.3086   21.4137 H   0  0  0  0  0  0
  -23.3738  -35.9661   23.3315 H   0  0  0  0  0  0
  -24.3579  -36.8920   22.2046 H   0  0  0  0  0  0
  -23.7232  -37.6531   23.6641 H   0  0  0  0  0  0
  -26.0277  -31.6026   20.5910 H   0  0  0  0  0  0
  -26.8150  -30.9071   21.9793 H   0  0  0  0  0  0
  -28.0957  -29.1280   21.1858 H   0  0  0  0  0  0
  -26.1011  -25.9995   18.9950 H   0  0  0  0  0  0
  -23.9850  -27.2927   19.0405 H   0  0  0  0  0  0
  -23.7214  -30.6014   19.4092 H   0  0  0  0  0  0
  -22.7344  -29.2462   19.8691 H   0  0  0  0  0  0
  -25.1274  -36.2001   25.0829 H   0  0  0  0  0  0
  -20.9938  -28.3216   24.1445 H   0  0  0  0  0  0
  -20.5640  -26.2258   23.3599 H   0  0  0  0  0  0
  -21.6626  -26.7428   22.1219 H   0  0  0  0  0  0
  -19.6888  -25.6302   21.1219 H   0  0  0  0  0  0
  -19.6665  -27.3213   20.6753 H   0  0  0  0  0  0
  -17.4173  -26.6664   21.4032 H   0  0  0  0  0  0
  -18.0316  -26.0066   22.9018 H   0  0  0  0  0  0
  -19.7921  -30.7250   24.2295 H   0  0  0  0  0  0
  -17.5007  -31.6260   24.5154 H   0  0  0  0  0  0
  -15.5349  -30.2994   23.7637 H   0  0  0  0  0  0
  -15.8648  -28.0825   22.7063 H   0  0  0  0  0  0
  -24.5911  -30.7054   25.7840 H   0  0  0  0  0  0
  -24.8914  -32.2872   26.4931 H   0  0  0  0  0  0
  -25.8089  -30.8905   27.0248 H   0  0  0  0  0  0
  -26.2799  -29.6846   24.1113 H   0  0  0  0  0  0
  -27.4013  -29.7255   25.4529 H   0  0  0  0  0  0
  -27.8651  -30.4368   23.9239 H   0  0  0  0  0  0
  -27.2674  -33.3617   26.2094 H   0  0  0  0  0  0
  -28.3847  -32.6882   25.0315 H   0  0  0  0  0  0
  -28.0717  -31.8425   26.5395 H   0  0  0  0  0  0
  -28.2602  -38.0105   24.7517 H   0  0  0  0  0  0
  -28.1067  -36.2643   24.6273 H   0  0  0  0  0  0
  -27.2300  -37.1446   25.8862 H   0  0  0  0  0  0
  -20.9270  -29.8760   21.6981 H   0  0  0  0  0  0
  -26.0179  -38.2886   24.1427 H   0  0  0  0  0  0
  -32.0389  -25.1189   17.2709 H   0  0  0  0  0  0
  -31.5767  -22.4712   17.7102 H   0  0  0  0  0  0
  -30.8042  -26.4507   19.2361 H   0  0  0  0  0  0
  -31.6178  -20.7644   19.2732 H   0  0  0  0  0  0
  -32.1175  -21.6446   20.6949 H   0  0  0  0  0  0
  -28.0821  -22.0565   19.6695 H   0  0  0  0  0  0
  -29.0274  -21.0710   18.5859 H   0  0  0  0  0  0
  -30.7589  -20.1805   22.1471 H   0  0  0  0  0  0
  -31.8134  -19.2412   21.0934 H   0  0  0  0  0  0
  -27.7277  -19.5818   20.0442 H   0  0  0  0  0  0
  -28.2811  -20.4060   21.4837 H   0  0  0  0  0  0
  -31.7000  -17.9536   22.8316 H   0  0  0  0  0  0
  -32.3281  -16.3536   22.5023 H   0  0  0  0  0  0
  -30.8518  -16.5502   23.4319 H   0  0  0  0  0  0
  -28.4521  -24.2626   21.0359 H   0  0  0  0  0  0
  -29.9066  -24.5002   21.9780 H   0  0  0  0  0  0
  -28.9907  -18.0164   22.1973 H   0  0  0  0  0  0
  -28.6029  -17.4272   20.6086 H   0  0  0  0  0  0
  -29.9257  -26.9367   21.3351 H   0  0  0  0  0  0
  -28.3976  -26.5112   22.0759 H   0  0  0  0  0  0
  -31.2359  -17.0143   20.4204 H   0  0  0  0  0  0
  -29.1704  -15.2379   21.5655 H   0  0  0  0  0  0
  -29.9787  -18.9644   19.6110 H   0  0  0  0  0  0
  1 25  1  0  0  0
  1 30  2  0  0  0
  1 86  1  0  0  0
  2  3  1  0  0  0
  2 25  1  0  0  0
  2 88  1  0  0  0
  2 89  1  0  0  0
  3  4  1  0  0  0
  3 90  1  0  0  0
  3 91  1  0  0  0
  4  5  1  0  0  0
  4 92  1  0  0  0
  4 93  1  0  0  0
  5  6  1  0  0  0
  5 26  1  0  0  0
  5 94  1  0  0  0
  6 25  1  0  0  0
  6 95  1  0  0  0
  6 96  1  0  0  0
  7  8  2  0  0  0
  7 26  1  0  0  0
  7 29  1  0  0  0
  8  9  1  0  0  0
  8 22  1  0  0  0
  9 10  1  0  0  0
  9 27  2  0  0  0
 10 11  2  0  0  0
 10 15  1  0  0  0
 11 12  1  0  0  0
 11 97  1  0  0  0
 12 13  2  0  0  0
 12 98  1  0  0  0
 13 14  1  0  0  0
 13 31  1  0  0  0
 14 15  2  0  0  0
 14 99  1  0  0  0
 15100  1  0  0  0
 16 17  2  0  0  0
 16 21  1  0  0  0
 16 31  1  0  0  0
 17 18  1  0  0  0
 17101  1  0  0  0
 18 19  2  0  0  0
 18102  1  0  0  0
 19 20  1  0  0  0
 19 24  1  0  0  0
 20 21  2  0  0  0
 20103  1  0  0  0
 21 23  1  0  0  0
 22 28  1  0  0  0
 22 32  2  0  0  0
 26 27  1  0  0  0
 28104  1  0  0  0
 28105  1  0  0  0
 29106  1  0  0  0
 29107  1  0  0  0
 33 34  1  0  0  0
 33 66  1  0  0  0
 33 70  2  0  0  0
 34 36  1  0  0  0
 34 59  1  0  0  0
 34108  1  0  0  0
 35 44  2  0  0  0
 35 45  1  0  0  0
 35 68  1  0  0  0
 36 56  1  0  0  0
 36109  1  0  0  0
 37 39  1  0  0  0
 37 47  1  0  0  0
 37 66  1  0  0  0
 37110  1  0  0  0
 38 43  2  0  0  0
 38 46  1  0  0  0
 38 47  1  0  0  0
 39 64  1  0  0  0
 39 67  2  0  0  0
 40 52  1  0  0  0
 40 53  2  0  0  0
 40 58  1  0  0  0
 41111  1  0  0  0
 41112  1  0  0  0
 41113  1  0  0  0
 41 48  1  0  0  0
 42 43  1  0  0  0
 42 66  1  0  0  0
 42114  1  0  0  0
 42115  1  0  0  0
 43 44  1  0  0  0
 44116  1  0  0  0
 45 46  2  0  0  0
 45117  1  0  0  0
 46118  1  0  0  0
 47119  1  0  0  0
 47120  1  0  0  0
 48 56  1  0  0  0
 48 65  1  0  0  0
 48121  1  0  0  0
 49 50  1  0  0  0
 49 53  1  0  0  0
 49 64  1  0  0  0
 49122  1  0  0  0
 50 51  1  0  0  0
 50123  1  0  0  0
 50124  1  0  0  0
 51 52  1  0  0  0
 51125  1  0  0  0
 51126  1  0  0  0
 52127  1  0  0  0
 52128  1  0  0  0
 53 54  1  0  0  0
 54 55  2  0  0  0
 54129  1  0  0  0
 55 57  1  0  0  0
 55130  1  0  0  0
 56 69  2  0  0  0
 57 58  2  0  0  0
 57131  1  0  0  0
 58132  1  0  0  0
 59 60  1  0  0  0
 59 61  1  0  0  0
 59 62  1  0  0  0
 60133  1  0  0  0
 60134  1  0  0  0
 60135  1  0  0  0
 61136  1  0  0  0
 61137  1  0  0  0
 61138  1  0  0  0
 62139  1  0  0  0
 62140  1  0  0  0
 62141  1  0  0  0
 63 65  1  0  0  0
 63142  1  0  0  0
 63143  1  0  0  0
 63144  1  0  0  0
 64145  1  0  0  0
 65146  1  0  0  0
 68 82  1  0  0  0
 71 72  1  0  0  0
 71 73  2  0  0  0
 71147  1  0  0  0
 72 74  2  0  0  0
 72148  1  0  0  0
 73 84  1  0  0  0
 73149  1  0  0  0
 74 84  1  0  0  0
 74 85  1  0  0  0
 75 77  1  0  0  0
 75 85  1  0  0  0
 75150  1  0  0  0
 75151  1  0  0  0
 76 78  1  0  0  0
 76 85  1  0  0  0
 76152  1  0  0  0
 76153  1  0  0  0
 77 87  1  0  0  0
 77154  1  0  0  0
 77155  1  0  0  0
 78 87  1  0  0  0
 78156  1  0  0  0
 78157  1  0  0  0
 79158  1  0  0  0
 79159  1  0  0  0
 79160  1  0  0  0
 79 83  1  0  0  0
 80 82  1  0  0  0
 80 84  1  0  0  0
 80161  1  0  0  0
 80162  1  0  0  0
 81 83  1  0  0  0
 81163  1  0  0  0
 81164  1  0  0  0
 81 87  1  0  0  0
 82165  1  0  0  0
 82166  1  0  0  0
 83 86  1  0  0  0
 83167  1  0  0  0
 86168  1  0  0  0
 87169  1  0  0  0
M  CHG  1  87   1
M  ISO  4   1 100  68 101  82 101  86 100
M  END
> <chiral flag>
0

> <version>
0

> <s_m_source_file>
/data/baiqing/PycharmProjects/Reinvent-master-3.2/result/LINK_invent/BTK/process_docking_weight1_custom_sum_contain_oxygen_bond_distance_aromatic_linkinvent_7_9_3/rearranged_h_0191.sdf

> <i_m_source_file_index>
91

> <r_mmod_Potential_Energy-OPLS-2005>
-120.135414123535

> <r_mmod_Stretch_Energy-OPLS-2005>
35.6235504150391

> <r_mmod_Bend_Energy-OPLS-2005>
103.678108215332

> <r_mmod_Torsional_Energy-OPLS-2005>
331.688537597656

> <r_mmod_Improper_Torsional_Energy-OPLS-2005>
7.67578220367432

> <r_mmod_Van_der_Waal_Energy-OPLS-2005>
143.034683227539

> <r_mmod_Electrostatic_Energy-OPLS-2005>
-298.819427490234

> <r_mmod_Solvation_Energy-OPLS-2005>
-452.566650390625

> <b_mmod_Minimization_Converged-OPLS-2005>
0

> <r_mmod_RMS_Derivative-OPLS-2005>
3.41785860061646

$$$$
91
                    3D
 Structure written by MMmdl.
154163  0  0  1  0            999 V2000
  -30.6338  -14.8115   20.4417 C   0  0  0  0  0  0
  -30.4210  -12.5057   19.4735 C   0  0  0  0  0  0
  -29.5027  -12.5122   18.2338 C   0  0  0  0  0  0
  -28.0323  -12.3300   18.6541 C   0  0  0  0  0  0
  -27.6322  -13.2437   19.8447 C   0  0  2  0  0  0
  -28.6830  -13.2193   20.9748 C   0  0  0  0  0  0
  -25.2475  -13.8220   20.5724 C   0  0  0  0  0  0
  -24.1783  -13.0448   20.9230 C   0  0  0  0  0  0
  -24.6391  -11.6931   20.8765 C   0  0  0  0  0  0
  -23.9073  -10.4299   21.0411 C   0  0  0  0  0  0
  -24.3622   -9.4213   21.9188 C   0  0  0  0  0  0
  -23.6298   -8.2246   22.0754 C   0  0  0  0  0  0
  -22.4280   -8.0283   21.3545 C   0  0  0  0  0  0
  -21.9919   -9.0259   20.4647 C   0  0  0  0  0  0
  -22.7246  -10.2140   20.3057 C   0  0  0  0  0  0
  -21.6854   -6.0738   22.5280 C   0  0  0  0  0  0
  -21.4015   -6.5642   23.8213 C   0  0  0  0  0  0
  -21.3662   -5.6795   24.9175 C   0  0  0  0  0  0
  -21.6044   -4.3057   24.7225 C   0  0  0  0  0  0
  -21.8820   -3.8148   23.4346 C   0  0  0  0  0  0
  -21.9192   -4.6965   22.3403 C   0  0  0  0  0  0
  -22.7802  -13.5220   21.1875 C   0  0  0  0  0  0
  -22.1658   -4.2152   21.0979 F   0  0  0  0  0  0
  -21.5630   -3.4539   25.7737 F   0  0  0  0  0  0
  -29.9596  -13.6035   20.3637 N   0  0  0  0  0  0
  -26.2902  -12.9447   20.3302 N   0  0  0  0  0  0
  -25.9327  -11.6578   20.5779 N   0  0  0  0  0  0
  -22.0448  -12.8209   22.0428 N   0  0  0  0  0  0
  -25.4156  -15.1943   20.4126 N   0  0  0  0  0  0
  -31.8453  -14.7862   20.1995 O   0  0  0  0  0  0
  -21.6642   -6.8882   21.4242 O   0  0  0  0  0  0
  -22.3490  -14.5525   20.6717 O   0  0  0  0  0  0
  -24.6362  -31.8513   23.1953 C   0  0  0  0  0  0
  -25.9170  -32.4730   23.8311 C   0  0  1  0  0  0
  -27.2157  -27.2168   20.1181 C   0  0  0  0  0  0
  -25.5949  -33.8534   24.2233 N   0  0  0  0  0  0
  -23.4340  -30.4749   21.5401 C   0  0  2  0  0  0
  -24.8790  -28.9183   20.1067 C   0  0  0  0  0  0
  -22.7525  -29.4587   22.4893 C   0  0  0  0  0  0
  -18.0296  -28.1391   22.8481 C   0  0  0  0  0  0
  -24.1491  -36.7270   23.2641 C   0  0  0  0  0  0
  -25.9847  -30.7494   21.3818 C   0  0  0  0  0  0
  -26.0539  -29.3697   20.7195 C   0  0  0  0  0  0
  -27.2201  -28.5303   20.7168 C   0  0  0  0  0  0
  -26.0059  -26.8416   19.4887 C   0  0  0  0  0  0
  -24.8630  -27.6642   19.4824 C   0  0  0  0  0  0
  -23.6532  -29.8110   20.1559 C   0  0  0  0  0  0
  -25.4120  -36.3053   24.0323 C   0  0  1  0  0  0
  -20.5903  -28.3708   23.1256 C   0  0  2  0  0  0
  -20.6783  -26.9421   22.5406 C   0  0  0  0  0  0
  -19.5757  -26.6384   21.5212 C   0  0  0  0  0  0
  -18.1938  -26.7932   22.1623 C   0  0  0  0  0  0
  -19.1551  -28.8867   23.2862 C   0  0  0  0  0  0
  -18.9470  -30.1466   23.8884 C   0  0  0  0  0  0
  -17.6468  -30.6590   24.0561 C   0  0  0  0  0  0
  -25.9066  -34.9426   23.5082 C   0  0  0  0  0  0
  -16.5358  -29.9085   23.6335 C   0  0  0  0  0  0
  -16.7281  -28.6503   23.0355 C   0  0  0  0  0  0
  -26.4519  -31.6570   25.0722 C   0  0  0  0  0  0
  -25.3726  -31.3734   26.1430 C   0  0  0  0  0  0
  -27.0377  -30.2977   24.6248 C   0  0  0  0  0  0
  -27.6061  -32.4322   25.7502 C   0  0  0  0  0  0
  -27.5578  -37.1791   24.8464 C   0  0  0  0  0  0
  -21.4227  -29.3047   22.3638 N   0  0  0  0  0  0
  -26.4288  -37.3759   23.9410 N   0  0  0  0  0  0
  -24.7045  -31.0441   22.0950 N   0  0  0  0  0  0
  -23.4205  -28.8126   23.3008 O   0  0  0  0  0  0
  -28.3013  -26.2976   20.2172 O   0  0  0  0  0  0
  -26.5640  -34.8910   22.4654 O   0  0  0  0  0  0
  -23.5502  -32.1357   23.7226 O   0  0  0  0  0  0
  -27.5979  -22.6569   20.5023 C   0  0  0  0  0  0
  -27.8162  -21.2406   20.6656 C   0  0  0  0  0  0
  -28.6344  -23.5050   20.0146 C   0  0  0  0  0  0
  -29.0695  -20.6432   20.3328 C   0  0  0  0  0  0
  -30.6223  -18.5935   19.9463 C   0  0  0  0  0  0
  -28.4090  -18.1595   20.8783 C   0  0  0  0  0  0
  -30.4828  -17.1171   19.3770 C   0  0  0  0  0  0
  -29.0112  -16.7097   21.2549 C   0  0  0  0  0  0
  -28.3936  -25.0003   19.4307 C   0  0  0  0  0  0
  -29.8268  -22.8699   19.7428 N   0  0  0  0  0  0
  -30.0338  -21.5241   19.9024 N   0  0  0  0  0  0
  -29.3589  -19.2014   20.4064 N   0  0  0  0  0  0
  -29.9626  -16.0504   20.3005 N   0  0  0  0  0  0
  -31.4599  -12.6218   19.1608 H   0  0  0  0  0  0
  -30.3748  -11.5443   19.9876 H   0  0  0  0  0  0
  -29.7952  -11.7231   17.5396 H   0  0  0  0  0  0
  -29.6181  -13.4541   17.6948 H   0  0  0  0  0  0
  -27.9007  -11.2838   18.9328 H   0  0  0  0  0  0
  -27.3709  -12.5025   17.8042 H   0  0  0  0  0  0
  -27.6116  -14.2587   19.4473 H   0  0  0  0  0  0
  -28.7487  -12.2270   21.4236 H   0  0  0  0  0  0
  -28.4145  -13.8954   21.7853 H   0  0  0  0  0  0
  -25.2762   -9.5688   22.4774 H   0  0  0  0  0  0
  -24.0007   -7.4635   22.7473 H   0  0  0  0  0  0
  -21.0850   -8.8772   19.8953 H   0  0  0  0  0  0
  -22.3696  -10.9680   19.6172 H   0  0  0  0  0  0
  -21.2007   -7.6150   23.9717 H   0  0  0  0  0  0
  -21.1485   -6.0524   25.9079 H   0  0  0  0  0  0
  -22.0597   -2.7610   23.2843 H   0  0  0  0  0  0
  -22.4059  -11.9871   22.4820 H   0  0  0  0  0  0
  -21.1067  -13.1238   22.2629 H   0  0  0  0  0  0
  -24.6468  -15.8472   20.5170 H   0  0  0  0  0  0
  -26.2618  -15.6282   20.0678 H   0  0  0  0  0  0
  -26.7234  -32.5356   23.1043 H   0  0  0  0  0  0
  -25.0087  -33.9660   25.0373 H   0  0  0  0  0  0
  -22.7326  -31.2991   21.3938 H   0  0  0  0  0  0
  -23.3758  -35.9596   23.3289 H   0  0  0  0  0  0
  -24.3580  -36.8910   22.2057 H   0  0  0  0  0  0
  -23.7239  -37.6464   23.6679 H   0  0  0  0  0  0
  -26.1321  -31.5096   20.6135 H   0  0  0  0  0  0
  -26.8591  -30.7947   22.0198 H   0  0  0  0  0  0
  -28.1162  -28.8699   21.2172 H   0  0  0  0  0  0
  -25.8725  -25.8754   19.0324 H   0  0  0  0  0  0
  -23.9586  -27.3071   19.0087 H   0  0  0  0  0  0
  -23.7818  -30.5886   19.4019 H   0  0  0  0  0  0
  -22.7693  -29.2495   19.8486 H   0  0  0  0  0  0
  -25.1303  -36.1889   25.0816 H   0  0  0  0  0  0
  -20.9996  -28.3291   24.1376 H   0  0  0  0  0  0
  -20.5681  -26.2321   23.3615 H   0  0  0  0  0  0
  -21.6649  -26.7439   22.1199 H   0  0  0  0  0  0
  -19.6918  -25.6291   21.1250 H   0  0  0  0  0  0
  -19.6695  -27.3188   20.6735 H   0  0  0  0  0  0
  -17.4208  -26.6679   21.4025 H   0  0  0  0  0  0
  -18.0338  -26.0076   22.9022 H   0  0  0  0  0  0
  -19.7945  -30.7286   24.2247 H   0  0  0  0  0  0
  -17.5021  -31.6270   24.5164 H   0  0  0  0  0  0
  -15.5358  -30.2984   23.7666 H   0  0  0  0  0  0
  -15.8680  -28.0819   22.7080 H   0  0  0  0  0  0
  -24.5910  -30.7075   25.7754 H   0  0  0  0  0  0
  -24.8910  -32.2907   26.4824 H   0  0  0  0  0  0
  -25.8029  -30.8930   27.0226 H   0  0  0  0  0  0
  -26.2978  -29.6707   24.1259 H   0  0  0  0  0  0
  -27.4024  -29.7261   25.4792 H   0  0  0  0  0  0
  -27.8871  -30.4235   23.9529 H   0  0  0  0  0  0
  -27.2660  -33.3632   26.2049 H   0  0  0  0  0  0
  -28.3890  -32.6864   25.0344 H   0  0  0  0  0  0
  -28.0708  -31.8466   26.5445 H   0  0  0  0  0  0
  -28.2585  -38.0098   24.7520 H   0  0  0  0  0  0
  -28.1087  -36.2629   24.6279 H   0  0  0  0  0  0
  -27.2298  -37.1422   25.8867 H   0  0  0  0  0  0
  -20.9420  -29.8768   21.6836 H   0  0  0  0  0  0
  -26.0160  -38.2829   24.1416 H   0  0  0  0  0  0
  -26.6179  -23.0724   20.6850 H   0  0  0  0  0  0
  -27.0001  -20.6218   21.0062 H   0  0  0  0  0  0
  -31.0566  -19.2226   19.1678 H   0  0  0  0  0  0
  -31.3347  -18.6042   20.7724 H   0  0  0  0  0  0
  -27.8693  -18.5451   21.7445 H   0  0  0  0  0  0
  -27.6580  -18.0322   20.0971 H   0  0  0  0  0  0
  -31.4541  -16.8375   18.9667 H   0  0  0  0  0  0
  -29.8197  -17.1371   18.5113 H   0  0  0  0  0  0
  -28.1692  -16.0430   21.4315 H   0  0  0  0  0  0
  -29.5277  -16.7889   22.2126 H   0  0  0  0  0  0
  -27.6026  -24.9050   18.6944 H   0  0  0  0  0  0
  -29.2625  -25.1777   18.7967 H   0  0  0  0  0  0
  1 25  1  0  0  0
  1 30  2  0  0  0
  1 83  1  0  0  0
  2  3  1  0  0  0
  2 25  1  0  0  0
  2 84  1  0  0  0
  2 85  1  0  0  0
  3  4  1  0  0  0
  3 86  1  0  0  0
  3 87  1  0  0  0
  4  5  1  0  0  0
  4 88  1  0  0  0
  4 89  1  0  0  0
  5  6  1  0  0  0
  5 26  1  0  0  0
  5 90  1  0  0  0
  6 25  1  0  0  0
  6 91  1  0  0  0
  6 92  1  0  0  0
  7  8  2  0  0  0
  7 26  1  0  0  0
  7 29  1  0  0  0
  8  9  1  0  0  0
  8 22  1  0  0  0
  9 10  1  0  0  0
  9 27  2  0  0  0
 10 11  2  0  0  0
 10 15  1  0  0  0
 11 12  1  0  0  0
 11 93  1  0  0  0
 12 13  2  0  0  0
 12 94  1  0  0  0
 13 14  1  0  0  0
 13 31  1  0  0  0
 14 15  2  0  0  0
 14 95  1  0  0  0
 15 96  1  0  0  0
 16 17  2  0  0  0
 16 21  1  0  0  0
 16 31  1  0  0  0
 17 18  1  0  0  0
 17 97  1  0  0  0
 18 19  2  0  0  0
 18 98  1  0  0  0
 19 20  1  0  0  0
 19 24  1  0  0  0
 20 21  2  0  0  0
 20 99  1  0  0  0
 21 23  1  0  0  0
 22 28  1  0  0  0
 22 32  2  0  0  0
 26 27  1  0  0  0
 28100  1  0  0  0
 28101  1  0  0  0
 29102  1  0  0  0
 29103  1  0  0  0
 33 34  1  0  0  0
 33 66  1  0  0  0
 33 70  2  0  0  0
 34 36  1  0  0  0
 34 59  1  0  0  0
 34104  1  0  0  0
 35 44  2  0  0  0
 35 45  1  0  0  0
 35 68  1  0  0  0
 36 56  1  0  0  0
 36105  1  0  0  0
 37 39  1  0  0  0
 37 47  1  0  0  0
 37 66  1  0  0  0
 37106  1  0  0  0
 38 43  2  0  0  0
 38 46  1  0  0  0
 38 47  1  0  0  0
 39 64  1  0  0  0
 39 67  2  0  0  0
 40 52  1  0  0  0
 40 53  2  0  0  0
 40 58  1  0  0  0
 41107  1  0  0  0
 41108  1  0  0  0
 41109  1  0  0  0
 41 48  1  0  0  0
 42 43  1  0  0  0
 42 66  1  0  0  0
 42110  1  0  0  0
 42111  1  0  0  0
 43 44  1  0  0  0
 44112  1  0  0  0
 45 46  2  0  0  0
 45113  1  0  0  0
 46114  1  0  0  0
 47115  1  0  0  0
 47116  1  0  0  0
 48 56  1  0  0  0
 48 65  1  0  0  0
 48117  1  0  0  0
 49 50  1  0  0  0
 49 53  1  0  0  0
 49 64  1  0  0  0
 49118  1  0  0  0
 50 51  1  0  0  0
 50119  1  0  0  0
 50120  1  0  0  0
 51 52  1  0  0  0
 51121  1  0  0  0
 51122  1  0  0  0
 52123  1  0  0  0
 52124  1  0  0  0
 53 54  1  0  0  0
 54 55  2  0  0  0
 54125  1  0  0  0
 55 57  1  0  0  0
 55126  1  0  0  0
 56 69  2  0  0  0
 57 58  2  0  0  0
 57127  1  0  0  0
 58128  1  0  0  0
 59 60  1  0  0  0
 59 61  1  0  0  0
 59 62  1  0  0  0
 60129  1  0  0  0
 60130  1  0  0  0
 60131  1  0  0  0
 61132  1  0  0  0
 61133  1  0  0  0
 61134  1  0  0  0
 62135  1  0  0  0
 62136  1  0  0  0
 62137  1  0  0  0
 63 65  1  0  0  0
 63138  1  0  0  0
 63139  1  0  0  0
 63140  1  0  0  0
 64141  1  0  0  0
 65142  1  0  0  0
 68 79  1  0  0  0
 71 72  2  0  0  0
 71 73  1  0  0  0
 71143  1  0  0  0
 72 74  1  0  0  0
 72144  1  0  0  0
 73 79  1  0  0  0
 73 80  2  0  0  0
 74 81  2  0  0  0
 74 82  1  0  0  0
 75 77  1  0  0  0
 75 82  1  0  0  0
 75145  1  0  0  0
 75146  1  0  0  0
 76 78  1  0  0  0
 76 82  1  0  0  0
 76147  1  0  0  0
 76148  1  0  0  0
 77 83  1  0  0  0
 77149  1  0  0  0
 77150  1  0  0  0
 78 83  1  0  0  0
 78151  1  0  0  0
 78152  1  0  0  0
 79153  1  0  0  0
 79154  1  0  0  0
 80 81  1  0  0  0
M  ISO  4   1 100  68 101  79 101  83 100
M  END
> <chiral flag>
0

> <version>
0

> <s_m_source_file>
/data/baiqing/PycharmProjects/Reinvent-master-3.2/result/LINK_invent/BTK/process_docking_weight1_custom_sum_contain_oxygen_bond_distance_aromatic_linkinvent_7_9_3/rearranged_h_0191.sdf

> <i_m_source_file_index>
92

> <r_mmod_Potential_Energy-OPLS-2005>
481.995727539062

> <r_mmod_Stretch_Energy-OPLS-2005>
150.077606201172

> <r_mmod_Bend_Energy-OPLS-2005>
240.95768737793

> <r_mmod_Torsional_Energy-OPLS-2005>
340.685638427734

> <r_mmod_Improper_Torsional_Energy-OPLS-2005>
19.0099983215332

> <r_mmod_Van_der_Waal_Energy-OPLS-2005>
152.30696105957

> <r_mmod_Electrostatic_Energy-OPLS-2005>
-293.326721191406

> <r_mmod_Solvation_Energy-OPLS-2005>
-245.139663696289

> <b_mmod_Minimization_Converged-OPLS-2005>
0

> <r_mmod_RMS_Derivative-OPLS-2005>
0.454400688409805

$$$$
92
                    3D
 Structure written by MMmdl.
155164  0  0  1  0            999 V2000
  -30.6457  -14.8131   20.4478 C   0  0  0  0  0  0
  -30.4149  -12.5011   19.4998 C   0  0  0  0  0  0
  -29.5111  -12.5165   18.2493 C   0  0  0  0  0  0
  -28.0387  -12.3341   18.6601 C   0  0  0  0  0  0
  -27.6315  -13.2525   19.8440 C   0  0  2  0  0  0
  -28.6731  -13.2510   20.9849 C   0  0  0  0  0  0
  -25.2430  -13.8228   20.5706 C   0  0  0  0  0  0
  -24.1762  -13.0433   20.9233 C   0  0  0  0  0  0
  -24.6398  -11.6929   20.8769 C   0  0  0  0  0  0
  -23.9098  -10.4289   21.0410 C   0  0  0  0  0  0
  -24.3642   -9.4198   21.9186 C   0  0  0  0  0  0
  -23.6312   -8.2240   22.0760 C   0  0  0  0  0  0
  -22.4292   -8.0290   21.3545 C   0  0  0  0  0  0
  -21.9927   -9.0268   20.4647 C   0  0  0  0  0  0
  -22.7270  -10.2137   20.3054 C   0  0  0  0  0  0
  -21.6858   -6.0744   22.5273 C   0  0  0  0  0  0
  -21.4028   -6.5639   23.8213 C   0  0  0  0  0  0
  -21.3665   -5.6789   24.9170 C   0  0  0  0  0  0
  -21.6045   -4.3054   24.7210 C   0  0  0  0  0  0
  -21.8819   -3.8149   23.4330 C   0  0  0  0  0  0
  -21.9187   -4.6968   22.3389 C   0  0  0  0  0  0
  -22.7778  -13.5189   21.1870 C   0  0  0  0  0  0
  -22.1654   -4.2156   21.0965 F   0  0  0  0  0  0
  -21.5624   -3.4537   25.7724 F   0  0  0  0  0  0
  -29.9669  -13.6058   20.3922 N   0  0  0  0  0  0
  -26.2886  -12.9494   20.3273 N   0  0  0  0  0  0
  -25.9332  -11.6614   20.5762 N   0  0  0  0  0  0
  -22.0412  -12.8206   22.0434 N   0  0  0  0  0  0
  -25.4018  -15.1954   20.4086 N   0  0  0  0  0  0
  -31.8389  -14.8105   20.1362 O   0  0  0  0  0  0
  -21.6646   -6.8896   21.4244 O   0  0  0  0  0  0
  -22.3460  -14.5487   20.6704 O   0  0  0  0  0  0
  -24.6392  -31.8510   23.1954 C   0  0  0  0  0  0
  -25.9186  -32.4737   23.8323 C   0  0  1  0  0  0
  -27.2080  -27.1941   20.1412 C   0  0  0  0  0  0
  -25.5954  -33.8542   24.2246 N   0  0  0  0  0  0
  -23.4392  -30.4752   21.5400 C   0  0  2  0  0  0
  -24.8864  -28.9187   20.1084 C   0  0  0  0  0  0
  -22.7548  -29.4586   22.4878 C   0  0  0  0  0  0
  -18.0302  -28.1389   22.8473 C   0  0  0  0  0  0
  -24.1493  -36.7267   23.2641 C   0  0  0  0  0  0
  -25.9925  -30.7436   21.3868 C   0  0  0  0  0  0
  -26.0625  -29.3617   20.7266 C   0  0  0  0  0  0
  -27.2263  -28.5140   20.7297 C   0  0  0  0  0  0
  -26.0078  -26.8459   19.4792 C   0  0  0  0  0  0
  -24.8688  -27.6724   19.4702 C   0  0  0  0  0  0
  -23.6629  -29.8150   20.1549 C   0  0  0  0  0  0
  -25.4121  -36.3065   24.0327 C   0  0  1  0  0  0
  -20.5911  -28.3721   23.1242 C   0  0  2  0  0  0
  -20.6796  -26.9429   22.5403 C   0  0  0  0  0  0
  -19.5771  -26.6381   21.5209 C   0  0  0  0  0  0
  -18.1949  -26.7930   22.1615 C   0  0  0  0  0  0
  -19.1555  -28.8869   23.2853 C   0  0  0  0  0  0
  -18.9471  -30.1462   23.8885 C   0  0  0  0  0  0
  -17.6471  -30.6590   24.0557 C   0  0  0  0  0  0
  -25.9064  -34.9432   23.5093 C   0  0  0  0  0  0
  -16.5362  -29.9085   23.6328 C   0  0  0  0  0  0
  -16.7288  -28.6499   23.0352 C   0  0  0  0  0  0
  -26.4520  -31.6577   25.0736 C   0  0  0  0  0  0
  -25.3715  -31.3733   26.1434 C   0  0  0  0  0  0
  -27.0380  -30.2995   24.6254 C   0  0  0  0  0  0
  -27.6079  -32.4316   25.7508 C   0  0  0  0  0  0
  -27.5579  -37.1795   24.8465 C   0  0  0  0  0  0
  -21.4245  -29.3057   22.3620 N   0  0  0  0  0  0
  -26.4292  -37.3769   23.9410 N   0  0  0  0  0  0
  -24.7100  -31.0421   22.0965 N   0  0  0  0  0  0
  -23.4218  -28.8112   23.2998 O   0  0  0  0  0  0
  -28.2567  -26.2247   20.2299 O   0  0  0  0  0  0
  -26.5631  -34.8915   22.4661 O   0  0  0  0  0  0
  -23.5520  -32.1351   23.7209 O   0  0  0  0  0  0
  -30.1120  -23.6872   21.0107 C   0  0  0  0  0  0
  -30.8993  -22.5600   21.2995 C   0  0  0  0  0  0
  -28.8585  -23.4896   20.4228 C   0  0  0  0  0  0
  -29.3105  -21.0876   20.4980 C   0  0  0  0  0  0
  -30.7444  -17.3814   20.6757 C   0  0  0  0  0  0
  -28.8217  -16.7648   20.2837 C   0  0  0  0  0  0
  -29.3944  -18.1769   20.7370 C   0  0  0  0  0  0
  -29.5627  -19.5201   18.4970 C   0  0  0  0  0  0
  -27.8986  -24.7424   20.0647 C   0  0  0  0  0  0
  -29.0425  -19.5877   19.9418 C   0  0  2  0  0  0
  -30.5096  -21.2925   21.0325 N   0  0  0  0  0  0
  -28.4943  -22.1564   20.1755 N   0  0  0  0  0  0
  -30.0439  -16.0519   20.7604 N   0  0  0  0  0  0
  -31.4611  -12.5928   19.2040 H   0  0  0  0  0  0
  -30.3438  -11.5435   20.0162 H   0  0  0  0  0  0
  -29.8096  -11.7276   17.5572 H   0  0  0  0  0  0
  -29.6366  -13.4585   17.7132 H   0  0  0  0  0  0
  -27.9058  -11.2889   18.9434 H   0  0  0  0  0  0
  -27.3831  -12.5044   17.8047 H   0  0  0  0  0  0
  -27.6071  -14.2623   19.4359 H   0  0  0  0  0  0
  -28.7188  -12.2759   21.4724 H   0  0  0  0  0  0
  -28.3984  -13.9748   21.7547 H   0  0  0  0  0  0
  -25.2783   -9.5679   22.4773 H   0  0  0  0  0  0
  -24.0010   -7.4628   22.7488 H   0  0  0  0  0  0
  -21.0850   -8.8805   19.8958 H   0  0  0  0  0  0
  -22.3740  -10.9683   19.6172 H   0  0  0  0  0  0
  -21.2045   -7.6147   23.9727 H   0  0  0  0  0  0
  -21.1491   -6.0506   25.9075 H   0  0  0  0  0  0
  -22.0593   -2.7606   23.2814 H   0  0  0  0  0  0
  -22.4036  -11.9900   22.4873 H   0  0  0  0  0  0
  -21.1027  -13.1252   22.2622 H   0  0  0  0  0  0
  -24.6249  -15.8392   20.5139 H   0  0  0  0  0  0
  -26.2373  -15.6371   20.0500 H   0  0  0  0  0  0
  -26.7250  -32.5372   23.1054 H   0  0  0  0  0  0
  -25.0128  -33.9665   25.0413 H   0  0  0  0  0  0
  -22.7401  -31.3011   21.3931 H   0  0  0  0  0  0
  -23.3770  -35.9584   23.3295 H   0  0  0  0  0  0
  -24.3593  -36.8900   22.2060 H   0  0  0  0  0  0
  -23.7224  -37.6457   23.6669 H   0  0  0  0  0  0
  -26.1410  -31.5022   20.6172 H   0  0  0  0  0  0
  -26.8669  -30.7921   22.0243 H   0  0  0  0  0  0
  -28.1217  -28.8433   21.2378 H   0  0  0  0  0  0
  -25.9024  -25.8989   18.9727 H   0  0  0  0  0  0
  -23.9721  -27.3316   18.9720 H   0  0  0  0  0  0
  -23.8009  -30.5951   19.4052 H   0  0  0  0  0  0
  -22.7778  -29.2591   19.8397 H   0  0  0  0  0  0
  -25.1306  -36.1912   25.0818 H   0  0  0  0  0  0
  -21.0000  -28.3310   24.1364 H   0  0  0  0  0  0
  -20.5701  -26.2332   23.3616 H   0  0  0  0  0  0
  -21.6665  -26.7453   22.1195 H   0  0  0  0  0  0
  -19.6938  -25.6284   21.1257 H   0  0  0  0  0  0
  -19.6707  -27.3174   20.6723 H   0  0  0  0  0  0
  -17.4219  -26.6667   21.4017 H   0  0  0  0  0  0
  -18.0353  -26.0077   22.9019 H   0  0  0  0  0  0
  -19.7949  -30.7272   24.2263 H   0  0  0  0  0  0
  -17.5027  -31.6273   24.5159 H   0  0  0  0  0  0
  -15.5362  -30.2984   23.7661 H   0  0  0  0  0  0
  -15.8687  -28.0813   22.7083 H   0  0  0  0  0  0
  -24.5906  -30.7069   25.7743 H   0  0  0  0  0  0
  -24.8878  -32.2898   26.4831 H   0  0  0  0  0  0
  -25.8009  -30.8922   27.0232 H   0  0  0  0  0  0
  -26.2975  -29.6726   24.1268 H   0  0  0  0  0  0
  -27.4045  -29.7284   25.4795 H   0  0  0  0  0  0
  -27.8866  -30.4280   23.9530 H   0  0  0  0  0  0
  -27.2708  -33.3640   26.2053 H   0  0  0  0  0  0
  -28.3902  -32.6828   25.0331 H   0  0  0  0  0  0
  -28.0724  -31.8445   26.5441 H   0  0  0  0  0  0
  -28.2595  -38.0095   24.7531 H   0  0  0  0  0  0
  -28.1074  -36.2629   24.6271 H   0  0  0  0  0  0
  -27.2298  -37.1426   25.8867 H   0  0  0  0  0  0
  -20.9442  -29.8780   21.6814 H   0  0  0  0  0  0
  -26.0168  -38.2842   24.1415 H   0  0  0  0  0  0
  -30.4690  -24.6837   21.2333 H   0  0  0  0  0  0
  -31.8776  -22.6779   21.7424 H   0  0  0  0  0  0
  -31.4015  -17.5962   21.5205 H   0  0  0  0  0  0
  -31.2864  -17.5259   19.7385 H   0  0  0  0  0  0
  -28.6688  -16.6748   19.2068 H   0  0  0  0  0  0
  -27.9114  -16.4893   20.8167 H   0  0  0  0  0  0
  -29.1251  -18.2980   21.7889 H   0  0  0  0  0  0
  -29.1467  -20.3342   17.9029 H   0  0  0  0  0  0
  -29.2872  -18.5871   18.0083 H   0  0  0  0  0  0
  -30.6482  -19.6116   18.4686 H   0  0  0  0  0  0
  -26.9894  -24.5674   20.6425 H   0  0  0  0  0  0
  -27.6321  -24.5919   19.0185 H   0  0  0  0  0  0
  -27.9562  -19.5782   19.8488 H   0  0  0  0  0  0
  1 25  1  0  0  0
  1 30  2  0  0  0
  1 83  1  0  0  0
  2  3  1  0  0  0
  2 25  1  0  0  0
  2 84  1  0  0  0
  2 85  1  0  0  0
  3  4  1  0  0  0
  3 86  1  0  0  0
  3 87  1  0  0  0
  4  5  1  0  0  0
  4 88  1  0  0  0
  4 89  1  0  0  0
  5  6  1  0  0  0
  5 26  1  0  0  0
  5 90  1  0  0  0
  6 25  1  0  0  0
  6 91  1  0  0  0
  6 92  1  0  0  0
  7  8  2  0  0  0
  7 26  1  0  0  0
  7 29  1  0  0  0
  8  9  1  0  0  0
  8 22  1  0  0  0
  9 10  1  0  0  0
  9 27  2  0  0  0
 10 11  2  0  0  0
 10 15  1  0  0  0
 11 12  1  0  0  0
 11 93  1  0  0  0
 12 13  2  0  0  0
 12 94  1  0  0  0
 13 14  1  0  0  0
 13 31  1  0  0  0
 14 15  2  0  0  0
 14 95  1  0  0  0
 15 96  1  0  0  0
 16 17  2  0  0  0
 16 21  1  0  0  0
 16 31  1  0  0  0
 17 18  1  0  0  0
 17 97  1  0  0  0
 18 19  2  0  0  0
 18 98  1  0  0  0
 19 20  1  0  0  0
 19 24  1  0  0  0
 20 21  2  0  0  0
 20 99  1  0  0  0
 21 23  1  0  0  0
 22 28  1  0  0  0
 22 32  2  0  0  0
 26 27  1  0  0  0
 28100  1  0  0  0
 28101  1  0  0  0
 29102  1  0  0  0
 29103  1  0  0  0
 33 34  1  0  0  0
 33 66  1  0  0  0
 33 70  2  0  0  0
 34 36  1  0  0  0
 34 59  1  0  0  0
 34104  1  0  0  0
 35 44  2  0  0  0
 35 45  1  0  0  0
 35 68  1  0  0  0
 36 56  1  0  0  0
 36105  1  0  0  0
 37 39  1  0  0  0
 37 47  1  0  0  0
 37 66  1  0  0  0
 37106  1  0  0  0
 38 43  2  0  0  0
 38 46  1  0  0  0
 38 47  1  0  0  0
 39 64  1  0  0  0
 39 67  2  0  0  0
 40 52  1  0  0  0
 40 53  2  0  0  0
 40 58  1  0  0  0
 41107  1  0  0  0
 41108  1  0  0  0
 41109  1  0  0  0
 41 48  1  0  0  0
 42 43  1  0  0  0
 42 66  1  0  0  0
 42110  1  0  0  0
 42111  1  0  0  0
 43 44  1  0  0  0
 44112  1  0  0  0
 45 46  2  0  0  0
 45113  1  0  0  0
 46114  1  0  0  0
 47115  1  0  0  0
 47116  1  0  0  0
 48 56  1  0  0  0
 48 65  1  0  0  0
 48117  1  0  0  0
 49 50  1  0  0  0
 49 53  1  0  0  0
 49 64  1  0  0  0
 49118  1  0  0  0
 50 51  1  0  0  0
 50119  1  0  0  0
 50120  1  0  0  0
 51 52  1  0  0  0
 51121  1  0  0  0
 51122  1  0  0  0
 52123  1  0  0  0
 52124  1  0  0  0
 53 54  1  0  0  0
 54 55  2  0  0  0
 54125  1  0  0  0
 55 57  1  0  0  0
 55126  1  0  0  0
 56 69  2  0  0  0
 57 58  2  0  0  0
 57127  1  0  0  0
 58128  1  0  0  0
 59 60  1  0  0  0
 59 61  1  0  0  0
 59 62  1  0  0  0
 60129  1  0  0  0
 60130  1  0  0  0
 60131  1  0  0  0
 61132  1  0  0  0
 61133  1  0  0  0
 61134  1  0  0  0
 62135  1  0  0  0
 62136  1  0  0  0
 62137  1  0  0  0
 63 65  1  0  0  0
 63138  1  0  0  0
 63139  1  0  0  0
 63140  1  0  0  0
 64141  1  0  0  0
 65142  1  0  0  0
 68 79  1  0  0  0
 71 72  2  0  0  0
 71 73  1  0  0  0
 71143  1  0  0  0
 72 81  1  0  0  0
 72144  1  0  0  0
 73 79  1  0  0  0
 73 82  2  0  0  0
 74 80  1  0  0  0
 74 81  2  0  0  0
 74 82  1  0  0  0
 75 83  1  0  0  0
 75145  1  0  0  0
 75146  1  0  0  0
 75 77  1  0  0  0
 76 77  1  0  0  0
 76 83  1  0  0  0
 76147  1  0  0  0
 76148  1  0  0  0
 77 80  1  0  0  0
 77149  1  0  0  0
 78150  1  0  0  0
 78151  1  0  0  0
 78152  1  0  0  0
 78 80  1  0  0  0
 79153  1  0  0  0
 79154  1  0  0  0
 80155  1  0  0  0
M  ISO  4   1 100  68 101  79 101  83 100
M  END
> <chiral flag>
0

> <version>
0

> <s_m_source_file>
/data/baiqing/PycharmProjects/Reinvent-master-3.2/result/LINK_invent/BTK/process_docking_weight1_custom_sum_contain_oxygen_bond_distance_aromatic_linkinvent_7_9_3/rearranged_h_0191.sdf

> <i_m_source_file_index>
93

> <r_mmod_Potential_Energy-OPLS-2005>
-18.2031879425049

> <r_mmod_Stretch_Energy-OPLS-2005>
167.349273681641

> <r_mmod_Bend_Energy-OPLS-2005>
225.694320678711

> <r_mmod_Torsional_Energy-OPLS-2005>
265.324340820312

> <r_mmod_Improper_Torsional_Energy-OPLS-2005>
10.06312084198

> <r_mmod_Van_der_Waal_Energy-OPLS-2005>
138.39030456543

> <r_mmod_Electrostatic_Energy-OPLS-2005>
-720.6787109375

> <r_mmod_Solvation_Energy-OPLS-2005>
-234.294799804688

> <b_mmod_Minimization_Converged-OPLS-2005>
0

> <r_mmod_RMS_Derivative-OPLS-2005>
1.94711744785309

$$$$
93
                    3D
 Structure written by MMmdl.
164174  0  0  1  0            999 V2000
  -30.5651  -14.9267   20.4104 C   0  0  0  0  0  0
  -30.4291  -12.5721   19.4897 C   0  0  0  0  0  0
  -29.5135  -12.5221   18.2465 C   0  0  0  0  0  0
  -28.0457  -12.3203   18.6669 C   0  0  0  0  0  0
  -27.6276  -13.2511   19.8363 C   0  0  2  0  0  0
  -28.6710  -13.2830   20.9710 C   0  0  0  0  0  0
  -25.2470  -13.8233   20.5731 C   0  0  0  0  0  0
  -24.1778  -13.0456   20.9228 C   0  0  0  0  0  0
  -24.6385  -11.6937   20.8755 C   0  0  0  0  0  0
  -23.9071  -10.4301   21.0407 C   0  0  0  0  0  0
  -24.3623   -9.4214   21.9181 C   0  0  0  0  0  0
  -23.6302   -8.2246   22.0748 C   0  0  0  0  0  0
  -22.4285   -8.0279   21.3537 C   0  0  0  0  0  0
  -21.9917   -9.0254   20.4642 C   0  0  0  0  0  0
  -22.7244  -10.2135   20.3054 C   0  0  0  0  0  0
  -21.6855   -6.0736   22.5276 C   0  0  0  0  0  0
  -21.4016   -6.5640   23.8210 C   0  0  0  0  0  0
  -21.3659   -5.6794   24.9170 C   0  0  0  0  0  0
  -21.6047   -4.3058   24.7222 C   0  0  0  0  0  0
  -21.8821   -3.8146   23.4343 C   0  0  0  0  0  0
  -21.9195   -4.6963   22.3399 C   0  0  0  0  0  0
  -22.7799  -13.5224   21.1886 C   0  0  0  0  0  0
  -22.1665   -4.2148   21.0978 F   0  0  0  0  0  0
  -21.5629   -3.4539   25.7734 F   0  0  0  0  0  0
  -29.9435  -13.6810   20.3613 N   0  0  0  0  0  0
  -26.2879  -12.9462   20.3256 N   0  0  0  0  0  0
  -25.9320  -11.6590   20.5738 N   0  0  0  0  0  0
  -22.0444  -12.8203   22.0430 N   0  0  0  0  0  0
  -25.4198  -15.1953   20.4168 N   0  0  0  0  0  0
  -31.7720  -14.9545   20.1436 O   0  0  0  0  0  0
  -21.6644   -6.8878   21.4236 O   0  0  0  0  0  0
  -22.3482  -14.5527   20.6729 O   0  0  0  0  0  0
  -24.6451  -31.8414   23.1864 C   0  0  0  0  0  0
  -25.9224  -32.4675   23.8250 C   0  0  1  0  0  0
  -27.2144  -27.1290   20.1567 C   0  0  0  0  0  0
  -25.5972  -33.8480   24.2179 N   0  0  0  0  0  0
  -23.4484  -30.4608   21.5323 C   0  0  2  0  0  0
  -24.8970  -28.8818   20.1138 C   0  0  0  0  0  0
  -22.7571  -29.4538   22.4854 C   0  0  0  0  0  0
  -18.0304  -28.1393   22.8477 C   0  0  0  0  0  0
  -24.1491  -36.7243   23.2644 C   0  0  0  0  0  0
  -26.0051  -30.7141   21.3846 C   0  0  0  0  0  0
  -26.0755  -29.3237   20.7293 C   0  0  0  0  0  0
  -27.2389  -28.4645   20.7303 C   0  0  0  0  0  0
  -26.0129  -26.7887   19.5028 C   0  0  0  0  0  0
  -24.8778  -27.6275   19.4845 C   0  0  0  0  0  0
  -23.6751  -29.7855   20.1530 C   0  0  0  0  0  0
  -25.4124  -36.3014   24.0314 C   0  0  1  0  0  0
  -20.5917  -28.3717   23.1237 C   0  0  2  0  0  0
  -20.6783  -26.9414   22.5410 C   0  0  0  0  0  0
  -19.5763  -26.6377   21.5211 C   0  0  0  0  0  0
  -18.1939  -26.7934   22.1614 C   0  0  0  0  0  0
  -19.1559  -28.8872   23.2847 C   0  0  0  0  0  0
  -18.9476  -30.1470   23.8871 C   0  0  0  0  0  0
  -17.6468  -30.6584   24.0557 C   0  0  0  0  0  0
  -25.9074  -34.9392   23.5047 C   0  0  0  0  0  0
  -16.5361  -29.9075   23.6339 C   0  0  0  0  0  0
  -16.7284  -28.6497   23.0353 C   0  0  0  0  0  0
  -26.4541  -31.6542   25.0694 C   0  0  0  0  0  0
  -25.3733  -31.3722   26.1395 C   0  0  0  0  0  0
  -27.0405  -30.2938   24.6279 C   0  0  0  0  0  0
  -27.6076  -32.4306   25.7470 C   0  0  0  0  0  0
  -27.5575  -37.1774   24.8465 C   0  0  0  0  0  0
  -21.4267  -29.3040   22.3607 N   0  0  0  0  0  0
  -26.4283  -37.3734   23.9408 N   0  0  0  0  0  0
  -24.7194  -31.0275   22.0888 N   0  0  0  0  0  0
  -23.4212  -28.8091   23.3017 O   0  0  0  0  0  0
  -28.2657  -26.1415   20.1680 O   0  0  0  0  0  0
  -26.5646  -34.8896   22.4617 O   0  0  0  0  0  0
  -23.5574  -32.1272   23.7101 O   0  0  0  0  0  0
  -30.4076  -22.7839   21.5007 C   0  0  0  0  0  0
  -31.2325  -21.8578   22.0688 C   0  0  0  0  0  0
  -29.7143  -20.7370   20.8393 C   0  0  0  0  0  0
  -32.9821  -23.3599   23.3312 C   0  0  0  0  0  0
  -33.7432  -22.4756   22.3696 C   0  0  0  0  0  0
  -30.1354  -18.6791   19.4618 C   0  0  0  0  0  0
  -28.8282  -18.4570   21.4040 C   0  0  0  0  0  0
  -29.7996  -17.1051   19.2365 C   0  0  0  0  0  0
  -29.6735  -17.0734   21.5862 C   0  0  0  0  0  0
  -32.4316  -22.0056   22.9475 C   0  0  0  0  0  0
  -28.4655  -23.1508   19.9990 C   0  0  0  0  0  0
  -28.0121  -24.6703   20.6262 C   0  0  0  0  0  0
  -29.4412  -22.1501   20.7514 N   0  0  0  0  0  0
  -30.7772  -20.6463   21.6493 N   0  3  0  0  0  0
  -29.2477  -19.4765   20.3732 N   0  0  0  0  0  0
  -29.8197  -16.1489   20.4090 N   0  0  0  0  0  0
  -31.4655  -12.7138   19.1781 H   0  0  0  0  0  0
  -30.4064  -11.6217   20.0258 H   0  0  0  0  0  0
  -29.8263  -11.7189   17.5767 H   0  0  0  0  0  0
  -29.6080  -13.4500   17.6807 H   0  0  0  0  0  0
  -27.9338  -11.2786   18.9691 H   0  0  0  0  0  0
  -27.3810  -12.4619   17.8132 H   0  0  0  0  0  0
  -27.5910  -14.2545   19.4105 H   0  0  0  0  0  0
  -28.7537  -12.3130   21.4631 H   0  0  0  0  0  0
  -28.3782  -14.0009   21.7386 H   0  0  0  0  0  0
  -25.2763   -9.5703   22.4758 H   0  0  0  0  0  0
  -24.0018   -7.4639   22.7464 H   0  0  0  0  0  0
  -21.0852   -8.8778   19.8942 H   0  0  0  0  0  0
  -22.3704  -10.9678   19.6167 H   0  0  0  0  0  0
  -21.2005   -7.6148   23.9720 H   0  0  0  0  0  0
  -21.1480   -6.0515   25.9078 H   0  0  0  0  0  0
  -22.0599   -2.7609   23.2839 H   0  0  0  0  0  0
  -22.4065  -11.9866   22.4822 H   0  0  0  0  0  0
  -21.1053  -13.1216   22.2623 H   0  0  0  0  0  0
  -24.6611  -15.8582   20.5306 H   0  0  0  0  0  0
  -26.2845  -15.6286   20.1175 H   0  0  0  0  0  0
  -26.7293  -32.5281   23.0983 H   0  0  0  0  0  0
  -25.0122  -33.9576   25.0332 H   0  0  0  0  0  0
  -22.7529  -31.2879   21.3753 H   0  0  0  0  0  0
  -23.3756  -35.9570   23.3273 H   0  0  0  0  0  0
  -24.3599  -36.8898   22.2068 H   0  0  0  0  0  0
  -23.7233  -37.6425   23.6696 H   0  0  0  0  0  0
  -26.1638  -31.4681   20.6121 H   0  0  0  0  0  0
  -26.8753  -30.7645   22.0272 H   0  0  0  0  0  0
  -28.1406  -28.8027   21.2212 H   0  0  0  0  0  0
  -25.9393  -25.8290   19.0107 H   0  0  0  0  0  0
  -23.9807  -27.2835   18.9885 H   0  0  0  0  0  0
  -23.8146  -30.5569   19.3945 H   0  0  0  0  0  0
  -22.7897  -29.2277   19.8421 H   0  0  0  0  0  0
  -25.1315  -36.1827   25.0805 H   0  0  0  0  0  0
  -21.0010  -28.3295   24.1358 H   0  0  0  0  0  0
  -20.5671  -26.2321   23.3627 H   0  0  0  0  0  0
  -21.6646  -26.7416   22.1211 H   0  0  0  0  0  0
  -19.6913  -25.6286   21.1245 H   0  0  0  0  0  0
  -19.6698  -27.3185   20.6739 H   0  0  0  0  0  0
  -17.4214  -26.6690   21.4006 H   0  0  0  0  0  0
  -18.0326  -26.0081   22.9013 H   0  0  0  0  0  0
  -19.7947  -30.7298   24.2223 H   0  0  0  0  0  0
  -17.5015  -31.6261   24.5161 H   0  0  0  0  0  0
  -15.5356  -30.2961   23.7682 H   0  0  0  0  0  0
  -15.8688  -28.0807   22.7076 H   0  0  0  0  0  0
  -24.5961  -30.7010   25.7736 H   0  0  0  0  0  0
  -24.8866  -32.2890   26.4731 H   0  0  0  0  0  0
  -25.8039  -30.8982   27.0226 H   0  0  0  0  0  0
  -26.3018  -29.6655   24.1297 H   0  0  0  0  0  0
  -27.4026  -29.7249   25.4853 H   0  0  0  0  0  0
  -27.8925  -30.4167   23.9588 H   0  0  0  0  0  0
  -27.2682  -33.3649   26.1958 H   0  0  0  0  0  0
  -28.3928  -32.6789   25.0316 H   0  0  0  0  0  0
  -28.0698  -31.8479   26.5449 H   0  0  0  0  0  0
  -28.2571  -38.0090   24.7526 H   0  0  0  0  0  0
  -28.1077  -36.2616   24.6261 H   0  0  0  0  0  0
  -27.2299  -37.1400   25.8869 H   0  0  0  0  0  0
  -20.9474  -29.8761   21.6792 H   0  0  0  0  0  0
  -26.0131  -38.2791   24.1419 H   0  0  0  0  0  0
  -30.4644  -23.8592   21.5761 H   0  0  0  0  0  0
  -32.5019  -24.2471   22.9230 H   0  0  0  0  0  0
  -33.3902  -23.4730   24.3335 H   0  0  0  0  0  0
  -34.6489  -21.9923   22.7303 H   0  0  0  0  0  0
  -33.7605  -22.7792   21.3242 H   0  0  0  0  0  0
  -30.1105  -19.1680   18.4857 H   0  0  0  0  0  0
  -31.1734  -18.7604   19.7887 H   0  0  0  0  0  0
  -28.7734  -18.9452   22.3784 H   0  0  0  0  0  0
  -27.7950  -18.1900   21.1756 H   0  0  0  0  0  0
  -30.4808  -16.7248   18.4732 H   0  0  0  0  0  0
  -28.8090  -17.0256   18.7864 H   0  0  0  0  0  0
  -29.2042  -16.4954   22.3834 H   0  0  0  0  0  0
  -30.6736  -17.3032   21.9557 H   0  0  0  0  0  0
  -32.4586  -21.2242   23.7055 H   0  0  0  0  0  0
  -28.8858  -23.2963   19.0041 H   0  0  0  0  0  0
  -27.5513  -22.5802   19.8316 H   0  0  0  0  0  0
  -28.3334  -24.6707   21.6669 H   0  0  0  0  0  0
  -26.9314  -24.5906   20.7341 H   0  0  0  0  0  0
  -31.2141  -19.7737   21.9066 H   0  0  0  0  0  0
  1 25  1  0  0  0
  1 30  2  0  0  0
  1 86  1  0  0  0
  2  3  1  0  0  0
  2 25  1  0  0  0
  2 87  1  0  0  0
  2 88  1  0  0  0
  3  4  1  0  0  0
  3 89  1  0  0  0
  3 90  1  0  0  0
  4  5  1  0  0  0
  4 91  1  0  0  0
  4 92  1  0  0  0
  5  6  1  0  0  0
  5 26  1  0  0  0
  5 93  1  0  0  0
  6 25  1  0  0  0
  6 94  1  0  0  0
  6 95  1  0  0  0
  7  8  2  0  0  0
  7 26  1  0  0  0
  7 29  1  0  0  0
  8  9  1  0  0  0
  8 22  1  0  0  0
  9 10  1  0  0  0
  9 27  2  0  0  0
 10 11  2  0  0  0
 10 15  1  0  0  0
 11 12  1  0  0  0
 11 96  1  0  0  0
 12 13  2  0  0  0
 12 97  1  0  0  0
 13 14  1  0  0  0
 13 31  1  0  0  0
 14 15  2  0  0  0
 14 98  1  0  0  0
 15 99  1  0  0  0
 16 17  2  0  0  0
 16 21  1  0  0  0
 16 31  1  0  0  0
 17 18  1  0  0  0
 17100  1  0  0  0
 18 19  2  0  0  0
 18101  1  0  0  0
 19 20  1  0  0  0
 19 24  1  0  0  0
 20 21  2  0  0  0
 20102  1  0  0  0
 21 23  1  0  0  0
 22 28  1  0  0  0
 22 32  2  0  0  0
 26 27  1  0  0  0
 28103  1  0  0  0
 28104  1  0  0  0
 29105  1  0  0  0
 29106  1  0  0  0
 33 34  1  0  0  0
 33 66  1  0  0  0
 33 70  2  0  0  0
 34 36  1  0  0  0
 34 59  1  0  0  0
 34107  1  0  0  0
 35 44  2  0  0  0
 35 45  1  0  0  0
 35 68  1  0  0  0
 36 56  1  0  0  0
 36108  1  0  0  0
 37 39  1  0  0  0
 37 47  1  0  0  0
 37 66  1  0  0  0
 37109  1  0  0  0
 38 43  2  0  0  0
 38 46  1  0  0  0
 38 47  1  0  0  0
 39 64  1  0  0  0
 39 67  2  0  0  0
 40 52  1  0  0  0
 40 53  2  0  0  0
 40 58  1  0  0  0
 41110  1  0  0  0
 41111  1  0  0  0
 41112  1  0  0  0
 41 48  1  0  0  0
 42 43  1  0  0  0
 42 66  1  0  0  0
 42113  1  0  0  0
 42114  1  0  0  0
 43 44  1  0  0  0
 44115  1  0  0  0
 45 46  2  0  0  0
 45116  1  0  0  0
 46117  1  0  0  0
 47118  1  0  0  0
 47119  1  0  0  0
 48 56  1  0  0  0
 48 65  1  0  0  0
 48120  1  0  0  0
 49 50  1  0  0  0
 49 53  1  0  0  0
 49 64  1  0  0  0
 49121  1  0  0  0
 50 51  1  0  0  0
 50122  1  0  0  0
 50123  1  0  0  0
 51 52  1  0  0  0
 51124  1  0  0  0
 51125  1  0  0  0
 52126  1  0  0  0
 52127  1  0  0  0
 53 54  1  0  0  0
 54 55  2  0  0  0
 54128  1  0  0  0
 55 57  1  0  0  0
 55129  1  0  0  0
 56 69  2  0  0  0
 57 58  2  0  0  0
 57130  1  0  0  0
 58131  1  0  0  0
 59 60  1  0  0  0
 59 61  1  0  0  0
 59 62  1  0  0  0
 60132  1  0  0  0
 60133  1  0  0  0
 60134  1  0  0  0
 61135  1  0  0  0
 61136  1  0  0  0
 61137  1  0  0  0
 62138  1  0  0  0
 62139  1  0  0  0
 62140  1  0  0  0
 63 65  1  0  0  0
 63141  1  0  0  0
 63142  1  0  0  0
 63143  1  0  0  0
 64144  1  0  0  0
 65145  1  0  0  0
 68 82  1  0  0  0
 71 72  2  0  0  0
 71 83  1  0  0  0
 71146  1  0  0  0
 72 84  1  0  0  0
 72 80  1  0  0  0
 73 83  1  0  0  0
 73 84  2  0  0  0
 73 85  1  0  0  0
 74 75  1  0  0  0
 74 80  1  0  0  0
 74147  1  0  0  0
 74148  1  0  0  0
 75 80  1  0  0  0
 75149  1  0  0  0
 75150  1  0  0  0
 76 78  1  0  0  0
 76 85  1  0  0  0
 76151  1  0  0  0
 76152  1  0  0  0
 77 79  1  0  0  0
 77 85  1  0  0  0
 77153  1  0  0  0
 77154  1  0  0  0
 78 86  1  0  0  0
 78155  1  0  0  0
 78156  1  0  0  0
 79 86  1  0  0  0
 79157  1  0  0  0
 79158  1  0  0  0
 80159  1  0  0  0
 81 82  1  0  0  0
 81 83  1  0  0  0
 81160  1  0  0  0
 81161  1  0  0  0
 82162  1  0  0  0
 82163  1  0  0  0
 84164  1  0  0  0
M  CHG  1  84   1
M  ISO  4   1 100  68 101  82 101  86 100
M  END
> <chiral flag>
0

> <version>
0

> <s_m_source_file>
/data/baiqing/PycharmProjects/Reinvent-master-3.2/result/LINK_invent/BTK/process_docking_weight1_custom_sum_contain_oxygen_bond_distance_aromatic_linkinvent_7_9_3/rearranged_h_0191.sdf

> <i_m_source_file_index>
94

> <r_mmod_Potential_Energy-OPLS-2005>
724.038146972656

> <r_mmod_Stretch_Energy-OPLS-2005>
251.897323608398

> <r_mmod_Bend_Energy-OPLS-2005>
336.134613037109

> <r_mmod_Torsional_Energy-OPLS-2005>
455.848297119141

> <r_mmod_Improper_Torsional_Energy-OPLS-2005>
18.0543594360352

> <r_mmod_Van_der_Waal_Energy-OPLS-2005>
121.404106140137

> <r_mmod_Electrostatic_Energy-OPLS-2005>
-228.837112426758

> <r_mmod_Solvation_Energy-OPLS-2005>
-416.018432617188

> <b_mmod_Minimization_Converged-OPLS-2005>
0

> <r_mmod_RMS_Derivative-OPLS-2005>
1.55184996128082

$$$$
94
                    3D
 Structure written by MMmdl.
157165  0  0  1  0            999 V2000
  -30.6522  -14.6337   20.4932 C   0  0  0  0  0  0
  -30.4288  -12.3917   19.4554 C   0  0  0  0  0  0
  -29.5046  -12.5146   18.2247 C   0  0  0  0  0  0
  -28.0272  -12.3569   18.6352 C   0  0  0  0  0  0
  -27.6521  -13.2252   19.8665 C   0  0  2  0  0  0
  -28.6982  -13.0962   20.9966 C   0  0  0  0  0  0
  -25.2532  -13.8186   20.5684 C   0  0  0  0  0  0
  -24.1807  -13.0440   20.9177 C   0  0  0  0  0  0
  -24.6394  -11.6914   20.8739 C   0  0  0  0  0  0
  -23.9062  -10.4293   21.0406 C   0  0  0  0  0  0
  -24.3619   -9.4208   21.9185 C   0  0  0  0  0  0
  -23.6296   -8.2243   22.0756 C   0  0  0  0  0  0
  -22.4278   -8.0277   21.3545 C   0  0  0  0  0  0
  -21.9913   -9.0244   20.4644 C   0  0  0  0  0  0
  -22.7236  -10.2128   20.3053 C   0  0  0  0  0  0
  -21.6851   -6.0732   22.5278 C   0  0  0  0  0  0
  -21.4011   -6.5644   23.8207 C   0  0  0  0  0  0
  -21.3663   -5.6802   24.9176 C   0  0  0  0  0  0
  -21.6046   -4.3060   24.7226 C   0  0  0  0  0  0
  -21.8824   -3.8145   23.4348 C   0  0  0  0  0  0
  -21.9191   -4.6958   22.3404 C   0  0  0  0  0  0
  -22.7824  -13.5219   21.1848 C   0  0  0  0  0  0
  -22.1661   -4.2148   21.0978 F   0  0  0  0  0  0
  -21.5636   -3.4544   25.7736 F   0  0  0  0  0  0
  -30.0129  -13.4237   20.4260 N   0  0  0  0  0  0
  -26.2987  -12.9391   20.3356 N   0  0  0  0  0  0
  -25.9331  -11.6534   20.5776 N   0  0  0  0  0  0
  -22.0481  -12.8191   22.0399 N   0  0  0  0  0  0
  -25.4219  -15.1913   20.4117 N   0  0  0  0  0  0
  -31.8174  -14.7661   20.1104 O   0  0  0  0  0  0
  -21.6641   -6.8877   21.4243 O   0  0  0  0  0  0
  -22.3504  -14.5538   20.6718 O   0  0  0  0  0  0
  -24.6264  -31.8612   23.2041 C   0  0  0  0  0  0
  -25.9113  -32.4787   23.8366 C   0  0  1  0  0  0
  -27.2174  -27.3158   20.1127 C   0  0  0  0  0  0
  -25.5920  -33.8586   24.2284 N   0  0  0  0  0  0
  -23.4189  -30.4873   21.5476 C   0  0  2  0  0  0
  -24.8632  -28.9455   20.1112 C   0  0  0  0  0  0
  -22.7466  -29.4636   22.4936 C   0  0  0  0  0  0
  -18.0289  -28.1391   22.8491 C   0  0  0  0  0  0
  -24.1486  -36.7292   23.2641 C   0  0  0  0  0  0
  -25.9618  -30.7918   21.3751 C   0  0  0  0  0  0
  -26.0345  -29.4195   20.7157 C   0  0  0  0  0  0
  -27.2147  -28.6167   20.7072 C   0  0  0  0  0  0
  -26.0214  -26.9025   19.4780 C   0  0  0  0  0  0
  -24.8586  -27.6920   19.4852 C   0  0  0  0  0  0
  -23.6329  -29.8270   20.1618 C   0  0  0  0  0  0
  -25.4114  -36.3090   24.0327 C   0  0  1  0  0  0
  -20.5885  -28.3692   23.1280 C   0  0  2  0  0  0
  -20.6769  -26.9415   22.5410 C   0  0  0  0  0  0
  -19.5746  -26.6387   21.5213 C   0  0  0  0  0  0
  -18.1928  -26.7936   22.1626 C   0  0  0  0  0  0
  -19.1541  -28.8859   23.2879 C   0  0  0  0  0  0
  -18.9463  -30.1460   23.8893 C   0  0  0  0  0  0
  -17.6466  -30.6593   24.0568 C   0  0  0  0  0  0
  -25.9055  -34.9458   23.5111 C   0  0  0  0  0  0
  -16.5359  -29.9094   23.6334 C   0  0  0  0  0  0
  -16.7279  -28.6512   23.0352 C   0  0  0  0  0  0
  -26.4497  -31.6586   25.0729 C   0  0  0  0  0  0
  -25.3728  -31.3712   26.1446 C   0  0  0  0  0  0
  -27.0341  -30.3019   24.6170 C   0  0  0  0  0  0
  -27.6041  -32.4324   25.7515 C   0  0  0  0  0  0
  -27.5586  -37.1802   24.8464 C   0  0  0  0  0  0
  -21.4180  -29.3048   22.3670 N   0  0  0  0  0  0
  -26.4294  -37.3787   23.9414 N   0  0  0  0  0  0
  -24.6882  -31.0629   22.0992 N   0  0  0  0  0  0
  -23.4197  -28.8169   23.3006 O   0  0  0  0  0  0
  -28.3269  -26.4528   20.1747 O   0  0  0  0  0  0
  -26.5624  -34.8924   22.4679 O   0  0  0  0  0  0
  -23.5425  -32.1404   23.7369 O   0  0  0  0  0  0
  -29.1380  -18.2128   20.9545 C   0  0  0  0  0  0
  -28.3550  -20.5338   21.5330 C   0  0  0  0  0  0
  -30.4531  -20.3511   20.3957 C   0  0  0  0  0  0
  -27.8603  -21.6996   20.6263 C   0  0  0  0  0  0
  -30.1210  -21.6421   19.5494 C   0  0  0  0  0  0
  -30.2515  -17.1802   20.5512 C   0  0  0  0  0  0
  -29.1797  -23.9201   20.4010 C   0  0  0  0  0  0
  -28.0862  -24.9995   19.9772 C   0  0  0  0  0  0
  -29.2851  -19.5895   20.8713 N   0  0  0  0  0  0
  -29.8962  -15.7323   20.7810 N   0  0  0  0  0  0
  -28.9291  -22.4816   19.9343 N   0  3  0  0  0  0
  -28.0908  -17.7198   21.3843 O   0  0  0  0  0  0
  -31.4726  -12.5007   19.1542 H   0  0  0  0  0  0
  -30.3476  -11.4002   19.9025 H   0  0  0  0  0  0
  -29.7662  -11.7664   17.4754 H   0  0  0  0  0  0
  -29.6510  -13.4856   17.7489 H   0  0  0  0  0  0
  -27.8559  -11.3033   18.8562 H   0  0  0  0  0  0
  -27.3768  -12.5987   17.7940 H   0  0  0  0  0  0
  -27.6653  -14.2607   19.5255 H   0  0  0  0  0  0
  -28.7062  -12.0829   21.4018 H   0  0  0  0  0  0
  -28.4509  -13.7524   21.8319 H   0  0  0  0  0  0
  -25.2771   -9.5680   22.4749 H   0  0  0  0  0  0
  -24.0007   -7.4635   22.7476 H   0  0  0  0  0  0
  -21.0852   -8.8752   19.8941 H   0  0  0  0  0  0
  -22.3695  -10.9663   19.6154 H   0  0  0  0  0  0
  -21.1995   -7.6150   23.9707 H   0  0  0  0  0  0
  -21.1490   -6.0535   25.9082 H   0  0  0  0  0  0
  -22.0597   -2.7604   23.2852 H   0  0  0  0  0  0
  -22.4131  -11.9865   22.4781 H   0  0  0  0  0  0
  -21.1098  -13.1189   22.2622 H   0  0  0  0  0  0
  -24.6574  -15.8464   20.5316 H   0  0  0  0  0  0
  -26.2862  -15.6433   20.1405 H   0  0  0  0  0  0
  -26.7177  -32.5460   23.1112 H   0  0  0  0  0  0
  -25.0056  -33.9724   25.0420 H   0  0  0  0  0  0
  -22.7135  -31.3087   21.4071 H   0  0  0  0  0  0
  -23.3759  -35.9614   23.3300 H   0  0  0  0  0  0
  -24.3576  -36.8920   22.2056 H   0  0  0  0  0  0
  -23.7223  -37.6483   23.6668 H   0  0  0  0  0  0
  -26.0917  -31.5564   20.6078 H   0  0  0  0  0  0
  -26.8427  -30.8393   22.0038 H   0  0  0  0  0  0
  -28.1118  -28.9748   21.1927 H   0  0  0  0  0  0
  -25.9443  -25.9506   18.9750 H   0  0  0  0  0  0
  -23.9604  -27.3241   19.0083 H   0  0  0  0  0  0
  -23.7535  -30.6063   19.4082 H   0  0  0  0  0  0
  -22.7511  -29.2600   19.8567 H   0  0  0  0  0  0
  -25.1298  -36.1947   25.0824 H   0  0  0  0  0  0
  -20.9988  -28.3276   24.1397 H   0  0  0  0  0  0
  -20.5673  -26.2307   23.3612 H   0  0  0  0  0  0
  -21.6639  -26.7436   22.1209 H   0  0  0  0  0  0
  -19.6905  -25.6297   21.1244 H   0  0  0  0  0  0
  -19.6685  -27.3196   20.6746 H   0  0  0  0  0  0
  -17.4195  -26.6687   21.4030 H   0  0  0  0  0  0
  -18.0326  -26.0076   22.9023 H   0  0  0  0  0  0
  -19.7936  -30.7276   24.2264 H   0  0  0  0  0  0
  -17.5022  -31.6272   24.5170 H   0  0  0  0  0  0
  -15.5360  -30.3003   23.7650 H   0  0  0  0  0  0
  -15.8677  -28.0840   22.7061 H   0  0  0  0  0  0
  -24.5901  -30.7069   25.7764 H   0  0  0  0  0  0
  -24.8919  -32.2868   26.4890 H   0  0  0  0  0  0
  -25.8047  -30.8867   27.0210 H   0  0  0  0  0  0
  -26.2915  -29.6774   24.1188 H   0  0  0  0  0  0
  -27.4038  -29.7268   25.4669 H   0  0  0  0  0  0
  -27.8786  -30.4315   23.9399 H   0  0  0  0  0  0
  -27.2639  -33.3616   26.2099 H   0  0  0  0  0  0
  -28.3859  -32.6897   25.0357 H   0  0  0  0  0  0
  -28.0704  -31.8445   26.5428 H   0  0  0  0  0  0
  -28.2588  -38.0114   24.7539 H   0  0  0  0  0  0
  -28.1096  -36.2644   24.6267 H   0  0  0  0  0  0
  -27.2302  -37.1431   25.8865 H   0  0  0  0  0  0
  -20.9353  -29.8786   21.6893 H   0  0  0  0  0  0
  -26.0176  -38.2861   24.1428 H   0  0  0  0  0  0
  -27.4806  -20.0253   21.9400 H   0  0  0  0  0  0
  -28.8657  -20.9553   22.4005 H   0  0  0  0  0  0
  -31.0342  -20.6429   21.2717 H   0  0  0  0  0  0
  -31.1133  -19.7101   19.8105 H   0  0  0  0  0  0
  -27.2098  -22.3647   21.1951 H   0  0  0  0  0  0
  -27.2296  -21.2697   19.8464 H   0  0  0  0  0  0
  -29.9169  -21.3097   18.5313 H   0  0  0  0  0  0
  -31.0149  -22.2608   19.4644 H   0  0  0  0  0  0
  -31.1626  -17.4177   21.1013 H   0  0  0  0  0  0
  -30.4755  -17.3193   19.4931 H   0  0  0  0  0  0
  -29.3177  -23.9293   21.4823 H   0  0  0  0  0  0
  -30.1254  -24.2575   19.9774 H   0  0  0  0  0  0
  -27.1706  -24.7312   20.5077 H   0  0  0  0  0  0
  -27.8830  -24.8548   18.9152 H   0  0  0  0  0  0
  -28.9463  -15.5739   21.0863 H   0  0  0  0  0  0
  -28.5175  -22.6447   19.0253 H   0  0  0  0  0  0
  1 25  1  0  0  0
  1 30  2  0  0  0
  1 80  1  0  0  0
  2  3  1  0  0  0
  2 25  1  0  0  0
  2 83  1  0  0  0
  2 84  1  0  0  0
  3  4  1  0  0  0
  3 85  1  0  0  0
  3 86  1  0  0  0
  4  5  1  0  0  0
  4 87  1  0  0  0
  4 88  1  0  0  0
  5  6  1  0  0  0
  5 26  1  0  0  0
  5 89  1  0  0  0
  6 25  1  0  0  0
  6 90  1  0  0  0
  6 91  1  0  0  0
  7  8  2  0  0  0
  7 26  1  0  0  0
  7 29  1  0  0  0
  8  9  1  0  0  0
  8 22  1  0  0  0
  9 10  1  0  0  0
  9 27  2  0  0  0
 10 11  2  0  0  0
 10 15  1  0  0  0
 11 12  1  0  0  0
 11 92  1  0  0  0
 12 13  2  0  0  0
 12 93  1  0  0  0
 13 14  1  0  0  0
 13 31  1  0  0  0
 14 15  2  0  0  0
 14 94  1  0  0  0
 15 95  1  0  0  0
 16 17  2  0  0  0
 16 21  1  0  0  0
 16 31  1  0  0  0
 17 18  1  0  0  0
 17 96  1  0  0  0
 18 19  2  0  0  0
 18 97  1  0  0  0
 19 20  1  0  0  0
 19 24  1  0  0  0
 20 21  2  0  0  0
 20 98  1  0  0  0
 21 23  1  0  0  0
 22 28  1  0  0  0
 22 32  2  0  0  0
 26 27  1  0  0  0
 28 99  1  0  0  0
 28100  1  0  0  0
 29101  1  0  0  0
 29102  1  0  0  0
 33 34  1  0  0  0
 33 66  1  0  0  0
 33 70  2  0  0  0
 34 36  1  0  0  0
 34 59  1  0  0  0
 34103  1  0  0  0
 35 44  2  0  0  0
 35 45  1  0  0  0
 35 68  1  0  0  0
 36 56  1  0  0  0
 36104  1  0  0  0
 37 39  1  0  0  0
 37 47  1  0  0  0
 37 66  1  0  0  0
 37105  1  0  0  0
 38 43  2  0  0  0
 38 46  1  0  0  0
 38 47  1  0  0  0
 39 64  1  0  0  0
 39 67  2  0  0  0
 40 52  1  0  0  0
 40 53  2  0  0  0
 40 58  1  0  0  0
 41106  1  0  0  0
 41107  1  0  0  0
 41108  1  0  0  0
 41 48  1  0  0  0
 42 43  1  0  0  0
 42 66  1  0  0  0
 42109  1  0  0  0
 42110  1  0  0  0
 43 44  1  0  0  0
 44111  1  0  0  0
 45 46  2  0  0  0
 45112  1  0  0  0
 46113  1  0  0  0
 47114  1  0  0  0
 47115  1  0  0  0
 48 56  1  0  0  0
 48 65  1  0  0  0
 48116  1  0  0  0
 49 50  1  0  0  0
 49 53  1  0  0  0
 49 64  1  0  0  0
 49117  1  0  0  0
 50 51  1  0  0  0
 50118  1  0  0  0
 50119  1  0  0  0
 51 52  1  0  0  0
 51120  1  0  0  0
 51121  1  0  0  0
 52122  1  0  0  0
 52123  1  0  0  0
 53 54  1  0  0  0
 54 55  2  0  0  0
 54124  1  0  0  0
 55 57  1  0  0  0
 55125  1  0  0  0
 56 69  2  0  0  0
 57 58  2  0  0  0
 57126  1  0  0  0
 58127  1  0  0  0
 59 60  1  0  0  0
 59 61  1  0  0  0
 59 62  1  0  0  0
 60128  1  0  0  0
 60129  1  0  0  0
 60130  1  0  0  0
 61131  1  0  0  0
 61132  1  0  0  0
 61133  1  0  0  0
 62134  1  0  0  0
 62135  1  0  0  0
 62136  1  0  0  0
 63 65  1  0  0  0
 63137  1  0  0  0
 63138  1  0  0  0
 63139  1  0  0  0
 64140  1  0  0  0
 65141  1  0  0  0
 68 78  1  0  0  0
 71 76  1  0  0  0
 71 79  1  0  0  0
 71 82  2  0  0  0
 72 74  1  0  0  0
 72 79  1  0  0  0
 72142  1  0  0  0
 72143  1  0  0  0
 73 75  1  0  0  0
 73 79  1  0  0  0
 73144  1  0  0  0
 73145  1  0  0  0
 74 81  1  0  0  0
 74146  1  0  0  0
 74147  1  0  0  0
 75 81  1  0  0  0
 75148  1  0  0  0
 75149  1  0  0  0
 76 80  1  0  0  0
 76150  1  0  0  0
 76151  1  0  0  0
 77 78  1  0  0  0
 77152  1  0  0  0
 77153  1  0  0  0
 77 81  1  0  0  0
 78154  1  0  0  0
 78155  1  0  0  0
 80156  1  0  0  0
 81157  1  0  0  0
M  CHG  1  81   1
M  ISO  4   1 100  68 101  78 101  80 100
M  END
> <chiral flag>
0

> <version>
0

> <s_m_source_file>
/data/baiqing/PycharmProjects/Reinvent-master-3.2/result/LINK_invent/BTK/process_docking_weight1_custom_sum_contain_oxygen_bond_distance_aromatic_linkinvent_7_9_3/rearranged_h_0191.sdf

> <i_m_source_file_index>
95

> <r_mmod_Potential_Energy-OPLS-2005>
-51.7297554016113

> <r_mmod_Stretch_Energy-OPLS-2005>
80.7393951416016

> <r_mmod_Bend_Energy-OPLS-2005>
154.318389892578

> <r_mmod_Torsional_Energy-OPLS-2005>
335.444244384766

> <r_mmod_Improper_Torsional_Energy-OPLS-2005>
5.48545789718628

> <r_mmod_Van_der_Waal_Energy-OPLS-2005>
136.309707641602

> <r_mmod_Electrostatic_Energy-OPLS-2005>
-336.161895751953

> <r_mmod_Solvation_Energy-OPLS-2005>
-477.453033447266

> <b_mmod_Minimization_Converged-OPLS-2005>
0

> <r_mmod_RMS_Derivative-OPLS-2005>
1.34739911556244

$$$$
95
                    3D
 Structure written by MMmdl.
160169  0  0  1  0            999 V2000
  -30.5608  -14.9597   20.4524 C   0  0  0  0  0  0
  -30.4468  -12.6079   19.4938 C   0  0  0  0  0  0
  -29.5281  -12.5452   18.2520 C   0  0  0  0  0  0
  -28.0592  -12.3297   18.6603 C   0  0  0  0  0  0
  -27.6326  -13.2499   19.8320 C   0  0  2  0  0  0
  -28.6732  -13.2618   20.9685 C   0  0  0  0  0  0
  -25.2496  -13.8218   20.5724 C   0  0  0  0  0  0
  -24.1804  -13.0451   20.9224 C   0  0  0  0  0  0
  -24.6415  -11.6939   20.8724 C   0  0  0  0  0  0
  -23.9077  -10.4317   21.0382 C   0  0  0  0  0  0
  -24.3618   -9.4231   21.9169 C   0  0  0  0  0  0
  -23.6289   -8.2262   22.0740 C   0  0  0  0  0  0
  -22.4276   -8.0279   21.3530 C   0  0  0  0  0  0
  -21.9915   -9.0263   20.4644 C   0  0  0  0  0  0
  -22.7240  -10.2147   20.3050 C   0  0  0  0  0  0
  -21.6870   -6.0732   22.5281 C   0  0  0  0  0  0
  -21.4041   -6.5629   23.8220 C   0  0  0  0  0  0
  -21.3664   -5.6768   24.9173 C   0  0  0  0  0  0
  -21.6039   -4.3027   24.7220 C   0  0  0  0  0  0
  -21.8806   -3.8136   23.4330 C   0  0  0  0  0  0
  -21.9197   -4.6961   22.3396 C   0  0  0  0  0  0
  -22.7810  -13.5238   21.1848 C   0  0  0  0  0  0
  -22.1656   -4.2153   21.0967 F   0  0  0  0  0  0
  -21.5629   -3.4499   25.7726 F   0  0  0  0  0  0
  -29.9515  -13.7010   20.3836 N   0  0  0  0  0  0
  -26.2900  -12.9450   20.3171 N   0  0  0  0  0  0
  -25.9351  -11.6581   20.5683 N   0  0  0  0  0  0
  -22.0408  -12.8281   22.0410 N   0  0  0  0  0  0
  -25.4213  -15.1955   20.4249 N   0  0  0  0  0  0
  -31.7358  -15.0251   20.0812 O   0  0  0  0  0  0
  -21.6641   -6.8880   21.4236 O   0  0  0  0  0  0
  -22.3510  -14.5531   20.6647 O   0  0  0  0  0  0
  -24.6411  -31.8466   23.1882 C   0  0  0  0  0  0
  -25.9186  -32.4701   23.8274 C   0  0  1  0  0  0
  -27.2232  -27.1542   20.1535 C   0  0  0  0  0  0
  -25.5945  -33.8500   24.2196 N   0  0  0  0  0  0
  -23.4428  -30.4636   21.5353 C   0  0  2  0  0  0
  -24.8950  -28.8954   20.1060 C   0  0  0  0  0  0
  -22.7549  -29.4546   22.4882 C   0  0  0  0  0  0
  -18.0303  -28.1392   22.8471 C   0  0  0  0  0  0
  -24.1498  -36.7276   23.2644 C   0  0  0  0  0  0
  -25.9962  -30.7260   21.3834 C   0  0  0  0  0  0
  -26.0694  -29.3385   20.7265 C   0  0  0  0  0  0
  -27.2345  -28.4850   20.7339 C   0  0  0  0  0  0
  -26.0248  -26.8077   19.4934 C   0  0  0  0  0  0
  -24.8863  -27.6441   19.4706 C   0  0  0  0  0  0
  -23.6675  -29.7942   20.1532 C   0  0  0  0  0  0
  -25.4125  -36.3039   24.0324 C   0  0  1  0  0  0
  -20.5905  -28.3711   23.1259 C   0  0  2  0  0  0
  -20.6798  -26.9422   22.5420 C   0  0  0  0  0  0
  -19.5775  -26.6373   21.5225 C   0  0  0  0  0  0
  -18.1946  -26.7933   22.1617 C   0  0  0  0  0  0
  -19.1555  -28.8872   23.2848 C   0  0  0  0  0  0
  -18.9474  -30.1476   23.8866 C   0  0  0  0  0  0
  -17.6470  -30.6583   24.0561 C   0  0  0  0  0  0
  -25.9080  -34.9411   23.5072 C   0  0  0  0  0  0
  -16.5359  -29.9078   23.6336 C   0  0  0  0  0  0
  -16.7287  -28.6500   23.0341 C   0  0  0  0  0  0
  -26.4507  -31.6546   25.0700 C   0  0  0  0  0  0
  -25.3695  -31.3723   26.1401 C   0  0  0  0  0  0
  -27.0370  -30.2944   24.6259 C   0  0  0  0  0  0
  -27.6038  -32.4308   25.7483 C   0  0  0  0  0  0
  -27.5587  -37.1789   24.8453 C   0  0  0  0  0  0
  -21.4252  -29.3034   22.3634 N   0  0  0  0  0  0
  -26.4288  -37.3748   23.9416 N   0  0  0  0  0  0
  -24.7128  -31.0320   22.0923 N   0  0  0  0  0  0
  -23.4202  -28.8125   23.3047 O   0  0  0  0  0  0
  -28.2845  -26.1806   20.2398 O   0  0  0  0  0  0
  -26.5664  -34.8910   22.4651 O   0  0  0  0  0  0
  -23.5535  -32.1347   23.7115 O   0  0  0  0  0  0
  -31.0500  -16.7447   23.2269 C   0  0  0  0  0  0
  -30.1128  -17.5682   22.3387 C   0  0  1  0  0  0
  -30.1817  -17.7167   20.8210 C   0  0  2  0  0  0
  -29.2945  -16.2915   22.1593 C   0  0  1  0  0  0
  -28.9105  -18.7753   18.7543 C   0  0  0  0  0  0
  -29.0112  -23.3580   20.4600 C   0  0  0  0  0  0
  -28.6520  -21.7332   20.1520 C   0  0  0  0  0  0
  -28.0318  -24.6614   20.0292 C   0  0  0  0  0  0
  -29.2104  -18.9772   20.2482 C   0  0  2  0  0  0
  -29.8352  -16.1531   20.7812 N   0  0  0  0  0  0
  -29.9655  -15.7772   23.3670 N   0  3  0  0  0  0
  -29.5981  -20.5043   20.4994 N   0  3  0  0  0  0
  -31.4783  -12.7686   19.1783 H   0  0  0  0  0  0
  -30.4509  -11.6529   20.0216 H   0  0  0  0  0  0
  -29.8557  -11.7495   17.5817 H   0  0  0  0  0  0
  -29.6209  -13.4758   17.6872 H   0  0  0  0  0  0
  -27.9542  -11.2856   18.9555 H   0  0  0  0  0  0
  -27.4010  -12.4761   17.8026 H   0  0  0  0  0  0
  -27.6014  -14.2591   19.4195 H   0  0  0  0  0  0
  -28.7657  -12.2754   21.4274 H   0  0  0  0  0  0
  -28.3358  -13.9263   21.7580 H   0  0  0  0  0  0
  -25.2765   -9.5704   22.4729 H   0  0  0  0  0  0
  -24.0004   -7.4659   22.7455 H   0  0  0  0  0  0
  -21.0844   -8.8769   19.8959 H   0  0  0  0  0  0
  -22.3684  -10.9662   19.6140 H   0  0  0  0  0  0
  -21.2048   -7.6142   23.9732 H   0  0  0  0  0  0
  -21.1499   -6.0495   25.9080 H   0  0  0  0  0  0
  -22.0589   -2.7597   23.2823 H   0  0  0  0  0  0
  -22.3971  -11.9984   22.4924 H   0  0  0  0  0  0
  -21.0995  -13.1304   22.2500 H   0  0  0  0  0  0
  -24.6538  -15.8452   20.5551 H   0  0  0  0  0  0
  -26.2599  -15.6361   20.0695 H   0  0  0  0  0  0
  -26.7255  -32.5319   23.1012 H   0  0  0  0  0  0
  -25.0043  -33.9604   25.0311 H   0  0  0  0  0  0
  -22.7444  -31.2894   21.3851 H   0  0  0  0  0  0
  -23.3768  -35.9592   23.3251 H   0  0  0  0  0  0
  -24.3600  -36.8961   22.2069 H   0  0  0  0  0  0
  -23.7235  -37.6452   23.6714 H   0  0  0  0  0  0
  -26.1477  -31.4840   20.6126 H   0  0  0  0  0  0
  -26.8671  -30.7762   22.0253 H   0  0  0  0  0  0
  -28.1262  -28.8227   21.2442 H   0  0  0  0  0  0
  -25.9330  -25.8495   19.0033 H   0  0  0  0  0  0
  -23.9937  -27.3007   18.9667 H   0  0  0  0  0  0
  -23.7954  -30.5718   19.3998 H   0  0  0  0  0  0
  -22.7824  -29.2349   19.8444 H   0  0  0  0  0  0
  -25.1308  -36.1869   25.0812 H   0  0  0  0  0  0
  -20.9988  -28.3304   24.1381 H   0  0  0  0  0  0
  -20.5710  -26.2323   23.3630 H   0  0  0  0  0  0
  -21.6665  -26.7451   22.1209 H   0  0  0  0  0  0
  -19.6947  -25.6277   21.1272 H   0  0  0  0  0  0
  -19.6726  -27.3168   20.6742 H   0  0  0  0  0  0
  -17.4234  -26.6682   21.4003 H   0  0  0  0  0  0
  -18.0334  -26.0070   22.9004 H   0  0  0  0  0  0
  -19.7949  -30.7301   24.2205 H   0  0  0  0  0  0
  -17.5020  -31.6254   24.5183 H   0  0  0  0  0  0
  -15.5358  -30.2968   23.7674 H   0  0  0  0  0  0
  -15.8687  -28.0816   22.7060 H   0  0  0  0  0  0
  -24.5856  -30.7098   25.7715 H   0  0  0  0  0  0
  -24.8910  -32.2902   26.4822 H   0  0  0  0  0  0
  -25.7978  -30.8881   27.0186 H   0  0  0  0  0  0
  -26.2969  -29.6656   24.1300 H   0  0  0  0  0  0
  -27.4030  -29.7246   25.4812 H   0  0  0  0  0  0
  -27.8857  -30.4184   23.9530 H   0  0  0  0  0  0
  -27.2619  -33.3613   26.2027 H   0  0  0  0  0  0
  -28.3859  -32.6863   25.0319 H   0  0  0  0  0  0
  -28.0696  -31.8461   26.5427 H   0  0  0  0  0  0
  -28.2569  -38.0120   24.7537 H   0  0  0  0  0  0
  -28.1118  -36.2657   24.6220 H   0  0  0  0  0  0
  -27.2317  -37.1355   25.8854 H   0  0  0  0  0  0
  -20.9470  -29.8719   21.6787 H   0  0  0  0  0  0
  -26.0163  -38.2818   24.1412 H   0  0  0  0  0  0
  -31.3188  -17.2277   24.1664 H   0  0  0  0  0  0
  -31.9255  -16.3533   22.7073 H   0  0  0  0  0  0
  -29.5476  -18.3357   22.8718 H   0  0  0  0  0  0
  -31.2161  -17.8819   20.5136 H   0  0  0  0  0  0
  -28.2146  -16.4391   22.2320 H   0  0  0  0  0  0
  -28.5533  -17.7645   18.5597 H   0  0  0  0  0  0
  -29.7975  -18.9434   18.1417 H   0  0  0  0  0  0
  -28.1365  -19.4598   18.4054 H   0  0  0  0  0  0
  -29.9890  -23.5553   20.0221 H   0  0  0  0  0  0
  -29.1710  -23.4456   21.5360 H   0  0  0  0  0  0
  -28.4500  -21.6676   19.0838 H   0  0  0  0  0  0
  -27.6972  -21.5256   20.6347 H   0  0  0  0  0  0
  -27.0660  -24.4563   20.4919 H   0  0  0  0  0  0
  -27.8613  -24.5560   18.9567 H   0  0  0  0  0  0
  -28.2508  -18.8790   20.7571 H   0  0  0  0  0  0
  -29.4147  -15.9662   24.1895 H   0  0  0  0  0  0
  -30.2509  -14.8113   23.3577 H   0  0  0  0  0  0
  -29.8152  -20.5912   21.4797 H   0  0  0  0  0  0
  -30.4674  -20.6698   20.0159 H   0  0  0  0  0  0
  1 25  1  0  0  0
  1 30  2  0  0  0
  1 80  1  0  0  0
  2  3  1  0  0  0
  2 25  1  0  0  0
  2 83  1  0  0  0
  2 84  1  0  0  0
  3  4  1  0  0  0
  3 85  1  0  0  0
  3 86  1  0  0  0
  4  5  1  0  0  0
  4 87  1  0  0  0
  4 88  1  0  0  0
  5  6  1  0  0  0
  5 26  1  0  0  0
  5 89  1  0  0  0
  6 25  1  0  0  0
  6 90  1  0  0  0
  6 91  1  0  0  0
  7  8  2  0  0  0
  7 26  1  0  0  0
  7 29  1  0  0  0
  8  9  1  0  0  0
  8 22  1  0  0  0
  9 10  1  0  0  0
  9 27  2  0  0  0
 10 11  2  0  0  0
 10 15  1  0  0  0
 11 12  1  0  0  0
 11 92  1  0  0  0
 12 13  2  0  0  0
 12 93  1  0  0  0
 13 14  1  0  0  0
 13 31  1  0  0  0
 14 15  2  0  0  0
 14 94  1  0  0  0
 15 95  1  0  0  0
 16 17  2  0  0  0
 16 21  1  0  0  0
 16 31  1  0  0  0
 17 18  1  0  0  0
 17 96  1  0  0  0
 18 19  2  0  0  0
 18 97  1  0  0  0
 19 20  1  0  0  0
 19 24  1  0  0  0
 20 21  2  0  0  0
 20 98  1  0  0  0
 21 23  1  0  0  0
 22 28  1  0  0  0
 22 32  2  0  0  0
 26 27  1  0  0  0
 28 99  1  0  0  0
 28100  1  0  0  0
 29101  1  0  0  0
 29102  1  0  0  0
 33 34  1  0  0  0
 33 66  1  0  0  0
 33 70  2  0  0  0
 34 36  1  0  0  0
 34 59  1  0  0  0
 34103  1  0  0  0
 35 44  2  0  0  0
 35 45  1  0  0  0
 35 68  1  0  0  0
 36 56  1  0  0  0
 36104  1  0  0  0
 37 39  1  0  0  0
 37 47  1  0  0  0
 37 66  1  0  0  0
 37105  1  0  0  0
 38 43  2  0  0  0
 38 46  1  0  0  0
 38 47  1  0  0  0
 39 64  1  0  0  0
 39 67  2  0  0  0
 40 52  1  0  0  0
 40 53  2  0  0  0
 40 58  1  0  0  0
 41106  1  0  0  0
 41107  1  0  0  0
 41108  1  0  0  0
 41 48  1  0  0  0
 42 43  1  0  0  0
 42 66  1  0  0  0
 42109  1  0  0  0
 42110  1  0  0  0
 43 44  1  0  0  0
 44111  1  0  0  0
 45 46  2  0  0  0
 45112  1  0  0  0
 46113  1  0  0  0
 47114  1  0  0  0
 47115  1  0  0  0
 48 56  1  0  0  0
 48 65  1  0  0  0
 48116  1  0  0  0
 49 50  1  0  0  0
 49 53  1  0  0  0
 49 64  1  0  0  0
 49117  1  0  0  0
 50 51  1  0  0  0
 50118  1  0  0  0
 50119  1  0  0  0
 51 52  1  0  0  0
 51120  1  0  0  0
 51121  1  0  0  0
 52122  1  0  0  0
 52123  1  0  0  0
 53 54  1  0  0  0
 54 55  2  0  0  0
 54124  1  0  0  0
 55 57  1  0  0  0
 55125  1  0  0  0
 56 69  2  0  0  0
 57 58  2  0  0  0
 57126  1  0  0  0
 58127  1  0  0  0
 59 60  1  0  0  0
 59 61  1  0  0  0
 59 62  1  0  0  0
 60128  1  0  0  0
 60129  1  0  0  0
 60130  1  0  0  0
 61131  1  0  0  0
 61132  1  0  0  0
 61133  1  0  0  0
 62134  1  0  0  0
 62135  1  0  0  0
 62136  1  0  0  0
 63 65  1  0  0  0
 63137  1  0  0  0
 63138  1  0  0  0
 63139  1  0  0  0
 64140  1  0  0  0
 65141  1  0  0  0
 68 78  1  0  0  0
 71 81  1  0  0  0
 71142  1  0  0  0
 71143  1  0  0  0
 71 72  1  0  0  0
 72 73  1  0  0  0
 72 74  1  0  0  0
 72144  1  0  0  0
 73 79  1  0  0  0
 73 80  1  0  0  0
 73145  1  0  0  0
 74 80  1  0  0  0
 74 81  1  0  0  0
 74146  1  0  0  0
 75147  1  0  0  0
 75148  1  0  0  0
 75149  1  0  0  0
 75 79  1  0  0  0
 76 77  1  0  0  0
 76 78  1  0  0  0
 76150  1  0  0  0
 76151  1  0  0  0
 77 82  1  0  0  0
 77152  1  0  0  0
 77153  1  0  0  0
 78154  1  0  0  0
 78155  1  0  0  0
 79 82  1  0  0  0
 79156  1  0  0  0
 81157  1  0  0  0
 81158  1  0  0  0
 82159  1  0  0  0
 82160  1  0  0  0
M  CHG  2  81   1  82   1
M  ISO  4   1 100  68 101  78 101  80 100
M  END
> <chiral flag>
0

> <version>
0

> <s_m_source_file>
/data/baiqing/PycharmProjects/Reinvent-master-3.2/result/LINK_invent/BTK/process_docking_weight1_custom_sum_contain_oxygen_bond_distance_aromatic_linkinvent_7_9_3/rearranged_h_0191.sdf

> <i_m_source_file_index>
96

> <r_mmod_Potential_Energy-OPLS-2005>
226.458984375

> <r_mmod_Stretch_Energy-OPLS-2005>
282.40869140625

> <r_mmod_Bend_Energy-OPLS-2005>
290.262390136719

> <r_mmod_Torsional_Energy-OPLS-2005>
316.006774902344

> <r_mmod_Improper_Torsional_Energy-OPLS-2005>
9.52829456329346

> <r_mmod_Van_der_Waal_Energy-OPLS-2005>
115.462127685547

> <r_mmod_Electrostatic_Energy-OPLS-2005>
40.7766761779785

> <r_mmod_Solvation_Energy-OPLS-2005>
-1014.35180664062

> <b_mmod_Minimization_Converged-OPLS-2005>
0

> <r_mmod_RMS_Derivative-OPLS-2005>
3.2372100353241

$$$$
96
                    3D
 Structure written by MMmdl.
152161  0  0  1  0            999 V2000
  -30.4691  -15.1041   20.3810 C   0  0  0  0  0  0
  -30.4332  -12.6878   19.5152 C   0  0  0  0  0  0
  -29.5366  -12.5601   18.2630 C   0  0  0  0  0  0
  -28.0618  -12.3460   18.6610 C   0  0  0  0  0  0
  -27.6172  -13.2736   19.8252 C   0  0  2  0  0  0
  -28.6518  -13.3496   20.9628 C   0  0  0  0  0  0
  -25.2387  -13.8238   20.5668 C   0  0  0  0  0  0
  -24.1750  -13.0398   20.9197 C   0  0  0  0  0  0
  -24.6423  -11.6907   20.8731 C   0  0  0  0  0  0
  -23.9117  -10.4260   21.0395 C   0  0  0  0  0  0
  -24.3666   -9.4165   21.9165 C   0  0  0  0  0  0
  -23.6307   -8.2221   22.0760 C   0  0  0  0  0  0
  -22.4274   -8.0298   21.3563 C   0  0  0  0  0  0
  -21.9920   -9.0278   20.4656 C   0  0  0  0  0  0
  -22.7284  -10.2130   20.3048 C   0  0  0  0  0  0
  -21.6839   -6.0742   22.5275 C   0  0  0  0  0  0
  -21.4013   -6.5648   23.8211 C   0  0  0  0  0  0
  -21.3653   -5.6803   24.9176 C   0  0  0  0  0  0
  -21.6037   -4.3066   24.7229 C   0  0  0  0  0  0
  -21.8808   -3.8155   23.4351 C   0  0  0  0  0  0
  -21.9174   -4.6965   22.3400 C   0  0  0  0  0  0
  -22.7761  -13.5152   21.1837 C   0  0  0  0  0  0
  -22.1641   -4.2155   21.0974 F   0  0  0  0  0  0
  -21.5619   -3.4542   25.7739 F   0  0  0  0  0  0
  -29.9025  -13.8148   20.3511 N   0  0  0  0  0  0
  -26.2826  -12.9513   20.3161 N   0  0  0  0  0  0
  -25.9361  -11.6616   20.5679 N   0  0  0  0  0  0
  -22.0405  -12.8194   22.0432 N   0  0  0  0  0  0
  -25.3920  -15.1977   20.4083 N   0  0  0  0  0  0
  -31.6878  -15.1296   20.1471 O   0  0  0  0  0  0
  -21.6628   -6.8907   21.4255 O   0  0  0  0  0  0
  -22.3410  -14.5407   20.6629 O   0  0  0  0  0  0
  -24.6580  -31.8339   23.1729 C   0  0  0  0  0  0
  -25.9303  -32.4629   23.8173 C   0  0  1  0  0  0
  -27.2083  -27.0105   20.1625 C   0  0  0  0  0  0
  -25.6000  -33.8450   24.2095 N   0  0  0  0  0  0
  -23.4656  -30.4509   21.5231 C   0  0  2  0  0  0
  -24.9143  -28.8511   20.1137 C   0  0  0  0  0  0
  -22.7640  -29.4524   22.4821 C   0  0  0  0  0  0
  -18.0328  -28.1438   22.8480 C   0  0  0  0  0  0
  -24.1495  -36.7223   23.2631 C   0  0  0  0  0  0
  -26.0297  -30.6701   21.3844 C   0  0  0  0  0  0
  -26.0995  -29.2652   20.7355 C   0  0  0  0  0  0
  -27.2502  -28.3659   20.7335 C   0  0  0  0  0  0
  -25.9979  -26.7355   19.4935 C   0  0  0  0  0  0
  -24.8831  -27.6045   19.4711 C   0  0  0  0  0  0
  -23.6984  -29.7718   20.1474 C   0  0  0  0  0  0
  -25.4133  -36.2990   24.0291 C   0  0  1  0  0  0
  -20.5948  -28.3780   23.1202 C   0  0  2  0  0  0
  -20.6805  -26.9476   22.5411 C   0  0  0  0  0  0
  -19.5765  -26.6396   21.5235 C   0  0  0  0  0  0
  -18.1947  -26.7961   22.1658 C   0  0  0  0  0  0
  -19.1586  -28.8939   23.2827 C   0  0  0  0  0  0
  -18.9481  -30.1519   23.8866 C   0  0  0  0  0  0
  -17.6472  -30.6614   24.0575 C   0  0  0  0  0  0
  -25.9111  -34.9374   23.5016 C   0  0  0  0  0  0
  -16.5375  -29.9104   23.6329 C   0  0  0  0  0  0
  -16.7308  -28.6540   23.0333 C   0  0  0  0  0  0
  -26.4545  -31.6513   25.0658 C   0  0  0  0  0  0
  -25.3685  -31.3794   26.1326 C   0  0  0  0  0  0
  -27.0352  -30.2863   24.6285 C   0  0  0  0  0  0
  -27.6070  -32.4256   25.7479 C   0  0  0  0  0  0
  -27.5573  -37.1781   24.8456 C   0  0  0  0  0  0
  -21.4326  -29.3064   22.3566 N   0  0  0  0  0  0
  -26.4269  -37.3730   23.9406 N   0  0  0  0  0  0
  -24.7385  -31.0095   22.0809 N   0  0  0  0  0  0
  -23.4211  -28.8092   23.3050 O   0  0  0  0  0  0
  -28.2194  -25.9405   20.1650 O   0  0  0  0  0  0
  -26.5702  -34.8895   22.4592 O   0  0  0  0  0  0
  -23.5676  -32.1264   23.6888 O   0  0  0  0  0  0
  -28.5217  -21.5258   20.5447 C   0  0  0  0  0  0
  -29.1928  -20.3065   19.9791 C   0  0  0  0  0  0
  -28.6563  -22.9277   20.0018 C   0  0  0  0  0  0
  -30.0045  -21.8589   18.4108 C   0  0  0  0  0  0
  -29.2902  -17.3414   19.4201 C   0  0  0  0  0  0
  -30.1831  -17.6639   21.1734 C   0  0  0  0  0  0
  -29.1758  -18.6343   20.3752 C   0  0  0  0  0  0
  -30.7790  -22.0161   17.1148 C   0  0  0  0  0  0
  -27.8884  -24.3881   20.4680 C   0  0  0  0  0  0
  -29.9441  -20.6057   18.8947 N   0  0  0  0  0  0
  -29.4264  -22.9757   18.8909 N   0  0  0  0  0  0
  -29.7123  -16.3483   20.5182 N   0  0  0  0  0  0
  -31.4697  -12.8532   19.2154 H   0  0  0  0  0  0
  -30.4404  -11.7527   20.0763 H   0  0  0  0  0  0
  -29.8819  -11.7433   17.6287 H   0  0  0  0  0  0
  -29.6296  -13.4678   17.6633 H   0  0  0  0  0  0
  -27.9405  -11.3026   18.9507 H   0  0  0  0  0  0
  -27.4164  -12.4983   17.7932 H   0  0  0  0  0  0
  -27.5620  -14.2739   19.3926 H   0  0  0  0  0  0
  -28.7721  -12.3770   21.4474 H   0  0  0  0  0  0
  -28.3318  -14.0533   21.7333 H   0  0  0  0  0  0
  -25.2828   -9.5599   22.4717 H   0  0  0  0  0  0
  -23.9994   -7.4588   22.7458 H   0  0  0  0  0  0
  -21.0833   -8.8825   19.8974 H   0  0  0  0  0  0
  -22.3760  -10.9684   19.6159 H   0  0  0  0  0  0
  -21.2038   -7.6160   23.9726 H   0  0  0  0  0  0
  -21.1474   -6.0533   25.9084 H   0  0  0  0  0  0
  -22.0590   -2.7617   23.2841 H   0  0  0  0  0  0
  -22.4065  -11.9987   22.5028 H   0  0  0  0  0  0
  -21.0985  -13.1195   22.2517 H   0  0  0  0  0  0
  -24.6004  -15.8264   20.4892 H   0  0  0  0  0  0
  -26.2295  -15.6537   20.0720 H   0  0  0  0  0  0
  -26.7407  -32.5209   23.0938 H   0  0  0  0  0  0
  -25.0155  -33.9547   25.0240 H   0  0  0  0  0  0
  -22.7763  -31.2814   21.3564 H   0  0  0  0  0  0
  -23.3762  -35.9558   23.3282 H   0  0  0  0  0  0
  -24.3582  -36.8874   22.2054 H   0  0  0  0  0  0
  -23.7237  -37.6408   23.6680 H   0  0  0  0  0  0
  -26.1950  -31.4119   20.6011 H   0  0  0  0  0  0
  -26.9011  -30.7385   22.0235 H   0  0  0  0  0  0
  -28.1608  -28.6821   21.2206 H   0  0  0  0  0  0
  -25.8962  -25.7921   18.9781 H   0  0  0  0  0  0
  -23.9859  -27.2857   18.9586 H   0  0  0  0  0  0
  -23.8551  -30.5369   19.3853 H   0  0  0  0  0  0
  -22.8086  -29.2250   19.8281 H   0  0  0  0  0  0
  -25.1330  -36.1815   25.0781 H   0  0  0  0  0  0
  -21.0067  -28.3426   24.1315 H   0  0  0  0  0  0
  -20.5677  -26.2444   23.3682 H   0  0  0  0  0  0
  -21.6666  -26.7441   22.1231 H   0  0  0  0  0  0
  -19.6898  -25.6286   21.1308 H   0  0  0  0  0  0
  -19.6654  -27.3191   20.6747 H   0  0  0  0  0  0
  -17.4210  -26.6711   21.4063 H   0  0  0  0  0  0
  -18.0322  -26.0110   22.9064 H   0  0  0  0  0  0
  -19.7946  -30.7351   24.2203 H   0  0  0  0  0  0
  -17.5013  -31.6265   24.5232 H   0  0  0  0  0  0
  -15.5375  -30.3000   23.7622 H   0  0  0  0  0  0
  -15.8716  -28.0844   22.7021 H   0  0  0  0  0  0
  -24.5996  -30.6945   25.7736 H   0  0  0  0  0  0
  -24.8695  -32.2984   26.4413 H   0  0  0  0  0  0
  -25.7966  -30.9299   27.0292 H   0  0  0  0  0  0
  -26.2950  -29.6629   24.1252 H   0  0  0  0  0  0
  -27.3869  -29.7141   25.4877 H   0  0  0  0  0  0
  -27.8924  -30.4026   23.9657 H   0  0  0  0  0  0
  -27.2721  -33.3696   26.1793 H   0  0  0  0  0  0
  -28.4065  -32.6541   25.0418 H   0  0  0  0  0  0
  -28.0489  -31.8481   26.5609 H   0  0  0  0  0  0
  -28.2570  -38.0092   24.7526 H   0  0  0  0  0  0
  -28.1085  -36.2626   24.6266 H   0  0  0  0  0  0
  -27.2301  -37.1432   25.8857 H   0  0  0  0  0  0
  -20.9600  -29.8806   21.6738 H   0  0  0  0  0  0
  -26.0126  -38.2798   24.1378 H   0  0  0  0  0  0
  -27.8682  -21.3930   21.3991 H   0  0  0  0  0  0
  -28.3469  -17.0913   18.9333 H   0  0  0  0  0  0
  -30.0600  -17.4749   18.6575 H   0  0  0  0  0  0
  -30.0173  -17.6977   22.2529 H   0  0  0  0  0  0
  -31.2286  -17.8915   20.9677 H   0  0  0  0  0  0
  -28.2043  -18.5367   20.8586 H   0  0  0  0  0  0
  -31.6347  -21.3401   17.0773 H   0  0  0  0  0  0
  -31.1622  -23.0282   17.0007 H   0  0  0  0  0  0
  -30.1378  -21.7972   16.2603 H   0  0  0  0  0  0
  -26.8399  -24.2399   20.2195 H   0  0  0  0  0  0
  -27.8896  -24.3346   21.5582 H   0  0  0  0  0  0
  1 25  1  0  0  0
  1 30  2  0  0  0
  1 82  1  0  0  0
  2  3  1  0  0  0
  2 25  1  0  0  0
  2 83  1  0  0  0
  2 84  1  0  0  0
  3  4  1  0  0  0
  3 85  1  0  0  0
  3 86  1  0  0  0
  4  5  1  0  0  0
  4 87  1  0  0  0
  4 88  1  0  0  0
  5  6  1  0  0  0
  5 26  1  0  0  0
  5 89  1  0  0  0
  6 25  1  0  0  0
  6 90  1  0  0  0
  6 91  1  0  0  0
  7  8  2  0  0  0
  7 26  1  0  0  0
  7 29  1  0  0  0
  8  9  1  0  0  0
  8 22  1  0  0  0
  9 10  1  0  0  0
  9 27  2  0  0  0
 10 11  2  0  0  0
 10 15  1  0  0  0
 11 12  1  0  0  0
 11 92  1  0  0  0
 12 13  2  0  0  0
 12 93  1  0  0  0
 13 14  1  0  0  0
 13 31  1  0  0  0
 14 15  2  0  0  0
 14 94  1  0  0  0
 15 95  1  0  0  0
 16 17  2  0  0  0
 16 21  1  0  0  0
 16 31  1  0  0  0
 17 18  1  0  0  0
 17 96  1  0  0  0
 18 19  2  0  0  0
 18 97  1  0  0  0
 19 20  1  0  0  0
 19 24  1  0  0  0
 20 21  2  0  0  0
 20 98  1  0  0  0
 21 23  1  0  0  0
 22 28  1  0  0  0
 22 32  2  0  0  0
 26 27  1  0  0  0
 28 99  1  0  0  0
 28100  1  0  0  0
 29101  1  0  0  0
 29102  1  0  0  0
 33 34  1  0  0  0
 33 66  1  0  0  0
 33 70  2  0  0  0
 34 36  1  0  0  0
 34 59  1  0  0  0
 34103  1  0  0  0
 35 44  2  0  0  0
 35 45  1  0  0  0
 35 68  1  0  0  0
 36 56  1  0  0  0
 36104  1  0  0  0
 37 39  1  0  0  0
 37 47  1  0  0  0
 37 66  1  0  0  0
 37105  1  0  0  0
 38 43  2  0  0  0
 38 46  1  0  0  0
 38 47  1  0  0  0
 39 64  1  0  0  0
 39 67  2  0  0  0
 40 52  1  0  0  0
 40 53  2  0  0  0
 40 58  1  0  0  0
 41106  1  0  0  0
 41107  1  0  0  0
 41108  1  0  0  0
 41 48  1  0  0  0
 42 43  1  0  0  0
 42 66  1  0  0  0
 42109  1  0  0  0
 42110  1  0  0  0
 43 44  1  0  0  0
 44111  1  0  0  0
 45 46  2  0  0  0
 45112  1  0  0  0
 46113  1  0  0  0
 47114  1  0  0  0
 47115  1  0  0  0
 48 56  1  0  0  0
 48 65  1  0  0  0
 48116  1  0  0  0
 49 50  1  0  0  0
 49 53  1  0  0  0
 49 64  1  0  0  0
 49117  1  0  0  0
 50 51  1  0  0  0
 50118  1  0  0  0
 50119  1  0  0  0
 51 52  1  0  0  0
 51120  1  0  0  0
 51121  1  0  0  0
 52122  1  0  0  0
 52123  1  0  0  0
 53 54  1  0  0  0
 54 55  2  0  0  0
 54124  1  0  0  0
 55 57  1  0  0  0
 55125  1  0  0  0
 56 69  2  0  0  0
 57 58  2  0  0  0
 57126  1  0  0  0
 58127  1  0  0  0
 59 60  1  0  0  0
 59 61  1  0  0  0
 59 62  1  0  0  0
 60128  1  0  0  0
 60129  1  0  0  0
 60130  1  0  0  0
 61131  1  0  0  0
 61132  1  0  0  0
 61133  1  0  0  0
 62134  1  0  0  0
 62135  1  0  0  0
 62136  1  0  0  0
 63 65  1  0  0  0
 63137  1  0  0  0
 63138  1  0  0  0
 63139  1  0  0  0
 64140  1  0  0  0
 65141  1  0  0  0
 68 79  1  0  0  0
 71 72  2  0  0  0
 71 73  1  0  0  0
 71142  1  0  0  0
 72 80  1  0  0  0
 72 77  1  0  0  0
 73 79  1  0  0  0
 73 81  2  0  0  0
 74 78  1  0  0  0
 74 80  2  0  0  0
 74 81  1  0  0  0
 75 77  1  0  0  0
 75 82  1  0  0  0
 75143  1  0  0  0
 75144  1  0  0  0
 76 77  1  0  0  0
 76 82  1  0  0  0
 76145  1  0  0  0
 76146  1  0  0  0
 77147  1  0  0  0
 78148  1  0  0  0
 78149  1  0  0  0
 78150  1  0  0  0
 79151  1  0  0  0
 79152  1  0  0  0
M  ISO  4   1 100  68 101  79 101  82 100
M  END
> <chiral flag>
0

> <version>
0

> <s_m_source_file>
/data/baiqing/PycharmProjects/Reinvent-master-3.2/result/LINK_invent/BTK/process_docking_weight1_custom_sum_contain_oxygen_bond_distance_aromatic_linkinvent_7_9_3/rearranged_h_0191.sdf

> <i_m_source_file_index>
97

> <r_mmod_Potential_Energy-OPLS-2005>
508.634979248047

> <r_mmod_Stretch_Energy-OPLS-2005>
377.104675292969

> <r_mmod_Bend_Energy-OPLS-2005>
342.3291015625

> <r_mmod_Torsional_Energy-OPLS-2005>
274.774688720703

> <r_mmod_Improper_Torsional_Energy-OPLS-2005>
10.730993270874

> <r_mmod_Van_der_Waal_Energy-OPLS-2005>
132.306671142578

> <r_mmod_Electrostatic_Energy-OPLS-2005>
-706.251953125

> <r_mmod_Solvation_Energy-OPLS-2005>
-240.799499511719

> <b_mmod_Minimization_Converged-OPLS-2005>
0

> <r_mmod_RMS_Derivative-OPLS-2005>
4.84475708007812

$$$$
97
                    3D
 Structure written by MMmdl.
161170  0  0  1  0            999 V2000
  -30.5224  -15.0941   20.3965 C   0  0  0  0  0  0
  -30.4306  -12.6912   19.5101 C   0  0  0  0  0  0
  -29.5219  -12.5399   18.2681 C   0  0  0  0  0  0
  -28.0634  -12.3003   18.6956 C   0  0  0  0  0  0
  -27.6154  -13.2640   19.8250 C   0  0  2  0  0  0
  -28.6543  -13.3843   20.9591 C   0  0  0  0  0  0
  -25.2408  -13.8244   20.5746 C   0  0  0  0  0  0
  -24.1741  -13.0442   20.9239 C   0  0  0  0  0  0
  -24.6384  -11.6934   20.8754 C   0  0  0  0  0  0
  -23.9081  -10.4293   21.0405 C   0  0  0  0  0  0
  -24.3629   -9.4207   21.9182 C   0  0  0  0  0  0
  -23.6299   -8.2244   22.0753 C   0  0  0  0  0  0
  -22.4278   -8.0280   21.3545 C   0  0  0  0  0  0
  -21.9916   -9.0257   20.4650 C   0  0  0  0  0  0
  -22.7249  -10.2134   20.3057 C   0  0  0  0  0  0
  -21.6855   -6.0735   22.5281 C   0  0  0  0  0  0
  -21.4016   -6.5640   23.8214 C   0  0  0  0  0  0
  -21.3661   -5.6794   24.9175 C   0  0  0  0  0  0
  -21.6043   -4.3056   24.7225 C   0  0  0  0  0  0
  -21.8817   -3.8147   23.4347 C   0  0  0  0  0  0
  -21.9190   -4.6961   22.3402 C   0  0  0  0  0  0
  -22.7762  -13.5199   21.1897 C   0  0  0  0  0  0
  -22.1658   -4.2147   21.0979 F   0  0  0  0  0  0
  -21.5629   -3.4541   25.7739 F   0  0  0  0  0  0
  -29.9055  -13.8300   20.3341 N   0  0  0  0  0  0
  -26.2825  -12.9500   20.3224 N   0  0  0  0  0  0
  -25.9318  -11.6614   20.5727 N   0  0  0  0  0  0
  -22.0422  -12.8181   22.0454 N   0  0  0  0  0  0
  -25.4086  -15.1979   20.4234 N   0  0  0  0  0  0
  -31.7423  -15.0749   20.1859 O   0  0  0  0  0  0
  -21.6643   -6.8877   21.4242 O   0  0  0  0  0  0
  -22.3443  -14.5504   20.6744 O   0  0  0  0  0  0
  -24.6539  -31.8345   23.1798 C   0  0  0  0  0  0
  -25.9267  -32.4643   23.8221 C   0  0  1  0  0  0
  -27.2085  -27.0257   20.1667 C   0  0  0  0  0  0
  -25.5972  -33.8452   24.2131 N   0  0  0  0  0  0
  -23.4622  -30.4521   21.5282 C   0  0  2  0  0  0
  -24.9112  -28.8609   20.1123 C   0  0  0  0  0  0
  -22.7617  -29.4505   22.4820 C   0  0  0  0  0  0
  -18.0318  -28.1399   22.8473 C   0  0  0  0  0  0
  -24.1495  -36.7232   23.2645 C   0  0  0  0  0  0
  -26.0268  -30.6728   21.3957 C   0  0  0  0  0  0
  -26.0945  -29.2740   20.7373 C   0  0  0  0  0  0
  -27.2426  -28.3763   20.7414 C   0  0  0  0  0  0
  -25.9967  -26.7461   19.4954 C   0  0  0  0  0  0
  -24.8819  -27.6141   19.4727 C   0  0  0  0  0  0
  -23.6947  -29.7778   20.1503 C   0  0  0  0  0  0
  -25.4130  -36.2998   24.0306 C   0  0  1  0  0  0
  -20.5936  -28.3738   23.1209 C   0  0  2  0  0  0
  -20.6798  -26.9430   22.5401 C   0  0  0  0  0  0
  -19.5770  -26.6377   21.5212 C   0  0  0  0  0  0
  -18.1953  -26.7936   22.1623 C   0  0  0  0  0  0
  -19.1577  -28.8888   23.2831 C   0  0  0  0  0  0
  -18.9487  -30.1481   23.8863 C   0  0  0  0  0  0
  -17.6481  -30.6592   24.0557 C   0  0  0  0  0  0
  -25.9088  -34.9378   23.5032 C   0  0  0  0  0  0
  -16.5373  -29.9080   23.6338 C   0  0  0  0  0  0
  -16.7301  -28.6499   23.0361 C   0  0  0  0  0  0
  -26.4545  -31.6550   25.0709 C   0  0  0  0  0  0
  -25.3696  -31.3774   26.1381 C   0  0  0  0  0  0
  -27.0427  -30.2927   24.6381 C   0  0  0  0  0  0
  -27.6049  -32.4343   25.7507 C   0  0  0  0  0  0
  -27.5573  -37.1773   24.8465 C   0  0  0  0  0  0
  -21.4299  -29.3049   22.3567 N   0  0  0  0  0  0
  -26.4285  -37.3720   23.9406 N   0  0  0  0  0  0
  -24.7352  -31.0103   22.0888 N   0  0  0  0  0  0
  -23.4212  -28.8061   23.3016 O   0  0  0  0  0  0
  -28.2299  -25.9706   20.2251 O   0  0  0  0  0  0
  -26.5686  -34.8894   22.4618 O   0  0  0  0  0  0
  -23.5631  -32.1274   23.6949 O   0  0  0  0  0  0
  -29.9194  -17.2946   19.1806 C   0  0  0  0  0  0
  -29.9430  -17.4708   21.4549 C   0  0  0  0  0  0
  -29.1303  -18.7285   19.0783 C   0  0  0  0  0  0
  -29.2303  -18.9800   21.3655 C   0  0  0  0  0  0
  -28.5411  -21.2595   19.8987 C   0  0  2  0  0  0
  -28.7516  -21.7537   18.4411 C   0  0  1  0  0  0
  -28.8944  -22.9376   20.1823 C   0  0  2  0  0  0
  -27.5522  -22.0346   17.5279 C   0  0  0  0  0  0
  -27.9117  -24.3931   20.2112 C   0  0  0  0  0  0
  -29.8149  -16.3766   20.3842 N   0  0  0  0  0  0
  -29.3727  -19.8453   20.1081 N   0  3  0  0  0  0
  -27.9666  -22.8120   16.3488 N   0  3  0  0  0  0
  -29.4015  -23.0079   18.8297 O   0  0  0  0  0  0
  -31.4596  -12.8561   19.1878 H   0  0  0  0  0  0
  -30.4503  -11.7684   20.0922 H   0  0  0  0  0  0
  -29.8690  -11.7176   17.6408 H   0  0  0  0  0  0
  -29.5837  -13.4416   17.6571 H   0  0  0  0  0  0
  -27.9930  -11.2696   19.0454 H   0  0  0  0  0  0
  -27.3946  -12.3773   17.8373 H   0  0  0  0  0  0
  -27.5497  -14.2454   19.3537 H   0  0  0  0  0  0
  -28.7800  -12.4387   21.4880 H   0  0  0  0  0  0
  -28.3262  -14.1177   21.6978 H   0  0  0  0  0  0
  -25.2774   -9.5683   22.4760 H   0  0  0  0  0  0
  -24.0008   -7.4633   22.7470 H   0  0  0  0  0  0
  -21.0846   -8.8779   19.8956 H   0  0  0  0  0  0
  -22.3704  -10.9675   19.6170 H   0  0  0  0  0  0
  -21.2015   -7.6150   23.9717 H   0  0  0  0  0  0
  -21.1484   -6.0524   25.9077 H   0  0  0  0  0  0
  -22.0593   -2.7609   23.2851 H   0  0  0  0  0  0
  -22.4054  -11.9855   22.4852 H   0  0  0  0  0  0
  -21.1031  -13.1186   22.2656 H   0  0  0  0  0  0
  -24.6445  -15.8525   20.5512 H   0  0  0  0  0  0
  -26.2673  -15.6425   20.1258 H   0  0  0  0  0  0
  -26.7335  -32.5209   23.0940 H   0  0  0  0  0  0
  -25.0082  -33.9545   25.0256 H   0  0  0  0  0  0
  -22.7703  -31.2814   21.3665 H   0  0  0  0  0  0
  -23.3763  -35.9557   23.3286 H   0  0  0  0  0  0
  -24.3577  -36.8894   22.2063 H   0  0  0  0  0  0
  -23.7246  -37.6416   23.6708 H   0  0  0  0  0  0
  -26.1975  -31.4224   20.6215 H   0  0  0  0  0  0
  -26.8909  -30.7228   22.0467 H   0  0  0  0  0  0
  -28.1416  -28.6902   21.2526 H   0  0  0  0  0  0
  -25.8655  -25.8046   18.9879 H   0  0  0  0  0  0
  -23.9827  -27.2941   18.9645 H   0  0  0  0  0  0
  -23.8420  -30.5503   19.3946 H   0  0  0  0  0  0
  -22.8062  -29.2279   19.8351 H   0  0  0  0  0  0
  -25.1322  -36.1808   25.0798 H   0  0  0  0  0  0
  -21.0027  -28.3339   24.1331 H   0  0  0  0  0  0
  -20.5683  -26.2355   23.3631 H   0  0  0  0  0  0
  -21.6663  -26.7418   22.1205 H   0  0  0  0  0  0
  -19.6928  -25.6276   21.1270 H   0  0  0  0  0  0
  -19.6707  -27.3164   20.6724 H   0  0  0  0  0  0
  -17.4219  -26.6680   21.4031 H   0  0  0  0  0  0
  -18.0352  -26.0086   22.9027 H   0  0  0  0  0  0
  -19.7961  -30.7310   24.2216 H   0  0  0  0  0  0
  -17.5031  -31.6270   24.5163 H   0  0  0  0  0  0
  -15.5371  -30.2968   23.7681 H   0  0  0  0  0  0
  -15.8703  -28.0803   22.7096 H   0  0  0  0  0  0
  -24.5886  -30.7114   25.7696 H   0  0  0  0  0  0
  -24.8875  -32.2967   26.4715 H   0  0  0  0  0  0
  -25.7946  -30.9004   27.0221 H   0  0  0  0  0  0
  -26.3072  -29.6622   24.1372 H   0  0  0  0  0  0
  -27.3972  -29.7264   25.5004 H   0  0  0  0  0  0
  -27.9009  -30.4126   23.9767 H   0  0  0  0  0  0
  -27.2623  -33.3677   26.1985 H   0  0  0  0  0  0
  -28.3910  -32.6853   25.0374 H   0  0  0  0  0  0
  -28.0663  -31.8541   26.5506 H   0  0  0  0  0  0
  -28.2574  -38.0084   24.7508 H   0  0  0  0  0  0
  -28.1085  -36.2609   24.6296 H   0  0  0  0  0  0
  -27.2290  -37.1422   25.8868 H   0  0  0  0  0  0
  -20.9527  -29.8751   21.6723 H   0  0  0  0  0  0
  -26.0142  -38.2785   24.1407 H   0  0  0  0  0  0
  -30.9800  -17.4863   19.0069 H   0  0  0  0  0  0
  -29.6076  -16.6990   18.3213 H   0  0  0  0  0  0
  -29.6140  -17.0178   22.3906 H   0  0  0  0  0  0
  -31.0134  -17.6306   21.5973 H   0  0  0  0  0  0
  -28.0595  -18.5180   19.0762 H   0  0  0  0  0  0
  -29.3375  -19.0977   18.0776 H   0  0  0  0  0  0
  -29.5786  -19.5775   22.2084 H   0  0  0  0  0  0
  -28.1614  -18.8477   21.5381 H   0  0  0  0  0  0
  -27.4859  -21.0697   20.0945 H   0  0  0  0  0  0
  -29.4991  -21.1666   17.9119 H   0  0  0  0  0  0
  -29.7033  -23.0041   20.9108 H   0  0  0  0  0  0
  -26.7602  -22.5672   18.0526 H   0  0  0  0  0  0
  -27.1080  -21.0977   17.1897 H   0  0  0  0  0  0
  -27.2756  -24.2867   21.0903 H   0  0  0  0  0  0
  -27.2181  -24.2738   19.3863 H   0  0  0  0  0  0
  -30.3493  -20.0905   20.0391 H   0  0  0  0  0  0
  -28.4282  -23.6539   16.6452 H   0  0  0  0  0  0
  -27.1689  -23.0569   15.7901 H   0  0  0  0  0  0
  -28.6043  -22.2856   15.7793 H   0  0  0  0  0  0
  1 25  1  0  0  0
  1 30  2  0  0  0
  1 80  1  0  0  0
  2  3  1  0  0  0
  2 25  1  0  0  0
  2 84  1  0  0  0
  2 85  1  0  0  0
  3  4  1  0  0  0
  3 86  1  0  0  0
  3 87  1  0  0  0
  4  5  1  0  0  0
  4 88  1  0  0  0
  4 89  1  0  0  0
  5  6  1  0  0  0
  5 26  1  0  0  0
  5 90  1  0  0  0
  6 25  1  0  0  0
  6 91  1  0  0  0
  6 92  1  0  0  0
  7  8  2  0  0  0
  7 26  1  0  0  0
  7 29  1  0  0  0
  8  9  1  0  0  0
  8 22  1  0  0  0
  9 10  1  0  0  0
  9 27  2  0  0  0
 10 11  2  0  0  0
 10 15  1  0  0  0
 11 12  1  0  0  0
 11 93  1  0  0  0
 12 13  2  0  0  0
 12 94  1  0  0  0
 13 14  1  0  0  0
 13 31  1  0  0  0
 14 15  2  0  0  0
 14 95  1  0  0  0
 15 96  1  0  0  0
 16 17  2  0  0  0
 16 21  1  0  0  0
 16 31  1  0  0  0
 17 18  1  0  0  0
 17 97  1  0  0  0
 18 19  2  0  0  0
 18 98  1  0  0  0
 19 20  1  0  0  0
 19 24  1  0  0  0
 20 21  2  0  0  0
 20 99  1  0  0  0
 21 23  1  0  0  0
 22 28  1  0  0  0
 22 32  2  0  0  0
 26 27  1  0  0  0
 28100  1  0  0  0
 28101  1  0  0  0
 29102  1  0  0  0
 29103  1  0  0  0
 33 34  1  0  0  0
 33 66  1  0  0  0
 33 70  2  0  0  0
 34 36  1  0  0  0
 34 59  1  0  0  0
 34104  1  0  0  0
 35 44  2  0  0  0
 35 45  1  0  0  0
 35 68  1  0  0  0
 36 56  1  0  0  0
 36105  1  0  0  0
 37 39  1  0  0  0
 37 47  1  0  0  0
 37 66  1  0  0  0
 37106  1  0  0  0
 38 43  2  0  0  0
 38 46  1  0  0  0
 38 47  1  0  0  0
 39 64  1  0  0  0
 39 67  2  0  0  0
 40 52  1  0  0  0
 40 53  2  0  0  0
 40 58  1  0  0  0
 41107  1  0  0  0
 41108  1  0  0  0
 41109  1  0  0  0
 41 48  1  0  0  0
 42 43  1  0  0  0
 42 66  1  0  0  0
 42110  1  0  0  0
 42111  1  0  0  0
 43 44  1  0  0  0
 44112  1  0  0  0
 45 46  2  0  0  0
 45113  1  0  0  0
 46114  1  0  0  0
 47115  1  0  0  0
 47116  1  0  0  0
 48 56  1  0  0  0
 48 65  1  0  0  0
 48117  1  0  0  0
 49 50  1  0  0  0
 49 53  1  0  0  0
 49 64  1  0  0  0
 49118  1  0  0  0
 50 51  1  0  0  0
 50119  1  0  0  0
 50120  1  0  0  0
 51 52  1  0  0  0
 51121  1  0  0  0
 51122  1  0  0  0
 52123  1  0  0  0
 52124  1  0  0  0
 53 54  1  0  0  0
 54 55  2  0  0  0
 54125  1  0  0  0
 55 57  1  0  0  0
 55126  1  0  0  0
 56 69  2  0  0  0
 57 58  2  0  0  0
 57127  1  0  0  0
 58128  1  0  0  0
 59 60  1  0  0  0
 59 61  1  0  0  0
 59 62  1  0  0  0
 60129  1  0  0  0
 60130  1  0  0  0
 60131  1  0  0  0
 61132  1  0  0  0
 61133  1  0  0  0
 61134  1  0  0  0
 62135  1  0  0  0
 62136  1  0  0  0
 62137  1  0  0  0
 63 65  1  0  0  0
 63138  1  0  0  0
 63139  1  0  0  0
 63140  1  0  0  0
 64141  1  0  0  0
 65142  1  0  0  0
 68 79  1  0  0  0
 71 73  1  0  0  0
 71 80  1  0  0  0
 71143  1  0  0  0
 71144  1  0  0  0
 72 74  1  0  0  0
 72 80  1  0  0  0
 72145  1  0  0  0
 72146  1  0  0  0
 73147  1  0  0  0
 73148  1  0  0  0
 73 81  1  0  0  0
 74 81  1  0  0  0
 74149  1  0  0  0
 74150  1  0  0  0
 75 76  1  0  0  0
 75 77  1  0  0  0
 75 81  1  0  0  0
 75151  1  0  0  0
 76 78  1  0  0  0
 76 83  1  0  0  0
 76152  1  0  0  0
 77 79  1  0  0  0
 77 83  1  0  0  0
 77153  1  0  0  0
 78 82  1  0  0  0
 78154  1  0  0  0
 78155  1  0  0  0
 79156  1  0  0  0
 79157  1  0  0  0
 81158  1  0  0  0
 82159  1  0  0  0
 82160  1  0  0  0
 82161  1  0  0  0
M  CHG  2  81   1  82   1
M  ISO  4   1 100  68 101  79 101  80 100
M  END
> <chiral flag>
0

> <version>
0

> <s_m_source_file>
/data/baiqing/PycharmProjects/Reinvent-master-3.2/result/LINK_invent/BTK/process_docking_weight1_custom_sum_contain_oxygen_bond_distance_aromatic_linkinvent_7_9_3/rearranged_h_0191.sdf

> <i_m_source_file_index>
98

> <r_mmod_Potential_Energy-OPLS-2005>
677.132873535156

> <r_mmod_Stretch_Energy-OPLS-2005>
402.226715087891

> <r_mmod_Bend_Energy-OPLS-2005>
423.251800537109

> <r_mmod_Torsional_Energy-OPLS-2005>
415.375152587891

> <r_mmod_Improper_Torsional_Energy-OPLS-2005>
12.6687164306641

> <r_mmod_Van_der_Waal_Energy-OPLS-2005>
120.857681274414

> <r_mmod_Electrostatic_Energy-OPLS-2005>
24.0134925842285

> <r_mmod_Solvation_Energy-OPLS-2005>
-1028.61120605469

> <b_mmod_Minimization_Converged-OPLS-2005>
0

> <r_mmod_RMS_Derivative-OPLS-2005>
0.709806621074677

$$$$
98
                    3D
 Structure written by MMmdl.
164173  0  0  1  0            999 V2000
  -30.7474  -14.4085   20.6117 C   0  0  0  0  0  0
  -30.4144  -12.2865   19.3976 C   0  0  0  0  0  0
  -29.4821  -12.5085   18.1896 C   0  0  0  0  0  0
  -28.0056  -12.3677   18.6087 C   0  0  0  0  0  0
  -27.6651  -13.1875   19.8822 C   0  0  2  0  0  0
  -28.7131  -12.9347   20.9918 C   0  0  0  0  0  0
  -25.2639  -13.8105   20.5697 C   0  0  0  0  0  0
  -24.1879  -13.0407   20.9192 C   0  0  0  0  0  0
  -24.6398  -11.6858   20.8752 C   0  0  0  0  0  0
  -23.9054  -10.4246   21.0418 C   0  0  0  0  0  0
  -24.3586   -9.4185   21.9216 C   0  0  0  0  0  0
  -23.6246   -8.2227   22.0782 C   0  0  0  0  0  0
  -22.4252   -8.0278   21.3547 C   0  0  0  0  0  0
  -21.9895   -9.0245   20.4645 C   0  0  0  0  0  0
  -22.7245  -10.2119   20.3051 C   0  0  0  0  0  0
  -21.6810   -6.0742   22.5305 C   0  0  0  0  0  0
  -21.3976   -6.5654   23.8219 C   0  0  0  0  0  0
  -21.3633   -5.6824   24.9200 C   0  0  0  0  0  0
  -21.6017   -4.3087   24.7259 C   0  0  0  0  0  0
  -21.8806   -3.8174   23.4390 C   0  0  0  0  0  0
  -21.9177   -4.6970   22.3445 C   0  0  0  0  0  0
  -22.7898  -13.5242   21.1839 C   0  0  0  0  0  0
  -22.1656   -4.2145   21.1011 F   0  0  0  0  0  0
  -21.5616   -3.4589   25.7771 F   0  0  0  0  0  0
  -30.0443  -13.2518   20.4437 N   0  0  0  0  0  0
  -26.3059  -12.9230   20.3425 N   0  0  0  0  0  0
  -25.9291  -11.6412   20.5737 N   0  0  0  0  0  0
  -22.0583  -12.8312   22.0492 N   0  0  0  0  0  0
  -25.4358  -15.1818   20.4096 N   0  0  0  0  0  0
  -31.8255  -14.6143   20.0501 O   0  0  0  0  0  0
  -21.6597   -6.8896   21.4253 O   0  0  0  0  0  0
  -22.3582  -14.5500   20.6587 O   0  0  0  0  0  0
  -24.6115  -31.8705   23.2183 C   0  0  0  0  0  0
  -25.9033  -32.4845   23.8424 C   0  0  1  0  0  0
  -27.2317  -27.4728   20.0612 C   0  0  0  0  0  0
  -25.5897  -33.8643   24.2343 N   0  0  0  0  0  0
  -23.3946  -30.4979   21.5597 C   0  0  2  0  0  0
  -24.8371  -28.9729   20.1149 C   0  0  0  0  0  0
  -22.7384  -29.4657   22.5054 C   0  0  0  0  0  0
  -18.0261  -28.1370   22.8491 C   0  0  0  0  0  0
  -24.1492  -36.7291   23.2624 C   0  0  0  0  0  0
  -25.9216  -30.8451   21.3674 C   0  0  0  0  0  0
  -25.9984  -29.4881   20.7000 C   0  0  0  0  0  0
  -27.1977  -28.7484   20.6654 C   0  0  0  0  0  0
  -26.0492  -26.9669   19.4710 C   0  0  0  0  0  0
  -24.8550  -27.7118   19.4979 C   0  0  0  0  0  0
  -23.5977  -29.8368   20.1718 C   0  0  0  0  0  0
  -25.4110  -36.3110   24.0331 C   0  0  1  0  0  0
  -20.5840  -28.3646   23.1355 C   0  0  2  0  0  0
  -20.6734  -26.9387   22.5446 C   0  0  0  0  0  0
  -19.5737  -26.6380   21.5213 C   0  0  0  0  0  0
  -18.1915  -26.7917   22.1619 C   0  0  0  0  0  0
  -19.1505  -28.8829   23.2910 C   0  0  0  0  0  0
  -18.9428  -30.1426   23.8944 C   0  0  0  0  0  0
  -17.6428  -30.6590   24.0557 C   0  0  0  0  0  0
  -25.9038  -34.9483   23.5142 C   0  0  0  0  0  0
  -16.5320  -29.9094   23.6315 C   0  0  0  0  0  0
  -16.7239  -28.6499   23.0354 C   0  0  0  0  0  0
  -26.4472  -31.6612   25.0734 C   0  0  0  0  0  0
  -25.3736  -31.3729   26.1483 C   0  0  0  0  0  0
  -27.0273  -30.3058   24.6064 C   0  0  0  0  0  0
  -27.6070  -32.4309   25.7474 C   0  0  0  0  0  0
  -27.5589  -37.1798   24.8468 C   0  0  0  0  0  0
  -21.4122  -29.3007   22.3759 N   0  0  0  0  0  0
  -26.4308  -37.3778   23.9405 N   0  0  0  0  0  0
  -24.6610  -31.0816   22.1084 N   0  0  0  0  0  0
  -23.4180  -28.8191   23.3071 O   0  0  0  0  0  0
  -28.4278  -26.7852   20.0676 O   0  0  0  0  0  0
  -26.5587  -34.8929   22.4703 O   0  0  0  0  0  0
  -23.5326  -32.1464   23.7605 O   0  0  0  0  0  0
  -28.5640  -20.2571   22.8832 C   0  0  0  0  0  0
  -26.1266  -19.3634   21.9917 C   0  0  0  0  0  0
  -27.5544  -21.2097   22.6302 C   0  0  0  0  0  0
  -26.3037  -20.7493   22.1569 C   0  0  0  0  0  0
  -28.2769  -18.8964   22.6957 C   0  0  0  0  0  0
  -31.0111  -16.4646   21.9988 C   0  0  0  0  0  0
  -29.0175  -16.0603   21.3428 C   0  0  0  0  0  0
  -29.7683  -17.3120   21.7696 C   0  0  0  0  0  0
  -27.5555  -25.7488   22.5875 C   0  0  0  0  0  0
  -27.8296  -22.6850   22.8588 C   0  0  0  0  0  0
  -28.4001  -25.3570   20.1431 C   0  0  0  0  0  0
  -28.2996  -24.8156   21.5992 C   0  0  2  0  0  0
  -27.0838  -18.4518   22.2694 N   0  0  0  0  0  0
  -30.2632  -15.2996   21.4998 N   0  0  0  0  0  0
  -29.2431  -17.9370   22.9778 N   0  0  0  0  0  0
  -27.7196  -23.4432   21.5979 N   0  3  0  0  0  0
  -25.0108  -21.8310   21.7663 Cl  0  0  0  0  0  0
  -31.4593  -12.3661   19.0934 H   0  0  0  0  0  0
  -30.2956  -11.2699   19.7751 H   0  0  0  0  0  0
  -29.7102  -11.7852   17.4068 H   0  0  0  0  0  0
  -29.6542  -13.4942   17.7564 H   0  0  0  0  0  0
  -27.8099  -11.3086   18.7874 H   0  0  0  0  0  0
  -27.3499  -12.6569   17.7852 H   0  0  0  0  0  0
  -27.7122  -14.2338   19.5912 H   0  0  0  0  0  0
  -28.6864  -11.8858   21.2895 H   0  0  0  0  0  0
  -28.4766  -13.4849   21.9004 H   0  0  0  0  0  0
  -25.2724   -9.5643   22.4815 H   0  0  0  0  0  0
  -23.9929   -7.4601   22.7514 H   0  0  0  0  0  0
  -21.0812   -8.8761   19.8951 H   0  0  0  0  0  0
  -22.3725  -10.9641   19.6132 H   0  0  0  0  0  0
  -21.1941   -7.6165   23.9706 H   0  0  0  0  0  0
  -21.1474   -6.0586   25.9088 H   0  0  0  0  0  0
  -22.0600   -2.7638   23.2926 H   0  0  0  0  0  0
  -22.4274  -12.0078   22.4994 H   0  0  0  0  0  0
  -21.1263  -13.1457   22.2836 H   0  0  0  0  0  0
  -24.6697  -15.8397   20.5137 H   0  0  0  0  0  0
  -26.2996  -15.6241   20.1209 H   0  0  0  0  0  0
  -26.7081  -32.5558   23.1155 H   0  0  0  0  0  0
  -25.0031  -33.9801   25.0468 H   0  0  0  0  0  0
  -22.6793  -31.3131   21.4296 H   0  0  0  0  0  0
  -23.3770  -35.9614   23.3313 H   0  0  0  0  0  0
  -24.3579  -36.8875   22.2032 H   0  0  0  0  0  0
  -23.7222  -37.6500   23.6612 H   0  0  0  0  0  0
  -26.0389  -31.6267   20.6160 H   0  0  0  0  0  0
  -26.8074  -30.8834   21.9906 H   0  0  0  0  0  0
  -28.1021  -29.1453   21.1053 H   0  0  0  0  0  0
  -26.0145  -26.0224   18.9542 H   0  0  0  0  0  0
  -23.9637  -27.3214   19.0287 H   0  0  0  0  0  0
  -23.6952  -30.6149   19.4145 H   0  0  0  0  0  0
  -22.7211  -29.2549   19.8817 H   0  0  0  0  0  0
  -25.1283  -36.1979   25.0818 H   0  0  0  0  0  0
  -20.9914  -28.3191   24.1481 H   0  0  0  0  0  0
  -20.5622  -26.2235   23.3611 H   0  0  0  0  0  0
  -21.6602  -26.7421   22.1236 H   0  0  0  0  0  0
  -19.6897  -25.6295   21.1240 H   0  0  0  0  0  0
  -19.6685  -27.3201   20.6759 H   0  0  0  0  0  0
  -17.4153  -26.6654   21.4036 H   0  0  0  0  0  0
  -18.0323  -26.0061   22.9029 H   0  0  0  0  0  0
  -19.7891  -30.7215   24.2367 H   0  0  0  0  0  0
  -17.4980  -31.6296   24.5120 H   0  0  0  0  0  0
  -15.5328  -30.3012   23.7618 H   0  0  0  0  0  0
  -15.8623  -28.0829   22.7080 H   0  0  0  0  0  0
  -24.5920  -30.7040   25.7839 H   0  0  0  0  0  0
  -24.8898  -32.2888   26.4897 H   0  0  0  0  0  0
  -25.8102  -30.8934   27.0249 H   0  0  0  0  0  0
  -26.2792  -29.6852   24.1101 H   0  0  0  0  0  0
  -27.4033  -29.7258   25.4502 H   0  0  0  0  0  0
  -27.8641  -30.4396   23.9203 H   0  0  0  0  0  0
  -27.2716  -33.3601   26.2098 H   0  0  0  0  0  0
  -28.3853  -32.6881   25.0273 H   0  0  0  0  0  0
  -28.0747  -31.8379   26.5334 H   0  0  0  0  0  0
  -28.2617  -38.0084   24.7495 H   0  0  0  0  0  0
  -28.1075  -36.2611   24.6325 H   0  0  0  0  0  0
  -27.2305  -37.1490   25.8873 H   0  0  0  0  0  0
  -20.9280  -29.8717   21.6949 H   0  0  0  0  0  0
  -26.0214  -38.2866   24.1408 H   0  0  0  0  0  0
  -29.5358  -20.5729   23.2451 H   0  0  0  0  0  0
  -25.1919  -18.9666   21.6269 H   0  0  0  0  0  0
  -31.3281  -16.3812   23.0393 H   0  0  0  0  0  0
  -31.8452  -16.7880   21.3703 H   0  0  0  0  0  0
  -28.6531  -16.1343   20.3175 H   0  0  0  0  0  0
  -28.2198  -15.7550   22.0222 H   0  0  0  0  0  0
  -29.8897  -18.0113   20.9405 H   0  0  0  0  0  0
  -28.0103  -26.7409   22.5995 H   0  0  0  0  0  0
  -27.6137  -25.3908   23.6154 H   0  0  0  0  0  0
  -26.5038  -25.8797   22.3287 H   0  0  0  0  0  0
  -28.8335  -22.8041   23.2650 H   0  0  0  0  0  0
  -27.1405  -23.0695   23.6101 H   0  0  0  0  0  0
  -29.3442  -25.0101   19.7209 H   0  0  0  0  0  0
  -27.6504  -24.9134   19.4900 H   0  0  0  0  0  0
  -29.3251  -24.7380   21.9638 H   0  0  0  0  0  0
  -28.8600  -17.2166   23.5762 H   0  0  0  0  0  0
  -26.7371  -23.4627   21.3578 H   0  0  0  0  0  0
  -28.1879  -22.8910   20.8951 H   0  0  0  0  0  0
  1 25  1  0  0  0
  1 30  2  0  0  0
  1 84  1  0  0  0
  2  3  1  0  0  0
  2 25  1  0  0  0
  2 88  1  0  0  0
  2 89  1  0  0  0
  3  4  1  0  0  0
  3 90  1  0  0  0
  3 91  1  0  0  0
  4  5  1  0  0  0
  4 92  1  0  0  0
  4 93  1  0  0  0
  5  6  1  0  0  0
  5 26  1  0  0  0
  5 94  1  0  0  0
  6 25  1  0  0  0
  6 95  1  0  0  0
  6 96  1  0  0  0
  7  8  2  0  0  0
  7 26  1  0  0  0
  7 29  1  0  0  0
  8  9  1  0  0  0
  8 22  1  0  0  0
  9 10  1  0  0  0
  9 27  2  0  0  0
 10 11  2  0  0  0
 10 15  1  0  0  0
 11 12  1  0  0  0
 11 97  1  0  0  0
 12 13  2  0  0  0
 12 98  1  0  0  0
 13 14  1  0  0  0
 13 31  1  0  0  0
 14 15  2  0  0  0
 14 99  1  0  0  0
 15100  1  0  0  0
 16 17  2  0  0  0
 16 21  1  0  0  0
 16 31  1  0  0  0
 17 18  1  0  0  0
 17101  1  0  0  0
 18 19  2  0  0  0
 18102  1  0  0  0
 19 20  1  0  0  0
 19 24  1  0  0  0
 20 21  2  0  0  0
 20103  1  0  0  0
 21 23  1  0  0  0
 22 28  1  0  0  0
 22 32  2  0  0  0
 26 27  1  0  0  0
 28104  1  0  0  0
 28105  1  0  0  0
 29106  1  0  0  0
 29107  1  0  0  0
 33 34  1  0  0  0
 33 66  1  0  0  0
 33 70  2  0  0  0
 34 36  1  0  0  0
 34 59  1  0  0  0
 34108  1  0  0  0
 35 44  2  0  0  0
 35 45  1  0  0  0
 35 68  1  0  0  0
 36 56  1  0  0  0
 36109  1  0  0  0
 37 39  1  0  0  0
 37 47  1  0  0  0
 37 66  1  0  0  0
 37110  1  0  0  0
 38 43  2  0  0  0
 38 46  1  0  0  0
 38 47  1  0  0  0
 39 64  1  0  0  0
 39 67  2  0  0  0
 40 52  1  0  0  0
 40 53  2  0  0  0
 40 58  1  0  0  0
 41111  1  0  0  0
 41112  1  0  0  0
 41113  1  0  0  0
 41 48  1  0  0  0
 42 43  1  0  0  0
 42 66  1  0  0  0
 42114  1  0  0  0
 42115  1  0  0  0
 43 44  1  0  0  0
 44116  1  0  0  0
 45 46  2  0  0  0
 45117  1  0  0  0
 46118  1  0  0  0
 47119  1  0  0  0
 47120  1  0  0  0
 48 56  1  0  0  0
 48 65  1  0  0  0
 48121  1  0  0  0
 49 50  1  0  0  0
 49 53  1  0  0  0
 49 64  1  0  0  0
 49122  1  0  0  0
 50 51  1  0  0  0
 50123  1  0  0  0
 50124  1  0  0  0
 51 52  1  0  0  0
 51125  1  0  0  0
 51126  1  0  0  0
 52127  1  0  0  0
 52128  1  0  0  0
 53 54  1  0  0  0
 54 55  2  0  0  0
 54129  1  0  0  0
 55 57  1  0  0  0
 55130  1  0  0  0
 56 69  2  0  0  0
 57 58  2  0  0  0
 57131  1  0  0  0
 58132  1  0  0  0
 59 60  1  0  0  0
 59 61  1  0  0  0
 59 62  1  0  0  0
 60133  1  0  0  0
 60134  1  0  0  0
 60135  1  0  0  0
 61136  1  0  0  0
 61137  1  0  0  0
 61138  1  0  0  0
 62139  1  0  0  0
 62140  1  0  0  0
 62141  1  0  0  0
 63 65  1  0  0  0
 63142  1  0  0  0
 63143  1  0  0  0
 63144  1  0  0  0
 64145  1  0  0  0
 65146  1  0  0  0
 68 81  1  0  0  0
 71 73  2  0  0  0
 71 75  1  0  0  0
 71147  1  0  0  0
 72 74  2  0  0  0
 72 83  1  0  0  0
 72148  1  0  0  0
 73 74  1  0  0  0
 73 80  1  0  0  0
 74 87  1  0  0  0
 75 83  2  0  0  0
 75 85  1  0  0  0
 76 78  1  0  0  0
 76 84  1  0  0  0
 76149  1  0  0  0
 76150  1  0  0  0
 77 78  1  0  0  0
 77 84  1  0  0  0
 77151  1  0  0  0
 77152  1  0  0  0
 78 85  1  0  0  0
 78153  1  0  0  0
 79154  1  0  0  0
 79155  1  0  0  0
 79156  1  0  0  0
 79 82  1  0  0  0
 80 86  1  0  0  0
 80157  1  0  0  0
 80158  1  0  0  0
 81 82  1  0  0  0
 81159  1  0  0  0
 81160  1  0  0  0
 82 86  1  0  0  0
 82161  1  0  0  0
 85162  1  0  0  0
 86163  1  0  0  0
 86164  1  0  0  0
M  CHG  1  86   1
M  ISO  4   1 100  68 101  81 101  84 100
M  END
> <chiral flag>
0

> <version>
0

> <s_m_source_file>
/data/baiqing/PycharmProjects/Reinvent-master-3.2/result/LINK_invent/BTK/process_docking_weight1_custom_sum_contain_oxygen_bond_distance_aromatic_linkinvent_7_9_3/rearranged_h_0191.sdf

> <i_m_source_file_index>
99

> <r_mmod_Potential_Energy-OPLS-2005>
-340.666534423828

> <r_mmod_Stretch_Energy-OPLS-2005>
34.6752433776855

> <r_mmod_Bend_Energy-OPLS-2005>
108.285720825195

> <r_mmod_Torsional_Energy-OPLS-2005>
290.866027832031

> <r_mmod_Improper_Torsional_Energy-OPLS-2005>
14.084584236145

> <r_mmod_Van_der_Waal_Energy-OPLS-2005>
159.843185424805

> <r_mmod_Electrostatic_Energy-OPLS-2005>
-489.44921875

> <r_mmod_Solvation_Energy-OPLS-2005>
-468.512451171875

> <b_mmod_Minimization_Converged-OPLS-2005>
0

> <r_mmod_RMS_Derivative-OPLS-2005>
4.64732456207275

$$$$
